CIF file written using JARVIS-Tools package.
data_Rb2AgAu3I8
_symmetry_space_group_name_H-M  'C2/c'
_cell_length_a       7.58962
_cell_length_b       7.65539
_cell_length_c       20.9868
_cell_angle_alpha    100.539
_cell_angle_beta     90
_cell_angle_gamma    119.716

_symmetry_Int_Tables_number  15
_chemical_formula_structural  Rb2AgAu3I8
_chemical_formula_sum  Rb4Ag2Au6I6
_cell_volume  1035.2567647493413
_cell_formula_units_Z  2
loop_
  _symmetry_equiv_pos_site_id
 _symmetry_equiv_pos_as_xyz
 1  'x, y, z'
loop_
 _atom_site_type_symbol
 _atom_site_label
 _atom_site_symmetry_multiplicity
 _atom_site_fract_x
 _atom_site_fract_y
 _atom_site_fract_z
 _atom_site_fract_occupancy
 Ag  Ag1  1  0.97441  0.00000  0.25000  1
 Ag  Ag2  1  0.02559  -0.00000  0.75000  1
 Au  Au1  1  0.40603  0.80589  0.69800  1
 Au  Au2  1  0.00000  0.00000  0.50000  1
 Au  Au3  1  0.59397  0.19411  0.30200  1
 Au  Au4  1  0.00000  0.00000  0.00000  1
 Au  Au5  1  0.39986  0.80589  0.19800  1
 Au  Au6  1  0.60014  0.19411  0.80200  1
 I  I1  1  0.74735  0.94293  0.64309  1
 I  I2  1  0.16416  0.39508  0.06582  1
 I  I3  1  0.25265  0.05707  0.35691  1
 I  I4  1  0.33332  0.09861  0.93499  1
 I  I5  1  0.41722  0.35553  0.74840  1
 I  I6  1  0.06169  0.64447  0.75160  1
 I  I7  1  0.93831  0.35553  0.24840  1
 I  I8  1  0.76908  0.60492  0.43418  1
 I  I9  1  0.83584  0.60492  0.93418  1
 I  I10  1  0.80442  0.05707  0.85691  1
 I  I11  1  0.23092  0.39508  0.56582  1
 I  I12  1  0.76528  0.09861  0.43499  1
 I  I13  1  0.19558  0.94293  0.14309  1
 I  I14  1  0.23472  0.90139  0.56501  1
 I  I15  1  0.58278  0.64447  0.25160  1
 I  I16  1  0.66668  0.90139  0.06501  1
 Rb  Rb1  1  0.32055  0.58562  0.90665  1
 Rb  Rb2  1  0.26507  0.58562  0.40665  1
 Rb  Rb3  1  0.67945  0.41438  0.09335  1
 Rb  Rb4  1  0.73493  0.41438  0.59335  1
