CIF file written using JARVIS-Tools package.
data_FeS
_symmetry_space_group_name_H-M  'P6_3mc'
_cell_length_a       6.59692
_cell_length_b       6.59692
_cell_length_c       5.19452
_cell_angle_alpha    90
_cell_angle_beta     90
_cell_angle_gamma    120

_symmetry_Int_Tables_number  186
_chemical_formula_structural  FeS
_chemical_formula_sum  Fe8S8
_cell_volume  195.77525061971932
_cell_formula_units_Z  8
loop_
  _symmetry_equiv_pos_site_id
 _symmetry_equiv_pos_as_xyz
 1  'x, y, z'
loop_
 _atom_site_type_symbol
 _atom_site_label
 _atom_site_symmetry_multiplicity
 _atom_site_fract_x
 _atom_site_fract_y
 _atom_site_fract_z
 _atom_site_fract_occupancy
 Fe  Fe1  1  0.52335  0.47665  0.01460  1
 Fe  Fe2  1  0.95330  0.47665  0.01460  1
 Fe  Fe3  1  0.00000  0.00000  0.44964  1
 Fe  Fe4  1  0.47665  0.52335  0.51460  1
 Fe  Fe5  1  0.52335  0.04670  0.01460  1
 Fe  Fe6  1  0.00000  0.00000  0.94964  1
 Fe  Fe7  1  0.04670  0.52335  0.51460  1
 Fe  Fe8  1  0.47665  0.95330  0.51460  1
 S  S1  1  0.16707  0.33414  0.23019  1
 S  S2  1  0.16707  0.83293  0.23019  1
 S  S3  1  0.83293  0.66586  0.73019  1
 S  S4  1  0.66586  0.83293  0.23019  1
 S  S5  1  0.66667  0.33333  0.29101  1
 S  S6  1  0.33414  0.16707  0.73019  1
 S  S7  1  0.83293  0.16707  0.73019  1
 S  S8  1  0.33333  0.66667  0.79101  1
