CIF file written using JARVIS-Tools package.
data_CdIn2Se4
_symmetry_space_group_name_H-M  'I-42m'
_cell_length_a       5.84949
_cell_length_b       5.84949
_cell_length_c       7.2522
_cell_angle_alpha    113.784
_cell_angle_beta     113.784
_cell_angle_gamma    90

_symmetry_Int_Tables_number  121
_chemical_formula_structural  CdIn2Se4
_chemical_formula_sum  CdIn2Se4
_cell_volume  203.82863444950763
_cell_formula_units_Z  1
loop_
  _symmetry_equiv_pos_site_id
 _symmetry_equiv_pos_as_xyz
 1  'x, y, z'
loop_
 _atom_site_type_symbol
 _atom_site_label
 _atom_site_symmetry_multiplicity
 _atom_site_fract_x
 _atom_site_fract_y
 _atom_site_fract_z
 _atom_site_fract_occupancy
 Cd  Cd1  1  0.50000  0.50000  0.00000  1
 In  In1  1  0.25000  0.75000  0.50000  1
 In  In2  1  0.75000  0.25000  0.50000  1
 Se  Se1  1  0.33464  0.33464  0.22851  1
 Se  Se2  1  0.66536  0.10613  0.77149  1
 Se  Se3  1  0.89387  0.89387  0.22851  1
 Se  Se4  1  0.10613  0.66536  0.77149  1
