CIF file written using JARVIS-Tools package.
data_EuSbO4
_symmetry_space_group_name_H-M  'P2_1/c'
_cell_length_a       5.45459
_cell_length_b       7.61708
_cell_length_c       7.65851
_cell_angle_alpha    98.9511
_cell_angle_beta     90
_cell_angle_gamma    90

_symmetry_Int_Tables_number  14
_chemical_formula_structural  EuSbO4
_chemical_formula_sum  Eu4Sb4O6
_cell_volume  314.32160568540735
_cell_formula_units_Z  4
loop_
  _symmetry_equiv_pos_site_id
 _symmetry_equiv_pos_as_xyz
 1  'x, y, z'
loop_
 _atom_site_type_symbol
 _atom_site_label
 _atom_site_symmetry_multiplicity
 _atom_site_fract_x
 _atom_site_fract_y
 _atom_site_fract_z
 _atom_site_fract_occupancy
 Eu  Eu1  1  0.77381  0.39398  0.14544  1
 Eu  Eu2  1  0.27381  0.10602  0.85456  1
 Eu  Eu3  1  0.22619  0.60602  0.85456  1
 Eu  Eu4  1  0.72619  0.89398  0.14544  1
 O  O1  1  0.99856  0.12299  0.17250  1
 O  O2  1  0.49856  0.37701  0.82750  1
 O  O3  1  0.00144  0.87701  0.82750  1
 O  O4  1  0.51946  0.82768  0.88389  1
 O  O5  1  0.09486  0.19308  0.56699  1
 O  O6  1  0.59486  0.30692  0.43301  1
 O  O7  1  0.50144  0.62299  0.17250  1
 O  O8  1  0.40514  0.69308  0.56699  1
 O  O9  1  0.12381  0.43957  0.33158  1
 O  O10  1  0.87619  0.56043  0.66842  1
 O  O11  1  0.90514  0.80692  0.43301  1
 O  O12  1  0.37619  0.93957  0.33158  1
 O  O13  1  0.48054  0.17232  0.11611  1
 O  O14  1  0.98054  0.32768  0.88389  1
 O  O15  1  0.62381  0.06043  0.66842  1
 O  O16  1  0.01946  0.67232  0.11611  1
 Sb  Sb1  1  0.23000  0.69381  0.33708  1
 Sb  Sb2  1  0.73000  0.80619  0.66292  1
 Sb  Sb3  1  0.77000  0.30619  0.66292  1
 Sb  Sb4  1  0.27000  0.19381  0.33708  1
