CIF file written using JARVIS-Tools package.
data_Mg3P2H16O16
_symmetry_space_group_name_H-M  'C2/m'
_cell_length_a       4.6674
_cell_length_b       8.27034
_cell_length_c       8.27034
_cell_angle_alpha    105.039
_cell_angle_beta     99.1592
_cell_angle_gamma    99.1592

_symmetry_Int_Tables_number  12
_chemical_formula_structural  Mg3P2H16O16
_chemical_formula_sum  Mg3P2H6O6
_cell_volume  297.57250373617404
_cell_formula_units_Z  1
loop_
  _symmetry_equiv_pos_site_id
 _symmetry_equiv_pos_as_xyz
 1  'x, y, z'
loop_
 _atom_site_type_symbol
 _atom_site_label
 _atom_site_symmetry_multiplicity
 _atom_site_fract_x
 _atom_site_fract_y
 _atom_site_fract_z
 _atom_site_fract_occupancy
 H  H1  1  0.51030  0.17215  0.57005  1
 H  H2  1  0.63625  0.04346  0.20789  1
 H  H3  1  0.71814  0.74914  0.17847  1
 H  H4  1  0.28186  0.82153  0.25086  1
 H  H5  1  0.28186  0.25086  0.82153  1
 H  H6  1  0.48970  0.82785  0.42995  1
 H  H7  1  0.48970  0.42995  0.82785  1
 H  H8  1  0.63625  0.20789  0.04346  1
 H  H9  1  0.36375  0.95654  0.79211  1
 H  H10  1  0.36375  0.79211  0.95654  1
 H  H11  1  0.71814  0.17847  0.74914  1
 H  H12  1  0.95971  0.31832  0.06126  1
 H  H13  1  0.04029  0.93874  0.68168  1
 H  H14  1  0.04029  0.68168  0.93874  1
 H  H15  1  0.95971  0.06126  0.31832  1
 H  H16  1  0.51030  0.57005  0.17215  1
 Mg  Mg1  1  -0.00000  0.38708  0.61292  1
 Mg  Mg2  1  0.00000  0.00000  0.00000  1
 Mg  Mg3  1  0.00000  0.61292  0.38708  1
 O  O1  1  0.22692  0.44156  0.24428  1
 O  O2  1  0.80929  0.98491  0.21445  1
 O  O3  1  0.71586  0.62821  0.17455  1
 O  O4  1  0.28414  0.37179  0.82545  1
 O  O5  1  0.71586  0.17455  0.62821  1
 O  O6  1  0.80929  0.21445  0.98491  1
 O  O7  1  0.77308  0.75572  0.55844  1
 O  O8  1  0.22692  0.24428  0.44156  1
 O  O9  1  0.28414  0.82545  0.37179  1
 O  O10  1  0.28592  0.60225  0.60225  1
 O  O11  1  0.37886  0.15719  0.15719  1
 O  O12  1  0.62114  0.84281  0.84281  1
 O  O13  1  0.19071  0.78555  0.01509  1
 O  O14  1  0.19071  0.01509  0.78555  1
 O  O15  1  0.71408  0.39775  0.39775  1
 O  O16  1  0.77308  0.55844  0.75572  1
 P  P1  1  0.61497  0.68576  0.68576  1
 P  P2  1  0.38503  0.31424  0.31424  1
