CIF file written using JARVIS-Tools package.
data_CaBePO4F
_symmetry_space_group_name_H-M  'P2_1/c'
_cell_length_a       4.74047
_cell_length_b       7.69869
_cell_length_c       9.76677
_cell_angle_alpha    90
_cell_angle_beta     91.2286
_cell_angle_gamma    90

_symmetry_Int_Tables_number  14
_chemical_formula_structural  CaBePO4F
_chemical_formula_sum  Ca4Be4P4O6F4
_cell_volume  356.36097040880287
_cell_formula_units_Z  4
loop_
  _symmetry_equiv_pos_site_id
 _symmetry_equiv_pos_as_xyz
 1  'x, y, z'
loop_
 _atom_site_type_symbol
 _atom_site_label
 _atom_site_symmetry_multiplicity
 _atom_site_fract_x
 _atom_site_fract_y
 _atom_site_fract_z
 _atom_site_fract_occupancy
 Be  Be1  1  0.45294  0.91433  0.16129  1
 Be  Be2  1  0.54706  0.41433  0.33871  1
 Be  Be3  1  0.54706  0.08567  0.83871  1
 Be  Be4  1  0.45294  0.58567  0.66129  1
 Ca  Ca1  1  0.00459  0.88774  0.67049  1
 Ca  Ca2  1  0.99541  0.11226  0.32951  1
 Ca  Ca3  1  0.00459  0.61226  0.17049  1
 Ca  Ca4  1  0.99541  0.38774  0.82951  1
 F  F1  1  0.21453  0.09255  0.82649  1
 F  F2  1  0.21453  0.40745  0.32649  1
 F  F3  1  0.78547  0.59255  0.67351  1
 F  F4  1  0.78547  0.90745  0.17351  1
 O  O1  1  0.33689  0.10887  0.14665  1
 O  O2  1  0.75322  0.90063  0.46096  1
 O  O3  1  0.24678  0.40063  0.03904  1
 O  O4  1  0.33689  0.39113  0.64665  1
 O  O5  1  0.66311  0.89113  0.85335  1
 O  O6  1  0.68459  0.34546  0.19390  1
 O  O7  1  0.34539  0.71730  0.54297  1
 O  O8  1  0.66311  0.60887  0.35335  1
 O  O9  1  0.31541  0.65454  0.80610  1
 O  O10  1  0.24678  0.09937  0.53904  1
 O  O11  1  0.34539  0.78270  0.04297  1
 O  O12  1  0.65461  0.28270  0.45703  1
 O  O13  1  0.68459  0.15454  0.69390  1
 O  O14  1  0.31541  0.84546  0.30610  1
 O  O15  1  0.75322  0.59937  0.96096  1
 O  O16  1  0.65461  0.21730  0.95703  1
 P  P1  1  0.52377  0.77142  0.41864  1
 P  P2  1  0.47623  0.27142  0.08136  1
 P  P3  1  0.52377  0.72858  0.91864  1
 P  P4  1  0.47623  0.22858  0.58136  1
