CIF file written using JARVIS-Tools package.
data_Tl3SiTe3
_symmetry_space_group_name_H-M  'P-1'
_cell_length_a       9.55352
_cell_length_b       9.78732
_cell_length_c       10.5922
_cell_angle_alpha    89.0413
_cell_angle_beta     83.4464
_cell_angle_gamma    79.0348

_symmetry_Int_Tables_number  2
_chemical_formula_structural  Tl3SiTe3
_chemical_formula_sum  Tl2Si4Te2
_cell_volume  965.9621434781529
_cell_formula_units_Z  4
loop_
  _symmetry_equiv_pos_site_id
 _symmetry_equiv_pos_as_xyz
 1  'x, y, z'
loop_
 _atom_site_type_symbol
 _atom_site_label
 _atom_site_symmetry_multiplicity
 _atom_site_fract_x
 _atom_site_fract_y
 _atom_site_fract_z
 _atom_site_fract_occupancy
 Si  Si1  1  0.42514  0.01795  0.41774  1
 Si  Si2  1  0.91221  0.42920  0.01480  1
 Si  Si3  1  0.57486  0.98205  0.58226  1
 Si  Si4  1  0.08779  0.57080  0.98520  1
 Te  Te1  1  0.87265  0.38045  0.25182  1
 Te  Te2  1  0.68812  0.55732  0.92269  1
 Te  Te3  1  0.58031  0.06742  0.21673  1
 Te  Te4  1  0.68124  0.20193  0.59361  1
 Te  Te5  1  0.77837  0.77406  0.52700  1
 Te  Te6  1  0.00285  0.20173  0.89483  1
 Te  Te7  1  0.22163  0.22594  0.47300  1
 Te  Te8  1  0.12735  0.61955  0.74818  1
 Te  Te9  1  0.31876  0.79807  0.40639  1
 Te  Te10  1  0.31188  0.44268  0.07731  1
 Te  Te11  1  0.99715  0.79827  0.10517  1
 Te  Te12  1  0.41969  0.93258  0.78327  1
 Tl  Tl1  1  0.90183  0.03791  0.35358  1
 Tl  Tl2  1  0.51339  0.38133  0.35456  1
 Tl  Tl3  1  0.90187  0.43145  0.65550  1
 Tl  Tl4  1  0.31664  0.28761  0.76100  1
 Tl  Tl5  1  0.35826  0.77946  0.08377  1
 Tl  Tl6  1  0.09813  0.56855  0.34450  1
 Tl  Tl7  1  0.68336  0.71239  0.23900  1
 Tl  Tl8  1  0.80378  0.84943  0.84197  1
 Tl  Tl9  1  0.64174  0.22054  0.91623  1
 Tl  Tl10  1  0.19622  0.15057  0.15803  1
 Tl  Tl11  1  0.48661  0.61867  0.64544  1
 Tl  Tl12  1  0.09817  0.96209  0.64642  1
