CIF file written using JARVIS-Tools package.
data_TiTlPS5
_symmetry_space_group_name_H-M  'P-1'
_cell_length_a       6.29809
_cell_length_b       7.08309
_cell_length_c       9.109
_cell_angle_alpha    106.589
_cell_angle_beta     97.5628
_cell_angle_gamma    91.6592

_symmetry_Int_Tables_number  2
_chemical_formula_structural  TiTlPS5
_chemical_formula_sum  Ti2Tl2P2S0
_cell_volume  385.10389644889057
_cell_formula_units_Z  2
loop_
  _symmetry_equiv_pos_site_id
 _symmetry_equiv_pos_as_xyz
 1  'x, y, z'
loop_
 _atom_site_type_symbol
 _atom_site_label
 _atom_site_symmetry_multiplicity
 _atom_site_fract_x
 _atom_site_fract_y
 _atom_site_fract_z
 _atom_site_fract_occupancy
 P  P1  1  0.27731  0.89541  0.72907  1
 P  P2  1  0.72269  0.10459  0.27093  1
 S  S1  1  0.15601  0.69255  0.82634  1
 S  S2  1  0.33239  0.54375  0.13249  1
 S  S3  1  0.39711  0.06170  0.17526  1
 S  S4  1  0.60289  0.93830  0.82474  1
 S  S5  1  0.15931  0.16386  0.83127  1
 S  S6  1  0.77280  0.18810  0.50183  1
 S  S7  1  0.66761  0.45625  0.86751  1
 S  S8  1  0.22720  0.81190  0.49817  1
 S  S9  1  0.84069  0.83614  0.16873  1
 S  S10  1  0.84399  0.30745  0.17366  1
 Ti  Ti1  1  0.50231  0.27692  0.00083  1
 Ti  Ti2  1  0.49769  0.72308  0.99917  1
 Tl  Tl1  1  0.72535  0.68510  0.45101  1
 Tl  Tl2  1  0.27465  0.31490  0.54899  1
