CIF file written using JARVIS-Tools package.
data_Ca5P12Ir19
_symmetry_space_group_name_H-M  'P-62m'
_cell_length_a       12.7127
_cell_length_b       12.7127
_cell_length_c       4.01455
_cell_angle_alpha    90
_cell_angle_beta     90
_cell_angle_gamma    120

_symmetry_Int_Tables_number  189
_chemical_formula_structural  Ca5P12Ir19
_chemical_formula_sum  Ca5P2Ir9
_cell_volume  561.8802577912843
_cell_formula_units_Z  1
loop_
  _symmetry_equiv_pos_site_id
 _symmetry_equiv_pos_as_xyz
 1  'x, y, z'
loop_
 _atom_site_type_symbol
 _atom_site_label
 _atom_site_symmetry_multiplicity
 _atom_site_fract_x
 _atom_site_fract_y
 _atom_site_fract_z
 _atom_site_fract_occupancy
 Ca  Ca1  1  0.00000  0.18210  0.50000  1
 Ca  Ca2  1  0.33333  0.66667  0.00000  1
 Ca  Ca3  1  0.66667  0.33333  0.00000  1
 Ca  Ca4  1  0.18210  -0.00000  0.50000  1
 Ca  Ca5  1  0.81790  0.81790  0.50000  1
 Ir  Ir1  1  0.28857  0.28857  0.50000  1
 Ir  Ir2  1  0.00000  0.71143  0.50000  1
 Ir  Ir3  1  0.18092  0.80317  0.00000  1
 Ir  Ir4  1  0.80317  0.18092  0.00000  1
 Ir  Ir5  1  0.81908  0.62225  0.00000  1
 Ir  Ir6  1  0.13108  0.49282  0.50000  1
 Ir  Ir7  1  0.36174  0.86892  0.50000  1
 Ir  Ir8  1  0.71143  -0.00000  0.50000  1
 Ir  Ir9  1  0.86892  0.36174  0.50000  1
 Ir  Ir10  1  0.63826  0.50718  0.50000  1
 Ir  Ir11  1  0.37775  0.19683  0.00000  1
 Ir  Ir12  1  0.00000  0.00000  0.00000  1
 Ir  Ir13  1  0.50718  0.63826  0.50000  1
 Ir  Ir14  1  -0.00000  0.53808  0.00000  1
 Ir  Ir15  1  0.19683  0.37775  0.00000  1
 Ir  Ir16  1  0.53808  0.00000  0.00000  1
 Ir  Ir17  1  0.62225  0.81908  0.00000  1
 Ir  Ir18  1  0.46192  0.46192  0.00000  1
 Ir  Ir19  1  0.49282  0.13108  0.50000  1
 P  P1  1  0.17429  0.68950  0.50000  1
 P  P2  1  0.81981  0.00000  0.00000  1
 P  P3  1  0.18019  0.18019  0.00000  1
 P  P4  1  -0.00000  0.81981  0.00000  1
 P  P5  1  0.35721  -0.00000  0.00000  1
 P  P6  1  0.68950  0.17429  0.50000  1
 P  P7  1  0.82571  0.51522  0.50000  1
 P  P8  1  0.51522  0.82571  0.50000  1
 P  P9  1  0.48478  0.31050  0.50000  1
 P  P10  1  0.31050  0.48478  0.50000  1
 P  P11  1  0.00000  0.35721  0.00000  1
 P  P12  1  0.64279  0.64279  0.00000  1
