CIF file written using JARVIS-Tools package.
data_KCrPO4F
_symmetry_space_group_name_H-M  'Pna2_1'
_cell_length_a       6.34366
_cell_length_b       10.56
_cell_length_c       12.7488
_cell_angle_alpha    90
_cell_angle_beta     90
_cell_angle_gamma    90

_symmetry_Int_Tables_number  33
_chemical_formula_structural  KCrPO4F
_chemical_formula_sum  K8Cr8P8O32F8
_cell_volume  854.0335822499092
_cell_formula_units_Z  8
loop_
  _symmetry_equiv_pos_site_id
 _symmetry_equiv_pos_as_xyz
 1  'x, y, z'
loop_
 _atom_site_type_symbol
 _atom_site_label
 _atom_site_symmetry_multiplicity
 _atom_site_fract_x
 _atom_site_fract_y
 _atom_site_fract_z
 _atom_site_fract_occupancy
 Cr  Cr1  1  0.74731  0.49974  0.75270  1
 Cr  Cr2  1  0.25269  -0.00026  0.24730  1
 Cr  Cr3  1  0.00015  0.24800  0.88608  1
 Cr  Cr4  1  0.50015  0.74800  0.61392  1
 Cr  Cr5  1  0.49985  0.24800  0.38608  1
 Cr  Cr6  1  0.24731  -0.00026  0.74730  1
 Cr  Cr7  1  0.75269  0.49974  0.25270  1
 Cr  Cr8  1  0.99985  0.74800  0.11392  1
 F  F1  1  0.48080  0.11970  0.27308  1
 F  F2  1  0.02792  0.87379  0.22756  1
 F  F3  1  0.97208  0.37379  0.77244  1
 F  F4  1  0.47208  0.87379  0.72756  1
 F  F5  1  0.52792  0.37379  0.27244  1
 F  F6  1  0.51920  0.61970  0.72692  1
 F  F7  1  0.01920  0.11970  0.77308  1
 F  F8  1  0.98080  0.61970  0.22692  1
 K  K1  1  0.80415  0.19210  0.60472  1
 K  K2  1  0.19585  0.69210  0.39528  1
 K  K3  1  0.30415  0.69210  0.89528  1
 K  K4  1  0.69585  0.19210  0.10472  1
 K  K5  1  0.77506  0.94597  0.38215  1
 K  K6  1  0.22494  0.44597  0.61785  1
 K  K7  1  0.27506  0.44597  0.11785  1
 K  K8  1  0.72494  0.94597  0.88215  1
 O  O1  1  0.19348  0.27537  0.38997  1
 O  O2  1  0.81023  0.21788  0.38843  1
 O  O3  1  0.81994  0.51865  0.40426  1
 O  O4  1  0.18006  0.01865  0.59574  1
 O  O5  1  0.68006  0.51865  0.90426  1
 O  O6  1  0.95801  0.63421  0.75749  1
 O  O7  1  0.04199  0.13421  0.24251  1
 O  O8  1  0.31994  0.01865  0.09574  1
 O  O9  1  0.54199  0.63421  0.25749  1
 O  O10  1  0.30652  0.27537  0.88997  1
 O  O11  1  0.68708  0.48229  0.09940  1
 O  O12  1  0.18708  0.98229  0.40060  1
 O  O13  1  0.81292  0.48229  0.59940  1
 O  O14  1  0.45659  0.86112  0.25667  1
 O  O15  1  0.31292  0.98229  0.90060  1
 O  O16  1  0.80652  0.77537  0.61003  1
 O  O17  1  0.53587  0.37795  0.48984  1
 O  O18  1  0.31023  0.71788  0.11157  1
 O  O19  1  0.04341  0.86112  0.75667  1
 O  O20  1  0.54341  0.36112  0.74333  1
 O  O21  1  0.95659  0.36112  0.24333  1
 O  O22  1  0.45801  0.13421  0.74251  1
 O  O23  1  0.96413  0.37795  0.98984  1
 O  O24  1  0.46413  0.87795  0.51016  1
 O  O25  1  0.03587  0.87795  0.01016  1
 O  O26  1  0.98306  0.61004  0.01305  1
 O  O27  1  0.48306  0.11004  0.48695  1
 O  O28  1  0.69348  0.77537  0.11003  1
 O  O29  1  0.51694  0.61004  0.51305  1
 O  O30  1  0.18977  0.71788  0.61157  1
 O  O31  1  0.68977  0.21788  0.88843  1
 O  O32  1  0.01694  0.11004  0.98695  1
 P  P1  1  0.67511  0.49867  0.50000  1
 P  P2  1  0.17511  0.99867  1.00000  1
 P  P3  1  0.00339  0.24803  0.31786  1
 P  P4  1  0.99661  0.74803  0.68214  1
 P  P5  1  0.49661  0.24803  0.81786  1
 P  P6  1  0.50339  0.74803  0.18214  1
 P  P7  1  0.82489  0.49867  0.00000  1
 P  P8  1  0.32489  0.99867  0.50000  1
