CIF file written using JARVIS-Tools package.
data_NaCaLaF6
_symmetry_space_group_name_H-M  'P3'
_cell_length_a       3.76056
_cell_length_b       6.07718
_cell_length_c       6.07718
_cell_angle_alpha    120
_cell_angle_beta     90
_cell_angle_gamma    90

_symmetry_Int_Tables_number  143
_chemical_formula_structural  NaCaLaF6
_chemical_formula_sum  NaCaLaF6
_cell_volume  120.27825828696899
_cell_formula_units_Z  1
loop_
  _symmetry_equiv_pos_site_id
 _symmetry_equiv_pos_as_xyz
 1  'x, y, z'
loop_
 _atom_site_type_symbol
 _atom_site_label
 _atom_site_symmetry_multiplicity
 _atom_site_fract_x
 _atom_site_fract_y
 _atom_site_fract_z
 _atom_site_fract_occupancy
 Ca  Ca1  1  0.74346  0.33333  0.66667  1
 F  F1  1  0.24870  0.08672  0.38405  1
 F  F2  1  0.24870  0.61595  0.70267  1
 F  F3  1  0.24870  0.29733  0.91328  1
 F  F4  1  0.75683  0.92000  0.61200  1
 F  F5  1  0.75683  0.38800  0.30800  1
 F  F6  1  0.75683  0.69200  0.08000  1
 La  La1  1  0.26013  0.66667  0.33333  1
 Na  Na1  1  0.97981  0.00000  0.00000  1
