CIF file written using JARVIS-Tools package.
data_HgC2Se2N2
_symmetry_space_group_name_H-M  'P1'
_cell_length_a       4.24957
_cell_length_b       6.17013
_cell_length_c       11.5417
_cell_angle_alpha    92.1329
_cell_angle_beta     89.9992
_cell_angle_gamma    90.0015

_symmetry_Int_Tables_number  1
_chemical_formula_structural  HgC2Se2N2
_chemical_formula_sum  Hg2C4Se4N4
_cell_volume  302.4172918063214
_cell_formula_units_Z  2
loop_
  _symmetry_equiv_pos_site_id
 _symmetry_equiv_pos_as_xyz
 1  'x, y, z'
loop_
 _atom_site_type_symbol
 _atom_site_label
 _atom_site_symmetry_multiplicity
 _atom_site_fract_x
 _atom_site_fract_y
 _atom_site_fract_z
 _atom_site_fract_occupancy
 C  C1  1  0.21478  0.44901  0.62847  1
 C  C2  1  0.78522  0.55099  0.37153  1
 C  C3  1  0.64471  0.83727  0.84301  1
 C  C4  1  0.85529  0.83729  0.34301  1
 Hg  Hg1  1  0.50000  0.00000  0.50000  1
 Hg  Hg2  1  0.00000  0.00000  0.00000  1
 N  N1  1  0.75015  0.36480  0.88317  1
 N  N2  1  0.24985  0.63520  0.11683  1
 N  N3  1  0.74985  0.36481  0.38318  1
 N  N4  1  0.25015  0.63519  0.61682  1
 Se  Se1  1  0.35529  0.16273  0.15699  1
 Se  Se2  1  0.14471  0.16271  0.65699  1
 Se  Se3  1  0.28522  0.44903  0.12847  1
 Se  Se4  1  0.71478  0.55097  0.87153  1
