CIF file written using JARVIS-Tools package.
data_Li3VCrP4O14
_symmetry_space_group_name_H-M  'P1'
_cell_length_a       4.94275
_cell_length_b       7.00895
_cell_length_c       8.18064
_cell_angle_alpha    90.5628
_cell_angle_beta     89.8861
_cell_angle_gamma    108.876

_symmetry_Int_Tables_number  1
_chemical_formula_structural  Li3VCrP4O14
_chemical_formula_sum  Li3VCrP4O4
_cell_volume  268.15157210351856
_cell_formula_units_Z  1
loop_
  _symmetry_equiv_pos_site_id
 _symmetry_equiv_pos_as_xyz
 1  'x, y, z'
loop_
 _atom_site_type_symbol
 _atom_site_label
 _atom_site_symmetry_multiplicity
 _atom_site_fract_x
 _atom_site_fract_y
 _atom_site_fract_z
 _atom_site_fract_occupancy
 Cr  Cr1  1  0.21607  0.72748  0.99519  1
 Li  Li1  1  0.82913  0.34163  0.13790  1
 Li  Li2  1  0.28469  0.09238  0.33576  1
 Li  Li3  1  0.16726  0.66184  0.64806  1
 O  O1  1  0.95229  0.14712  0.68508  1
 O  O2  1  0.87663  0.11339  0.30428  1
 O  O3  1  0.13944  0.87996  0.80320  1
 O  O4  1  0.75353  0.49962  0.66016  1
 O  O5  1  0.56253  0.37118  0.31306  1
 O  O6  1  0.79911  0.52555  0.97050  1
 O  O7  1  0.41780  0.24137  0.84594  1
 O  O8  1  0.62168  0.74564  0.33662  1
 O  O9  1  0.38175  0.59390  0.82260  1
 O  O10  1  0.38313  0.08012  0.55929  1
 O  O11  1  0.23478  0.51210  0.15485  1
 O  O12  1  0.19683  0.49737  0.46299  1
 O  O13  1  0.61360  0.91298  0.05933  1
 O  O14  1  0.08267  0.87727  0.17370  1
 P  P1  1  0.39467  0.52267  0.31638  1
 P  P2  1  0.21074  0.08238  0.71725  1
 P  P3  1  0.79710  0.91366  0.20661  1
 P  P4  1  0.59635  0.47796  0.82348  1
 V  V1  1  0.79384  0.27751  0.50668  1
