CIF file written using JARVIS-Tools package.
data_Li4Co3O3F4
_symmetry_space_group_name_H-M  'I4/mmm'
_cell_length_a       2.89993
_cell_length_b       2.89993
_cell_length_c       14.8836
_cell_angle_alpha    95.5906
_cell_angle_beta     95.5906
_cell_angle_gamma    90

_symmetry_Int_Tables_number  139
_chemical_formula_structural  Li4Co3O3F4
_chemical_formula_sum  Li4Co3O3F4
_cell_volume  123.97136825865209
_cell_formula_units_Z  1
loop_
  _symmetry_equiv_pos_site_id
 _symmetry_equiv_pos_as_xyz
 1  'x, y, z'
loop_
 _atom_site_type_symbol
 _atom_site_label
 _atom_site_symmetry_multiplicity
 _atom_site_fract_x
 _atom_site_fract_y
 _atom_site_fract_z
 _atom_site_fract_occupancy
 Co  Co1  1  0.49846  0.49846  0.99691  1
 Co  Co2  1  0.07143  0.07143  0.14286  1
 Co  Co3  1  0.64440  0.64440  0.28880  1
 F  F1  1  0.72103  0.72103  0.44207  1
 F  F2  1  0.28767  0.28767  0.57534  1
 F  F3  1  0.85519  0.85519  0.71037  1
 F  F4  1  0.42182  0.42182  0.84365  1
 Li  Li1  1  0.21937  0.21937  0.43874  1
 Li  Li2  1  0.78809  0.78809  0.57618  1
 Li  Li3  1  0.35477  0.35477  0.70954  1
 Li  Li4  1  0.92349  0.92349  0.84697  1
 O  O1  1  0.99547  0.99547  0.99094  1
 O  O2  1  0.57143  0.57143  0.14286  1
 O  O3  1  0.14739  0.14739  0.29477  1
