CIF file written using JARVIS-Tools package.
data_Sr2CoWO6
_symmetry_space_group_name_H-M  'P-1'
_cell_length_a       5.62352
_cell_length_b       5.60459
_cell_length_c       5.59135
_cell_angle_alpha    60.1906
_cell_angle_beta     60.4698
_cell_angle_gamma    59.708

_symmetry_Int_Tables_number  2
_chemical_formula_structural  Sr2CoWO6
_chemical_formula_sum  Sr2CoWO6
_cell_volume  124.94574888683621
_cell_formula_units_Z  1
loop_
  _symmetry_equiv_pos_site_id
 _symmetry_equiv_pos_as_xyz
 1  'x, y, z'
loop_
 _atom_site_type_symbol
 _atom_site_label
 _atom_site_symmetry_multiplicity
 _atom_site_fract_x
 _atom_site_fract_y
 _atom_site_fract_z
 _atom_site_fract_occupancy
 Co  Co1  1  0.50000  0.50000  0.50000  1
 O  O1  1  0.20627  0.78816  0.72594  1
 O  O2  1  0.79373  0.21184  0.27406  1
 O  O3  1  0.70707  0.26006  0.80698  1
 O  O4  1  0.29293  0.73994  0.19302  1
 O  O5  1  0.22578  0.25928  0.73844  1
 O  O6  1  0.77422  0.74072  0.26156  1
 Sr  Sr1  1  0.24877  0.24997  0.25269  1
 Sr  Sr2  1  0.75123  0.75003  0.74731  1
 W  W1  1  0.00000  0.00000  0.00000  1
