CIF file written using JARVIS-Tools package.
data_Zr3Al3C5
_symmetry_space_group_name_H-M  'P6_3/mmc'
_cell_length_a       3.35361
_cell_length_b       3.35361
_cell_length_c       27.7283
_cell_angle_alpha    90
_cell_angle_beta     90
_cell_angle_gamma    120

_symmetry_Int_Tables_number  194
_chemical_formula_structural  Zr3Al3C5
_chemical_formula_sum  Zr6Al6C0
_cell_volume  270.0719417190293
_cell_formula_units_Z  2
loop_
  _symmetry_equiv_pos_site_id
 _symmetry_equiv_pos_as_xyz
 1  'x, y, z'
loop_
 _atom_site_type_symbol
 _atom_site_label
 _atom_site_symmetry_multiplicity
 _atom_site_fract_x
 _atom_site_fract_y
 _atom_site_fract_z
 _atom_site_fract_occupancy
 Al  Al1  1  0.00000  0.00000  0.24979  1
 Al  Al2  1  0.00000  0.00000  0.74979  1
 Al  Al3  1  0.33333  0.66667  0.32282  1
 Al  Al4  1  0.66667  0.33333  0.67675  1
 Al  Al5  1  0.66667  0.33333  0.82282  1
 Al  Al6  1  0.33333  0.66667  0.17675  1
 C  C1  1  0.33333  0.66667  0.44982  1
 C  C2  1  0.33333  0.66667  0.04975  1
 C  C3  1  0.66667  0.33333  0.74979  1
 C  C4  1  0.00000  0.00000  0.65189  1
 C  C5  1  0.00000  0.00000  0.34768  1
 C  C6  1  0.66667  0.33333  0.54975  1
 C  C7  1  0.66667  0.33333  0.94982  1
 C  C8  1  0.00000  0.00000  0.84768  1
 C  C9  1  0.00000  0.00000  0.15189  1
 C  C10  1  0.33333  0.66667  0.24979  1
 Zr  Zr1  1  0.66667  0.33333  0.40451  1
 Zr  Zr2  1  0.00000  0.00000  0.49978  1
 Zr  Zr3  1  0.33333  0.66667  0.59506  1
 Zr  Zr4  1  0.00000  0.00000  0.99978  1
 Zr  Zr5  1  0.66667  0.33333  0.09506  1
 Zr  Zr6  1  0.33333  0.66667  0.90451  1
