CIF file written using JARVIS-Tools package.
data_Nd7S6Cl9
_symmetry_space_group_name_H-M  'P2/c'
_cell_length_a       6.69091
_cell_length_b       6.9862
_cell_length_c       24.4071
_cell_angle_alpha    97.747
_cell_angle_beta     90
_cell_angle_gamma    90

_symmetry_Int_Tables_number  13
_chemical_formula_structural  Nd7S6Cl9
_chemical_formula_sum  Nd4S2Cl8
_cell_volume  1130.4717703535675
_cell_formula_units_Z  2
loop_
  _symmetry_equiv_pos_site_id
 _symmetry_equiv_pos_as_xyz
 1  'x, y, z'
loop_
 _atom_site_type_symbol
 _atom_site_label
 _atom_site_symmetry_multiplicity
 _atom_site_fract_x
 _atom_site_fract_y
 _atom_site_fract_z
 _atom_site_fract_occupancy
 Cl  Cl1  1  0.93325  0.76852  0.81064  1
 Cl  Cl2  1  0.04316  0.94193  0.05992  1
 Cl  Cl3  1  0.08239  0.03309  0.32030  1
 Cl  Cl4  1  0.88542  0.88611  0.44384  1
 Cl  Cl5  1  0.55626  0.25000  0.50000  1
 Cl  Cl6  1  0.08239  0.46691  0.67970  1
 Cl  Cl7  1  0.11458  0.11389  0.55616  1
 Cl  Cl8  1  0.95684  0.44193  0.05992  1
 Cl  Cl9  1  0.04316  0.55807  0.94008  1
 Cl  Cl10  1  0.44374  0.75000  0.50000  1
 Cl  Cl11  1  0.91761  0.53309  0.32030  1
 Cl  Cl12  1  0.91761  0.96691  0.67970  1
 Cl  Cl13  1  0.11458  0.38611  0.44384  1
 Cl  Cl14  1  0.93325  0.73148  0.18936  1
 Cl  Cl15  1  0.06675  0.26852  0.81064  1
 Cl  Cl16  1  0.95684  0.05807  0.94008  1
 Cl  Cl17  1  0.06675  0.23148  0.18936  1
 Cl  Cl18  1  0.88542  0.61389  0.55616  1
 Nd  Nd1  1  0.28703  0.25000  0.00000  1
 Nd  Nd2  1  0.28137  0.49211  0.57711  1
 Nd  Nd3  1  0.69606  0.37868  0.14340  1
 Nd  Nd4  1  0.71863  0.50789  0.42289  1
 Nd  Nd5  1  0.30394  0.87868  0.14340  1
 Nd  Nd6  1  0.28137  0.00789  0.42289  1
 Nd  Nd7  1  0.30413  0.13755  0.71523  1
 Nd  Nd8  1  0.69587  0.63755  0.71523  1
 Nd  Nd9  1  0.69587  0.86245  0.28477  1
 Nd  Nd10  1  0.30413  0.36245  0.28477  1
 Nd  Nd11  1  0.30394  0.62132  0.85660  1
 Nd  Nd12  1  0.71863  0.99211  0.57711  1
 Nd  Nd13  1  0.69606  0.12132  0.85660  1
 Nd  Nd14  1  0.71297  0.75000  0.00000  1
 S  S1  1  0.46171  0.92465  0.92844  1
 S  S2  1  0.44422  0.68778  0.36084  1
 S  S3  1  0.55647  0.11877  0.21741  1
 S  S4  1  0.55578  0.31222  0.63916  1
 S  S5  1  0.55578  0.18778  0.36084  1
 S  S6  1  0.55647  0.38123  0.78259  1
 S  S7  1  0.53829  0.07535  0.07156  1
 S  S8  1  0.44353  0.61877  0.21741  1
 S  S9  1  0.44353  0.88123  0.78259  1
 S  S10  1  0.46171  0.57535  0.07156  1
 S  S11  1  0.44422  0.81222  0.63916  1
 S  S12  1  0.53829  0.42465  0.92844  1
