CIF file written using JARVIS-Tools package.
data_Li5MnO3F
_symmetry_space_group_name_H-M  'P2_1'
_cell_length_a       4.64865
_cell_length_b       6.59242
_cell_length_c       6.56123
_cell_angle_alpha    90.0008
_cell_angle_beta     89.0058
_cell_angle_gamma    89.9991

_symmetry_Int_Tables_number  4
_chemical_formula_structural  Li5MnO3F
_chemical_formula_sum  Li0Mn2O6F2
_cell_volume  201.04380487677693
_cell_formula_units_Z  2
loop_
  _symmetry_equiv_pos_site_id
 _symmetry_equiv_pos_as_xyz
 1  'x, y, z'
loop_
 _atom_site_type_symbol
 _atom_site_label
 _atom_site_symmetry_multiplicity
 _atom_site_fract_x
 _atom_site_fract_y
 _atom_site_fract_z
 _atom_site_fract_occupancy
 F  F1  1  0.22407  0.02981  0.24549  1
 F  F2  1  0.27594  0.52982  0.20451  1
 Li  Li1  1  0.03237  0.54541  0.97936  1
 Li  Li2  1  0.54222  0.50690  0.97619  1
 Li  Li3  1  0.53456  0.80769  0.20072  1
 Li  Li4  1  0.96543  0.30770  0.24928  1
 Li  Li5  1  0.51492  0.22538  0.77473  1
 Li  Li6  1  0.46763  0.04540  0.47065  1
 Li  Li7  1  0.95779  0.00690  0.47380  1
 Li  Li8  1  0.98507  0.72539  0.67528  1
 Li  Li9  1  0.47920  0.80156  0.74850  1
 Li  Li10  1  0.02079  0.30157  0.70150  1
 Mn  Mn1  1  0.96582  0.01215  0.96554  1
 Mn  Mn2  1  0.53418  0.51215  0.48446  1
 O  O1  1  0.81288  0.29284  0.97309  1
 O  O2  1  0.74510  0.25522  0.49404  1
 O  O3  1  0.75492  0.75522  0.95595  1
 O  O4  1  0.28167  0.52302  0.74137  1
 O  O5  1  0.68712  0.79283  0.47691  1
 O  O6  1  0.21833  0.02302  0.70863  1
