CIF file written using JARVIS-Tools package.
data_Sb2S3O12
_symmetry_space_group_name_H-M  'P2_1/c'
_cell_length_a       4.74864
_cell_length_b       13.0579
_cell_length_c       14.4658
_cell_angle_alpha    100.744
_cell_angle_beta     90
_cell_angle_gamma    90

_symmetry_Int_Tables_number  14
_chemical_formula_structural  Sb2S3O12
_chemical_formula_sum  Sb8S2O48
_cell_volume  881.2582857239707
_cell_formula_units_Z  4
loop_
  _symmetry_equiv_pos_site_id
 _symmetry_equiv_pos_as_xyz
 1  'x, y, z'
loop_
 _atom_site_type_symbol
 _atom_site_label
 _atom_site_symmetry_multiplicity
 _atom_site_fract_x
 _atom_site_fract_y
 _atom_site_fract_z
 _atom_site_fract_occupancy
 O  O1  1  0.01864  0.84228  0.67751  1
 O  O2  1  0.36377  0.56427  0.28873  1
 O  O3  1  0.13623  0.06427  0.78873  1
 O  O4  1  0.63623  0.43573  0.71127  1
 O  O5  1  0.04445  0.85397  0.06081  1
 O  O6  1  0.54445  0.64603  0.43919  1
 O  O7  1  0.95555  0.14603  0.93919  1
 O  O8  1  0.45555  0.35397  0.56081  1
 O  O9  1  0.57252  0.93469  0.07320  1
 O  O10  1  0.07252  0.56531  0.42680  1
 O  O11  1  0.42748  0.06531  0.92680  1
 O  O12  1  0.92748  0.43469  0.57320  1
 O  O13  1  0.99030  0.04385  0.09684  1
 O  O14  1  0.49030  0.45615  0.40316  1
 O  O15  1  0.00970  0.95615  0.90316  1
 O  O16  1  0.54335  0.30310  0.98684  1
 O  O17  1  0.09986  0.93661  0.40002  1
 O  O18  1  0.51864  0.65772  0.82249  1
 O  O19  1  0.48136  0.34228  0.17751  1
 O  O20  1  0.98136  0.15772  0.32249  1
 O  O21  1  0.05777  0.76012  0.31625  1
 O  O22  1  0.55777  0.73988  0.18375  1
 O  O23  1  0.94223  0.23988  0.68375  1
 O  O24  1  0.44223  0.26012  0.81625  1
 O  O25  1  0.62979  0.85468  0.37957  1
 O  O26  1  0.12979  0.64532  0.12043  1
 O  O27  1  0.37021  0.14532  0.62043  1
 O  O28  1  0.87021  0.35468  0.87957  1
 O  O29  1  0.95665  0.80310  0.48684  1
 O  O30  1  0.45665  0.69690  0.01316  1
 O  O31  1  0.04335  0.19690  0.51316  1
 O  O32  1  0.50970  0.54385  0.59684  1
 O  O33  1  0.86377  0.93573  0.21127  1
 O  O34  1  0.59986  0.56339  0.09998  1
 O  O35  1  0.06960  0.43669  0.13047  1
 O  O36  1  0.92949  0.75116  0.88416  1
 O  O37  1  0.40014  0.43661  0.90002  1
 O  O38  1  0.54723  0.13640  0.22787  1
 O  O39  1  0.04723  0.36360  0.27213  1
 O  O40  1  0.95277  0.63640  0.72787  1
 O  O41  1  0.56960  0.06331  0.36953  1
 O  O42  1  0.45277  0.86360  0.77213  1
 O  O43  1  0.43040  0.93669  0.63047  1
 O  O44  1  0.57051  0.25116  0.38416  1
 O  O45  1  0.07051  0.24884  0.11584  1
 O  O46  1  0.42949  0.74884  0.61584  1
 O  O47  1  0.90014  0.06339  0.59998  1
 O  O48  1  0.93040  0.56331  0.86953  1
 S  S1  1  0.82515  0.65125  0.82196  1
 S  S2  1  0.86346  0.94216  0.10871  1
 S  S3  1  0.36346  0.55784  0.39129  1
 S  S4  1  0.63654  0.44216  0.60871  1
 S  S5  1  0.32515  0.84875  0.67804  1
 S  S6  1  0.05837  0.16410  0.60468  1
 S  S7  1  0.67485  0.15125  0.32196  1
 S  S8  1  0.55837  0.33590  0.89532  1
 S  S9  1  0.44163  0.66410  0.10468  1
 S  S10  1  0.94163  0.83590  0.39532  1
 S  S11  1  0.17485  0.34875  0.17804  1
 S  S12  1  0.13654  0.05784  0.89129  1
 Sb  Sb1  1  0.18996  0.32668  0.43310  1
 Sb  Sb2  1  0.58759  0.07519  0.71638  1
 Sb  Sb3  1  0.08759  0.42481  0.78362  1
 Sb  Sb4  1  0.91241  0.57519  0.21638  1
 Sb  Sb5  1  0.68996  0.17332  0.06690  1
 Sb  Sb6  1  0.81004  0.67332  0.56690  1
 Sb  Sb7  1  0.31004  0.82668  0.93310  1
 Sb  Sb8  1  0.41241  0.92481  0.28362  1
