CIF file written using JARVIS-Tools package.
data_Na3YCl6
_symmetry_space_group_name_H-M  'R-3'
_cell_length_a       7.42995
_cell_length_b       7.42995
_cell_length_c       7.42995
_cell_angle_alpha    55.9799
_cell_angle_beta     55.9799
_cell_angle_gamma    55.9799

_symmetry_Int_Tables_number  148
_chemical_formula_structural  Na3YCl6
_chemical_formula_sum  Na3YCl6
_cell_volume  263.0158683073201
_cell_formula_units_Z  1
loop_
  _symmetry_equiv_pos_site_id
 _symmetry_equiv_pos_as_xyz
 1  'x, y, z'
loop_
 _atom_site_type_symbol
 _atom_site_label
 _atom_site_symmetry_multiplicity
 _atom_site_fract_x
 _atom_site_fract_y
 _atom_site_fract_z
 _atom_site_fract_occupancy
 Cl  Cl1  1  0.10733  0.37589  0.77245  1
 Cl  Cl2  1  0.37589  0.77245  0.10733  1
 Cl  Cl3  1  0.77245  0.10733  0.37589  1
 Cl  Cl4  1  0.22755  0.89267  0.62411  1
 Cl  Cl5  1  0.62411  0.22755  0.89267  1
 Cl  Cl6  1  0.89267  0.62411  0.22755  1
 Na  Na1  1  0.19696  0.19696  0.19696  1
 Na  Na2  1  0.50000  0.50000  0.50000  1
 Na  Na3  1  0.80304  0.80304  0.80304  1
 Y  Y1  1  0.00000  0.00000  0.00000  1
