CIF file written using JARVIS-Tools package.
data_Li4Fe5O10
_symmetry_space_group_name_H-M  'P1'
_cell_length_a       4.91343
_cell_length_b       4.9882
_cell_length_c       7.53076
_cell_angle_alpha    71.3271
_cell_angle_beta     70.8952
_cell_angle_gamma    80.0282

_symmetry_Int_Tables_number  1
_chemical_formula_structural  Li4Fe5O10
_chemical_formula_sum  Li4Fe5O0
_cell_volume  164.74384022289303
_cell_formula_units_Z  1
loop_
  _symmetry_equiv_pos_site_id
 _symmetry_equiv_pos_as_xyz
 1  'x, y, z'
loop_
 _atom_site_type_symbol
 _atom_site_label
 _atom_site_symmetry_multiplicity
 _atom_site_fract_x
 _atom_site_fract_y
 _atom_site_fract_z
 _atom_site_fract_occupancy
 Fe  Fe1  1  0.11172  0.99563  0.30740  1
 Fe  Fe2  1  -0.00703  0.50883  0.01036  1
 Fe  Fe3  1  0.68911  -0.00216  0.10697  1
 Fe  Fe4  1  0.30137  0.99760  0.89797  1
 Fe  Fe5  1  0.89805  0.00120  0.69290  1
 Li  Li1  1  0.22656  0.49714  0.56572  1
 Li  Li2  1  0.50248  0.01347  0.49402  1
 Li  Li3  1  0.60263  0.50964  0.78591  1
 Li  Li4  1  0.78855  0.50006  0.40780  1
 O  O1  1  0.87432  0.77063  0.54375  1
 O  O2  1  0.12377  0.22216  0.46055  1
 O  O3  1  0.34431  0.22238  0.05230  1
 O  O4  1  0.04039  0.78321  0.14604  1
 O  O5  1  0.65192  0.77782  0.94035  1
 O  O6  1  0.55152  0.22483  0.66712  1
 O  O7  1  0.77625  0.22391  0.24144  1
 O  O8  1  0.23367  0.76398  0.75926  1
 O  O9  1  0.45250  0.78022  0.33648  1
 O  O10  1  0.94809  0.21967  0.85860  1
