CIF file written using JARVIS-Tools package.
data_Na6CoO4
_symmetry_space_group_name_H-M  'P6_3mc'
_cell_length_a       7.59266
_cell_length_b       7.59266
_cell_length_c       5.8475
_cell_angle_alpha    90
_cell_angle_beta     90
_cell_angle_gamma    120

_symmetry_Int_Tables_number  186
_chemical_formula_structural  Na6CoO4
_chemical_formula_sum  Na2Co2O8
_cell_volume  291.93686639322937
_cell_formula_units_Z  2
loop_
  _symmetry_equiv_pos_site_id
 _symmetry_equiv_pos_as_xyz
 1  'x, y, z'
loop_
 _atom_site_type_symbol
 _atom_site_label
 _atom_site_symmetry_multiplicity
 _atom_site_fract_x
 _atom_site_fract_y
 _atom_site_fract_z
 _atom_site_fract_occupancy
 Co  Co1  1  0.66667  0.33333  0.75964  1
 Co  Co2  1  0.33333  0.66667  0.25964  1
 Na  Na1  1  0.14146  0.28293  0.53544  1
 Na  Na2  1  0.85854  0.14146  0.03544  1
 Na  Na3  1  0.71707  0.85854  0.53544  1
 Na  Na4  1  0.07366  0.53683  0.86804  1
 Na  Na5  1  0.46317  0.92634  0.86804  1
 Na  Na6  1  0.46317  0.53683  0.86804  1
 Na  Na7  1  0.14146  0.85854  0.53544  1
 Na  Na8  1  0.53683  0.07366  0.36804  1
 Na  Na9  1  0.92634  0.46317  0.36804  1
 Na  Na10  1  0.28293  0.14146  0.03544  1
 Na  Na11  1  0.85854  0.71707  0.03544  1
 Na  Na12  1  0.53683  0.46317  0.36804  1
 O  O1  1  0.37962  0.18981  0.64607  1
 O  O2  1  0.66667  0.33333  0.09564  1
 O  O3  1  0.18981  0.37962  0.14607  1
 O  O4  1  0.33333  0.66667  0.59564  1
 O  O5  1  0.62038  0.81019  0.14607  1
 O  O6  1  0.18981  0.81019  0.14607  1
 O  O7  1  0.81019  0.18981  0.64607  1
 O  O8  1  0.81019  0.62038  0.64607  1
