CIF file written using JARVIS-Tools package.
data_P
_symmetry_space_group_name_H-M  'Cmce'
_cell_length_a       5.6127
_cell_length_b       5.6127
_cell_length_c       4.46953
_cell_angle_alpha    90
_cell_angle_beta     90
_cell_angle_gamma    34.6318

_symmetry_Int_Tables_number  64
_chemical_formula_structural  P
_chemical_formula_sum  P4
_cell_volume  80.01724059621172
_cell_formula_units_Z  4
loop_
  _symmetry_equiv_pos_site_id
 _symmetry_equiv_pos_as_xyz
 1  'x, y, z'
loop_
 _atom_site_type_symbol
 _atom_site_label
 _atom_site_symmetry_multiplicity
 _atom_site_fract_x
 _atom_site_fract_y
 _atom_site_fract_z
 _atom_site_fract_occupancy
 P  P1  1  0.10070  0.10070  0.08218  1
 P  P2  1  0.60070  0.60070  0.41782  1
 P  P3  1  0.39930  0.39930  0.58218  1
 P  P4  1  0.89930  0.89930  0.91782  1
