CIF file written using JARVIS-Tools package.
data_K2Ca4Si8O21
_symmetry_space_group_name_H-M  'P-1'
_cell_length_a       6.82161
_cell_length_b       7.12489
_cell_length_c       11.2491
_cell_angle_alpha    96.6224
_cell_angle_beta     105.334
_cell_angle_gamma    109.475

_symmetry_Int_Tables_number  2
_chemical_formula_structural  K2Ca4Si8O21
_chemical_formula_sum  K2Ca4Si8O2
_cell_volume  484.5034308834121
_cell_formula_units_Z  1
loop_
  _symmetry_equiv_pos_site_id
 _symmetry_equiv_pos_as_xyz
 1  'x, y, z'
loop_
 _atom_site_type_symbol
 _atom_site_label
 _atom_site_symmetry_multiplicity
 _atom_site_fract_x
 _atom_site_fract_y
 _atom_site_fract_z
 _atom_site_fract_occupancy
 Ca  Ca1  1  0.65796  0.78359  0.81578  1
 Ca  Ca2  1  0.34204  0.21641  0.18422  1
 Ca  Ca3  1  0.36902  0.73355  0.04003  1
 Ca  Ca4  1  0.63098  0.26645  0.95997  1
 K  K1  1  0.74186  0.71242  0.43211  1
 K  K2  1  0.25814  0.28758  0.56789  1
 O  O1  1  0.88322  0.88915  0.23848  1
 O  O2  1  0.38752  0.91212  0.85182  1
 O  O3  1  0.32944  0.31031  0.99953  1
 O  O4  1  0.67056  0.68969  0.00047  1
 O  O5  1  0.12553  0.87763  0.08504  1
 O  O6  1  0.18278  0.87862  0.59950  1
 O  O7  1  0.61248  0.08788  0.14818  1
 O  O8  1  0.91367  0.53918  0.15015  1
 O  O9  1  0.14640  0.65254  0.39297  1
 O  O10  1  0.85360  0.34746  0.60703  1
 O  O11  1  0.50000  0.00000  0.50000  1
 O  O12  1  0.87447  0.12237  0.91496  1
 O  O13  1  0.94533  0.71834  0.74200  1
 O  O14  1  0.53615  0.31817  0.39295  1
 O  O15  1  0.46385  0.68183  0.60705  1
 O  O16  1  0.11678  0.11085  0.76152  1
 O  O17  1  0.35102  0.59268  0.21960  1
 O  O18  1  0.64898  0.40732  0.78040  1
 O  O19  1  0.08633  0.46082  0.84985  1
 O  O20  1  0.05467  0.28166  0.25800  1
 O  O21  1  0.81722  0.12138  0.40050  1
 Si  Si1  1  0.82704  0.09587  0.25459  1
 Si  Si2  1  0.09907  0.24180  0.88887  1
 Si  Si3  1  0.90093  0.75820  0.11113  1
 Si  Si4  1  0.17296  0.90413  0.74541  1
 Si  Si5  1  0.33300  0.79765  0.52797  1
 Si  Si6  1  0.66700  0.20235  0.47203  1
 Si  Si7  1  0.86895  0.47106  0.74407  1
 Si  Si8  1  0.13105  0.52894  0.25593  1
