CIF file written using JARVIS-Tools package.
data_MgSn3
_symmetry_space_group_name_H-M  'I4/mmm'
_cell_length_a       4.62576
_cell_length_b       4.62576
_cell_length_c       9.85429
_cell_angle_alpha    90
_cell_angle_beta     90
_cell_angle_gamma    90

_symmetry_Int_Tables_number  139
_chemical_formula_structural  MgSn3
_chemical_formula_sum  Mg2Sn6
_cell_volume  210.85887203784077
_cell_formula_units_Z  2
loop_
  _symmetry_equiv_pos_site_id
 _symmetry_equiv_pos_as_xyz
 1  'x, y, z'
loop_
 _atom_site_type_symbol
 _atom_site_label
 _atom_site_symmetry_multiplicity
 _atom_site_fract_x
 _atom_site_fract_y
 _atom_site_fract_z
 _atom_site_fract_occupancy
 Mg  Mg1  1  0.00000  0.00000  0.00000  1
 Mg  Mg2  1  0.50000  0.50000  0.50000  1
 Sn  Sn1  1  0.50000  0.50000  0.00000  1
 Sn  Sn2  1  0.50000  0.00000  0.25000  1
 Sn  Sn3  1  0.00000  0.50000  0.25000  1
 Sn  Sn4  1  0.00000  0.00000  0.50000  1
 Sn  Sn5  1  0.00000  0.50000  0.75000  1
 Sn  Sn6  1  0.50000  0.00000  0.75000  1
