CIF file written using JARVIS-Tools package.
data_K2FeCuC6N6
_symmetry_space_group_name_H-M  'C2/m'
_cell_length_a       6.95952
_cell_length_b       6.97067
_cell_length_c       6.97034
_cell_angle_alpha    58.7425
_cell_angle_beta     63.4198
_cell_angle_gamma    63.4125

_symmetry_Int_Tables_number  12
_chemical_formula_structural  K2FeCuC6N6
_chemical_formula_sum  K2FeCuC6N6
_cell_volume  248.04045443480027
_cell_formula_units_Z  1
loop_
  _symmetry_equiv_pos_site_id
 _symmetry_equiv_pos_as_xyz
 1  'x, y, z'
loop_
 _atom_site_type_symbol
 _atom_site_label
 _atom_site_symmetry_multiplicity
 _atom_site_fract_x
 _atom_site_fract_y
 _atom_site_fract_z
 _atom_site_fract_occupancy
 C  C1  1  0.09067  0.82348  0.82299  1
 C  C2  1  0.90932  0.17651  0.17701  1
 C  C3  1  0.21965  0.77860  0.15450  1
 C  C4  1  0.78050  0.84533  0.22117  1
 C  C5  1  0.78035  0.22139  0.84550  1
 C  C6  1  0.21950  0.15467  0.77883  1
 Cu  Cu1  1  0.49998  0.50002  0.50002  1
 Fe  Fe1  1  -0.00000  -0.00001  -0.00000  1
 K  K1  1  0.71112  0.75605  0.75562  1
 K  K2  1  0.28891  0.24395  0.24434  1
 N  N1  1  0.62945  0.35554  0.76571  1
 N  N2  1  0.85401  0.28554  0.28638  1
 N  N3  1  0.37033  0.23457  0.64481  1
 N  N4  1  0.62966  0.76544  0.35520  1
 N  N5  1  0.14599  0.71444  0.71363  1
 N  N6  1  0.37055  0.64447  0.23430  1
