CIF file written using JARVIS-Tools package.
data_KCoO2
_symmetry_space_group_name_H-M  'P4/nmm'
_cell_length_a       3.82657
_cell_length_b       3.82657
_cell_length_c       7.91147
_cell_angle_alpha    90
_cell_angle_beta     90
_cell_angle_gamma    90

_symmetry_Int_Tables_number  129
_chemical_formula_structural  KCoO2
_chemical_formula_sum  K2Co2O4
_cell_volume  115.84481109509413
_cell_formula_units_Z  2
loop_
  _symmetry_equiv_pos_site_id
 _symmetry_equiv_pos_as_xyz
 1  'x, y, z'
loop_
 _atom_site_type_symbol
 _atom_site_label
 _atom_site_symmetry_multiplicity
 _atom_site_fract_x
 _atom_site_fract_y
 _atom_site_fract_z
 _atom_site_fract_occupancy
 Co  Co1  1  0.75000  0.75000  0.90687  1
 Co  Co2  1  0.25000  0.25000  0.09313  1
 K  K1  1  0.75000  0.75000  0.33939  1
 K  K2  1  0.25000  0.25000  0.66061  1
 O  O1  1  0.25000  0.75000  0.00000  1
 O  O2  1  0.75000  0.25000  0.00000  1
 O  O3  1  0.75000  0.75000  0.68519  1
 O  O4  1  0.25000  0.25000  0.31481  1
