CIF file written using JARVIS-Tools package.
data_Mg4BeNi
_symmetry_space_group_name_H-M  'F-43m'
_cell_length_a       5.41395
_cell_length_b       5.41395
_cell_length_c       5.41395
_cell_angle_alpha    60
_cell_angle_beta     60
_cell_angle_gamma    60

_symmetry_Int_Tables_number  216
_chemical_formula_structural  Mg4BeNi
_chemical_formula_sum  Mg4BeNi
_cell_volume  112.2089121111351
_cell_formula_units_Z  1
loop_
  _symmetry_equiv_pos_site_id
 _symmetry_equiv_pos_as_xyz
 1  'x, y, z'
loop_
 _atom_site_type_symbol
 _atom_site_label
 _atom_site_symmetry_multiplicity
 _atom_site_fract_x
 _atom_site_fract_y
 _atom_site_fract_z
 _atom_site_fract_occupancy
 Be  Be1  1  0.00000  0.00000  0.00000  1
 Mg  Mg1  1  0.12568  0.62477  0.62477  1
 Mg  Mg2  1  0.62477  0.62477  0.62477  1
 Mg  Mg3  1  0.62477  0.12568  0.62477  1
 Mg  Mg4  1  0.62477  0.62477  0.12568  1
 Ni  Ni1  1  0.25000  0.25000  0.25000  1
