CIF file written using JARVIS-Tools package.
data_TlCuHCO4
_symmetry_space_group_name_H-M  'P6_3/m'
_cell_length_a       10.9922
_cell_length_b       10.9922
_cell_length_c       6.07212
_cell_angle_alpha    90
_cell_angle_beta     90
_cell_angle_gamma    120

_symmetry_Int_Tables_number  176
_chemical_formula_structural  TlCuHCO4
_chemical_formula_sum  Tl6Cu6H6C6O24
_cell_volume  635.3884844127075
_cell_formula_units_Z  6
loop_
  _symmetry_equiv_pos_site_id
 _symmetry_equiv_pos_as_xyz
 1  'x, y, z'
loop_
 _atom_site_type_symbol
 _atom_site_label
 _atom_site_symmetry_multiplicity
 _atom_site_fract_x
 _atom_site_fract_y
 _atom_site_fract_z
 _atom_site_fract_occupancy
 C  C1  1  0.23627  0.42897  0.25000  1
 C  C2  1  0.19270  0.76373  0.25000  1
 C  C3  1  0.57103  0.80730  0.25000  1
 C  C4  1  0.76373  0.57103  0.75000  1
 C  C5  1  0.80730  0.23627  0.75000  1
 C  C6  1  0.42897  0.19270  0.75000  1
 Cu  Cu1  1  0.50000  0.00000  0.00000  1
 Cu  Cu2  1  0.00000  0.50000  0.00000  1
 Cu  Cu3  1  0.50000  0.50000  0.00000  1
 Cu  Cu4  1  0.00000  0.50000  0.50000  1
 Cu  Cu5  1  0.50000  0.50000  0.50000  1
 Cu  Cu6  1  0.50000  0.00000  0.50000  1
 H  H1  1  0.40378  0.60028  0.75000  1
 H  H2  1  0.39972  0.80349  0.75000  1
 H  H3  1  0.19651  0.59622  0.75000  1
 H  H4  1  0.60028  0.19651  0.25000  1
 H  H5  1  0.80349  0.40378  0.25000  1
 H  H6  1  0.59622  0.39972  0.25000  1
 O  O1  1  0.85285  0.30270  0.56223  1
 O  O2  1  0.69730  0.55015  0.93777  1
 O  O3  1  0.44985  0.14715  0.93777  1
 O  O4  1  0.30270  0.44985  0.43777  1
 O  O5  1  0.55015  0.85285  0.43777  1
 O  O6  1  0.14715  0.69730  0.43777  1
 O  O7  1  0.39277  0.88871  0.75000  1
 O  O8  1  0.38448  0.28017  0.75000  1
 O  O9  1  0.88871  0.49593  0.25000  1
 O  O10  1  0.60723  0.11129  0.25000  1
 O  O11  1  0.50407  0.39277  0.25000  1
 O  O12  1  0.11129  0.50407  0.75000  1
 O  O13  1  0.49593  0.60723  0.75000  1
 O  O14  1  0.44985  0.14715  0.56223  1
 O  O15  1  0.89570  0.61552  0.75000  1
 O  O16  1  0.14715  0.69730  0.06223  1
 O  O17  1  0.55015  0.85285  0.06223  1
 O  O18  1  0.30270  0.44985  0.06223  1
 O  O19  1  0.28017  0.89570  0.25000  1
 O  O20  1  0.61552  0.71983  0.25000  1
 O  O21  1  0.10430  0.38448  0.25000  1
 O  O22  1  0.71983  0.10430  0.75000  1
 O  O23  1  0.85285  0.30270  0.93777  1
 O  O24  1  0.69730  0.55015  0.56223  1
 Tl  Tl1  1  0.72056  0.85287  0.75000  1
 Tl  Tl2  1  0.14713  0.86769  0.75000  1
 Tl  Tl3  1  0.13231  0.27944  0.75000  1
 Tl  Tl4  1  0.27944  0.14713  0.25000  1
 Tl  Tl5  1  0.85287  0.13231  0.25000  1
 Tl  Tl6  1  0.86769  0.72056  0.25000  1
