CIF file written using JARVIS-Tools package.
data_LiCoOF2
_symmetry_space_group_name_H-M  'Cc'
_cell_length_a       4.9191
_cell_length_b       4.91891
_cell_length_c       5.24392
_cell_angle_alpha    96.9701
_cell_angle_beta     113.649
_cell_angle_gamma    116.294

_symmetry_Int_Tables_number  9
_chemical_formula_structural  LiCoOF2
_chemical_formula_sum  Li2Co2O2F4
_cell_volume  97.0502637070708
_cell_formula_units_Z  2
loop_
  _symmetry_equiv_pos_site_id
 _symmetry_equiv_pos_as_xyz
 1  'x, y, z'
loop_
 _atom_site_type_symbol
 _atom_site_label
 _atom_site_symmetry_multiplicity
 _atom_site_fract_x
 _atom_site_fract_y
 _atom_site_fract_z
 _atom_site_fract_occupancy
 Co  Co1  1  0.47643  0.74010  0.21800  1
 Co  Co2  1  0.47903  0.24268  0.71800  1
 F  F1  1  0.65938  0.01506  0.00370  1
 F  F2  1  0.97904  0.63993  0.97225  1
 F  F3  1  0.33343  0.49431  0.47223  1
 F  F4  1  0.98977  0.84544  0.50370  1
 Li  Li1  1  0.87850  0.41999  0.34568  1
 Li  Li2  1  0.92683  0.96833  0.84567  1
 O  O1  1  0.38926  0.37592  0.99171  1
 O  O2  1  0.61696  0.10359  0.49174  1
