CIF file written using JARVIS-Tools package.
data_Li2VO2F
_symmetry_space_group_name_H-M  'Cmmm'
_cell_length_a       4.11366
_cell_length_b       3.89284
_cell_length_c       6.81259
_cell_angle_alpha    90
_cell_angle_beta     72.4273
_cell_angle_gamma    90

_symmetry_Int_Tables_number  65
_chemical_formula_structural  Li2VO2F
_chemical_formula_sum  Li4V2O4F2
_cell_volume  104.00447152311493
_cell_formula_units_Z  2
loop_
  _symmetry_equiv_pos_site_id
 _symmetry_equiv_pos_as_xyz
 1  'x, y, z'
loop_
 _atom_site_type_symbol
 _atom_site_label
 _atom_site_symmetry_multiplicity
 _atom_site_fract_x
 _atom_site_fract_y
 _atom_site_fract_z
 _atom_site_fract_occupancy
 F  F1  1  0.16667  0.00000  0.66667  1
 F  F2  1  0.66667  0.50000  0.66667  1
 Li  Li1  1  0.00302  0.00000  0.99396  1
 Li  Li2  1  0.33031  0.00000  0.33938  1
 Li  Li3  1  0.66667  0.00000  0.66667  1
 Li  Li4  1  0.16667  0.50000  0.66667  1
 O  O1  1  0.50850  0.00000  0.98301  1
 O  O2  1  0.99012  0.50000  0.01976  1
 O  O3  1  0.82484  0.00000  0.35033  1
 O  O4  1  0.34321  0.50000  0.31358  1
 V  V1  1  0.49783  0.50000  0.00434  1
 V  V2  1  0.83550  0.50000  0.32899  1
