CIF file written using JARVIS-Tools package.
data_Li2MnO2F
_symmetry_space_group_name_H-M  'Immm'
_cell_length_a       6.41086
_cell_length_b       6.41086
_cell_length_c       5.59727
_cell_angle_alpha    49.1062
_cell_angle_beta     130.894
_cell_angle_gamma    137.862

_symmetry_Int_Tables_number  71
_chemical_formula_structural  Li2MnO2F
_chemical_formula_sum  Li4Mn2O4F2
_cell_volume  109.98446448158992
_cell_formula_units_Z  2
loop_
  _symmetry_equiv_pos_site_id
 _symmetry_equiv_pos_as_xyz
 1  'x, y, z'
loop_
 _atom_site_type_symbol
 _atom_site_label
 _atom_site_symmetry_multiplicity
 _atom_site_fract_x
 _atom_site_fract_y
 _atom_site_fract_z
 _atom_site_fract_occupancy
 F  F1  1  0.49999  0.49999  0.75000  1
 F  F2  1  0.50001  0.50001  0.25000  1
 Li  Li1  1  0.32401  0.67474  0.73695  1
 Li  Li2  1  0.32526  0.67599  0.23695  1
 Li  Li3  1  0.67474  0.32401  0.76305  1
 Li  Li4  1  0.67599  0.32526  0.26305  1
 Mn  Mn1  1  -0.00006  -0.00006  0.75000  1
 Mn  Mn2  1  0.00006  0.00006  0.25000  1
 O  O1  1  0.15412  0.84654  0.73065  1
 O  O2  1  0.15346  0.84588  0.23065  1
 O  O3  1  0.84654  0.15412  0.76935  1
 O  O4  1  0.84588  0.15346  0.26935  1
