CIF file written using JARVIS-Tools package.
data_BaB2S3O13
_symmetry_space_group_name_H-M  'Pnma'
_cell_length_a       17.2167
_cell_length_b       12.3281
_cell_length_c       4.43935
_cell_angle_alpha    90
_cell_angle_beta     90
_cell_angle_gamma    90

_symmetry_Int_Tables_number  62
_chemical_formula_structural  BaB2S3O13
_chemical_formula_sum  Ba4B8S2O52
_cell_volume  942.2476107012961
_cell_formula_units_Z  4
loop_
  _symmetry_equiv_pos_site_id
 _symmetry_equiv_pos_as_xyz
 1  'x, y, z'
loop_
 _atom_site_type_symbol
 _atom_site_label
 _atom_site_symmetry_multiplicity
 _atom_site_fract_x
 _atom_site_fract_y
 _atom_site_fract_z
 _atom_site_fract_occupancy
 B  B1  1  0.42549  0.14787  0.92898  1
 B  B2  1  0.92549  0.35213  0.57102  1
 B  B3  1  0.57451  0.64787  0.07102  1
 B  B4  1  0.07451  0.85213  0.42898  1
 B  B5  1  0.07451  0.64787  0.42898  1
 B  B6  1  0.57451  0.85213  0.07102  1
 B  B7  1  0.92549  0.14787  0.57102  1
 B  B8  1  0.42549  0.35213  0.92898  1
 Ba  Ba1  1  0.27556  0.75000  0.46729  1
 Ba  Ba2  1  0.22444  0.25000  0.96729  1
 Ba  Ba3  1  0.72444  0.25000  0.53271  1
 Ba  Ba4  1  0.77556  0.75000  0.03271  1
 O  O1  1  0.99143  0.85022  0.51494  1
 O  O2  1  0.49143  0.64978  0.98506  1
 O  O3  1  0.38809  0.25000  0.95910  1
 O  O4  1  0.88809  0.25000  0.54090  1
 O  O5  1  0.61191  0.75000  0.04090  1
 O  O6  1  0.11191  0.75000  0.45910  1
 O  O7  1  0.92649  0.39661  0.89013  1
 O  O8  1  0.70995  0.86696  0.52909  1
 O  O9  1  0.94878  0.75000  0.96261  1
 O  O10  1  0.88375  0.06096  0.39407  1
 O  O11  1  0.55122  0.25000  0.46261  1
 O  O12  1  0.50857  0.14978  0.01494  1
 O  O13  1  0.12971  0.25000  0.48449  1
 O  O14  1  0.00857  0.35022  0.48506  1
 O  O15  1  0.07351  0.89661  0.10987  1
 O  O16  1  0.00857  0.14978  0.48506  1
 O  O17  1  0.49143  0.85022  0.98506  1
 O  O18  1  0.99143  0.64978  0.51494  1
 O  O19  1  0.20995  0.63304  0.97091  1
 O  O20  1  0.42649  0.39661  0.60987  1
 O  O21  1  0.79005  0.13304  0.02909  1
 O  O22  1  0.29005  0.36696  0.47091  1
 O  O23  1  0.79005  0.36696  0.02909  1
 O  O24  1  0.29005  0.13304  0.47091  1
 O  O25  1  0.20995  0.86696  0.97091  1
 O  O26  1  0.70995  0.63304  0.52909  1
 O  O27  1  0.37029  0.75000  0.98449  1
 O  O28  1  0.87029  0.75000  0.51551  1
 O  O29  1  0.62971  0.25000  0.01551  1
 O  O30  1  0.50857  0.35022  0.01494  1
 O  O31  1  0.92649  0.10339  0.89013  1
 O  O32  1  0.88375  0.43904  0.39407  1
 O  O33  1  0.07351  0.60339  0.10987  1
 O  O34  1  0.05122  0.25000  0.03739  1
 O  O35  1  0.15961  0.44864  0.01201  1
 O  O36  1  0.57351  0.89661  0.39013  1
 O  O37  1  0.84039  0.94864  0.98799  1
 O  O38  1  0.34039  0.55136  0.51201  1
 O  O39  1  0.84039  0.55136  0.98799  1
 O  O40  1  0.34039  0.94864  0.51201  1
 O  O41  1  0.15961  0.05136  0.01201  1
 O  O42  1  0.65961  0.05136  0.48799  1
 O  O43  1  0.11625  0.56096  0.60593  1
 O  O44  1  0.65961  0.44864  0.48799  1
 O  O45  1  0.61625  0.56096  0.89407  1
 O  O46  1  0.11625  0.93904  0.60593  1
 O  O47  1  0.38375  0.06096  0.10593  1
 O  O48  1  0.57351  0.60339  0.39013  1
 O  O49  1  0.38375  0.43904  0.10593  1
 O  O50  1  0.42649  0.10339  0.60987  1
 O  O51  1  0.61625  0.93904  0.89407  1
 O  O52  1  0.44878  0.75000  0.53739  1
 S  S1  1  0.14397  0.55972  0.93543  1
 S  S2  1  0.64397  0.94028  0.56457  1
 S  S3  1  0.35603  0.44028  0.43543  1
 S  S4  1  0.85603  0.44028  0.06457  1
 S  S5  1  0.35603  0.05972  0.43543  1
 S  S6  1  0.14397  0.94028  0.93543  1
 S  S7  1  0.44836  0.75000  0.85998  1
 S  S8  1  0.94836  0.75000  0.64002  1
 S  S9  1  0.55164  0.25000  0.14002  1
 S  S10  1  0.05164  0.25000  0.35998  1
 S  S11  1  0.64397  0.55972  0.56457  1
 S  S12  1  0.85603  0.05972  0.06457  1
