CIF file written using JARVIS-Tools package.
data_ScCr2AgH4O10
_symmetry_space_group_name_H-M  'P-1'
_cell_length_a       5.62607
_cell_length_b       6.05002
_cell_length_c       7.32308
_cell_angle_alpha    110.801
_cell_angle_beta     90.3806
_cell_angle_gamma    117.425

_symmetry_Int_Tables_number  2
_chemical_formula_structural  ScCr2AgH4O10
_chemical_formula_sum  ScCr2AgH4O0
_cell_volume  202.4281188572495
_cell_formula_units_Z  1
loop_
  _symmetry_equiv_pos_site_id
 _symmetry_equiv_pos_as_xyz
 1  'x, y, z'
loop_
 _atom_site_type_symbol
 _atom_site_label
 _atom_site_symmetry_multiplicity
 _atom_site_fract_x
 _atom_site_fract_y
 _atom_site_fract_z
 _atom_site_fract_occupancy
 Ag  Ag1  1  0.00000  -0.00000  0.50000  1
 Cr  Cr1  1  0.63735  0.23683  0.31773  1
 Cr  Cr2  1  0.36265  0.76317  0.68227  1
 H  H1  1  0.24029  0.49117  0.95583  1
 H  H2  1  0.70264  0.43619  0.80028  1
 H  H3  1  0.75971  0.50883  0.04417  1
 H  H4  1  0.29736  0.56381  0.19972  1
 O  O1  1  0.16746  0.91848  0.74263  1
 O  O2  1  0.21129  0.47543  0.71230  1
 O  O3  1  0.32224  0.03304  0.17108  1
 O  O4  1  0.67776  0.96696  0.82892  1
 O  O5  1  0.83254  0.08152  0.25737  1
 O  O6  1  0.39153  0.70185  0.45113  1
 O  O7  1  0.22073  0.41988  0.06129  1
 O  O8  1  0.77927  0.58012  0.93871  1
 O  O9  1  0.78871  0.52457  0.28770  1
 O  O10  1  0.60847  0.29815  0.54887  1
 Sc  Sc1  1  0.00000  0.00000  0.00000  1
