CIF file written using JARVIS-Tools package.
data_HeSiO2
_symmetry_space_group_name_H-M  'P2_1/c'
_cell_length_a       9.12312
_cell_length_b       5.09952
_cell_length_c       10.4506
_cell_angle_alpha    90
_cell_angle_beta     126.877
_cell_angle_gamma    90

_symmetry_Int_Tables_number  14
_chemical_formula_structural  HeSiO2
_chemical_formula_sum  He8Si8O6
_cell_volume  388.9193843044483
_cell_formula_units_Z  8
loop_
  _symmetry_equiv_pos_site_id
 _symmetry_equiv_pos_as_xyz
 1  'x, y, z'
loop_
 _atom_site_type_symbol
 _atom_site_label
 _atom_site_symmetry_multiplicity
 _atom_site_fract_x
 _atom_site_fract_y
 _atom_site_fract_z
 _atom_site_fract_occupancy
 He  He1  1  0.60964  0.74966  0.07093  1
 He  He2  1  0.39036  0.24966  0.42907  1
 He  He3  1  0.39036  0.25034  0.92907  1
 He  He4  1  0.60964  0.75034  0.57093  1
 He  He5  1  0.10943  0.24953  0.07048  1
 He  He6  1  0.89057  0.74953  0.42952  1
 He  He7  1  0.89057  0.75047  0.92952  1
 He  He8  1  0.10943  0.25047  0.57048  1
 O  O1  1  0.46039  0.46023  0.20971  1
 O  O2  1  0.74968  0.16963  0.00003  1
 O  O3  1  0.25032  0.83037  -0.00003  1
 O  O4  1  0.74968  0.33037  0.50003  1
 O  O5  1  0.75037  0.24854  0.25048  1
 O  O6  1  0.24963  0.75146  0.74952  1
 O  O7  1  0.24963  0.74854  0.24952  1
 O  O8  1  0.53961  0.96023  0.29029  1
 O  O9  1  0.95991  0.96073  0.71023  1
 O  O10  1  0.75037  0.25146  0.75048  1
 O  O11  1  0.53961  0.53977  0.79029  1
 O  O12  1  0.04009  0.46073  0.78977  1
 O  O13  1  0.04009  0.03927  0.28977  1
 O  O14  1  0.95991  0.53927  0.21023  1
 O  O15  1  0.25032  0.66963  0.49997  1
 O  O16  1  0.46039  0.03977  0.70971  1
 Si  Si1  1  0.62534  0.24985  0.31244  1
 Si  Si2  1  0.37466  0.74985  0.18756  1
 Si  Si3  1  0.37466  0.75015  0.68756  1
 Si  Si4  1  0.87465  0.25080  0.68778  1
 Si  Si5  1  0.87465  0.24920  0.18778  1
 Si  Si6  1  0.12535  0.74920  0.31222  1
 Si  Si7  1  0.12535  0.75080  0.81222  1
 Si  Si8  1  0.62534  0.25015  0.81244  1
