CIF file written using JARVIS-Tools package.
data_BaAl3P2H2O14
_symmetry_space_group_name_H-M  'C2/m'
_cell_length_a       7.1837
_cell_length_b       7.1837
_cell_length_c       7.45046
_cell_angle_alpha    61.8513
_cell_angle_beta     118.149
_cell_angle_gamma    126.576

_symmetry_Int_Tables_number  12
_chemical_formula_structural  BaAl3P2H2O14
_chemical_formula_sum  BaAl3P2H2O4
_cell_volume  262.1946614550477
_cell_formula_units_Z  1
loop_
  _symmetry_equiv_pos_site_id
 _symmetry_equiv_pos_as_xyz
 1  'x, y, z'
loop_
 _atom_site_type_symbol
 _atom_site_label
 _atom_site_symmetry_multiplicity
 _atom_site_fract_x
 _atom_site_fract_y
 _atom_site_fract_z
 _atom_site_fract_occupancy
 Al  Al1  1  0.00058  0.99942  0.50125  1
 Al  Al2  1  0.50058  0.99942  0.50125  1
 Al  Al3  1  0.00058  0.49942  0.50125  1
 Ba  Ba1  1  0.00058  -0.00058  0.00126  1
 H  H1  1  0.32657  0.67343  0.34842  1
 H  H2  1  0.67458  0.32542  0.65405  1
 O  O1  1  0.34602  0.65398  0.12095  1
 O  O2  1  0.65514  0.34486  0.88155  1
 O  O3  1  0.97626  0.78399  0.40920  1
 O  O4  1  0.86679  0.13321  0.21970  1
 O  O5  1  0.11910  0.49849  0.79286  1
 O  O6  1  0.13438  0.86562  0.78281  1
 O  O7  1  0.49965  0.11793  0.20963  1
 O  O8  1  0.68830  0.31170  0.53414  1
 O  O9  1  0.31286  0.68714  0.46834  1
 O  O10  1  0.50151  0.88090  0.79286  1
 O  O11  1  0.78515  0.97509  0.59331  1
 O  O12  1  0.02491  0.21485  0.59331  1
 O  O13  1  0.88207  0.50035  0.20963  1
 O  O14  1  0.21601  0.02374  0.40920  1
 P  P1  1  0.72435  0.27565  0.12031  1
 P  P2  1  0.27681  0.72319  0.88219  1
