CIF file written using JARVIS-Tools package.
data_HfSn2
_symmetry_space_group_name_H-M  'P6_222'
_cell_length_a       5.54324
_cell_length_b       5.54324
_cell_length_c       7.67708
_cell_angle_alpha    90
_cell_angle_beta     90
_cell_angle_gamma    120

_symmetry_Int_Tables_number  180
_chemical_formula_structural  HfSn2
_chemical_formula_sum  Hf3Sn6
_cell_volume  204.29379231113109
_cell_formula_units_Z  3
loop_
  _symmetry_equiv_pos_site_id
 _symmetry_equiv_pos_as_xyz
 1  'x, y, z'
loop_
 _atom_site_type_symbol
 _atom_site_label
 _atom_site_symmetry_multiplicity
 _atom_site_fract_x
 _atom_site_fract_y
 _atom_site_fract_z
 _atom_site_fract_occupancy
 Hf  Hf1  1  0.50000  -0.00000  0.16667  1
 Hf  Hf2  1  0.50000  0.50000  0.50000  1
 Hf  Hf3  1  -0.00000  0.50000  0.83333  1
 Sn  Sn1  1  0.83155  0.66310  0.16667  1
 Sn  Sn2  1  0.83155  0.16845  0.50000  1
 Sn  Sn3  1  0.33690  0.16845  0.83333  1
 Sn  Sn4  1  0.16845  0.33690  0.16667  1
 Sn  Sn5  1  0.16845  0.83155  0.50000  1
 Sn  Sn6  1  0.66310  0.83155  0.83333  1
