CIF file written using JARVIS-Tools package.
data_C3N4
_symmetry_space_group_name_H-M  'P-43m'
_cell_length_a       3.45493
_cell_length_b       3.45493
_cell_length_c       3.45492
_cell_angle_alpha    90
_cell_angle_beta     90
_cell_angle_gamma    90

_symmetry_Int_Tables_number  215
_chemical_formula_structural  C3N4
_chemical_formula_sum  C3N4
_cell_volume  41.23973249124703
_cell_formula_units_Z  1
loop_
  _symmetry_equiv_pos_site_id
 _symmetry_equiv_pos_as_xyz
 1  'x, y, z'
loop_
 _atom_site_type_symbol
 _atom_site_label
 _atom_site_symmetry_multiplicity
 _atom_site_fract_x
 _atom_site_fract_y
 _atom_site_fract_z
 _atom_site_fract_occupancy
 C  C1  1  0.00000  0.00000  0.00000  1
 C  C2  1  0.50000  0.00000  0.50000  1
 C  C3  1  0.00000  0.50000  0.50000  1
 N  N1  1  0.24489  0.24489  0.25511  1
 N  N2  1  0.75511  0.75511  0.25511  1
 N  N3  1  0.24489  0.75511  0.74489  1
 N  N4  1  0.75511  0.24489  0.74489  1
