CIF file written using JARVIS-Tools package.
data_Na2BiO3
_symmetry_space_group_name_H-M  'Fdd2'
_cell_length_a       5.92457
_cell_length_b       5.92462
_cell_length_c       10.8067
_cell_angle_alpha    100.359
_cell_angle_beta     100.359
_cell_angle_gamma    110.127

_symmetry_Int_Tables_number  43
_chemical_formula_structural  Na2BiO3
_chemical_formula_sum  Na8Bi4O2
_cell_volume  338.1442530512316
_cell_formula_units_Z  4
loop_
  _symmetry_equiv_pos_site_id
 _symmetry_equiv_pos_as_xyz
 1  'x, y, z'
loop_
 _atom_site_type_symbol
 _atom_site_label
 _atom_site_symmetry_multiplicity
 _atom_site_fract_x
 _atom_site_fract_y
 _atom_site_fract_z
 _atom_site_fract_occupancy
 Bi  Bi1  1  0.16707  0.66751  0.33163  1
 Bi  Bi2  1  0.08441  0.08486  0.16639  1
 Bi  Bi3  1  0.91711  0.91749  0.83163  1
 Bi  Bi4  1  0.33451  0.83495  0.66639  1
 Na  Na1  1  0.99840  0.49879  0.99420  1
 Na  Na2  1  0.42033  0.42072  0.83795  1
 Na  Na3  1  0.50412  0.00454  0.00571  1
 Na  Na4  1  0.25413  0.25457  0.50571  1
 Na  Na5  1  0.74836  0.74879  0.49421  1
 Na  Na6  1  0.67020  0.17067  0.33795  1
 Na  Na7  1  0.57987  0.58023  0.15721  1
 Na  Na8  1  0.83004  0.33026  0.65722  1
 O  O1  1  0.64428  0.13818  0.81484  1
 O  O2  1  0.11081  0.05887  0.67000  1
 O  O3  1  0.56175  0.61459  0.66992  1
 O  O4  1  0.03007  0.53589  0.51230  1
 O  O5  1  0.48480  0.97990  0.51229  1
 O  O6  1  0.92964  0.92361  0.31485  1
 O  O7  1  0.86410  0.31216  0.16997  1
 O  O8  1  0.30833  0.86118  0.16996  1
 O  O9  1  0.78536  0.78044  0.01230  1
 O  O10  1  0.17328  0.68016  0.81485  1
 O  O11  1  0.38765  0.39460  0.31484  1
 O  O12  1  0.22939  0.23517  0.01229  1
