CIF file written using JARVIS-Tools package.
data_Al2O3
_symmetry_space_group_name_H-M  'P2_1/c'
_cell_length_a       5.39691
_cell_length_b       8.28635
_cell_length_c       5.48614
_cell_angle_alpha    90
_cell_angle_beta     118.439
_cell_angle_gamma    90

_symmetry_Int_Tables_number  14
_chemical_formula_structural  Al2O3
_chemical_formula_sum  Al8O2
_cell_volume  215.73634431143537
_cell_formula_units_Z  4
loop_
  _symmetry_equiv_pos_site_id
 _symmetry_equiv_pos_as_xyz
 1  'x, y, z'
loop_
 _atom_site_type_symbol
 _atom_site_label
 _atom_site_symmetry_multiplicity
 _atom_site_fract_x
 _atom_site_fract_y
 _atom_site_fract_z
 _atom_site_fract_occupancy
 Al  Al1  1  0.94907  0.95693  0.23266  1
 Al  Al2  1  0.94907  0.54307  0.73266  1
 Al  Al3  1  0.53387  0.65628  0.23898  1
 Al  Al4  1  0.46613  0.15628  0.26102  1
 Al  Al5  1  0.53387  0.84372  0.73898  1
 Al  Al6  1  0.46613  0.34372  0.76102  1
 Al  Al7  1  0.05093  0.45693  0.26734  1
 Al  Al8  1  0.05093  0.04307  0.76734  1
 O  O1  1  0.17410  0.89038  0.60572  1
 O  O2  1  0.68007  0.70524  0.59875  1
 O  O3  1  0.17410  0.60962  0.10572  1
 O  O4  1  0.25010  0.52083  0.67163  1
 O  O5  1  0.31993  0.29476  0.40125  1
 O  O6  1  0.74990  0.47917  0.32837  1
 O  O7  1  0.68007  0.79476  0.09875  1
 O  O8  1  0.25010  0.97917  0.17163  1
 O  O9  1  0.74990  0.02083  0.82837  1
 O  O10  1  0.82590  0.39038  0.89428  1
 O  O11  1  0.31993  0.20524  0.90125  1
 O  O12  1  0.82590  0.10962  0.39428  1
