CIF file written using JARVIS-Tools package.
data_KCuBi2S4
_symmetry_space_group_name_H-M  'Cmc2_1'
_cell_length_a       4.0389
_cell_length_b       7.1532
_cell_length_c       14.2911
_cell_angle_alpha    90
_cell_angle_beta     90
_cell_angle_gamma    106.398

_symmetry_Int_Tables_number  36
_chemical_formula_structural  KCuBi2S4
_chemical_formula_sum  K2Cu2Bi4S8
_cell_volume  396.09005794691444
_cell_formula_units_Z  2
loop_
  _symmetry_equiv_pos_site_id
 _symmetry_equiv_pos_as_xyz
 1  'x, y, z'
loop_
 _atom_site_type_symbol
 _atom_site_label
 _atom_site_symmetry_multiplicity
 _atom_site_fract_x
 _atom_site_fract_y
 _atom_site_fract_z
 _atom_site_fract_occupancy
 Bi  Bi1  1  0.35255  0.70510  0.20086  1
 Bi  Bi2  1  0.64745  0.29490  0.70086  1
 Bi  Bi3  1  0.37759  0.75518  0.82042  1
 Bi  Bi4  1  0.62241  0.24482  0.32042  1
 Cu  Cu1  1  0.14848  0.29695  0.52088  1
 Cu  Cu2  1  0.85152  0.70305  0.02088  1
 K  K1  1  0.11127  0.22253  0.99591  1
 K  K2  1  0.88873  0.77747  0.49591  1
 S  S1  1  0.98426  0.96851  0.27251  1
 S  S2  1  0.01574  0.03149  0.77251  1
 S  S3  1  0.56802  0.13605  0.50556  1
 S  S4  1  0.72684  0.45369  0.13909  1
 S  S5  1  0.25643  0.51285  0.37047  1
 S  S6  1  0.43198  0.86395  0.00556  1
 S  S7  1  0.74357  0.48715  0.87047  1
 S  S8  1  0.27316  0.54631  0.63909  1
