CIF file written using JARVIS-Tools package.
data_LiSi2BiO6
_symmetry_space_group_name_H-M  'C2/c'
_cell_length_a       6.82624
_cell_length_b       6.82624
_cell_length_c       5.27387
_cell_angle_alpha    78.6903
_cell_angle_beta     101.31
_cell_angle_gamma    95.0222

_symmetry_Int_Tables_number  15
_chemical_formula_structural  LiSi2BiO6
_chemical_formula_sum  Li2Si4Bi2O2
_cell_volume  235.9899924267668
_cell_formula_units_Z  2
loop_
  _symmetry_equiv_pos_site_id
 _symmetry_equiv_pos_as_xyz
 1  'x, y, z'
loop_
 _atom_site_type_symbol
 _atom_site_label
 _atom_site_symmetry_multiplicity
 _atom_site_fract_x
 _atom_site_fract_y
 _atom_site_fract_z
 _atom_site_fract_occupancy
 Bi  Bi1  1  0.72244  0.72244  0.75000  1
 Bi  Bi2  1  0.27756  0.27756  0.25000  1
 Li  Li1  1  0.08869  0.08869  0.75000  1
 Li  Li2  1  0.91131  0.91131  0.25000  1
 O  O1  1  0.01939  0.79199  0.64265  1
 O  O2  1  0.79199  0.01939  0.85735  1
 O  O3  1  0.11258  0.39609  0.82023  1
 O  O4  1  0.31512  0.63889  0.48078  1
 O  O5  1  0.20801  0.98061  0.14265  1
 O  O6  1  0.36111  0.68488  0.98078  1
 O  O7  1  0.63889  0.31512  0.01922  1
 O  O8  1  0.68488  0.36111  0.51922  1
 O  O9  1  0.60391  0.88742  0.32023  1
 O  O10  1  0.88742  0.60391  0.17977  1
 O  O11  1  0.39609  0.11258  0.67977  1
 O  O12  1  0.98061  0.20801  0.35735  1
 Si  Si1  1  0.81051  0.37498  0.27381  1
 Si  Si2  1  0.62502  0.18949  0.77381  1
 Si  Si3  1  0.37498  0.81051  0.22619  1
 Si  Si4  1  0.18949  0.62502  0.72619  1
