CIF file written using JARVIS-Tools package.
data_Ho5CoSb2
_symmetry_space_group_name_H-M  'Pnma'
_cell_length_a       7.80948
_cell_length_b       8.6989
_cell_length_c       12.0721
_cell_angle_alpha    90
_cell_angle_beta     90
_cell_angle_gamma    90

_symmetry_Int_Tables_number  62
_chemical_formula_structural  Ho5CoSb2
_chemical_formula_sum  Ho20Co4Sb8
_cell_volume  820.1051320107341
_cell_formula_units_Z  4
loop_
  _symmetry_equiv_pos_site_id
 _symmetry_equiv_pos_as_xyz
 1  'x, y, z'
loop_
 _atom_site_type_symbol
 _atom_site_label
 _atom_site_symmetry_multiplicity
 _atom_site_fract_x
 _atom_site_fract_y
 _atom_site_fract_z
 _atom_site_fract_occupancy
 Co  Co1  1  0.43039  0.75000  0.51020  1
 Co  Co2  1  0.93039  0.25000  0.98980  1
 Co  Co3  1  0.56961  0.25000  0.48980  1
 Co  Co4  1  0.06961  0.75000  0.01020  1
 Ho  Ho1  1  0.15397  0.75000  0.79720  1
 Ho  Ho2  1  0.12088  0.25000  0.80715  1
 Ho  Ho3  1  0.65397  0.25000  0.70280  1
 Ho  Ho4  1  0.84603  0.25000  0.20280  1
 Ho  Ho5  1  0.34603  0.75000  0.29720  1
 Ho  Ho6  1  0.95156  0.25000  0.49789  1
 Ho  Ho7  1  0.54844  0.25000  0.99789  1
 Ho  Ho8  1  0.04844  0.75000  0.50211  1
 Ho  Ho9  1  0.45156  0.75000  0.00211  1
 Ho  Ho10  1  0.67787  0.53833  0.43523  1
 Ho  Ho11  1  0.32213  0.46167  0.56477  1
 Ho  Ho12  1  0.62088  0.75000  0.69285  1
 Ho  Ho13  1  0.67787  0.96167  0.43523  1
 Ho  Ho14  1  0.17787  0.03833  0.06477  1
 Ho  Ho15  1  0.17787  0.46167  0.06477  1
 Ho  Ho16  1  0.82213  0.53833  0.93523  1
 Ho  Ho17  1  0.82213  0.96167  0.93523  1
 Ho  Ho18  1  0.87912  0.75000  0.19285  1
 Ho  Ho19  1  0.37912  0.25000  0.30715  1
 Ho  Ho20  1  0.32213  0.03833  0.56477  1
 Sb  Sb1  1  0.57152  0.99158  0.17319  1
 Sb  Sb2  1  0.92848  0.50842  0.67319  1
 Sb  Sb3  1  0.92848  0.99158  0.67319  1
 Sb  Sb4  1  0.42848  0.00842  0.82681  1
 Sb  Sb5  1  0.07152  0.49158  0.32681  1
 Sb  Sb6  1  0.57152  0.50842  0.17319  1
 Sb  Sb7  1  0.07152  0.00842  0.32681  1
 Sb  Sb8  1  0.42848  0.49158  0.82681  1
