CIF file written using JARVIS-Tools package.
data_VOF3
_symmetry_space_group_name_H-M  'C2'
_cell_length_a       5.40429
_cell_length_b       5.40429
_cell_length_c       4.95361
_cell_angle_alpha    91.5985
_cell_angle_beta     88.4016
_cell_angle_gamma    116.845

_symmetry_Int_Tables_number  5
_chemical_formula_structural  VOF3
_chemical_formula_sum  V2O2F6
_cell_volume  129.01634703344658
_cell_formula_units_Z  2
loop_
  _symmetry_equiv_pos_site_id
 _symmetry_equiv_pos_as_xyz
 1  'x, y, z'
loop_
 _atom_site_type_symbol
 _atom_site_label
 _atom_site_symmetry_multiplicity
 _atom_site_fract_x
 _atom_site_fract_y
 _atom_site_fract_z
 _atom_site_fract_occupancy
 F  F1  1  0.25701  0.00475  0.11497  1
 F  F2  1  0.49349  0.72426  0.43114  1
 F  F3  1  0.72411  0.98564  0.83784  1
 F  F4  1  0.72426  0.49349  0.06886  1
 F  F5  1  0.98564  0.72411  0.66216  1
 F  F6  1  0.00475  0.25701  0.38503  1
 O  O1  1  0.31824  0.50592  0.95510  1
 O  O2  1  0.50592  0.31824  0.54490  1
 V  V1  1  0.32769  0.32769  0.25000  1
 V  V2  1  0.63822  0.63822  0.75000  1
