CIF file written using JARVIS-Tools package.
data_BaIrO3
_symmetry_space_group_name_H-M  'C2/c'
_cell_length_a       5.77437
_cell_length_b       5.77437
_cell_length_c       14.6012
_cell_angle_alpha    90.9017
_cell_angle_beta     90.9017
_cell_angle_gamma    119.669

_symmetry_Int_Tables_number  15
_chemical_formula_structural  BaIrO3
_chemical_formula_sum  Ba6Ir6O8
_cell_volume  422.82038049731506
_cell_formula_units_Z  6
loop_
  _symmetry_equiv_pos_site_id
 _symmetry_equiv_pos_as_xyz
 1  'x, y, z'
loop_
 _atom_site_type_symbol
 _atom_site_label
 _atom_site_symmetry_multiplicity
 _atom_site_fract_x
 _atom_site_fract_y
 _atom_site_fract_z
 _atom_site_fract_occupancy
 Ba  Ba1  1  0.65567  0.32424  0.40410  1
 Ba  Ba2  1  0.67576  0.34433  0.09590  1
 Ba  Ba3  1  0.34433  0.67576  0.59590  1
 Ba  Ba4  1  0.32424  0.65567  0.90410  1
 Ba  Ba5  1  0.00255  0.99745  0.25000  1
 Ba  Ba6  1  0.99745  0.00255  0.75000  1
 Ir  Ir1  1  0.65483  0.32424  0.84653  1
 Ir  Ir2  1  0.00000  0.00000  0.00000  1
 Ir  Ir3  1  0.00000  -0.00000  0.50000  1
 Ir  Ir4  1  0.32424  0.65483  0.34653  1
 Ir  Ir5  1  0.67576  0.34517  0.65347  1
 Ir  Ir6  1  0.34517  0.67576  0.15347  1
 O  O1  1  0.89946  0.19993  0.59286  1
 O  O2  1  0.70822  0.88984  0.09252  1
 O  O3  1  0.88984  0.70822  0.59252  1
 O  O4  1  0.29178  0.11016  0.90748  1
 O  O5  1  0.19993  0.89946  0.09286  1
 O  O6  1  0.10054  0.80007  0.40714  1
 O  O7  1  0.80007  0.10054  0.90714  1
 O  O8  1  0.62080  0.81496  0.44648  1
 O  O9  1  0.95984  0.48765  0.75805  1
 O  O10  1  0.37920  0.18504  0.55352  1
 O  O11  1  0.81496  0.62080  0.94648  1
 O  O12  1  0.51325  0.48675  0.75000  1
 O  O13  1  0.11016  0.29178  0.40748  1
 O  O14  1  0.48675  0.51325  0.25000  1
 O  O15  1  0.48765  0.95984  0.25805  1
 O  O16  1  0.04016  0.51235  0.24195  1
 O  O17  1  0.18504  0.37920  0.05352  1
 O  O18  1  0.51235  0.04016  0.74195  1
