CIF file written using JARVIS-Tools package.
data_SeO2
_symmetry_space_group_name_H-M  'Pbam'
_cell_length_a       5.25389
_cell_length_b       8.52661
_cell_length_c       8.61294
_cell_angle_alpha    90
_cell_angle_beta     90
_cell_angle_gamma    90

_symmetry_Int_Tables_number  55
_chemical_formula_structural  SeO2
_chemical_formula_sum  Se8O6
_cell_volume  385.84159360890754
_cell_formula_units_Z  8
loop_
  _symmetry_equiv_pos_site_id
 _symmetry_equiv_pos_as_xyz
 1  'x, y, z'
loop_
 _atom_site_type_symbol
 _atom_site_label
 _atom_site_symmetry_multiplicity
 _atom_site_fract_x
 _atom_site_fract_y
 _atom_site_fract_z
 _atom_site_fract_occupancy
 O  O1  1  0.00000  0.40291  0.33545  1
 O  O2  1  0.74938  0.59703  0.14774  1
 O  O3  1  0.25062  0.90297  0.64774  1
 O  O4  1  0.74938  0.90297  0.64774  1
 O  O5  1  0.25062  0.59703  0.14774  1
 O  O6  1  0.00000  0.09709  0.83545  1
 O  O7  1  0.00000  0.59709  0.66455  1
 O  O8  1  0.50000  0.72710  0.38544  1
 O  O9  1  0.50000  0.27290  0.61456  1
 O  O10  1  0.74938  0.09703  0.35226  1
 O  O11  1  0.50000  0.77290  0.88544  1
 O  O12  1  0.25062  0.40297  0.85226  1
 O  O13  1  0.50000  0.22710  0.11456  1
 O  O14  1  0.25062  0.09703  0.35226  1
 O  O15  1  0.74938  0.40297  0.85226  1
 O  O16  1  0.00000  0.90291  0.16455  1
 Se  Se1  1  0.50000  0.75726  0.69444  1
 Se  Se2  1  0.50000  0.25726  0.80556  1
 Se  Se3  1  0.50000  0.24274  0.30556  1
 Se  Se4  1  0.00000  0.90726  0.79621  1
 Se  Se5  1  0.00000  0.40726  0.70379  1
 Se  Se6  1  0.50000  0.74274  0.19444  1
 Se  Se7  1  0.00000  0.09274  0.20379  1
 Se  Se8  1  0.00000  0.59274  0.29621  1
