CIF file written using JARVIS-Tools package.
data_ErAlCu
_symmetry_space_group_name_H-M  'P-62m'
_cell_length_a       3.98348
_cell_length_b       6.98388
_cell_length_c       6.98387
_cell_angle_alpha    120
_cell_angle_beta     90
_cell_angle_gamma    90

_symmetry_Int_Tables_number  189
_chemical_formula_structural  ErAlCu
_chemical_formula_sum  Er3Al3Cu3
_cell_volume  168.26195422258604
_cell_formula_units_Z  3
loop_
  _symmetry_equiv_pos_site_id
 _symmetry_equiv_pos_as_xyz
 1  'x, y, z'
loop_
 _atom_site_type_symbol
 _atom_site_label
 _atom_site_symmetry_multiplicity
 _atom_site_fract_x
 _atom_site_fract_y
 _atom_site_fract_z
 _atom_site_fract_occupancy
 Al  Al1  1  0.00000  0.23764  0.00000  1
 Al  Al2  1  0.00000  0.76234  0.76235  1
 Al  Al3  1  0.00000  0.99999  0.23765  1
 Cu  Cu1  1  0.00000  0.33332  0.66667  1
 Cu  Cu2  1  0.00000  0.66666  0.33333  1
 Cu  Cu3  1  0.50000  0.99999  -0.00000  1
 Er  Er1  1  0.50000  0.58524  -0.00000  1
 Er  Er2  1  0.50000  0.41474  0.41475  1
 Er  Er3  1  0.50000  0.99999  0.58525  1
