CIF file written using JARVIS-Tools package.
data_RbMnF4
_symmetry_space_group_name_H-M  'P2_1/c'
_cell_length_a       5.97562
_cell_length_b       7.81057
_cell_length_c       7.86007
_cell_angle_alpha    90
_cell_angle_beta     90.6527
_cell_angle_gamma    90

_symmetry_Int_Tables_number  14
_chemical_formula_structural  RbMnF4
_chemical_formula_sum  Rb4Mn4F6
_cell_volume  366.82957789162583
_cell_formula_units_Z  4
loop_
  _symmetry_equiv_pos_site_id
 _symmetry_equiv_pos_as_xyz
 1  'x, y, z'
loop_
 _atom_site_type_symbol
 _atom_site_label
 _atom_site_symmetry_multiplicity
 _atom_site_fract_x
 _atom_site_fract_y
 _atom_site_fract_z
 _atom_site_fract_occupancy
 F  F1  1  0.91933  0.01492  0.26611  1
 F  F2  1  0.71166  0.06734  0.95357  1
 F  F3  1  0.71100  0.05598  0.55344  1
 F  F4  1  0.28900  0.55598  0.94656  1
 F  F5  1  0.28834  0.93266  0.04643  1
 F  F6  1  0.89914  0.76846  0.99939  1
 F  F7  1  0.10086  0.26846  0.50061  1
 F  F8  1  0.28900  0.94402  0.44656  1
 F  F9  1  0.89914  0.73154  0.49939  1
 F  F10  1  0.08067  0.98508  0.73389  1
 F  F11  1  0.91933  0.48508  0.76611  1
 F  F12  1  0.71100  0.44402  0.05344  1
 F  F13  1  0.08067  0.51492  0.23389  1
 F  F14  1  0.71166  0.43266  0.45357  1
 F  F15  1  0.28834  0.56734  0.54643  1
 F  F16  1  0.10086  0.23154  0.00061  1
 Mn  Mn1  1  -0.00000  0.50000  0.50000  1
 Mn  Mn2  1  0.00000  0.50000  0.00000  1
 Mn  Mn3  1  -0.00000  0.00000  0.50000  1
 Mn  Mn4  1  0.00000  0.00000  0.00000  1
 Rb  Rb1  1  0.52150  0.79375  0.75202  1
 Rb  Rb2  1  0.47850  0.29375  0.74798  1
 Rb  Rb3  1  0.47850  0.20625  0.24798  1
 Rb  Rb4  1  0.52150  0.70625  0.25202  1
