CIF file written using JARVIS-Tools package.
data_AsClF8
_symmetry_space_group_name_H-M  'C2/c'
_cell_length_a       5.63226
_cell_length_b       5.63226
_cell_length_c       9.9333
_cell_angle_alpha    71.6599
_cell_angle_beta     71.6598
_cell_angle_gamma    87.2546

_symmetry_Int_Tables_number  15
_chemical_formula_structural  AsClF8
_chemical_formula_sum  As2Cl2F6
_cell_volume  283.45190020027303
_cell_formula_units_Z  2
loop_
  _symmetry_equiv_pos_site_id
 _symmetry_equiv_pos_as_xyz
 1  'x, y, z'
loop_
 _atom_site_type_symbol
 _atom_site_label
 _atom_site_symmetry_multiplicity
 _atom_site_fract_x
 _atom_site_fract_y
 _atom_site_fract_z
 _atom_site_fract_occupancy
 As  As1  1  0.50000  0.50000  0.50000  1
 As  As2  1  0.00000  0.00000  0.00000  1
 Cl  Cl1  1  0.40146  0.09854  0.25000  1
 Cl  Cl2  1  0.59854  0.90146  0.75000  1
 F  F1  1  0.41877  0.39667  0.16396  1
 F  F2  1  0.89667  0.91877  0.66396  1
 F  F3  1  0.58123  0.60333  0.83604  1
 F  F4  1  0.74409  0.79668  0.03569  1
 F  F5  1  0.70332  0.75591  0.46431  1
 F  F6  1  0.25591  0.20332  0.96431  1
 F  F7  1  0.29668  0.24409  0.53569  1
 F  F8  1  0.81546  0.13040  0.14471  1
 F  F9  1  0.18454  0.86960  0.85529  1
 F  F10  1  0.36960  0.68454  0.35529  1
 F  F11  1  0.89490  0.22456  0.86695  1
 F  F12  1  0.27544  0.60510  0.63305  1
 F  F13  1  0.10510  0.77544  0.13305  1
 F  F14  1  0.72456  0.39490  0.36695  1
 F  F15  1  0.10333  0.08123  0.33604  1
 F  F16  1  0.63040  0.31546  0.64471  1
