CIF file written using JARVIS-Tools package.
data_Ba3Ta6Si4O23
_symmetry_space_group_name_H-M  'P-62m'
_cell_length_a       9.15585
_cell_length_b       9.15585
_cell_length_c       7.57709
_cell_angle_alpha    90
_cell_angle_beta     90
_cell_angle_gamma    120

_symmetry_Int_Tables_number  189
_chemical_formula_structural  Ba3Ta6Si4O23
_chemical_formula_sum  Ba3Ta6Si4O23
_cell_volume  550.085384279962
_cell_formula_units_Z  1
loop_
  _symmetry_equiv_pos_site_id
 _symmetry_equiv_pos_as_xyz
 1  'x, y, z'
loop_
 _atom_site_type_symbol
 _atom_site_label
 _atom_site_symmetry_multiplicity
 _atom_site_fract_x
 _atom_site_fract_y
 _atom_site_fract_z
 _atom_site_fract_occupancy
 Ba  Ba1  1  0.00000  0.59003  0.50000  1
 Ba  Ba2  1  0.40997  0.40997  0.50000  1
 Ba  Ba3  1  0.59003  0.00000  0.50000  1
 O  O1  1  0.17317  0.17317  0.26950  1
 O  O2  1  0.48503  0.18628  0.29062  1
 O  O3  1  0.82683  0.00000  0.73050  1
 O  O4  1  0.27924  0.00000  0.00000  1
 O  O5  1  0.81372  0.29874  0.29062  1
 O  O6  1  0.51497  0.70126  0.70938  1
 O  O7  1  0.72076  0.72076  0.00000  1
 O  O8  1  0.70126  0.51497  0.70938  1
 O  O9  1  0.33333  0.66667  0.00000  1
 O  O10  1  0.18628  0.48503  0.29062  1
 O  O11  1  0.29874  0.81372  0.70938  1
 O  O12  1  0.18628  0.48503  0.70938  1
 O  O13  1  0.17317  0.17317  0.73050  1
 O  O14  1  0.82683  0.00000  0.26950  1
 O  O15  1  -0.00000  0.27924  0.00000  1
 O  O16  1  0.51497  0.70126  0.29062  1
 O  O17  1  0.48503  0.18628  0.70938  1
 O  O18  1  0.66667  0.33333  0.00000  1
 O  O19  1  0.70126  0.51497  0.29062  1
 O  O20  1  0.29874  0.81372  0.29062  1
 O  O21  1  -0.00000  0.82683  0.26950  1
 O  O22  1  -0.00000  0.82683  0.73050  1
 O  O23  1  0.81372  0.29874  0.70938  1
 Si  Si1  1  0.33333  0.66667  0.78759  1
 Si  Si2  1  0.66667  0.33333  0.78759  1
 Si  Si3  1  0.66667  0.33333  0.21241  1
 Si  Si4  1  0.33333  0.66667  0.21241  1
 Ta  Ta1  1  -0.00000  0.23742  0.74749  1
 Ta  Ta2  1  0.23742  0.00000  0.25251  1
 Ta  Ta3  1  0.76258  0.76258  0.74749  1
 Ta  Ta4  1  0.76258  0.76258  0.25251  1
 Ta  Ta5  1  -0.00000  0.23742  0.25251  1
 Ta  Ta6  1  0.23742  0.00000  0.74749  1
