CIF file written using JARVIS-Tools package.
data_CN2O
_symmetry_space_group_name_H-M  'P-42_1m'
_cell_length_a       6.22653
_cell_length_b       4.21815
_cell_length_c       4.21815
_cell_angle_alpha    90
_cell_angle_beta     90
_cell_angle_gamma    90

_symmetry_Int_Tables_number  113
_chemical_formula_structural  CN2O
_chemical_formula_sum  C2N4O2
_cell_volume  110.78743954002857
_cell_formula_units_Z  2
loop_
  _symmetry_equiv_pos_site_id
 _symmetry_equiv_pos_as_xyz
 1  'x, y, z'
loop_
 _atom_site_type_symbol
 _atom_site_label
 _atom_site_symmetry_multiplicity
 _atom_site_fract_x
 _atom_site_fract_y
 _atom_site_fract_z
 _atom_site_fract_occupancy
 C  C1  1  0.36202  0.00000  0.50000  1
 C  C2  1  0.63798  0.50000  0.00000  1
 N  N1  1  0.16655  0.88956  0.38956  1
 N  N2  1  0.83345  0.61044  0.88956  1
 N  N3  1  0.16655  0.11044  0.61044  1
 N  N4  1  0.83345  0.38956  0.11044  1
 O  O1  1  0.55521  0.00000  0.50000  1
 O  O2  1  0.44479  0.50000  0.00000  1
