CIF file written using JARVIS-Tools package.
data_Li4Mn5O10
_symmetry_space_group_name_H-M  'P-1'
_cell_length_a       5.08945
_cell_length_b       4.8972
_cell_length_c       7.48241
_cell_angle_alpha    109.099
_cell_angle_beta     71.7524
_cell_angle_gamma    99.4338

_symmetry_Int_Tables_number  2
_chemical_formula_structural  Li4Mn5O10
_chemical_formula_sum  Li4Mn5O0
_cell_volume  166.97192644726078
_cell_formula_units_Z  1
loop_
  _symmetry_equiv_pos_site_id
 _symmetry_equiv_pos_as_xyz
 1  'x, y, z'
loop_
 _atom_site_type_symbol
 _atom_site_label
 _atom_site_symmetry_multiplicity
 _atom_site_fract_x
 _atom_site_fract_y
 _atom_site_fract_z
 _atom_site_fract_occupancy
 Li  Li1  1  0.48735  0.88707  0.29519  1
 Li  Li2  1  0.48737  0.28845  0.09883  1
 Li  Li3  1  0.48538  0.50591  0.52585  1
 Li  Li4  1  0.48536  0.10459  0.72222  1
 Mn  Mn1  1  0.98370  -0.01004  0.00897  1
 Mn  Mn2  1  -0.01010  0.59408  0.20943  1
 Mn  Mn3  1  0.98280  0.79890  0.61163  1
 Mn  Mn4  1  0.98636  0.19649  0.41052  1
 Mn  Mn5  1  0.98899  0.40302  0.81208  1
 O  O1  1  0.21313  0.14728  0.56565  1
 O  O2  1  0.20516  0.94768  0.16917  1
 O  O3  1  0.75873  0.84669  0.45364  1
 O  O4  1  0.76579  0.64252  0.05817  1
 O  O5  1  0.20691  0.75045  0.76289  1
 O  O6  1  0.21397  0.54630  0.36741  1
 O  O7  1  0.76755  0.44529  0.65187  1
 O  O8  1  0.20570  0.33671  -0.03271  1
 O  O9  1  0.75957  0.24571  0.25541  1
 O  O10  1  0.76700  0.05627  0.85377  1
