CIF file written using JARVIS-Tools package.
data_ZnCu3H6Cl2O6
_symmetry_space_group_name_H-M  'P-3m1'
_cell_length_a       6.32301
_cell_length_b       6.32301
_cell_length_c       5.7233
_cell_angle_alpha    90
_cell_angle_beta     90
_cell_angle_gamma    120

_symmetry_Int_Tables_number  164
_chemical_formula_structural  ZnCu3H6Cl2O6
_chemical_formula_sum  ZnCu3H6Cl2O6
_cell_volume  198.16413953801626
_cell_formula_units_Z  1
loop_
  _symmetry_equiv_pos_site_id
 _symmetry_equiv_pos_as_xyz
 1  'x, y, z'
loop_
 _atom_site_type_symbol
 _atom_site_label
 _atom_site_symmetry_multiplicity
 _atom_site_fract_x
 _atom_site_fract_y
 _atom_site_fract_z
 _atom_site_fract_occupancy
 Cl  Cl1  1  0.33333  0.66667  0.12153  1
 Cl  Cl2  1  0.66667  0.33333  0.87847  1
 Cu  Cu1  1  0.00000  0.50000  0.50000  1
 Cu  Cu2  1  0.50000  0.00000  0.50000  1
 Cu  Cu3  1  0.50000  0.50000  0.50000  1
 H  H1  1  0.19902  0.80098  0.82525  1
 H  H2  1  0.80098  0.60196  0.17475  1
 H  H3  1  0.60196  0.80098  0.82525  1
 H  H4  1  0.19902  0.39804  0.82525  1
 H  H5  1  0.80098  0.19902  0.17475  1
 H  H6  1  0.39804  0.19902  0.17475  1
 O  O1  1  0.35406  0.17703  0.34281  1
 O  O2  1  0.82297  0.17703  0.34281  1
 O  O3  1  0.17703  0.35406  0.65719  1
 O  O4  1  0.82297  0.64594  0.34281  1
 O  O5  1  0.17703  0.82297  0.65719  1
 O  O6  1  0.64594  0.82297  0.65719  1
 Zn  Zn1  1  0.00000  0.00000  0.50000  1
