CIF file written using JARVIS-Tools package.
data_CeCu
_symmetry_space_group_name_H-M  'Pnma'
_cell_length_a       4.30686
_cell_length_b       6.07458
_cell_length_c       6.23781
_cell_angle_alpha    90.0006
_cell_angle_beta     89.9923
_cell_angle_gamma    89.999

_symmetry_Int_Tables_number  62
_chemical_formula_structural  CeCu
_chemical_formula_sum  Ce4Cu4
_cell_volume  163.19601412929586
_cell_formula_units_Z  4
loop_
  _symmetry_equiv_pos_site_id
 _symmetry_equiv_pos_as_xyz
 1  'x, y, z'
loop_
 _atom_site_type_symbol
 _atom_site_label
 _atom_site_symmetry_multiplicity
 _atom_site_fract_x
 _atom_site_fract_y
 _atom_site_fract_z
 _atom_site_fract_occupancy
 Ce  Ce1  1  0.75001  0.89507  0.88315  1
 Ce  Ce2  1  0.24999  0.39509  0.61685  1
 Ce  Ce3  1  0.24999  0.10493  0.11685  1
 Ce  Ce4  1  0.75001  0.60491  0.38315  1
 Cu  Cu1  1  0.25001  0.59922  0.06808  1
 Cu  Cu2  1  0.74999  0.40078  0.93192  1
 Cu  Cu3  1  0.25001  0.90080  0.56805  1
 Cu  Cu4  1  0.74999  0.09920  0.43195  1
