CIF file written using JARVIS-Tools package.
data_Na2SnO3
_symmetry_space_group_name_H-M  'Fddd'
_cell_length_a       5.6741
_cell_length_b       5.67407
_cell_length_c       10.1818
_cell_angle_alpha    100.844
_cell_angle_beta     100.844
_cell_angle_gamma    108.956

_symmetry_Int_Tables_number  70
_chemical_formula_structural  Na2SnO3
_chemical_formula_sum  Na8Sn4O2
_cell_volume  293.32492306986603
_cell_formula_units_Z  4
loop_
  _symmetry_equiv_pos_site_id
 _symmetry_equiv_pos_as_xyz
 1  'x, y, z'
loop_
 _atom_site_type_symbol
 _atom_site_label
 _atom_site_symmetry_multiplicity
 _atom_site_fract_x
 _atom_site_fract_y
 _atom_site_fract_z
 _atom_site_fract_occupancy
 Na  Na1  1  0.50383  0.00656  0.00873  1
 Na  Na2  1  0.57677  0.57952  0.15467  1
 Na  Na3  1  0.67128  0.17400  0.34366  1
 Na  Na4  1  0.74422  0.74692  0.48958  1
 Na  Na5  1  0.25383  0.25654  0.50874  1
 Na  Na6  1  0.82681  0.32948  0.65467  1
 Na  Na7  1  0.42130  0.42401  0.84366  1
 Na  Na8  1  0.99427  0.49698  0.98959  1
 O  O1  1  0.15188  0.69342  0.81636  1
 O  O2  1  0.58467  0.62621  0.68196  1
 O  O3  1  0.09618  0.06009  0.68196  1
 O  O4  1  0.45912  0.96183  0.49916  1
 O  O5  1  0.03894  0.54166  0.49916  1
 O  O6  1  0.94069  0.90459  0.31636  1
 O  O7  1  0.37456  0.41610  0.31636  1
 O  O8  1  0.78894  0.79166  0.99916  1
 O  O9  1  0.87349  0.33739  0.18195  1
 O  O10  1  0.20912  0.21184  0.99916  1
 O  O11  1  0.66339  0.12729  0.81636  1
 O  O12  1  0.30736  0.84891  0.18196  1
 Sn  Sn1  1  0.08332  0.08604  0.16775  1
 Sn  Sn2  1  0.91473  0.91745  0.83056  1
 Sn  Sn3  1  0.33333  0.83604  0.66775  1
 Sn  Sn4  1  0.16473  0.66745  0.33057  1
