CIF file written using JARVIS-Tools package.
data_Cu3P2O8
_symmetry_space_group_name_H-M  'P-1'
_cell_length_a       4.86935
_cell_length_b       5.40451
_cell_length_c       6.24006
_cell_angle_alpha    72.2807
_cell_angle_beta     86.7106
_cell_angle_gamma    68.7673

_symmetry_Int_Tables_number  2
_chemical_formula_structural  Cu3P2O8
_chemical_formula_sum  Cu3P2O8
_cell_volume  145.54873708318325
_cell_formula_units_Z  1
loop_
  _symmetry_equiv_pos_site_id
 _symmetry_equiv_pos_as_xyz
 1  'x, y, z'
loop_
 _atom_site_type_symbol
 _atom_site_label
 _atom_site_symmetry_multiplicity
 _atom_site_fract_x
 _atom_site_fract_y
 _atom_site_fract_z
 _atom_site_fract_occupancy
 Cu  Cu1  1  0.72723  0.77855  0.68127  1
 Cu  Cu2  1  0.27277  0.22145  0.31873  1
 Cu  Cu3  1  0.00000  0.00000  0.00000  1
 O  O1  1  0.62341  0.85568  0.36113  1
 O  O2  1  0.37659  0.14432  0.63887  1
 O  O3  1  0.77227  0.77702  0.99324  1
 O  O4  1  0.22773  0.22298  0.00676  1
 O  O5  1  0.66878  0.34211  0.83203  1
 O  O6  1  0.84166  0.35768  0.34336  1
 O  O7  1  0.15834  0.64232  0.65664  1
 O  O8  1  0.33122  0.65789  0.16797  1
 P  P1  1  0.64003  0.65407  0.22074  1
 P  P2  1  0.35997  0.34593  0.77926  1
