CIF file written using JARVIS-Tools package.
data_NbP
_symmetry_space_group_name_H-M  'I4_1md'
_cell_length_a       3.36906
_cell_length_b       3.36906
_cell_length_c       6.22565
_cell_angle_alpha    105.699
_cell_angle_beta     105.699
_cell_angle_gamma    89.9999

_symmetry_Int_Tables_number  109
_chemical_formula_structural  NbP
_chemical_formula_sum  Nb2P2
_cell_volume  65.28618332836623
_cell_formula_units_Z  2
loop_
  _symmetry_equiv_pos_site_id
 _symmetry_equiv_pos_as_xyz
 1  'x, y, z'
loop_
 _atom_site_type_symbol
 _atom_site_label
 _atom_site_symmetry_multiplicity
 _atom_site_fract_x
 _atom_site_fract_y
 _atom_site_fract_z
 _atom_site_fract_occupancy
 Nb  Nb1  1  0.74999  0.24999  0.49998  1
 Nb  Nb2  1  0.99999  0.99999  0.99998  1
 P  P1  1  0.16738  0.66738  0.33476  1
 P  P2  1  0.41738  0.41738  0.83476  1
