CIF file written using JARVIS-Tools package.
data_H9BrO4
_symmetry_space_group_name_H-M  'P2_1'
_cell_length_a       6.5961
_cell_length_b       12.1392
_cell_length_c       7.70224
_cell_angle_alpha    90.0012
_cell_angle_beta     116.427
_cell_angle_gamma    90.0041

_symmetry_Int_Tables_number  4
_chemical_formula_structural  H9BrO4
_chemical_formula_sum  H36Br4O6
_cell_volume  552.2859499557192
_cell_formula_units_Z  4
loop_
  _symmetry_equiv_pos_site_id
 _symmetry_equiv_pos_as_xyz
 1  'x, y, z'
loop_
 _atom_site_type_symbol
 _atom_site_label
 _atom_site_symmetry_multiplicity
 _atom_site_fract_x
 _atom_site_fract_y
 _atom_site_fract_z
 _atom_site_fract_occupancy
 Br  Br1  1  0.93905  0.48940  0.72809  1
 Br  Br2  1  0.06085  0.98938  0.27162  1
 Br  Br3  1  0.42644  0.99460  0.82311  1
 Br  Br4  1  0.57319  0.49456  0.17673  1
 H  H1  1  0.41640  0.34162  -0.00304  1
 H  H2  1  0.74708  0.74345  0.00890  1
 H  H3  1  0.03941  0.28982  0.12146  1
 H  H4  1  0.06774  0.15625  0.14441  1
 H  H5  1  -0.03956  0.78980  0.87839  1
 H  H6  1  -0.06769  0.65626  0.85549  1
 H  H7  1  0.82165  0.20974  0.83380  1
 H  H8  1  0.72601  0.33502  0.35973  1
 H  H9  1  0.17840  0.70976  0.16617  1
 H  H10  1  0.58341  0.84170  0.00296  1
 H  H11  1  0.74783  0.24840  0.52997  1
 H  H12  1  0.27391  0.83509  0.64015  1
 H  H13  1  0.25226  0.74836  0.47017  1
 H  H14  1  0.06159  0.26439  0.52191  1
 H  H15  1  0.41356  0.65406  0.30525  1
 H  H16  1  0.25302  0.24339  -0.00889  1
 H  H17  1  0.58657  0.15408  0.69473  1
 H  H18  1  0.54576  0.07057  0.10625  1
 H  H19  1  0.55743  0.44938  0.54997  1
 H  H20  1  0.28910  0.26214  0.75575  1
 H  H21  1  0.44260  0.94923  0.45007  1
 H  H22  1  0.69849  0.82911  0.43425  1
 H  H23  1  0.45424  0.57047  0.89387  1
 H  H24  1  0.40290  0.53480  0.66597  1
 H  H25  1  0.34160  0.66629  0.71073  1
 H  H26  1  0.65825  0.16631  0.28963  1
 H  H27  1  0.59677  0.03474  0.33388  1
 H  H28  1  0.30149  0.32899  0.56568  1
 H  H29  1  0.29048  0.45523  0.38501  1
 H  H30  1  0.91217  0.45950  0.18040  1
 H  H31  1  0.08759  -0.04063  0.81959  1
 H  H32  1  -0.03680  -0.04165  0.95382  1
 H  H33  1  0.70956  0.95523  0.61504  1
 H  H34  1  -0.06139  0.76444  0.47800  1
 H  H35  1  0.71097  0.76222  0.24426  1
 H  H36  1  0.03645  0.45845  0.04614  1
 O  O1  1  0.37029  0.26559  0.94706  1
 O  O2  1  0.62948  0.76561  0.05265  1
 O  O3  1  0.05005  0.22026  0.05761  1
 O  O4  1  -0.05009  0.72024  0.94228  1
 O  O5  1  0.69787  0.20866  0.69873  1
 O  O6  1  0.30213  0.70857  0.30128  1
 O  O7  1  0.21403  0.76174  0.58407  1
 O  O8  1  0.60406  0.94500  0.47347  1
 O  O9  1  0.76727  0.76103  0.40527  1
 O  O10  1  0.39595  0.44510  0.52658  1
 O  O11  1  0.44475  0.59771  0.76719  1
 O  O12  1  0.55507  0.09773  0.23289  1
 O  O13  1  0.05174  0.43306  0.17494  1
 O  O14  1  0.78591  0.26169  0.41595  1
 O  O15  1  0.23278  0.26099  0.59486  1
 O  O16  1  -0.05210  -0.06700  0.82496  1
