CIF file written using JARVIS-Tools package.
data_AsC3N3
_symmetry_space_group_name_H-M  'C2'
_cell_length_a       5.71118
_cell_length_b       5.71118
_cell_length_c       8.28411
_cell_angle_alpha    78.6522
_cell_angle_beta     78.6521
_cell_angle_gamma    74.4834

_symmetry_Int_Tables_number  5
_chemical_formula_structural  AsC3N3
_chemical_formula_sum  As2C6N6
_cell_volume  252.28121279731198
_cell_formula_units_Z  2
loop_
  _symmetry_equiv_pos_site_id
 _symmetry_equiv_pos_as_xyz
 1  'x, y, z'
loop_
 _atom_site_type_symbol
 _atom_site_label
 _atom_site_symmetry_multiplicity
 _atom_site_fract_x
 _atom_site_fract_y
 _atom_site_fract_z
 _atom_site_fract_occupancy
 As  As1  1  0.45040  0.13907  0.73252  1
 As  As2  1  0.86093  0.54960  0.26748  1
 C  C1  1  0.91968  0.88355  0.25013  1
 C  C2  1  0.47447  0.95045  -0.03886  1
 C  C3  1  0.04955  0.52553  0.03886  1
 C  C4  1  0.11645  0.08032  0.74987  1
 C  C5  1  0.18077  0.40804  0.35392  1
 C  C6  1  0.59196  0.81923  0.64608  1
 N  N1  1  0.15650  0.48969  0.90815  1
 N  N2  1  -0.08289  0.06405  0.75321  1
 N  N3  1  0.51031  0.84350  0.09185  1
 N  N4  1  0.35588  0.30797  0.41435  1
 N  N5  1  0.93595  0.08289  0.24679  1
 N  N6  1  0.69203  0.64412  0.58565  1
