CIF file written using JARVIS-Tools package.
data_LiMnPH2O5
_symmetry_space_group_name_H-M  'Pmn2_1'
_cell_length_a       4.77742
_cell_length_b       5.61647
_cell_length_c       8.21535
_cell_angle_alpha    90
_cell_angle_beta     90
_cell_angle_gamma    90

_symmetry_Int_Tables_number  31
_chemical_formula_structural  LiMnPH2O5
_chemical_formula_sum  Li2Mn2P2H4O0
_cell_volume  220.43604082182657
_cell_formula_units_Z  2
loop_
  _symmetry_equiv_pos_site_id
 _symmetry_equiv_pos_as_xyz
 1  'x, y, z'
loop_
 _atom_site_type_symbol
 _atom_site_label
 _atom_site_symmetry_multiplicity
 _atom_site_fract_x
 _atom_site_fract_y
 _atom_site_fract_z
 _atom_site_fract_occupancy
 H  H1  1  0.66589  0.35971  0.21491  1
 H  H2  1  0.16589  0.14029  0.78509  1
 H  H3  1  0.16589  0.85971  0.78509  1
 H  H4  1  0.66589  0.64029  0.21491  1
 Li  Li1  1  0.49763  0.00000  0.56888  1
 Li  Li2  1  -0.00237  0.50000  0.43112  1
 Mn  Mn1  1  0.12675  0.50000  0.02021  1
 Mn  Mn2  1  0.62675  0.00000  0.97979  1
 O  O1  1  0.37529  0.50000  0.81248  1
 O  O2  1  0.83371  0.72093  0.85725  1
 O  O3  1  0.23802  0.00000  0.41047  1
 O  O4  1  0.87529  0.00000  0.18752  1
 O  O5  1  0.29279  0.00000  0.77458  1
 O  O6  1  0.33371  0.22093  0.14275  1
 O  O7  1  0.83371  0.27907  0.85725  1
 O  O8  1  0.79279  0.50000  0.22542  1
 O  O9  1  0.73802  0.50000  0.58953  1
 O  O10  1  0.33371  0.77907  0.14275  1
 P  P1  1  0.68893  0.50000  0.77295  1
 P  P2  1  0.18893  0.00000  0.22705  1
