CIF file written using JARVIS-Tools package.
data_Ni6OF11
_symmetry_space_group_name_H-M  'P1'
_cell_length_a       4.64719
_cell_length_b       5.58399
_cell_length_c       7.74687
_cell_angle_alpha    86.8822
_cell_angle_beta     89.4726
_cell_angle_gamma    89.2853

_symmetry_Int_Tables_number  1
_chemical_formula_structural  Ni6OF11
_chemical_formula_sum  Ni6OF
_cell_volume  200.70976229649648
_cell_formula_units_Z  1
loop_
  _symmetry_equiv_pos_site_id
 _symmetry_equiv_pos_as_xyz
 1  'x, y, z'
loop_
 _atom_site_type_symbol
 _atom_site_label
 _atom_site_symmetry_multiplicity
 _atom_site_fract_x
 _atom_site_fract_y
 _atom_site_fract_z
 _atom_site_fract_occupancy
 F  F1  1  0.30280  0.20296  0.10316  1
 F  F2  1  0.80367  0.63222  0.56448  1
 F  F3  1  0.19101  0.36754  0.44008  1
 F  F4  1  0.69928  0.79590  0.89705  1
 F  F5  1  0.69197  0.46769  0.23423  1
 F  F6  1  0.80364  0.96563  0.23237  1
 F  F7  1  0.30392  0.86794  0.43322  1
 F  F8  1  0.30653  0.53423  0.76626  1
 F  F9  1  0.19997  0.70270  0.09531  1
 F  F10  1  0.19931  0.03556  0.76756  1
 F  F11  1  0.69901  0.12898  0.56461  1
 Ni  Ni1  1  0.98775  0.01484  0.99743  1
 Ni  Ni2  1  0.98379  0.33589  0.68031  1
 Ni  Ni3  1  0.00503  0.66474  0.32976  1
 Ni  Ni4  1  0.49968  0.83316  0.66553  1
 Ni  Ni5  1  0.49678  0.16846  0.33538  1
 Ni  Ni6  1  0.52003  0.48695  0.99378  1
 O  O1  1  0.80584  0.29463  0.89948  1
