CIF file written using JARVIS-Tools package.
data_K2CrSO7
_symmetry_space_group_name_H-M  'P2_1/c'
_cell_length_a       7.30057
_cell_length_b       7.33581
_cell_length_c       12.6429
_cell_angle_alpha    87.6298
_cell_angle_beta     90
_cell_angle_gamma    90

_symmetry_Int_Tables_number  14
_chemical_formula_structural  K2CrSO7
_chemical_formula_sum  K8Cr4S4O28
_cell_volume  676.5161518492594
_cell_formula_units_Z  4
loop_
  _symmetry_equiv_pos_site_id
 _symmetry_equiv_pos_as_xyz
 1  'x, y, z'
loop_
 _atom_site_type_symbol
 _atom_site_label
 _atom_site_symmetry_multiplicity
 _atom_site_fract_x
 _atom_site_fract_y
 _atom_site_fract_z
 _atom_site_fract_occupancy
 Cr  Cr1  1  0.16581  0.35232  0.40700  1
 Cr  Cr2  1  0.33419  0.85232  0.90700  1
 Cr  Cr3  1  0.66581  0.14768  0.09300  1
 Cr  Cr4  1  0.83419  0.64768  0.59300  1
 K  K1  1  0.37134  0.63285  0.64825  1
 K  K2  1  0.87134  0.86715  0.85175  1
 K  K3  1  0.12866  0.13285  0.14825  1
 K  K4  1  0.66847  0.14970  0.64353  1
 K  K5  1  0.16847  0.35030  0.85647  1
 K  K6  1  0.62866  0.36715  0.35175  1
 K  K7  1  0.33153  0.85030  0.35647  1
 K  K8  1  0.83153  0.64970  0.14353  1
 O  O1  1  0.50048  0.93767  0.83640  1
 O  O2  1  0.28904  0.21539  0.33823  1
 O  O3  1  0.54516  0.45127  0.81568  1
 O  O4  1  0.20401  0.47673  0.06278  1
 O  O5  1  0.07254  0.22194  0.51962  1
 O  O6  1  0.70044  0.48810  0.55086  1
 O  O7  1  0.45484  0.54873  0.18432  1
 O  O8  1  0.30496  0.25673  0.65922  1
 O  O9  1  0.29956  0.51190  0.44914  1
 O  O10  1  0.69504  0.74327  0.34078  1
 O  O11  1  0.42746  0.72194  0.01962  1
 O  O12  1  0.80496  0.24327  0.84078  1
 O  O13  1  0.78904  0.28461  0.16177  1
 O  O14  1  0.95484  0.95127  0.31568  1
 O  O15  1  0.79599  0.52327  0.93722  1
 O  O16  1  0.29599  0.97673  0.56278  1
 O  O17  1  0.57254  0.27806  0.98038  1
 O  O18  1  0.00048  0.56233  0.66360  1
 O  O19  1  0.19504  0.75673  0.15922  1
 O  O20  1  0.21096  0.71539  0.83823  1
 O  O21  1  0.70401  0.02327  0.43722  1
 O  O22  1  0.99952  0.43767  0.33640  1
 O  O23  1  0.04516  0.04873  0.68432  1
 O  O24  1  0.92746  0.77806  0.48038  1
 O  O25  1  0.79956  -0.01190  0.05086  1
 O  O26  1  0.20044  0.01190  0.94914  1
 O  O27  1  0.49952  0.06233  0.16360  1
 O  O28  1  0.71096  0.78461  0.66177  1
 S  S1  1  0.31197  0.61814  0.11273  1
 S  S2  1  0.81197  0.88186  0.38727  1
 S  S3  1  0.18803  0.11814  0.61273  1
 S  S4  1  0.68803  0.38186  0.88727  1
