CIF file written using JARVIS-Tools package.
data_Li4MnF7
_symmetry_space_group_name_H-M  'F-43m'
_cell_length_a       5.87484
_cell_length_b       5.87484
_cell_length_c       5.87484
_cell_angle_alpha    120
_cell_angle_beta     120
_cell_angle_gamma    90

_symmetry_Int_Tables_number  216
_chemical_formula_structural  Li4MnF7
_chemical_formula_sum  Li4MnF7
_cell_volume  143.37544924090173
_cell_formula_units_Z  1
loop_
  _symmetry_equiv_pos_site_id
 _symmetry_equiv_pos_as_xyz
 1  'x, y, z'
loop_
 _atom_site_type_symbol
 _atom_site_label
 _atom_site_symmetry_multiplicity
 _atom_site_fract_x
 _atom_site_fract_y
 _atom_site_fract_z
 _atom_site_fract_occupancy
 F  F1  1  0.75000  0.25000  0.50000  1
 F  F2  1  0.76329  0.23671  0.00000  1
 F  F3  1  0.76329  0.76329  0.00000  1
 F  F4  1  0.76329  0.76329  0.52659  1
 F  F5  1  0.23671  0.23671  0.00000  1
 F  F6  1  0.23671  0.23671  0.47341  1
 F  F7  1  0.23671  0.76329  0.00000  1
 Li  Li1  1  0.62636  0.37364  0.25272  1
 Li  Li2  1  0.62636  0.37364  0.74728  1
 Li  Li3  1  0.12093  0.37364  0.74728  1
 Li  Li4  1  0.62636  0.87907  0.25272  1
 Mn  Mn1  1  0.00000  0.00000  0.00000  1
