CIF file written using JARVIS-Tools package.
data_MoBr3
_symmetry_space_group_name_H-M  'Pmmn'
_cell_length_a       6.76937
_cell_length_b       11.6365
_cell_length_c       5.68618
_cell_angle_alpha    90
_cell_angle_beta     90
_cell_angle_gamma    90

_symmetry_Int_Tables_number  59
_chemical_formula_structural  MoBr3
_chemical_formula_sum  Mo4Br2
_cell_volume  447.9110678997864
_cell_formula_units_Z  4
loop_
  _symmetry_equiv_pos_site_id
 _symmetry_equiv_pos_as_xyz
 1  'x, y, z'
loop_
 _atom_site_type_symbol
 _atom_site_label
 _atom_site_symmetry_multiplicity
 _atom_site_fract_x
 _atom_site_fract_y
 _atom_site_fract_z
 _atom_site_fract_occupancy
 Br  Br1  1  0.09336  0.07700  0.25000  1
 Br  Br2  1  0.60680  0.25000  0.25000  1
 Br  Br3  1  0.09336  0.42300  0.25000  1
 Br  Br4  1  0.58443  0.59734  0.25000  1
 Br  Br5  1  0.03974  0.75000  0.25000  1
 Br  Br6  1  0.58443  0.90266  0.25000  1
 Br  Br7  1  0.41557  0.09734  0.75000  1
 Br  Br8  1  0.96026  0.25000  0.75000  1
 Br  Br9  1  0.41557  0.40266  0.75000  1
 Br  Br10  1  0.90664  0.57700  0.75000  1
 Br  Br11  1  0.39320  0.75000  0.75000  1
 Br  Br12  1  0.90664  0.92300  0.75000  1
 Mo  Mo1  1  0.26413  0.25000  0.04592  1
 Mo  Mo2  1  0.26413  0.25000  0.45408  1
 Mo  Mo3  1  0.73587  0.75000  0.54592  1
 Mo  Mo4  1  0.73587  0.75000  0.95408  1
