CIF file written using JARVIS-Tools package.
data_Mg7Fe
_symmetry_space_group_name_H-M  'P-6m2'
_cell_length_a       6.20629
_cell_length_b       6.20629
_cell_length_c       4.90206
_cell_angle_alpha    90
_cell_angle_beta     90
_cell_angle_gamma    120

_symmetry_Int_Tables_number  187
_chemical_formula_structural  Mg7Fe
_chemical_formula_sum  Mg7Fe
_cell_volume  163.52108954490316
_cell_formula_units_Z  1
loop_
  _symmetry_equiv_pos_site_id
 _symmetry_equiv_pos_as_xyz
 1  'x, y, z'
loop_
 _atom_site_type_symbol
 _atom_site_label
 _atom_site_symmetry_multiplicity
 _atom_site_fract_x
 _atom_site_fract_y
 _atom_site_fract_z
 _atom_site_fract_occupancy
 Fe  Fe1  1  0.16667  0.33333  0.25000  1
 Mg  Mg1  1  0.16722  0.83361  0.25000  1
 Mg  Mg2  1  0.66639  0.33278  0.25000  1
 Mg  Mg3  1  0.66639  0.83361  0.25000  1
 Mg  Mg4  1  0.32474  0.17526  0.75000  1
 Mg  Mg5  1  0.32474  0.64948  0.75000  1
 Mg  Mg6  1  0.85052  0.17526  0.75000  1
 Mg  Mg7  1  0.83333  0.66667  0.75000  1
