CIF file written using JARVIS-Tools package.
data_Ba2Hf7O16
_symmetry_space_group_name_H-M  'R-3'
_cell_length_a       6.45437
_cell_length_b       9.77299
_cell_length_c       6.45437
_cell_angle_alpha    109.282
_cell_angle_beta     60
_cell_angle_gamma    109.282

_symmetry_Int_Tables_number  148
_chemical_formula_structural  Ba2Hf7O16
_chemical_formula_sum  Ba2Hf7O6
_cell_volume  325.9495559218531
_cell_formula_units_Z  1
loop_
  _symmetry_equiv_pos_site_id
 _symmetry_equiv_pos_as_xyz
 1  'x, y, z'
loop_
 _atom_site_type_symbol
 _atom_site_label
 _atom_site_symmetry_multiplicity
 _atom_site_fract_x
 _atom_site_fract_y
 _atom_site_fract_z
 _atom_site_fract_occupancy
 Ba  Ba1  1  0.33398  0.00195  0.33398  1
 Ba  Ba2  1  0.66602  0.99805  0.66602  1
 Hf  Hf1  1  0.00000  0.00000  0.00000  1
 Hf  Hf2  1  0.24697  0.65007  0.51663  1
 Hf  Hf3  1  0.11353  0.34993  0.75303  1
 Hf  Hf4  1  0.48337  0.34993  0.11353  1
 Hf  Hf5  1  0.51663  0.65007  0.88647  1
 Hf  Hf6  1  0.88647  0.65007  0.24697  1
 Hf  Hf7  1  0.75303  0.34993  0.48337  1
 O  O1  1  0.23335  0.70006  0.23335  1
 O  O2  1  0.21627  0.86409  0.68803  1
 O  O3  1  0.14973  0.41190  0.40850  1
 O  O4  1  0.78373  0.13591  0.31197  1
 O  O5  1  0.04021  0.13591  0.78373  1
 O  O6  1  0.31197  0.13591  0.04021  1
 O  O7  1  0.14633  0.58810  0.85027  1
 O  O8  1  0.68803  0.86409  0.95979  1
 O  O9  1  0.56659  0.69977  0.56659  1
 O  O10  1  0.40850  0.41190  0.85367  1
 O  O11  1  0.59150  0.58810  0.14633  1
 O  O12  1  0.95979  0.86409  0.21627  1
 O  O13  1  0.85367  0.41190  0.14973  1
 O  O14  1  0.85027  0.58810  0.59150  1
 O  O15  1  0.43341  0.30023  0.43341  1
 O  O16  1  0.76665  0.29994  0.76665  1
