CIF file written using JARVIS-Tools package.
data_CaNi3P4O14
_symmetry_space_group_name_H-M  'P2_1/c'
_cell_length_a       7.33062
_cell_length_b       7.59834
_cell_length_c       9.42904
_cell_angle_alpha    90
_cell_angle_beta     111.977
_cell_angle_gamma    90

_symmetry_Int_Tables_number  14
_chemical_formula_structural  CaNi3P4O14
_chemical_formula_sum  Ca2Ni6P8O28
_cell_volume  487.03724111768446
_cell_formula_units_Z  2
loop_
  _symmetry_equiv_pos_site_id
 _symmetry_equiv_pos_as_xyz
 1  'x, y, z'
loop_
 _atom_site_type_symbol
 _atom_site_label
 _atom_site_symmetry_multiplicity
 _atom_site_fract_x
 _atom_site_fract_y
 _atom_site_fract_z
 _atom_site_fract_occupancy
 Ca  Ca1  1  0.50000  0.00000  -0.00000  1
 Ca  Ca2  1  0.50000  0.50000  0.50000  1
 Ni  Ni1  1  -0.00000  0.50000  0.50000  1
 Ni  Ni2  1  0.18433  0.87250  0.52461  1
 Ni  Ni3  1  0.00000  0.00000  0.00000  1
 Ni  Ni4  1  0.81567  0.12750  0.47539  1
 Ni  Ni5  1  0.18433  0.62750  0.02461  1
 Ni  Ni6  1  0.81567  0.37250  0.97539  1
 O  O1  1  0.27379  0.62040  0.62972  1
 O  O2  1  0.72621  0.12040  0.87028  1
 O  O3  1  0.72621  0.37960  0.37028  1
 O  O4  1  0.27379  0.87960  0.12972  1
 O  O5  1  0.61911  0.19565  0.58678  1
 O  O6  1  0.00867  0.21350  0.13493  1
 O  O7  1  0.38089  0.69565  0.91322  1
 O  O8  1  0.32721  0.12198  0.32461  1
 O  O9  1  0.67279  0.87802  0.67539  1
 O  O10  1  0.32721  0.37802  0.82461  1
 O  O11  1  0.83010  0.87911  0.10572  1
 O  O12  1  0.67279  0.62198  0.17539  1
 O  O13  1  0.38826  0.47282  0.19539  1
 O  O14  1  0.61174  0.97282  0.30461  1
 O  O15  1  0.61174  0.52718  0.80461  1
 O  O16  1  0.61911  0.30435  0.08678  1
 O  O17  1  0.16990  0.37911  0.39428  1
 O  O18  1  0.99133  0.78650  0.86507  1
 O  O19  1  0.38826  0.02718  0.69539  1
 O  O20  1  0.16990  0.12089  0.89428  1
 O  O21  1  0.97234  0.92528  0.61287  1
 O  O22  1  0.02766  0.42528  0.88713  1
 O  O23  1  0.02766  0.07472  0.38713  1
 O  O24  1  0.99133  0.71350  0.36507  1
 O  O25  1  0.00867  0.28650  0.63493  1
 O  O26  1  0.38089  0.80435  0.41322  1
 O  O27  1  0.83010  0.62089  0.60572  1
 O  O28  1  0.97234  0.57472  0.11287  1
 P  P1  1  0.88044  0.70482  0.19147  1
 P  P2  1  0.11956  0.20482  0.30853  1
 P  P3  1  0.11956  0.29518  0.80853  1
 P  P4  1  0.40480  0.56784  0.79711  1
 P  P5  1  0.59520  0.43216  0.20289  1
 P  P6  1  0.40480  0.93216  0.29711  1
 P  P7  1  0.59520  0.06784  0.70289  1
 P  P8  1  0.88044  0.79518  0.69147  1
