CIF file written using JARVIS-Tools package.
data_MnFeP2O8
_symmetry_space_group_name_H-M  'Pmn2_1'
_cell_length_a       4.81157
_cell_length_b       5.875
_cell_length_c       9.7808
_cell_angle_alpha    90
_cell_angle_beta     90
_cell_angle_gamma    90

_symmetry_Int_Tables_number  31
_chemical_formula_structural  MnFeP2O8
_chemical_formula_sum  Mn2Fe2P4O6
_cell_volume  276.4835069068055
_cell_formula_units_Z  2
loop_
  _symmetry_equiv_pos_site_id
 _symmetry_equiv_pos_as_xyz
 1  'x, y, z'
loop_
 _atom_site_type_symbol
 _atom_site_label
 _atom_site_symmetry_multiplicity
 _atom_site_fract_x
 _atom_site_fract_y
 _atom_site_fract_z
 _atom_site_fract_occupancy
 Fe  Fe1  1  0.94027  0.00000  0.02422  1
 Fe  Fe2  1  0.44027  0.50000  0.97578  1
 Mn  Mn1  1  0.57699  0.00000  0.53153  1
 Mn  Mn2  1  0.07699  0.50000  0.46847  1
 O  O1  1  0.33868  0.00000  0.68491  1
 O  O2  1  0.29199  0.50000  0.62782  1
 O  O3  1  0.75548  0.70578  0.58307  1
 O  O4  1  0.70294  0.00000  0.86730  1
 O  O5  1  0.25548  0.20578  0.41693  1
 O  O6  1  0.25548  0.79422  0.41693  1
 O  O7  1  0.75548  0.29422  0.58307  1
 O  O8  1  0.83868  0.50000  0.31509  1
 O  O9  1  0.15618  0.00000  0.19119  1
 O  O10  1  0.74217  0.70569  0.08802  1
 O  O11  1  0.79199  0.00000  0.37218  1
 O  O12  1  0.74217  0.29431  0.08802  1
 O  O13  1  0.24217  0.20569  0.91198  1
 O  O14  1  0.24217  0.79431  0.91198  1
 O  O15  1  0.20294  0.50000  0.13270  1
 O  O16  1  0.65618  0.50000  0.80881  1
 P  P1  1  0.39066  0.00000  0.84056  1
 P  P2  1  0.89066  0.50000  0.15944  1
 P  P3  1  0.10738  0.00000  0.34504  1
 P  P4  1  0.60738  0.50000  0.65496  1
