CIF file written using JARVIS-Tools package.
data_Ag2W2O7
_symmetry_space_group_name_H-M  'P-1'
_cell_length_a       6.08869
_cell_length_b       7.1511
_cell_length_c       7.55379
_cell_angle_alpha    71.8668
_cell_angle_beta     85.5219
_cell_angle_gamma    76.4803

_symmetry_Int_Tables_number  2
_chemical_formula_structural  Ag2W2O7
_chemical_formula_sum  Ag4W4O4
_cell_volume  303.897272240524
_cell_formula_units_Z  2
loop_
  _symmetry_equiv_pos_site_id
 _symmetry_equiv_pos_as_xyz
 1  'x, y, z'
loop_
 _atom_site_type_symbol
 _atom_site_label
 _atom_site_symmetry_multiplicity
 _atom_site_fract_x
 _atom_site_fract_y
 _atom_site_fract_z
 _atom_site_fract_occupancy
 Ag  Ag1  1  0.71867  0.33680  0.03811  1
 Ag  Ag2  1  0.28133  0.66320  0.96189  1
 Ag  Ag3  1  0.27613  0.28536  0.25668  1
 Ag  Ag4  1  0.72387  0.71464  0.74332  1
 O  O1  1  0.33828  -0.01056  0.79623  1
 O  O2  1  0.22363  0.96191  0.43927  1
 O  O3  1  0.77637  0.03809  0.56073  1
 O  O4  1  0.84098  0.74618  -0.00424  1
 O  O5  1  0.15902  0.25382  0.00424  1
 O  O6  1  0.42355  0.72258  0.20128  1
 O  O7  1  0.57645  0.27742  0.79872  1
 O  O8  1  0.79523  0.41138  0.29584  1
 O  O9  1  0.01590  0.68768  0.34772  1
 O  O10  1  0.20477  0.58862  0.70416  1
 O  O11  1  0.98410  0.31232  0.65228  1
 O  O12  1  0.60888  0.63893  0.50574  1
 O  O13  1  0.66172  0.01056  0.20377  1
 O  O14  1  0.39112  0.36107  0.49426  1
 W  W1  1  0.27457  0.70776  0.45581  1
 W  W2  1  0.73089  0.75241  0.22188  1
 W  W3  1  0.26911  0.24759  0.77812  1
 W  W4  1  0.72543  0.29224  0.54419  1
