CIF file written using JARVIS-Tools package.
data_ZrNiP2
_symmetry_space_group_name_H-M  'P4/nmm'
_cell_length_a       3.6308
_cell_length_b       3.6308
_cell_length_c       8.98344
_cell_angle_alpha    90
_cell_angle_beta     90
_cell_angle_gamma    90

_symmetry_Int_Tables_number  129
_chemical_formula_structural  ZrNiP2
_chemical_formula_sum  Zr2Ni2P4
_cell_volume  118.42608132902093
_cell_formula_units_Z  2
loop_
  _symmetry_equiv_pos_site_id
 _symmetry_equiv_pos_as_xyz
 1  'x, y, z'
loop_
 _atom_site_type_symbol
 _atom_site_label
 _atom_site_symmetry_multiplicity
 _atom_site_fract_x
 _atom_site_fract_y
 _atom_site_fract_z
 _atom_site_fract_occupancy
 Ni  Ni1  1  0.25000  0.75000  0.50000  1
 Ni  Ni2  1  0.75000  0.25000  0.50000  1
 P  P1  1  0.25000  0.75000  0.00000  1
 P  P2  1  0.75000  0.25000  0.00000  1
 P  P3  1  0.75000  0.75000  0.34360  1
 P  P4  1  0.25000  0.25000  0.65640  1
 Zr  Zr1  1  0.75000  0.75000  0.76964  1
 Zr  Zr2  1  0.25000  0.25000  0.23036  1
