CIF file written using JARVIS-Tools package.
data_H3AuC2NCl
_symmetry_space_group_name_H-M  'P2_1/m'
_cell_length_a       4.03774
_cell_length_b       6.18835
_cell_length_c       9.06189
_cell_angle_alpha    90
_cell_angle_beta     93.2637
_cell_angle_gamma    90

_symmetry_Int_Tables_number  11
_chemical_formula_structural  H3AuC2NCl
_chemical_formula_sum  H6Au2C4N2Cl2
_cell_volume  226.06218254973942
_cell_formula_units_Z  2
loop_
  _symmetry_equiv_pos_site_id
 _symmetry_equiv_pos_as_xyz
 1  'x, y, z'
loop_
 _atom_site_type_symbol
 _atom_site_label
 _atom_site_symmetry_multiplicity
 _atom_site_fract_x
 _atom_site_fract_y
 _atom_site_fract_z
 _atom_site_fract_occupancy
 Au  Au1  1  0.13903  0.70688  0.58478  1
 Au  Au2  1  0.86097  0.20688  0.41522  1
 C  C1  1  0.67705  0.20687  0.60607  1
 C  C2  1  0.32295  0.70687  0.39393  1
 C  C3  1  0.43457  0.20671  0.86320  1
 C  C4  1  0.56543  0.70671  0.13680  1
 Cl  Cl1  1  0.07907  0.20679  0.18708  1
 Cl  Cl2  1  0.92093  0.70679  0.81292  1
 H  H1  1  0.71810  0.56057  0.12651  1
 H  H2  1  0.36380  0.70701  0.04979  1
 H  H3  1  0.28099  0.35245  0.87341  1
 H  H4  1  0.28190  0.06057  0.87349  1
 H  H5  1  0.63620  0.20701  0.95021  1
 H  H6  1  0.71901  0.85245  0.12659  1
 N  N1  1  0.43008  0.70681  0.27735  1
 N  N2  1  0.56992  0.20681  0.72265  1
