CIF file written using JARVIS-Tools package.
data_VO2
_symmetry_space_group_name_H-M  'P-1'
_cell_length_a       5.27271
_cell_length_b       5.33957
_cell_length_c       7.19945
_cell_angle_alpha    80.9547
_cell_angle_beta     110.193
_cell_angle_gamma    118.085

_symmetry_Int_Tables_number  2
_chemical_formula_structural  VO2
_chemical_formula_sum  V5O0
_cell_volume  167.8307749489791
_cell_formula_units_Z  5
loop_
  _symmetry_equiv_pos_site_id
 _symmetry_equiv_pos_as_xyz
 1  'x, y, z'
loop_
 _atom_site_type_symbol
 _atom_site_label
 _atom_site_symmetry_multiplicity
 _atom_site_fract_x
 _atom_site_fract_y
 _atom_site_fract_z
 _atom_site_fract_occupancy
 O  O1  1  0.39020  0.30659  0.61276  1
 O  O2  1  0.82733  0.21932  0.80876  1
 O  O3  1  0.41421  0.20007  0.00353  1
 O  O4  1  0.78754  0.31053  0.40949  1
 O  O5  1  0.14942  0.26061  0.20465  1
 O  O6  1  0.98585  0.80057  0.79118  1
 O  O7  1  0.00993  0.69395  0.18194  1
 O  O8  1  0.25044  0.73977  0.59011  1
 O  O9  1  0.57267  0.78126  0.98596  1
 O  O10  1  0.61251  0.68996  0.38522  1
 V  V1  1  0.00078  0.01062  0.00899  1
 V  V2  1  0.79189  0.49998  0.61484  1
 V  V3  1  0.60832  0.50066  0.17987  1
 V  V4  1  0.20000  0.50015  0.39735  1
 V  V5  1  0.39932  -0.01008  0.78573  1
