CIF file written using JARVIS-Tools package.
data_UCr4C4
_symmetry_space_group_name_H-M  'I4/m'
_cell_length_a       3.04193
_cell_length_b       5.81775
_cell_length_c       5.81775
_cell_angle_alpha    86.0808
_cell_angle_beta     74.8448
_cell_angle_gamma    74.8447

_symmetry_Int_Tables_number  87
_chemical_formula_structural  UCr4C4
_chemical_formula_sum  UCr4C4
_cell_volume  95.9205538572569
_cell_formula_units_Z  1
loop_
  _symmetry_equiv_pos_site_id
 _symmetry_equiv_pos_as_xyz
 1  'x, y, z'
loop_
 _atom_site_type_symbol
 _atom_site_label
 _atom_site_symmetry_multiplicity
 _atom_site_fract_x
 _atom_site_fract_y
 _atom_site_fract_z
 _atom_site_fract_occupancy
 C  C1  1  0.59635  0.66737  0.13993  1
 C  C2  1  0.40365  0.33263  0.86007  1
 C  C3  1  0.73628  0.86007  0.66737  1
 C  C4  1  0.26372  0.13993  0.33263  1
 Cr  Cr1  1  0.63497  0.18618  0.54387  1
 Cr  Cr2  1  0.36503  0.81382  0.45613  1
 Cr  Cr3  1  0.17884  0.45613  0.18618  1
 Cr  Cr4  1  0.82116  0.54387  0.81382  1
 U  U1  1  0.00000  0.00000  0.00000  1
