CIF file written using JARVIS-Tools package.
data_CuWO4
_symmetry_space_group_name_H-M  'P-1'
_cell_length_a       4.70902
_cell_length_b       4.92696
_cell_length_c       5.91771
_cell_angle_alpha    87.7704
_cell_angle_beta     83.1574
_cell_angle_gamma    87.3286

_symmetry_Int_Tables_number  2
_chemical_formula_structural  CuWO4
_chemical_formula_sum  Cu2W2O8
_cell_volume  136.09452955034487
_cell_formula_units_Z  2
loop_
  _symmetry_equiv_pos_site_id
 _symmetry_equiv_pos_as_xyz
 1  'x, y, z'
loop_
 _atom_site_type_symbol
 _atom_site_label
 _atom_site_symmetry_multiplicity
 _atom_site_fract_x
 _atom_site_fract_y
 _atom_site_fract_z
 _atom_site_fract_occupancy
 Cu  Cu1  1  0.49620  0.75222  0.65838  1
 Cu  Cu2  1  0.50380  0.24778  0.34162  1
 O  O1  1  0.21896  0.05466  0.09035  1
 O  O2  1  0.78104  0.94534  0.90965  1
 O  O3  1  0.26529  0.09442  0.61896  1
 O  O4  1  0.73471  0.90558  0.38104  1
 O  O5  1  0.25170  0.57190  0.35404  1
 O  O6  1  0.74830  0.42810  0.64596  1
 O  O7  1  0.21677  0.57050  0.88223  1
 O  O8  1  0.78323  0.42950  0.11777  1
 W  W1  1  0.01744  0.74616  0.17236  1
 W  W2  1  0.98256  0.25384  0.82764  1
