CIF file written using JARVIS-Tools package.
data_Ba4Br6O
_symmetry_space_group_name_H-M  'P4_2/nmc'
_cell_length_a       10.1359
_cell_length_b       10.1359
_cell_length_c       7.62784
_cell_angle_alpha    90
_cell_angle_beta     90
_cell_angle_gamma    90

_symmetry_Int_Tables_number  137
_chemical_formula_structural  Ba4Br6O
_chemical_formula_sum  Ba8Br2O2
_cell_volume  783.6566833310499
_cell_formula_units_Z  2
loop_
  _symmetry_equiv_pos_site_id
 _symmetry_equiv_pos_as_xyz
 1  'x, y, z'
loop_
 _atom_site_type_symbol
 _atom_site_label
 _atom_site_symmetry_multiplicity
 _atom_site_fract_x
 _atom_site_fract_y
 _atom_site_fract_z
 _atom_site_fract_occupancy
 Ba  Ba1  1  0.50000  0.73340  0.84010  1
 Ba  Ba2  1  0.23340  0.00000  0.34010  1
 Ba  Ba3  1  0.76660  0.00000  0.34010  1
 Ba  Ba4  1  0.50000  0.26660  0.84010  1
 Ba  Ba5  1  0.00000  0.23340  0.65990  1
 Ba  Ba6  1  0.73340  0.50000  0.15990  1
 Ba  Ba7  1  0.26660  0.50000  0.15990  1
 Ba  Ba8  1  0.00000  0.76660  0.65990  1
 Br  Br1  1  0.20158  0.20158  0.00000  1
 Br  Br2  1  0.20158  0.79842  0.00000  1
 Br  Br3  1  0.79842  0.79842  0.00000  1
 Br  Br4  1  0.50000  0.00000  0.09979  1
 Br  Br5  1  0.79842  0.20158  0.00000  1
 Br  Br6  1  0.50000  0.00000  0.59979  1
 Br  Br7  1  0.00000  0.50000  0.90021  1
 Br  Br8  1  0.70158  0.29842  0.50000  1
 Br  Br9  1  0.00000  0.50000  0.40021  1
 Br  Br10  1  0.29842  0.70158  0.50000  1
 Br  Br11  1  0.70158  0.70158  0.50000  1
 Br  Br12  1  0.29842  0.29842  0.50000  1
 O  O1  1  0.00000  0.00000  0.50000  1
 O  O2  1  0.50000  0.50000  0.00000  1
