CIF file written using JARVIS-Tools package.
data_LiCuF4
_symmetry_space_group_name_H-M  'I4/mcm'
_cell_length_a       5.16558
_cell_length_b       5.16558
_cell_length_c       6.0449
_cell_angle_alpha    64.7057
_cell_angle_beta     64.7057
_cell_angle_gamma    90

_symmetry_Int_Tables_number  140
_chemical_formula_structural  LiCuF4
_chemical_formula_sum  Li2Cu2F8
_cell_volume  128.52103745711466
_cell_formula_units_Z  2
loop_
  _symmetry_equiv_pos_site_id
 _symmetry_equiv_pos_as_xyz
 1  'x, y, z'
loop_
 _atom_site_type_symbol
 _atom_site_label
 _atom_site_symmetry_multiplicity
 _atom_site_fract_x
 _atom_site_fract_y
 _atom_site_fract_z
 _atom_site_fract_occupancy
 Cu  Cu1  1  0.00000  0.50000  0.00000  1
 Cu  Cu2  1  0.50000  0.00000  0.00000  1
 F  F1  1  0.04740  0.19427  0.25833  1
 F  F2  1  0.19427  0.69427  0.25833  1
 F  F3  1  0.30573  0.45260  0.74167  1
 F  F4  1  0.54740  0.04740  0.25833  1
 F  F5  1  0.45260  0.95260  0.74167  1
 F  F6  1  0.69427  0.54740  0.25833  1
 F  F7  1  0.80573  0.30573  0.74167  1
 F  F8  1  0.95260  0.80573  0.74167  1
 Li  Li1  1  0.25000  0.25000  0.50000  1
 Li  Li2  1  0.75000  0.75000  0.50000  1
