CIF file written using JARVIS-Tools package.
data_MoW3Se4S4
_symmetry_space_group_name_H-M  'P3m1'
_cell_length_a       3.25708
_cell_length_b       3.25709
_cell_length_c       34.5915
_cell_angle_alpha    89.9959
_cell_angle_beta     90
_cell_angle_gamma    120

_symmetry_Int_Tables_number  156
_chemical_formula_structural  MoW3Se4S4
_chemical_formula_sum  MoW3Se4S4
_cell_volume  317.80345703541894
_cell_formula_units_Z  1
loop_
  _symmetry_equiv_pos_site_id
 _symmetry_equiv_pos_as_xyz
 1  'x, y, z'
loop_
 _atom_site_type_symbol
 _atom_site_label
 _atom_site_symmetry_multiplicity
 _atom_site_fract_x
 _atom_site_fract_y
 _atom_site_fract_z
 _atom_site_fract_occupancy
 Mo  Mo1  1  0.66675  0.33350  0.27931  1
 S  S1  1  0.33314  0.66629  0.70318  1
 S  S2  1  0.66680  0.33359  0.04839  1
 S  S3  1  0.66675  0.33350  0.13819  1
 S  S4  1  0.33319  0.66638  0.61338  1
 Se  Se1  1  0.33339  0.66678  0.32841  1
 Se  Se2  1  0.66667  0.33333  0.42263  1
 Se  Se3  1  0.66662  0.33323  0.52143  1
 Se  Se4  1  0.33344  0.66688  0.23022  1
 W  W1  1  0.33344  0.66688  0.09326  1
 W  W2  1  0.33331  0.66662  0.47204  1
 W  W3  1  0.66650  0.33301  0.65830  1
