CIF file written using JARVIS-Tools package.
data_LaAu
_symmetry_space_group_name_H-M  'Cmcm'
_cell_length_a       3.98815
_cell_length_b       4.84141
_cell_length_c       6.09145
_cell_angle_alpha    90
_cell_angle_beta     109.108
_cell_angle_gamma    90

_symmetry_Int_Tables_number  63
_chemical_formula_structural  LaAu
_chemical_formula_sum  La2Au2
_cell_volume  111.13488542457787
_cell_formula_units_Z  2
loop_
  _symmetry_equiv_pos_site_id
 _symmetry_equiv_pos_as_xyz
 1  'x, y, z'
loop_
 _atom_site_type_symbol
 _atom_site_label
 _atom_site_symmetry_multiplicity
 _atom_site_fract_x
 _atom_site_fract_y
 _atom_site_fract_z
 _atom_site_fract_occupancy
 Au  Au1  1  0.59007  0.75000  0.18015  1
 Au  Au2  1  0.40993  0.25000  0.81985  1
 La  La1  1  0.86502  0.75000  0.73003  1
 La  La2  1  0.13498  0.25000  0.26997  1
