CIF file written using JARVIS-Tools package.
data_YMg2Cu9
_symmetry_space_group_name_H-M  'P6_3/mmc'
_cell_length_a       4.98527
_cell_length_b       4.98527
_cell_length_c       16.1231
_cell_angle_alpha    90
_cell_angle_beta     90
_cell_angle_gamma    120

_symmetry_Int_Tables_number  194
_chemical_formula_structural  YMg2Cu9
_chemical_formula_sum  Y2Mg4Cu8
_cell_volume  347.02166623149174
_cell_formula_units_Z  2
loop_
  _symmetry_equiv_pos_site_id
 _symmetry_equiv_pos_as_xyz
 1  'x, y, z'
loop_
 _atom_site_type_symbol
 _atom_site_label
 _atom_site_symmetry_multiplicity
 _atom_site_fract_x
 _atom_site_fract_y
 _atom_site_fract_z
 _atom_site_fract_occupancy
 Cu  Cu1  1  0.83176  0.66352  0.87728  1
 Cu  Cu2  1  0.66667  0.33333  0.75000  1
 Cu  Cu3  1  0.16824  0.83176  0.37728  1
 Cu  Cu4  1  0.16824  0.33648  0.37728  1
 Cu  Cu5  1  0.00000  0.00000  0.75000  1
 Cu  Cu6  1  0.00000  0.00000  0.25000  1
 Cu  Cu7  1  0.00000  0.00000  0.00000  1
 Cu  Cu8  1  0.16824  0.33648  0.12272  1
 Cu  Cu9  1  0.83176  0.16824  0.62272  1
 Cu  Cu10  1  0.66352  0.83176  0.12272  1
 Cu  Cu11  1  0.16824  0.83176  0.12272  1
 Cu  Cu12  1  0.00000  0.00000  0.50000  1
 Cu  Cu13  1  0.83176  0.16824  0.87728  1
 Cu  Cu14  1  0.83176  0.66352  0.62272  1
 Cu  Cu15  1  0.33648  0.16824  0.87728  1
 Cu  Cu16  1  0.66352  0.83176  0.37728  1
 Cu  Cu17  1  0.33333  0.66667  0.25000  1
 Cu  Cu18  1  0.33648  0.16824  0.62272  1
 Mg  Mg1  1  0.66667  0.33333  0.03350  1
 Mg  Mg2  1  0.33333  0.66667  0.96650  1
 Mg  Mg3  1  0.66667  0.33333  0.46650  1
 Mg  Mg4  1  0.33333  0.66667  0.53350  1
 Y  Y1  1  0.66667  0.33333  0.25000  1
 Y  Y2  1  0.33333  0.66667  0.75000  1
