CIF file written using JARVIS-Tools package.
data_Si2Ni6B
_symmetry_space_group_name_H-M  'P-62m'
_cell_length_a       6.11754
_cell_length_b       6.11754
_cell_length_c       2.89964
_cell_angle_alpha    90
_cell_angle_beta     90
_cell_angle_gamma    120

_symmetry_Int_Tables_number  189
_chemical_formula_structural  Si2Ni6B
_chemical_formula_sum  Si2Ni6B
_cell_volume  93.97872035042036
_cell_formula_units_Z  1
loop_
  _symmetry_equiv_pos_site_id
 _symmetry_equiv_pos_as_xyz
 1  'x, y, z'
loop_
 _atom_site_type_symbol
 _atom_site_label
 _atom_site_symmetry_multiplicity
 _atom_site_fract_x
 _atom_site_fract_y
 _atom_site_fract_z
 _atom_site_fract_occupancy
 B  B1  1  0.00000  0.00000  0.50000  1
 Ni  Ni1  1  0.75609  0.75609  0.00000  1
 Ni  Ni2  1  -0.00000  0.24391  0.00000  1
 Ni  Ni3  1  0.38971  0.38971  0.50000  1
 Ni  Ni4  1  -0.00000  0.61029  0.50000  1
 Ni  Ni5  1  0.24391  -0.00000  0.00000  1
 Ni  Ni6  1  0.61029  -0.00000  0.50000  1
 Si  Si1  1  0.33333  0.66667  0.00000  1
 Si  Si2  1  0.66667  0.33333  0.00000  1
