CIF file written using JARVIS-Tools package.
data_Sr2CoO3
_symmetry_space_group_name_H-M  'I4/mmm'
_cell_length_a       3.55957
_cell_length_b       3.55957
_cell_length_c       7.56792
_cell_angle_alpha    76.4086
_cell_angle_beta     103.591
_cell_angle_gamma    89.9917

_symmetry_Int_Tables_number  139
_chemical_formula_structural  Sr2CoO3
_chemical_formula_sum  Sr2CoO3
_cell_volume  90.43861382717758
_cell_formula_units_Z  1
loop_
  _symmetry_equiv_pos_site_id
 _symmetry_equiv_pos_as_xyz
 1  'x, y, z'
loop_
 _atom_site_type_symbol
 _atom_site_label
 _atom_site_symmetry_multiplicity
 _atom_site_fract_x
 _atom_site_fract_y
 _atom_site_fract_z
 _atom_site_fract_occupancy
 Co  Co1  1  -0.00000  0.00000  0.50000  1
 O  O1  1  0.50000  0.50000  0.50000  1
 O  O2  1  0.14631  0.85369  0.79282  1
 O  O3  1  0.85369  0.14631  0.20718  1
 Sr  Sr1  1  0.65798  0.34202  0.81612  1
 Sr  Sr2  1  0.34202  0.65798  0.18388  1
