CIF file written using JARVIS-Tools package.
data_CaO
_symmetry_space_group_name_H-M  'I4/mmm'
_cell_length_a       3.39712
_cell_length_b       3.39712
_cell_length_c       9.67981
_cell_angle_alpha    90
_cell_angle_beta     90
_cell_angle_gamma    89.9993

_symmetry_Int_Tables_number  139
_chemical_formula_structural  CaO
_chemical_formula_sum  Ca4O4
_cell_volume  111.70882823399972
_cell_formula_units_Z  4
loop_
  _symmetry_equiv_pos_site_id
 _symmetry_equiv_pos_as_xyz
 1  'x, y, z'
loop_
 _atom_site_type_symbol
 _atom_site_label
 _atom_site_symmetry_multiplicity
 _atom_site_fract_x
 _atom_site_fract_y
 _atom_site_fract_z
 _atom_site_fract_occupancy
 Ca  Ca1  1  0.74999  0.25001  0.37500  1
 Ca  Ca2  1  0.25001  0.74999  0.62500  1
 Ca  Ca3  1  0.75001  0.24999  0.87500  1
 Ca  Ca4  1  0.24999  0.75001  0.12500  1
 O  O1  1  0.74996  0.25004  0.12500  1
 O  O2  1  0.25004  0.74996  0.87500  1
 O  O3  1  0.75004  0.24996  0.62500  1
 O  O4  1  0.24996  0.75004  0.37500  1
