CIF file written using JARVIS-Tools package.
data_ZrUN2
_symmetry_space_group_name_H-M  'I4_1/amd'
_cell_length_a       6.69353
_cell_length_b       8.85544
_cell_length_c       5.79793
_cell_angle_alpha    29.203
_cell_angle_beta     54.7436
_cell_angle_gamma    40.8988

_symmetry_Int_Tables_number  141
_chemical_formula_structural  ZrUN2
_chemical_formula_sum  Zr2U2N4
_cell_volume  106.05270615950965
_cell_formula_units_Z  2
loop_
  _symmetry_equiv_pos_site_id
 _symmetry_equiv_pos_as_xyz
 1  'x, y, z'
loop_
 _atom_site_type_symbol
 _atom_site_label
 _atom_site_symmetry_multiplicity
 _atom_site_fract_x
 _atom_site_fract_y
 _atom_site_fract_z
 _atom_site_fract_occupancy
 N  N1  1  0.24717  0.00000  0.50566  1
 N  N2  1  0.75284  1.00000  0.49434  1
 N  N3  1  0.50283  0.50000  0.49434  1
 N  N4  1  0.99716  0.50000  0.50566  1
 U  U1  1  0.49999  0.00000  0.00000  1
 U  U2  1  0.25001  0.50000  -0.00000  1
 Zr  Zr1  1  0.99999  0.00000  0.00000  1
 Zr  Zr2  1  0.75001  0.50000  -0.00000  1
