CIF file written using JARVIS-Tools package.
data_Tm4B6O15
_symmetry_space_group_name_H-M  'R3'
_cell_length_a       8.05353
_cell_length_b       8.05353
_cell_length_c       8.05352
_cell_angle_alpha    112.232
_cell_angle_beta     112.232
_cell_angle_gamma    112.232

_symmetry_Int_Tables_number  146
_chemical_formula_structural  Tm4B6O15
_chemical_formula_sum  Tm4B6O5
_cell_volume  355.11643876181046
_cell_formula_units_Z  1
loop_
  _symmetry_equiv_pos_site_id
 _symmetry_equiv_pos_as_xyz
 1  'x, y, z'
loop_
 _atom_site_type_symbol
 _atom_site_label
 _atom_site_symmetry_multiplicity
 _atom_site_fract_x
 _atom_site_fract_y
 _atom_site_fract_z
 _atom_site_fract_occupancy
 B  B1  1  0.50173  0.80438  0.72974  1
 B  B2  1  0.15632  0.39504  0.49637  1
 B  B3  1  0.39504  0.49637  0.15632  1
 B  B4  1  0.80438  0.72974  0.50173  1
 B  B5  1  0.72974  0.50173  0.80438  1
 B  B6  1  0.49637  0.15632  0.39504  1
 O  O1  1  0.53269  0.31930  0.58417  1
 O  O2  1  0.28929  0.01958  0.18728  1
 O  O3  1  0.49999  0.88156  0.91460  1
 O  O4  1  0.64985  0.11600  0.40542  1
 O  O5  1  0.31930  0.58417  0.53269  1
 O  O6  1  0.68624  0.94358  0.74769  1
 O  O7  1  0.40542  0.64985  0.11600  1
 O  O8  1  0.11600  0.40542  0.64985  1
 O  O9  1  0.88156  0.91460  0.49999  1
 O  O10  1  0.01958  0.18728  0.28929  1
 O  O11  1  0.58417  0.53269  0.31930  1
 O  O12  1  0.18728  0.28929  0.01958  1
 O  O13  1  0.94358  0.74769  0.68624  1
 O  O14  1  0.91460  0.49999  0.88156  1
 O  O15  1  0.74769  0.68624  0.94358  1
 Tm  Tm1  1  0.89553  0.19853  0.72192  1
 Tm  Tm2  1  0.00521  0.00521  0.00521  1
 Tm  Tm3  1  0.72192  0.89553  0.19853  1
 Tm  Tm4  1  0.19853  0.72192  0.89553  1
