CIF file written using JARVIS-Tools package.
data_Nb5Si3
_symmetry_space_group_name_H-M  'I4/mcm'
_cell_length_a       6.62329
_cell_length_b       6.62319
_cell_length_c       7.59379
_cell_angle_alpha    115.856
_cell_angle_beta     115.855
_cell_angle_gamma    90

_symmetry_Int_Tables_number  140
_chemical_formula_structural  Nb5Si3
_chemical_formula_sum  Nb0Si6
_cell_volume  262.2198132318469
_cell_formula_units_Z  2
loop_
  _symmetry_equiv_pos_site_id
 _symmetry_equiv_pos_as_xyz
 1  'x, y, z'
loop_
 _atom_site_type_symbol
 _atom_site_label
 _atom_site_symmetry_multiplicity
 _atom_site_fract_x
 _atom_site_fract_y
 _atom_site_fract_z
 _atom_site_fract_occupancy
 Nb  Nb1  1  0.18454  0.01613  0.70069  1
 Nb  Nb2  1  0.01615  0.51613  0.70069  1
 Nb  Nb3  1  0.68455  0.18457  0.70070  1
 Nb  Nb4  1  0.98385  0.48387  0.29931  1
 Nb  Nb5  1  0.51615  0.68457  0.70070  1
 Nb  Nb6  1  0.81546  0.98387  0.29931  1
 Nb  Nb7  1  0.48385  0.31543  0.29930  1
 Nb  Nb8  1  0.31545  0.81543  0.29930  1
 Nb  Nb9  1  0.50000  0.50000  0.00000  1
 Nb  Nb10  1  0.00000  0.00000  0.00000  1
 Si  Si1  1  0.62956  0.12957  0.99999  1
 Si  Si2  1  0.87043  0.62957  0.99999  1
 Si  Si3  1  0.12957  0.37043  0.00001  1
 Si  Si4  1  0.37044  0.87043  0.00001  1
 Si  Si5  1  0.75000  0.75000  0.50000  1
 Si  Si6  1  0.25000  0.25000  0.50000  1
