CIF file written using JARVIS-Tools package.
data_LiFeO2
_symmetry_space_group_name_H-M  'Pmmn'
_cell_length_a       2.7911
_cell_length_b       4.06092
_cell_length_c       5.82523
_cell_angle_alpha    90
_cell_angle_beta     90
_cell_angle_gamma    90

_symmetry_Int_Tables_number  59
_chemical_formula_structural  LiFeO2
_chemical_formula_sum  Li2Fe2O4
_cell_volume  66.02573916843016
_cell_formula_units_Z  2
loop_
  _symmetry_equiv_pos_site_id
 _symmetry_equiv_pos_as_xyz
 1  'x, y, z'
loop_
 _atom_site_type_symbol
 _atom_site_label
 _atom_site_symmetry_multiplicity
 _atom_site_fract_x
 _atom_site_fract_y
 _atom_site_fract_z
 _atom_site_fract_occupancy
 Fe  Fe1  1  0.50000  0.50000  0.63232  1
 Fe  Fe2  1  0.00000  0.00000  0.36768  1
 Li  Li1  1  0.50000  0.50000  0.10748  1
 Li  Li2  1  0.00000  0.00000  0.89252  1
 O  O1  1  0.00000  0.50000  0.39441  1
 O  O2  1  0.00000  0.50000  0.85193  1
 O  O3  1  0.50000  0.00000  0.14807  1
 O  O4  1  0.50000  0.00000  0.60559  1
