CIF file written using JARVIS-Tools package.
data_Ag2Se
_symmetry_space_group_name_H-M  'Pnma'
_cell_length_a       7.02671
_cell_length_b       7.42921
_cell_length_c       4.98045
_cell_angle_alpha    90
_cell_angle_beta     90
_cell_angle_gamma    90

_symmetry_Int_Tables_number  62
_chemical_formula_structural  Ag2Se
_chemical_formula_sum  Ag8Se4
_cell_volume  259.99415716879747
_cell_formula_units_Z  4
loop_
  _symmetry_equiv_pos_site_id
 _symmetry_equiv_pos_as_xyz
 1  'x, y, z'
loop_
 _atom_site_type_symbol
 _atom_site_label
 _atom_site_symmetry_multiplicity
 _atom_site_fract_x
 _atom_site_fract_y
 _atom_site_fract_z
 _atom_site_fract_occupancy
 Ag  Ag1  1  0.49231  0.96390  0.25000  1
 Ag  Ag2  1  0.00769  0.03610  0.75000  1
 Ag  Ag3  1  0.83996  0.18465  0.25000  1
 Ag  Ag4  1  0.99231  0.53610  0.75000  1
 Ag  Ag5  1  0.33996  0.31535  0.75000  1
 Ag  Ag6  1  0.66004  0.81535  0.75000  1
 Ag  Ag7  1  0.16004  0.68465  0.25000  1
 Ag  Ag8  1  0.50769  0.46390  0.25000  1
 Se  Se1  1  0.74639  0.28174  0.75000  1
 Se  Se2  1  0.25361  0.78174  0.75000  1
 Se  Se3  1  0.24639  0.21826  0.25000  1
 Se  Se4  1  0.75361  0.71826  0.25000  1
