CIF file written using JARVIS-Tools package.
data_Sn2BF7
_symmetry_space_group_name_H-M  'Pnma'
_cell_length_a       5.3826
_cell_length_b       8.25098
_cell_length_c       13.9951
_cell_angle_alpha    90
_cell_angle_beta     89.9975
_cell_angle_gamma    90

_symmetry_Int_Tables_number  62
_chemical_formula_structural  Sn2BF7
_chemical_formula_sum  Sn8B4F28
_cell_volume  621.5450678562855
_cell_formula_units_Z  4
loop_
  _symmetry_equiv_pos_site_id
 _symmetry_equiv_pos_as_xyz
 1  'x, y, z'
loop_
 _atom_site_type_symbol
 _atom_site_label
 _atom_site_symmetry_multiplicity
 _atom_site_fract_x
 _atom_site_fract_y
 _atom_site_fract_z
 _atom_site_fract_occupancy
 B  B1  1  0.24999  0.19670  0.62417  1
 B  B2  1  0.75001  0.80330  0.37583  1
 B  B3  1  0.74999  0.30330  0.12417  1
 B  B4  1  0.25001  0.69670  0.87583  1
 F  F1  1  0.75000  0.65073  0.32992  1
 F  F2  1  0.03324  0.60841  0.85094  1
 F  F3  1  0.53324  0.89159  0.35094  1
 F  F4  1  0.96676  0.39159  0.14906  1
 F  F5  1  0.24999  0.71804  0.97686  1
 F  F6  1  0.49905  0.32509  0.35077  1
 F  F7  1  -0.00095  0.17491  0.85077  1
 F  F8  1  0.46682  0.60843  0.85094  1
 F  F9  1  0.50095  0.67491  0.64923  1
 F  F10  1  0.24998  0.08123  0.03846  1
 F  F11  1  0.25002  0.58123  0.46154  1
 F  F12  1  0.75002  0.91877  0.96154  1
 F  F13  1  0.74998  0.41877  0.53846  1
 F  F14  1  0.50095  0.17490  0.85078  1
 F  F15  1  0.99905  0.67490  0.64922  1
 F  F16  1  0.00095  0.32510  0.35078  1
 F  F17  1  0.75000  0.15073  0.17008  1
 F  F18  1  0.00095  0.82509  0.14923  1
 F  F19  1  0.25000  0.84927  0.82992  1
 F  F20  1  0.25000  0.34927  0.67008  1
 F  F21  1  0.74999  0.78196  0.47686  1
 F  F22  1  0.75001  0.28196  0.02314  1
 F  F23  1  0.25001  0.21804  0.52314  1
 F  F24  1  0.49905  0.82510  0.14922  1
 F  F25  1  0.53318  0.39157  0.14906  1
 F  F26  1  0.03318  0.10843  0.64906  1
 F  F27  1  0.46676  0.10841  0.64906  1
 F  F28  1  0.96682  0.89157  0.35094  1
 Sn  Sn1  1  0.25001  0.51677  0.30955  1
 Sn  Sn2  1  0.25001  0.79132  0.55206  1
 Sn  Sn3  1  0.24999  0.29132  0.94794  1
 Sn  Sn4  1  0.74999  0.20868  0.44794  1
 Sn  Sn5  1  0.75001  0.70868  0.05206  1
 Sn  Sn6  1  0.74999  0.48323  0.69045  1
 Sn  Sn7  1  0.75001  0.98323  0.80955  1
 Sn  Sn8  1  0.24999  0.01677  0.19045  1
