CIF file written using JARVIS-Tools package.
data_BaH2C2O4
_symmetry_space_group_name_H-M  'P2_12_12_1'
_cell_length_a       8.86085
_cell_length_b       7.63898
_cell_length_c       6.83272
_cell_angle_alpha    90
_cell_angle_beta     90
_cell_angle_gamma    90

_symmetry_Int_Tables_number  19
_chemical_formula_structural  BaH2C2O4
_chemical_formula_sum  Ba4H8C8O6
_cell_volume  462.4917668216205
_cell_formula_units_Z  4
loop_
  _symmetry_equiv_pos_site_id
 _symmetry_equiv_pos_as_xyz
 1  'x, y, z'
loop_
 _atom_site_type_symbol
 _atom_site_label
 _atom_site_symmetry_multiplicity
 _atom_site_fract_x
 _atom_site_fract_y
 _atom_site_fract_z
 _atom_site_fract_occupancy
 Ba  Ba1  1  0.91140  0.53826  0.32771  1
 Ba  Ba2  1  0.58860  0.46174  0.82771  1
 Ba  Ba3  1  0.41140  0.96174  0.67229  1
 Ba  Ba4  1  0.08860  0.03826  0.17229  1
 C  C1  1  0.45903  0.12853  0.17781  1
 C  C2  1  0.54097  0.62853  0.32219  1
 C  C3  1  0.04097  0.87147  0.67781  1
 C  C4  1  0.76481  0.09930  0.50392  1
 C  C5  1  0.73519  0.90070  0.00392  1
 C  C6  1  0.23519  0.59930  -0.00392  1
 C  C7  1  0.26481  0.40070  0.49608  1
 C  C8  1  0.95903  0.37147  0.82219  1
 H  H1  1  0.23828  0.45441  0.01372  1
 H  H2  1  0.76172  0.95441  0.48628  1
 H  H3  1  0.73828  0.04559  0.98628  1
 H  H4  1  0.55329  0.19923  0.24922  1
 H  H5  1  0.94671  0.80077  0.74922  1
 H  H6  1  0.05329  0.30077  0.75078  1
 H  H7  1  0.44671  0.69923  0.25078  1
 H  H8  1  0.26172  0.54559  0.51372  1
 O  O1  1  0.13981  0.68233  0.09758  1
 O  O2  1  0.57827  0.67681  0.49430  1
 O  O3  1  0.92173  0.32319  0.99430  1
 O  O4  1  0.07827  0.82319  0.50570  1
 O  O5  1  0.42173  0.17681  0.00570  1
 O  O6  1  0.60599  0.50769  0.22677  1
 O  O7  1  0.89401  0.49231  0.72677  1
 O  O8  1  0.32952  0.66552  0.87712  1
 O  O9  1  0.82952  0.83448  0.12288  1
 O  O10  1  0.67048  0.16552  0.62288  1
 O  O11  1  0.17048  0.33448  0.37712  1
 O  O12  1  0.63981  0.81767  0.90242  1
 O  O13  1  0.86019  0.18233  0.40242  1
 O  O14  1  0.10599  0.99231  0.77323  1
 O  O15  1  0.39401  0.00769  0.27323  1
 O  O16  1  0.36019  0.31767  0.59758  1
