CIF file written using JARVIS-Tools package.
data_Ca2AlH10ClO8
_symmetry_space_group_name_H-M  'C2/c'
_cell_length_a       10.6587
_cell_length_b       8.51227
_cell_length_c       8.51227
_cell_angle_alpha    42.7384
_cell_angle_beta     97.1127
_cell_angle_gamma    97.1127

_symmetry_Int_Tables_number  15
_chemical_formula_structural  Ca2AlH10ClO8
_chemical_formula_sum  Ca4Al2H20Cl2O6
_cell_volume  519.4808095239489
_cell_formula_units_Z  2
loop_
  _symmetry_equiv_pos_site_id
 _symmetry_equiv_pos_as_xyz
 1  'x, y, z'
loop_
 _atom_site_type_symbol
 _atom_site_label
 _atom_site_symmetry_multiplicity
 _atom_site_fract_x
 _atom_site_fract_y
 _atom_site_fract_z
 _atom_site_fract_occupancy
 Al  Al1  1  0.50000  0.50000  0.50000  1
 Al  Al2  1  0.00000  0.00000  0.00000  1
 Ca  Ca1  1  0.82380  0.50126  0.57818  1
 Ca  Ca2  1  0.67620  0.92182  -0.00126  1
 Ca  Ca3  1  0.17620  0.49874  0.42182  1
 Ca  Ca4  1  0.32380  0.07818  0.00126  1
 Cl  Cl1  1  0.25000  0.67828  0.82172  1
 Cl  Cl2  1  0.75000  0.32172  0.17828  1
 H  H1  1  0.31718  -0.10031  0.47944  1
 H  H2  1  0.18282  0.02056  0.60031  1
 H  H3  1  0.68282  0.10031  0.52056  1
 H  H4  1  0.81718  0.97944  0.39969  1
 H  H5  1  0.00754  0.76140  0.85880  1
 H  H6  1  0.49246  0.64120  0.73860  1
 H  H7  1  0.99246  0.23860  0.14120  1
 H  H8  1  0.11707  0.56720  0.70721  1
 H  H9  1  0.50754  0.35880  0.26140  1
 H  H10  1  0.38494  0.14694  0.30337  1
 H  H11  1  0.38293  0.79279  -0.06720  1
 H  H12  1  0.44255  0.39834  0.24131  1
 H  H13  1  0.05745  0.25869  0.10166  1
 H  H14  1  0.94255  0.74131  0.89834  1
 H  H15  1  0.11506  0.19663  0.35306  1
 H  H16  1  0.55745  0.60166  0.75869  1
 H  H17  1  0.88494  0.80337  0.64694  1
 H  H18  1  0.88293  0.43280  0.29279  1
 H  H19  1  0.61707  0.20721  0.06720  1
 H  H20  1  0.61506  0.85306  0.69663  1
 O  O1  1  0.14998  0.17842  0.47701  1
 O  O2  1  0.06201  0.51312  0.64918  1
 O  O3  1  0.64148  0.60471  0.36672  1
 O  O4  1  0.35852  0.39529  0.63328  1
 O  O5  1  0.14148  0.86672  0.10471  1
 O  O6  1  0.43799  0.85082  -0.01312  1
 O  O7  1  0.85852  0.13328  0.89529  1
 O  O8  1  0.88989  0.73054  0.18877  1
 O  O9  1  0.64998  0.97701  0.67842  1
 O  O10  1  0.11011  0.26946  0.81123  1
 O  O11  1  0.61011  0.31123  0.76946  1
 O  O12  1  0.85002  0.82158  0.52299  1
 O  O13  1  0.38989  0.68877  0.23054  1
 O  O14  1  0.56201  0.14918  0.01312  1
 O  O15  1  0.93799  0.48688  0.35082  1
 O  O16  1  0.35002  0.02299  0.32158  1
