CIF file written using JARVIS-Tools package.
data_PbS
_symmetry_space_group_name_H-M  'P6_3mc'
_cell_length_a       4.12222
_cell_length_b       4.12217
_cell_length_c       7.48106
_cell_angle_alpha    90
_cell_angle_beta     90
_cell_angle_gamma    120

_symmetry_Int_Tables_number  186
_chemical_formula_structural  PbS
_chemical_formula_sum  Pb2S2
_cell_volume  110.09035029853551
_cell_formula_units_Z  2
loop_
  _symmetry_equiv_pos_site_id
 _symmetry_equiv_pos_as_xyz
 1  'x, y, z'
loop_
 _atom_site_type_symbol
 _atom_site_label
 _atom_site_symmetry_multiplicity
 _atom_site_fract_x
 _atom_site_fract_y
 _atom_site_fract_z
 _atom_site_fract_occupancy
 Pb  Pb1  1  -0.00000  -0.00000  0.48058  1
 Pb  Pb2  1  0.00000  0.00000  0.98058  1
 S  S1  1  0.33333  0.66666  0.69862  1
 S  S2  1  0.66667  0.33334  0.19862  1
