CIF file written using JARVIS-Tools package.
data_Ba3Li4Sn8
_symmetry_space_group_name_H-M  'C2/m'
_cell_length_a       6.78064
_cell_length_b       6.85005
_cell_length_c       9.90194
_cell_angle_alpha    98.0828
_cell_angle_beta     110.022
_cell_angle_gamma    90

_symmetry_Int_Tables_number  12
_chemical_formula_structural  Ba3Li4Sn8
_chemical_formula_sum  Ba3Li4Sn8
_cell_volume  427.2582768831382
_cell_formula_units_Z  1
loop_
  _symmetry_equiv_pos_site_id
 _symmetry_equiv_pos_as_xyz
 1  'x, y, z'
loop_
 _atom_site_type_symbol
 _atom_site_label
 _atom_site_symmetry_multiplicity
 _atom_site_fract_x
 _atom_site_fract_y
 _atom_site_fract_z
 _atom_site_fract_occupancy
 Ba  Ba1  1  0.67695  0.31592  0.35390  1
 Ba  Ba2  1  0.00000  0.00000  0.00000  1
 Ba  Ba3  1  0.32305  0.68408  0.64610  1
 Li  Li1  1  0.21303  0.13439  0.42605  1
 Li  Li2  1  0.78697  0.86561  0.57395  1
 Li  Li3  1  0.21581  0.50000  0.00000  1
 Li  Li4  1  0.78419  0.50000  -0.00000  1
 Sn  Sn1  1  0.58591  0.19271  0.69604  1
 Sn  Sn2  1  0.41409  0.80729  0.30396  1
 Sn  Sn3  1  0.11013  0.19271  0.69604  1
 Sn  Sn4  1  0.87160  0.54980  0.74320  1
 Sn  Sn5  1  0.12840  0.45020  0.25680  1
 Sn  Sn6  1  0.51644  0.79675  0.03288  1
 Sn  Sn7  1  0.48356  0.20325  0.96712  1
 Sn  Sn8  1  0.88987  0.80729  0.30396  1
