CIF file written using JARVIS-Tools package.
data_YBrO
_symmetry_space_group_name_H-M  'R-3m'
_cell_length_a       10.1533
_cell_length_b       10.1533
_cell_length_c       10.1533
_cell_angle_alpha    21.7733
_cell_angle_beta     21.7733
_cell_angle_gamma    21.7733

_symmetry_Int_Tables_number  166
_chemical_formula_structural  YBrO
_chemical_formula_sum  Y2Br2O2
_cell_volume  126.22382333605083
_cell_formula_units_Z  2
loop_
  _symmetry_equiv_pos_site_id
 _symmetry_equiv_pos_as_xyz
 1  'x, y, z'
loop_
 _atom_site_type_symbol
 _atom_site_label
 _atom_site_symmetry_multiplicity
 _atom_site_fract_x
 _atom_site_fract_y
 _atom_site_fract_z
 _atom_site_fract_occupancy
 Br  Br1  1  0.11270  0.11270  0.11270  1
 Br  Br2  1  0.88730  0.88730  0.88730  1
 O  O1  1  0.36215  0.36215  0.36215  1
 O  O2  1  0.63785  0.63785  0.63785  1
 Y  Y1  1  0.28531  0.28531  0.28531  1
 Y  Y2  1  0.71469  0.71469  0.71469  1
