CIF file written using JARVIS-Tools package.
data_Nb5As4Pd4
_symmetry_space_group_name_H-M  'I4/m'
_cell_length_a       3.8306
_cell_length_b       7.74333
_cell_length_c       7.74333
_cell_angle_alpha    86.4924
_cell_angle_beta     75.6793
_cell_angle_gamma    75.6794

_symmetry_Int_Tables_number  87
_chemical_formula_structural  Nb5As4Pd4
_chemical_formula_sum  Nb5As4Pd4
_cell_volume  215.6278027357575
_cell_formula_units_Z  1
loop_
  _symmetry_equiv_pos_site_id
 _symmetry_equiv_pos_as_xyz
 1  'x, y, z'
loop_
 _atom_site_type_symbol
 _atom_site_label
 _atom_site_symmetry_multiplicity
 _atom_site_fract_x
 _atom_site_fract_y
 _atom_site_fract_z
 _atom_site_fract_occupancy
 As  As1  1  0.93224  0.82393  0.31159  1
 As  As2  1  0.06776  0.17607  0.68841  1
 As  As3  1  0.24383  0.68841  0.82393  1
 As  As4  1  0.75617  0.31159  0.17607  1
 Nb  Nb1  1  0.38288  0.30571  0.92853  1
 Nb  Nb2  1  0.61712  0.69429  0.07147  1
 Nb  Nb3  1  0.00000  0.00000  0.00000  1
 Nb  Nb4  1  0.68859  0.92853  0.69429  1
 Nb  Nb5  1  0.31141  0.07147  0.30571  1
 Pd  Pd1  1  0.59615  0.29335  0.51434  1
 Pd  Pd2  1  0.11050  0.48566  0.29335  1
 Pd  Pd3  1  0.40385  0.70665  0.48566  1
 Pd  Pd4  1  0.88950  0.51434  0.70665  1
