CIF file written using JARVIS-Tools package.
data_NdAl2Ga2
_symmetry_space_group_name_H-M  'I4/mmm'
_cell_length_a       4.21198
_cell_length_b       4.21197
_cell_length_c       6.36348
_cell_angle_alpha    109.341
_cell_angle_beta     109.341
_cell_angle_gamma    89.9992

_symmetry_Int_Tables_number  139
_chemical_formula_structural  NdAl2Ga2
_chemical_formula_sum  NdAl2Ga2
_cell_volume  99.74470156306079
_cell_formula_units_Z  1
loop_
  _symmetry_equiv_pos_site_id
 _symmetry_equiv_pos_as_xyz
 1  'x, y, z'
loop_
 _atom_site_type_symbol
 _atom_site_label
 _atom_site_symmetry_multiplicity
 _atom_site_fract_x
 _atom_site_fract_y
 _atom_site_fract_z
 _atom_site_fract_occupancy
 Al  Al1  1  0.25008  0.74992  0.50000  1
 Al  Al2  1  0.74992  0.25008  0.50000  1
 Ga  Ga1  1  0.61155  0.61155  0.22305  1
 Ga  Ga2  1  0.38845  0.38845  0.77695  1
 Nd  Nd1  1  0.00000  0.00000  0.00000  1
