CIF file written using JARVIS-Tools package.
data_BaH4O6
_symmetry_space_group_name_H-M  'C2'
_cell_length_a       6.14037
_cell_length_b       6.14037
_cell_length_c       6.48968
_cell_angle_alpha    85.6699
_cell_angle_beta     94.3301
_cell_angle_gamma    77.6334

_symmetry_Int_Tables_number  5
_chemical_formula_structural  BaH4O6
_chemical_formula_sum  Ba2H8O2
_cell_volume  237.26995587151734
_cell_formula_units_Z  2
loop_
  _symmetry_equiv_pos_site_id
 _symmetry_equiv_pos_as_xyz
 1  'x, y, z'
loop_
 _atom_site_type_symbol
 _atom_site_label
 _atom_site_symmetry_multiplicity
 _atom_site_fract_x
 _atom_site_fract_y
 _atom_site_fract_z
 _atom_site_fract_occupancy
 Ba  Ba1  1  0.81067  0.81067  0.75000  1
 Ba  Ba2  1  0.17242  0.17242  0.25000  1
 H  H1  1  0.40564  0.43456  -0.04973  1
 H  H2  1  0.34909  0.66459  0.04250  1
 H  H3  1  0.43456  0.40564  0.54973  1
 H  H4  1  0.66459  0.34909  0.45750  1
 H  H5  1  0.02389  0.32848  0.69424  1
 H  H6  1  0.32848  0.02389  0.80576  1
 H  H7  1  0.95233  0.66401  0.29207  1
 H  H8  1  0.66401  0.95233  0.20793  1
 O  O1  1  0.88101  0.49495  0.43007  1
 O  O2  1  0.80693  0.97403  0.29717  1
 O  O3  1  0.91209  0.21240  0.86407  1
 O  O4  1  0.21240  0.91209  0.63593  1
 O  O5  1  0.97403  0.80693  0.20283  1
 O  O6  1  0.43158  0.07957  0.91112  1
 O  O7  1  0.77850  0.38987  0.93963  1
 O  O8  1  0.38987  0.77850  0.56037  1
 O  O9  1  0.07957  0.43158  0.58888  1
 O  O10  1  0.28403  0.53418  0.00963  1
 O  O11  1  0.53418  0.28403  0.49037  1
 O  O12  1  0.49495  0.88101  0.06993  1
