CIF file written using JARVIS-Tools package.
data_TlNO2
_symmetry_space_group_name_H-M  'C2'
_cell_length_a       3.4624
_cell_length_b       4.46357
_cell_length_c       4.46403
_cell_angle_alpha    79.5496
_cell_angle_beta     87.5604
_cell_angle_gamma    87.5961

_symmetry_Int_Tables_number  5
_chemical_formula_structural  TlNO2
_chemical_formula_sum  TlNO2
_cell_volume  67.7430267181697
_cell_formula_units_Z  1
loop_
  _symmetry_equiv_pos_site_id
 _symmetry_equiv_pos_as_xyz
 1  'x, y, z'
loop_
 _atom_site_type_symbol
 _atom_site_label
 _atom_site_symmetry_multiplicity
 _atom_site_fract_x
 _atom_site_fract_y
 _atom_site_fract_z
 _atom_site_fract_occupancy
 N  N1  1  0.49987  0.43429  0.56571  1
 O  O1  1  0.45007  0.40218  0.29317  1
 O  O2  1  0.54989  0.70682  0.59787  1
 Tl  Tl1  1  0.00017  0.95671  0.04325  1
