CIF file written using JARVIS-Tools package.
data_NaGe2P3O12
_symmetry_space_group_name_H-M  'R-3'
_cell_length_a       8.6265
_cell_length_b       8.6265
_cell_length_c       8.6265
_cell_angle_alpha    56.1273
_cell_angle_beta     56.1273
_cell_angle_gamma    56.1273

_symmetry_Int_Tables_number  148
_chemical_formula_structural  NaGe2P3O12
_chemical_formula_sum  Na2Ge4P6O24
_cell_volume  413.2274855372252
_cell_formula_units_Z  2
loop_
  _symmetry_equiv_pos_site_id
 _symmetry_equiv_pos_as_xyz
 1  'x, y, z'
loop_
 _atom_site_type_symbol
 _atom_site_label
 _atom_site_symmetry_multiplicity
 _atom_site_fract_x
 _atom_site_fract_y
 _atom_site_fract_z
 _atom_site_fract_occupancy
 Ge  Ge1  1  0.35183  0.35183  0.35183  1
 Ge  Ge2  1  0.64817  0.64817  0.64817  1
 Ge  Ge3  1  0.14339  0.14339  0.14339  1
 Ge  Ge4  1  0.85661  0.85661  0.85661  1
 Na  Na1  1  0.00000  0.00000  0.00000  1
 Na  Na2  1  0.50000  0.50000  0.50000  1
 O  O1  1  0.88386  0.10507  0.74800  1
 O  O2  1  0.80647  0.46389  0.51255  1
 O  O3  1  0.74800  0.88386  0.10507  1
 O  O4  1  0.11614  0.89493  0.25200  1
 O  O5  1  0.89493  0.25200  0.11614  1
 O  O6  1  0.25200  0.11614  0.89493  1
 O  O7  1  0.51255  0.80647  0.46389  1
 O  O8  1  0.46389  0.51255  0.80647  1
 O  O9  1  0.77547  0.47594  0.83659  1
 O  O10  1  0.19353  0.53611  0.48745  1
 O  O11  1  0.53611  0.48745  0.19353  1
 O  O12  1  0.48745  0.19353  0.53611  1
 O  O13  1  0.19818  0.37882  0.99014  1
 O  O14  1  0.83659  0.77547  0.47594  1
 O  O15  1  0.16341  0.22453  0.52406  1
 O  O16  1  0.22453  0.52406  0.16341  1
 O  O17  1  0.10507  0.74800  0.88386  1
 O  O18  1  0.62118  0.00986  0.80182  1
 O  O19  1  0.80182  0.62118  0.00986  1
 O  O20  1  0.00986  0.80182  0.62118  1
 O  O21  1  0.37882  0.99014  0.19818  1
 O  O22  1  0.47594  0.83659  0.77547  1
 O  O23  1  0.52406  0.16341  0.22453  1
 O  O24  1  0.99014  0.19818  0.37882  1
 P  P1  1  0.03491  0.75074  0.46276  1
 P  P2  1  0.46276  0.03491  0.75074  1
 P  P3  1  0.75074  0.46276  0.03491  1
 P  P4  1  0.96509  0.24926  0.53724  1
 P  P5  1  0.53724  0.96509  0.24926  1
 P  P6  1  0.24926  0.53724  0.96509  1
