CIF file written using JARVIS-Tools package.
data_KPSe6
_symmetry_space_group_name_H-M  'Pca2_1'
_cell_length_a       6.78945
_cell_length_b       11.1891
_cell_length_c       11.7507
_cell_angle_alpha    90
_cell_angle_beta     90
_cell_angle_gamma    90

_symmetry_Int_Tables_number  29
_chemical_formula_structural  KPSe6
_chemical_formula_sum  K4P4Se24
_cell_volume  892.6718619897445
_cell_formula_units_Z  4
loop_
  _symmetry_equiv_pos_site_id
 _symmetry_equiv_pos_as_xyz
 1  'x, y, z'
loop_
 _atom_site_type_symbol
 _atom_site_label
 _atom_site_symmetry_multiplicity
 _atom_site_fract_x
 _atom_site_fract_y
 _atom_site_fract_z
 _atom_site_fract_occupancy
 K  K1  1  0.82190  0.35354  0.86841  1
 K  K2  1  0.17810  0.85354  0.13159  1
 K  K3  1  0.17810  0.35354  0.36841  1
 K  K4  1  0.82190  0.85354  0.63159  1
 P  P1  1  0.23261  0.65771  0.82311  1
 P  P2  1  0.76739  0.15771  0.17689  1
 P  P3  1  0.76739  0.65771  0.32311  1
 P  P4  1  0.23261  0.15771  0.67689  1
 Se  Se1  1  0.55956  0.30411  0.13827  1
 Se  Se2  1  0.66325  0.47808  0.40760  1
 Se  Se3  1  0.06234  0.45527  0.62365  1
 Se  Se4  1  0.06234  0.95527  0.87635  1
 Se  Se5  1  0.08384  0.18666  0.13662  1
 Se  Se6  1  0.91616  0.18666  0.63662  1
 Se  Se7  1  0.08384  0.68666  0.36338  1
 Se  Se8  1  0.44044  0.80411  0.86173  1
 Se  Se9  1  0.91616  0.68666  0.86338  1
 Se  Se10  1  0.93766  0.45527  0.12365  1
 Se  Se11  1  0.93766  0.95527  0.37635  1
 Se  Se12  1  0.73928  0.63707  0.12991  1
 Se  Se13  1  0.26772  0.04327  0.40049  1
 Se  Se14  1  0.66325  0.97808  0.09240  1
 Se  Se15  1  0.44044  0.30411  0.63827  1
 Se  Se16  1  0.73228  0.04327  0.90049  1
 Se  Se17  1  0.26772  0.54327  0.09951  1
 Se  Se18  1  0.33675  0.47808  0.90760  1
 Se  Se19  1  0.73228  0.54327  0.59951  1
 Se  Se20  1  0.73928  0.13707  0.37009  1
 Se  Se21  1  0.26072  0.63707  0.62991  1
 Se  Se22  1  0.26072  0.13707  0.87009  1
 Se  Se23  1  0.55956  0.80411  0.36173  1
 Se  Se24  1  0.33675  0.97808  0.59240  1
