CIF file written using JARVIS-Tools package.
data_Sr3Fe2O7
_symmetry_space_group_name_H-M  'I4/mmm'
_cell_length_a       3.82699
_cell_length_b       3.827
_cell_length_c       10.38
_cell_angle_alpha    100.623
_cell_angle_beta     100.623
_cell_angle_gamma    90

_symmetry_Int_Tables_number  139
_chemical_formula_structural  Sr3Fe2O7
_chemical_formula_sum  Sr3Fe2O7
_cell_volume  146.7669596812683
_cell_formula_units_Z  1
loop_
  _symmetry_equiv_pos_site_id
 _symmetry_equiv_pos_as_xyz
 1  'x, y, z'
loop_
 _atom_site_type_symbol
 _atom_site_label
 _atom_site_symmetry_multiplicity
 _atom_site_fract_x
 _atom_site_fract_y
 _atom_site_fract_z
 _atom_site_fract_occupancy
 Fe  Fe1  1  0.90416  0.90416  0.80833  1
 Fe  Fe2  1  0.09584  0.09584  0.19167  1
 O  O1  1  0.00000  0.00000  0.00000  1
 O  O2  1  0.80783  0.80783  0.61565  1
 O  O3  1  0.19217  0.19217  0.38435  1
 O  O4  1  0.90485  0.40485  0.80970  1
 O  O5  1  0.40485  0.90485  0.80970  1
 O  O6  1  0.59515  0.09515  0.19030  1
 O  O7  1  0.09515  0.59515  0.19030  1
 Sr  Sr1  1  0.68283  0.68283  0.36566  1
 Sr  Sr2  1  0.31717  0.31717  0.63435  1
 Sr  Sr3  1  0.50000  0.50000  0.00000  1
