CIF file written using JARVIS-Tools package.
data_SmInNi
_symmetry_space_group_name_H-M  'P-62m'
_cell_length_a       3.87838
_cell_length_b       7.49464
_cell_length_c       7.49472
_cell_angle_alpha    120
_cell_angle_beta     90
_cell_angle_gamma    90

_symmetry_Int_Tables_number  189
_chemical_formula_structural  SmInNi
_chemical_formula_sum  Sm3In3Ni3
_cell_volume  188.66412561885764
_cell_formula_units_Z  3
loop_
  _symmetry_equiv_pos_site_id
 _symmetry_equiv_pos_as_xyz
 1  'x, y, z'
loop_
 _atom_site_type_symbol
 _atom_site_label
 _atom_site_symmetry_multiplicity
 _atom_site_fract_x
 _atom_site_fract_y
 _atom_site_fract_z
 _atom_site_fract_occupancy
 In  In1  1  0.00000  0.25118  -0.00000  1
 In  In2  1  0.00000  0.74880  0.74882  1
 In  In3  1  0.00000  0.99998  0.25118  1
 Ni  Ni1  1  0.00000  0.33332  0.66667  1
 Ni  Ni2  1  0.00000  0.66665  0.33333  1
 Ni  Ni3  1  0.50000  -0.00000  0.00000  1
 Sm  Sm1  1  0.50000  0.58791  -0.00000  1
 Sm  Sm2  1  0.50000  0.41207  0.41209  1
 Sm  Sm3  1  0.50000  0.99998  0.58791  1
