CIF file written using JARVIS-Tools package.
data_SrHfMg6
_symmetry_space_group_name_H-M  'P-6m2'
_cell_length_a       6.63676
_cell_length_b       6.63676
_cell_length_c       5.17231
_cell_angle_alpha    90
_cell_angle_beta     90
_cell_angle_gamma    119.998

_symmetry_Int_Tables_number  187
_chemical_formula_structural  SrHfMg6
_chemical_formula_sum  SrHfMg6
_cell_volume  197.30424852900035
_cell_formula_units_Z  1
loop_
  _symmetry_equiv_pos_site_id
 _symmetry_equiv_pos_as_xyz
 1  'x, y, z'
loop_
 _atom_site_type_symbol
 _atom_site_label
 _atom_site_symmetry_multiplicity
 _atom_site_fract_x
 _atom_site_fract_y
 _atom_site_fract_z
 _atom_site_fract_occupancy
 Hf  Hf1  1  0.41666  0.08334  0.75000  1
 Mg  Mg1  1  0.09734  0.92370  0.25000  1
 Mg  Mg2  1  0.57630  0.40266  0.25000  1
 Mg  Mg3  1  0.57634  0.92366  0.25000  1
 Mg  Mg4  1  0.43524  0.59260  0.75000  1
 Mg  Mg5  1  0.90740  0.06476  0.75000  1
 Mg  Mg6  1  0.90739  0.59261  0.75000  1
 Sr  Sr1  1  0.08333  0.41667  0.25000  1
