CIF file written using JARVIS-Tools package.
data_CaZr4P6O24
_symmetry_space_group_name_H-M  'R-3'
_cell_length_a       9.13682
_cell_length_b       9.13683
_cell_length_c       9.13682
_cell_angle_alpha    57.9889
_cell_angle_beta     57.9889
_cell_angle_gamma    57.9889

_symmetry_Int_Tables_number  148
_chemical_formula_structural  CaZr4P6O24
_chemical_formula_sum  CaZr4P6O24
_cell_volume  514.467477636959
_cell_formula_units_Z  1
loop_
  _symmetry_equiv_pos_site_id
 _symmetry_equiv_pos_as_xyz
 1  'x, y, z'
loop_
 _atom_site_type_symbol
 _atom_site_label
 _atom_site_symmetry_multiplicity
 _atom_site_fract_x
 _atom_site_fract_y
 _atom_site_fract_z
 _atom_site_fract_occupancy
 Ca  Ca1  1  0.50000  0.50000  0.50000  1
 O  O1  1  0.64366  0.01798  0.75837  1
 O  O2  1  0.68419  0.50939  0.89427  1
 O  O3  1  0.23758  0.59163  0.42262  1
 O  O4  1  0.49061  0.10573  0.31581  1
 O  O5  1  0.50939  0.89427  0.68419  1
 O  O6  1  0.92305  0.30739  0.04136  1
 O  O7  1  0.76242  0.40837  0.57738  1
 O  O8  1  0.24163  0.35634  0.98202  1
 O  O9  1  0.07695  0.69261  0.95864  1
 O  O10  1  0.04136  0.92305  0.30739  1
 O  O11  1  0.69261  0.95864  0.07695  1
 O  O12  1  0.40837  0.57738  0.76242  1
 O  O13  1  0.42262  0.23758  0.59163  1
 O  O14  1  0.10573  0.31581  0.49061  1
 O  O15  1  0.31581  0.49061  0.10573  1
 O  O16  1  0.30739  0.04136  0.92305  1
 O  O17  1  0.75837  0.64366  0.01798  1
 O  O18  1  0.89427  0.68419  0.50939  1
 O  O19  1  0.35634  0.98202  0.24163  1
 O  O20  1  0.95864  0.07695  0.69261  1
 O  O21  1  0.57738  0.76242  0.40837  1
 O  O22  1  0.59163  0.42262  0.23758  1
 O  O23  1  0.01798  0.75837  0.64366  1
 O  O24  1  0.98202  0.24163  0.35634  1
 P  P1  1  0.25777  0.52857  0.95437  1
 P  P2  1  0.47143  0.04563  0.74223  1
 P  P3  1  0.04563  0.74223  0.47143  1
 P  P4  1  0.74223  0.47143  0.04563  1
 P  P5  1  0.52857  0.95437  0.25777  1
 P  P6  1  0.95437  0.25777  0.52857  1
 Zr  Zr1  1  0.13869  0.13869  0.13869  1
 Zr  Zr2  1  0.64804  0.64804  0.64804  1
 Zr  Zr3  1  0.86131  0.86131  0.86131  1
 Zr  Zr4  1  0.35196  0.35196  0.35196  1
