CIF file written using JARVIS-Tools package.
data_SmGePt
_symmetry_space_group_name_H-M  'Pmmn'
_cell_length_a       4.45012
_cell_length_b       7.65928
_cell_length_c       14.3854
_cell_angle_alpha    90
_cell_angle_beta     90
_cell_angle_gamma    90

_symmetry_Int_Tables_number  59
_chemical_formula_structural  SmGePt
_chemical_formula_sum  Sm8Ge8Pt8
_cell_volume  490.3227151350724
_cell_formula_units_Z  8
loop_
  _symmetry_equiv_pos_site_id
 _symmetry_equiv_pos_as_xyz
 1  'x, y, z'
loop_
 _atom_site_type_symbol
 _atom_site_label
 _atom_site_symmetry_multiplicity
 _atom_site_fract_x
 _atom_site_fract_y
 _atom_site_fract_z
 _atom_site_fract_occupancy
 Ge  Ge1  1  0.75000  0.58993  0.60200  1
 Ge  Ge2  1  0.75000  0.91107  0.15452  1
 Ge  Ge3  1  0.25000  0.08893  0.65452  1
 Ge  Ge4  1  0.75000  0.91107  0.34548  1
 Ge  Ge5  1  0.25000  0.41007  0.39800  1
 Ge  Ge6  1  0.25000  0.08893  0.84548  1
 Ge  Ge7  1  0.25000  0.41007  0.10200  1
 Ge  Ge8  1  0.75000  0.58993  0.89800  1
 Pt  Pt1  1  0.75000  0.92109  0.85933  1
 Pt  Pt2  1  0.25000  0.07891  0.14067  1
 Pt  Pt3  1  0.75000  0.92109  0.64067  1
 Pt  Pt4  1  0.75000  0.58277  0.40092  1
 Pt  Pt5  1  0.25000  0.41723  0.59908  1
 Pt  Pt6  1  0.25000  0.41723  0.90092  1
 Pt  Pt7  1  0.25000  0.07891  0.35933  1
 Pt  Pt8  1  0.75000  0.58277  0.09908  1
 Sm  Sm1  1  0.25000  0.70452  0.25000  1
 Sm  Sm2  1  0.75000  0.29548  0.75000  1
 Sm  Sm3  1  0.25000  0.70743  0.75000  1
 Sm  Sm4  1  0.75000  0.29257  0.25000  1
 Sm  Sm5  1  0.25000  0.78995  0.49803  1
 Sm  Sm6  1  0.75000  0.21005  0.50197  1
 Sm  Sm7  1  0.25000  0.78995  0.00197  1
 Sm  Sm8  1  0.75000  0.21005  0.99803  1
