CIF file written using JARVIS-Tools package.
data_PuTaC2
_symmetry_space_group_name_H-M  'R-3m'
_cell_length_a       5.93581
_cell_length_b       5.93581
_cell_length_c       5.93581
_cell_angle_alpha    32.053
_cell_angle_beta     32.053
_cell_angle_gamma    32.053

_symmetry_Int_Tables_number  166
_chemical_formula_structural  PuTaC2
_chemical_formula_sum  PuTaC2
_cell_volume  52.34015046588437
_cell_formula_units_Z  1
loop_
  _symmetry_equiv_pos_site_id
 _symmetry_equiv_pos_as_xyz
 1  'x, y, z'
loop_
 _atom_site_type_symbol
 _atom_site_label
 _atom_site_symmetry_multiplicity
 _atom_site_fract_x
 _atom_site_fract_y
 _atom_site_fract_z
 _atom_site_fract_occupancy
 C  C1  1  0.24074  0.24074  0.24074  1
 C  C2  1  0.75926  0.75926  0.75926  1
 Pu  Pu1  1  0.00000  0.00000  0.00000  1
 Ta  Ta1  1  0.50000  0.50000  0.50000  1
