CIF file written using JARVIS-Tools package.
data_Sm2Co7B3
_symmetry_space_group_name_H-M  'P6/mmm'
_cell_length_a       5.06138
_cell_length_b       5.06138
_cell_length_c       12.7788
_cell_angle_alpha    90
_cell_angle_beta     90
_cell_angle_gamma    120

_symmetry_Int_Tables_number  191
_chemical_formula_structural  Sm2Co7B3
_chemical_formula_sum  Sm4Co4B6
_cell_volume  283.5041510070115
_cell_formula_units_Z  2
loop_
  _symmetry_equiv_pos_site_id
 _symmetry_equiv_pos_as_xyz
 1  'x, y, z'
loop_
 _atom_site_type_symbol
 _atom_site_label
 _atom_site_symmetry_multiplicity
 _atom_site_fract_x
 _atom_site_fract_y
 _atom_site_fract_z
 _atom_site_fract_occupancy
 B  B1  1  0.33333  0.66667  0.73235  1
 B  B2  1  0.33333  0.66667  0.26765  1
 B  B3  1  0.66667  0.33333  0.50000  1
 B  B4  1  0.33333  0.66667  0.50000  1
 B  B5  1  0.66667  0.33333  0.73235  1
 B  B6  1  0.66667  0.33333  0.26765  1
 Co  Co1  1  0.50000  0.50000  0.84553  1
 Co  Co2  1  0.33333  0.66667  0.00000  1
 Co  Co3  1  0.66667  0.33333  0.00000  1
 Co  Co4  1  0.50000  0.00000  0.15447  1
 Co  Co5  1  0.50000  0.50000  0.15447  1
 Co  Co6  1  0.00000  0.50000  0.15447  1
 Co  Co7  1  0.50000  0.00000  0.84553  1
 Co  Co8  1  0.50000  0.00000  0.38413  1
 Co  Co9  1  0.50000  0.50000  0.38413  1
 Co  Co10  1  0.00000  0.50000  0.38413  1
 Co  Co11  1  0.50000  0.00000  0.61587  1
 Co  Co12  1  0.50000  0.50000  0.61587  1
 Co  Co13  1  0.00000  0.50000  0.61587  1
 Co  Co14  1  0.00000  0.50000  0.84553  1
 Sm  Sm1  1  0.00000  0.00000  0.73989  1
 Sm  Sm2  1  0.00000  0.00000  0.26011  1
 Sm  Sm3  1  0.00000  0.00000  0.50000  1
 Sm  Sm4  1  0.00000  0.00000  0.00000  1
