data_image0
_chemical_formula_structural       Fe8N
_chemical_formula_sum              "Fe8 N1"
_cell_length_a       5.07418
_cell_length_b       5.07418
_cell_length_c       5.07418
_cell_angle_alpha    104.323
_cell_angle_beta     112.105
_cell_angle_gamma    112.105

_space_group_name_H-M_alt    "P 1"
_space_group_IT_number       1

loop_
  _space_group_symop_operation_xyz
  'x, y, z'

loop_
  _atom_site_type_symbol
  _atom_site_label
  _atom_site_symmetry_multiplicity
  _atom_site_fract_x
  _atom_site_fract_y
  _atom_site_fract_z
  _atom_site_occupancy
  Fe  Fe1       1.0  0.48700  0.24300  0.24300  1.0000
  Fe  Fe2       1.0  0.00000  0.75700  0.24300  1.0000
  Fe  Fe3       1.0  0.50000  0.75000  0.25000  1.0000
  Fe  Fe4       1.0  0.00000  0.29400  0.29400  1.0000
  Fe  Fe5       1.0  0.00000  0.70600  0.70600  1.0000
  Fe  Fe6       1.0  0.50000  0.25000  0.75000  1.0000
  Fe  Fe7       1.0  0.00000  0.24300  0.75700  1.0000
  Fe  Fe8       1.0  0.51300  0.75700  0.75700  1.0000
  N   N1        1.0  0.00000  0.00000  0.00000  1.0000
