CIF file written using JARVIS-Tools package.
data_Mn3O2F4
_symmetry_space_group_name_H-M  'P1'
_cell_length_a       5.63518
_cell_length_b       5.71354
_cell_length_c       7.19219
_cell_angle_alpha    74.2534
_cell_angle_beta     74.331
_cell_angle_gamma    73.6754

_symmetry_Int_Tables_number  1
_chemical_formula_structural  Mn3O2F4
_chemical_formula_sum  Mn6O4F8
_cell_volume  209.1295304966917
_cell_formula_units_Z  2
loop_
  _symmetry_equiv_pos_site_id
 _symmetry_equiv_pos_as_xyz
 1  'x, y, z'
loop_
 _atom_site_type_symbol
 _atom_site_label
 _atom_site_symmetry_multiplicity
 _atom_site_fract_x
 _atom_site_fract_y
 _atom_site_fract_z
 _atom_site_fract_occupancy
 F  F1  1  0.66435  0.29749  0.01349  1
 F  F2  1  0.91741  0.88905  0.30199  1
 F  F3  1  0.40982  0.42066  0.36999  1
 F  F4  1  0.09823  0.13268  0.69451  1
 F  F5  1  0.04166  0.66921  0.66207  1
 F  F6  1  0.38671  0.94279  0.33700  1
 F  F7  1  0.30647  0.70563  0.98919  1
 F  F8  1  0.63305  0.02955  0.66809  1
 Mn  Mn1  1  0.29330  0.33212  0.16110  1
 Mn  Mn2  1  0.98745  -0.00085  0.99970  1
 Mn  Mn3  1  0.00271  0.02357  0.49381  1
 Mn  Mn4  1  0.67848  0.66319  0.83445  1
 Mn  Mn5  1  0.34979  0.35401  0.68603  1
 Mn  Mn6  1  0.68639  0.63959  0.32959  1
 O  O1  1  0.20939  0.23433  0.96628  1
 O  O2  1  0.96795  0.34948  0.32718  1
 O  O3  1  0.59103  0.55861  0.62699  1
 O  O4  1  0.77583  0.75889  0.03855  1
