CIF file written using JARVIS-Tools package.
data_Co3OF5
_symmetry_space_group_name_H-M  'Pmn2_1'
_cell_length_a       4.69941
_cell_length_b       4.70438
_cell_length_c       9.10225
_cell_angle_alpha    90
_cell_angle_beta     90
_cell_angle_gamma    90

_symmetry_Int_Tables_number  31
_chemical_formula_structural  Co3OF5
_chemical_formula_sum  Co6O2F0
_cell_volume  201.2305961448008
_cell_formula_units_Z  2
loop_
  _symmetry_equiv_pos_site_id
 _symmetry_equiv_pos_as_xyz
 1  'x, y, z'
loop_
 _atom_site_type_symbol
 _atom_site_label
 _atom_site_symmetry_multiplicity
 _atom_site_fract_x
 _atom_site_fract_y
 _atom_site_fract_z
 _atom_site_fract_occupancy
 Co  Co1  1  0.77962  0.02121  0.00000  1
 Co  Co2  1  0.75192  0.98963  0.34738  1
 Co  Co3  1  0.75192  0.98963  0.65262  1
 Co  Co4  1  0.24808  0.48963  0.15262  1
 Co  Co5  1  0.24808  0.48963  0.84738  1
 Co  Co6  1  0.22038  0.52121  0.50000  1
 F  F1  1  0.55958  0.19334  0.82820  1
 F  F2  1  0.95552  0.80178  0.83065  1
 F  F3  1  0.04448  0.30178  0.33065  1
 F  F4  1  0.95552  0.80178  0.16935  1
 F  F5  1  0.44042  0.69334  0.67180  1
 F  F6  1  0.55958  0.19334  0.17180  1
 F  F7  1  0.44042  0.69334  0.32820  1
 F  F8  1  0.04448  0.30178  0.66935  1
 F  F9  1  0.47719  0.71442  0.00000  1
 F  F10  1  0.52281  0.21442  0.50000  1
 O  O1  1  0.05389  0.29485  0.00000  1
 O  O2  1  0.94611  0.79485  0.50000  1
