CIF file written using JARVIS-Tools package.
data_KHfO3
_symmetry_space_group_name_H-M  'Pm-3m'
_cell_length_a       4.16158
_cell_length_b       4.16139
_cell_length_c       4.16144
_cell_angle_alpha    90.0004
_cell_angle_beta     89.9984
_cell_angle_gamma    89.9996

_symmetry_Int_Tables_number  221
_chemical_formula_structural  KHfO3
_chemical_formula_sum  KHfO3
_cell_volume  72.06774936627168
_cell_formula_units_Z  1
loop_
  _symmetry_equiv_pos_site_id
 _symmetry_equiv_pos_as_xyz
 1  'x, y, z'
loop_
 _atom_site_type_symbol
 _atom_site_label
 _atom_site_symmetry_multiplicity
 _atom_site_fract_x
 _atom_site_fract_y
 _atom_site_fract_z
 _atom_site_fract_occupancy
 Hf  Hf1  1  0.48799  0.50000  0.49800  1
 K  K1  1  0.98796  0.00001  0.99802  1
 O  O1  1  0.48801  -0.00000  0.49797  1
 O  O2  1  0.98801  0.50001  0.49801  1
 O  O3  1  0.48803  0.49998  0.99799  1
