CIF file written using JARVIS-Tools package.
data_Ce2Si2O7
_symmetry_space_group_name_H-M  'P2_1/c'
_cell_length_a       5.44484
_cell_length_b       8.72673
_cell_length_c       13.065
_cell_angle_alpha    90
_cell_angle_beta     90.1494
_cell_angle_gamma    90

_symmetry_Int_Tables_number  14
_chemical_formula_structural  Ce2Si2O7
_chemical_formula_sum  Ce8Si8O28
_cell_volume  620.7903359596945
_cell_formula_units_Z  4
loop_
  _symmetry_equiv_pos_site_id
 _symmetry_equiv_pos_as_xyz
 1  'x, y, z'
loop_
 _atom_site_type_symbol
 _atom_site_label
 _atom_site_symmetry_multiplicity
 _atom_site_fract_x
 _atom_site_fract_y
 _atom_site_fract_z
 _atom_site_fract_occupancy
 Ce  Ce1  1  0.74011  0.89713  0.09015  1
 Ce  Ce2  1  0.24844  0.69474  0.26990  1
 Ce  Ce3  1  0.24011  0.60287  0.59015  1
 Ce  Ce4  1  0.75156  0.30526  0.73010  1
 Ce  Ce5  1  0.25989  0.10287  0.90985  1
 Ce  Ce6  1  0.75989  0.39713  0.40985  1
 Ce  Ce7  1  0.25156  0.19474  0.23010  1
 Ce  Ce8  1  0.74844  0.80526  0.76990  1
 O  O1  1  0.14576  0.32195  0.82803  1
 O  O2  1  0.49307  0.85230  0.92085  1
 O  O3  1  0.49718  0.08223  0.73995  1
 O  O4  1  0.85424  0.67805  0.17197  1
 O  O5  1  0.66070  0.23953  0.90345  1
 O  O6  1  0.99718  0.41777  0.23995  1
 O  O7  1  0.26725  0.57236  0.93721  1
 O  O8  1  0.33930  0.76047  0.09655  1
 O  O9  1  0.50693  0.14770  0.07915  1
 O  O10  1  0.01663  0.84261  0.94605  1
 O  O11  1  0.52256  0.47639  0.24758  1
 O  O12  1  0.99307  0.64770  0.42085  1
 O  O13  1  0.00693  0.35230  0.57915  1
 O  O14  1  0.00282  0.58223  0.76005  1
 O  O15  1  0.23275  0.07236  0.56279  1
 O  O16  1  0.97744  0.97639  0.25242  1
 O  O17  1  0.50282  0.91777  0.26005  1
 O  O18  1  0.64576  0.17805  0.32803  1
 O  O19  1  0.16070  0.26047  0.40345  1
 O  O20  1  0.35424  0.82195  0.67197  1
 O  O21  1  0.47744  0.52361  0.75242  1
 O  O22  1  0.98337  0.15739  0.05395  1
 O  O23  1  0.48337  0.34261  0.55395  1
 O  O24  1  0.02256  0.02361  0.74758  1
 O  O25  1  0.83930  0.73953  0.59655  1
 O  O26  1  0.51663  0.65739  0.44605  1
 O  O27  1  0.73275  0.42764  0.06279  1
 O  O28  1  0.76725  0.92764  0.43721  1
 Si  Si1  1  0.77117  0.49951  0.17757  1
 Si  Si2  1  0.22943  0.25043  0.52413  1
 Si  Si3  1  0.27117  0.00049  0.67757  1
 Si  Si4  1  0.77057  0.74957  0.47587  1
 Si  Si5  1  0.72883  0.99951  0.32243  1
 Si  Si6  1  0.22883  0.50049  0.82243  1
 Si  Si7  1  0.72943  0.24957  0.02413  1
 Si  Si8  1  0.27057  0.75043  0.97587  1
