CIF file written using JARVIS-Tools package.
data_V6O7F5
_symmetry_space_group_name_H-M  'Pm'
_cell_length_a       4.65727
_cell_length_b       9.02097
_cell_length_c       4.64978
_cell_angle_alpha    90
_cell_angle_beta     92.5531
_cell_angle_gamma    90

_symmetry_Int_Tables_number  6
_chemical_formula_structural  V6O7F5
_chemical_formula_sum  V6O7F5
_cell_volume  195.15792613123483
_cell_formula_units_Z  1
loop_
  _symmetry_equiv_pos_site_id
 _symmetry_equiv_pos_as_xyz
 1  'x, y, z'
loop_
 _atom_site_type_symbol
 _atom_site_label
 _atom_site_symmetry_multiplicity
 _atom_site_fract_x
 _atom_site_fract_y
 _atom_site_fract_z
 _atom_site_fract_occupancy
 F  F1  1  0.19924  0.33599  0.79745  1
 F  F2  1  0.29886  0.50000  0.28796  1
 F  F3  1  0.80066  0.00000  0.20346  1
 F  F4  1  0.19924  0.66401  0.79745  1
 F  F5  1  0.20126  0.00000  0.80902  1
 O  O1  1  0.70890  0.16384  0.70466  1
 O  O2  1  0.80011  0.33441  0.19674  1
 O  O3  1  0.80011  0.66559  0.19674  1
 O  O4  1  0.70890  0.83616  0.70466  1
 O  O5  1  0.68426  0.50000  0.68440  1
 O  O6  1  0.30004  0.16497  0.30164  1
 O  O7  1  0.30004  0.83503  0.30164  1
 V  V1  1  0.53115  0.31993  0.49127  1
 V  V2  1  0.53115  0.68007  0.49127  1
 V  V3  1  0.49832  0.00000  0.50372  1
 V  V4  1  0.94608  0.50000  0.99871  1
 V  V5  1  0.99584  0.17490  0.01461  1
 V  V6  1  0.99584  0.82510  0.01461  1
