CIF file written using JARVIS-Tools package.
data_Li2Co4O7F
_symmetry_space_group_name_H-M  'Cm'
_cell_length_a       5.67683
_cell_length_b       5.67675
_cell_length_c       5.711
_cell_angle_alpha    89.7379
_cell_angle_beta     120.272
_cell_angle_gamma    119.833

_symmetry_Int_Tables_number  8
_chemical_formula_structural  Li2Co4O7F
_chemical_formula_sum  Li2Co4O7F
_cell_volume  130.22540375802032
_cell_formula_units_Z  1
loop_
  _symmetry_equiv_pos_site_id
 _symmetry_equiv_pos_as_xyz
 1  'x, y, z'
loop_
 _atom_site_type_symbol
 _atom_site_label
 _atom_site_symmetry_multiplicity
 _atom_site_fract_x
 _atom_site_fract_y
 _atom_site_fract_z
 _atom_site_fract_occupancy
 Co  Co1  1  0.24919  0.88511  0.13429  1
 Co  Co2  1  0.98545  0.99704  0.49224  1
 Co  Co3  1  0.49518  0.50679  0.49223  1
 Co  Co4  1  0.00756  0.49829  0.50584  1
 F  F1  1  0.48597  0.25303  0.73900  1
 Li  Li1  1  0.49620  0.50035  -0.00345  1
 Li  Li2  1  0.75141  0.11573  0.86713  1
 O  O1  1  0.02433  0.26280  0.28713  1
 O  O2  1  0.46605  0.70946  0.71374  1
 O  O3  1  0.00427  0.24768  0.71371  1
 O  O4  1  -0.00016  0.75171  0.28254  1
 O  O5  1  0.52319  0.74936  0.27256  1
 O  O6  1  0.53083  0.28271  0.28255  1
 O  O7  1  0.98054  0.73992  0.72047  1
