CIF file written using JARVIS-Tools package.
data_RbFeS2
_symmetry_space_group_name_H-M  'Immm'
_cell_length_a       5.13943
_cell_length_b       6.73985
_cell_length_c       7.0451
_cell_angle_alpha    118.577
_cell_angle_beta     111.392
_cell_angle_gamma    90

_symmetry_Int_Tables_number  71
_chemical_formula_structural  RbFeS2
_chemical_formula_sum  Rb2Fe2S4
_cell_volume  194.94547243817837
_cell_formula_units_Z  2
loop_
  _symmetry_equiv_pos_site_id
 _symmetry_equiv_pos_as_xyz
 1  'x, y, z'
loop_
 _atom_site_type_symbol
 _atom_site_label
 _atom_site_symmetry_multiplicity
 _atom_site_fract_x
 _atom_site_fract_y
 _atom_site_fract_z
 _atom_site_fract_occupancy
 Fe  Fe1  1  0.75036  -0.00000  -0.00000  1
 Fe  Fe2  1  0.24964  0.00000  0.00000  1
 Rb  Rb1  1  0.33102  0.33102  0.66204  1
 Rb  Rb2  1  0.66898  0.66898  0.33796  1
 S  S1  1  0.65298  0.15298  0.30596  1
 S  S2  1  0.34702  0.84702  0.69404  1
 S  S3  1  -0.00000  0.25380  -0.00000  1
 S  S4  1  0.00000  0.74620  0.00000  1
