CIF file written using JARVIS-Tools package.
data_CaZn3Se4
_symmetry_space_group_name_H-M  'P-43m'
_cell_length_a       5.93255
_cell_length_b       5.93255
_cell_length_c       5.93255
_cell_angle_alpha    90
_cell_angle_beta     90
_cell_angle_gamma    90

_symmetry_Int_Tables_number  215
_chemical_formula_structural  CaZn3Se4
_chemical_formula_sum  CaZn3Se4
_cell_volume  208.79727218500443
_cell_formula_units_Z  1
loop_
  _symmetry_equiv_pos_site_id
 _symmetry_equiv_pos_as_xyz
 1  'x, y, z'
loop_
 _atom_site_type_symbol
 _atom_site_label
 _atom_site_symmetry_multiplicity
 _atom_site_fract_x
 _atom_site_fract_y
 _atom_site_fract_z
 _atom_site_fract_occupancy
 Ca  Ca1  1  0.00000  0.00000  0.00000  1
 Se  Se1  1  0.73152  0.73152  0.26848  1
 Se  Se2  1  0.73152  0.26848  0.73152  1
 Se  Se3  1  0.26848  0.73152  0.73152  1
 Se  Se4  1  0.26848  0.26848  0.26848  1
 Zn  Zn1  1  0.00000  0.50000  0.50000  1
 Zn  Zn2  1  0.50000  0.50000  0.00000  1
 Zn  Zn3  1  0.50000  0.00000  0.50000  1
