CIF file written using JARVIS-Tools package.
data_Rb6Si2O7
_symmetry_space_group_name_H-M  'P2_1/c'
_cell_length_a       6.73413
_cell_length_b       9.23894
_cell_length_c       9.21836
_cell_angle_alpha    90
_cell_angle_beta     91.0889
_cell_angle_gamma    90

_symmetry_Int_Tables_number  14
_chemical_formula_structural  Rb6Si2O7
_chemical_formula_sum  Rb2Si4O4
_cell_volume  573.4282814623699
_cell_formula_units_Z  2
loop_
  _symmetry_equiv_pos_site_id
 _symmetry_equiv_pos_as_xyz
 1  'x, y, z'
loop_
 _atom_site_type_symbol
 _atom_site_label
 _atom_site_symmetry_multiplicity
 _atom_site_fract_x
 _atom_site_fract_y
 _atom_site_fract_z
 _atom_site_fract_occupancy
 O  O1  1  0.07096  0.27766  0.06581  1
 O  O2  1  0.00000  0.00000  0.00000  1
 O  O3  1  0.50000  0.50000  0.50000  1
 O  O4  1  0.94690  0.92237  0.71908  1
 O  O5  1  0.42904  0.77766  0.43419  1
 O  O6  1  0.92904  0.72234  0.93419  1
 O  O7  1  0.57096  0.22234  0.56581  1
 O  O8  1  0.78488  0.65529  0.36859  1
 O  O9  1  0.71512  0.15529  0.13141  1
 O  O10  1  0.21512  0.34471  0.63141  1
 O  O11  1  0.28488  0.84471  0.86859  1
 O  O12  1  0.44690  0.57763  0.21908  1
 O  O13  1  0.05310  0.07763  0.28092  1
 O  O14  1  0.55310  0.42237  0.78092  1
 Rb  Rb1  1  0.60701  0.85270  0.09110  1
 Rb  Rb2  1  0.88717  0.22300  0.77649  1
 Rb  Rb3  1  0.89299  0.35270  0.40890  1
 Rb  Rb4  1  0.39299  0.14730  0.90890  1
 Rb  Rb5  1  0.10701  0.64730  0.59110  1
 Rb  Rb6  1  0.74644  0.97531  0.45276  1
 Rb  Rb7  1  0.75356  0.47531  0.04724  1
 Rb  Rb8  1  0.25356  0.02469  0.54724  1
 Rb  Rb9  1  0.24644  0.52469  0.95276  1
 Rb  Rb10  1  0.38717  0.27700  0.27649  1
 Rb  Rb11  1  0.11283  0.77700  0.22351  1
 Rb  Rb12  1  0.61283  0.72300  0.72351  1
 Si  Si1  1  0.54231  0.63174  0.37524  1
 Si  Si2  1  0.95769  0.13174  0.12476  1
 Si  Si3  1  0.45769  0.36826  0.62476  1
 Si  Si4  1  0.04231  0.86826  0.87524  1
