CIF file written using JARVIS-Tools package.
data_K2Ca3Si3O10
_symmetry_space_group_name_H-M  'P-1'
_cell_length_a       5.68854
_cell_length_b       7.39776
_cell_length_c       11.8359
_cell_angle_alpha    86.2647
_cell_angle_beta     80.8488
_cell_angle_gamma    88.8784

_symmetry_Int_Tables_number  2
_chemical_formula_structural  K2Ca3Si3O10
_chemical_formula_sum  K4Ca6Si6O20
_cell_volume  490.67627996213605
_cell_formula_units_Z  2
loop_
  _symmetry_equiv_pos_site_id
 _symmetry_equiv_pos_as_xyz
 1  'x, y, z'
loop_
 _atom_site_type_symbol
 _atom_site_label
 _atom_site_symmetry_multiplicity
 _atom_site_fract_x
 _atom_site_fract_y
 _atom_site_fract_z
 _atom_site_fract_occupancy
 Ca  Ca1  1  0.21235  0.24455  0.62796  1
 Ca  Ca2  1  0.78765  0.75545  0.37204  1
 Ca  Ca3  1  0.18345  0.47918  0.86247  1
 Ca  Ca4  1  0.81655  0.52082  0.13753  1
 Ca  Ca5  1  0.73614  0.49856  0.65150  1
 Ca  Ca6  1  0.26386  0.50144  0.34850  1
 K  K1  1  0.72115  0.96113  0.62727  1
 K  K2  1  0.27885  0.03887  0.37273  1
 K  K3  1  0.17192  0.95121  0.85786  1
 K  K4  1  0.82808  0.04879  0.14214  1
 O  O1  1  0.07228  0.73593  0.20062  1
 O  O2  1  0.78788  0.06555  0.36912  1
 O  O3  1  0.09485  0.71828  0.47293  1
 O  O4  1  0.90515  0.28172  0.52707  1
 O  O5  1  0.86786  0.43208  0.32338  1
 O  O6  1  0.21212  0.93445  0.63088  1
 O  O7  1  0.52979  0.69109  0.53612  1
 O  O8  1  0.47021  0.30891  0.46388  1
 O  O9  1  0.11285  0.32719  0.04941  1
 O  O10  1  0.47243  0.25468  0.76882  1
 O  O11  1  0.13214  0.56792  0.67662  1
 O  O12  1  0.52757  0.74532  0.23118  1
 O  O13  1  0.54848  0.65558  0.80541  1
 O  O14  1  0.41904  0.72687  0.01829  1
 O  O15  1  0.32694  0.02988  0.12520  1
 O  O16  1  0.67306  0.97012  0.87480  1
 O  O17  1  0.92772  0.26407  0.79938  1
 O  O18  1  0.45152  0.34442  0.19459  1
 O  O19  1  0.58096  0.27313  0.98171  1
 O  O20  1  0.88715  0.67281  0.95059  1
 Si  Si1  1  0.24456  0.73085  0.58180  1
 Si  Si2  1  0.75544  0.26915  0.41820  1
 Si  Si3  1  0.66490  0.19511  0.85334  1
 Si  Si4  1  0.33510  0.80489  0.14666  1
 Si  Si5  1  0.35554  0.25338  0.09116  1
 Si  Si6  1  0.64446  0.74662  0.90884  1
