CIF file written using JARVIS-Tools package.
data_MnBiSe2I
_symmetry_space_group_name_H-M  'C2/m'
_cell_length_a       4.12584
_cell_length_b       7.01967
_cell_length_c       10.0485
_cell_angle_alpha    91.4975
_cell_angle_beta     90
_cell_angle_gamma    107.09

_symmetry_Int_Tables_number  12
_chemical_formula_structural  MnBiSe2I
_chemical_formula_sum  Mn2Bi2Se4I2
_cell_volume  278.07003546056285
_cell_formula_units_Z  2
loop_
  _symmetry_equiv_pos_site_id
 _symmetry_equiv_pos_as_xyz
 1  'x, y, z'
loop_
 _atom_site_type_symbol
 _atom_site_label
 _atom_site_symmetry_multiplicity
 _atom_site_fract_x
 _atom_site_fract_y
 _atom_site_fract_z
 _atom_site_fract_occupancy
 Bi  Bi1  1  0.78710  0.57420  0.19269  1
 Bi  Bi2  1  0.21290  0.42580  0.80731  1
 I  I1  1  0.86332  0.72665  0.56943  1
 I  I2  1  0.13668  0.27335  0.43057  1
 Mn  Mn1  1  0.50000  0.00000  0.00000  1
 Mn  Mn2  1  0.50000  0.00000  0.50000  1
 Se  Se1  1  0.56947  0.13895  0.75588  1
 Se  Se2  1  0.86517  0.73033  0.94121  1
 Se  Se3  1  0.43053  0.86105  0.24412  1
 Se  Se4  1  0.13483  0.26967  0.05879  1
