CIF file written using JARVIS-Tools package.
data_MnO3
_symmetry_space_group_name_H-M  'Imma'
_cell_length_a       4.70476
_cell_length_b       4.70476
_cell_length_c       4.70476
_cell_angle_alpha    99.3857
_cell_angle_beta     120.676
_cell_angle_gamma    109.071

_symmetry_Int_Tables_number  74
_chemical_formula_structural  MnO3
_chemical_formula_sum  Mn2O6
_cell_volume  77.3712028029948
_cell_formula_units_Z  2
loop_
  _symmetry_equiv_pos_site_id
 _symmetry_equiv_pos_as_xyz
 1  'x, y, z'
loop_
 _atom_site_type_symbol
 _atom_site_label
 _atom_site_symmetry_multiplicity
 _atom_site_fract_x
 _atom_site_fract_y
 _atom_site_fract_z
 _atom_site_fract_occupancy
 Mn  Mn1  1  0.00000  0.50000  0.50000  1
 Mn  Mn2  1  0.00000  0.00000  0.00000  1
 O  O1  1  0.79909  0.75000  0.54909  1
 O  O2  1  0.20091  0.25000  0.45091  1
 O  O3  1  0.50000  0.12111  0.12111  1
 O  O4  1  -0.00000  0.37889  0.87889  1
 O  O5  1  -0.00000  0.62111  0.12111  1
 O  O6  1  0.50000  0.87889  0.87889  1
