CIF file written using JARVIS-Tools package.
data_LiFe2F5
_symmetry_space_group_name_H-M  'P1'
_cell_length_a       5.22883
_cell_length_b       5.77705
_cell_length_c       7.51337
_cell_angle_alpha    65.4862
_cell_angle_beta     107.169
_cell_angle_gamma    113.73

_symmetry_Int_Tables_number  1
_chemical_formula_structural  LiFe2F5
_chemical_formula_sum  Li2Fe4F0
_cell_volume  186.78807689053642
_cell_formula_units_Z  2
loop_
  _symmetry_equiv_pos_site_id
 _symmetry_equiv_pos_as_xyz
 1  'x, y, z'
loop_
 _atom_site_type_symbol
 _atom_site_label
 _atom_site_symmetry_multiplicity
 _atom_site_fract_x
 _atom_site_fract_y
 _atom_site_fract_z
 _atom_site_fract_occupancy
 F  F1  1  0.12464  0.73362  0.76863  1
 F  F2  1  0.51638  0.72278  0.52661  1
 F  F3  1  -0.03131  0.71748  0.35918  1
 F  F4  1  0.28076  0.21727  0.10315  1
 F  F5  1  0.61240  0.21753  0.87711  1
 F  F6  1  0.37645  0.74068  0.13803  1
 F  F7  1  0.75961  0.74466  0.95259  1
 F  F8  1  0.04879  0.27761  0.66870  1
 F  F9  1  0.48411  0.27921  0.47970  1
 F  F10  1  0.87281  0.21374  0.27466  1
 Fe  Fe1  1  0.84575  -0.00535  0.10459  1
 Fe  Fe2  1  0.79730  0.51014  0.63234  1
 Fe  Fe3  1  0.18976  0.46913  0.39183  1
 Fe  Fe4  1  0.15999  -0.00766  0.91452  1
 Li  Li1  1  0.38768  0.57556  0.94821  1
 Li  Li2  1  0.51581  0.07425  0.36213  1
