CIF file written using JARVIS-Tools package.
data_SrLiCoF6
_symmetry_space_group_name_H-M  'P2_1/c'
_cell_length_a       5.2061
_cell_length_b       8.66321
_cell_length_c       10.2496
_cell_angle_alpha    90
_cell_angle_beta     91.8673
_cell_angle_gamma    90

_symmetry_Int_Tables_number  14
_chemical_formula_structural  SrLiCoF6
_chemical_formula_sum  Sr4Li4Co4F24
_cell_volume  462.02777915480476
_cell_formula_units_Z  4
loop_
  _symmetry_equiv_pos_site_id
 _symmetry_equiv_pos_as_xyz
 1  'x, y, z'
loop_
 _atom_site_type_symbol
 _atom_site_label
 _atom_site_symmetry_multiplicity
 _atom_site_fract_x
 _atom_site_fract_y
 _atom_site_fract_z
 _atom_site_fract_occupancy
 Co  Co1  1  0.21664  0.91804  0.24832  1
 Co  Co2  1  0.21664  0.58196  0.74832  1
 Co  Co3  1  0.78336  0.08196  0.75168  1
 Co  Co4  1  0.78336  0.41804  0.25168  1
 F  F1  1  0.87964  0.24955  0.35497  1
 F  F2  1  0.63610  0.57846  0.15288  1
 F  F3  1  0.99041  0.95654  0.86055  1
 F  F4  1  0.49112  0.95274  0.13826  1
 F  F5  1  0.63610  0.92154  0.65288  1
 F  F6  1  0.07214  0.40744  0.14955  1
 F  F7  1  0.36390  0.07846  0.34712  1
 F  F8  1  0.12036  0.75045  0.64503  1
 F  F9  1  0.50888  0.04726  0.86174  1
 F  F10  1  0.87964  0.25045  0.85497  1
 F  F11  1  0.92786  0.90744  0.35045  1
 F  F12  1  0.12036  0.74955  0.14503  1
 F  F13  1  0.39168  0.72506  0.85123  1
 F  F14  1  0.99041  0.54346  0.36055  1
 F  F15  1  0.36390  0.42154  0.84712  1
 F  F16  1  0.60832  0.27494  0.14877  1
 F  F17  1  0.60832  0.22506  0.64877  1
 F  F18  1  0.92786  0.59256  0.85045  1
 F  F19  1  0.00959  0.45654  0.63945  1
 F  F20  1  0.50888  0.45274  0.36174  1
 F  F21  1  0.39168  0.77494  0.35123  1
 F  F22  1  0.49112  0.54726  0.63826  1
 F  F23  1  0.07214  0.09256  0.64955  1
 F  F24  1  0.00959  0.04346  0.13945  1
 Li  Li1  1  0.28429  0.58130  0.24009  1
 Li  Li2  1  0.71571  0.08130  0.25991  1
 Li  Li3  1  0.71571  0.41870  0.75991  1
 Li  Li4  1  0.28429  0.91870  0.74009  1
 Sr  Sr1  1  0.74672  0.71646  0.49971  1
 Sr  Sr2  1  0.25328  0.21646  0.00029  1
 Sr  Sr3  1  0.74672  0.78354  -0.00029  1
 Sr  Sr4  1  0.25328  0.28354  0.50029  1
