CIF file written using JARVIS-Tools package.
data_FeAgSe2
_symmetry_space_group_name_H-M  'I-42d'
_cell_length_a       5.89132
_cell_length_b       6.86315
_cell_length_c       5.89132
_cell_angle_alpha    115.417
_cell_angle_beta     90
_cell_angle_gamma    115.417

_symmetry_Int_Tables_number  122
_chemical_formula_structural  FeAgSe2
_chemical_formula_sum  Fe2Ag2Se4
_cell_volume  189.30441364834954
_cell_formula_units_Z  2
loop_
  _symmetry_equiv_pos_site_id
 _symmetry_equiv_pos_as_xyz
 1  'x, y, z'
loop_
 _atom_site_type_symbol
 _atom_site_label
 _atom_site_symmetry_multiplicity
 _atom_site_fract_x
 _atom_site_fract_y
 _atom_site_fract_z
 _atom_site_fract_occupancy
 Ag  Ag1  1  0.25000  0.50000  0.75000  1
 Ag  Ag2  1  0.00000  0.00000  0.00000  1
 Fe  Fe1  1  0.75000  0.50000  0.25000  1
 Fe  Fe2  1  0.50000  0.00000  0.50000  1
 Se  Se1  1  0.12500  0.75000  0.16407  1
 Se  Se2  1  0.62500  0.75000  0.58593  1
 Se  Se3  1  0.41407  0.25000  0.87500  1
 Se  Se4  1  0.83593  0.25000  0.37500  1
