CIF file written using JARVIS-Tools package.
data_YbCO3
_symmetry_space_group_name_H-M  'Pnma'
_cell_length_a       4.34171
_cell_length_b       6.47293
_cell_length_c       8.45982
_cell_angle_alpha    90
_cell_angle_beta     90
_cell_angle_gamma    90

_symmetry_Int_Tables_number  62
_chemical_formula_structural  YbCO3
_chemical_formula_sum  Yb4C4O2
_cell_volume  237.75137678014715
_cell_formula_units_Z  4
loop_
  _symmetry_equiv_pos_site_id
 _symmetry_equiv_pos_as_xyz
 1  'x, y, z'
loop_
 _atom_site_type_symbol
 _atom_site_label
 _atom_site_symmetry_multiplicity
 _atom_site_fract_x
 _atom_site_fract_y
 _atom_site_fract_z
 _atom_site_fract_occupancy
 C  C1  1  0.02583  0.63010  0.25000  1
 C  C2  1  0.47417  0.13010  0.25000  1
 C  C3  1  0.52583  0.86990  0.75000  1
 C  C4  1  0.97417  0.36990  0.75000  1
 O  O1  1  0.40003  0.81923  0.61616  1
 O  O2  1  0.90003  0.68077  0.11616  1
 O  O3  1  0.71925  0.47077  0.75000  1
 O  O4  1  0.90003  0.68077  0.38384  1
 O  O5  1  0.09997  0.31923  0.88384  1
 O  O6  1  0.09997  0.31923  0.61616  1
 O  O7  1  0.28075  0.52923  0.25000  1
 O  O8  1  0.78075  0.97077  0.75000  1
 O  O9  1  0.59997  0.18077  0.11616  1
 O  O10  1  0.21925  0.02923  0.25000  1
 O  O11  1  0.40003  0.81923  0.88384  1
 O  O12  1  0.59997  0.18077  0.38384  1
 Yb  Yb1  1  0.50000  0.50000  0.50000  1
 Yb  Yb2  1  0.50000  0.50000  0.00000  1
 Yb  Yb3  1  0.00000  0.00000  0.50000  1
 Yb  Yb4  1  0.00000  0.00000  0.00000  1
