CIF file written using JARVIS-Tools package.
data_Na2O
_symmetry_space_group_name_H-M  'P-62m'
_cell_length_a       3.60614
_cell_length_b       6.12783
_cell_length_c       6.12772
_cell_angle_alpha    120
_cell_angle_beta     89.9998
_cell_angle_gamma    90.0003

_symmetry_Int_Tables_number  189
_chemical_formula_structural  Na2O
_chemical_formula_sum  Na6O3
_cell_volume  117.26755468681613
_cell_formula_units_Z  3
loop_
  _symmetry_equiv_pos_site_id
 _symmetry_equiv_pos_as_xyz
 1  'x, y, z'
loop_
 _atom_site_type_symbol
 _atom_site_label
 _atom_site_symmetry_multiplicity
 _atom_site_fract_x
 _atom_site_fract_y
 _atom_site_fract_z
 _atom_site_fract_occupancy
 Na  Na1  1  0.93271  0.74721  0.08196  1
 Na  Na2  1  0.43272  0.59324  0.66786  1
 Na  Na3  1  0.43275  0.33311  0.92797  1
 Na  Na4  1  0.93271  0.33312  0.25376  1
 Na  Na5  1  0.43275  0.07299  0.40772  1
 Na  Na6  1  0.93273  0.91902  0.66786  1
 O  O1  1  0.43314  0.66645  0.33451  1
 O  O2  1  0.93277  0.33311  0.66784  1
 O  O3  1  0.43255  -0.00021  0.00118  1
