CIF file written using JARVIS-Tools package.
data_RbFeSe2
_symmetry_space_group_name_H-M  'C2/c'
_cell_length_a       5.64059
_cell_length_b       6.96332
_cell_length_c       6.96332
_cell_angle_alpha    116.836
_cell_angle_beta     101.758
_cell_angle_gamma    101.758

_symmetry_Int_Tables_number  15
_chemical_formula_structural  RbFeSe2
_chemical_formula_sum  Rb2Fe2Se4
_cell_volume  224.81104910464904
_cell_formula_units_Z  2
loop_
  _symmetry_equiv_pos_site_id
 _symmetry_equiv_pos_as_xyz
 1  'x, y, z'
loop_
 _atom_site_type_symbol
 _atom_site_label
 _atom_site_symmetry_multiplicity
 _atom_site_fract_x
 _atom_site_fract_y
 _atom_site_fract_z
 _atom_site_fract_occupancy
 Fe  Fe1  1  0.25000  0.50122  0.49878  1
 Fe  Fe2  1  0.75000  0.49878  0.50122  1
 Rb  Rb1  1  0.25000  0.13940  0.86060  1
 Rb  Rb2  1  0.75000  0.86060  0.13940  1
 Se  Se1  1  0.40314  0.19635  0.41991  1
 Se  Se2  1  0.09686  0.58009  0.80365  1
 Se  Se3  1  0.59686  0.80365  0.58009  1
 Se  Se4  1  0.90314  0.41991  0.19635  1
