CIF file written using JARVIS-Tools package.
data_Nd4Ge3S12
_symmetry_space_group_name_H-M  'R3c'
_cell_length_a       11.5153
_cell_length_b       11.5153
_cell_length_c       11.5153
_cell_angle_alpha    114.815
_cell_angle_beta     114.815
_cell_angle_gamma    114.815

_symmetry_Int_Tables_number  161
_chemical_formula_structural  Nd4Ge3S12
_chemical_formula_sum  Nd8Ge6S24
_cell_volume  868.7997915063321
_cell_formula_units_Z  2
loop_
  _symmetry_equiv_pos_site_id
 _symmetry_equiv_pos_as_xyz
 1  'x, y, z'
loop_
 _atom_site_type_symbol
 _atom_site_label
 _atom_site_symmetry_multiplicity
 _atom_site_fract_x
 _atom_site_fract_y
 _atom_site_fract_z
 _atom_site_fract_occupancy
 Ge  Ge1  1  0.46908  0.64377  0.85554  1
 Ge  Ge2  1  0.35554  0.14377  0.96908  1
 Ge  Ge3  1  0.64377  0.85554  0.46908  1
 Ge  Ge4  1  0.96908  0.35554  0.14377  1
 Ge  Ge5  1  0.85554  0.46908  0.64377  1
 Ge  Ge6  1  0.14377  0.96908  0.35554  1
 Nd  Nd1  1  0.49856  0.49856  0.49856  1
 Nd  Nd2  1  0.47584  0.93759  0.71376  1
 Nd  Nd3  1  0.93759  0.71376  0.47584  1
 Nd  Nd4  1  0.71376  0.47584  0.93759  1
 Nd  Nd5  1  0.21376  0.43759  0.97584  1
 Nd  Nd6  1  0.99856  0.99856  0.99856  1
 Nd  Nd7  1  0.97584  0.21376  0.43759  1
 Nd  Nd8  1  0.43759  0.97584  0.21376  1
 S  S1  1  0.28231  0.88435  0.81472  1
 S  S2  1  0.35120  0.08664  0.63380  1
 S  S3  1  0.13380  0.58664  0.85120  1
 S  S4  1  0.10968  0.08521  0.79564  1
 S  S5  1  0.87255  0.68886  0.68586  1
 S  S6  1  0.88435  0.81472  0.28231  1
 S  S7  1  0.08664  0.63380  0.35120  1
 S  S8  1  0.60968  0.29564  0.58521  1
 S  S9  1  0.08521  0.79564  0.10968  1
 S  S10  1  0.18886  0.37255  0.18586  1
 S  S11  1  0.58664  0.85120  0.13380  1
 S  S12  1  0.31472  0.38435  0.78231  1
 S  S13  1  0.29564  0.58521  0.60968  1
 S  S14  1  0.18586  0.18886  0.37255  1
 S  S15  1  0.79564  0.10968  0.08521  1
 S  S16  1  0.68886  0.68586  0.87255  1
 S  S17  1  0.58521  0.60968  0.29564  1
 S  S18  1  0.85120  0.13380  0.58664  1
 S  S19  1  0.38435  0.78231  0.31472  1
 S  S20  1  0.78231  0.31472  0.38435  1
 S  S21  1  0.81472  0.28231  0.88435  1
 S  S22  1  0.68586  0.87255  0.68886  1
 S  S23  1  0.63380  0.35120  0.08664  1
 S  S24  1  0.37255  0.18586  0.18886  1
