CIF file written using JARVIS-Tools package.
data_DyInCo2
_symmetry_space_group_name_H-M  'Pmma'
_cell_length_a       3.98456
_cell_length_b       5.01454
_cell_length_c       7.09861
_cell_angle_alpha    90
_cell_angle_beta     90
_cell_angle_gamma    90

_symmetry_Int_Tables_number  51
_chemical_formula_structural  DyInCo2
_chemical_formula_sum  Dy2In2Co4
_cell_volume  141.83560732877805
_cell_formula_units_Z  2
loop_
  _symmetry_equiv_pos_site_id
 _symmetry_equiv_pos_as_xyz
 1  'x, y, z'
loop_
 _atom_site_type_symbol
 _atom_site_label
 _atom_site_symmetry_multiplicity
 _atom_site_fract_x
 _atom_site_fract_y
 _atom_site_fract_z
 _atom_site_fract_occupancy
 Co  Co1  1  0.00000  0.50000  0.00000  1
 Co  Co2  1  0.00000  0.00000  0.00000  1
 Co  Co3  1  0.50000  0.75000  0.90533  1
 Co  Co4  1  0.50000  0.25000  0.09467  1
 Dy  Dy1  1  0.50000  0.75000  0.27589  1
 Dy  Dy2  1  0.50000  0.25000  0.72411  1
 In  In1  1  0.00000  0.75000  0.64762  1
 In  In2  1  0.00000  0.25000  0.35238  1
