CIF file written using JARVIS-Tools package.
data_K2NdP5O15
_symmetry_space_group_name_H-M  'Cc'
_cell_length_a       7.14043
_cell_length_b       7.14044
_cell_length_c       13.2755
_cell_angle_alpha    90.385
_cell_angle_beta     90.385
_cell_angle_gamma    107.688

_symmetry_Int_Tables_number  9
_chemical_formula_structural  K2NdP5O15
_chemical_formula_sum  K4Nd2P0O30
_cell_volume  644.8226163948108
_cell_formula_units_Z  2
loop_
  _symmetry_equiv_pos_site_id
 _symmetry_equiv_pos_as_xyz
 1  'x, y, z'
loop_
 _atom_site_type_symbol
 _atom_site_label
 _atom_site_symmetry_multiplicity
 _atom_site_fract_x
 _atom_site_fract_y
 _atom_site_fract_z
 _atom_site_fract_occupancy
 K  K1  1  0.44630  0.19628  0.94477  1
 K  K2  1  0.29799  0.68770  0.74748  1
 K  K3  1  0.19628  0.44630  0.44477  1
 K  K4  1  0.68770  0.29799  0.24748  1
 Nd  Nd1  1  0.90335  0.09722  0.74817  1
 Nd  Nd2  1  0.09722  0.90335  0.24817  1
 O  O1  1  0.84329  0.53038  0.53856  1
 O  O2  1  -0.00471  0.26588  0.90132  1
 O  O3  1  0.56226  0.47658  0.40755  1
 O  O4  1  0.34964  0.81189  0.55327  1
 O  O5  1  0.46562  0.56935  0.16531  1
 O  O6  1  0.44092  0.91487  0.21258  1
 O  O7  1  0.65084  0.92149  0.86451  1
 O  O8  1  0.24568  0.25842  0.23348  1
 O  O9  1  0.11733  0.56022  0.21357  1
 O  O10  1  0.81189  0.34964  0.05327  1
 O  O11  1  0.92149  0.65084  0.36451  1
 O  O12  1  0.80832  0.72950  0.98323  1
 O  O13  1  0.17706  0.36186  0.06235  1
 O  O14  1  0.56935  0.46562  0.66531  1
 O  O15  1  0.09239  0.91378  0.86838  1
 O  O16  1  0.91378  0.09239  0.36838  1
 O  O17  1  0.77088  0.85207  0.18429  1
 O  O18  1  0.85207  0.77088  0.68429  1
 O  O19  1  0.92397  0.13197  0.56213  1
 O  O20  1  0.72950  0.80832  0.48323  1
 O  O21  1  0.53038  0.84329  0.03856  1
 O  O22  1  0.61216  0.09244  0.46044  1
 O  O23  1  0.47658  0.56226  0.90755  1
 O  O24  1  0.56022  0.11733  0.71357  1
 O  O25  1  0.91487  0.44092  0.71258  1
 O  O26  1  0.25842  0.24568  0.73348  1
 O  O27  1  0.09244  0.61216  0.96044  1
 O  O28  1  0.36186  0.17706  0.56235  1
 O  O29  1  0.26588  -0.00471  0.40132  1
 O  O30  1  0.13197  0.92397  0.06213  1
 P  P1  1  0.75661  0.61070  0.43896  1
 P  P2  1  0.61070  0.75661  0.93896  1
 P  P3  1  0.43550  0.23745  0.67575  1
 P  P4  1  0.81460  0.04029  0.46822  1
 P  P5  1  0.23745  0.43550  0.17575  1
 P  P6  1  0.80685  0.55860  0.65679  1
 P  P7  1  0.55860  0.80685  0.15679  1
 P  P8  1  0.04029  0.81460  0.96822  1
 P  P9  1  0.99513  0.38568  0.99369  1
 P  P10  1  0.38568  0.99513  0.49369  1
