CIF file written using JARVIS-Tools package.
data_LiAlB14
_symmetry_space_group_name_H-M  'Imma'
_cell_length_a       5.85291
_cell_length_b       7.20312
_cell_length_c       7.20312
_cell_angle_alpha    68.755
_cell_angle_beta     66.0289
_cell_angle_gamma    66.0289

_symmetry_Int_Tables_number  74
_chemical_formula_structural  LiAlB14
_chemical_formula_sum  Li2Al2B28
_cell_volume  246.37268018854394
_cell_formula_units_Z  2
loop_
  _symmetry_equiv_pos_site_id
 _symmetry_equiv_pos_as_xyz
 1  'x, y, z'
loop_
 _atom_site_type_symbol
 _atom_site_label
 _atom_site_symmetry_multiplicity
 _atom_site_fract_x
 _atom_site_fract_y
 _atom_site_fract_z
 _atom_site_fract_occupancy
 Al  Al1  1  -0.00000  -0.00000  0.50000  1
 Al  Al2  1  0.50000  -0.00000  0.50000  1
 B  B1  1  0.27843  0.39822  0.72694  1
 B  B2  1  0.67129  0.03647  0.12311  1
 B  B3  1  0.66913  0.62311  0.53647  1
 B  B4  1  0.82871  0.37689  0.46353  1
 B  B5  1  0.16913  0.03647  0.12311  1
 B  B6  1  0.32871  0.96353  0.87689  1
 B  B7  1  0.33087  0.37689  0.46353  1
 B  B8  1  0.17129  0.62311  0.53647  1
 B  B9  1  0.90359  0.77306  0.10178  1
 B  B10  1  0.77843  0.22694  0.89822  1
 B  B11  1  0.09641  0.22694  0.89822  1
 B  B12  1  0.59641  0.39822  0.72694  1
 B  B13  1  0.22157  0.77306  0.10178  1
 B  B14  1  0.85080  0.76897  0.52943  1
 B  B15  1  0.72157  0.60178  0.27306  1
 B  B16  1  0.64920  0.97057  0.73103  1
 B  B17  1  0.08520  0.08430  0.74530  1
 B  B18  1  0.91480  0.91570  0.25470  1
 B  B19  1  0.41480  0.75470  0.41570  1
 B  B20  1  0.58520  0.24530  0.58430  1
 B  B21  1  0.16663  0.80115  0.86559  1
 B  B22  1  0.83337  0.19885  0.13441  1
 B  B23  1  0.33337  0.63441  0.69885  1
 B  B24  1  0.66663  0.36559  0.30115  1
 B  B25  1  0.14920  0.23103  0.47057  1
 B  B26  1  0.35080  0.02943  0.26897  1
 B  B27  1  0.83087  0.96353  0.87689  1
 B  B28  1  0.40359  0.60178  0.27306  1
 Li  Li1  1  0.25000  0.39876  0.10124  1
 Li  Li2  1  0.75000  0.60124  0.89876  1
