CIF file written using JARVIS-Tools package.
data_Li4CuF7
_symmetry_space_group_name_H-M  'F-43m'
_cell_length_a       5.85006
_cell_length_b       5.85006
_cell_length_c       5.85006
_cell_angle_alpha    120
_cell_angle_beta     120
_cell_angle_gamma    90

_symmetry_Int_Tables_number  216
_chemical_formula_structural  Li4CuF7
_chemical_formula_sum  Li4CuF7
_cell_volume  141.56822432021517
_cell_formula_units_Z  1
loop_
  _symmetry_equiv_pos_site_id
 _symmetry_equiv_pos_as_xyz
 1  'x, y, z'
loop_
 _atom_site_type_symbol
 _atom_site_label
 _atom_site_symmetry_multiplicity
 _atom_site_fract_x
 _atom_site_fract_y
 _atom_site_fract_z
 _atom_site_fract_occupancy
 Cu  Cu1  1  0.00000  0.00000  0.00000  1
 F  F1  1  0.23529  0.23529  0.47058  1
 F  F2  1  0.23529  0.23529  0.00000  1
 F  F3  1  0.23529  0.76471  0.00000  1
 F  F4  1  0.75000  0.25000  0.50000  1
 F  F5  1  0.76471  0.76471  0.52942  1
 F  F6  1  0.76471  0.23529  0.00000  1
 F  F7  1  0.76471  0.76471  -0.00000  1
 Li  Li1  1  0.11846  0.37282  0.74564  1
 Li  Li2  1  0.62718  0.37282  0.74564  1
 Li  Li3  1  0.62718  0.37282  0.25436  1
 Li  Li4  1  0.62718  0.88154  0.25436  1
