CIF file written using JARVIS-Tools package.
data_HfReSi
_symmetry_space_group_name_H-M  'P-62m'
_cell_length_a       3.4048
_cell_length_b       6.98042
_cell_length_c       6.98041
_cell_angle_alpha    120
_cell_angle_beta     90
_cell_angle_gamma    90

_symmetry_Int_Tables_number  189
_chemical_formula_structural  HfReSi
_chemical_formula_sum  Hf3Re3Si3
_cell_volume  143.67601805080574
_cell_formula_units_Z  3
loop_
  _symmetry_equiv_pos_site_id
 _symmetry_equiv_pos_as_xyz
 1  'x, y, z'
loop_
 _atom_site_type_symbol
 _atom_site_label
 _atom_site_symmetry_multiplicity
 _atom_site_fract_x
 _atom_site_fract_y
 _atom_site_fract_z
 _atom_site_fract_occupancy
 Hf  Hf1  1  0.50000  0.59685  -0.00000  1
 Hf  Hf2  1  0.50000  0.40313  0.40314  1
 Hf  Hf3  1  0.50000  0.99999  0.59686  1
 Re  Re1  1  0.00000  0.25668  -0.00000  1
 Re  Re2  1  0.00000  0.74330  0.74331  1
 Re  Re3  1  0.00000  0.99999  0.25669  1
 Si  Si1  1  0.00000  0.33332  0.66667  1
 Si  Si2  1  0.00000  0.66665  0.33333  1
 Si  Si3  1  0.50000  -0.00001  0.00000  1
