CIF file written using JARVIS-Tools package.
data_UO2
_symmetry_space_group_name_H-M  'Fm-3m'
_cell_length_a       3.83388
_cell_length_b       3.83389
_cell_length_c       19.1695
_cell_angle_alpha    60
_cell_angle_beta     59.9999
_cell_angle_gamma    59.9998

_symmetry_Int_Tables_number  225
_chemical_formula_structural  UO2
_chemical_formula_sum  U5O0
_cell_volume  199.2388290427061
_cell_formula_units_Z  5
loop_
  _symmetry_equiv_pos_site_id
 _symmetry_equiv_pos_as_xyz
 1  'x, y, z'
loop_
 _atom_site_type_symbol
 _atom_site_label
 _atom_site_symmetry_multiplicity
 _atom_site_fract_x
 _atom_site_fract_y
 _atom_site_fract_z
 _atom_site_fract_occupancy
 O  O1  1  0.93277  0.03336  0.00010  1
 O  O2  1  0.43275  0.53336  0.10011  1
 O  O3  1  0.93284  0.03331  0.40011  1
 O  O4  1  0.93274  0.03335  0.20011  1
 O  O5  1  0.43284  0.53331  0.30011  1
 O  O6  1  0.43284  0.53332  0.50010  1
 O  O7  1  0.93279  0.03332  0.80011  1
 O  O8  1  0.93281  0.03333  0.60011  1
 O  O9  1  0.43281  0.53332  0.70011  1
 O  O10  1  0.43282  0.53334  0.90010  1
 U  U1  1  0.68275  0.78336  0.15010  1
 U  U2  1  0.68284  0.78331  0.35011  1
 U  U3  1  0.68282  0.78332  0.55011  1
 U  U4  1  0.68280  0.78333  0.75011  1
 U  U5  1  0.68279  0.78334  0.95010  1
