CIF file written using JARVIS-Tools package.
data_V6O11F
_symmetry_space_group_name_H-M  'Cm'
_cell_length_a       7.15689
_cell_length_b       5.42258
_cell_length_c       5.42258
_cell_angle_alpha    72.7861
_cell_angle_beta     70.202
_cell_angle_gamma    70.202

_symmetry_Int_Tables_number  8
_chemical_formula_structural  V6O11F
_chemical_formula_sum  V6OF
_cell_volume  182.3559924628338
_cell_formula_units_Z  1
loop_
  _symmetry_equiv_pos_site_id
 _symmetry_equiv_pos_as_xyz
 1  'x, y, z'
loop_
 _atom_site_type_symbol
 _atom_site_label
 _atom_site_symmetry_multiplicity
 _atom_site_fract_x
 _atom_site_fract_y
 _atom_site_fract_z
 _atom_site_fract_occupancy
 F  F1  1  0.30123  0.89801  0.89801  1
 O  O1  1  0.66815  0.03522  0.63504  1
 O  O2  1  0.33317  0.36457  0.96208  1
 O  O3  1  0.00059  0.70014  0.29899  1
 O  O4  1  0.63131  0.57030  0.57030  1
 O  O5  1  0.96818  0.23230  0.23230  1
 O  O6  1  0.04078  0.76900  0.76900  1
 O  O7  1  0.36584  0.42984  0.42984  1
 O  O8  1  0.00059  0.29899  0.70014  1
 O  O9  1  0.66815  0.63504  0.03522  1
 O  O10  1  0.33317  0.96208  0.36457  1
 O  O11  1  0.69848  0.10116  0.10116  1
 V  V1  1  0.98088  0.00755  0.00755  1
 V  V2  1  0.50996  0.00767  0.00767  1
 V  V3  1  0.16181  0.33093  0.33093  1
 V  V4  1  0.33248  0.64646  0.64646  1
 V  V5  1  0.67114  0.34200  0.34200  1
 V  V6  1  0.83410  0.66876  0.66876  1
