CIF file written using JARVIS-Tools package.
data_CoSbO4
_symmetry_space_group_name_H-M  'I-4m2'
_cell_length_a       5.41153
_cell_length_b       5.41153
_cell_length_c       5.41154
_cell_angle_alpha    137.665
_cell_angle_beta     137.665
_cell_angle_gamma    61.4168

_symmetry_Int_Tables_number  119
_chemical_formula_structural  CoSbO4
_chemical_formula_sum  CoSbO4
_cell_volume  71.06491035495058
_cell_formula_units_Z  1
loop_
  _symmetry_equiv_pos_site_id
 _symmetry_equiv_pos_as_xyz
 1  'x, y, z'
loop_
 _atom_site_type_symbol
 _atom_site_label
 _atom_site_symmetry_multiplicity
 _atom_site_fract_x
 _atom_site_fract_y
 _atom_site_fract_z
 _atom_site_fract_occupancy
 Co  Co1  1  0.00000  0.00000  0.00000  1
 O  O1  1  0.53530  0.03530  0.50000  1
 O  O2  1  0.20353  0.20353  -0.00000  1
 O  O3  1  0.96470  0.46470  0.50000  1
 O  O4  1  0.79647  0.79647  0.00000  1
 Sb  Sb1  1  0.75000  0.25000  0.50000  1
