CIF file written using JARVIS-Tools package.
data_TiCd
_symmetry_space_group_name_H-M  'P4/nmm'
_cell_length_a       2.89762
_cell_length_b       2.89762
_cell_length_c       9.0246
_cell_angle_alpha    90
_cell_angle_beta     90
_cell_angle_gamma    90

_symmetry_Int_Tables_number  129
_chemical_formula_structural  TiCd
_chemical_formula_sum  Ti2Cd2
_cell_volume  75.77216025276235
_cell_formula_units_Z  2
loop_
  _symmetry_equiv_pos_site_id
 _symmetry_equiv_pos_as_xyz
 1  'x, y, z'
loop_
 _atom_site_type_symbol
 _atom_site_label
 _atom_site_symmetry_multiplicity
 _atom_site_fract_x
 _atom_site_fract_y
 _atom_site_fract_z
 _atom_site_fract_occupancy
 Cd  Cd1  1  0.50000  0.00000  0.86413  1
 Cd  Cd2  1  0.00000  0.50000  0.13587  1
 Ti  Ti1  1  0.50000  0.00000  0.39164  1
 Ti  Ti2  1  0.00000  0.50000  0.60836  1
