CIF file written using JARVIS-Tools package.
data_CeMgPt
_symmetry_space_group_name_H-M  'P-62m'
_cell_length_a       7.48918
_cell_length_b       7.48918
_cell_length_c       4.08703
_cell_angle_alpha    90
_cell_angle_beta     90
_cell_angle_gamma    120

_symmetry_Int_Tables_number  189
_chemical_formula_structural  CeMgPt
_chemical_formula_sum  Ce3Mg3Pt3
_cell_volume  198.5215780909498
_cell_formula_units_Z  3
loop_
  _symmetry_equiv_pos_site_id
 _symmetry_equiv_pos_as_xyz
 1  'x, y, z'
loop_
 _atom_site_type_symbol
 _atom_site_label
 _atom_site_symmetry_multiplicity
 _atom_site_fract_x
 _atom_site_fract_y
 _atom_site_fract_z
 _atom_site_fract_occupancy
 Ce  Ce1  1  0.58507  0.58507  0.00000  1
 Ce  Ce2  1  0.41493  0.00000  0.00000  1
 Ce  Ce3  1  0.00000  0.41493  0.00000  1
 Mg  Mg1  1  1.00000  0.75925  0.50000  1
 Mg  Mg2  1  0.24075  0.24075  0.50000  1
 Mg  Mg3  1  0.75925  1.00000  0.50000  1
 Pt  Pt1  1  0.33333  0.66667  0.50000  1
 Pt  Pt2  1  0.00000  0.00000  0.00000  1
 Pt  Pt3  1  0.66667  0.33333  0.50000  1
