CIF file written using JARVIS-Tools package.
data_Rb4Zr3Te16
_symmetry_space_group_name_H-M  'C2/c'
_cell_length_a       11.1548
_cell_length_b       11.1548
_cell_length_c       15.1123
_cell_angle_alpha    96.9009
_cell_angle_beta     96.9009
_cell_angle_gamma    114.319

_symmetry_Int_Tables_number  15
_chemical_formula_structural  Rb4Zr3Te16
_chemical_formula_sum  Rb8Zr6Te32
_cell_volume  1670.9754396270203
_cell_formula_units_Z  2
loop_
  _symmetry_equiv_pos_site_id
 _symmetry_equiv_pos_as_xyz
 1  'x, y, z'
loop_
 _atom_site_type_symbol
 _atom_site_label
 _atom_site_symmetry_multiplicity
 _atom_site_fract_x
 _atom_site_fract_y
 _atom_site_fract_z
 _atom_site_fract_occupancy
 Rb  Rb1  1  0.74776  0.44898  0.42904  1
 Rb  Rb2  1  0.55102  0.25224  0.07096  1
 Rb  Rb3  1  0.25224  0.55102  0.57096  1
 Rb  Rb4  1  0.44898  0.74776  0.92904  1
 Rb  Rb5  1  0.24545  0.96984  0.36813  1
 Rb  Rb6  1  0.03016  0.75455  0.13187  1
 Rb  Rb7  1  0.75455  0.03016  0.63187  1
 Rb  Rb8  1  0.96984  0.24545  0.86813  1
 Te  Te1  1  0.63735  0.73408  0.74144  1
 Te  Te2  1  0.84762  0.91171  0.37613  1
 Te  Te3  1  0.36265  0.26592  0.25856  1
 Te  Te4  1  0.73408  0.63735  0.24144  1
 Te  Te5  1  0.91171  0.84762  0.87613  1
 Te  Te6  1  0.15238  0.08829  0.62387  1
 Te  Te7  1  0.08829  0.15238  0.12387  1
 Te  Te8  1  0.52672  0.16817  0.55527  1
 Te  Te9  1  0.90482  0.19817  0.44651  1
 Te  Te10  1  0.09518  0.80183  0.55349  1
 Te  Te11  1  0.80183  0.09518  0.05349  1
 Te  Te12  1  0.59790  0.11792  0.84042  1
 Te  Te13  1  0.24928  0.15641  0.87518  1
 Te  Te14  1  0.84359  0.75072  0.62482  1
 Te  Te15  1  0.75072  0.84359  0.12482  1
 Te  Te16  1  0.15641  0.24928  0.37518  1
 Te  Te17  1  0.19817  0.90482  0.94651  1
 Te  Te18  1  0.91856  0.37638  0.21449  1
 Te  Te19  1  0.42473  0.54415  0.12140  1
 Te  Te20  1  0.57527  0.45585  0.87860  1
 Te  Te21  1  0.40210  0.88208  0.15958  1
 Te  Te22  1  0.47328  0.83183  0.44473  1
 Te  Te23  1  0.08144  0.62362  0.78551  1
 Te  Te24  1  0.37638  0.91856  0.71449  1
 Te  Te25  1  0.11792  0.59790  0.34042  1
 Te  Te26  1  0.62362  0.08144  0.28551  1
 Te  Te27  1  0.16817  0.52672  0.05527  1
 Te  Te28  1  0.45585  0.57527  0.37860  1
 Te  Te29  1  0.26592  0.36265  0.75856  1
 Te  Te30  1  0.54415  0.42473  0.62140  1
 Te  Te31  1  0.88208  0.40210  0.65958  1
 Te  Te32  1  0.83183  0.47328  0.94473  1
 Zr  Zr1  1  0.78984  0.56767  0.77150  1
 Zr  Zr2  1  0.21016  0.43233  0.22850  1
 Zr  Zr3  1  0.56767  0.78984  0.27150  1
 Zr  Zr4  1  0.43233  0.21016  0.72850  1
 Zr  Zr5  1  0.89332  0.10668  0.25000  1
 Zr  Zr6  1  0.10668  0.89332  0.75000  1
