CIF file written using JARVIS-Tools package.
data_Ho4CdRh
_symmetry_space_group_name_H-M  'F-43m'
_cell_length_a       9.50189
_cell_length_b       9.50189
_cell_length_c       9.50189
_cell_angle_alpha    60
_cell_angle_beta     60
_cell_angle_gamma    60

_symmetry_Int_Tables_number  216
_chemical_formula_structural  Ho4CdRh
_chemical_formula_sum  Ho6Cd4Rh4
_cell_volume  606.6179748250781
_cell_formula_units_Z  4
loop_
  _symmetry_equiv_pos_site_id
 _symmetry_equiv_pos_as_xyz
 1  'x, y, z'
loop_
 _atom_site_type_symbol
 _atom_site_label
 _atom_site_symmetry_multiplicity
 _atom_site_fract_x
 _atom_site_fract_y
 _atom_site_fract_z
 _atom_site_fract_occupancy
 Cd  Cd1  1  0.74555  0.41815  0.41815  1
 Cd  Cd2  1  0.41815  0.41815  0.41815  1
 Cd  Cd3  1  0.41815  0.41815  0.74555  1
 Cd  Cd4  1  0.41815  0.74555  0.41815  1
 Ho  Ho1  1  0.43579  0.06421  0.43579  1
 Ho  Ho2  1  0.81091  0.81091  0.18909  1
 Ho  Ho3  1  0.06421  0.43579  0.06421  1
 Ho  Ho4  1  0.18909  0.81091  0.18909  1
 Ho  Ho5  1  0.05048  0.64984  0.64984  1
 Ho  Ho6  1  0.64984  0.64984  0.64984  1
 Ho  Ho7  1  0.81091  0.18909  0.18909  1
 Ho  Ho8  1  0.06421  0.06421  0.43579  1
 Ho  Ho9  1  0.64984  0.05048  0.64984  1
 Ho  Ho10  1  0.18909  0.81091  0.81091  1
 Ho  Ho11  1  0.18909  0.18909  0.81091  1
 Ho  Ho12  1  0.06421  0.43579  0.43579  1
 Ho  Ho13  1  0.43579  0.06421  0.06421  1
 Ho  Ho14  1  0.43579  0.43579  0.06421  1
 Ho  Ho15  1  0.81091  0.18909  0.81091  1
 Ho  Ho16  1  0.64984  0.64984  0.05048  1
 Rh  Rh1  1  0.42779  0.85740  0.85740  1
 Rh  Rh2  1  0.85740  0.85740  0.42779  1
 Rh  Rh3  1  0.85740  0.42779  0.85740  1
 Rh  Rh4  1  0.85740  0.85740  0.85740  1
