CIF file written using JARVIS-Tools package.
data_SmZrF7
_symmetry_space_group_name_H-M  'P2_1/c'
_cell_length_a       5.68459
_cell_length_b       9.13951
_cell_length_c       11.4344
_cell_angle_alpha    107.093
_cell_angle_beta     90
_cell_angle_gamma    90

_symmetry_Int_Tables_number  14
_chemical_formula_structural  SmZrF7
_chemical_formula_sum  Sm4Zr4F28
_cell_volume  567.8300549156241
_cell_formula_units_Z  4
loop_
  _symmetry_equiv_pos_site_id
 _symmetry_equiv_pos_as_xyz
 1  'x, y, z'
loop_
 _atom_site_type_symbol
 _atom_site_label
 _atom_site_symmetry_multiplicity
 _atom_site_fract_x
 _atom_site_fract_y
 _atom_site_fract_z
 _atom_site_fract_occupancy
 F  F1  1  0.40306  0.19380  0.23092  1
 F  F2  1  0.04955  0.12902  0.41634  1
 F  F3  1  0.45045  0.62902  0.91634  1
 F  F4  1  0.95045  0.87098  0.58366  1
 F  F5  1  0.55866  0.18306  0.45585  1
 F  F6  1  0.05866  0.31694  0.04415  1
 F  F7  1  0.44134  0.81694  0.54415  1
 F  F8  1  0.26029  0.42085  0.44403  1
 F  F9  1  0.02917  0.63160  0.35783  1
 F  F10  1  0.72046  0.88597  0.36385  1
 F  F11  1  0.77954  0.38597  0.86385  1
 F  F12  1  0.27954  0.11403  0.63615  1
 F  F13  1  0.23971  0.92085  0.94403  1
 F  F14  1  0.73971  0.57915  0.55597  1
 F  F15  1  0.76029  0.07915  0.05597  1
 F  F16  1  0.94134  0.68306  0.95585  1
 F  F17  1  0.54955  0.37098  0.08366  1
 F  F18  1  0.52917  0.86840  0.14217  1
 F  F19  1  0.47083  0.13160  0.85783  1
 F  F20  1  0.22046  0.61403  0.13615  1
 F  F21  1  0.97083  0.36840  0.64217  1
 F  F22  1  0.09694  0.69380  0.73092  1
 F  F23  1  0.59694  0.80620  0.76908  1
 F  F24  1  0.90306  0.30620  0.26908  1
 F  F25  1  0.04881  0.91890  0.17608  1
 F  F26  1  0.45119  0.41890  0.67608  1
 F  F27  1  0.95119  0.08110  0.82392  1
 F  F28  1  0.54881  0.58110  0.32392  1
 Sm  Sm1  1  0.75846  0.57977  0.76581  1
 Sm  Sm2  1  0.74154  0.07977  0.26581  1
 Sm  Sm3  1  0.25846  0.92023  0.73419  1
 Sm  Sm4  1  0.24154  0.42023  0.23419  1
 Zr  Zr1  1  0.25582  0.27131  0.54402  1
 Zr  Zr2  1  0.75582  0.22869  0.95598  1
 Zr  Zr3  1  0.74418  0.72869  0.45598  1
 Zr  Zr4  1  0.24418  0.77131  0.04402  1
