CIF file written using JARVIS-Tools package.
data_CeMgAg
_symmetry_space_group_name_H-M  'P-62m'
_cell_length_a       4.45678
_cell_length_b       7.52444
_cell_length_c       7.52429
_cell_angle_alpha    120.001
_cell_angle_beta     90
_cell_angle_gamma    90

_symmetry_Int_Tables_number  189
_chemical_formula_structural  CeMgAg
_chemical_formula_sum  Ce3Mg3Ag3
_cell_volume  218.51905821233453
_cell_formula_units_Z  3
loop_
  _symmetry_equiv_pos_site_id
 _symmetry_equiv_pos_as_xyz
 1  'x, y, z'
loop_
 _atom_site_type_symbol
 _atom_site_label
 _atom_site_symmetry_multiplicity
 _atom_site_fract_x
 _atom_site_fract_y
 _atom_site_fract_z
 _atom_site_fract_occupancy
 Ag  Ag1  1  0.00000  0.33332  0.66666  1
 Ag  Ag2  1  0.00000  0.66666  0.33334  1
 Ag  Ag3  1  0.50000  0.99999  0.00000  1
 Ce  Ce1  1  0.50000  0.57866  0.00000  1
 Ce  Ce2  1  0.50000  0.42132  0.42133  1
 Ce  Ce3  1  0.50000  0.99999  0.57867  1
 Mg  Mg1  1  0.00000  0.23924  0.00000  1
 Mg  Mg2  1  0.00000  0.76074  0.76075  1
 Mg  Mg3  1  0.00000  0.99998  0.23925  1
