CIF file written using JARVIS-Tools package.
data_H4N2O3
_symmetry_space_group_name_H-M  'Pna2_1'
_cell_length_a       6.33533
_cell_length_b       7.46689
_cell_length_c       6.2365
_cell_angle_alpha    90
_cell_angle_beta     90
_cell_angle_gamma    90

_symmetry_Int_Tables_number  33
_chemical_formula_structural  H4N2O3
_chemical_formula_sum  H6N8O2
_cell_volume  295.01922796536087
_cell_formula_units_Z  4
loop_
  _symmetry_equiv_pos_site_id
 _symmetry_equiv_pos_as_xyz
 1  'x, y, z'
loop_
 _atom_site_type_symbol
 _atom_site_label
 _atom_site_symmetry_multiplicity
 _atom_site_fract_x
 _atom_site_fract_y
 _atom_site_fract_z
 _atom_site_fract_occupancy
 H  H1  1  0.70444  0.52679  0.95801  1
 H  H2  1  0.47279  0.79291  0.46400  1
 H  H3  1  0.79556  0.02679  0.95801  1
 H  H4  1  0.29556  0.47321  0.45801  1
 H  H5  1  0.20444  -0.02679  0.45801  1
 H  H6  1  0.52721  0.20709  -0.03600  1
 H  H7  1  0.83239  0.72060  0.43976  1
 H  H8  1  0.28985  -0.01205  0.20740  1
 H  H9  1  0.71015  0.01205  0.70740  1
 H  H10  1  0.33239  0.77940  0.93976  1
 H  H11  1  0.21015  0.48795  0.20740  1
 H  H12  1  0.02721  0.29291  0.46400  1
 H  H13  1  0.78985  0.51205  0.70740  1
 H  H14  1  0.66761  0.22060  0.43976  1
 H  H15  1  0.97279  0.70709  -0.03600  1
 H  H16  1  0.16761  0.27940  0.93976  1
 N  N1  1  0.75423  0.10200  0.82493  1
 N  N2  1  0.74577  0.60200  0.82493  1
 N  N3  1  0.24577  0.89800  0.32493  1
 N  N4  1  0.25423  0.39800  0.32493  1
 N  N5  1  -0.03959  0.17045  0.75448  1
 N  N6  1  0.53959  0.67045  0.75448  1
 N  N7  1  0.03959  0.82955  0.25448  1
 N  N8  1  0.46041  0.32955  0.25448  1
 O  O1  1  0.89250  0.28171  0.54970  1
 O  O2  1  0.51394  0.19373  0.40845  1
 O  O3  1  0.60469  0.44058  0.21785  1
 O  O4  1  0.89531  0.94058  0.21785  1
 O  O5  1  0.39531  0.55942  0.71785  1
 O  O6  1  0.10469  0.05942  0.71785  1
 O  O7  1  0.39250  0.21829  0.04970  1
 O  O8  1  -0.01394  0.69373  0.40845  1
 O  O9  1  0.60750  0.78171  0.54970  1
 O  O10  1  0.01394  0.30627  0.90845  1
 O  O11  1  0.48606  0.80627  0.90845  1
 O  O12  1  0.10750  0.71829  0.04970  1
