CIF file written using JARVIS-Tools package.
data_CuO
_symmetry_space_group_name_H-M  'I4/mmm'
_cell_length_a       3.32194
_cell_length_b       6.49141
_cell_length_c       6.49198
_cell_angle_alpha    93.7536
_cell_angle_beta     75.1761
_cell_angle_gamma    104.825

_symmetry_Int_Tables_number  139
_chemical_formula_structural  CuO
_chemical_formula_sum  Cu4O4
_cell_volume  130.82884286183062
_cell_formula_units_Z  4
loop_
  _symmetry_equiv_pos_site_id
 _symmetry_equiv_pos_as_xyz
 1  'x, y, z'
loop_
 _atom_site_type_symbol
 _atom_site_label
 _atom_site_symmetry_multiplicity
 _atom_site_fract_x
 _atom_site_fract_y
 _atom_site_fract_z
 _atom_site_fract_occupancy
 Cu  Cu1  1  0.91539  0.83078  0.50000  1
 Cu  Cu2  1  0.58461  0.16922  0.50000  1
 Cu  Cu3  1  0.91539  0.50000  0.16922  1
 Cu  Cu4  1  0.58461  0.50000  0.83078  1
 O  O1  1  0.75001  0.77122  0.77121  1
 O  O2  1  0.02121  0.77122  0.22879  1
 O  O3  1  0.47878  0.22878  0.77121  1
 O  O4  1  0.74999  0.22878  0.22879  1
