CIF file written using JARVIS-Tools package.
data_LiMnF4
_symmetry_space_group_name_H-M  'Pbcn'
_cell_length_a       4.53442
_cell_length_b       5.01799
_cell_length_c       11.2065
_cell_angle_alpha    90
_cell_angle_beta     90
_cell_angle_gamma    90

_symmetry_Int_Tables_number  60
_chemical_formula_structural  LiMnF4
_chemical_formula_sum  Li4Mn4F6
_cell_volume  254.98872989805054
_cell_formula_units_Z  4
loop_
  _symmetry_equiv_pos_site_id
 _symmetry_equiv_pos_as_xyz
 1  'x, y, z'
loop_
 _atom_site_type_symbol
 _atom_site_label
 _atom_site_symmetry_multiplicity
 _atom_site_fract_x
 _atom_site_fract_y
 _atom_site_fract_z
 _atom_site_fract_occupancy
 F  F1  1  0.24551  0.90460  0.43580  1
 F  F2  1  0.77543  0.59617  0.19739  1
 F  F3  1  0.77543  0.09617  0.80261  1
 F  F4  1  0.74551  0.09540  0.06420  1
 F  F5  1  0.22457  0.90383  0.19739  1
 F  F6  1  0.75449  0.09540  0.56420  1
 F  F7  1  0.75449  0.59540  0.43580  1
 F  F8  1  0.74551  0.59540  0.93580  1
 F  F9  1  0.72457  0.59617  0.69739  1
 F  F10  1  0.27543  0.90383  0.69739  1
 F  F11  1  0.27543  0.40383  0.30261  1
 F  F12  1  0.22457  0.40383  0.80261  1
 F  F13  1  0.24551  0.40460  0.56420  1
 F  F14  1  0.25449  0.40460  0.06420  1
 F  F15  1  0.25449  0.90460  0.93580  1
 F  F16  1  0.72457  0.09617  0.30261  1
 Li  Li1  1  0.50000  0.25000  0.44165  1
 Li  Li2  1  0.50000  0.75000  0.55835  1
 Li  Li3  1  0.00000  0.25000  0.94165  1
 Li  Li4  1  0.00000  0.75000  0.05835  1
 Mn  Mn1  1  0.50000  0.25000  0.17708  1
 Mn  Mn2  1  0.50000  0.75000  0.82292  1
 Mn  Mn3  1  0.00000  0.25000  0.67708  1
 Mn  Mn4  1  0.00000  0.75000  0.32292  1
