CIF file written using JARVIS-Tools package.
data_LiMnO4
_symmetry_space_group_name_H-M  'Cmcm'
_cell_length_a       4.97284
_cell_length_b       4.97283
_cell_length_c       6.24169
_cell_angle_alpha    90
_cell_angle_beta     90
_cell_angle_gamma    112.774

_symmetry_Int_Tables_number  63
_chemical_formula_structural  LiMnO4
_chemical_formula_sum  Li2Mn2O8
_cell_volume  142.31826559410896
_cell_formula_units_Z  2
loop_
  _symmetry_equiv_pos_site_id
 _symmetry_equiv_pos_as_xyz
 1  'x, y, z'
loop_
 _atom_site_type_symbol
 _atom_site_label
 _atom_site_symmetry_multiplicity
 _atom_site_fract_x
 _atom_site_fract_y
 _atom_site_fract_z
 _atom_site_fract_occupancy
 Li  Li1  1  0.00000  0.00000  0.00000  1
 Li  Li2  1  0.00000  0.00000  0.50000  1
 Mn  Mn1  1  0.36085  0.63915  0.75000  1
 Mn  Mn2  1  0.63915  0.36085  0.25000  1
 O  O1  1  0.24975  0.75025  0.96079  1
 O  O2  1  0.71685  0.76784  0.75000  1
 O  O3  1  0.75025  0.24975  0.03921  1
 O  O4  1  0.75025  0.24975  0.46079  1
 O  O5  1  0.24975  0.75025  0.53921  1
 O  O6  1  0.76784  0.71685  0.25000  1
 O  O7  1  0.23216  0.28315  0.75000  1
 O  O8  1  0.28315  0.23216  0.25000  1
