CIF file written using JARVIS-Tools package.
data_K3CO3F
_symmetry_space_group_name_H-M  'R-3c'
_cell_length_a       6.86273
_cell_length_b       6.86273
_cell_length_c       6.86272
_cell_angle_alpha    65.7371
_cell_angle_beta     65.7371
_cell_angle_gamma    65.7371

_symmetry_Int_Tables_number  167
_chemical_formula_structural  K3CO3F
_chemical_formula_sum  K6C2O6F2
_cell_volume  256.99033795282526
_cell_formula_units_Z  2
loop_
  _symmetry_equiv_pos_site_id
 _symmetry_equiv_pos_as_xyz
 1  'x, y, z'
loop_
 _atom_site_type_symbol
 _atom_site_label
 _atom_site_symmetry_multiplicity
 _atom_site_fract_x
 _atom_site_fract_y
 _atom_site_fract_z
 _atom_site_fract_occupancy
 C  C1  1  0.75000  0.75000  0.75000  1
 C  C2  1  0.25000  0.25000  0.25000  1
 F  F1  1  0.50000  0.50000  0.50000  1
 F  F2  1  0.00000  0.00000  0.00000  1
 K  K1  1  0.25000  0.81869  0.68131  1
 K  K2  1  0.81869  0.68131  0.25000  1
 K  K3  1  0.68131  0.25000  0.81869  1
 K  K4  1  0.75000  0.18131  0.31869  1
 K  K5  1  0.18131  0.31869  0.75000  1
 K  K6  1  0.31869  0.75000  0.18131  1
 O  O1  1  0.25000  0.42537  0.07463  1
 O  O2  1  0.42537  0.07463  0.25000  1
 O  O3  1  0.07463  0.25000  0.42537  1
 O  O4  1  0.75000  0.57463  0.92537  1
 O  O5  1  0.92537  0.75000  0.57463  1
 O  O6  1  0.57463  0.92537  0.75000  1
