CIF file written using JARVIS-Tools package.
data_Ag2Se
_symmetry_space_group_name_H-M  'P2_12_12_1'
_cell_length_a       4.55078
_cell_length_b       7.08574
_cell_length_c       7.54354
_cell_angle_alpha    90
_cell_angle_beta     90
_cell_angle_gamma    90

_symmetry_Int_Tables_number  19
_chemical_formula_structural  Ag2Se
_chemical_formula_sum  Ag8Se4
_cell_volume  243.24607969323037
_cell_formula_units_Z  4
loop_
  _symmetry_equiv_pos_site_id
 _symmetry_equiv_pos_as_xyz
 1  'x, y, z'
loop_
 _atom_site_type_symbol
 _atom_site_label
 _atom_site_symmetry_multiplicity
 _atom_site_fract_x
 _atom_site_fract_y
 _atom_site_fract_z
 _atom_site_fract_occupancy
 Ag  Ag1  1  0.00759  0.23125  0.87652  1
 Ag  Ag2  1  0.69795  0.87845  0.94801  1
 Ag  Ag3  1  0.49241  0.76875  0.37652  1
 Ag  Ag4  1  0.19795  0.62155  0.05199  1
 Ag  Ag5  1  0.80205  0.12155  0.44801  1
 Ag  Ag6  1  0.99241  0.73125  0.62348  1
 Ag  Ag7  1  0.30205  0.37845  0.55199  1
 Ag  Ag8  1  0.50759  0.26875  0.12348  1
 Se  Se1  1  0.87897  0.49291  0.32917  1
 Se  Se2  1  0.12103  0.99291  0.17083  1
 Se  Se3  1  0.37897  0.00709  0.67083  1
 Se  Se4  1  0.62103  0.50709  0.82917  1
