CIF file written using JARVIS-Tools package.
data_CrO
_symmetry_space_group_name_H-M  'P4_2/mmc'
_cell_length_a       2.96618
_cell_length_b       4.18759
_cell_length_c       6.69628
_cell_angle_alpha    51.316
_cell_angle_beta     116.18
_cell_angle_gamma    134.9

_symmetry_Int_Tables_number  131
_chemical_formula_structural  CrO
_chemical_formula_sum  Cr2O2
_cell_volume  45.990277866285595
_cell_formula_units_Z  2
loop_
  _symmetry_equiv_pos_site_id
 _symmetry_equiv_pos_as_xyz
 1  'x, y, z'
loop_
 _atom_site_type_symbol
 _atom_site_label
 _atom_site_symmetry_multiplicity
 _atom_site_fract_x
 _atom_site_fract_y
 _atom_site_fract_z
 _atom_site_fract_occupancy
 Cr  Cr1  1  -0.00000  0.00003  0.90000  1
 Cr  Cr2  1  0.00001  0.00003  0.40000  1
 O  O1  1  0.49979  0.74988  0.15003  1
 O  O2  1  0.50021  0.25016  0.64997  1
