CIF file written using JARVIS-Tools package.
data_BeTcRh4
_symmetry_space_group_name_H-M  'F-43m'
_cell_length_a       5.00643
_cell_length_b       5.00643
_cell_length_c       5.00643
_cell_angle_alpha    60
_cell_angle_beta     60
_cell_angle_gamma    60

_symmetry_Int_Tables_number  216
_chemical_formula_structural  BeTcRh4
_chemical_formula_sum  BeTcRh4
_cell_volume  88.72962756850934
_cell_formula_units_Z  1
loop_
  _symmetry_equiv_pos_site_id
 _symmetry_equiv_pos_as_xyz
 1  'x, y, z'
loop_
 _atom_site_type_symbol
 _atom_site_label
 _atom_site_symmetry_multiplicity
 _atom_site_fract_x
 _atom_site_fract_y
 _atom_site_fract_z
 _atom_site_fract_occupancy
 Be  Be1  1  0.00000  0.00000  0.00000  1
 Rh  Rh1  1  0.37456  0.37456  0.37456  1
 Rh  Rh2  1  0.37456  0.87633  0.37456  1
 Rh  Rh3  1  0.37456  0.37456  0.87633  1
 Rh  Rh4  1  0.87633  0.37456  0.37456  1
 Tc  Tc1  1  0.75000  0.75000  0.75000  1
