CIF file written using JARVIS-Tools package.
data_H3NO4
_symmetry_space_group_name_H-M  'Pna2_1'
_cell_length_a       5.02424
_cell_length_b       9.21911
_cell_length_c       6.12127
_cell_angle_alpha    90
_cell_angle_beta     90
_cell_angle_gamma    90

_symmetry_Int_Tables_number  33
_chemical_formula_structural  H3NO4
_chemical_formula_sum  H2N4O6
_cell_volume  283.5315507303561
_cell_formula_units_Z  4
loop_
  _symmetry_equiv_pos_site_id
 _symmetry_equiv_pos_as_xyz
 1  'x, y, z'
loop_
 _atom_site_type_symbol
 _atom_site_label
 _atom_site_symmetry_multiplicity
 _atom_site_fract_x
 _atom_site_fract_y
 _atom_site_fract_z
 _atom_site_fract_occupancy
 H  H1  1  0.70460  0.37722  0.62465  1
 H  H2  1  0.20460  0.62278  0.37535  1
 H  H3  1  0.20460  0.87722  0.87535  1
 H  H4  1  0.70460  0.12278  0.12465  1
 H  H5  1  0.59608  0.32762  0.11817  1
 H  H6  1  0.39895  0.22981  -0.02323  1
 H  H7  1  0.09608  0.67238  -0.11817  1
 H  H8  1  0.89895  0.77019  0.02323  1
 H  H9  1  0.09608  0.82762  0.38183  1
 H  H10  1  0.89895  0.72981  0.52323  1
 H  H11  1  0.59608  0.17238  0.61817  1
 H  H12  1  0.39895  0.27019  0.47677  1
 N  N1  1  0.03744  0.41007  0.79181  1
 N  N2  1  0.53744  0.58993  0.20819  1
 N  N3  1  0.53744  0.91007  0.70819  1
 N  N4  1  0.03744  0.08993  0.29181  1
 O  O1  1  0.01906  0.72898  0.39651  1
 O  O2  1  0.85066  0.46511  0.65739  1
 O  O3  1  0.35066  0.53489  0.34261  1
 O  O4  1  0.35066  0.96511  0.84261  1
 O  O5  1  0.85066  0.03489  0.15739  1
 O  O6  1  0.21390  0.49603  0.85199  1
 O  O7  1  0.71390  -0.00397  0.64801  1
 O  O8  1  0.21390  0.00397  0.35199  1
 O  O9  1  0.52497  0.71917  0.15576  1
 O  O10  1  0.52497  0.78083  0.65576  1
 O  O11  1  0.02497  0.21917  0.34424  1
 O  O12  1  0.51906  0.22898  0.10349  1
 O  O13  1  0.01906  0.77102  0.89651  1
 O  O14  1  0.71390  0.50397  0.14801  1
 O  O15  1  0.02497  0.28083  0.84424  1
 O  O16  1  0.51906  0.27102  0.60349  1
