CIF file written using JARVIS-Tools package.
data_Sn3Te3Ir2
_symmetry_space_group_name_H-M  'R-3'
_cell_length_a       9.49117
_cell_length_b       9.49118
_cell_length_c       9.49118
_cell_angle_alpha    89.942
_cell_angle_beta     89.942
_cell_angle_gamma    89.942

_symmetry_Int_Tables_number  148
_chemical_formula_structural  Sn3Te3Ir2
_chemical_formula_sum  Sn2Te2Ir8
_cell_volume  854.9866598154251
_cell_formula_units_Z  4
loop_
  _symmetry_equiv_pos_site_id
 _symmetry_equiv_pos_as_xyz
 1  'x, y, z'
loop_
 _atom_site_type_symbol
 _atom_site_label
 _atom_site_symmetry_multiplicity
 _atom_site_fract_x
 _atom_site_fract_y
 _atom_site_fract_z
 _atom_site_fract_occupancy
 Ir  Ir1  1  0.24987  0.24987  0.24987  1
 Ir  Ir2  1  0.75138  0.25241  0.75097  1
 Ir  Ir3  1  0.75097  0.75138  0.25241  1
 Ir  Ir4  1  0.74759  0.24903  0.24862  1
 Ir  Ir5  1  0.24862  0.74759  0.24903  1
 Ir  Ir6  1  0.24903  0.24862  0.74759  1
 Ir  Ir7  1  0.75013  0.75013  0.75013  1
 Ir  Ir8  1  0.25241  0.75097  0.75138  1
 Sn  Sn1  1  0.49967  0.82410  0.34021  1
 Sn  Sn2  1  0.17590  0.65979  0.50033  1
 Sn  Sn3  1  0.82410  0.34021  0.49967  1
 Sn  Sn4  1  0.50033  0.17590  0.65979  1
 Sn  Sn5  1  0.00206  0.67614  0.84068  1
 Sn  Sn6  1  0.32386  0.15932  0.99794  1
 Sn  Sn7  1  0.15932  0.99794  0.32386  1
 Sn  Sn8  1  0.34021  0.49967  0.82410  1
 Sn  Sn9  1  0.84068  0.00206  0.67614  1
 Sn  Sn10  1  0.67614  0.84068  0.00206  1
 Sn  Sn11  1  0.99794  0.32386  0.15932  1
 Sn  Sn12  1  0.65979  0.50033  0.17590  1
 Te  Te1  1  0.84598  0.65003  0.50257  1
 Te  Te2  1  0.15044  0.00014  0.65423  1
 Te  Te3  1  0.65423  0.15044  0.00014  1
 Te  Te4  1  0.15402  0.34997  0.49743  1
 Te  Te5  1  0.65003  0.50257  0.84598  1
 Te  Te6  1  0.49743  0.15402  0.34997  1
 Te  Te7  1  0.99986  0.34577  0.84956  1
 Te  Te8  1  0.34577  0.84956  0.99986  1
 Te  Te9  1  0.00014  0.65423  0.15044  1
 Te  Te10  1  0.34997  0.49743  0.15402  1
 Te  Te11  1  0.50257  0.84598  0.65003  1
 Te  Te12  1  0.84956  0.99986  0.34577  1
