CIF file written using JARVIS-Tools package.
data_Mg5Tl2
_symmetry_space_group_name_H-M  'Ibam'
_cell_length_a       6.19225
_cell_length_b       7.37251
_cell_length_c       8.61346
_cell_angle_alpha    115.318
_cell_angle_beta     111.041
_cell_angle_gamma    90.0148

_symmetry_Int_Tables_number  72
_chemical_formula_structural  Mg5Tl2
_chemical_formula_sum  Mg0Tl4
_cell_volume  326.1942550680617
_cell_formula_units_Z  2
loop_
  _symmetry_equiv_pos_site_id
 _symmetry_equiv_pos_as_xyz
 1  'x, y, z'
loop_
 _atom_site_type_symbol
 _atom_site_label
 _atom_site_symmetry_multiplicity
 _atom_site_fract_x
 _atom_site_fract_y
 _atom_site_fract_z
 _atom_site_fract_occupancy
 Mg  Mg1  1  0.41383  0.07554  0.82789  1
 Mg  Mg2  1  0.48263  0.73257  0.46502  1
 Mg  Mg3  1  0.24998  0.50003  0.00002  1
 Mg  Mg4  1  0.08607  0.24770  0.17209  1
 Mg  Mg5  1  0.58617  0.92446  0.17211  1
 Mg  Mg6  1  0.51737  0.26743  0.53498  1
 Mg  Mg7  1  0.01740  0.26756  0.53492  1
 Mg  Mg8  1  0.98260  0.73244  0.46508  1
 Mg  Mg9  1  0.91393  0.75230  0.82791  1
 Mg  Mg10  1  0.75002  0.49997  -0.00002  1
 Tl  Tl1  1  0.62234  0.35415  0.24472  1
 Tl  Tl2  1  0.87760  0.10938  0.75521  1
 Tl  Tl3  1  0.12240  0.89062  0.24479  1
 Tl  Tl4  1  0.37766  0.64585  0.75528  1
