CIF file written using JARVIS-Tools package.
data_Ce7O12
_symmetry_space_group_name_H-M  'R-3'
_cell_length_a       6.7723
_cell_length_b       6.77229
_cell_length_c       6.7723
_cell_angle_alpha    99.6236
_cell_angle_beta     99.6235
_cell_angle_gamma    99.6236

_symmetry_Int_Tables_number  148
_chemical_formula_structural  Ce7O12
_chemical_formula_sum  Ce7O2
_cell_volume  295.7786109305174
_cell_formula_units_Z  1
loop_
  _symmetry_equiv_pos_site_id
 _symmetry_equiv_pos_as_xyz
 1  'x, y, z'
loop_
 _atom_site_type_symbol
 _atom_site_label
 _atom_site_symmetry_multiplicity
 _atom_site_fract_x
 _atom_site_fract_y
 _atom_site_fract_z
 _atom_site_fract_occupancy
 Ce  Ce1  1  0.00000  0.00000  0.00000  1
 Ce  Ce2  1  0.13883  0.60091  0.29949  1
 Ce  Ce3  1  0.29949  0.13883  0.60091  1
 Ce  Ce4  1  0.39909  0.70051  0.86117  1
 Ce  Ce5  1  0.86117  0.39909  0.70051  1
 Ce  Ce6  1  0.70051  0.86117  0.39909  1
 Ce  Ce7  1  0.60091  0.29949  0.13883  1
 O  O1  1  0.07231  0.67840  0.93209  1
 O  O2  1  0.67840  0.93209  0.07231  1
 O  O3  1  0.06791  0.92769  0.32160  1
 O  O4  1  0.92769  0.32160  0.06791  1
 O  O5  1  0.32160  0.06791  0.92769  1
 O  O6  1  0.93209  0.07231  0.67840  1
 O  O7  1  0.58211  0.17768  0.43377  1
 O  O8  1  0.43377  0.58211  0.17768  1
 O  O9  1  0.41789  0.82232  0.56623  1
 O  O10  1  0.56623  0.41789  0.82232  1
 O  O11  1  0.82232  0.56623  0.41789  1
 O  O12  1  0.17768  0.43377  0.58211  1
