CIF file written using JARVIS-Tools package.
data_Ba3Nb2CoO9
_symmetry_space_group_name_H-M  'P-3m1'
_cell_length_a       5.82216
_cell_length_b       5.82214
_cell_length_c       7.15066
_cell_angle_alpha    89.999
_cell_angle_beta     90.0024
_cell_angle_gamma    120

_symmetry_Int_Tables_number  164
_chemical_formula_structural  Ba3Nb2CoO9
_chemical_formula_sum  Ba3Nb2CoO9
_cell_volume  209.91412103304705
_cell_formula_units_Z  1
loop_
  _symmetry_equiv_pos_site_id
 _symmetry_equiv_pos_as_xyz
 1  'x, y, z'
loop_
 _atom_site_type_symbol
 _atom_site_label
 _atom_site_symmetry_multiplicity
 _atom_site_fract_x
 _atom_site_fract_y
 _atom_site_fract_z
 _atom_site_fract_occupancy
 Ba  Ba1  1  0.66666  0.33333  0.33576  1
 Ba  Ba2  1  0.00000  0.00000  0.00000  1
 Ba  Ba3  1  0.33334  0.66667  0.66424  1
 Co  Co1  1  0.00000  0.00000  0.50000  1
 Nb  Nb1  1  0.33333  0.66668  0.17860  1
 Nb  Nb2  1  0.66667  0.33332  0.82140  1
 O  O1  1  0.50000  0.50000  0.00000  1
 O  O2  1  0.16968  0.33938  0.32829  1
 O  O3  1  0.83032  0.66062  0.67171  1
 O  O4  1  -0.00000  0.50000  0.00000  1
 O  O5  1  0.16969  0.83034  0.32826  1
 O  O6  1  0.33934  0.16965  0.67172  1
 O  O7  1  0.83031  0.16966  0.67174  1
 O  O8  1  0.66066  0.83035  0.32828  1
 O  O9  1  0.50000  0.00000  -0.00000  1
