CIF file written using JARVIS-Tools package.
data_Li2CoO2F
_symmetry_space_group_name_H-M  'P-3m1'
_cell_length_a       2.84377
_cell_length_b       2.84377
_cell_length_c       13.9079
_cell_angle_alpha    90
_cell_angle_beta     90
_cell_angle_gamma    120

_symmetry_Int_Tables_number  164
_chemical_formula_structural  Li2CoO2F
_chemical_formula_sum  Li4Co2O4F2
_cell_volume  97.40540399585478
_cell_formula_units_Z  2
loop_
  _symmetry_equiv_pos_site_id
 _symmetry_equiv_pos_as_xyz
 1  'x, y, z'
loop_
 _atom_site_type_symbol
 _atom_site_label
 _atom_site_symmetry_multiplicity
 _atom_site_fract_x
 _atom_site_fract_y
 _atom_site_fract_z
 _atom_site_fract_occupancy
 Co  Co1  1  0.66667  0.33333  0.83351  1
 Co  Co2  1  0.33333  0.66667  0.16649  1
 F  F1  1  0.66667  0.33333  0.58336  1
 F  F2  1  0.33333  0.66667  0.41664  1
 Li  Li1  1  0.66667  0.33333  0.33378  1
 Li  Li2  1  0.33333  0.66667  0.66622  1
 Li  Li3  1  0.00000  0.00000  0.00000  1
 Li  Li4  1  0.00000  0.00000  0.50000  1
 O  O1  1  0.66667  0.33333  0.09327  1
 O  O2  1  0.33333  0.66667  0.90673  1
 O  O3  1  0.00000  0.00000  0.23975  1
 O  O4  1  0.00000  0.00000  0.76025  1
