CIF file written using JARVIS-Tools package.
data_Li3MnF6
_symmetry_space_group_name_H-M  'P2_1/c'
_cell_length_a       5.03552
_cell_length_b       5.12889
_cell_length_c       9.02187
_cell_angle_alpha    90
_cell_angle_beta     121.657
_cell_angle_gamma    90

_symmetry_Int_Tables_number  14
_chemical_formula_structural  Li3MnF6
_chemical_formula_sum  Li6Mn2F2
_cell_volume  198.33537854455395
_cell_formula_units_Z  2
loop_
  _symmetry_equiv_pos_site_id
 _symmetry_equiv_pos_as_xyz
 1  'x, y, z'
loop_
 _atom_site_type_symbol
 _atom_site_label
 _atom_site_symmetry_multiplicity
 _atom_site_fract_x
 _atom_site_fract_y
 _atom_site_fract_z
 _atom_site_fract_occupancy
 F  F1  1  0.75139  0.83393  0.07115  1
 F  F2  1  0.38565  0.90401  0.25355  1
 F  F3  1  0.91955  0.31502  0.07212  1
 F  F4  1  0.75139  0.66607  0.57115  1
 F  F5  1  0.24861  0.16607  0.92885  1
 F  F6  1  0.08045  0.68498  0.92788  1
 F  F7  1  0.61435  0.40401  0.24645  1
 F  F8  1  0.38565  0.59599  0.75355  1
 F  F9  1  0.08045  0.81502  0.42788  1
 F  F10  1  0.61435  0.09599  0.74645  1
 F  F11  1  0.24861  0.33393  0.42885  1
 F  F12  1  0.91955  0.18498  0.57212  1
 Li  Li1  1  0.26860  0.53589  0.24904  1
 Li  Li2  1  0.73140  0.03589  0.25096  1
 Li  Li3  1  0.26860  0.96411  0.74904  1
 Li  Li4  1  0.50000  0.50000  -0.00000  1
 Li  Li5  1  0.73140  0.46411  0.75096  1
 Li  Li6  1  0.50000  0.00000  0.50000  1
 Mn  Mn1  1  0.00000  0.50000  0.50000  1
 Mn  Mn2  1  0.00000  0.00000  0.00000  1
