CIF file written using JARVIS-Tools package.
data_TaReSi
_symmetry_space_group_name_H-M  'P-62m'
_cell_length_a       3.29331
_cell_length_b       6.90746
_cell_length_c       6.90744
_cell_angle_alpha    120
_cell_angle_beta     90
_cell_angle_gamma    90

_symmetry_Int_Tables_number  189
_chemical_formula_structural  TaReSi
_chemical_formula_sum  Ta3Re3Si3
_cell_volume  136.0812245142031
_cell_formula_units_Z  3
loop_
  _symmetry_equiv_pos_site_id
 _symmetry_equiv_pos_as_xyz
 1  'x, y, z'
loop_
 _atom_site_type_symbol
 _atom_site_label
 _atom_site_symmetry_multiplicity
 _atom_site_fract_x
 _atom_site_fract_y
 _atom_site_fract_z
 _atom_site_fract_occupancy
 Re  Re1  1  0.00000  0.26160  0.00000  1
 Re  Re2  1  0.00000  0.73839  0.73841  1
 Re  Re3  1  0.00000  0.99998  0.26159  1
 Si  Si1  1  0.00000  0.33332  0.66667  1
 Si  Si2  1  0.00000  0.66664  0.33333  1
 Si  Si3  1  0.50000  0.00001  -0.00000  1
 Ta  Ta1  1  0.50000  0.60000  -0.00000  1
 Ta  Ta2  1  0.50000  0.39999  0.40002  1
 Ta  Ta3  1  0.50000  0.99997  0.59998  1
