CIF file written using JARVIS-Tools package.
data_Rb4CO4
_symmetry_space_group_name_H-M  'P2_1'
_cell_length_a       5.9054
_cell_length_b       6.9787
_cell_length_c       8.31863
_cell_angle_alpha    88.0318
_cell_angle_beta     90
_cell_angle_gamma    90

_symmetry_Int_Tables_number  4
_chemical_formula_structural  Rb4CO4
_chemical_formula_sum  Rb8C2O8
_cell_volume  342.62512052233217
_cell_formula_units_Z  2
loop_
  _symmetry_equiv_pos_site_id
 _symmetry_equiv_pos_as_xyz
 1  'x, y, z'
loop_
 _atom_site_type_symbol
 _atom_site_label
 _atom_site_symmetry_multiplicity
 _atom_site_fract_x
 _atom_site_fract_y
 _atom_site_fract_z
 _atom_site_fract_occupancy
 C  C1  1  0.76854  0.70958  0.26483  1
 C  C2  1  0.26854  0.29042  0.73517  1
 O  O1  1  0.94029  0.77505  0.36885  1
 O  O2  1  0.44029  0.22495  0.63115  1
 O  O3  1  0.81264  0.78139  0.10170  1
 O  O4  1  0.76661  0.50068  0.26812  1
 O  O5  1  0.05122  0.22581  0.68308  1
 O  O6  1  0.26661  0.49932  0.73188  1
 O  O7  1  0.55122  0.77419  0.31692  1
 O  O8  1  0.31264  0.21861  0.89830  1
 Rb  Rb1  1  0.23618  0.87073  0.59975  1
 Rb  Rb2  1  0.73035  0.54173  0.60279  1
 Rb  Rb3  1  0.41166  0.58585  0.03413  1
 Rb  Rb4  1  0.21580  -0.00604  0.16663  1
 Rb  Rb5  1  0.91166  0.41415  0.96587  1
 Rb  Rb6  1  0.71580  0.00604  0.83337  1
 Rb  Rb7  1  0.23035  0.45827  0.39721  1
 Rb  Rb8  1  0.73618  0.12927  0.40025  1
