CIF file written using JARVIS-Tools package.
data_Mg
_symmetry_space_group_name_H-M  'R-3m'
_cell_length_a       3.19202
_cell_length_b       3.19202
_cell_length_c       23.36
_cell_angle_alpha    90
_cell_angle_beta     90
_cell_angle_gamma    120

_symmetry_Int_Tables_number  166
_chemical_formula_structural  Mg
_chemical_formula_sum  Mg9
_cell_volume  206.12594619824537
_cell_formula_units_Z  9
loop_
  _symmetry_equiv_pos_site_id
 _symmetry_equiv_pos_as_xyz
 1  'x, y, z'
loop_
 _atom_site_type_symbol
 _atom_site_label
 _atom_site_symmetry_multiplicity
 _atom_site_fract_x
 _atom_site_fract_y
 _atom_site_fract_z
 _atom_site_fract_occupancy
 Mg  Mg1  1  0.00000  0.00000  0.00000  1
 Mg  Mg2  1  0.00000  0.00000  0.22202  1
 Mg  Mg3  1  0.66667  0.33333  0.11131  1
 Mg  Mg4  1  0.66667  0.33333  0.33333  1
 Mg  Mg5  1  0.66667  0.33333  0.55535  1
 Mg  Mg6  1  0.33333  0.66667  0.44465  1
 Mg  Mg7  1  0.33333  0.66667  0.66667  1
 Mg  Mg8  1  0.33333  0.66667  0.88869  1
 Mg  Mg9  1  0.00000  0.00000  0.77798  1
