CIF file written using JARVIS-Tools package.
data_VCu3O4
_symmetry_space_group_name_H-M  'I-42m'
_cell_length_a       4.57901
_cell_length_b       4.57901
_cell_length_c       5.55044
_cell_angle_alpha    114.361
_cell_angle_beta     114.361
_cell_angle_gamma    90

_symmetry_Int_Tables_number  121
_chemical_formula_structural  VCu3O4
_chemical_formula_sum  VCu3O4
_cell_volume  94.52439735206775
_cell_formula_units_Z  1
loop_
  _symmetry_equiv_pos_site_id
 _symmetry_equiv_pos_as_xyz
 1  'x, y, z'
loop_
 _atom_site_type_symbol
 _atom_site_label
 _atom_site_symmetry_multiplicity
 _atom_site_fract_x
 _atom_site_fract_y
 _atom_site_fract_z
 _atom_site_fract_occupancy
 Cu  Cu1  1  0.25000  0.75000  0.50000  1
 Cu  Cu2  1  0.50000  0.50000  0.00000  1
 Cu  Cu3  1  0.75000  0.25000  0.50000  1
 O  O1  1  0.11114  0.11114  0.77225  1
 O  O2  1  0.33889  0.88886  0.22775  1
 O  O3  1  0.88886  0.33889  0.22775  1
 O  O4  1  0.66111  0.66111  0.77225  1
 V  V1  1  0.00000  0.00000  0.00000  1
