CIF file written using JARVIS-Tools package.
data_Ca4Ni3C5
_symmetry_space_group_name_H-M  'C2/m'
_cell_length_a       3.76086
_cell_length_b       5.85558
_cell_length_c       9.34148
_cell_angle_alpha    76.2592
_cell_angle_beta     78.387
_cell_angle_gamma    71.2684

_symmetry_Int_Tables_number  12
_chemical_formula_structural  Ca4Ni3C5
_chemical_formula_sum  Ca4Ni3C5
_cell_volume  187.49083040668341
_cell_formula_units_Z  1
loop_
  _symmetry_equiv_pos_site_id
 _symmetry_equiv_pos_as_xyz
 1  'x, y, z'
loop_
 _atom_site_type_symbol
 _atom_site_label
 _atom_site_symmetry_multiplicity
 _atom_site_fract_x
 _atom_site_fract_y
 _atom_site_fract_z
 _atom_site_fract_occupancy
 C  C1  1  0.39766  0.51686  0.68782  1
 C  C2  1  0.50000  0.00000  -0.00000  1
 C  C3  1  0.67394  0.26260  0.38952  1
 C  C4  1  0.32606  0.73740  0.61048  1
 C  C5  1  0.60234  0.48314  0.31218  1
 Ca  Ca1  1  0.10039  0.19825  0.60098  1
 Ca  Ca2  1  0.74387  0.67530  0.83696  1
 Ca  Ca3  1  0.25613  0.32470  0.16304  1
 Ca  Ca4  1  0.89961  0.80175  0.39902  1
 Ni  Ni1  1  0.54172  0.75236  0.16421  1
 Ni  Ni2  1  0.00000  0.00000  0.00000  1
 Ni  Ni3  1  0.45828  0.24764  0.83579  1
