CIF file written using JARVIS-Tools package.
data_CdSO3
_symmetry_space_group_name_H-M  'P2_1/c'
_cell_length_a       5.62047
_cell_length_b       8.50231
_cell_length_c       12.6094
_cell_angle_alpha    90
_cell_angle_beta     90
_cell_angle_gamma    99.8259

_symmetry_Int_Tables_number  14
_chemical_formula_structural  CdSO3
_chemical_formula_sum  Cd8S8O24
_cell_volume  593.7250505387186
_cell_formula_units_Z  8
loop_
  _symmetry_equiv_pos_site_id
 _symmetry_equiv_pos_as_xyz
 1  'x, y, z'
loop_
 _atom_site_type_symbol
 _atom_site_label
 _atom_site_symmetry_multiplicity
 _atom_site_fract_x
 _atom_site_fract_y
 _atom_site_fract_z
 _atom_site_fract_occupancy
 Cd  Cd1  1  0.67692  0.88195  0.42013  1
 Cd  Cd2  1  0.13297  0.64420  0.25616  1
 Cd  Cd3  1  0.32308  0.61805  0.92013  1
 Cd  Cd4  1  0.86703  0.35580  0.74384  1
 Cd  Cd5  1  0.86703  0.85580  0.75616  1
 Cd  Cd6  1  0.32308  0.11805  0.57987  1
 Cd  Cd7  1  0.67692  0.38195  0.07987  1
 Cd  Cd8  1  0.13297  0.14420  0.24384  1
 O  O1  1  0.49007  0.13883  0.14740  1
 O  O2  1  0.24544  0.51555  0.75073  1
 O  O3  1  0.68459  0.08860  0.75418  1
 O  O4  1  0.00458  0.76125  0.90977  1
 O  O5  1  0.49007  0.63883  0.35260  1
 O  O6  1  0.24544  0.01555  0.74927  1
 O  O7  1  0.66325  0.13871  0.47422  1
 O  O8  1  0.50993  0.36117  0.64740  1
 O  O9  1  0.31541  0.41140  0.25418  1
 O  O10  1  0.50993  0.86117  0.85260  1
 O  O11  1  0.91501  0.84016  0.57812  1
 O  O12  1  0.31541  0.91140  0.24582  1
 O  O13  1  0.99542  0.23875  0.09023  1
 O  O14  1  0.33675  0.36129  0.97422  1
 O  O15  1  0.75456  0.48445  0.24927  1
 O  O16  1  0.00458  0.26125  0.59023  1
 O  O17  1  0.08499  0.65984  0.07812  1
 O  O18  1  0.91501  0.34016  0.92188  1
 O  O19  1  0.66325  0.63871  0.02578  1
 O  O20  1  0.33675  0.86129  0.52578  1
 O  O21  1  0.75456  0.98445  0.25073  1
 O  O22  1  0.99542  0.73875  0.40977  1
 O  O23  1  0.68459  0.58860  0.74582  1
 O  O24  1  0.08499  0.15984  0.42188  1
 S  S1  1  0.46290  0.53177  0.67135  1
 S  S2  1  0.53710  0.46823  0.32865  1
 S  S3  1  0.53710  0.96823  0.17135  1
 S  S4  1  0.46290  0.03177  0.82865  1
 S  S5  1  0.09441  0.74161  0.52474  1
 S  S6  1  0.09441  0.24161  0.97526  1
 S  S7  1  0.90559  0.75839  0.02474  1
 S  S8  1  0.90559  0.25839  0.47526  1
