CIF file written using JARVIS-Tools package.
data_TiInFe2
_symmetry_space_group_name_H-M  'Fm-3m'
_cell_length_a       4.28822
_cell_length_b       4.28822
_cell_length_c       4.28822
_cell_angle_alpha    60
_cell_angle_beta     60
_cell_angle_gamma    60

_symmetry_Int_Tables_number  225
_chemical_formula_structural  TiInFe2
_chemical_formula_sum  TiInFe2
_cell_volume  55.759420568019266
_cell_formula_units_Z  1
loop_
  _symmetry_equiv_pos_site_id
 _symmetry_equiv_pos_as_xyz
 1  'x, y, z'
loop_
 _atom_site_type_symbol
 _atom_site_label
 _atom_site_symmetry_multiplicity
 _atom_site_fract_x
 _atom_site_fract_y
 _atom_site_fract_z
 _atom_site_fract_occupancy
 Fe  Fe1  1  0.25000  0.25000  0.25000  1
 Fe  Fe2  1  0.75000  0.75000  0.75000  1
 In  In1  1  0.50000  0.50000  0.50000  1
 Ti  Ti1  1  0.00000  0.00000  0.00000  1
