CIF file written using JARVIS-Tools package.
data_Tm2Ni17
_symmetry_space_group_name_H-M  'P6_3/mmc'
_cell_length_a       8.2123
_cell_length_b       8.2123
_cell_length_c       7.96467
_cell_angle_alpha    90
_cell_angle_beta     90
_cell_angle_gamma    120

_symmetry_Int_Tables_number  194
_chemical_formula_structural  Tm2Ni17
_chemical_formula_sum  Tm4Ni34
_cell_volume  465.18814754593654
_cell_formula_units_Z  2
loop_
  _symmetry_equiv_pos_site_id
 _symmetry_equiv_pos_as_xyz
 1  'x, y, z'
loop_
 _atom_site_type_symbol
 _atom_site_label
 _atom_site_symmetry_multiplicity
 _atom_site_fract_x
 _atom_site_fract_y
 _atom_site_fract_z
 _atom_site_fract_occupancy
 Ni  Ni1  1  0.83504  0.67007  0.02252  1
 Ni  Ni2  1  0.66667  0.33333  0.60075  1
 Ni  Ni3  1  0.66667  0.33333  0.89925  1
 Ni  Ni4  1  0.33333  0.66667  0.39925  1
 Ni  Ni5  1  0.50000  0.00000  0.00000  1
 Ni  Ni6  1  0.50000  0.50000  0.50000  1
 Ni  Ni7  1  -0.00000  0.50000  0.50000  1
 Ni  Ni8  1  -0.00000  0.50000  0.00000  1
 Ni  Ni9  1  0.50000  0.50000  0.00000  1
 Ni  Ni10  1  0.50000  0.00000  0.50000  1
 Ni  Ni11  1  0.32740  0.95836  0.25000  1
 Ni  Ni12  1  0.36903  0.32740  0.75000  1
 Ni  Ni13  1  0.95836  0.63097  0.75000  1
 Ni  Ni14  1  0.04164  0.36903  0.25000  1
 Ni  Ni15  1  0.63097  0.67260  0.25000  1
 Ni  Ni16  1  0.36903  0.04164  0.75000  1
 Ni  Ni17  1  0.67260  0.63097  0.75000  1
 Ni  Ni18  1  0.33333  0.66667  0.10075  1
 Ni  Ni19  1  0.95836  0.32740  0.75000  1
 Ni  Ni20  1  0.63097  0.95836  0.25000  1
 Ni  Ni21  1  0.16496  0.83504  0.52252  1
 Ni  Ni22  1  0.16496  0.32993  0.52252  1
 Ni  Ni23  1  0.67007  0.83504  0.52252  1
 Ni  Ni24  1  0.32993  0.16496  0.02252  1
 Ni  Ni25  1  0.67260  0.04164  0.75000  1
 Ni  Ni26  1  0.83504  0.16496  0.02252  1
 Ni  Ni27  1  0.83504  0.67007  0.47748  1
 Ni  Ni28  1  0.16496  0.83504  0.97748  1
 Ni  Ni29  1  0.67007  0.83504  0.97748  1
 Ni  Ni30  1  0.32993  0.16496  0.47748  1
 Ni  Ni31  1  0.83504  0.16496  0.47748  1
 Ni  Ni32  1  0.16496  0.32993  0.97748  1
 Ni  Ni33  1  0.32740  0.36903  0.25000  1
 Ni  Ni34  1  0.04164  0.67260  0.25000  1
 Tm  Tm1  1  0.00000  0.00000  0.75000  1
 Tm  Tm2  1  0.33333  0.66667  0.75000  1
 Tm  Tm3  1  0.00000  0.00000  0.25000  1
 Tm  Tm4  1  0.66667  0.33333  0.25000  1
