CIF file written using JARVIS-Tools package.
data_KTmI3
_symmetry_space_group_name_H-M  'Cmcm'
_cell_length_a       4.12563
_cell_length_b       8.03441
_cell_length_c       11.4466
_cell_angle_alpha    90
_cell_angle_beta     90
_cell_angle_gamma    104.877

_symmetry_Int_Tables_number  63
_chemical_formula_structural  KTmI3
_chemical_formula_sum  K2Tm2I6
_cell_volume  366.70169999184816
_cell_formula_units_Z  2
loop_
  _symmetry_equiv_pos_site_id
 _symmetry_equiv_pos_as_xyz
 1  'x, y, z'
loop_
 _atom_site_type_symbol
 _atom_site_label
 _atom_site_symmetry_multiplicity
 _atom_site_fract_x
 _atom_site_fract_y
 _atom_site_fract_z
 _atom_site_fract_occupancy
 I  I1  1  0.36039  0.72077  0.44563  1
 I  I2  1  0.36039  0.72077  0.05437  1
 I  I3  1  0.63961  0.27923  0.55437  1
 I  I4  1  0.63961  0.27923  0.94563  1
 I  I5  1  0.93930  0.87860  0.75000  1
 I  I6  1  0.06070  0.12140  0.25000  1
 K  K1  1  0.25605  0.51209  0.75000  1
 K  K2  1  0.74395  0.48791  0.25000  1
 Tm  Tm1  1  0.00000  0.00000  0.00000  1
 Tm  Tm2  1  0.00000  0.00000  0.50000  1
