CIF file written using JARVIS-Tools package.
data_ICl
_symmetry_space_group_name_H-M  'P2_1/c'
_cell_length_a       4.32778
_cell_length_b       15.2865
_cell_length_c       8.79526
_cell_angle_alpha    82.9353
_cell_angle_beta     90
_cell_angle_gamma    90

_symmetry_Int_Tables_number  14
_chemical_formula_structural  ICl
_chemical_formula_sum  I8Cl8
_cell_volume  577.4480384113047
_cell_formula_units_Z  8
loop_
  _symmetry_equiv_pos_site_id
 _symmetry_equiv_pos_as_xyz
 1  'x, y, z'
loop_
 _atom_site_type_symbol
 _atom_site_label
 _atom_site_symmetry_multiplicity
 _atom_site_fract_x
 _atom_site_fract_y
 _atom_site_fract_z
 _atom_site_fract_occupancy
 Cl  Cl1  1  0.25597  0.58524  0.93101  1
 Cl  Cl2  1  0.74403  0.41476  0.06899  1
 Cl  Cl3  1  0.23881  0.59632  0.52764  1
 Cl  Cl4  1  0.75597  0.91476  0.06899  1
 Cl  Cl5  1  0.26119  0.09632  0.52764  1
 Cl  Cl6  1  0.24403  0.08524  0.93101  1
 Cl  Cl7  1  0.76119  0.40368  0.47236  1
 Cl  Cl8  1  -0.26119  0.90368  0.47236  1
 I  I1  1  0.51222  0.76440  0.17864  1
 I  I2  1  0.01222  0.73560  0.82136  1
 I  I3  1  0.75324  0.41087  0.74582  1
 I  I4  1  0.74676  0.91087  0.74582  1
 I  I5  1  0.25324  0.08913  0.25418  1
 I  I6  1  -0.01222  0.26440  0.17864  1
 I  I7  1  0.24676  0.58913  0.25418  1
 I  I8  1  0.48778  0.23560  0.82136  1
