CIF file written using JARVIS-Tools package.
data_Li4MnV3O8
_symmetry_space_group_name_H-M  'R-3m'
_cell_length_a       5.87074
_cell_length_b       5.90504
_cell_length_c       5.90514
_cell_angle_alpha    120.377
_cell_angle_beta     119.805
_cell_angle_gamma    90.0057

_symmetry_Int_Tables_number  166
_chemical_formula_structural  Li4MnV3O8
_chemical_formula_sum  Li4MnV3O8
_cell_volume  144.34474605332622
_cell_formula_units_Z  1
loop_
  _symmetry_equiv_pos_site_id
 _symmetry_equiv_pos_as_xyz
 1  'x, y, z'
loop_
 _atom_site_type_symbol
 _atom_site_label
 _atom_site_symmetry_multiplicity
 _atom_site_fract_x
 _atom_site_fract_y
 _atom_site_fract_z
 _atom_site_fract_occupancy
 Li  Li1  1  0.50102  0.99602  0.49356  1
 Li  Li2  1  0.00106  0.99603  0.49355  1
 Li  Li3  1  0.50102  0.49602  0.99358  1
 Li  Li4  1  0.00100  0.49600  0.99354  1
 Mn  Mn1  1  0.00098  0.99598  0.99352  1
 O  O1  1  0.26123  0.24153  0.00824  1
 O  O2  1  0.75545  0.24158  0.00826  1
 O  O3  1  0.75542  0.73569  0.50235  1
 O  O4  1  0.25573  0.74129  0.50298  1
 O  O5  1  0.74621  0.25071  0.48401  1
 O  O6  1  0.24656  0.25626  0.48473  1
 O  O7  1  0.24653  0.75037  0.97881  1
 O  O8  1  0.74073  0.75042  0.97882  1
 V  V1  1  0.50096  0.99595  0.99350  1
 V  V2  1  0.00102  0.49600  0.49354  1
 V  V3  1  0.50096  0.49599  0.49354  1
