CIF file written using JARVIS-Tools package.
data_BeTcCl4
_symmetry_space_group_name_H-M  'F-43m'
_cell_length_a       5.78009
_cell_length_b       5.78009
_cell_length_c       5.78009
_cell_angle_alpha    60
_cell_angle_beta     60
_cell_angle_gamma    60

_symmetry_Int_Tables_number  216
_chemical_formula_structural  BeTcCl4
_chemical_formula_sum  BeTcCl4
_cell_volume  136.54898547348512
_cell_formula_units_Z  1
loop_
  _symmetry_equiv_pos_site_id
 _symmetry_equiv_pos_as_xyz
 1  'x, y, z'
loop_
 _atom_site_type_symbol
 _atom_site_label
 _atom_site_symmetry_multiplicity
 _atom_site_fract_x
 _atom_site_fract_y
 _atom_site_fract_z
 _atom_site_fract_occupancy
 Be  Be1  1  0.00000  0.00000  0.00000  1
 Cl  Cl1  1  0.12493  0.62502  0.62502  1
 Cl  Cl2  1  0.62502  0.62502  0.62502  1
 Cl  Cl3  1  0.62502  0.12493  0.62502  1
 Cl  Cl4  1  0.62502  0.62502  0.12493  1
 Tc  Tc1  1  0.25000  0.25000  0.25000  1
