CIF file written using JARVIS-Tools package.
data_Li3Fe7O12
_symmetry_space_group_name_H-M  'C2'
_cell_length_a       4.93528
_cell_length_b       4.93528
_cell_length_c       9.56679
_cell_angle_alpha    84.871
_cell_angle_beta     95.129
_cell_angle_gamma    59.2495

_symmetry_Int_Tables_number  5
_chemical_formula_structural  Li3Fe7O12
_chemical_formula_sum  Li3Fe7O2
_cell_volume  196.95427797923423
_cell_formula_units_Z  1
loop_
  _symmetry_equiv_pos_site_id
 _symmetry_equiv_pos_as_xyz
 1  'x, y, z'
loop_
 _atom_site_type_symbol
 _atom_site_label
 _atom_site_symmetry_multiplicity
 _atom_site_fract_x
 _atom_site_fract_y
 _atom_site_fract_z
 _atom_site_fract_occupancy
 Fe  Fe1  1  0.07728  0.07728  0.25000  1
 Fe  Fe2  1  -0.00264  0.51660  0.98647  1
 Fe  Fe3  1  0.25324  0.25324  0.75000  1
 Fe  Fe4  1  0.51660  -0.00264  0.51353  1
 Fe  Fe5  1  0.41824  0.41824  0.25000  1
 Fe  Fe6  1  0.57359  0.57359  0.75000  1
 Fe  Fe7  1  0.75590  0.75590  0.25000  1
 Li  Li1  1  0.32280  0.83888  0.99304  1
 Li  Li2  1  0.83888  0.32280  0.50696  1
 Li  Li3  1  0.92149  0.92149  0.75000  1
 O  O1  1  0.71555  0.46714  0.14189  1
 O  O2  1  0.36301  0.12721  0.14219  1
 O  O3  1  0.05067  0.77997  0.13485  1
 O  O4  1  0.29248  0.53529  0.86562  1
 O  O5  1  0.12721  0.36301  0.35781  1
 O  O6  1  0.96400  0.22476  0.86390  1
 O  O7  1  0.77997  0.05067  0.36515  1
 O  O8  1  0.46714  0.71555  0.35811  1
 O  O9  1  0.60469  0.86393  0.86204  1
 O  O10  1  0.53529  0.29248  0.63438  1
 O  O11  1  0.22476  0.96400  0.63610  1
 O  O12  1  0.86393  0.60469  0.63796  1
