CIF file written using JARVIS-Tools package.
data_BeVSe
_symmetry_space_group_name_H-M  'I4mm'
_cell_length_a       4.50908
_cell_length_b       4.50908
_cell_length_c       4.50908
_cell_angle_alpha    139.602
_cell_angle_beta     139.602
_cell_angle_gamma    58.4583

_symmetry_Int_Tables_number  107
_chemical_formula_structural  BeVSe
_chemical_formula_sum  BeVSe
_cell_volume  38.15303189712272
_cell_formula_units_Z  1
loop_
  _symmetry_equiv_pos_site_id
 _symmetry_equiv_pos_as_xyz
 1  'x, y, z'
loop_
 _atom_site_type_symbol
 _atom_site_label
 _atom_site_symmetry_multiplicity
 _atom_site_fract_x
 _atom_site_fract_y
 _atom_site_fract_z
 _atom_site_fract_occupancy
 Be  Be1  1  0.00167  0.00167  -0.00000  1
 Se  Se1  1  0.33165  0.33165  0.00000  1
 V  V1  1  0.66669  0.66669  0.00000  1
