CIF file written using JARVIS-Tools package.
data_CeCuSe2
_symmetry_space_group_name_H-M  'P2_1/c'
_cell_length_a       6.67415
_cell_length_b       7.24411
_cell_length_c       7.53088
_cell_angle_alpha    90
_cell_angle_beta     90
_cell_angle_gamma    96.6588

_symmetry_Int_Tables_number  14
_chemical_formula_structural  CeCuSe2
_chemical_formula_sum  Ce4Cu4Se8
_cell_volume  361.6488273855386
_cell_formula_units_Z  4
loop_
  _symmetry_equiv_pos_site_id
 _symmetry_equiv_pos_as_xyz
 1  'x, y, z'
loop_
 _atom_site_type_symbol
 _atom_site_label
 _atom_site_symmetry_multiplicity
 _atom_site_fract_x
 _atom_site_fract_y
 _atom_site_fract_z
 _atom_site_fract_occupancy
 Ce  Ce1  1  0.69037  0.29857  0.54778  1
 Ce  Ce2  1  0.30963  0.20143  0.04778  1
 Ce  Ce3  1  0.30963  0.70143  0.45222  1
 Ce  Ce4  1  0.69037  0.79857  0.95222  1
 Cu  Cu1  1  0.05940  0.53895  0.83771  1
 Cu  Cu2  1  0.94060  0.46105  0.16229  1
 Cu  Cu3  1  0.05940  0.03895  0.66229  1
 Cu  Cu4  1  0.94060  0.96105  0.33771  1
 Se  Se1  1  0.41297  -0.00048  0.72461  1
 Se  Se2  1  0.41297  0.49952  0.77539  1
 Se  Se3  1  0.58703  0.50048  0.22461  1
 Se  Se4  1  0.58703  0.00048  0.27539  1
 Se  Se5  1  0.89662  0.71531  0.61023  1
 Se  Se6  1  0.10338  0.78469  0.11023  1
 Se  Se7  1  0.10338  0.28469  0.38977  1
 Se  Se8  1  0.89662  0.21531  0.88977  1
