CIF file written using JARVIS-Tools package.
data_YInCo2
_symmetry_space_group_name_H-M  'Pmma'
_cell_length_a       3.98579
_cell_length_b       5.02157
_cell_length_c       7.13255
_cell_angle_alpha    90
_cell_angle_beta     90
_cell_angle_gamma    90

_symmetry_Int_Tables_number  51
_chemical_formula_structural  YInCo2
_chemical_formula_sum  Y2In2Co4
_cell_volume  142.75753121813725
_cell_formula_units_Z  2
loop_
  _symmetry_equiv_pos_site_id
 _symmetry_equiv_pos_as_xyz
 1  'x, y, z'
loop_
 _atom_site_type_symbol
 _atom_site_label
 _atom_site_symmetry_multiplicity
 _atom_site_fract_x
 _atom_site_fract_y
 _atom_site_fract_z
 _atom_site_fract_occupancy
 Co  Co1  1  0.00000  0.50000  0.00000  1
 Co  Co2  1  0.00000  0.00000  0.00000  1
 Co  Co3  1  0.50000  0.75000  0.90777  1
 Co  Co4  1  0.50000  0.25000  0.09223  1
 In  In1  1  0.00000  0.75000  0.64945  1
 In  In2  1  0.00000  0.25000  0.35055  1
 Y  Y1  1  0.50000  0.75000  0.27933  1
 Y  Y2  1  0.50000  0.25000  0.72067  1
