CIF file written using JARVIS-Tools package.
data_PrCu
_symmetry_space_group_name_H-M  'Pnma'
_cell_length_a       4.57122
_cell_length_b       5.67153
_cell_length_c       7.41113
_cell_angle_alpha    90
_cell_angle_beta     90
_cell_angle_gamma    90

_symmetry_Int_Tables_number  62
_chemical_formula_structural  PrCu
_chemical_formula_sum  Pr4Cu4
_cell_volume  192.13967708653578
_cell_formula_units_Z  4
loop_
  _symmetry_equiv_pos_site_id
 _symmetry_equiv_pos_as_xyz
 1  'x, y, z'
loop_
 _atom_site_type_symbol
 _atom_site_label
 _atom_site_symmetry_multiplicity
 _atom_site_fract_x
 _atom_site_fract_y
 _atom_site_fract_z
 _atom_site_fract_occupancy
 Cu  Cu1  1  0.25000  0.88092  0.53585  1
 Cu  Cu2  1  0.25000  0.61908  0.03585  1
 Cu  Cu3  1  0.75000  0.11908  0.46415  1
 Cu  Cu4  1  0.75000  0.38092  0.96415  1
 Pr  Pr1  1  0.25000  0.37690  0.67941  1
 Pr  Pr2  1  0.25000  0.12310  0.17941  1
 Pr  Pr3  1  0.75000  0.62310  0.32059  1
 Pr  Pr4  1  0.75000  0.87690  0.82059  1
