CIF file written using JARVIS-Tools package.
data_Nd5Ir3
_symmetry_space_group_name_H-M  'P4/ncc'
_cell_length_a       6.59032
_cell_length_b       11.227
_cell_length_c       11.227
_cell_angle_alpha    90
_cell_angle_beta     90
_cell_angle_gamma    90

_symmetry_Int_Tables_number  130
_chemical_formula_structural  Nd5Ir3
_chemical_formula_sum  Nd20Ir2
_cell_volume  830.6742810753645
_cell_formula_units_Z  4
loop_
  _symmetry_equiv_pos_site_id
 _symmetry_equiv_pos_as_xyz
 1  'x, y, z'
loop_
 _atom_site_type_symbol
 _atom_site_label
 _atom_site_symmetry_multiplicity
 _atom_site_fract_x
 _atom_site_fract_y
 _atom_site_fract_z
 _atom_site_fract_occupancy
 Ir  Ir1  1  0.88106  0.25000  0.25000  1
 Ir  Ir2  1  0.61894  0.75000  0.75000  1
 Ir  Ir3  1  0.25000  0.59630  0.40370  1
 Ir  Ir4  1  0.25000  0.40370  0.90370  1
 Ir  Ir5  1  0.25000  0.90370  0.09630  1
 Ir  Ir6  1  0.25000  0.09630  0.59630  1
 Ir  Ir7  1  0.75000  0.90370  0.40370  1
 Ir  Ir8  1  0.75000  0.59630  0.09630  1
 Ir  Ir9  1  0.75000  0.09630  0.90370  1
 Ir  Ir10  1  0.38106  0.25000  0.25000  1
 Ir  Ir11  1  0.11894  0.75000  0.75000  1
 Ir  Ir12  1  0.75000  0.40370  0.59630  1
 Nd  Nd1  1  0.88194  0.84016  0.95790  1
 Nd  Nd2  1  0.11806  0.15984  0.04210  1
 Nd  Nd3  1  0.11806  0.34016  0.45790  1
 Nd  Nd4  1  0.11806  0.45790  0.15984  1
 Nd  Nd5  1  0.11806  0.04210  0.34016  1
 Nd  Nd6  1  0.38194  0.84016  0.54210  1
 Nd  Nd7  1  0.38194  0.65984  0.95790  1
 Nd  Nd8  1  0.88194  0.95790  0.65984  1
 Nd  Nd9  1  0.61806  0.34016  0.04210  1
 Nd  Nd10  1  0.88194  0.65984  0.54210  1
 Nd  Nd11  1  0.88194  0.54210  0.84016  1
 Nd  Nd12  1  0.61806  0.45790  0.34016  1
 Nd  Nd13  1  0.61806  0.04210  0.15984  1
 Nd  Nd14  1  0.61806  0.15984  0.45790  1
 Nd  Nd15  1  0.00000  0.75000  0.25000  1
 Nd  Nd16  1  0.00000  0.25000  0.75000  1
 Nd  Nd17  1  0.50000  0.25000  0.75000  1
 Nd  Nd18  1  0.50000  0.75000  0.25000  1
 Nd  Nd19  1  0.38194  0.95790  0.84016  1
 Nd  Nd20  1  0.38194  0.54210  0.65984  1
