CIF file written using JARVIS-Tools package.
data_H2O
_symmetry_space_group_name_H-M  'P4_12_12'
_cell_length_a       6.50405
_cell_length_b       6.50405
_cell_length_c       6.59248
_cell_angle_alpha    90
_cell_angle_beta     90
_cell_angle_gamma    90

_symmetry_Int_Tables_number  92
_chemical_formula_structural  H2O
_chemical_formula_sum  H24O2
_cell_volume  278.87981013283434
_cell_formula_units_Z  12
loop_
  _symmetry_equiv_pos_site_id
 _symmetry_equiv_pos_as_xyz
 1  'x, y, z'
loop_
 _atom_site_type_symbol
 _atom_site_label
 _atom_site_symmetry_multiplicity
 _atom_site_fract_x
 _atom_site_fract_y
 _atom_site_fract_z
 _atom_site_fract_occupancy
 H  H1  1  0.48073  0.16590  0.53492  1
 H  H2  1  0.14696  0.11619  0.70149  1
 H  H3  1  0.51927  0.83410  0.03492  1
 H  H4  1  0.66590  0.01927  0.28492  1
 H  H5  1  0.33410  0.98073  0.78492  1
 H  H6  1  0.83410  0.51927  0.96508  1
 H  H7  1  0.16590  0.48073  0.46508  1
 H  H8  1  0.98073  0.33410  0.21508  1
 H  H9  1  0.61619  0.35304  0.45149  1
 H  H10  1  0.38381  0.64696  0.95149  1
 H  H11  1  0.85304  0.88381  0.20149  1
 H  H12  1  0.20770  0.85621  0.13713  1
 H  H13  1  0.01927  0.66590  0.71508  1
 H  H14  1  0.35304  0.61619  0.54851  1
 H  H15  1  0.88381  0.85304  0.79851  1
 H  H16  1  0.11619  0.14696  0.29851  1
 H  H17  1  0.79230  0.14379  0.63713  1
 H  H18  1  0.64379  0.70770  0.38713  1
 H  H19  1  0.35621  0.29230  0.88713  1
 H  H20  1  0.85621  0.20770  0.86287  1
 H  H21  1  0.14379  0.79230  0.36287  1
 H  H22  1  0.70770  0.64379  0.61287  1
 H  H23  1  0.29230  0.35621  0.11287  1
 H  H24  1  0.64696  0.38381  0.04851  1
 O  O1  1  0.89033  0.69955  0.79106  1
 O  O2  1  0.11011  0.88989  0.25000  1
 O  O3  1  0.61011  0.61011  0.50000  1
 O  O4  1  0.38989  0.38989  0.00000  1
 O  O5  1  0.88989  0.11011  0.75000  1
 O  O6  1  0.19955  0.60967  0.54106  1
 O  O7  1  0.69955  0.89033  0.20894  1
 O  O8  1  0.30045  0.10967  0.70894  1
 O  O9  1  0.80045  0.39033  0.04106  1
 O  O10  1  0.60967  0.19955  0.45894  1
 O  O11  1  0.39033  0.80045  0.95894  1
 O  O12  1  0.10967  0.30045  0.29106  1
