CIF file written using JARVIS-Tools package.
data_HoCoSn2
_symmetry_space_group_name_H-M  'Cmcm'
_cell_length_a       4.45364
_cell_length_b       4.1374
_cell_length_c       11.0696
_cell_angle_alpha    100.771
_cell_angle_beta     90
_cell_angle_gamma    90

_symmetry_Int_Tables_number  63
_chemical_formula_structural  HoCoSn2
_chemical_formula_sum  Ho2Co2Sn4
_cell_volume  200.38036298275748
_cell_formula_units_Z  2
loop_
  _symmetry_equiv_pos_site_id
 _symmetry_equiv_pos_as_xyz
 1  'x, y, z'
loop_
 _atom_site_type_symbol
 _atom_site_label
 _atom_site_symmetry_multiplicity
 _atom_site_fract_x
 _atom_site_fract_y
 _atom_site_fract_z
 _atom_site_fract_occupancy
 Co  Co1  1  0.75000  0.25058  0.50116  1
 Co  Co2  1  0.25000  0.74942  0.49884  1
 Ho  Ho1  1  0.75000  0.84310  0.68619  1
 Ho  Ho2  1  0.25000  0.15690  0.31381  1
 Sn  Sn1  1  0.75000  0.45754  0.91509  1
 Sn  Sn2  1  0.25000  0.54246  0.08491  1
 Sn  Sn3  1  0.75000  0.68324  0.36649  1
 Sn  Sn4  1  0.25000  0.31676  0.63351  1
