CIF file written using JARVIS-Tools package.
data_FeSO4
_symmetry_space_group_name_H-M  'Pnma'
_cell_length_a       4.81665
_cell_length_b       6.60656
_cell_length_c       8.80871
_cell_angle_alpha    90
_cell_angle_beta     90
_cell_angle_gamma    90

_symmetry_Int_Tables_number  62
_chemical_formula_structural  FeSO4
_chemical_formula_sum  Fe4S4O6
_cell_volume  280.30624520312296
_cell_formula_units_Z  4
loop_
  _symmetry_equiv_pos_site_id
 _symmetry_equiv_pos_as_xyz
 1  'x, y, z'
loop_
 _atom_site_type_symbol
 _atom_site_label
 _atom_site_symmetry_multiplicity
 _atom_site_fract_x
 _atom_site_fract_y
 _atom_site_fract_z
 _atom_site_fract_occupancy
 Fe  Fe1  1  0.00000  0.00000  0.00000  1
 Fe  Fe2  1  0.00000  0.50000  0.00000  1
 Fe  Fe3  1  0.50000  0.50000  0.50000  1
 Fe  Fe4  1  0.50000  0.00000  0.50000  1
 O  O1  1  0.72685  0.25000  0.37360  1
 O  O2  1  0.77315  0.25000  0.87360  1
 O  O3  1  0.27315  0.75000  0.62640  1
 O  O4  1  0.54325  0.75000  0.34918  1
 O  O5  1  0.04325  0.25000  0.15082  1
 O  O6  1  0.45675  0.25000  0.65082  1
 O  O7  1  0.95675  0.75000  0.84918  1
 O  O8  1  0.84037  0.93674  0.62354  1
 O  O9  1  0.34037  0.06326  0.87646  1
 O  O10  1  0.15963  0.06326  0.37646  1
 O  O11  1  0.15963  0.43674  0.37646  1
 O  O12  1  0.65963  0.93674  0.12354  1
 O  O13  1  0.84037  0.56326  0.62354  1
 O  O14  1  0.34037  0.43674  0.87646  1
 O  O15  1  0.22685  0.75000  0.12640  1
 O  O16  1  0.65963  0.56326  0.12354  1
 S  S1  1  0.52354  0.75000  0.17749  1
 S  S2  1  0.02354  0.25000  0.32251  1
 S  S3  1  0.47646  0.25000  0.82251  1
 S  S4  1  0.97646  0.75000  0.67749  1
