CIF file written using JARVIS-Tools package.
data_Li6MnO2F4
_symmetry_space_group_name_H-M  'P-1'
_cell_length_a       5.42493
_cell_length_b       5.42656
_cell_length_c       10.8997
_cell_angle_alpha    102.601
_cell_angle_beta     102.695
_cell_angle_gamma    98.4802

_symmetry_Int_Tables_number  2
_chemical_formula_structural  Li6MnO2F4
_chemical_formula_sum  Li2Mn2O4F8
_cell_volume  298.98523983517435
_cell_formula_units_Z  2
loop_
  _symmetry_equiv_pos_site_id
 _symmetry_equiv_pos_as_xyz
 1  'x, y, z'
loop_
 _atom_site_type_symbol
 _atom_site_label
 _atom_site_symmetry_multiplicity
 _atom_site_fract_x
 _atom_site_fract_y
 _atom_site_fract_z
 _atom_site_fract_occupancy
 F  F1  1  0.84129  0.31552  0.15066  1
 F  F2  1  0.68435  0.72844  0.06486  1
 F  F3  1  0.72978  0.68299  0.56445  1
 F  F4  1  0.27022  0.31701  0.43555  1
 F  F5  1  0.31565  0.27156  0.93514  1
 F  F6  1  0.31694  0.84025  0.64987  1
 F  F7  1  0.15871  0.68448  0.84934  1
 F  F8  1  0.68306  0.15975  0.35013  1
 Li  Li1  1  0.01663  0.31273  0.81241  1
 Li  Li2  1  0.96404  0.40913  0.33520  1
 Li  Li3  1  0.98337  0.68727  0.18759  1
 Li  Li4  1  0.63237  0.32552  0.51326  1
 Li  Li5  1  0.31091  0.01938  0.31192  1
 Li  Li6  1  0.40707  0.96638  0.83418  1
 Li  Li7  1  0.59293  0.03362  0.16582  1
 Li  Li8  1  0.68909  0.98062  0.68808  1
 Li  Li9  1  0.36763  0.67448  0.48674  1
 Li  Li10  1  0.32655  0.63366  0.01225  1
 Li  Li11  1  0.03596  0.59087  0.66480  1
 Li  Li12  1  0.67345  0.36634  0.98775  1
 Mn  Mn1  1  0.00000  0.00000  0.00000  1
 Mn  Mn2  1  -0.00000  -0.00000  0.50000  1
 O  O1  1  0.10868  0.76775  0.37110  1
 O  O2  1  0.23361  0.89100  0.12852  1
 O  O3  1  0.76639  0.10900  0.87148  1
 O  O4  1  0.89132  0.23225  0.62890  1
