CIF file written using JARVIS-Tools package.
data_Ca10Al6Ge9
_symmetry_space_group_name_H-M  'R-3m'
_cell_length_a       10.6429
_cell_length_b       10.6429
_cell_length_c       10.6429
_cell_angle_alpha    81.4082
_cell_angle_beta     81.4082
_cell_angle_gamma    81.4083

_symmetry_Int_Tables_number  166
_chemical_formula_structural  Ca10Al6Ge9
_chemical_formula_sum  Ca20Al2Ge8
_cell_volume  1168.640773840865
_cell_formula_units_Z  2
loop_
  _symmetry_equiv_pos_site_id
 _symmetry_equiv_pos_as_xyz
 1  'x, y, z'
loop_
 _atom_site_type_symbol
 _atom_site_label
 _atom_site_symmetry_multiplicity
 _atom_site_fract_x
 _atom_site_fract_y
 _atom_site_fract_z
 _atom_site_fract_occupancy
 Al  Al1  1  0.28489  0.49984  0.28489  1
 Al  Al2  1  0.71511  0.71511  0.50016  1
 Al  Al3  1  0.96932  0.68375  0.96932  1
 Al  Al4  1  0.71511  0.50016  0.71511  1
 Al  Al5  1  0.28489  0.28489  0.49984  1
 Al  Al6  1  0.68375  0.96932  0.96932  1
 Al  Al7  1  0.31625  0.03068  0.03068  1
 Al  Al8  1  0.49984  0.28489  0.28489  1
 Al  Al9  1  0.50016  0.71511  0.71511  1
 Al  Al10  1  0.96932  0.96932  0.68375  1
 Al  Al11  1  0.03068  0.03068  0.31625  1
 Al  Al12  1  0.03068  0.31625  0.03068  1
 Ca  Ca1  1  0.05172  0.34365  0.34365  1
 Ca  Ca2  1  0.79271  0.20729  0.50000  1
 Ca  Ca3  1  0.70629  -0.00000  0.29371  1
 Ca  Ca4  1  0.20729  0.79271  0.50000  1
 Ca  Ca5  1  0.20729  0.50000  0.79271  1
 Ca  Ca6  1  0.34365  0.34365  0.05172  1
 Ca  Ca7  1  0.00000  0.29371  0.70629  1
 Ca  Ca8  1  0.29371  0.70629  0.00000  1
 Ca  Ca9  1  0.50000  0.20729  0.79271  1
 Ca  Ca10  1  0.70629  0.29371  -0.00000  1
 Ca  Ca11  1  0.34365  0.05172  0.34365  1
 Ca  Ca12  1  0.29371  0.00000  0.70629  1
 Ca  Ca13  1  0.00000  0.00000  0.00000  1
 Ca  Ca14  1  0.50000  0.50000  0.50000  1
 Ca  Ca15  1  0.50000  0.79271  0.20729  1
 Ca  Ca16  1  0.79271  0.50000  0.20729  1
 Ca  Ca17  1  0.94828  0.65635  0.65635  1
 Ca  Ca18  1  0.65635  0.65635  0.94828  1
 Ca  Ca19  1  -0.00000  0.70629  0.29371  1
 Ca  Ca20  1  0.65635  0.94828  0.65635  1
 Ge  Ge1  1  0.51317  0.10923  0.10923  1
 Ge  Ge2  1  0.48619  0.48619  0.81366  1
 Ge  Ge3  1  0.81366  0.48619  0.48619  1
 Ge  Ge4  1  0.10923  0.51317  0.10923  1
 Ge  Ge5  1  0.79582  0.79582  0.11875  1
 Ge  Ge6  1  0.51381  0.51381  0.18634  1
 Ge  Ge7  1  0.89077  0.89077  0.48683  1
 Ge  Ge8  1  0.88125  0.20418  0.20418  1
 Ge  Ge9  1  0.48619  0.81366  0.48619  1
 Ge  Ge10  1  0.89077  0.48683  0.89077  1
 Ge  Ge11  1  0.20418  0.88125  0.20418  1
 Ge  Ge12  1  0.20418  0.20418  0.88125  1
 Ge  Ge13  1  0.10923  0.10923  0.51317  1
 Ge  Ge14  1  0.51381  0.18634  0.51381  1
 Ge  Ge15  1  0.79582  0.11875  0.79582  1
 Ge  Ge16  1  0.48683  0.89077  0.89077  1
 Ge  Ge17  1  0.11875  0.79582  0.79582  1
 Ge  Ge18  1  0.18634  0.51381  0.51381  1
