CIF file written using JARVIS-Tools package.
data_H9BrO4
_symmetry_space_group_name_H-M  'P1'
_cell_length_a       6.91872
_cell_length_b       11.3138
_cell_length_c       7.211
_cell_angle_alpha    86.9848
_cell_angle_beta     107.669
_cell_angle_gamma    87.221

_symmetry_Int_Tables_number  1
_chemical_formula_structural  H9BrO4
_chemical_formula_sum  H36Br4O6
_cell_volume  535.8485365029065
_cell_formula_units_Z  4
loop_
  _symmetry_equiv_pos_site_id
 _symmetry_equiv_pos_as_xyz
 1  'x, y, z'
loop_
 _atom_site_type_symbol
 _atom_site_label
 _atom_site_symmetry_multiplicity
 _atom_site_fract_x
 _atom_site_fract_y
 _atom_site_fract_z
 _atom_site_fract_occupancy
 Br  Br1  1  0.94387  0.49076  0.70298  1
 Br  Br2  1  0.06380  0.00822  0.30900  1
 Br  Br3  1  0.45973  -0.00410  0.86848  1
 Br  Br4  1  0.51451  0.48686  0.12561  1
 H  H1  1  0.33063  0.16843  0.98783  1
 H  H2  1  0.86103  0.75102  0.00328  1
 H  H3  1  0.94350  0.17789  0.15977  1
 H  H4  1  0.78353  0.25811  0.95234  1
 H  H5  1  0.05131  0.25799  0.03814  1
 H  H6  1  0.03104  0.66736  0.83705  1
 H  H7  1  0.57884  0.16931  0.81822  1
 H  H8  1  0.49409  0.73006  0.14056  1
 H  H9  1  0.40335  0.86220  0.11071  1
 H  H10  1  0.70239  0.84888  0.03176  1
 H  H11  1  0.62904  0.33126  0.36117  1
 H  H12  1  0.82908  0.25181  0.49160  1
 H  H13  1  0.15679  0.74296  0.47653  1
 H  H14  1  0.38084  0.65811  0.56324  1
 H  H15  1  0.64286  0.26368  0.68038  1
 H  H16  1  0.34714  0.30954  0.00453  1
 H  H17  1  0.16185  0.75366  0.98370  1
 H  H18  1  0.47059  0.51831  0.80154  1
 H  H19  1  0.86744  0.74539  0.29351  1
 H  H20  1  0.34735  0.75811  0.37162  1
 H  H21  1  0.33931  0.43504  0.52359  1
 H  H22  1  0.18782  0.32052  0.48918  1
 H  H23  1  0.65691  0.87493  0.66110  1
 H  H24  1  0.80770  0.83668  0.53396  1
 H  H25  1  0.61890  0.51896  0.67105  1
 H  H26  1  0.57249  0.14720  0.38766  1
 H  H27  1  0.60544  0.99382  0.43544  1
 H  H28  1  0.91904  0.65489  0.49119  1
 H  H29  1  0.85465  0.50594  0.16970  1
 H  H30  1  0.00410  0.50989  0.04327  1
 H  H31  1  0.14156  0.43908  0.31508  1
 H  H32  1  0.98899  0.02900  0.95202  1
 H  H33  1  0.90592  0.00178  0.73493  1
 H  H34  1  0.12793  0.23131  0.71991  1
 H  H35  1  0.11001  0.14523  0.54753  1
 H  H36  1  0.36737  0.06009  0.34355  1
 O  O1  1  0.25177  0.24570  0.97387  1
 O  O2  1  0.75672  0.76586  0.07342  1
 O  O3  1  0.92570  0.25781  0.08451  1
 O  O4  1  0.02765  0.74686  0.88629  1
 O  O5  1  0.61433  0.25386  0.80814  1
 O  O6  1  0.38954  0.78254  0.16830  1
 O  O7  1  0.31692  0.73975  0.50005  1
 O  O8  1  0.72426  0.90267  0.56697  1
 O  O9  1  0.93801  0.73587  0.44244  1
 O  O10  1  0.25537  0.38315  0.42312  1
 O  O11  1  0.47175  0.53092  0.66345  1
 O  O12  1  0.51361  0.06668  0.34568  1
 O  O13  1  -0.00199  0.51919  0.17720  1
 O  O14  1  0.67636  0.25973  0.45335  1
 O  O15  1  0.08481  0.22857  0.57525  1
 O  O16  1  0.94937  0.06699  0.81932  1
