CIF file written using JARVIS-Tools package.
data_TlCuHSeO5
_symmetry_space_group_name_H-M  'P2_1/m'
_cell_length_a       9.11554
_cell_length_b       5.96742
_cell_length_c       4.58986
_cell_angle_alpha    90
_cell_angle_beta     94.6667
_cell_angle_gamma    90

_symmetry_Int_Tables_number  11
_chemical_formula_structural  TlCuHSeO5
_chemical_formula_sum  Tl2Cu2H2Se2O0
_cell_volume  248.84322942083526
_cell_formula_units_Z  2
loop_
  _symmetry_equiv_pos_site_id
 _symmetry_equiv_pos_as_xyz
 1  'x, y, z'
loop_
 _atom_site_type_symbol
 _atom_site_label
 _atom_site_symmetry_multiplicity
 _atom_site_fract_x
 _atom_site_fract_y
 _atom_site_fract_z
 _atom_site_fract_occupancy
 Cu  Cu1  1  0.00000  0.50000  0.00000  1
 Cu  Cu2  1  0.00000  0.00000  0.00000  1
 H  H1  1  0.90137  0.25000  0.59065  1
 H  H2  1  0.09863  0.75000  0.40935  1
 O  O1  1  0.61856  0.75000  0.67750  1
 O  O2  1  0.07281  0.25000  0.27477  1
 O  O3  1  0.10165  0.75000  0.19481  1
 O  O4  1  0.22157  0.48317  0.70778  1
 O  O5  1  0.89835  0.25000  0.80519  1
 O  O6  1  0.77843  0.51683  0.29222  1
 O  O7  1  0.92719  0.75000  0.72523  1
 O  O8  1  0.38144  0.25000  0.32250  1
 O  O9  1  0.77843  0.98317  0.29222  1
 O  O10  1  0.22157  0.01683  0.70778  1
 Se  Se1  1  0.76642  0.75000  0.48805  1
 Se  Se2  1  0.23358  0.25000  0.51195  1
 Tl  Tl1  1  0.38834  0.75000  0.11562  1
 Tl  Tl2  1  0.61166  0.25000  0.88438  1
