CIF file written using JARVIS-Tools package.
data_K2Al2B2O7
_symmetry_space_group_name_H-M  'P321'
_cell_length_a       8.60179
_cell_length_b       8.60179
_cell_length_c       8.40316
_cell_angle_alpha    90
_cell_angle_beta     90
_cell_angle_gamma    120

_symmetry_Int_Tables_number  150
_chemical_formula_structural  K2Al2B2O7
_chemical_formula_sum  K6Al6B6O2
_cell_volume  538.4572748895324
_cell_formula_units_Z  3
loop_
  _symmetry_equiv_pos_site_id
 _symmetry_equiv_pos_as_xyz
 1  'x, y, z'
loop_
 _atom_site_type_symbol
 _atom_site_label
 _atom_site_symmetry_multiplicity
 _atom_site_fract_x
 _atom_site_fract_y
 _atom_site_fract_z
 _atom_site_fract_occupancy
 Al  Al1  1  0.00000  0.00000  0.70485  1
 Al  Al2  1  0.66667  0.33333  0.22501  1
 Al  Al3  1  0.33333  0.66667  0.77499  1
 Al  Al4  1  0.00000  0.00000  0.29515  1
 Al  Al5  1  0.33333  0.66667  0.18656  1
 Al  Al6  1  0.66667  0.33333  0.81344  1
 B  B1  1  0.66592  0.00110  0.25792  1
 B  B2  1  0.00110  0.66592  0.74208  1
 B  B3  1  0.33518  0.33408  0.25792  1
 B  B4  1  0.33408  0.33518  0.74208  1
 B  B5  1  0.99890  0.66482  0.25792  1
 B  B6  1  0.66482  0.99890  0.74208  1
 K  K1  1  0.35392  0.00000  0.50000  1
 K  K2  1  0.68475  0.68475  0.00000  1
 K  K3  1  0.64608  0.64608  0.50000  1
 K  K4  1  0.31525  0.00000  0.00000  1
 K  K5  1  0.00000  0.31525  0.00000  1
 K  K6  1  0.00000  0.35392  0.50000  1
 O  O1  1  0.33333  0.66667  0.98077  1
 O  O2  1  0.73018  0.17947  0.29577  1
 O  O3  1  0.84289  0.05902  0.77752  1
 O  O4  1  0.15711  0.21613  0.22248  1
 O  O5  1  0.44929  0.26982  0.29577  1
 O  O6  1  0.21613  0.15711  0.77752  1
 O  O7  1  0.88484  0.48312  0.74352  1
 O  O8  1  0.40173  0.51688  0.25648  1
 O  O9  1  0.11516  0.59827  0.25648  1
 O  O10  1  0.00000  0.00000  0.50000  1
 O  O11  1  0.17947  0.73018  0.70423  1
 O  O12  1  0.94098  0.78387  0.77752  1
 O  O13  1  0.51688  0.40173  0.74352  1
 O  O14  1  0.05902  0.84289  0.22248  1
 O  O15  1  0.78387  0.94098  0.22248  1
 O  O16  1  0.55071  0.82053  0.70423  1
 O  O17  1  0.66667  0.33333  0.01923  1
 O  O18  1  0.82053  0.55071  0.29577  1
 O  O19  1  0.48312  0.88484  0.25648  1
 O  O20  1  0.26982  0.44929  0.70423  1
 O  O21  1  0.59827  0.11516  0.74352  1
