CIF file written using JARVIS-Tools package.
data_BiP4HO12
_symmetry_space_group_name_H-M  'P-1'
_cell_length_a       7.08714
_cell_length_b       8.61195
_cell_length_c       8.87358
_cell_angle_alpha    99.2383
_cell_angle_beta     112.002
_cell_angle_gamma    108.748

_symmetry_Int_Tables_number  2
_chemical_formula_structural  BiP4HO12
_chemical_formula_sum  Bi2P8H2O24
_cell_volume  450.4982657115608
_cell_formula_units_Z  2
loop_
  _symmetry_equiv_pos_site_id
 _symmetry_equiv_pos_as_xyz
 1  'x, y, z'
loop_
 _atom_site_type_symbol
 _atom_site_label
 _atom_site_symmetry_multiplicity
 _atom_site_fract_x
 _atom_site_fract_y
 _atom_site_fract_z
 _atom_site_fract_occupancy
 Bi  Bi1  1  0.09380  0.25930  0.25915  1
 Bi  Bi2  1  0.90620  0.74070  0.74085  1
 H  H1  1  0.46864  0.84864  0.75592  1
 H  H2  1  0.53136  0.15136  0.24408  1
 O  O1  1  0.18503  0.80260  0.04480  1
 O  O2  1  0.12298  0.57834  0.69867  1
 O  O3  1  0.57451  0.06548  0.19022  1
 O  O4  1  0.53881  0.76444  0.09432  1
 O  O5  1  0.46119  0.23556  0.90568  1
 O  O6  1  0.95821  0.96344  0.25101  1
 O  O7  1  0.04179  0.03656  0.74899  1
 O  O8  1  0.48206  0.86657  0.35002  1
 O  O9  1  0.24818  0.21338  0.07285  1
 O  O10  1  0.81178  0.63377  0.14984  1
 O  O11  1  0.18822  0.36623  0.85016  1
 O  O12  1  0.81292  0.67627  0.44138  1
 O  O13  1  0.18708  0.32373  0.55862  1
 O  O14  1  0.81497  0.19740  0.95520  1
 O  O15  1  0.51794  0.13343  0.64998  1
 O  O16  1  0.55065  0.75953  0.60268  1
 O  O17  1  0.42549  0.93452  0.80978  1
 O  O18  1  0.31430  0.54142  0.29148  1
 O  O19  1  0.68570  0.45858  0.70852  1
 O  O20  1  0.17117  0.73742  0.42179  1
 O  O21  1  0.82883  0.26258  0.57821  1
 O  O22  1  0.87702  0.42166  0.30133  1
 O  O23  1  0.44935  0.24047  0.39732  1
 O  O24  1  0.75182  0.78662  0.92715  1
 P  P1  1  0.61632  0.28815  0.58166  1
 P  P2  1  0.38368  0.71185  0.41834  1
 P  P3  1  0.57154  0.12735  0.83996  1
 P  P4  1  0.42846  0.87265  0.16004  1
 P  P5  1  0.78536  0.80120  0.10609  1
 P  P6  1  0.21464  0.19880  0.89391  1
 P  P7  1  0.90817  0.60617  0.33581  1
 P  P8  1  0.09183  0.39383  0.66419  1
