CIF file written using JARVIS-Tools package.
data_LiVSi2O6
_symmetry_space_group_name_H-M  'C2/c'
_cell_length_a       5.30981
_cell_length_b       6.51622
_cell_length_c       6.51623
_cell_angle_alpha    82.9213
_cell_angle_beta     75.0728
_cell_angle_gamma    75.0732

_symmetry_Int_Tables_number  15
_chemical_formula_structural  LiVSi2O6
_chemical_formula_sum  Li2V2Si4O2
_cell_volume  210.11026249837056
_cell_formula_units_Z  2
loop_
  _symmetry_equiv_pos_site_id
 _symmetry_equiv_pos_as_xyz
 1  'x, y, z'
loop_
 _atom_site_type_symbol
 _atom_site_label
 _atom_site_symmetry_multiplicity
 _atom_site_fract_x
 _atom_site_fract_y
 _atom_site_fract_z
 _atom_site_fract_occupancy
 Li  Li1  1  0.75000  0.26333  0.73666  1
 Li  Li2  1  0.25000  0.73666  0.26333  1
 O  O1  1  0.34575  0.02787  0.20766  1
 O  O2  1  0.67195  0.63241  0.10768  1
 O  O3  1  0.82808  0.89231  0.36759  1
 O  O4  1  0.32807  0.36759  0.89231  1
 O  O5  1  0.15426  0.79234  0.97214  1
 O  O6  1  0.84574  0.20766  0.02787  1
 O  O7  1  0.17195  0.10768  0.63241  1
 O  O8  1  0.93676  0.35111  0.36254  1
 O  O9  1  0.56322  0.63748  0.64888  1
 O  O10  1  0.06322  0.64888  0.63748  1
 O  O11  1  0.43675  0.36254  0.35111  1
 O  O12  1  0.65426  0.97214  0.79234  1
 Si  Si1  1  0.72999  0.39038  0.20552  1
 Si  Si2  1  0.27000  0.60963  0.79448  1
 Si  Si3  1  0.22999  0.20552  0.39038  1
 Si  Si4  1  0.77000  0.79448  0.60963  1
 V  V1  1  0.25000  0.08991  0.91009  1
 V  V2  1  0.75001  0.91009  0.08991  1
