CIF file written using JARVIS-Tools package.
data_EuTaO4
_symmetry_space_group_name_H-M  'C2/c'
_cell_length_a       5.12342
_cell_length_b       5.42992
_cell_length_c       6.60495
_cell_angle_alpha    111.943
_cell_angle_beta     110.38
_cell_angle_gamma    95.5292

_symmetry_Int_Tables_number  15
_chemical_formula_structural  EuTaO4
_chemical_formula_sum  Eu2Ta2O8
_cell_volume  154.25348590138984
_cell_formula_units_Z  2
loop_
  _symmetry_equiv_pos_site_id
 _symmetry_equiv_pos_as_xyz
 1  'x, y, z'
loop_
 _atom_site_type_symbol
 _atom_site_label
 _atom_site_symmetry_multiplicity
 _atom_site_fract_x
 _atom_site_fract_y
 _atom_site_fract_z
 _atom_site_fract_occupancy
 Eu  Eu1  1  0.38136  0.63136  0.26271  1
 Eu  Eu2  1  0.61864  0.36864  0.73729  1
 O  O1  1  -0.00076  0.79063  0.06253  1
 O  O2  1  0.56329  0.27191  0.06253  1
 O  O3  1  0.00076  0.20937  0.93747  1
 O  O4  1  0.43671  0.72809  0.93747  1
 O  O5  1  0.20371  0.36354  0.41813  1
 O  O6  1  0.71442  0.05459  0.41813  1
 O  O7  1  0.79629  0.63646  0.58187  1
 O  O8  1  0.28558  0.94541  0.58187  1
 Ta  Ta1  1  0.85076  0.10076  0.20153  1
 Ta  Ta2  1  0.14924  0.89924  0.79847  1
