CIF file written using JARVIS-Tools package.
data_Li4MnO2F2
_symmetry_space_group_name_H-M  'Cmcm'
_cell_length_a       5.3757
_cell_length_b       5.3757
_cell_length_c       6.58274
_cell_angle_alpha    90
_cell_angle_beta     90
_cell_angle_gamma    98.2987

_symmetry_Int_Tables_number  63
_chemical_formula_structural  Li4MnO2F2
_chemical_formula_sum  Li8Mn2O4F4
_cell_volume  188.23718839380095
_cell_formula_units_Z  2
loop_
  _symmetry_equiv_pos_site_id
 _symmetry_equiv_pos_as_xyz
 1  'x, y, z'
loop_
 _atom_site_type_symbol
 _atom_site_label
 _atom_site_symmetry_multiplicity
 _atom_site_fract_x
 _atom_site_fract_y
 _atom_site_fract_z
 _atom_site_fract_occupancy
 F  F1  1  0.20008  0.20008  0.97045  1
 F  F2  1  0.20008  0.20008  0.52955  1
 F  F3  1  0.79992  0.79992  0.02955  1
 F  F4  1  0.79992  0.79992  0.47045  1
 Li  Li1  1  0.83416  0.16584  0.50000  1
 Li  Li2  1  0.83416  0.16584  0.00000  1
 Li  Li3  1  0.16584  0.83416  0.50000  1
 Li  Li4  1  0.42024  0.10449  0.75000  1
 Li  Li5  1  0.10449  0.42024  0.75000  1
 Li  Li6  1  0.57976  0.89551  0.25000  1
 Li  Li7  1  0.16584  0.83416  0.00000  1
 Li  Li8  1  0.89551  0.57976  0.25000  1
 Mn  Mn1  1  0.61762  0.61762  0.75000  1
 Mn  Mn2  1  0.38238  0.38238  0.25000  1
 O  O1  1  0.25232  0.69736  0.25000  1
 O  O2  1  0.30264  0.74768  0.75000  1
 O  O3  1  0.74768  0.30264  0.75000  1
 O  O4  1  0.69736  0.25232  0.25000  1
