CIF file written using JARVIS-Tools package.
data_Ta2Tl4Se11
_symmetry_space_group_name_H-M  'P-1'
_cell_length_a       8.01255
_cell_length_b       9.23564
_cell_length_c       13.9682
_cell_angle_alpha    72.9019
_cell_angle_beta     89.23
_cell_angle_gamma    86.1776

_symmetry_Int_Tables_number  2
_chemical_formula_structural  Ta2Tl4Se11
_chemical_formula_sum  Ta4Tl8Se22
_cell_volume  985.7568116289585
_cell_formula_units_Z  2
loop_
  _symmetry_equiv_pos_site_id
 _symmetry_equiv_pos_as_xyz
 1  'x, y, z'
loop_
 _atom_site_type_symbol
 _atom_site_label
 _atom_site_symmetry_multiplicity
 _atom_site_fract_x
 _atom_site_fract_y
 _atom_site_fract_z
 _atom_site_fract_occupancy
 Se  Se1  1  0.05465  0.66149  0.24814  1
 Se  Se2  1  0.27196  0.03475  0.03891  1
 Se  Se3  1  0.72804  0.96525  0.96109  1
 Se  Se4  1  0.44707  0.69206  0.88047  1
 Se  Se5  1  0.55293  0.30794  0.11953  1
 Se  Se6  1  0.02187  0.71054  0.53483  1
 Se  Se7  1  0.73812  0.59738  0.89066  1
 Se  Se8  1  0.02496  0.12939  0.24817  1
 Se  Se9  1  0.97504  0.87061  0.75183  1
 Se  Se10  1  0.39596  0.08001  0.75349  1
 Se  Se11  1  0.26188  0.40262  0.10934  1
 Se  Se12  1  0.34401  0.85255  0.33409  1
 Se  Se13  1  0.40347  0.44736  0.35029  1
 Se  Se14  1  0.59653  0.55264  0.64971  1
 Se  Se15  1  0.12409  0.49345  0.81620  1
 Se  Se16  1  0.87591  0.50655  0.18380  1
 Se  Se17  1  0.97813  0.28946  0.46517  1
 Se  Se18  1  0.94535  0.33851  0.75186  1
 Se  Se19  1  0.39196  0.17782  0.37108  1
 Se  Se20  1  0.60804  0.82218  0.62892  1
 Se  Se21  1  0.65599  0.14745  0.66591  1
 Se  Se22  1  0.60404  0.91999  0.24651  1
 Ta  Ta1  1  0.87855  0.63237  0.69793  1
 Ta  Ta2  1  0.66241  0.89341  0.81154  1
 Ta  Ta3  1  0.33759  0.10659  0.18846  1
 Ta  Ta4  1  0.12145  0.36763  0.30207  1
 Tl  Tl1  1  0.05675  0.76067  0.98629  1
 Tl  Tl2  1  0.24357  0.41321  0.57998  1
 Tl  Tl3  1  0.75643  0.58679  0.42002  1
 Tl  Tl4  1  0.21479  0.97933  0.57307  1
 Tl  Tl5  1  0.94325  0.23933  0.01371  1
 Tl  Tl6  1  0.49512  0.71661  0.11253  1
 Tl  Tl7  1  0.78521  0.02067  0.42693  1
 Tl  Tl8  1  0.50488  0.28339  0.88747  1
