CIF file written using JARVIS-Tools package.
data_Nb2Br5
_symmetry_space_group_name_H-M  'Cmcm'
_cell_length_a       6.02895
_cell_length_b       8.55461
_cell_length_c       8.55461
_cell_angle_alpha    105.832
_cell_angle_beta     90
_cell_angle_gamma    90

_symmetry_Int_Tables_number  63
_chemical_formula_structural  Nb2Br5
_chemical_formula_sum  Nb4Br0
_cell_volume  424.4712938416047
_cell_formula_units_Z  2
loop_
  _symmetry_equiv_pos_site_id
 _symmetry_equiv_pos_as_xyz
 1  'x, y, z'
loop_
 _atom_site_type_symbol
 _atom_site_label
 _atom_site_symmetry_multiplicity
 _atom_site_fract_x
 _atom_site_fract_y
 _atom_site_fract_z
 _atom_site_fract_occupancy
 Br  Br1  1  0.25000  0.34010  0.02583  1
 Br  Br2  1  0.25000  0.25117  0.40320  1
 Br  Br3  1  0.75000  0.12890  0.87110  1
 Br  Br4  1  0.25000  0.87110  0.12890  1
 Br  Br5  1  0.75000  0.40320  0.25117  1
 Br  Br6  1  0.25000  0.59680  0.74883  1
 Br  Br7  1  0.75000  0.02583  0.34010  1
 Br  Br8  1  0.75000  0.74883  0.59680  1
 Br  Br9  1  0.25000  0.97417  0.65990  1
 Br  Br10  1  0.75000  0.65990  0.97417  1
 Nb  Nb1  1  0.00000  0.86187  0.86187  1
 Nb  Nb2  1  0.50000  0.86187  0.86187  1
 Nb  Nb3  1  0.50000  0.13813  0.13813  1
 Nb  Nb4  1  0.00000  0.13813  0.13813  1
