CIF file written using JARVIS-Tools package.
data_Sr3Hf2O7
_symmetry_space_group_name_H-M  'Ccce'
_cell_length_a       5.73733
_cell_length_b       5.73712
_cell_length_c       11.0612
_cell_angle_alpha    90
_cell_angle_beta     105.031
_cell_angle_gamma    90

_symmetry_Int_Tables_number  68
_chemical_formula_structural  Sr3Hf2O7
_chemical_formula_sum  Sr6Hf4O4
_cell_volume  351.62875210615414
_cell_formula_units_Z  2
loop_
  _symmetry_equiv_pos_site_id
 _symmetry_equiv_pos_as_xyz
 1  'x, y, z'
loop_
 _atom_site_type_symbol
 _atom_site_label
 _atom_site_symmetry_multiplicity
 _atom_site_fract_x
 _atom_site_fract_y
 _atom_site_fract_z
 _atom_site_fract_occupancy
 Hf  Hf1  1  0.15181  0.75000  0.80361  1
 Hf  Hf2  1  0.65181  0.25000  0.80361  1
 Hf  Hf3  1  0.34819  0.75000  0.19639  1
 Hf  Hf4  1  0.84819  0.25000  0.19639  1
 O  O1  1  0.95385  0.44949  0.80663  1
 O  O2  1  0.05385  0.75000  0.60769  1
 O  O3  1  0.75000  0.25000  0.00000  1
 O  O4  1  0.35278  0.05051  0.80663  1
 O  O5  1  0.14722  0.05051  0.19337  1
 O  O6  1  0.45385  0.55051  0.80663  1
 O  O7  1  0.04615  0.55051  0.19337  1
 O  O8  1  0.55385  0.25000  0.60769  1
 O  O9  1  0.44615  0.75000  0.39231  1
 O  O10  1  0.94615  0.25000  0.39231  1
 O  O11  1  0.85278  0.94949  0.80663  1
 O  O12  1  0.25000  0.75000  0.00000  1
 O  O13  1  0.64722  0.94949  0.19337  1
 O  O14  1  0.54615  0.44949  0.19337  1
 Sr  Sr1  1  0.93853  0.75000  0.37707  1
 Sr  Sr2  1  0.75000  0.75000  0.00000  1
 Sr  Sr3  1  0.25000  0.25000  0.00000  1
 Sr  Sr4  1  0.56147  0.75000  0.62293  1
 Sr  Sr5  1  0.43853  0.25000  0.37707  1
 Sr  Sr6  1  0.06147  0.25000  0.62293  1
