CIF file written using JARVIS-Tools package.
data_H3N
_symmetry_space_group_name_H-M  'P2_12_12_1'
_cell_length_a       3.43756
_cell_length_b       5.91297
_cell_length_c       5.73347
_cell_angle_alpha    90
_cell_angle_beta     90
_cell_angle_gamma    90

_symmetry_Int_Tables_number  19
_chemical_formula_structural  H3N
_chemical_formula_sum  H2N4
_cell_volume  116.53975099172219
_cell_formula_units_Z  4
loop_
  _symmetry_equiv_pos_site_id
 _symmetry_equiv_pos_as_xyz
 1  'x, y, z'
loop_
 _atom_site_type_symbol
 _atom_site_label
 _atom_site_symmetry_multiplicity
 _atom_site_fract_x
 _atom_site_fract_y
 _atom_site_fract_z
 _atom_site_fract_occupancy
 H  H1  1  0.62487  0.70713  0.26988  1
 H  H2  1  0.87513  0.29287  0.76988  1
 H  H3  1  0.12487  0.79287  0.73012  1
 H  H4  1  0.37513  0.20713  0.23012  1
 H  H5  1  0.01862  0.84450  0.18560  1
 H  H6  1  0.48138  0.15550  0.68560  1
 H  H7  1  0.51862  0.65550  0.81440  1
 H  H8  1  0.98138  0.34450  0.31440  1
 H  H9  1  0.77120  0.93549  0.41224  1
 H  H10  1  0.72880  0.06451  0.91224  1
 H  H11  1  0.27120  0.56451  0.58776  1
 H  H12  1  0.22880  0.43549  0.08776  1
 N  N1  1  0.74118  0.86614  0.24817  1
 N  N2  1  0.75882  0.13386  0.74817  1
 N  N3  1  0.24118  0.63386  0.75183  1
 N  N4  1  0.25882  0.36614  0.25183  1
