CIF file written using JARVIS-Tools package.
data_ZrSn
_symmetry_space_group_name_H-M  'Pmm2'
_cell_length_a       5.35477
_cell_length_b       6.51649
_cell_length_c       5.3548
_cell_angle_alpha    90
_cell_angle_beta     90
_cell_angle_gamma    90

_symmetry_Int_Tables_number  25
_chemical_formula_structural  ZrSn
_chemical_formula_sum  Zr4Sn4
_cell_volume  186.85220242083992
_cell_formula_units_Z  4
loop_
  _symmetry_equiv_pos_site_id
 _symmetry_equiv_pos_as_xyz
 1  'x, y, z'
loop_
 _atom_site_type_symbol
 _atom_site_label
 _atom_site_symmetry_multiplicity
 _atom_site_fract_x
 _atom_site_fract_y
 _atom_site_fract_z
 _atom_site_fract_occupancy
 Sn  Sn1  1  0.00000  0.00000  0.08273  1
 Sn  Sn2  1  0.50000  0.00000  0.58396  1
 Sn  Sn3  1  0.50000  0.26363  0.08398  1
 Sn  Sn4  1  0.50000  0.73637  0.08398  1
 Zr  Zr1  1  0.00000  0.24892  0.58267  1
 Zr  Zr2  1  0.00000  0.50000  0.08278  1
 Zr  Zr3  1  0.00000  0.75108  0.58267  1
 Zr  Zr4  1  0.50000  0.50000  0.58389  1
