CIF file written using JARVIS-Tools package.
data_TaP4S5Cl5
_symmetry_space_group_name_H-M  'P-1'
_cell_length_a       6.4557
_cell_length_b       10.0676
_cell_length_c       12.7203
_cell_angle_alpha    97.2385
_cell_angle_beta     103.594
_cell_angle_gamma    107.349

_symmetry_Int_Tables_number  2
_chemical_formula_structural  TaP4S5Cl5
_chemical_formula_sum  Ta2P8S0Cl0
_cell_volume  749.6954209170617
_cell_formula_units_Z  2
loop_
  _symmetry_equiv_pos_site_id
 _symmetry_equiv_pos_as_xyz
 1  'x, y, z'
loop_
 _atom_site_type_symbol
 _atom_site_label
 _atom_site_symmetry_multiplicity
 _atom_site_fract_x
 _atom_site_fract_y
 _atom_site_fract_z
 _atom_site_fract_occupancy
 Cl  Cl1  1  0.34894  0.31697  0.33087  1
 Cl  Cl2  1  0.99926  0.84566  0.92885  1
 Cl  Cl3  1  0.47808  0.21444  -0.01439  1
 Cl  Cl4  1  0.38644  0.48760  0.12442  1
 Cl  Cl5  1  0.00074  0.15434  0.07115  1
 Cl  Cl6  1  0.61356  0.51240  0.87558  1
 Cl  Cl7  1  0.45801  0.05664  0.19514  1
 Cl  Cl8  1  0.65106  0.68303  0.66913  1
 Cl  Cl9  1  0.54199  0.94336  0.80486  1
 Cl  Cl10  1  0.52192  0.78556  0.01439  1
 P  P1  1  0.87963  0.18374  0.48748  1
 P  P2  1  0.12037  0.81626  0.51252  1
 P  P3  1  0.04347  0.10317  0.74509  1
 P  P4  1  0.75142  0.68321  0.41153  1
 P  P5  1  0.92671  0.57914  0.30913  1
 P  P6  1  0.95653  0.89683  0.25491  1
 P  P7  1  0.07329  0.42086  0.69087  1
 P  P8  1  0.24858  0.31679  0.58847  1
 S  S1  1  0.79277  0.02847  0.58604  1
 S  S2  1  0.01061  0.30218  0.81248  1
 S  S3  1  0.16969  0.63039  0.75384  1
 S  S4  1  0.20723  0.97153  0.41396  1
 S  S5  1  0.78579  0.36393  0.55274  1
 S  S6  1  0.83031  0.36961  0.24616  1
 S  S7  1  0.21421  0.63607  0.44726  1
 S  S8  1  0.98939  0.69782  0.18752  1
 S  S9  1  0.65912  0.81643  0.31152  1
 S  S10  1  0.34088  0.18357  0.68848  1
 Ta  Ta1  1  0.61526  0.73787  0.85066  1
 Ta  Ta2  1  0.38474  0.26213  0.14934  1
