CIF file written using JARVIS-Tools package.
data_Nb2Ru
_symmetry_space_group_name_H-M  'Fmmm'
_cell_length_a       7.01294
_cell_length_b       6.81922
_cell_length_c       2.84139
_cell_angle_alpha    81.9989
_cell_angle_beta     74.3465
_cell_angle_gamma    23.6545

_symmetry_Int_Tables_number  69
_chemical_formula_structural  Nb2Ru
_chemical_formula_sum  Nb2Ru
_cell_volume  50.40595171997115
_cell_formula_units_Z  1
loop_
  _symmetry_equiv_pos_site_id
 _symmetry_equiv_pos_as_xyz
 1  'x, y, z'
loop_
 _atom_site_type_symbol
 _atom_site_label
 _atom_site_symmetry_multiplicity
 _atom_site_fract_x
 _atom_site_fract_y
 _atom_site_fract_z
 _atom_site_fract_occupancy
 Nb  Nb1  1  0.33943  0.33943  0.66057  1
 Nb  Nb2  1  0.66057  0.66057  0.33943  1
 Ru  Ru1  1  0.00000  0.00000  0.00000  1
