CIF file written using JARVIS-Tools package.
data_FeOF
_symmetry_space_group_name_H-M  'P2/m'
_cell_length_a       4.58996
_cell_length_b       2.87947
_cell_length_c       14.0219
_cell_angle_alpha    90
_cell_angle_beta     92.7335
_cell_angle_gamma    90

_symmetry_Int_Tables_number  10
_chemical_formula_structural  FeOF
_chemical_formula_sum  Fe6O6F6
_cell_volume  185.11177925683143
_cell_formula_units_Z  6
loop_
  _symmetry_equiv_pos_site_id
 _symmetry_equiv_pos_as_xyz
 1  'x, y, z'
loop_
 _atom_site_type_symbol
 _atom_site_label
 _atom_site_symmetry_multiplicity
 _atom_site_fract_x
 _atom_site_fract_y
 _atom_site_fract_z
 _atom_site_fract_occupancy
 F  F1  1  0.28520  0.50000  0.25720  1
 F  F2  1  0.32353  0.00000  0.09790  1
 F  F3  1  0.67647  0.00000  0.90210  1
 F  F4  1  0.81335  0.50000  0.38894  1
 F  F5  1  0.71480  0.50000  0.74280  1
 F  F6  1  0.18665  0.50000  0.61106  1
 Fe  Fe1  1  0.00000  0.00000  0.00000  1
 Fe  Fe2  1  0.58696  0.50000  0.15785  1
 Fe  Fe3  1  0.50000  0.50000  0.50000  1
 Fe  Fe4  1  0.41304  0.50000  0.84215  1
 Fe  Fe5  1  0.04454  0.00000  0.32495  1
 Fe  Fe6  1  0.95546  0.00000  0.67505  1
 O  O1  1  0.23640  0.00000  0.78237  1
 O  O2  1  0.68687  0.00000  0.56574  1
 O  O3  1  0.76360  0.00000  0.21763  1
 O  O4  1  0.81609  0.50000  0.05883  1
 O  O5  1  0.18391  0.50000  0.94117  1
 O  O6  1  0.31313  0.00000  0.43426  1
