CIF file written using JARVIS-Tools package.
data_SbXeOF9
_symmetry_space_group_name_H-M  'P-1'
_cell_length_a       8.54767
_cell_length_b       9.74507
_cell_length_c       10.0554
_cell_angle_alpha    110.412
_cell_angle_beta     92.3853
_cell_angle_gamma    104.829

_symmetry_Int_Tables_number  2
_chemical_formula_structural  SbXeOF9
_chemical_formula_sum  Sb4Xe4O4F36
_cell_volume  750.8973400668425
_cell_formula_units_Z  4
loop_
  _symmetry_equiv_pos_site_id
 _symmetry_equiv_pos_as_xyz
 1  'x, y, z'
loop_
 _atom_site_type_symbol
 _atom_site_label
 _atom_site_symmetry_multiplicity
 _atom_site_fract_x
 _atom_site_fract_y
 _atom_site_fract_z
 _atom_site_fract_occupancy
 F  F1  1  0.15374  0.77073  0.28520  1
 F  F2  1  0.02344  0.02856  0.65612  1
 F  F3  1  0.84626  0.22927  0.71480  1
 F  F4  1  0.69125  0.42776  0.52195  1
 F  F5  1  0.97656  0.97144  0.34388  1
 F  F6  1  0.52274  0.18573  0.58565  1
 F  F7  1  0.42639  0.01329  0.30679  1
 F  F8  1  0.52090  0.63149  0.96023  1
 F  F9  1  0.30495  0.25836  0.76480  1
 F  F10  1  0.13083  0.46895  0.83316  1
 F  F11  1  0.31412  0.57223  0.13413  1
 F  F12  1  0.93559  0.77152  0.07263  1
 F  F13  1  0.09651  0.26076  0.56144  1
 F  F14  1  0.47726  0.81427  0.41435  1
 F  F15  1  0.80699  0.93915  0.83981  1
 F  F16  1  0.19301  0.06085  0.16019  1
 F  F17  1  0.60609  0.93299  0.07888  1
 F  F18  1  0.63675  0.71879  0.57831  1
 F  F19  1  0.30875  0.57224  0.47805  1
 F  F20  1  -0.00989  0.38476  0.37095  1
 F  F21  1  0.39391  0.06701  0.92112  1
 F  F22  1  0.00989  0.61524  0.62905  1
 F  F23  1  0.36325  0.28121  0.42169  1
 F  F24  1  0.57361  0.98671  0.69321  1
 F  F25  1  0.22106  0.34983  0.20497  1
 F  F26  1  0.47910  0.36851  0.03977  1
 F  F27  1  0.69505  0.74164  0.23520  1
 F  F28  1  0.58716  0.25163  0.23733  1
 F  F29  1  0.25322  0.86022  0.59844  1
 F  F30  1  0.41284  0.74837  0.76267  1
 F  F31  1  0.06441  0.22848  0.92737  1
 F  F32  1  0.77894  0.65017  0.79503  1
 F  F33  1  0.86917  0.53105  0.16684  1
 F  F34  1  0.68588  0.42777  0.86587  1
 F  F35  1  0.74678  0.13978  0.40156  1
 F  F36  1  0.90349  0.73924  0.43856  1
 O  O1  1  0.10277  0.88467  0.86467  1
 O  O2  1  0.89723  0.11533  0.13533  1
 O  O3  1  0.73352  0.21317  0.98018  1
 O  O4  1  0.26648  0.78683  0.01982  1
 Sb  Sb1  1  0.56642  0.22410  0.41414  1
 Sb  Sb2  1  0.07450  0.25294  0.74837  1
 Sb  Sb3  1  0.43358  0.77590  0.58586  1
 Sb  Sb4  1  0.92550  0.74706  0.25163  1
 Xe  Xe1  1  0.07415  0.20480  0.27663  1
 Xe  Xe2  1  0.43917  0.77124  0.12123  1
 Xe  Xe3  1  0.92585  0.79520  0.72337  1
 Xe  Xe4  1  0.56083  0.22876  0.87877  1
