CIF file written using JARVIS-Tools package.
data_La3Ni2Sn7
_symmetry_space_group_name_H-M  'Cmmm'
_cell_length_a       4.6536
_cell_length_b       4.65239
_cell_length_c       14.0862
_cell_angle_alpha    90
_cell_angle_beta     99.5079
_cell_angle_gamma    90

_symmetry_Int_Tables_number  65
_chemical_formula_structural  La3Ni2Sn7
_chemical_formula_sum  La3Ni2Sn7
_cell_volume  300.7812228963194
_cell_formula_units_Z  1
loop_
  _symmetry_equiv_pos_site_id
 _symmetry_equiv_pos_as_xyz
 1  'x, y, z'
loop_
 _atom_site_type_symbol
 _atom_site_label
 _atom_site_symmetry_multiplicity
 _atom_site_fract_x
 _atom_site_fract_y
 _atom_site_fract_z
 _atom_site_fract_occupancy
 La  La1  1  0.18451  0.00000  0.36902  1
 La  La2  1  0.81549  0.00000  0.63098  1
 La  La3  1  0.50000  0.50000  -0.00000  1
 Ni  Ni1  1  0.37191  0.50000  0.74381  1
 Ni  Ni2  1  0.62809  0.50000  0.25619  1
 Sn  Sn1  1  0.08975  0.50000  0.17951  1
 Sn  Sn2  1  0.91025  0.50000  0.82049  1
 Sn  Sn3  1  0.28159  0.50000  0.56318  1
 Sn  Sn4  1  0.71841  0.50000  0.43682  1
 Sn  Sn5  1  0.00000  0.00000  0.00000  1
 Sn  Sn6  1  0.58964  0.00000  0.17929  1
 Sn  Sn7  1  0.41036  0.00000  0.82071  1
