CIF file written using JARVIS-Tools package.
data_Y3Sn
_symmetry_space_group_name_H-M  'P6_3/mmc'
_cell_length_a       6.80328
_cell_length_b       6.80328
_cell_length_c       5.57517
_cell_angle_alpha    90
_cell_angle_beta     90
_cell_angle_gamma    120

_symmetry_Int_Tables_number  194
_chemical_formula_structural  Y3Sn
_chemical_formula_sum  Y6Sn2
_cell_volume  223.47248319989916
_cell_formula_units_Z  2
loop_
  _symmetry_equiv_pos_site_id
 _symmetry_equiv_pos_as_xyz
 1  'x, y, z'
loop_
 _atom_site_type_symbol
 _atom_site_label
 _atom_site_symmetry_multiplicity
 _atom_site_fract_x
 _atom_site_fract_y
 _atom_site_fract_z
 _atom_site_fract_occupancy
 Sn  Sn1  1  0.33333  0.66667  0.75000  1
 Sn  Sn2  1  0.66667  0.33333  0.25000  1
 Y  Y1  1  0.65728  0.82864  0.25000  1
 Y  Y2  1  0.17136  0.82864  0.25000  1
 Y  Y3  1  0.17136  0.34272  0.25000  1
 Y  Y4  1  0.34272  0.17136  0.75000  1
 Y  Y5  1  0.82864  0.17136  0.75000  1
 Y  Y6  1  0.82864  0.65728  0.75000  1
