CIF file written using JARVIS-Tools package.
data_RbPrP3HO10
_symmetry_space_group_name_H-M  'P-1'
_cell_length_a       7.10243
_cell_length_b       7.68799
_cell_length_c       8.70976
_cell_angle_alpha    73.6018
_cell_angle_beta     74.2159
_cell_angle_gamma    82.8895

_symmetry_Int_Tables_number  2
_chemical_formula_structural  RbPrP3HO10
_chemical_formula_sum  Rb2Pr2P6H2O20
_cell_volume  438.46496358789966
_cell_formula_units_Z  2
loop_
  _symmetry_equiv_pos_site_id
 _symmetry_equiv_pos_as_xyz
 1  'x, y, z'
loop_
 _atom_site_type_symbol
 _atom_site_label
 _atom_site_symmetry_multiplicity
 _atom_site_fract_x
 _atom_site_fract_y
 _atom_site_fract_z
 _atom_site_fract_occupancy
 H  H1  1  0.81159  0.18625  0.08334  1
 H  H2  1  0.18841  0.81375  0.91666  1
 O  O1  1  0.29820  0.60584  0.23321  1
 O  O2  1  0.75832  0.13367  0.00820  1
 O  O3  1  0.95826  0.35947  0.42918  1
 O  O4  1  0.46100  0.15625  0.67110  1
 O  O5  1  0.04971  0.25034  0.76373  1
 O  O6  1  0.62526  0.83389  0.68849  1
 O  O7  1  0.76677  0.09114  0.45562  1
 O  O8  1  0.21172  0.93583  0.25142  1
 O  O9  1  0.09401  0.71176  0.82908  1
 O  O10  1  0.36744  0.57815  0.62770  1
 O  O11  1  0.53900  0.84375  0.32890  1
 O  O12  1  0.78828  0.06417  0.74858  1
 O  O13  1  0.37474  0.16611  0.31151  1
 O  O14  1  0.95029  0.74966  0.23627  1
 O  O15  1  0.24168  0.86633  -0.00820  1
 O  O16  1  0.23323  0.90886  0.54438  1
 O  O17  1  0.70180  0.39416  0.76679  1
 O  O18  1  0.04174  0.64053  0.57082  1
 O  O19  1  0.63256  0.42185  0.37230  1
 O  O20  1  0.90599  0.28824  0.17092  1
 P  P1  1  0.64312  0.03575  0.64649  1
 P  P2  1  0.17814  0.70132  0.65380  1
 P  P3  1  0.35688  0.96425  0.35351  1
 P  P4  1  0.16832  0.77246  0.18156  1
 P  P5  1  0.83168  0.22754  0.81844  1
 P  P6  1  0.82186  0.29868  0.34620  1
 Pr  Pr1  1  0.27145  0.36631  0.49134  1
 Pr  Pr2  1  0.72855  0.63369  0.50866  1
 Rb  Rb1  1  0.70311  0.69678  0.02804  1
 Rb  Rb2  1  0.29689  0.30322  0.97196  1
