CIF file written using JARVIS-Tools package.
data_SiBr4
_symmetry_space_group_name_H-M  'Pa-3'
_cell_length_a       10.9451
_cell_length_b       10.9451
_cell_length_c       10.9451
_cell_angle_alpha    90
_cell_angle_beta     90
_cell_angle_gamma    90

_symmetry_Int_Tables_number  205
_chemical_formula_structural  SiBr4
_chemical_formula_sum  Si8Br32
_cell_volume  1311.1549381807424
_cell_formula_units_Z  8
loop_
  _symmetry_equiv_pos_site_id
 _symmetry_equiv_pos_as_xyz
 1  'x, y, z'
loop_
 _atom_site_type_symbol
 _atom_site_label
 _atom_site_symmetry_multiplicity
 _atom_site_fract_x
 _atom_site_fract_y
 _atom_site_fract_z
 _atom_site_fract_occupancy
 Br  Br1  1  0.75314  0.75314  0.75314  1
 Br  Br2  1  0.24744  0.48224  0.50824  1
 Br  Br3  1  0.98224  0.50824  0.25256  1
 Br  Br4  1  0.25256  0.98224  0.50824  1
 Br  Br5  1  0.99176  0.74744  0.48224  1
 Br  Br6  1  0.25256  0.51776  0.00824  1
 Br  Br7  1  0.51776  0.49176  0.75256  1
 Br  Br8  1  0.48224  0.50824  0.24744  1
 Br  Br9  1  0.24744  0.01776  0.00824  1
 Br  Br10  1  0.01776  0.49176  0.74744  1
 Br  Br11  1  0.74686  0.25314  0.75314  1
 Br  Br12  1  0.74686  0.24686  0.25314  1
 Br  Br13  1  0.01776  0.00824  0.24744  1
 Br  Br14  1  0.75256  0.98224  0.99176  1
 Br  Br15  1  0.50824  0.24744  0.48224  1
 Br  Br16  1  0.74744  0.48224  0.99176  1
 Br  Br17  1  0.25314  0.75314  0.74686  1
 Br  Br18  1  0.50824  0.25256  0.98224  1
 Br  Br19  1  0.99176  0.75256  0.98224  1
 Br  Br20  1  0.49176  0.74744  0.01776  1
 Br  Br21  1  0.25314  0.74686  0.24686  1
 Br  Br22  1  0.24686  0.25314  0.74686  1
 Br  Br23  1  0.51776  0.00824  0.25256  1
 Br  Br24  1  0.75256  0.51776  0.49176  1
 Br  Br25  1  0.98224  0.99176  0.75256  1
 Br  Br26  1  0.00824  0.24744  0.01776  1
 Br  Br27  1  0.00824  0.25256  0.51776  1
 Br  Br28  1  0.49176  0.75256  0.51776  1
 Br  Br29  1  0.48224  0.99176  0.74744  1
 Br  Br30  1  0.75314  0.74686  0.25314  1
 Br  Br31  1  0.24686  0.24686  0.24686  1
 Br  Br32  1  0.74744  0.01776  0.49176  1
 Si  Si1  1  0.62997  0.37003  0.87003  1
 Si  Si2  1  0.37003  0.87003  0.62997  1
 Si  Si3  1  0.87003  0.62997  0.37003  1
 Si  Si4  1  0.62997  0.12997  0.37003  1
 Si  Si5  1  0.12997  0.37003  0.62997  1
 Si  Si6  1  0.87003  0.87003  0.87003  1
 Si  Si7  1  0.12997  0.12997  0.12997  1
 Si  Si8  1  0.37003  0.62997  0.12997  1
