CIF file written using JARVIS-Tools package.
data_BiPO4
_symmetry_space_group_name_H-M  'P2_1/m'
_cell_length_a       4.75537
_cell_length_b       4.75389
_cell_length_c       7.19502
_cell_angle_alpha    90
_cell_angle_beta     90
_cell_angle_gamma    95.4425

_symmetry_Int_Tables_number  11
_chemical_formula_structural  BiPO4
_chemical_formula_sum  Bi2P2O8
_cell_volume  161.92094284767862
_cell_formula_units_Z  2
loop_
  _symmetry_equiv_pos_site_id
 _symmetry_equiv_pos_as_xyz
 1  'x, y, z'
loop_
 _atom_site_type_symbol
 _atom_site_label
 _atom_site_symmetry_multiplicity
 _atom_site_fract_x
 _atom_site_fract_y
 _atom_site_fract_z
 _atom_site_fract_occupancy
 Bi  Bi1  1  0.86340  0.86282  0.50000  1
 Bi  Bi2  1  0.13660  0.13718  -0.00000  1
 O  O1  1  0.19362  0.19310  0.33118  1
 O  O2  1  0.68396  0.33343  0.00001  1
 O  O3  1  0.80638  0.80690  0.83118  1
 O  O4  1  0.80640  0.80692  0.16881  1
 O  O5  1  0.19360  0.19308  0.66881  1
 O  O6  1  0.31604  0.66657  0.50001  1
 O  O7  1  0.66720  0.31416  0.50001  1
 O  O8  1  0.33280  0.68584  0.00001  1
 P  P1  1  0.34665  0.34577  0.50000  1
 P  P2  1  0.65335  0.65423  -0.00000  1
