data_image0
_chemical_formula_structural       Hf3Mo3P3
_chemical_formula_sum              "Hf3 Mo3 P3"
_cell_length_a       6.92268
_cell_length_b       6.92268
_cell_length_c       3.41089
_cell_angle_alpha    90
_cell_angle_beta     90
_cell_angle_gamma    120.003

_space_group_name_H-M_alt    "P 1"
_space_group_IT_number       1

loop_
  _space_group_symop_operation_xyz
  'x, y, z'

loop_
  _atom_site_type_symbol
  _atom_site_label
  _atom_site_symmetry_multiplicity
  _atom_site_fract_x
  _atom_site_fract_y
  _atom_site_fract_z
  _atom_site_occupancy
  Hf  Hf1       1.0  0.59700  0.00001  0.50000  1.0000
  Hf  Hf2       1.0  0.40300  0.40300  0.50000  1.0000
  Hf  Hf3       1.0  0.00001  0.59700  0.50000  1.0000
  Mo  Mo1       1.0  0.25300  0.00001  0.00000  1.0000
  Mo  Mo2       1.0  0.00001  0.25300  0.00000  1.0000
  Mo  Mo3       1.0  0.74700  0.74700  0.00000  1.0000
  P   P1        1.0  0.66700  0.33300  0.00000  1.0000
  P   P2        1.0  0.33300  0.66700  0.00000  1.0000
  P   P3        1.0  0.00000  0.00000  0.50000  1.0000
