CIF file written using JARVIS-Tools package.
data_H4S4N6O
_symmetry_space_group_name_H-M  'C2/m'
_cell_length_a       9.38427
_cell_length_b       9.38427
_cell_length_c       7.02479
_cell_angle_alpha    73.1881
_cell_angle_beta     106.812
_cell_angle_gamma    141.331

_symmetry_Int_Tables_number  12
_chemical_formula_structural  H4S4N6O
_chemical_formula_sum  H8S8N2O2
_cell_volume  367.93281996949895
_cell_formula_units_Z  2
loop_
  _symmetry_equiv_pos_site_id
 _symmetry_equiv_pos_as_xyz
 1  'x, y, z'
loop_
 _atom_site_type_symbol
 _atom_site_label
 _atom_site_symmetry_multiplicity
 _atom_site_fract_x
 _atom_site_fract_y
 _atom_site_fract_z
 _atom_site_fract_occupancy
 H  H1  1  0.79444  0.20556  0.08462  1
 H  H2  1  0.20556  0.79444  0.91538  1
 H  H3  1  0.00142  0.26602  0.25559  1
 H  H4  1  0.73398  0.99858  0.25559  1
 H  H5  1  0.99858  0.73398  0.74441  1
 H  H6  1  0.26602  0.00142  0.74441  1
 H  H7  1  0.88612  0.11388  0.06093  1
 H  H8  1  0.11388  0.88612  0.93907  1
 N  N1  1  0.85449  0.14551  0.16164  1
 N  N2  1  0.14551  0.85449  0.83836  1
 N  N3  1  0.58870  0.82004  0.49180  1
 N  N4  1  0.17996  0.41130  0.49180  1
 N  N5  1  0.82004  0.58870  0.50820  1
 N  N6  1  0.79650  0.61660  0.10894  1
 N  N7  1  0.20350  0.38340  0.89106  1
 N  N8  1  0.38340  0.20350  0.10894  1
 N  N9  1  0.28567  0.71433  0.65649  1
 N  N10  1  0.41130  0.17996  0.50820  1
 N  N11  1  0.61660  0.79650  0.89106  1
 N  N12  1  0.71433  0.28567  0.34351  1
 O  O1  1  0.31584  0.68416  0.02584  1
 O  O2  1  0.68416  0.31584  0.97416  1
 S  S1  1  0.35301  0.64699  0.86824  1
 S  S2  1  0.76942  0.67037  0.29117  1
 S  S3  1  0.68012  0.31988  0.53906  1
 S  S4  1  0.23058  0.32963  0.70883  1
 S  S5  1  0.67037  0.76942  0.70883  1
 S  S6  1  0.31988  0.68012  0.46094  1
 S  S7  1  0.32963  0.23058  0.29117  1
 S  S8  1  0.64699  0.35301  0.13176  1
