CIF file written using JARVIS-Tools package.
data_MgB12C2
_symmetry_space_group_name_H-M  'Imma'
_cell_length_a       5.61645
_cell_length_b       6.90915
_cell_length_c       6.90915
_cell_angle_alpha    70.0504
_cell_angle_beta     66.018
_cell_angle_gamma    66.0179

_symmetry_Int_Tables_number  74
_chemical_formula_structural  MgB12C2
_chemical_formula_sum  Mg2B24C4
_cell_volume  218.78619420992564
_cell_formula_units_Z  2
loop_
  _symmetry_equiv_pos_site_id
 _symmetry_equiv_pos_as_xyz
 1  'x, y, z'
loop_
 _atom_site_type_symbol
 _atom_site_label
 _atom_site_symmetry_multiplicity
 _atom_site_fract_x
 _atom_site_fract_y
 _atom_site_fract_z
 _atom_site_fract_occupancy
 B  B1  1  0.72584  0.27524  0.59610  1
 B  B2  1  0.59365  0.58784  0.22487  1
 B  B3  1  0.90282  0.09610  0.77524  1
 B  B4  1  0.65465  0.13705  0.03305  1
 B  B5  1  0.84535  0.46695  0.36295  1
 B  B6  1  0.34535  0.86295  0.96695  1
 B  B7  1  0.27416  0.72476  0.40390  1
 B  B8  1  0.40635  0.41216  0.77513  1
 B  B9  1  0.32475  0.46695  0.36295  1
 B  B10  1  0.66712  0.31245  0.35332  1
 B  B11  1  0.82475  0.86295  0.96695  1
 B  B12  1  0.67525  0.53305  0.63705  1
 B  B13  1  0.09365  0.72487  0.08784  1
 B  B14  1  0.15465  0.53305  0.63705  1
 B  B15  1  0.59718  0.72476  0.40390  1
 B  B16  1  0.22584  0.09610  0.77524  1
 B  B17  1  0.77416  0.90390  0.22476  1
 B  B18  1  0.90635  0.27513  0.91216  1
 B  B19  1  0.33288  0.68755  0.64668  1
 B  B20  1  0.09718  0.90390  0.22476  1
 B  B21  1  0.83288  0.14668  0.18755  1
 B  B22  1  0.17525  0.13705  0.03305  1
 B  B23  1  0.40282  0.27524  0.59610  1
 B  B24  1  0.16712  0.85332  0.81245  1
 C  C1  1  0.83828  0.53289  0.79054  1
 C  C2  1  0.66172  0.70946  0.96711  1
 C  C3  1  0.33828  0.29054  0.03289  1
 C  C4  1  0.16172  0.46711  0.20946  1
 Mg  Mg1  1  0.75000  0.88816  0.61184  1
 Mg  Mg2  1  0.25000  0.11184  0.38816  1
