CIF file written using JARVIS-Tools package.
data_TbSb2Pd
_symmetry_space_group_name_H-M  'P4/nmm'
_cell_length_a       4.45905
_cell_length_b       4.45905
_cell_length_c       9.5395
_cell_angle_alpha    90
_cell_angle_beta     90
_cell_angle_gamma    90

_symmetry_Int_Tables_number  129
_chemical_formula_structural  TbSb2Pd
_chemical_formula_sum  Tb2Sb4Pd2
_cell_volume  189.67520191884012
_cell_formula_units_Z  2
loop_
  _symmetry_equiv_pos_site_id
 _symmetry_equiv_pos_as_xyz
 1  'x, y, z'
loop_
 _atom_site_type_symbol
 _atom_site_label
 _atom_site_symmetry_multiplicity
 _atom_site_fract_x
 _atom_site_fract_y
 _atom_site_fract_z
 _atom_site_fract_occupancy
 Pd  Pd1  1  0.25000  0.75000  0.50000  1
 Pd  Pd2  1  0.75000  0.25000  0.50000  1
 Sb  Sb1  1  0.25000  0.75000  0.00000  1
 Sb  Sb2  1  0.75000  0.25000  0.00000  1
 Sb  Sb3  1  0.75000  0.75000  0.33451  1
 Sb  Sb4  1  0.25000  0.25000  0.66549  1
 Tb  Tb1  1  0.75000  0.75000  0.74408  1
 Tb  Tb2  1  0.25000  0.25000  0.25592  1
