CIF file written using JARVIS-Tools package.
data_K2Ta15O32
_symmetry_space_group_name_H-M  'R-3'
_cell_length_a       12.8074
_cell_length_b       12.8074
_cell_length_c       12.8074
_cell_angle_alpha    35.6315
_cell_angle_beta     35.6315
_cell_angle_gamma    35.6315

_symmetry_Int_Tables_number  148
_chemical_formula_structural  K2Ta15O32
_chemical_formula_sum  K2Ta5O32
_cell_volume  637.3060676250341
_cell_formula_units_Z  1
loop_
  _symmetry_equiv_pos_site_id
 _symmetry_equiv_pos_as_xyz
 1  'x, y, z'
loop_
 _atom_site_type_symbol
 _atom_site_label
 _atom_site_symmetry_multiplicity
 _atom_site_fract_x
 _atom_site_fract_y
 _atom_site_fract_z
 _atom_site_fract_occupancy
 K  K1  1  0.85999  0.85999  0.85999  1
 K  K2  1  0.14001  0.14001  0.14001  1
 O  O1  1  0.54356  0.73375  0.31898  1
 O  O2  1  0.26625  0.68102  0.45644  1
 O  O3  1  0.68102  0.45644  0.26625  1
 O  O4  1  0.45644  0.26625  0.68102  1
 O  O5  1  0.15065  0.02981  0.44452  1
 O  O6  1  0.02981  0.44452  0.15065  1
 O  O7  1  0.44452  0.15065  0.02981  1
 O  O8  1  0.84935  0.97019  0.55548  1
 O  O9  1  0.97019  0.55548  0.84935  1
 O  O10  1  0.55548  0.84935  0.97019  1
 O  O11  1  0.26280  0.26280  0.26280  1
 O  O12  1  0.73720  0.73720  0.73720  1
 O  O13  1  0.96063  0.14051  0.69846  1
 O  O14  1  0.14051  0.69846  0.96063  1
 O  O15  1  0.69846  0.96063  0.14051  1
 O  O16  1  0.26008  0.16827  0.57173  1
 O  O17  1  0.57173  0.26008  0.16827  1
 O  O18  1  0.16827  0.57173  0.26008  1
 O  O19  1  0.73992  0.83173  0.42827  1
 O  O20  1  0.42827  0.73992  0.83173  1
 O  O21  1  0.31898  0.54356  0.73375  1
 O  O22  1  0.83173  0.42827  0.73992  1
 O  O23  1  0.73375  0.31898  0.54356  1
 O  O24  1  0.84326  0.54256  0.42808  1
 O  O25  1  0.15674  0.45744  0.57192  1
 O  O26  1  0.45744  0.57192  0.15674  1
 O  O27  1  0.03937  0.85949  0.30154  1
 O  O28  1  0.57192  0.15674  0.45744  1
 O  O29  1  0.30154  0.03937  0.85949  1
 O  O30  1  0.54256  0.42808  0.84326  1
 O  O31  1  0.42808  0.84326  0.54256  1
 O  O32  1  0.85949  0.30154  0.03937  1
 Ta  Ta1  1  0.36286  0.36286  0.36286  1
 Ta  Ta2  1  0.50000  0.50000  0.50000  1
 Ta  Ta3  1  0.97283  0.29806  0.42864  1
 Ta  Ta4  1  0.42864  0.97283  0.29806  1
 Ta  Ta5  1  0.02717  0.70194  0.57136  1
 Ta  Ta6  1  0.70194  0.57136  0.02717  1
 Ta  Ta7  1  0.77041  0.18438  0.94686  1
 Ta  Ta8  1  0.18438  0.94686  0.77041  1
 Ta  Ta9  1  0.94686  0.77041  0.18438  1
 Ta  Ta10  1  0.81562  0.05314  0.22959  1
 Ta  Ta11  1  0.05314  0.22959  0.81562  1
 Ta  Ta12  1  0.57136  0.02717  0.70194  1
 Ta  Ta13  1  0.63714  0.63714  0.63714  1
 Ta  Ta14  1  0.29806  0.42864  0.97283  1
 Ta  Ta15  1  0.22959  0.81562  0.05314  1
