CIF file written using JARVIS-Tools package.
data_CaHfO3
_symmetry_space_group_name_H-M  'Pnma'
_cell_length_a       5.56804
_cell_length_b       5.7478
_cell_length_c       7.9854
_cell_angle_alpha    90
_cell_angle_beta     90
_cell_angle_gamma    90

_symmetry_Int_Tables_number  62
_chemical_formula_structural  CaHfO3
_chemical_formula_sum  Ca4Hf4O2
_cell_volume  255.5645439580165
_cell_formula_units_Z  4
loop_
  _symmetry_equiv_pos_site_id
 _symmetry_equiv_pos_as_xyz
 1  'x, y, z'
loop_
 _atom_site_type_symbol
 _atom_site_label
 _atom_site_symmetry_multiplicity
 _atom_site_fract_x
 _atom_site_fract_y
 _atom_site_fract_z
 _atom_site_fract_occupancy
 Ca  Ca1  1  0.01293  0.94963  0.75000  1
 Ca  Ca2  1  0.48707  0.44963  0.75000  1
 Ca  Ca3  1  0.51293  0.55037  0.25000  1
 Ca  Ca4  1  0.98707  0.05037  0.25000  1
 Hf  Hf1  1  0.00000  0.50000  0.00000  1
 Hf  Hf2  1  0.00000  0.50000  0.50000  1
 Hf  Hf3  1  0.50000  0.00000  0.00000  1
 Hf  Hf4  1  0.50000  0.00000  0.50000  1
 O  O1  1  0.10366  0.46224  0.25000  1
 O  O2  1  0.80125  0.79861  0.44518  1
 O  O3  1  0.19875  0.20139  0.94518  1
 O  O4  1  0.30125  0.70139  0.55482  1
 O  O5  1  0.19875  0.20139  0.55482  1
 O  O6  1  0.69875  0.29861  0.44518  1
 O  O7  1  0.60366  0.03776  0.75000  1
 O  O8  1  0.69875  0.29861  0.05482  1
 O  O9  1  0.30125  0.70139  0.94518  1
 O  O10  1  0.80125  0.79861  0.05482  1
 O  O11  1  0.39634  0.96224  0.25000  1
 O  O12  1  0.89634  0.53776  0.75000  1
