CIF file written using JARVIS-Tools package.
data_ThGaIr
_symmetry_space_group_name_H-M  'P-62m'
_cell_length_a       4.04986
_cell_length_b       7.33713
_cell_length_c       7.33711
_cell_angle_alpha    120
_cell_angle_beta     90
_cell_angle_gamma    90

_symmetry_Int_Tables_number  189
_chemical_formula_structural  ThGaIr
_chemical_formula_sum  Th3Ga3Ir3
_cell_volume  188.80868626349388
_cell_formula_units_Z  3
loop_
  _symmetry_equiv_pos_site_id
 _symmetry_equiv_pos_as_xyz
 1  'x, y, z'
loop_
 _atom_site_type_symbol
 _atom_site_label
 _atom_site_symmetry_multiplicity
 _atom_site_fract_x
 _atom_site_fract_y
 _atom_site_fract_z
 _atom_site_fract_occupancy
 Ga  Ga1  1  0.00000  0.23845  -0.00000  1
 Ga  Ga2  1  0.00000  0.76152  0.76153  1
 Ga  Ga3  1  0.00000  0.99999  0.23847  1
 Ir  Ir1  1  0.00000  0.33332  0.66667  1
 Ir  Ir2  1  0.00000  0.66665  0.33333  1
 Ir  Ir3  1  0.50000  0.99999  0.00000  1
 Th  Th1  1  0.50000  0.58789  -0.00000  1
 Th  Th2  1  0.50000  0.41209  0.41210  1
 Th  Th3  1  0.50000  0.99999  0.58790  1
