CIF file written using JARVIS-Tools package.
data_CaB3H5O8
_symmetry_space_group_name_H-M  'P2_1'
_cell_length_a       6.07271
_cell_length_b       8.7803
_cell_length_c       11.1479
_cell_angle_alpha    90
_cell_angle_beta     90
_cell_angle_gamma    110.619

_symmetry_Int_Tables_number  4
_chemical_formula_structural  CaB3H5O8
_chemical_formula_sum  Ca4B2H20O32
_cell_volume  556.3330095188936
_cell_formula_units_Z  4
loop_
  _symmetry_equiv_pos_site_id
 _symmetry_equiv_pos_as_xyz
 1  'x, y, z'
loop_
 _atom_site_type_symbol
 _atom_site_label
 _atom_site_symmetry_multiplicity
 _atom_site_fract_x
 _atom_site_fract_y
 _atom_site_fract_z
 _atom_site_fract_occupancy
 B  B1  1  0.68057  0.42198  0.71865  1
 B  B2  1  0.50414  0.47198  0.05122  1
 B  B3  1  0.16265  0.28477  0.16983  1
 B  B4  1  0.31943  0.57802  0.21865  1
 B  B5  1  0.31814  0.08409  0.28987  1
 B  B6  1  0.50897  0.97427  0.44977  1
 B  B7  1  0.16633  0.78648  0.33166  1
 B  B8  1  0.49103  0.02573  0.94977  1
 B  B9  1  0.49586  0.52802  0.55122  1
 B  B10  1  0.68186  0.91591  0.78987  1
 B  B11  1  0.83735  0.71523  0.66983  1
 B  B12  1  0.83367  0.21352  0.83166  1
 Ca  Ca1  1  0.26204  0.11871  0.70576  1
 Ca  Ca2  1  0.73796  0.88129  0.20576  1
 Ca  Ca3  1  0.26029  0.61379  0.78916  1
 Ca  Ca4  1  0.73971  0.38621  0.28916  1
 H  H1  1  0.03372  0.22396  0.50016  1
 H  H2  1  0.85951  0.16412  0.07830  1
 H  H3  1  0.68052  0.06036  0.61019  1
 H  H4  1  0.97212  0.55081  0.02745  1
 H  H5  1  0.29561  0.67541  0.52226  1
 H  H6  1  0.13898  0.33314  0.92162  1
 H  H7  1  0.14049  0.83588  0.57830  1
 H  H8  1  0.86102  0.66686  0.42162  1
 H  H9  1  0.30137  0.17935  0.97373  1
 H  H10  1  0.02171  0.95762  0.97477  1
 H  H11  1  0.23428  0.69363  0.03509  1
 H  H12  1  0.02788  0.44919  0.52745  1
 H  H13  1  0.76572  0.30637  0.53509  1
 H  H14  1  0.31948  0.93964  0.11019  1
 H  H15  1  0.97829  0.04238  0.47477  1
 H  H16  1  0.34261  0.35366  0.42432  1
 H  H17  1  0.65739  0.64634  0.92432  1
 H  H18  1  0.70439  0.32459  0.02226  1
 H  H19  1  0.69863  0.82065  0.47373  1
 H  H20  1  0.96628  0.77604  0.00016  1
 O  O1  1  0.14662  0.93512  0.26649  1
 O  O2  1  0.53578  0.05397  0.56854  1
 O  O3  1  0.10493  0.13800  0.51021  1
 O  O4  1  0.89507  0.86200  0.01021  1
 O  O5  1  0.27742  0.83983  0.44825  1
 O  O6  1  0.28944  0.58039  0.57358  1
 O  O7  1  0.13706  0.43292  0.23056  1
 O  O8  1  0.71056  0.41961  0.07358  1
 O  O9  1  0.27815  0.33523  0.05312  1
 O  O10  1  0.90319  0.35838  0.48377  1
 O  O11  1  0.92954  0.66703  0.33999  1
 O  O12  1  0.29445  0.08390  0.92268  1
 O  O13  1  0.51811  0.09469  0.35388  1
 O  O14  1  0.48369  0.45040  0.43373  1
 O  O15  1  0.07046  0.33297  0.83999  1
 O  O16  1  0.46422  0.94603  0.06854  1
 O  O17  1  0.51852  0.58780  0.15260  1
 O  O18  1  0.31895  0.22955  0.24610  1
 O  O19  1  0.86294  0.56708  0.73056  1
 O  O20  1  0.07177  0.83724  0.65985  1
 O  O21  1  0.48189  0.90531  0.85388  1
 O  O22  1  0.68105  0.77045  0.74610  1
 O  O23  1  0.72258  0.16017  0.94825  1
 O  O24  1  0.51631  0.54960  0.93373  1
 O  O25  1  0.72185  0.66477  0.55312  1
 O  O26  1  0.70555  0.91610  0.42268  1
 O  O27  1  0.48148  0.41220  0.65260  1
 O  O28  1  0.32106  0.72568  0.25863  1
 O  O29  1  0.09681  0.64162  0.98377  1
 O  O30  1  0.67894  0.27432  0.75863  1
 O  O31  1  0.92823  0.16276  0.15985  1
 O  O32  1  0.85338  0.06488  0.76649  1
