CIF file written using JARVIS-Tools package.
data_ErB4Rh4
_symmetry_space_group_name_H-M  'I4_1/acd'
_cell_length_a       7.53444
_cell_length_b       7.53444
_cell_length_c       9.13741
_cell_angle_alpha    114.349
_cell_angle_beta     114.349
_cell_angle_gamma    90

_symmetry_Int_Tables_number  142
_chemical_formula_structural  ErB4Rh4
_chemical_formula_sum  Er4B6Rh6
_cell_volume  421.41594255728194
_cell_formula_units_Z  4
loop_
  _symmetry_equiv_pos_site_id
 _symmetry_equiv_pos_as_xyz
 1  'x, y, z'
loop_
 _atom_site_type_symbol
 _atom_site_label
 _atom_site_symmetry_multiplicity
 _atom_site_fract_x
 _atom_site_fract_y
 _atom_site_fract_z
 _atom_site_fract_occupancy
 B  B1  1  0.28676  0.84528  0.91473  1
 B  B2  1  0.71324  0.15472  0.08527  1
 B  B3  1  0.84528  0.62797  0.41473  1
 B  B4  1  0.56945  0.28676  0.41473  1
 B  B5  1  0.93055  0.87203  0.58527  1
 B  B6  1  0.62797  0.56945  0.91473  1
 B  B7  1  0.78676  0.06945  0.91473  1
 B  B8  1  0.34528  0.78676  0.41473  1
 B  B9  1  0.06945  0.12797  0.41473  1
 B  B10  1  0.37203  0.43055  0.08527  1
 B  B11  1  0.87203  0.65472  0.08527  1
 B  B12  1  0.15472  0.37203  0.58527  1
 B  B13  1  0.43055  0.71324  0.58527  1
 B  B14  1  0.12797  0.34528  0.91473  1
 B  B15  1  0.21324  0.93055  0.08527  1
 B  B16  1  0.65472  0.21324  0.58527  1
 Er  Er1  1  0.12500  0.37500  0.25000  1
 Er  Er2  1  0.62500  0.87500  0.25000  1
 Er  Er3  1  0.87500  0.62500  0.75000  1
 Er  Er4  1  0.37500  0.12500  0.75000  1
 Rh  Rh1  1  0.44579  0.15769  0.12266  1
 Rh  Rh2  1  0.55421  0.84231  0.87734  1
 Rh  Rh3  1  0.53503  0.55421  0.37734  1
 Rh  Rh4  1  0.17687  0.65769  0.12266  1
 Rh  Rh5  1  0.65769  0.94579  0.62266  1
 Rh  Rh6  1  0.94579  0.96497  0.12266  1
 Rh  Rh7  1  0.82313  0.34231  0.87734  1
 Rh  Rh8  1  0.46497  0.44579  0.62266  1
 Rh  Rh9  1  0.67687  0.46497  0.12266  1
 Rh  Rh10  1  0.03503  0.82313  0.37734  1
 Rh  Rh11  1  0.34231  0.05421  0.37734  1
 Rh  Rh12  1  0.05421  0.03503  0.87734  1
 Rh  Rh13  1  0.32313  0.53503  0.87734  1
 Rh  Rh14  1  0.96497  0.17687  0.62266  1
 Rh  Rh15  1  0.15769  0.67687  0.62266  1
 Rh  Rh16  1  0.84231  0.32313  0.37734  1
