CIF file written using JARVIS-Tools package.
data_Ba2CaB6O12
_symmetry_space_group_name_H-M  'R-3'
_cell_length_a       7.1529
_cell_length_b       7.15289
_cell_length_c       7.15289
_cell_angle_alpha    60.6568
_cell_angle_beta     60.6568
_cell_angle_gamma    60.6568

_symmetry_Int_Tables_number  148
_chemical_formula_structural  Ba2CaB6O12
_chemical_formula_sum  Ba2CaB6O2
_cell_volume  262.6167082954534
_cell_formula_units_Z  1
loop_
  _symmetry_equiv_pos_site_id
 _symmetry_equiv_pos_as_xyz
 1  'x, y, z'
loop_
 _atom_site_type_symbol
 _atom_site_label
 _atom_site_symmetry_multiplicity
 _atom_site_fract_x
 _atom_site_fract_y
 _atom_site_fract_z
 _atom_site_fract_occupancy
 B  B1  1  0.63136  0.75655  0.36638  1
 B  B2  1  0.36638  0.63136  0.75655  1
 B  B3  1  0.36864  0.24345  0.63362  1
 B  B4  1  0.63362  0.36864  0.24345  1
 B  B5  1  0.24345  0.63362  0.36864  1
 B  B6  1  0.75655  0.36638  0.63136  1
 Ba  Ba1  1  0.21060  0.21060  0.21060  1
 Ba  Ba2  1  0.78940  0.78940  0.78940  1
 Ca  Ca1  1  0.00000  0.00000  0.00000  1
 O  O1  1  0.16242  0.66321  0.91355  1
 O  O2  1  0.66321  0.91355  0.16242  1
 O  O3  1  0.83758  0.33679  0.08645  1
 O  O4  1  0.33679  0.08645  0.83758  1
 O  O5  1  0.79702  0.54277  0.42153  1
 O  O6  1  0.57847  0.20298  0.45723  1
 O  O7  1  0.54277  0.42153  0.79702  1
 O  O8  1  0.45723  0.57847  0.20298  1
 O  O9  1  0.91355  0.16242  0.66321  1
 O  O10  1  0.20298  0.45723  0.57847  1
 O  O11  1  0.42153  0.79702  0.54277  1
 O  O12  1  0.08645  0.83758  0.33679  1
