CIF file written using JARVIS-Tools package.
data_V4OF11
_symmetry_space_group_name_H-M  'P2'
_cell_length_a       5.36967
_cell_length_b       5.0504
_cell_length_c       7.27989
_cell_angle_alpha    90
_cell_angle_beta     95.0819
_cell_angle_gamma    90

_symmetry_Int_Tables_number  3
_chemical_formula_structural  V4OF11
_chemical_formula_sum  V4OF
_cell_volume  196.64719112545492
_cell_formula_units_Z  1
loop_
  _symmetry_equiv_pos_site_id
 _symmetry_equiv_pos_as_xyz
 1  'x, y, z'
loop_
 _atom_site_type_symbol
 _atom_site_label
 _atom_site_symmetry_multiplicity
 _atom_site_fract_x
 _atom_site_fract_y
 _atom_site_fract_z
 _atom_site_fract_occupancy
 F  F1  1  -0.00000  0.12595  0.50000  1
 F  F2  1  0.31305  0.18431  0.81034  1
 F  F3  1  0.68695  0.18431  0.18966  1
 F  F4  1  0.18640  0.31080  0.18632  1
 F  F5  1  0.81360  0.31080  0.81368  1
 F  F6  1  0.50000  0.60918  -0.00000  1
 F  F7  1  0.18492  0.68759  0.68937  1
 F  F8  1  0.81508  0.68759  0.31063  1
 F  F9  1  0.31427  0.81744  0.30613  1
 F  F10  1  0.68573  0.81744  0.69387  1
 F  F11  1  0.00000  0.87453  0.00000  1
 O  O1  1  0.50000  0.41048  0.50000  1
 V  V1  1  0.49998  0.49128  0.73735  1
 V  V2  1  0.50002  0.49128  0.26265  1
 V  V3  1  0.99981  0.99850  0.75072  1
 V  V4  1  0.00019  0.99850  0.24928  1
