CIF file written using JARVIS-Tools package.
data_K4CO4
_symmetry_space_group_name_H-M  'P-43m'
_cell_length_a       5.26023
_cell_length_b       5.2602
_cell_length_c       5.2602
_cell_angle_alpha    89.9917
_cell_angle_beta     89.9928
_cell_angle_gamma    89.9923

_symmetry_Int_Tables_number  215
_chemical_formula_structural  K4CO4
_chemical_formula_sum  K4CO4
_cell_volume  145.54902095130893
_cell_formula_units_Z  1
loop_
  _symmetry_equiv_pos_site_id
 _symmetry_equiv_pos_as_xyz
 1  'x, y, z'
loop_
 _atom_site_type_symbol
 _atom_site_label
 _atom_site_symmetry_multiplicity
 _atom_site_fract_x
 _atom_site_fract_y
 _atom_site_fract_z
 _atom_site_fract_occupancy
 C  C1  1  0.84617  0.84617  0.84616  1
 K  K1  1  0.55870  0.55873  0.13344  1
 K  K2  1  0.13350  0.13350  0.13350  1
 K  K3  1  0.55873  0.13344  0.55869  1
 K  K4  1  0.13344  0.55870  0.55873  1
 O  O1  1  0.68706  0.00524  0.00524  1
 O  O2  1  0.00524  0.00524  0.68706  1
 O  O3  1  0.68711  0.68711  0.68711  1
 O  O4  1  0.00524  0.68706  0.00524  1
