CIF file written using JARVIS-Tools package.
data_SrCaI4
_symmetry_space_group_name_H-M  'Imma'
_cell_length_a       8.90057
_cell_length_b       8.90057
_cell_length_c       8.90057
_cell_angle_alpha    106.543
_cell_angle_beta     106.697
_cell_angle_gamma    115.338

_symmetry_Int_Tables_number  74
_chemical_formula_structural  SrCaI4
_chemical_formula_sum  Sr2Ca2I8
_cell_volume  538.4755463572872
_cell_formula_units_Z  2
loop_
  _symmetry_equiv_pos_site_id
 _symmetry_equiv_pos_as_xyz
 1  'x, y, z'
loop_
 _atom_site_type_symbol
 _atom_site_label
 _atom_site_symmetry_multiplicity
 _atom_site_fract_x
 _atom_site_fract_y
 _atom_site_fract_z
 _atom_site_fract_occupancy
 Ca  Ca1  1  0.25071  0.25000  0.00071  1
 Ca  Ca2  1  0.74929  0.75000  0.99929  1
 I  I1  1  0.74859  0.04249  0.29108  1
 I  I2  1  0.69353  0.50077  0.19275  1
 I  I3  1  0.80802  0.00077  0.80725  1
 I  I4  1  0.74859  0.45751  0.70610  1
 I  I5  1  0.25141  0.54249  0.29390  1
 I  I6  1  0.30647  0.49923  0.80725  1
 I  I7  1  0.19198  0.99923  0.19275  1
 I  I8  1  0.25141  0.95751  0.70892  1
 Sr  Sr1  1  0.50000  0.00000  0.50000  1
 Sr  Sr2  1  0.00000  0.50000  0.50000  1
