CIF file written using JARVIS-Tools package.
data_AsPO5
_symmetry_space_group_name_H-M  'P2_12_12_1'
_cell_length_a       4.59849
_cell_length_b       8.20136
_cell_length_c       8.5748
_cell_angle_alpha    90
_cell_angle_beta     90
_cell_angle_gamma    90

_symmetry_Int_Tables_number  19
_chemical_formula_structural  AsPO5
_chemical_formula_sum  As4P4O20
_cell_volume  323.38916898626684
_cell_formula_units_Z  4
loop_
  _symmetry_equiv_pos_site_id
 _symmetry_equiv_pos_as_xyz
 1  'x, y, z'
loop_
 _atom_site_type_symbol
 _atom_site_label
 _atom_site_symmetry_multiplicity
 _atom_site_fract_x
 _atom_site_fract_y
 _atom_site_fract_z
 _atom_site_fract_occupancy
 As  As1  1  0.12833  0.89968  0.34844  1
 As  As2  1  0.37167  0.39968  0.65156  1
 As  As3  1  0.87167  0.60032  0.84844  1
 As  As4  1  0.62833  0.10032  0.15156  1
 O  O1  1  0.79495  0.24899  0.29102  1
 O  O2  1  0.20505  0.25101  0.79102  1
 O  O3  1  0.70505  0.74899  0.70898  1
 O  O4  1  0.46550  0.96019  -0.00039  1
 O  O5  1  0.96550  0.03981  0.50039  1
 O  O6  1  0.03450  0.46019  0.00039  1
 O  O7  1  0.53450  0.53981  0.49961  1
 O  O8  1  0.17176  0.57570  0.71436  1
 O  O9  1  0.67176  0.42430  0.78564  1
 O  O10  1  0.32824  0.07570  0.28564  1
 O  O11  1  0.82824  0.92430  0.21436  1
 O  O12  1  0.08149  0.35154  0.50531  1
 O  O13  1  0.41851  0.85154  0.49469  1
 O  O14  1  0.58149  0.64846  -0.00531  1
 O  O15  1  0.92187  0.72514  0.43198  1
 O  O16  1  0.42187  0.27486  0.06802  1
 O  O17  1  0.57813  0.22514  0.56802  1
 O  O18  1  0.07813  0.77486  0.93198  1
 O  O19  1  0.29495  0.75101  0.20898  1
 O  O20  1  0.91851  0.14846  0.00531  1
 P  P1  1  0.85905  0.21690  0.46745  1
 P  P2  1  0.35905  0.78310  0.03255  1
 P  P3  1  0.64095  0.71690  0.53255  1
 P  P4  1  0.14095  0.28310  0.96745  1
