CIF file written using JARVIS-Tools package.
data_SiO2
_symmetry_space_group_name_H-M  'Cmcm'
_cell_length_a       6.70147
_cell_length_b       6.70147
_cell_length_c       9.18374
_cell_angle_alpha    90
_cell_angle_beta     90
_cell_angle_gamma    104.067

_symmetry_Int_Tables_number  63
_chemical_formula_structural  SiO2
_chemical_formula_sum  Si8O6
_cell_volume  400.0705850527235
_cell_formula_units_Z  8
loop_
  _symmetry_equiv_pos_site_id
 _symmetry_equiv_pos_as_xyz
 1  'x, y, z'
loop_
 _atom_site_type_symbol
 _atom_site_label
 _atom_site_symmetry_multiplicity
 _atom_site_fract_x
 _atom_site_fract_y
 _atom_site_fract_z
 _atom_site_fract_occupancy
 O  O1  1  0.88355  0.11645  0.41064  1
 O  O2  1  0.26644  0.26644  0.00000  1
 O  O3  1  0.11645  0.88355  0.58936  1
 O  O4  1  0.88355  0.11645  0.08936  1
 O  O5  1  0.50000  0.00000  0.50000  1
 O  O6  1  0.39300  0.14027  0.75000  1
 O  O7  1  0.85973  0.60700  0.75000  1
 O  O8  1  0.73356  0.73356  0.50000  1
 O  O9  1  0.26644  0.26644  0.50000  1
 O  O10  1  0.11645  0.88355  0.91064  1
 O  O11  1  0.73356  0.73356  0.00000  1
 O  O12  1  0.00000  0.50000  0.00000  1
 O  O13  1  0.14027  0.39300  0.25000  1
 O  O14  1  0.60700  0.85973  0.25000  1
 O  O15  1  0.50000  0.00000  0.00000  1
 O  O16  1  0.00000  0.50000  0.50000  1
 Si  Si1  1  0.07219  0.31932  0.08462  1
 Si  Si2  1  0.92781  0.68068  0.58462  1
 Si  Si3  1  0.07219  0.31932  0.41538  1
 Si  Si4  1  0.31932  0.07219  0.58462  1
 Si  Si5  1  0.68068  0.92781  0.08462  1
 Si  Si6  1  0.31932  0.07219  0.91538  1
 Si  Si7  1  0.92781  0.68068  0.91538  1
 Si  Si8  1  0.68068  0.92781  0.41538  1
