CIF file written using JARVIS-Tools package.
data_Li2V3S6
_symmetry_space_group_name_H-M  'P6_3/mcm'
_cell_length_a       5.59975
_cell_length_b       5.59978
_cell_length_c       14.8242
_cell_angle_alpha    90.0056
_cell_angle_beta     89.9887
_cell_angle_gamma    120

_symmetry_Int_Tables_number  193
_chemical_formula_structural  Li2V3S6
_chemical_formula_sum  Li4V6S2
_cell_volume  402.5719538134811
_cell_formula_units_Z  2
loop_
  _symmetry_equiv_pos_site_id
 _symmetry_equiv_pos_as_xyz
 1  'x, y, z'
loop_
 _atom_site_type_symbol
 _atom_site_label
 _atom_site_symmetry_multiplicity
 _atom_site_fract_x
 _atom_site_fract_y
 _atom_site_fract_z
 _atom_site_fract_occupancy
 Li  Li1  1  0.33328  0.66669  0.25000  1
 Li  Li2  1  0.33328  0.66669  0.75000  1
 Li  Li3  1  0.66659  0.33331  0.75000  1
 Li  Li4  1  0.66659  0.33331  0.25000  1
 S  S1  1  0.66670  0.33333  0.90292  1
 S  S2  1  0.33328  0.66667  0.59708  1
 S  S3  1  0.99996  0.00000  0.10132  1
 S  S4  1  0.00003  -0.00000  0.39868  1
 S  S5  1  0.33329  0.66667  0.09708  1
 S  S6  1  0.33336  0.66667  0.40292  1
 S  S7  1  0.00004  -0.00000  0.89868  1
 S  S8  1  0.33337  0.66667  0.90292  1
 S  S9  1  0.66661  0.33333  0.59708  1
 S  S10  1  -0.00006  0.00000  0.60132  1
 S  S11  1  0.66662  0.33333  0.09708  1
 S  S12  1  0.66670  0.33333  0.40292  1
 V  V1  1  0.67470  -0.00000  -0.00000  1
 V  V2  1  0.67469  0.67471  0.50000  1
 V  V3  1  0.32528  -0.00000  0.50000  1
 V  V4  1  0.32529  0.32529  -0.00000  1
 V  V5  1  -0.00001  0.32529  0.50000  1
 V  V6  1  -0.00001  0.67471  -0.00000  1
