CIF file written using JARVIS-Tools package.
data_TmPaO4
_symmetry_space_group_name_H-M  'I4_1/amd'
_cell_length_a       7.55337
_cell_length_b       9.99665
_cell_length_c       6.54825
_cell_angle_alpha    29.1983
_cell_angle_beta     54.778
_cell_angle_gamma    40.923

_symmetry_Int_Tables_number  141
_chemical_formula_structural  TmPaO4
_chemical_formula_sum  Tm2Pa2O8
_cell_volume  152.6012117210661
_cell_formula_units_Z  2
loop_
  _symmetry_equiv_pos_site_id
 _symmetry_equiv_pos_as_xyz
 1  'x, y, z'
loop_
 _atom_site_type_symbol
 _atom_site_label
 _atom_site_symmetry_multiplicity
 _atom_site_fract_x
 _atom_site_fract_y
 _atom_site_fract_z
 _atom_site_fract_occupancy
 O  O1  1  0.13074  -0.00574  0.25574  1
 O  O2  1  0.37500  0.00574  0.74426  1
 O  O3  1  0.61926  0.00574  0.24426  1
 O  O4  1  0.13074  0.49426  0.75574  1
 O  O5  1  0.37500  0.49426  0.25574  1
 O  O6  1  0.87500  -0.00574  0.75574  1
 O  O7  1  0.87500  0.50574  0.24426  1
 O  O8  1  0.61926  0.50574  0.74426  1
 Pa  Pa1  1  0.50000  0.00000  0.00000  1
 Pa  Pa2  1  0.25000  0.50000  -0.00000  1
 Tm  Tm1  1  0.00000  0.00000  0.00000  1
 Tm  Tm2  1  0.75000  0.50000  -0.00000  1
