CIF file written using JARVIS-Tools package.
data_KH3SO6
_symmetry_space_group_name_H-M  'C2/c'
_cell_length_a       9.83403
_cell_length_b       9.83403
_cell_length_c       7.39919
_cell_angle_alpha    88.99
_cell_angle_beta     91.01
_cell_angle_gamma    134.273

_symmetry_Int_Tables_number  15
_chemical_formula_structural  KH3SO6
_chemical_formula_sum  K4H2S4O24
_cell_volume  512.2668681589317
_cell_formula_units_Z  4
loop_
  _symmetry_equiv_pos_site_id
 _symmetry_equiv_pos_as_xyz
 1  'x, y, z'
loop_
 _atom_site_type_symbol
 _atom_site_label
 _atom_site_symmetry_multiplicity
 _atom_site_fract_x
 _atom_site_fract_y
 _atom_site_fract_z
 _atom_site_fract_occupancy
 H  H1  1  0.64326  0.71720  0.94887  1
 H  H2  1  0.83363  0.92740  0.62131  1
 H  H3  1  0.71720  0.64326  0.55113  1
 H  H4  1  0.35674  0.28280  0.05113  1
 H  H5  1  0.13630  0.23508  0.92238  1
 H  H6  1  0.76492  0.86370  0.42238  1
 H  H7  1  0.86370  0.76492  0.07762  1
 H  H8  1  0.16637  0.07260  0.37869  1
 H  H9  1  0.07260  0.16637  0.12131  1
 H  H10  1  0.23508  0.13630  0.57762  1
 H  H11  1  0.92740  0.83363  0.87869  1
 H  H12  1  0.28280  0.35674  0.44887  1
 K  K1  1  0.20114  0.55877  0.12092  1
 K  K2  1  0.79886  0.44123  0.87908  1
 K  K3  1  0.55877  0.20114  0.37908  1
 K  K4  1  0.44123  0.79886  0.62092  1
 O  O1  1  0.00676  0.16613  0.71379  1
 O  O2  1  0.53257  0.70781  0.95755  1
 O  O3  1  0.18588  0.26739  0.04809  1
 O  O4  1  0.46743  0.29219  0.04245  1
 O  O5  1  0.29219  0.46743  0.45755  1
 O  O6  1  0.63691  0.91134  0.93978  1
 O  O7  1  0.91134  0.63691  0.56022  1
 O  O8  1  0.36309  0.08866  0.06022  1
 O  O9  1  0.08866  0.36309  0.43978  1
 O  O10  1  0.83387  0.99324  0.21379  1
 O  O11  1  0.99324  0.83387  0.28621  1
 O  O12  1  0.70781  0.53257  0.54245  1
 O  O13  1  0.20332  0.80175  0.41327  1
 O  O14  1  0.46270  0.08954  0.74919  1
 O  O15  1  0.81412  0.73261  0.95191  1
 O  O16  1  0.79668  0.19825  0.58673  1
 O  O17  1  0.19825  0.79668  0.91327  1
 O  O18  1  0.73261  0.81412  0.54809  1
 O  O19  1  0.80175  0.20332  0.08673  1
 O  O20  1  0.08954  0.46270  0.75081  1
 O  O21  1  0.16613  0.00676  0.78621  1
 O  O22  1  0.91046  0.53730  0.24919  1
 O  O23  1  0.53730  0.91046  0.25081  1
 O  O24  1  0.26739  0.18588  0.45191  1
 S  S1  1  0.98760  0.29252  0.64276  1
 S  S2  1  0.29252  0.98760  0.85724  1
 S  S3  1  0.01240  0.70748  0.35724  1
 S  S4  1  0.70748  0.01240  0.14276  1
