CIF file written using JARVIS-Tools package.
data_ZnH4C2O6
_symmetry_space_group_name_H-M  'C2/c'
_cell_length_a       5.50954
_cell_length_b       6.26565
_cell_length_c       8.24702
_cell_angle_alpha    80.1844
_cell_angle_beta     70.4864
_cell_angle_gamma    63.9177

_symmetry_Int_Tables_number  15
_chemical_formula_structural  ZnH4C2O6
_chemical_formula_sum  Zn2H8C4O2
_cell_volume  240.92105667048034
_cell_formula_units_Z  2
loop_
  _symmetry_equiv_pos_site_id
 _symmetry_equiv_pos_as_xyz
 1  'x, y, z'
loop_
 _atom_site_type_symbol
 _atom_site_label
 _atom_site_symmetry_multiplicity
 _atom_site_fract_x
 _atom_site_fract_y
 _atom_site_fract_z
 _atom_site_fract_occupancy
 C  C1  1  0.88301  0.75187  0.85028  1
 C  C2  1  0.01484  0.25187  0.35028  1
 C  C3  1  0.98516  0.74813  0.64972  1
 C  C4  1  0.11699  0.24813  0.14972  1
 H  H1  1  0.51235  0.30959  0.85844  1
 H  H2  1  0.48765  0.69041  0.14156  1
 H  H3  1  0.88999  0.81152  0.15072  1
 H  H4  1  0.35223  0.68848  0.34928  1
 H  H5  1  0.11001  0.18848  0.84928  1
 H  H6  1  0.64777  0.31152  0.65072  1
 H  H7  1  0.18038  0.19041  0.64156  1
 H  H8  1  0.81962  0.80959  0.35844  1
 O  O1  1  0.77285  0.25258  0.42519  1
 O  O2  1  0.26014  0.12512  0.74008  1
 O  O3  1  0.95062  0.24742  0.07481  1
 O  O4  1  0.73986  0.87488  0.25992  1
 O  O5  1  0.37466  0.62512  0.24008  1
 O  O6  1  0.64082  0.75391  0.92404  1
 O  O7  1  0.62534  0.37488  0.75992  1
 O  O8  1  0.35918  0.24609  0.07596  1
 O  O9  1  0.04938  0.75258  0.92519  1
 O  O10  1  0.81877  0.74609  0.57596  1
 O  O11  1  0.18123  0.25391  0.42404  1
 O  O12  1  0.22715  0.74742  0.57481  1
 Zn  Zn1  1  0.56424  0.25000  0.25000  1
 Zn  Zn2  1  0.43576  0.75000  0.75000  1
