CIF file written using JARVIS-Tools package.
data_RbBiC4S4N4
_symmetry_space_group_name_H-M  'P2_12_12'
_cell_length_a       6.45911
_cell_length_b       7.66109
_cell_length_c       11.1376
_cell_angle_alpha    90
_cell_angle_beta     90
_cell_angle_gamma    90

_symmetry_Int_Tables_number  18
_chemical_formula_structural  RbBiC4S4N4
_chemical_formula_sum  Rb2Bi2C8S8N8
_cell_volume  551.1325479091693
_cell_formula_units_Z  2
loop_
  _symmetry_equiv_pos_site_id
 _symmetry_equiv_pos_as_xyz
 1  'x, y, z'
loop_
 _atom_site_type_symbol
 _atom_site_label
 _atom_site_symmetry_multiplicity
 _atom_site_fract_x
 _atom_site_fract_y
 _atom_site_fract_z
 _atom_site_fract_occupancy
 Bi  Bi1  1  0.00316  0.00000  0.00000  1
 Bi  Bi2  1  -0.00316  0.50000  0.50000  1
 C  C1  1  0.11520  0.20041  0.25675  1
 C  C2  1  0.55773  0.53950  0.63331  1
 C  C3  1  0.11520  0.79959  0.74325  1
 C  C4  1  0.55773  0.46050  0.36669  1
 C  C5  1  0.44227  0.03950  0.86669  1
 C  C6  1  0.44227  0.96050  0.13331  1
 C  C7  1  0.88480  0.70041  0.24325  1
 C  C8  1  0.88480  0.29959  0.75675  1
 N  N1  1  0.70085  0.37217  0.39659  1
 N  N2  1  0.70085  0.62783  0.60341  1
 N  N3  1  0.08937  0.22678  0.15263  1
 N  N4  1  0.29915  0.87217  0.10341  1
 N  N5  1  0.91063  0.72678  0.34737  1
 N  N6  1  0.91063  0.27322  0.65263  1
 N  N7  1  0.29915  0.12783  0.89659  1
 N  N8  1  0.08937  0.77322  0.84737  1
 Rb  Rb1  1  0.65867  0.00000  0.50000  1
 Rb  Rb2  1  0.34133  0.50000  0.00000  1
 S  S1  1  0.62922  0.91302  0.82649  1
 S  S2  1  0.15257  0.84146  0.60237  1
 S  S3  1  0.15257  0.15854  0.39763  1
 S  S4  1  0.84743  0.34146  0.89763  1
 S  S5  1  0.84743  0.65854  0.10237  1
 S  S6  1  0.62922  0.08698  0.17351  1
 S  S7  1  0.37078  0.41302  0.67351  1
 S  S8  1  0.37078  0.58698  0.32649  1
