CIF file written using JARVIS-Tools package.
data_Ba3Te4O11
_symmetry_space_group_name_H-M  'P-1'
_cell_length_a       7.98152
_cell_length_b       9.46256
_cell_length_c       10.0334
_cell_angle_alpha    97.5716
_cell_angle_beta     110.642
_cell_angle_gamma    103.339

_symmetry_Int_Tables_number  2
_chemical_formula_structural  Ba3Te4O11
_chemical_formula_sum  Ba6Te8O22
_cell_volume  670.8341629106393
_cell_formula_units_Z  2
loop_
  _symmetry_equiv_pos_site_id
 _symmetry_equiv_pos_as_xyz
 1  'x, y, z'
loop_
 _atom_site_type_symbol
 _atom_site_label
 _atom_site_symmetry_multiplicity
 _atom_site_fract_x
 _atom_site_fract_y
 _atom_site_fract_z
 _atom_site_fract_occupancy
 Ba  Ba1  1  0.28190  0.54422  0.62808  1
 Ba  Ba2  1  0.30712  0.01156  0.11103  1
 Ba  Ba3  1  0.69288  0.98844  0.88897  1
 Ba  Ba4  1  0.71810  0.45578  0.37192  1
 Ba  Ba5  1  0.85521  0.59666  0.82136  1
 Ba  Ba6  1  0.14479  0.40334  0.17864  1
 O  O1  1  0.78894  0.23473  0.19245  1
 O  O2  1  0.99823  0.95456  0.84268  1
 O  O3  1  0.00177  0.04544  0.15732  1
 O  O4  1  0.59487  0.68710  0.89874  1
 O  O5  1  0.53445  0.38730  0.64848  1
 O  O6  1  0.40513  0.31290  0.10126  1
 O  O7  1  0.26288  0.36136  0.81727  1
 O  O8  1  0.73712  0.63864  0.18273  1
 O  O9  1  0.21106  0.76527  0.80755  1
 O  O10  1  0.06903  0.59606  0.36940  1
 O  O11  1  0.93097  0.40394  0.63060  1
 O  O12  1  0.47177  0.21127  0.36958  1
 O  O13  1  0.40295  0.10192  0.86807  1
 O  O14  1  0.14208  0.27055  0.42010  1
 O  O15  1  0.33582  0.87598  0.36797  1
 O  O16  1  0.85792  0.72945  0.57990  1
 O  O17  1  0.59705  0.89808  0.13193  1
 O  O18  1  0.92837  0.31574  0.89354  1
 O  O19  1  0.07163  0.68426  0.10646  1
 O  O20  1  0.66418  0.12402  0.63203  1
 O  O21  1  0.52823  0.78873  0.63042  1
 O  O22  1  0.46555  0.61270  0.35152  1
 Te  Te1  1  0.47556  0.31148  0.94031  1
 Te  Te2  1  0.43112  0.18692  0.53852  1
 Te  Te3  1  0.56888  0.81308  0.46148  1
 Te  Te4  1  0.94774  0.23992  0.71764  1
 Te  Te5  1  0.05226  0.76008  0.28236  1
 Te  Te6  1  0.52444  0.68852  0.05969  1
 Te  Te7  1  0.08638  0.88739  0.70024  1
 Te  Te8  1  0.91362  0.11261  0.29976  1
