CIF file written using JARVIS-Tools package.
data_K2ZrCdH16C8O24
_symmetry_space_group_name_H-M  'I-4'
_cell_length_a       9.08839
_cell_length_b       9.08839
_cell_length_c       9.08839
_cell_angle_alpha    103.232
_cell_angle_beta     103.232
_cell_angle_gamma    122.835

_symmetry_Int_Tables_number  82
_chemical_formula_structural  K2ZrCdH16C8O24
_chemical_formula_sum  K2ZrCdH6C8O24
_cell_volume  553.8845134089358
_cell_formula_units_Z  1
loop_
  _symmetry_equiv_pos_site_id
 _symmetry_equiv_pos_as_xyz
 1  'x, y, z'
loop_
 _atom_site_type_symbol
 _atom_site_label
 _atom_site_symmetry_multiplicity
 _atom_site_fract_x
 _atom_site_fract_y
 _atom_site_fract_z
 _atom_site_fract_occupancy
 C  C1  1  0.21921  0.44126  0.23718  1
 C  C2  1  0.04604  0.77002  0.72391  1
 C  C3  1  0.67787  0.95396  0.72398  1
 C  C4  1  0.22998  0.95389  0.27602  1
 C  C5  1  0.04611  0.32213  0.27609  1
 C  C6  1  0.55874  0.79592  0.77795  1
 C  C7  1  0.01797  0.78079  0.22205  1
 C  C8  1  0.20408  0.98203  0.76282  1
 Cd  Cd1  1  0.00000  0.00000  0.00000  1
 H  H1  1  0.84980  0.51718  0.84565  1
 H  H2  1  0.76889  0.41685  0.16777  1
 H  H3  1  0.24908  0.60112  0.83223  1
 H  H4  1  0.39888  0.23111  0.64796  1
 H  H5  1  0.58315  0.75092  0.35204  1
 H  H6  1  0.48282  0.32847  0.33262  1
 H  H7  1  0.61091  0.18807  0.08099  1
 H  H8  1  0.47008  0.38909  0.57716  1
 H  H9  1  0.99585  0.15020  0.66738  1
 H  H10  1  0.44151  0.86073  0.08139  1
 H  H11  1  0.77934  0.36012  0.91861  1
 H  H12  1  0.63988  0.55849  0.41923  1
 H  H13  1  0.13927  0.22066  0.58077  1
 H  H14  1  0.67153  0.00415  0.15435  1
 H  H15  1  0.10708  0.52992  0.91901  1
 H  H16  1  0.81193  0.89292  0.42284  1
 K  K1  1  0.50000  0.50000  0.00000  1
 K  K2  1  0.75000  0.25000  0.50000  1
 O  O1  1  0.26814  0.06456  0.20511  1
 O  O2  1  0.58815  0.44096  0.44004  1
 O  O3  1  0.30934  0.00278  0.68176  1
 O  O4  1  0.32102  0.62758  0.31824  1
 O  O5  1  0.37242  0.69066  0.69345  1
 O  O6  1  -0.00278  0.67898  0.30655  1
 O  O7  1  0.22032  0.11394  0.86261  1
 O  O8  1  0.25134  0.35771  0.13739  1
 O  O9  1  0.64229  0.77968  0.89362  1
 O  O10  1  0.88606  0.74866  0.10638  1
 O  O11  1  0.93697  0.73186  0.79643  1
 O  O12  1  0.93544  0.14055  0.20357  1
 O  O13  1  0.00092  0.14811  0.55996  1
 O  O14  1  0.04138  0.64713  0.61648  1
 O  O15  1  0.03065  0.42490  0.38352  1
 O  O16  1  0.57510  0.95862  0.60575  1
 O  O17  1  0.35287  0.96935  0.39425  1
 O  O18  1  0.66447  0.30554  0.05963  1
 O  O19  1  0.24591  0.60485  0.94037  1
 O  O20  1  0.39515  0.33553  0.64107  1
 O  O21  1  0.69446  0.75409  0.35893  1
 O  O22  1  0.55904  -0.00092  0.14719  1
 O  O23  1  0.85189  0.41185  0.85281  1
 O  O24  1  0.85945  0.06303  0.79489  1
 Zr  Zr1  1  0.25000  0.75000  0.50000  1
