CIF file written using JARVIS-Tools package.
data_Na4WO4
_symmetry_space_group_name_H-M  'I4/m'
_cell_length_a       4.87111
_cell_length_b       5.59862
_cell_length_c       5.59862
_cell_angle_alpha    100.909
_cell_angle_beta     115.787
_cell_angle_gamma    64.213

_symmetry_Int_Tables_number  87
_chemical_formula_structural  Na4WO4
_chemical_formula_sum  Na4WO4
_cell_volume  123.78785130543375
_cell_formula_units_Z  1
loop_
  _symmetry_equiv_pos_site_id
 _symmetry_equiv_pos_as_xyz
 1  'x, y, z'
loop_
 _atom_site_type_symbol
 _atom_site_label
 _atom_site_symmetry_multiplicity
 _atom_site_fract_x
 _atom_site_fract_y
 _atom_site_fract_z
 _atom_site_fract_occupancy
 Na  Na1  1  0.41224  0.38933  0.21380  1
 Na  Na2  1  0.19844  0.21380  0.61067  1
 Na  Na3  1  0.80156  0.78620  0.38933  1
 Na  Na4  1  0.58776  0.61067  0.78620  1
 O  O1  1  0.91712  0.33738  0.17163  1
 O  O2  1  0.74549  0.17163  0.66262  1
 O  O3  1  0.25451  0.82837  0.33738  1
 O  O4  1  0.08288  0.66262  0.82837  1
 W  W1  1  0.00000  0.00000  0.00000  1
