CIF file written using JARVIS-Tools package.
data_Ca3SiBr2
_symmetry_space_group_name_H-M  'Cm'
_cell_length_a       4.52979
_cell_length_b       4.5298
_cell_length_c       11.9765
_cell_angle_alpha    75.3063
_cell_angle_beta     75.3063
_cell_angle_gamma    57.1887

_symmetry_Int_Tables_number  8
_chemical_formula_structural  Ca3SiBr2
_chemical_formula_sum  Ca3SiBr2
_cell_volume  197.73331567897534
_cell_formula_units_Z  1
loop_
  _symmetry_equiv_pos_site_id
 _symmetry_equiv_pos_as_xyz
 1  'x, y, z'
loop_
 _atom_site_type_symbol
 _atom_site_label
 _atom_site_symmetry_multiplicity
 _atom_site_fract_x
 _atom_site_fract_y
 _atom_site_fract_z
 _atom_site_fract_occupancy
 Br  Br1  1  0.40436  0.40436  0.65209  1
 Br  Br2  1  0.17240  0.17240  0.39092  1
 Ca  Ca1  1  0.78926  0.78926  0.51777  1
 Ca  Ca2  1  0.30048  0.30048  0.12153  1
 Ca  Ca3  1  0.75319  0.75319  0.88762  1
 Si  Si1  1  0.02531  0.02531  0.00606  1
