CIF file written using JARVIS-Tools package.
data_AuSeCl7
_symmetry_space_group_name_H-M  'P2_1/c'
_cell_length_a       8.37653
_cell_length_b       9.99108
_cell_length_c       12.2279
_cell_angle_alpha    90
_cell_angle_beta     108.621
_cell_angle_gamma    90

_symmetry_Int_Tables_number  14
_chemical_formula_structural  AuSeCl7
_chemical_formula_sum  Au4Se4Cl28
_cell_volume  969.7865540562185
_cell_formula_units_Z  4
loop_
  _symmetry_equiv_pos_site_id
 _symmetry_equiv_pos_as_xyz
 1  'x, y, z'
loop_
 _atom_site_type_symbol
 _atom_site_label
 _atom_site_symmetry_multiplicity
 _atom_site_fract_x
 _atom_site_fract_y
 _atom_site_fract_z
 _atom_site_fract_occupancy
 Au  Au1  1  0.77645  0.07968  0.94529  1
 Au  Au2  1  0.22355  0.57968  0.55471  1
 Au  Au3  1  0.22355  0.92032  0.05471  1
 Au  Au4  1  0.77645  0.42032  0.44529  1
 Cl  Cl1  1  0.18459  0.04072  0.88345  1
 Cl  Cl2  1  0.81541  0.95928  0.11655  1
 Cl  Cl3  1  0.18459  0.45928  0.38345  1
 Cl  Cl4  1  0.10561  0.08840  0.34341  1
 Cl  Cl5  1  0.81541  0.54072  0.61655  1
 Cl  Cl6  1  0.61375  0.90785  0.83833  1
 Cl  Cl7  1  0.38625  0.09215  0.16167  1
 Cl  Cl8  1  0.06246  0.74785  0.94675  1
 Cl  Cl9  1  0.61375  0.59215  0.33833  1
 Cl  Cl10  1  0.50779  0.81030  0.52887  1
 Cl  Cl11  1  0.49221  0.31030  0.97113  1
 Cl  Cl12  1  0.49221  0.18970  0.47113  1
 Cl  Cl13  1  0.50779  0.68970  0.02887  1
 Cl  Cl14  1  0.38625  0.40785  0.66167  1
 Cl  Cl15  1  0.71708  0.54966  0.86876  1
 Cl  Cl16  1  0.89439  0.91160  0.65659  1
 Cl  Cl17  1  0.93754  0.24785  0.55325  1
 Cl  Cl18  1  0.06246  0.75215  0.44675  1
 Cl  Cl19  1  0.28292  0.45034  0.13124  1
 Cl  Cl20  1  0.28292  0.04966  0.63124  1
 Cl  Cl21  1  0.71708  0.95034  0.36876  1
 Cl  Cl22  1  0.73180  0.20043  0.77819  1
 Cl  Cl23  1  0.26820  0.70043  0.72181  1
 Cl  Cl24  1  0.26820  0.79957  0.22181  1
 Cl  Cl25  1  0.73180  0.29957  0.27819  1
 Cl  Cl26  1  0.93754  0.25215  0.05325  1
 Cl  Cl27  1  0.10561  0.41160  0.84341  1
 Cl  Cl28  1  0.89439  0.58840  0.15659  1
 Se  Se1  1  0.75710  0.79457  0.50301  1
 Se  Se2  1  0.24290  0.29457  0.99699  1
 Se  Se3  1  0.24290  0.20543  0.49699  1
 Se  Se4  1  0.75710  0.70543  0.00301  1
