CIF file written using JARVIS-Tools package.
data_K2PdO2
_symmetry_space_group_name_H-M  'Immm'
_cell_length_a       3.16299
_cell_length_b       5.45845
_cell_length_c       5.45845
_cell_angle_alpha    67.366
_cell_angle_beta     73.158
_cell_angle_gamma    73.158

_symmetry_Int_Tables_number  71
_chemical_formula_structural  K2PdO2
_chemical_formula_sum  K2PdO2
_cell_volume  81.53921831281056
_cell_formula_units_Z  1
loop_
  _symmetry_equiv_pos_site_id
 _symmetry_equiv_pos_as_xyz
 1  'x, y, z'
loop_
 _atom_site_type_symbol
 _atom_site_label
 _atom_site_symmetry_multiplicity
 _atom_site_fract_x
 _atom_site_fract_y
 _atom_site_fract_z
 _atom_site_fract_occupancy
 K  K1  1  0.17639  0.32361  0.32361  1
 K  K2  1  0.82361  0.67639  0.67639  1
 O  O1  1  0.50000  0.22149  0.77851  1
 O  O2  1  0.50000  0.77851  0.22149  1
 Pd  Pd1  1  0.00000  0.00000  0.00000  1
