CIF file written using JARVIS-Tools package.
data_BaAg2SnSe4
_symmetry_space_group_name_H-M  'I222'
_cell_length_a       6.70831
_cell_length_b       6.70826
_cell_length_c       6.70831
_cell_angle_alpha    102.184
_cell_angle_beta     111.115
_cell_angle_gamma    115.386

_symmetry_Int_Tables_number  23
_chemical_formula_structural  BaAg2SnSe4
_chemical_formula_sum  BaAg2SnSe4
_cell_volume  229.2506968710673
_cell_formula_units_Z  1
loop_
  _symmetry_equiv_pos_site_id
 _symmetry_equiv_pos_as_xyz
 1  'x, y, z'
loop_
 _atom_site_type_symbol
 _atom_site_label
 _atom_site_symmetry_multiplicity
 _atom_site_fract_x
 _atom_site_fract_y
 _atom_site_fract_z
 _atom_site_fract_occupancy
 Ag  Ag1  1  0.50000  0.82134  0.32134  1
 Ag  Ag2  1  0.50000  0.17866  0.67866  1
 Ba  Ba1  1  0.00000  0.00000  0.00000  1
 Se  Se1  1  0.01037  0.53128  0.12766  1
 Se  Se2  1  0.40361  0.88270  0.87233  1
 Se  Se3  1  0.98963  0.11730  0.52091  1
 Se  Se4  1  0.59638  0.46872  0.47909  1
 Sn  Sn1  1  0.00000  0.50000  0.50000  1
