CIF file written using JARVIS-Tools package.
data_Y6TeO12
_symmetry_space_group_name_H-M  'R-3'
_cell_length_a       6.47879
_cell_length_b       6.47879
_cell_length_c       6.47879
_cell_angle_alpha    98.6961
_cell_angle_beta     98.6961
_cell_angle_gamma    98.6961

_symmetry_Int_Tables_number  148
_chemical_formula_structural  Y6TeO12
_chemical_formula_sum  Y6TeO2
_cell_volume  261.47841605502504
_cell_formula_units_Z  1
loop_
  _symmetry_equiv_pos_site_id
 _symmetry_equiv_pos_as_xyz
 1  'x, y, z'
loop_
 _atom_site_type_symbol
 _atom_site_label
 _atom_site_symmetry_multiplicity
 _atom_site_fract_x
 _atom_site_fract_y
 _atom_site_fract_z
 _atom_site_fract_occupancy
 O  O1  1  0.93038  0.70140  0.03377  1
 O  O2  1  0.03377  0.93038  0.70140  1
 O  O3  1  0.29860  0.96623  0.06962  1
 O  O4  1  0.70140  0.03377  0.93038  1
 O  O5  1  0.56759  0.82306  0.40727  1
 O  O6  1  0.17694  0.59273  0.43241  1
 O  O7  1  0.40727  0.56759  0.82306  1
 O  O8  1  0.59273  0.43241  0.17694  1
 O  O9  1  0.06962  0.29860  0.96623  1
 O  O10  1  0.96623  0.06962  0.29860  1
 O  O11  1  0.82306  0.40727  0.56759  1
 O  O12  1  0.43241  0.17694  0.59273  1
 Te  Te1  1  0.00000  0.00000  0.00000  1
 Y  Y1  1  0.60925  0.14423  0.31459  1
 Y  Y2  1  0.68541  0.39075  0.85577  1
 Y  Y3  1  0.85577  0.68541  0.39075  1
 Y  Y4  1  0.14423  0.31459  0.60925  1
 Y  Y5  1  0.31459  0.60925  0.14423  1
 Y  Y6  1  0.39075  0.85577  0.68541  1
