CIF file written using JARVIS-Tools package.
data_Li4CoO2F2
_symmetry_space_group_name_H-M  'C2/m'
_cell_length_a       3.70607
_cell_length_b       5.47507
_cell_length_c       5.09273
_cell_angle_alpha    88.8421
_cell_angle_beta     111.338
_cell_angle_gamma    70.2175

_symmetry_Int_Tables_number  12
_chemical_formula_structural  Li4CoO2F2
_chemical_formula_sum  Li4CoO2F2
_cell_volume  89.35301184309151
_cell_formula_units_Z  1
loop_
  _symmetry_equiv_pos_site_id
 _symmetry_equiv_pos_as_xyz
 1  'x, y, z'
loop_
 _atom_site_type_symbol
 _atom_site_label
 _atom_site_symmetry_multiplicity
 _atom_site_fract_x
 _atom_site_fract_y
 _atom_site_fract_z
 _atom_site_fract_occupancy
 Co  Co1  1  0.00000  0.00000  0.00000  1
 F  F1  1  0.90227  0.37981  0.18435  1
 F  F2  1  0.09773  0.62019  0.81565  1
 Li  Li1  1  0.38050  0.46857  0.22956  1
 Li  Li2  1  0.19057  0.15761  0.53874  1
 Li  Li3  1  0.80943  0.84239  0.46126  1
 Li  Li4  1  0.61950  0.53143  0.77044  1
 O  O1  1  0.73088  0.18262  0.64437  1
 O  O2  1  0.26912  0.81738  0.35563  1
