CIF file written using JARVIS-Tools package.
data_LiMg
_symmetry_space_group_name_H-M  'Imma'
_cell_length_a       10.8039
_cell_length_b       3.45016
_cell_length_c       4.85538
_cell_angle_alpha    90
_cell_angle_beta     116.681
_cell_angle_gamma    90

_symmetry_Int_Tables_number  74
_chemical_formula_structural  LiMg
_chemical_formula_sum  Li4Mg4
_cell_volume  161.71436824763043
_cell_formula_units_Z  4
loop_
  _symmetry_equiv_pos_site_id
 _symmetry_equiv_pos_as_xyz
 1  'x, y, z'
loop_
 _atom_site_type_symbol
 _atom_site_label
 _atom_site_symmetry_multiplicity
 _atom_site_fract_x
 _atom_site_fract_y
 _atom_site_fract_z
 _atom_site_fract_occupancy
 Li  Li1  1  0.86710  0.50000  0.61698  1
 Li  Li2  1  0.63290  0.00000  0.38302  1
 Li  Li3  1  0.36710  0.00000  0.61698  1
 Li  Li4  1  0.13290  0.50000  0.38302  1
 Mg  Mg1  1  0.61638  0.50000  0.86647  1
 Mg  Mg2  1  0.88362  0.00000  0.13353  1
 Mg  Mg3  1  0.11638  0.00000  0.86647  1
 Mg  Mg4  1  0.38362  0.50000  0.13353  1
