CIF file written using JARVIS-Tools package.
data_PaZn3
_symmetry_space_group_name_H-M  'P6_3/mmc'
_cell_length_a       6.30831
_cell_length_b       6.3083
_cell_length_c       4.35772
_cell_angle_alpha    90
_cell_angle_beta     90
_cell_angle_gamma    120

_symmetry_Int_Tables_number  194
_chemical_formula_structural  PaZn3
_chemical_formula_sum  Pa2Zn6
_cell_volume  150.18125731810645
_cell_formula_units_Z  2
loop_
  _symmetry_equiv_pos_site_id
 _symmetry_equiv_pos_as_xyz
 1  'x, y, z'
loop_
 _atom_site_type_symbol
 _atom_site_label
 _atom_site_symmetry_multiplicity
 _atom_site_fract_x
 _atom_site_fract_y
 _atom_site_fract_z
 _atom_site_fract_occupancy
 Pa  Pa1  1  0.33333  0.66667  0.75000  1
 Pa  Pa2  1  0.66667  0.33333  0.25000  1
 Zn  Zn1  1  0.14885  0.85115  0.25000  1
 Zn  Zn2  1  0.85116  0.70231  0.75000  1
 Zn  Zn3  1  0.29769  0.14885  0.75000  1
 Zn  Zn4  1  0.85116  0.14885  0.75000  1
 Zn  Zn5  1  0.14885  0.29769  0.25000  1
 Zn  Zn6  1  0.70231  0.85115  0.25000  1
