CIF file written using JARVIS-Tools package.
data_La2MoO6
_symmetry_space_group_name_H-M  'R-3'
_cell_length_a       5.46147
_cell_length_b       5.46147
_cell_length_c       5.46147
_cell_angle_alpha    64.8667
_cell_angle_beta     64.8667
_cell_angle_gamma    64.8667

_symmetry_Int_Tables_number  148
_chemical_formula_structural  La2MoO6
_chemical_formula_sum  La2MoO6
_cell_volume  127.445788097041
_cell_formula_units_Z  1
loop_
  _symmetry_equiv_pos_site_id
 _symmetry_equiv_pos_as_xyz
 1  'x, y, z'
loop_
 _atom_site_type_symbol
 _atom_site_label
 _atom_site_symmetry_multiplicity
 _atom_site_fract_x
 _atom_site_fract_y
 _atom_site_fract_z
 _atom_site_fract_occupancy
 La  La1  1  0.74204  0.74204  0.74204  1
 La  La2  1  0.25796  0.25796  0.25796  1
 Mo  Mo1  1  0.00000  0.00000  0.00000  1
 O  O1  1  0.32808  0.79121  0.13225  1
 O  O2  1  0.79121  0.13225  0.32808  1
 O  O3  1  0.13225  0.32808  0.79121  1
 O  O4  1  0.67192  0.20879  0.86775  1
 O  O5  1  0.86775  0.67192  0.20879  1
 O  O6  1  0.20879  0.86775  0.67192  1
