CIF file written using JARVIS-Tools package.
data_HgC2N2
_symmetry_space_group_name_H-M  'I-42d'
_cell_length_a       8.0662
_cell_length_b       8.06619
_cell_length_c       8.06619
_cell_angle_alpha    107.032
_cell_angle_beta     107.032
_cell_angle_gamma    114.468

_symmetry_Int_Tables_number  122
_chemical_formula_structural  HgC2N2
_chemical_formula_sum  Hg4C8N8
_cell_volume  401.6774134300191
_cell_formula_units_Z  4
loop_
  _symmetry_equiv_pos_site_id
 _symmetry_equiv_pos_as_xyz
 1  'x, y, z'
loop_
 _atom_site_type_symbol
 _atom_site_label
 _atom_site_symmetry_multiplicity
 _atom_site_fract_x
 _atom_site_fract_y
 _atom_site_fract_z
 _atom_site_fract_occupancy
 C  C1  1  0.63985  0.86811  0.85304  1
 C  C2  1  0.53681  0.26507  0.64696  1
 C  C3  1  0.01507  0.78681  0.14696  1
 C  C4  1  0.13189  0.98493  0.77174  1
 C  C5  1  0.21319  0.36015  0.22826  1
 C  C6  1  0.73493  0.38189  0.27174  1
 C  C7  1  0.61811  0.88985  0.35304  1
 C  C8  1  0.11015  0.46319  0.72826  1
 Hg  Hg1  1  0.37500  0.32176  0.44676  1
 Hg  Hg2  1  0.07176  0.62500  0.94676  1
 Hg  Hg3  1  0.67824  0.12500  0.05324  1
 Hg  Hg4  1  0.87500  0.92824  0.55324  1
 N  N1  1  0.11108  0.37868  0.10856  1
 N  N2  1  -0.00253  0.88892  0.26760  1
 N  N3  1  0.62132  0.72987  0.73240  1
 N  N4  1  0.12868  0.36108  0.60856  1
 N  N5  1  0.63892  0.24747  0.76760  1
 N  N6  1  0.27013  0.00253  0.89144  1
 N  N7  1  0.75253  0.52013  0.39144  1
 N  N8  1  0.47987  0.87132  0.23240  1
