CIF file written using JARVIS-Tools package.
data_LiVF4
_symmetry_space_group_name_H-M  'C2/c'
_cell_length_a       5.09787
_cell_length_b       5.39463
_cell_length_c       6.42801
_cell_angle_alpha    92.2094
_cell_angle_beta     113.363
_cell_angle_gamma    90

_symmetry_Int_Tables_number  15
_chemical_formula_structural  LiVF4
_chemical_formula_sum  Li2V2F8
_cell_volume  162.1406199821437
_cell_formula_units_Z  2
loop_
  _symmetry_equiv_pos_site_id
 _symmetry_equiv_pos_as_xyz
 1  'x, y, z'
loop_
 _atom_site_type_symbol
 _atom_site_label
 _atom_site_symmetry_multiplicity
 _atom_site_fract_x
 _atom_site_fract_y
 _atom_site_fract_z
 _atom_site_fract_occupancy
 F  F1  1  0.23467  0.00788  0.18400  1
 F  F2  1  0.65309  0.68923  0.42789  1
 F  F3  1  0.77573  0.18922  0.42788  1
 F  F4  1  0.04970  0.48862  0.81404  1
 F  F5  1  0.95027  0.50787  0.18401  1
 F  F6  1  0.22421  0.80731  0.57014  1
 F  F7  1  0.34687  0.30730  0.57016  1
 F  F8  1  0.76527  0.98861  0.81402  1
 Li  Li1  1  -0.00144  0.24824  0.99902  1
 Li  Li2  1  0.00136  0.74824  0.99902  1
 V  V1  1  0.49998  0.99827  0.49901  1
 V  V2  1  -0.00002  0.49826  0.49903  1
