CIF file written using JARVIS-Tools package.
data_MnTlCl3
_symmetry_space_group_name_H-M  'Pnma'
_cell_length_a       7.04735
_cell_length_b       7.04536
_cell_length_c       10.0544
_cell_angle_alpha    90
_cell_angle_beta     90
_cell_angle_gamma    90

_symmetry_Int_Tables_number  62
_chemical_formula_structural  MnTlCl3
_chemical_formula_sum  Mn4Tl4Cl2
_cell_volume  499.2114089207813
_cell_formula_units_Z  4
loop_
  _symmetry_equiv_pos_site_id
 _symmetry_equiv_pos_as_xyz
 1  'x, y, z'
loop_
 _atom_site_type_symbol
 _atom_site_label
 _atom_site_symmetry_multiplicity
 _atom_site_fract_x
 _atom_site_fract_y
 _atom_site_fract_z
 _atom_site_fract_occupancy
 Cl  Cl1  1  -0.00027  0.45423  0.25000  1
 Cl  Cl2  1  0.21669  0.21654  0.97715  1
 Cl  Cl3  1  0.78331  0.78346  0.47715  1
 Cl  Cl4  1  0.28331  0.71654  0.02285  1
 Cl  Cl5  1  0.28331  0.71654  0.47715  1
 Cl  Cl6  1  0.78331  0.78346  0.02285  1
 Cl  Cl7  1  0.21669  0.21654  0.52285  1
 Cl  Cl8  1  0.71669  0.28346  0.97715  1
 Cl  Cl9  1  0.71669  0.28346  0.52285  1
 Cl  Cl10  1  0.00027  0.54577  0.75000  1
 Cl  Cl11  1  0.49973  0.04577  0.25000  1
 Cl  Cl12  1  0.50027  0.95423  0.75000  1
 Mn  Mn1  1  0.00000  0.50000  0.50000  1
 Mn  Mn2  1  0.50000  0.00000  0.00000  1
 Mn  Mn3  1  0.50000  0.00000  0.50000  1
 Mn  Mn4  1  0.00000  0.50000  0.00000  1
 Tl  Tl1  1  0.47093  0.49530  0.75000  1
 Tl  Tl2  1  0.02907  0.99530  0.25000  1
 Tl  Tl3  1  0.52907  0.50470  0.25000  1
 Tl  Tl4  1  0.97093  0.00470  0.75000  1
