CIF file written using JARVIS-Tools package.
data_LuNbO4
_symmetry_space_group_name_H-M  'C2/c'
_cell_length_a       6.59836
_cell_length_b       6.45757
_cell_length_c       6.59836
_cell_angle_alpha    132.833
_cell_angle_beta     69.6787
_cell_angle_gamma    134.171

_symmetry_Int_Tables_number  15
_chemical_formula_structural  LuNbO4
_chemical_formula_sum  Lu2Nb2O8
_cell_volume  143.55010609102084
_cell_formula_units_Z  2
loop_
  _symmetry_equiv_pos_site_id
 _symmetry_equiv_pos_as_xyz
 1  'x, y, z'
loop_
 _atom_site_type_symbol
 _atom_site_label
 _atom_site_symmetry_multiplicity
 _atom_site_fract_x
 _atom_site_fract_y
 _atom_site_fract_z
 _atom_site_fract_occupancy
 Lu  Lu1  1  0.87819  0.75000  0.62819  1
 Lu  Lu2  1  0.12181  0.25000  0.37181  1
 Nb  Nb1  1  0.35959  0.75000  0.10959  1
 Nb  Nb2  1  0.64041  0.25000  0.89041  1
 O  O1  1  0.49273  0.70875  0.77856  1
 O  O2  1  0.06980  0.79125  0.28397  1
 O  O3  1  0.50727  0.29125  0.22144  1
 O  O4  1  0.93020  0.20875  0.71603  1
 O  O5  1  0.79077  0.67262  0.95391  1
 O  O6  1  0.28130  0.82738  0.61816  1
 O  O7  1  0.20923  0.32738  0.04609  1
 O  O8  1  0.71870  0.17262  0.38184  1
