CIF file written using JARVIS-Tools package.
data_CeP2
_symmetry_space_group_name_H-M  'P2_1/c'
_cell_length_a       4.03151
_cell_length_b       6.42407
_cell_length_c       9.68339
_cell_angle_alpha    90
_cell_angle_beta     96.7892
_cell_angle_gamma    90

_symmetry_Int_Tables_number  14
_chemical_formula_structural  CeP2
_chemical_formula_sum  Ce4P8
_cell_volume  249.0285293863953
_cell_formula_units_Z  4
loop_
  _symmetry_equiv_pos_site_id
 _symmetry_equiv_pos_as_xyz
 1  'x, y, z'
loop_
 _atom_site_type_symbol
 _atom_site_label
 _atom_site_symmetry_multiplicity
 _atom_site_fract_x
 _atom_site_fract_y
 _atom_site_fract_z
 _atom_site_fract_occupancy
 Ce  Ce1  1  0.21608  0.31504  0.13832  1
 Ce  Ce2  1  0.78392  0.68496  0.86168  1
 Ce  Ce3  1  0.28392  0.81504  0.36168  1
 Ce  Ce4  1  0.71608  0.18496  0.63832  1
 P  P1  1  0.20905  0.85527  0.67228  1
 P  P2  1  0.79095  0.14473  0.32772  1
 P  P3  1  0.14929  0.36863  0.44938  1
 P  P4  1  0.35071  0.86863  0.05062  1
 P  P5  1  0.70905  0.64473  0.17228  1
 P  P6  1  0.64929  0.13137  0.94938  1
 P  P7  1  0.85071  0.63137  0.55062  1
 P  P8  1  0.29095  0.35527  0.82772  1
