CIF file written using JARVIS-Tools package.
data_Ti4H3Pd2
_symmetry_space_group_name_H-M  'P4/mmm'
_cell_length_a       2.83383
_cell_length_b       2.83382
_cell_length_c       12.673
_cell_angle_alpha    90
_cell_angle_beta     90
_cell_angle_gamma    90

_symmetry_Int_Tables_number  123
_chemical_formula_structural  Ti4H3Pd2
_chemical_formula_sum  Ti4H3Pd2
_cell_volume  101.7713355514751
_cell_formula_units_Z  1
loop_
  _symmetry_equiv_pos_site_id
 _symmetry_equiv_pos_as_xyz
 1  'x, y, z'
loop_
 _atom_site_type_symbol
 _atom_site_label
 _atom_site_symmetry_multiplicity
 _atom_site_fract_x
 _atom_site_fract_y
 _atom_site_fract_z
 _atom_site_fract_occupancy
 H  H1  1  0.50000  0.50000  -0.00002  1
 H  H2  1  0.50000  0.50000  0.32120  1
 H  H3  1  0.50000  0.50000  0.67878  1
 Pd  Pd1  1  0.00000  0.00000  -0.00002  1
 Pd  Pd2  1  0.50000  0.50000  0.49999  1
 Ti  Ti1  1  0.00000  0.00000  0.33948  1
 Ti  Ti2  1  0.00000  0.00000  0.66050  1
 Ti  Ti3  1  0.50000  0.50000  0.82747  1
 Ti  Ti4  1  0.50000  0.50000  0.17251  1
