CIF file written using JARVIS-Tools package.
data_Rb3InO3
_symmetry_space_group_name_H-M  'P2_1/c'
_cell_length_a       7.76635
_cell_length_b       7.08991
_cell_length_c       11.4192
_cell_angle_alpha    90
_cell_angle_beta     93.93
_cell_angle_gamma    90

_symmetry_Int_Tables_number  14
_chemical_formula_structural  Rb3InO3
_chemical_formula_sum  Rb2In4O2
_cell_volume  627.2935719366094
_cell_formula_units_Z  4
loop_
  _symmetry_equiv_pos_site_id
 _symmetry_equiv_pos_as_xyz
 1  'x, y, z'
loop_
 _atom_site_type_symbol
 _atom_site_label
 _atom_site_symmetry_multiplicity
 _atom_site_fract_x
 _atom_site_fract_y
 _atom_site_fract_z
 _atom_site_fract_occupancy
 In  In1  1  0.83875  0.41116  0.43135  1
 In  In2  1  0.83875  0.08884  0.93135  1
 In  In3  1  0.16125  0.91116  0.06865  1
 In  In4  1  0.16125  0.58884  0.56865  1
 O  O1  1  0.30196  0.06227  0.19503  1
 O  O2  1  0.69804  0.56227  0.30497  1
 O  O3  1  0.10757  0.45578  0.40041  1
 O  O4  1  0.74529  0.14396  0.45904  1
 O  O5  1  0.25471  0.85604  0.54096  1
 O  O6  1  0.89243  0.54422  0.59959  1
 O  O7  1  0.30196  0.43773  0.69503  1
 O  O8  1  0.69804  0.93773  0.80497  1
 O  O9  1  0.10757  0.04422  0.90041  1
 O  O10  1  0.74529  0.35604  0.95904  1
 O  O11  1  0.25471  0.64396  0.04096  1
 O  O12  1  0.89243  0.95578  0.09959  1
 Rb  Rb1  1  0.64033  0.67681  0.07349  1
 Rb  Rb2  1  0.05264  0.37673  0.15607  1
 Rb  Rb3  1  0.62913  0.19336  0.19166  1
 Rb  Rb4  1  0.37087  0.69336  0.30834  1
 Rb  Rb5  1  0.94736  0.87673  0.34393  1
 Rb  Rb6  1  0.35967  0.17681  0.42651  1
 Rb  Rb7  1  0.64033  0.82319  0.57349  1
 Rb  Rb8  1  0.05264  0.12327  0.65607  1
 Rb  Rb9  1  0.62913  0.30664  0.69166  1
 Rb  Rb10  1  0.37087  0.80664  0.80834  1
 Rb  Rb11  1  0.94736  0.62327  0.84393  1
 Rb  Rb12  1  0.35967  0.32319  0.92651  1
