CIF file written using JARVIS-Tools package.
data_LiVF4
_symmetry_space_group_name_H-M  'Pbcn'
_cell_length_a       4.51546
_cell_length_b       4.9959
_cell_length_c       11.7203
_cell_angle_alpha    90
_cell_angle_beta     90
_cell_angle_gamma    90

_symmetry_Int_Tables_number  60
_chemical_formula_structural  LiVF4
_chemical_formula_sum  Li4V4F6
_cell_volume  264.39472793285813
_cell_formula_units_Z  4
loop_
  _symmetry_equiv_pos_site_id
 _symmetry_equiv_pos_as_xyz
 1  'x, y, z'
loop_
 _atom_site_type_symbol
 _atom_site_label
 _atom_site_symmetry_multiplicity
 _atom_site_fract_x
 _atom_site_fract_y
 _atom_site_fract_z
 _atom_site_fract_occupancy
 F  F1  1  0.26693  0.08625  0.68386  1
 F  F2  1  0.76114  0.91647  0.05623  1
 F  F3  1  0.76114  0.41647  0.94377  1
 F  F4  1  0.76693  0.91375  0.81614  1
 F  F5  1  0.23886  0.08353  0.94377  1
 F  F6  1  0.73307  0.91375  0.31614  1
 F  F7  1  0.73307  0.41375  0.68386  1
 F  F8  1  0.76693  0.41375  0.18386  1
 F  F9  1  0.73886  0.41647  0.44377  1
 F  F10  1  0.26114  0.08353  0.44377  1
 F  F11  1  0.26114  0.58353  0.55623  1
 F  F12  1  0.23886  0.58353  0.05623  1
 F  F13  1  0.26693  0.58625  0.31614  1
 F  F14  1  0.23307  0.08625  0.18386  1
 F  F15  1  0.23307  0.58625  0.81614  1
 F  F16  1  0.73886  0.91647  0.55623  1
 Li  Li1  1  0.50000  0.25000  0.81930  1
 Li  Li2  1  0.50000  0.75000  0.18070  1
 Li  Li3  1  0.00000  0.75000  0.68070  1
 Li  Li4  1  0.00000  0.25000  0.31930  1
 V  V1  1  0.50000  0.25000  0.57061  1
 V  V2  1  0.50000  0.75000  0.42939  1
 V  V3  1  0.00000  0.75000  0.92939  1
 V  V4  1  0.00000  0.25000  0.07061  1
