CIF file written using JARVIS-Tools package.
data_InCu6ClO8
_symmetry_space_group_name_H-M  'Fm-3m'
_cell_length_a       6.50315
_cell_length_b       6.50308
_cell_length_c       6.5031
_cell_angle_alpha    60.0029
_cell_angle_beta     60.0027
_cell_angle_gamma    60.0022

_symmetry_Int_Tables_number  225
_chemical_formula_structural  InCu6ClO8
_chemical_formula_sum  InCu6ClO8
_cell_volume  194.47973823878618
_cell_formula_units_Z  1
loop_
  _symmetry_equiv_pos_site_id
 _symmetry_equiv_pos_as_xyz
 1  'x, y, z'
loop_
 _atom_site_type_symbol
 _atom_site_label
 _atom_site_symmetry_multiplicity
 _atom_site_fract_x
 _atom_site_fract_y
 _atom_site_fract_z
 _atom_site_fract_occupancy
 Cl  Cl1  1  1.00000  -0.00000  0.00000  1
 Cu  Cu1  1  0.50000  0.00000  0.50000  1
 Cu  Cu2  1  0.50000  0.50000  1.00000  1
 Cu  Cu3  1  0.00000  0.50000  0.50000  1
 Cu  Cu4  1  1.00000  0.50000  0.00000  1
 Cu  Cu5  1  0.00000  1.00000  0.50000  1
 Cu  Cu6  1  0.50000  -0.00000  0.00000  1
 In  In1  1  0.50000  0.50000  0.50000  1
 O  O1  1  0.64280  0.07159  0.64280  1
 O  O2  1  0.07159  0.64281  0.64281  1
 O  O3  1  0.64281  0.64280  0.07159  1
 O  O4  1  0.92841  0.35719  0.35719  1
 O  O5  1  0.64279  0.64280  0.64280  1
 O  O6  1  0.35720  0.35720  0.35720  1
 O  O7  1  0.35720  0.92841  0.35720  1
 O  O8  1  0.35719  0.35720  0.92841  1
