CIF file written using JARVIS-Tools package.
data_Cu5Si2S7
_symmetry_space_group_name_H-M  'P1'
_cell_length_a       6.34542
_cell_length_b       8.77555
_cell_length_c       9.61179
_cell_angle_alpha    91.9975
_cell_angle_beta     90
_cell_angle_gamma    111.195

_symmetry_Int_Tables_number  1
_chemical_formula_structural  Cu5Si2S7
_chemical_formula_sum  Cu0Si4S4
_cell_volume  498.6746834346593
_cell_formula_units_Z  2
loop_
  _symmetry_equiv_pos_site_id
 _symmetry_equiv_pos_as_xyz
 1  'x, y, z'
loop_
 _atom_site_type_symbol
 _atom_site_label
 _atom_site_symmetry_multiplicity
 _atom_site_fract_x
 _atom_site_fract_y
 _atom_site_fract_z
 _atom_site_fract_occupancy
 Cu  Cu1  1  0.54347  0.75826  0.29983  1
 Cu  Cu2  1  0.26534  0.18732  0.87531  1
 Cu  Cu3  1  0.35492  0.03906  0.50242  1
 Cu  Cu4  1  0.77200  0.89842  0.66399  1
 Cu  Cu5  1  0.40710  0.46485  0.57991  1
 Cu  Cu6  1  0.92198  0.18732  0.37531  1
 Cu  Cu7  1  0.68414  0.03906  0.00242  1
 Cu  Cu8  1  0.97549  0.60770  0.43467  1
 Cu  Cu9  1  0.63221  0.60770  0.93467  1
 Cu  Cu10  1  0.05775  0.46485  0.07991  1
 S  S1  1  0.32804  0.96733  0.96214  1
 S  S2  1  0.37712  0.40705  0.02961  1
 S  S3  1  0.02994  0.40705  0.52961  1
 S  S4  1  0.79621  0.23091  0.16092  1
 S  S5  1  0.50489  0.67047  0.74822  1
 S  S6  1  0.16558  0.67047  0.24822  1
 S  S7  1  0.63929  0.96733  0.46214  1
 S  S8  1  0.74290  0.82357  0.08989  1
 S  S9  1  0.43470  0.23091  0.66092  1
 S  S10  1  0.88670  0.11240  0.82054  1
 S  S11  1  0.92078  0.54437  0.88606  1
 S  S12  1  0.62358  0.54437  0.38606  1
 S  S13  1  0.08067  0.82357  0.58989  1
 S  S14  1  0.22569  0.11240  0.32054  1
 Si  Si1  1  0.51953  0.32870  0.22699  1
 Si  Si2  1  0.80917  0.32870  0.72699  1
 Si  Si3  1  0.21479  0.75826  0.79983  1
 Si  Si4  1  0.12642  0.89842  0.16399  1
