CIF file written using JARVIS-Tools package.
data_SrAs3
_symmetry_space_group_name_H-M  'C2/m'
_cell_length_a       5.91319
_cell_length_b       6.19426
_cell_length_c       7.15695
_cell_angle_alpha    93.1341
_cell_angle_beta     124.41
_cell_angle_gamma    72.4393

_symmetry_Int_Tables_number  12
_chemical_formula_structural  SrAs3
_chemical_formula_sum  Sr2As6
_cell_volume  203.9442317507611
_cell_formula_units_Z  2
loop_
  _symmetry_equiv_pos_site_id
 _symmetry_equiv_pos_as_xyz
 1  'x, y, z'
loop_
 _atom_site_type_symbol
 _atom_site_label
 _atom_site_symmetry_multiplicity
 _atom_site_fract_x
 _atom_site_fract_y
 _atom_site_fract_z
 _atom_site_fract_occupancy
 As  As1  1  0.78997  0.00709  0.00714  1
 As  As2  1  0.21003  -0.00709  0.99286  1
 As  As3  1  0.60667  0.86766  0.40958  1
 As  As4  1  0.39333  0.13234  0.59042  1
 As  As5  1  0.93555  0.59045  0.13251  1
 As  As6  1  0.06445  0.40955  0.86749  1
 Sr  Sr1  1  0.33252  0.66409  0.66423  1
 Sr  Sr2  1  0.66748  0.33591  0.33577  1
