CIF file written using JARVIS-Tools package.
data_MnMoAs2
_symmetry_space_group_name_H-M  'Pmn2_1'
_cell_length_a       3.40232
_cell_length_b       5.9089
_cell_length_c       6.38823
_cell_angle_alpha    90
_cell_angle_beta     90
_cell_angle_gamma    90

_symmetry_Int_Tables_number  31
_chemical_formula_structural  MnMoAs2
_chemical_formula_sum  Mn2Mo2As4
_cell_volume  128.42878649218363
_cell_formula_units_Z  2
loop_
  _symmetry_equiv_pos_site_id
 _symmetry_equiv_pos_as_xyz
 1  'x, y, z'
loop_
 _atom_site_type_symbol
 _atom_site_label
 _atom_site_symmetry_multiplicity
 _atom_site_fract_x
 _atom_site_fract_y
 _atom_site_fract_z
 _atom_site_fract_occupancy
 As  As1  1  0.50000  0.04379  0.07769  1
 As  As2  1  0.50000  0.55829  0.42539  1
 As  As3  1  0.00000  0.44171  0.92539  1
 As  As4  1  0.00000  0.95621  0.57769  1
 Mn  Mn1  1  0.50000  0.24908  0.68918  1
 Mn  Mn2  1  0.00000  0.75092  0.18918  1
 Mo  Mo1  1  0.50000  0.74368  0.80774  1
 Mo  Mo2  1  0.00000  0.25632  0.30774  1
