CIF file written using JARVIS-Tools package.
data_PuFeC2
_symmetry_space_group_name_H-M  'P4/nmm'
_cell_length_a       3.52751
_cell_length_b       3.52751
_cell_length_c       7.25792
_cell_angle_alpha    90
_cell_angle_beta     90
_cell_angle_gamma    90

_symmetry_Int_Tables_number  129
_chemical_formula_structural  PuFeC2
_chemical_formula_sum  Pu2Fe2C4
_cell_volume  90.3124235753036
_cell_formula_units_Z  2
loop_
  _symmetry_equiv_pos_site_id
 _symmetry_equiv_pos_as_xyz
 1  'x, y, z'
loop_
 _atom_site_type_symbol
 _atom_site_label
 _atom_site_symmetry_multiplicity
 _atom_site_fract_x
 _atom_site_fract_y
 _atom_site_fract_z
 _atom_site_fract_occupancy
 C  C1  1  0.75000  0.75000  0.14570  1
 C  C2  1  0.25000  0.25000  0.85430  1
 C  C3  1  0.75000  0.75000  0.34883  1
 C  C4  1  0.25000  0.25000  0.65117  1
 Fe  Fe1  1  0.75000  0.25000  0.00000  1
 Fe  Fe2  1  0.25000  0.75000  0.00000  1
 Pu  Pu1  1  0.75000  0.75000  0.67261  1
 Pu  Pu2  1  0.25000  0.25000  0.32739  1
