CIF file written using JARVIS-Tools package.
data_BTe3O3F15
_symmetry_space_group_name_H-M  'P6_3/m'
_cell_length_a       9.06335
_cell_length_b       9.06335
_cell_length_c       8.6524
_cell_angle_alpha    90
_cell_angle_beta     90
_cell_angle_gamma    120

_symmetry_Int_Tables_number  176
_chemical_formula_structural  BTe3O3F15
_chemical_formula_sum  B2Te6O6F30
_cell_volume  615.5241804308477
_cell_formula_units_Z  2
loop_
  _symmetry_equiv_pos_site_id
 _symmetry_equiv_pos_as_xyz
 1  'x, y, z'
loop_
 _atom_site_type_symbol
 _atom_site_label
 _atom_site_symmetry_multiplicity
 _atom_site_fract_x
 _atom_site_fract_y
 _atom_site_fract_z
 _atom_site_fract_occupancy
 B  B1  1  0.66667  0.33333  0.75000  1
 B  B2  1  0.33333  0.66667  0.25000  1
 F  F1  1  0.86901  0.47492  0.40055  1
 F  F2  1  0.80297  0.70002  0.59553  1
 F  F3  1  0.39409  0.86901  0.59945  1
 F  F4  1  0.29998  0.10295  0.59553  1
 F  F5  1  0.81910  0.69770  0.25000  1
 F  F6  1  0.52508  0.39409  0.40055  1
 F  F7  1  0.30230  0.12140  0.25000  1
 F  F8  1  0.12140  0.81910  0.75000  1
 F  F9  1  0.47492  0.60591  0.59945  1
 F  F10  1  0.60591  0.13099  0.40055  1
 F  F11  1  0.52508  0.39409  0.09945  1
 F  F12  1  0.13099  0.52508  0.59945  1
 F  F13  1  0.70002  0.89705  0.09553  1
 F  F14  1  0.39409  0.86901  0.90055  1
 F  F15  1  0.60591  0.13099  0.09945  1
 F  F16  1  0.13099  0.52508  0.90055  1
 F  F17  1  0.89705  0.19703  0.59553  1
 F  F18  1  0.19703  0.29998  0.09553  1
 F  F19  1  0.86901  0.47492  0.09945  1
 F  F20  1  0.70002  0.89705  0.40447  1
 F  F21  1  0.18090  0.30230  0.75000  1
 F  F22  1  0.47492  0.60591  0.90055  1
 F  F23  1  0.69770  0.87860  0.75000  1
 F  F24  1  0.80297  0.70002  0.90447  1
 F  F25  1  0.29998  0.10295  0.90447  1
 F  F26  1  0.89705  0.19703  0.90447  1
 F  F27  1  0.10295  0.80297  0.09553  1
 F  F28  1  0.10295  0.80297  0.40447  1
 F  F29  1  0.87860  0.18090  0.25000  1
 F  F30  1  0.19703  0.29998  0.40447  1
 O  O1  1  0.15816  0.56968  0.25000  1
 O  O2  1  0.58847  0.15816  0.75000  1
 O  O3  1  0.41153  0.84184  0.25000  1
 O  O4  1  0.84184  0.43032  0.75000  1
 O  O5  1  0.43032  0.58847  0.25000  1
 O  O6  1  0.56968  0.41153  0.75000  1
 Te  Te1  1  -0.00993  0.63995  0.25000  1
 Te  Te2  1  0.35012  -0.00993  0.75000  1
 Te  Te3  1  0.36005  0.35012  0.25000  1
 Te  Te4  1  0.00993  0.36005  0.75000  1
 Te  Te5  1  0.63995  0.64988  0.75000  1
 Te  Te6  1  0.64988  0.00993  0.25000  1
