CIF file written using JARVIS-Tools package.
data_Zr3Sn
_symmetry_space_group_name_H-M  'Pmmn'
_cell_length_a       5.15922
_cell_length_b       6.08958
_cell_length_c       5.71881
_cell_angle_alpha    90
_cell_angle_beta     90
_cell_angle_gamma    90

_symmetry_Int_Tables_number  59
_chemical_formula_structural  Zr3Sn
_chemical_formula_sum  Zr6Sn2
_cell_volume  179.67035459440646
_cell_formula_units_Z  2
loop_
  _symmetry_equiv_pos_site_id
 _symmetry_equiv_pos_as_xyz
 1  'x, y, z'
loop_
 _atom_site_type_symbol
 _atom_site_label
 _atom_site_symmetry_multiplicity
 _atom_site_fract_x
 _atom_site_fract_y
 _atom_site_fract_z
 _atom_site_fract_occupancy
 Sn  Sn1  1  0.00000  0.00000  0.16240  1
 Sn  Sn2  1  0.50000  0.50000  0.83760  1
 Zr  Zr1  1  0.00000  0.25002  0.64723  1
 Zr  Zr2  1  0.00000  0.50000  0.13629  1
 Zr  Zr3  1  0.00000  0.74998  0.64723  1
 Zr  Zr4  1  0.50000  0.00000  0.86371  1
 Zr  Zr5  1  0.50000  0.24998  0.35277  1
 Zr  Zr6  1  0.50000  0.75002  0.35277  1
