CIF file written using JARVIS-Tools package.
data_V3Pb5ClO12
_symmetry_space_group_name_H-M  'P6_3/m'
_cell_length_a       10.4432
_cell_length_b       10.4432
_cell_length_c       7.30762
_cell_angle_alpha    90
_cell_angle_beta     90
_cell_angle_gamma    120

_symmetry_Int_Tables_number  176
_chemical_formula_structural  V3Pb5ClO12
_chemical_formula_sum  V6Pb0Cl2O24
_cell_volume  690.2036557720893
_cell_formula_units_Z  2
loop_
  _symmetry_equiv_pos_site_id
 _symmetry_equiv_pos_as_xyz
 1  'x, y, z'
loop_
 _atom_site_type_symbol
 _atom_site_label
 _atom_site_symmetry_multiplicity
 _atom_site_fract_x
 _atom_site_fract_y
 _atom_site_fract_z
 _atom_site_fract_occupancy
 Cl  Cl1  1  0.00000  0.00000  0.50000  1
 Cl  Cl2  1  0.00000  0.00000  0.00000  1
 O  O1  1  0.51738  0.12191  0.25000  1
 O  O2  1  0.73241  0.09036  0.43836  1
 O  O3  1  0.09036  0.35796  0.93836  1
 O  O4  1  0.49899  0.16232  0.75000  1
 O  O5  1  0.83768  0.33668  0.75000  1
 O  O6  1  0.50101  0.83768  0.25000  1
 O  O7  1  0.09036  0.35796  0.56164  1
 O  O8  1  0.26759  0.90964  0.93836  1
 O  O9  1  0.48262  0.87809  0.75000  1
 O  O10  1  0.66332  0.50101  0.75000  1
 O  O11  1  0.60453  0.48262  0.25000  1
 O  O12  1  0.16232  0.66332  0.25000  1
 O  O13  1  0.33668  0.49899  0.25000  1
 O  O14  1  0.26759  0.90964  0.56164  1
 O  O15  1  0.64204  0.73241  0.93836  1
 O  O16  1  0.12191  0.60453  0.75000  1
 O  O17  1  0.64204  0.73241  0.56164  1
 O  O18  1  0.35796  0.26759  0.06164  1
 O  O19  1  0.87809  0.39547  0.25000  1
 O  O20  1  0.35796  0.26759  0.43836  1
 O  O21  1  0.90964  0.64204  0.43836  1
 O  O22  1  0.73241  0.09036  0.06164  1
 O  O23  1  0.39547  0.51738  0.75000  1
 O  O24  1  0.90964  0.64204  0.06164  1
 Pb  Pb1  1  0.25680  0.01817  0.25000  1
 Pb  Pb2  1  0.33333  0.66667  0.00690  1
 Pb  Pb3  1  0.76137  0.74320  0.25000  1
 Pb  Pb4  1  0.01817  0.76137  0.75000  1
 Pb  Pb5  1  0.33333  0.66667  0.49310  1
 Pb  Pb6  1  0.74320  0.98183  0.75000  1
 Pb  Pb7  1  0.66667  0.33333  0.50690  1
 Pb  Pb8  1  0.66667  0.33333  0.99310  1
 Pb  Pb9  1  0.23863  0.25680  0.75000  1
 Pb  Pb10  1  0.98183  0.23863  0.25000  1
 V  V1  1  0.02783  0.41070  0.75000  1
 V  V2  1  0.38287  0.97217  0.75000  1
 V  V3  1  0.61713  0.02783  0.25000  1
 V  V4  1  0.41070  0.38287  0.25000  1
 V  V5  1  0.58930  0.61713  0.75000  1
 V  V6  1  0.97217  0.58930  0.25000  1
