CIF file written using JARVIS-Tools package.
data_NaMn4Be
_symmetry_space_group_name_H-M  'F-43m'
_cell_length_a       4.7119
_cell_length_b       4.7119
_cell_length_c       4.7119
_cell_angle_alpha    60
_cell_angle_beta     60
_cell_angle_gamma    60

_symmetry_Int_Tables_number  216
_chemical_formula_structural  NaMn4Be
_chemical_formula_sum  NaMn4Be
_cell_volume  73.97308246094913
_cell_formula_units_Z  1
loop_
  _symmetry_equiv_pos_site_id
 _symmetry_equiv_pos_as_xyz
 1  'x, y, z'
loop_
 _atom_site_type_symbol
 _atom_site_label
 _atom_site_symmetry_multiplicity
 _atom_site_fract_x
 _atom_site_fract_y
 _atom_site_fract_z
 _atom_site_fract_occupancy
 Be  Be1  1  0.00000  0.00000  0.00000  1
 Mn  Mn1  1  0.12318  0.62561  0.62561  1
 Mn  Mn2  1  0.62561  0.62561  0.62561  1
 Mn  Mn3  1  0.62561  0.12318  0.62561  1
 Mn  Mn4  1  0.62561  0.62561  0.12318  1
 Na  Na1  1  0.25000  0.25000  0.25000  1
