CIF file written using JARVIS-Tools package.
data_Cd4GeS6
_symmetry_space_group_name_H-M  'Cc'
_cell_length_a       7.1878
_cell_length_b       7.21021
_cell_length_c       12.4587
_cell_angle_alpha    73.7289
_cell_angle_beta     73.2339
_cell_angle_gamma    60.1028

_symmetry_Int_Tables_number  9
_chemical_formula_structural  Cd4GeS6
_chemical_formula_sum  Cd8Ge2S2
_cell_volume  528.6723499399425
_cell_formula_units_Z  2
loop_
  _symmetry_equiv_pos_site_id
 _symmetry_equiv_pos_as_xyz
 1  'x, y, z'
loop_
 _atom_site_type_symbol
 _atom_site_label
 _atom_site_symmetry_multiplicity
 _atom_site_fract_x
 _atom_site_fract_y
 _atom_site_fract_z
 _atom_site_fract_occupancy
 Cd  Cd1  1  0.28670  -0.00012  0.64008  1
 Cd  Cd2  1  0.76473  0.24264  0.45293  1
 Cd  Cd3  1  0.53970  0.74264  0.95293  1
 Cd  Cd4  1  0.91843  0.67938  0.64408  1
 Cd  Cd5  1  0.75810  0.17938  0.14408  1
 Cd  Cd6  1  0.66846  0.25893  0.80126  1
 Cd  Cd7  1  0.27136  0.75893  0.30126  1
 Cd  Cd8  1  0.07334  0.49988  0.14008  1
 Ge  Ge1  1  0.67249  0.80298  0.39036  1
 Ge  Ge2  1  0.13417  0.30298  0.89036  1
 S  S1  1  0.26099  0.33582  0.70365  1
 S  S2  1  0.56011  0.67021  0.75868  1
 S  S3  1  0.01101  0.17021  0.25868  1
 S  S4  1  -0.00208  0.59869  0.43984  1
 S  S5  1  0.96356  0.09869  0.93984  1
 S  S6  1  0.91264  0.04335  0.63826  1
 S  S7  1  0.47519  0.12848  0.44117  1
 S  S8  1  0.42829  0.13323  0.97390  1
 S  S9  1  0.69953  0.83582  0.20365  1
 S  S10  1  0.46458  0.63323  0.47390  1
 S  S11  1  0.95516  0.62848  0.94117  1
 S  S12  1  0.40575  0.54335  0.13826  1
