CIF file written using JARVIS-Tools package.
data_H5C2NO4
_symmetry_space_group_name_H-M  'P2_1/c'
_cell_length_a       4.33803
_cell_length_b       7.19145
_cell_length_c       13.6673
_cell_angle_alpha    90
_cell_angle_beta     90
_cell_angle_gamma    98.4141

_symmetry_Int_Tables_number  14
_chemical_formula_structural  H5C2NO4
_chemical_formula_sum  H20C8N4O6
_cell_volume  421.78527464377055
_cell_formula_units_Z  4
loop_
  _symmetry_equiv_pos_site_id
 _symmetry_equiv_pos_as_xyz
 1  'x, y, z'
loop_
 _atom_site_type_symbol
 _atom_site_label
 _atom_site_symmetry_multiplicity
 _atom_site_fract_x
 _atom_site_fract_y
 _atom_site_fract_z
 _atom_site_fract_occupancy
 C  C1  1  0.67019  0.77665  0.15828  1
 C  C2  1  0.32981  0.72335  0.65828  1
 C  C3  1  0.67019  0.27665  0.34172  1
 C  C4  1  0.39447  0.61477  0.17235  1
 C  C5  1  0.32981  0.22335  0.84172  1
 C  C6  1  0.39447  0.11477  0.32765  1
 C  C7  1  0.60553  0.38523  0.82765  1
 C  C8  1  0.60553  0.88523  0.67235  1
 H  H1  1  0.20166  0.41292  0.56485  1
 H  H2  1  0.10037  0.48911  0.26718  1
 H  H3  1  0.96549  0.31492  0.05385  1
 H  H4  1  0.89963  0.51089  0.73282  1
 H  H5  1  0.29586  0.74515  0.85874  1
 H  H6  1  -0.20166  0.08708  0.06485  1
 H  H7  1  0.96549  0.81492  0.44615  1
 H  H8  1  -0.20166  0.58708  0.43515  1
 H  H9  1  0.58911  0.74905  0.47925  1
 H  H10  1  0.10037  0.98911  0.23282  1
 H  H11  1  0.03451  0.18508  0.55385  1
 H  H12  1  0.89963  0.01089  0.76718  1
 H  H13  1  0.41089  0.75095  0.97925  1
 H  H14  1  0.58911  0.24905  0.02075  1
 H  H15  1  0.70414  0.25485  0.14126  1
 H  H16  1  0.29586  0.24515  0.64126  1
 H  H17  1  0.03451  0.68508  0.94615  1
 H  H18  1  0.70414  0.75485  0.35874  1
 H  H19  1  0.20166  0.91292  0.93515  1
 H  H20  1  0.41089  0.25095  0.52075  1
 N  N1  1  0.76305  0.72667  0.43031  1
 N  N2  1  0.76305  0.22667  0.06969  1
 N  N3  1  0.23695  0.27333  0.56969  1
 N  N4  1  0.23695  0.77333  0.93031  1
 O  O1  1  0.70246  0.90854  0.76395  1
 O  O2  1  0.80829  0.34409  0.26488  1
 O  O3  1  0.26770  0.17149  0.92844  1
 O  O4  1  0.19171  0.15591  0.76488  1
 O  O5  1  0.28182  0.02324  0.39838  1
 O  O6  1  0.29754  0.59146  0.26395  1
 O  O7  1  0.29754  0.09146  0.23605  1
 O  O8  1  0.71818  0.97676  0.60162  1
 O  O9  1  0.73230  0.32851  0.42844  1
 O  O10  1  0.80829  0.84409  0.23512  1
 O  O11  1  0.28182  0.52324  0.10162  1
 O  O12  1  0.26770  0.67149  0.57156  1
 O  O13  1  0.73230  0.82851  0.07156  1
 O  O14  1  0.71818  0.47676  0.89838  1
 O  O15  1  0.70246  0.40854  0.73605  1
 O  O16  1  0.19171  0.65591  0.73512  1
