CIF file written using JARVIS-Tools package.
data_WOF4
_symmetry_space_group_name_H-M  'I4'
_cell_length_a       3.97425
_cell_length_b       4.95442
_cell_length_c       4.95442
_cell_angle_alpha    99.2572
_cell_angle_beta     113.646
_cell_angle_gamma    66.3541

_symmetry_Int_Tables_number  79
_chemical_formula_structural  WOF4
_chemical_formula_sum  WOF4
_cell_volume  81.8600018294985
_cell_formula_units_Z  1
loop_
  _symmetry_equiv_pos_site_id
 _symmetry_equiv_pos_as_xyz
 1  'x, y, z'
loop_
 _atom_site_type_symbol
 _atom_site_label
 _atom_site_symmetry_multiplicity
 _atom_site_fract_x
 _atom_site_fract_y
 _atom_site_fract_z
 _atom_site_fract_occupancy
 F  F1  1  -0.00923  0.35963  0.18990  1
 F  F2  1  0.80087  0.18990  0.64037  1
 F  F3  1  0.35041  0.81010  0.35963  1
 F  F4  1  0.16051  0.64037  0.81010  1
 O  O1  1  0.56026  0.00000  -0.00000  1
 W  W1  1  -0.00192  0.00000  -0.00000  1
