CIF file written using JARVIS-Tools package.
data_Mg4MnBe
_symmetry_space_group_name_H-M  'F-43m'
_cell_length_a       5.54114
_cell_length_b       5.54114
_cell_length_c       5.54114
_cell_angle_alpha    60
_cell_angle_beta     60
_cell_angle_gamma    60

_symmetry_Int_Tables_number  216
_chemical_formula_structural  Mg4MnBe
_chemical_formula_sum  Mg4MnBe
_cell_volume  120.30443549114462
_cell_formula_units_Z  1
loop_
  _symmetry_equiv_pos_site_id
 _symmetry_equiv_pos_as_xyz
 1  'x, y, z'
loop_
 _atom_site_type_symbol
 _atom_site_label
 _atom_site_symmetry_multiplicity
 _atom_site_fract_x
 _atom_site_fract_y
 _atom_site_fract_z
 _atom_site_fract_occupancy
 Be  Be1  1  0.00000  0.00000  0.00000  1
 Mg  Mg1  1  0.12554  0.62482  0.62482  1
 Mg  Mg2  1  0.62482  0.62482  0.62482  1
 Mg  Mg3  1  0.62482  0.12554  0.62482  1
 Mg  Mg4  1  0.62482  0.62482  0.12554  1
 Mn  Mn1  1  0.25000  0.25000  0.25000  1
