CIF file written using JARVIS-Tools package.
data_ThC2
_symmetry_space_group_name_H-M  'C2/c'
_cell_length_a       3.98488
_cell_length_b       3.98489
_cell_length_c       6.76663
_cell_angle_alpha    78.2736
_cell_angle_beta     78.2736
_cell_angle_gamma    64.6902

_symmetry_Int_Tables_number  15
_chemical_formula_structural  ThC2
_chemical_formula_sum  Th2C4
_cell_volume  94.28260222322261
_cell_formula_units_Z  2
loop_
  _symmetry_equiv_pos_site_id
 _symmetry_equiv_pos_as_xyz
 1  'x, y, z'
loop_
 _atom_site_type_symbol
 _atom_site_label
 _atom_site_symmetry_multiplicity
 _atom_site_fract_x
 _atom_site_fract_y
 _atom_site_fract_z
 _atom_site_fract_occupancy
 C  C1  1  0.16839  0.43164  0.44746  1
 C  C2  1  0.56836  0.83161  0.05254  1
 C  C3  1  0.43164  0.16839  0.94746  1
 C  C4  1  0.83161  0.56836  0.55254  1
 Th  Th1  1  0.79435  0.20565  0.25000  1
 Th  Th2  1  0.20565  0.79435  0.75000  1
