CIF file written using JARVIS-Tools package.
data_LiNiPO4
_symmetry_space_group_name_H-M  'Cmcm'
_cell_length_a       5.40199
_cell_length_b       6.10904
_cell_length_c       8.17799
_cell_angle_alpha    90
_cell_angle_beta     90
_cell_angle_gamma    90

_symmetry_Int_Tables_number  63
_chemical_formula_structural  LiNiPO4
_chemical_formula_sum  Li4Ni4P4O6
_cell_volume  269.88155620028454
_cell_formula_units_Z  4
loop_
  _symmetry_equiv_pos_site_id
 _symmetry_equiv_pos_as_xyz
 1  'x, y, z'
loop_
 _atom_site_type_symbol
 _atom_site_label
 _atom_site_symmetry_multiplicity
 _atom_site_fract_x
 _atom_site_fract_y
 _atom_site_fract_z
 _atom_site_fract_occupancy
 Li  Li1  1  0.22295  0.24995  0.57904  1
 Li  Li2  1  0.72295  0.25005  0.07904  1
 Li  Li3  1  0.22295  0.74995  0.92096  1
 Li  Li4  1  0.72295  0.75005  0.42096  1
 Ni  Ni1  1  0.72301  -0.00001  0.75001  1
 Ni  Ni2  1  0.22301  0.50001  0.25001  1
 Ni  Ni3  1  0.72301  0.49999  0.74999  1
 Ni  Ni4  1  0.22301  0.00001  0.24999  1
 O  O1  1  0.49247  0.25002  0.27962  1
 O  O2  1  0.45356  0.24999  0.77964  1
 O  O3  1  0.22302  0.04243  0.00364  1
 O  O4  1  0.72297  0.04251  0.50366  1
 O  O5  1  0.95356  0.25001  0.27964  1
 O  O6  1  0.99247  0.74998  0.72038  1
 O  O7  1  0.22297  0.45749  0.00366  1
 O  O8  1  0.72302  0.45757  0.50364  1
 O  O9  1  0.72297  0.54251  -0.00366  1
 O  O10  1  0.22302  0.54243  0.49636  1
 O  O11  1  0.95356  0.75001  0.22036  1
 O  O12  1  0.72302  0.95757  0.99636  1
 O  O13  1  0.99247  0.24998  0.77962  1
 O  O14  1  0.45356  0.74999  0.72036  1
 O  O15  1  0.49247  0.75002  0.22038  1
 O  O16  1  0.22297  0.95749  0.49634  1
 P  P1  1  0.72301  0.25003  0.39935  1
 P  P2  1  0.22301  0.24997  0.89935  1
 P  P3  1  0.72301  0.75003  0.10065  1
 P  P4  1  0.22301  0.74997  0.60065  1
