CIF file written using JARVIS-Tools package.
data_CeSiHRu
_symmetry_space_group_name_H-M  'P4/nmm'
_cell_length_a       4.17806
_cell_length_b       4.17821
_cell_length_c       7.1489
_cell_angle_alpha    89.9999
_cell_angle_beta     89.9899
_cell_angle_gamma    90.0027

_symmetry_Int_Tables_number  129
_chemical_formula_structural  CeSiHRu
_chemical_formula_sum  Ce2Si2H2Ru2
_cell_volume  124.79699295878557
_cell_formula_units_Z  2
loop_
  _symmetry_equiv_pos_site_id
 _symmetry_equiv_pos_as_xyz
 1  'x, y, z'
loop_
 _atom_site_type_symbol
 _atom_site_label
 _atom_site_symmetry_multiplicity
 _atom_site_fract_x
 _atom_site_fract_y
 _atom_site_fract_z
 _atom_site_fract_occupancy
 Ce  Ce1  1  0.24999  0.25000  0.66915  1
 Ce  Ce2  1  0.75001  0.75000  0.33085  1
 H  H1  1  0.74999  0.24999  0.49999  1
 H  H2  1  0.25001  0.75001  0.50001  1
 Ru  Ru1  1  0.75002  0.25000  -0.00001  1
 Ru  Ru2  1  0.24998  0.75000  0.00001  1
 Si  Si1  1  0.24998  0.24999  0.16685  1
 Si  Si2  1  0.75002  0.75001  0.83315  1
