CIF file written using JARVIS-Tools package.
data_Fe2O3
_symmetry_space_group_name_H-M  'R-3c'
_cell_length_a       4.76431
_cell_length_b       4.7643
_cell_length_c       13.3023
_cell_angle_alpha    90
_cell_angle_beta     90
_cell_angle_gamma    120

_symmetry_Int_Tables_number  167
_chemical_formula_structural  Fe2O3
_chemical_formula_sum  Fe2O8
_cell_volume  261.4906490900669
_cell_formula_units_Z  6
loop_
  _symmetry_equiv_pos_site_id
 _symmetry_equiv_pos_as_xyz
 1  'x, y, z'
loop_
 _atom_site_type_symbol
 _atom_site_label
 _atom_site_symmetry_multiplicity
 _atom_site_fract_x
 _atom_site_fract_y
 _atom_site_fract_z
 _atom_site_fract_occupancy
 Fe  Fe1  1  0.00000  0.00000  0.34608  1
 Fe  Fe2  1  0.66667  0.33333  0.98726  1
 Fe  Fe3  1  0.00000  0.00000  0.65392  1
 Fe  Fe4  1  0.00000  0.00000  0.84608  1
 Fe  Fe5  1  0.66667  0.33333  0.67941  1
 Fe  Fe6  1  0.33333  0.66667  0.32059  1
 Fe  Fe7  1  0.00000  0.00000  0.15392  1
 Fe  Fe8  1  0.66667  0.33333  0.17941  1
 Fe  Fe9  1  0.33333  0.66667  0.01274  1
 Fe  Fe10  1  0.33333  0.66667  0.82059  1
 Fe  Fe11  1  0.33333  0.66667  0.51274  1
 Fe  Fe12  1  0.66667  0.33333  0.48726  1
 O  O1  1  0.97992  0.33333  0.58333  1
 O  O2  1  0.31325  0.00000  0.25000  1
 O  O3  1  0.68675  0.00000  0.75000  1
 O  O4  1  0.02008  0.35342  0.91667  1
 O  O5  1  0.00000  0.68675  0.75000  1
 O  O6  1  0.68675  0.68675  0.25000  1
 O  O7  1  0.31325  0.31325  0.75000  1
 O  O8  1  -0.00000  0.31325  0.25000  1
 O  O9  1  0.33333  0.97992  0.91667  1
 O  O10  1  0.35342  0.02008  0.58333  1
 O  O11  1  0.97992  0.64658  0.08333  1
 O  O12  1  0.64658  0.66667  0.91667  1
 O  O13  1  0.02008  0.66667  0.41667  1
 O  O14  1  0.35342  0.33333  0.08333  1
 O  O15  1  0.33333  0.35342  0.41667  1
 O  O16  1  0.66667  0.02008  0.08333  1
 O  O17  1  0.66667  0.64658  0.58333  1
 O  O18  1  0.64658  0.97992  0.41667  1
