CIF file written using JARVIS-Tools package.
data_KAlO2
_symmetry_space_group_name_H-M  'Pbca'
_cell_length_a       5.43469
_cell_length_b       10.9148
_cell_length_c       15.527
_cell_angle_alpha    90
_cell_angle_beta     90
_cell_angle_gamma    90

_symmetry_Int_Tables_number  61
_chemical_formula_structural  KAlO2
_chemical_formula_sum  K6Al6O32
_cell_volume  921.0358426533054
_cell_formula_units_Z  16
loop_
  _symmetry_equiv_pos_site_id
 _symmetry_equiv_pos_as_xyz
 1  'x, y, z'
loop_
 _atom_site_type_symbol
 _atom_site_label
 _atom_site_symmetry_multiplicity
 _atom_site_fract_x
 _atom_site_fract_y
 _atom_site_fract_z
 _atom_site_fract_occupancy
 Al  Al1  1  0.78078  0.26243  0.43620  1
 Al  Al2  1  0.28078  0.26243  0.06380  1
 Al  Al3  1  0.25832  0.00785  0.18868  1
 Al  Al4  1  0.28078  0.23757  0.56380  1
 Al  Al5  1  0.21922  0.76243  0.06380  1
 Al  Al6  1  0.71922  0.73757  0.93620  1
 Al  Al7  1  0.21922  0.73757  0.56380  1
 Al  Al8  1  0.78078  0.23757  0.93620  1
 Al  Al9  1  0.71922  0.76243  0.43620  1
 Al  Al10  1  0.75832  0.00785  0.31132  1
 Al  Al11  1  0.25832  0.49215  0.68868  1
 Al  Al12  1  0.24168  0.50785  0.18868  1
 Al  Al13  1  0.74168  0.99215  0.81132  1
 Al  Al14  1  0.24168  0.99215  0.68868  1
 Al  Al15  1  0.74168  0.50785  0.31132  1
 Al  Al16  1  0.75832  0.49215  0.81132  1
 K  K1  1  0.29548  0.26155  0.31523  1
 K  K2  1  0.70452  0.76155  0.18477  1
 K  K3  1  0.25514  0.01079  0.43832  1
 K  K4  1  0.75514  0.01079  0.06168  1
 K  K5  1  0.25514  0.48921  0.93832  1
 K  K6  1  0.24486  0.51079  0.43832  1
 K  K7  1  0.24486  0.98921  0.93832  1
 K  K8  1  0.74486  0.51079  0.06168  1
 K  K9  1  0.74486  0.98921  0.56168  1
 K  K10  1  0.79548  0.23845  0.68477  1
 K  K11  1  0.79548  0.26155  0.18477  1
 K  K12  1  0.29548  0.23845  0.81523  1
 K  K13  1  0.20452  0.76155  0.31523  1
 K  K14  1  0.70452  0.73845  0.68477  1
 K  K15  1  0.20452  0.73845  0.81523  1
 K  K16  1  0.75514  0.48921  0.56168  1
 O  O1  1  0.33049  0.59614  0.60476  1
 O  O2  1  0.66951  0.40386  0.39524  1
 O  O3  1  0.16951  0.09614  0.60476  1
 O  O4  1  0.33049  0.90386  0.10476  1
 O  O5  1  0.83049  0.59614  0.89524  1
 O  O6  1  0.83049  0.90386  0.39524  1
 O  O7  1  0.92949  0.71039  0.51529  1
 O  O8  1  0.16951  0.40386  0.10476  1
 O  O9  1  0.07051  0.28961  0.48471  1
 O  O10  1  0.57051  0.21039  0.51529  1
 O  O11  1  0.92949  0.78961  0.01529  1
 O  O12  1  0.42949  0.71039  0.98471  1
 O  O13  1  0.80840  0.34107  0.84920  1
 O  O14  1  0.66951  0.09614  0.89524  1
 O  O15  1  0.07051  0.21039  0.98471  1
 O  O16  1  0.05123  0.48337  0.27970  1
 O  O17  1  0.19160  0.84107  0.65080  1
 O  O18  1  0.69160  0.84107  0.84920  1
 O  O19  1  0.19160  0.65893  0.15080  1
 O  O20  1  0.30840  0.34107  0.65080  1
 O  O21  1  0.80840  0.15893  0.34920  1
 O  O22  1  0.55123  0.01663  0.72030  1
 O  O23  1  0.94877  0.98337  0.22030  1
 O  O24  1  0.44877  0.51663  0.77970  1
 O  O25  1  0.94877  0.51663  0.72030  1
 O  O26  1  0.44877  0.98337  0.27970  1
 O  O27  1  0.05123  0.01663  0.77970  1
 O  O28  1  0.42949  0.78961  0.48471  1
 O  O29  1  0.55123  0.48337  0.22030  1
 O  O30  1  0.57051  0.28961  0.01529  1
 O  O31  1  0.69160  0.65893  0.34920  1
 O  O32  1  0.30840  0.15893  0.15080  1
