CIF file written using JARVIS-Tools package.
data_CoO2
_symmetry_space_group_name_H-M  'C2/m'
_cell_length_a       2.8184
_cell_length_b       2.8184
_cell_length_c       9.78065
_cell_angle_alpha    82.4047
_cell_angle_beta     82.4047
_cell_angle_gamma    59.9954

_symmetry_Int_Tables_number  12
_chemical_formula_structural  CoO2
_chemical_formula_sum  CoO2
_cell_volume  66.49127086921227
_cell_formula_units_Z  1
loop_
  _symmetry_equiv_pos_site_id
 _symmetry_equiv_pos_as_xyz
 1  'x, y, z'
loop_
 _atom_site_type_symbol
 _atom_site_label
 _atom_site_symmetry_multiplicity
 _atom_site_fract_x
 _atom_site_fract_y
 _atom_site_fract_z
 _atom_site_fract_occupancy
 Co  Co1  1  0.99967  0.99967  0.00667  1
 O  O1  1  0.36254  0.36254  0.91009  1
 O  O2  1  0.63680  0.63680  0.10324  1
