CIF file written using JARVIS-Tools package.
data_In3NO3
_symmetry_space_group_name_H-M  'R-3m'
_cell_length_a       6.49998
_cell_length_b       6.5755
_cell_length_c       6.5755
_cell_angle_alpha    59.2417
_cell_angle_beta     90
_cell_angle_gamma    119.621

_symmetry_Int_Tables_number  166
_chemical_formula_structural  In3NO3
_chemical_formula_sum  In6N2O6
_cell_volume  197.56203688354748
_cell_formula_units_Z  2
loop_
  _symmetry_equiv_pos_site_id
 _symmetry_equiv_pos_as_xyz
 1  'x, y, z'
loop_
 _atom_site_type_symbol
 _atom_site_label
 _atom_site_symmetry_multiplicity
 _atom_site_fract_x
 _atom_site_fract_y
 _atom_site_fract_z
 _atom_site_fract_occupancy
 In  In1  1  0.62500  0.25000  0.12500  1
 In  In2  1  0.98870  0.97739  0.98870  1
 In  In3  1  0.62500  0.25000  0.62500  1
 In  In4  1  0.26130  0.52261  0.26130  1
 In  In5  1  0.62500  0.75000  0.62500  1
 In  In6  1  0.12500  0.75000  0.62500  1
 N  N1  1  0.85769  0.71538  0.85769  1
 N  N2  1  0.39231  0.78462  0.39231  1
 O  O1  1  0.85971  0.24535  0.38564  1
 O  O2  1  0.38564  0.24535  0.38564  1
 O  O3  1  0.86436  0.72872  0.39029  1
 O  O4  1  0.86436  0.25465  0.86436  1
 O  O5  1  0.39029  0.25465  0.86436  1
 O  O6  1  0.38564  0.77128  0.85971  1
