CIF file written using JARVIS-Tools package.
data_MgH6Br2N2
_symmetry_space_group_name_H-M  'Pnma'
_cell_length_a       5.90485
_cell_length_b       11.8153
_cell_length_c       7.94461
_cell_angle_alpha    90
_cell_angle_beta     90
_cell_angle_gamma    90

_symmetry_Int_Tables_number  62
_chemical_formula_structural  MgH6Br2N2
_chemical_formula_sum  Mg4H24Br8N8
_cell_volume  554.2752301731114
_cell_formula_units_Z  4
loop_
  _symmetry_equiv_pos_site_id
 _symmetry_equiv_pos_as_xyz
 1  'x, y, z'
loop_
 _atom_site_type_symbol
 _atom_site_label
 _atom_site_symmetry_multiplicity
 _atom_site_fract_x
 _atom_site_fract_y
 _atom_site_fract_z
 _atom_site_fract_occupancy
 Br  Br1  1  0.22464  0.88542  0.99815  1
 Br  Br2  1  0.72464  0.61458  0.99815  1
 Br  Br3  1  0.77536  0.11458  0.00185  1
 Br  Br4  1  0.22464  0.88542  0.50185  1
 Br  Br5  1  0.77536  0.11458  0.49815  1
 Br  Br6  1  0.27536  0.38542  0.00185  1
 Br  Br7  1  0.72464  0.61458  0.50185  1
 Br  Br8  1  0.27536  0.38542  0.49815  1
 H  H1  1  0.63135  0.88423  0.85242  1
 H  H2  1  0.13135  0.61577  0.64758  1
 H  H3  1  0.86865  0.38423  0.14758  1
 H  H4  1  0.20784  0.20567  0.25000  1
 H  H5  1  0.29216  0.70567  0.75000  1
 H  H6  1  0.70784  0.29433  0.25000  1
 H  H7  1  0.36865  0.11577  0.14758  1
 H  H8  1  0.79216  0.79433  0.75000  1
 H  H9  1  0.13135  0.61577  0.85242  1
 H  H10  1  0.36865  0.11577  0.35242  1
 H  H11  1  0.86865  0.38423  0.35242  1
 H  H12  1  0.08288  0.60166  0.25000  1
 H  H13  1  0.58288  0.89834  0.25000  1
 H  H14  1  0.91712  0.39834  0.75000  1
 H  H15  1  0.41712  0.10166  0.75000  1
 H  H16  1  0.25975  0.68346  0.14768  1
 H  H17  1  0.74025  0.31654  0.64768  1
 H  H18  1  0.24025  0.18346  0.85232  1
 H  H19  1  0.74025  0.31654  0.85232  1
 H  H20  1  0.24025  0.18346  0.64768  1
 H  H21  1  0.25975  0.68346  0.35232  1
 H  H22  1  0.75975  0.81654  0.14768  1
 H  H23  1  0.63135  0.88423  0.64758  1
 H  H24  1  0.75975  0.81654  0.35232  1
 Mg  Mg1  1  0.49778  0.49991  0.25000  1
 Mg  Mg2  1  0.00222  -0.00009  0.75000  1
 Mg  Mg3  1  0.50222  0.50009  0.75000  1
 Mg  Mg4  1  0.99778  0.00009  0.25000  1
 N  N1  1  0.75330  0.36941  0.75000  1
 N  N2  1  0.76329  0.37659  0.25000  1
 N  N3  1  0.26329  0.12341  0.25000  1
 N  N4  1  0.23671  0.62341  0.75000  1
 N  N5  1  0.73671  0.87659  0.75000  1
 N  N6  1  0.24670  0.63059  0.25000  1
 N  N7  1  0.74670  0.86941  0.25000  1
 N  N8  1  0.25330  0.13059  0.75000  1
