CIF file written using JARVIS-Tools package.
data_Sm4Si2Se3O7
_symmetry_space_group_name_H-M  'I4_1/amd'
_cell_length_a       11.1154
_cell_length_b       11.1154
_cell_length_c       11.1154
_cell_angle_alpha    100.031
_cell_angle_beta     114.388
_cell_angle_gamma    114.388

_symmetry_Int_Tables_number  141
_chemical_formula_structural  Sm4Si2Se3O7
_chemical_formula_sum  Sm6Si8Se2O28
_cell_volume  1036.197222547257
_cell_formula_units_Z  4
loop_
  _symmetry_equiv_pos_site_id
 _symmetry_equiv_pos_as_xyz
 1  'x, y, z'
loop_
 _atom_site_type_symbol
 _atom_site_label
 _atom_site_symmetry_multiplicity
 _atom_site_fract_x
 _atom_site_fract_y
 _atom_site_fract_z
 _atom_site_fract_occupancy
 O  O1  1  0.25000  0.39194  0.14194  1
 O  O2  1  0.97879  0.16910  0.64789  1
 O  O3  1  0.52121  0.16910  0.19030  1
 O  O4  1  0.52121  0.35211  0.83090  1
 O  O5  1  0.97879  0.80970  0.83090  1
 O  O6  1  0.47879  0.64789  0.16910  1
 O  O7  1  0.47879  0.83090  0.80970  1
 O  O8  1  0.02121  0.83090  0.35211  1
 O  O9  1  0.77077  0.92023  0.43104  1
 O  O10  1  0.25000  0.85806  0.60806  1
 O  O11  1  0.75000  0.60806  0.85806  1
 O  O12  1  0.75000  0.14194  0.39194  1
 O  O13  1  0.72923  0.16027  0.14946  1
 O  O14  1  0.02121  0.19030  0.16910  1
 O  O15  1  0.01081  0.85054  0.07977  1
 O  O16  1  0.48919  0.92023  0.14946  1
 O  O17  1  0.01081  0.16027  0.43104  1
 O  O18  1  0.22923  0.14946  0.16027  1
 O  O19  1  0.27077  0.43104  0.92023  1
 O  O20  1  0.48919  0.56896  0.83973  1
 O  O21  1  0.22923  0.07977  0.56896  1
 O  O22  1  0.27077  0.83973  0.85054  1
 O  O23  1  0.98919  0.83973  0.56896  1
 O  O24  1  0.51081  0.07977  0.85054  1
 O  O25  1  0.51081  0.43104  0.16027  1
 O  O26  1  0.98919  0.14946  0.92023  1
 O  O27  1  0.77077  0.85054  0.83973  1
 O  O28  1  0.72923  0.56896  0.07977  1
 Se  Se1  1  0.75000  0.37500  0.62500  1
 Se  Se2  1  0.25000  0.12500  0.87500  1
 Se  Se3  1  0.35464  -0.00000  0.35464  1
 Se  Se4  1  0.75000  0.87500  0.12500  1
 Se  Se5  1  0.25000  0.62500  0.37500  1
 Se  Se6  1  0.85464  0.35464  0.00000  1
 Se  Se7  1  0.64536  0.64536  0.50000  1
 Se  Se8  1  0.14536  0.50000  0.64536  1
 Se  Se9  1  0.14536  0.64536  0.00000  1
 Se  Se10  1  0.35464  0.35464  0.50000  1
 Se  Se11  1  0.64536  -0.00000  0.64536  1
 Se  Se12  1  0.85464  0.50000  0.35464  1
 Si  Si1  1  0.12563  0.90689  0.53252  1
 Si  Si2  1  0.37437  0.46748  0.09311  1
 Si  Si3  1  0.62563  0.09311  0.21875  1
 Si  Si4  1  0.87437  0.09311  0.46748  1
 Si  Si5  1  0.87437  0.78125  0.90689  1
 Si  Si6  1  0.12563  0.21875  0.09311  1
 Si  Si7  1  0.37437  0.90689  0.78125  1
 Si  Si8  1  0.62563  0.53252  0.90689  1
 Sm  Sm1  1  0.98925  0.33331  0.82256  1
 Sm  Sm2  1  0.09514  0.04757  0.29757  1
 Sm  Sm3  1  0.25000  0.29757  0.70243  1
 Sm  Sm4  1  0.25000  0.95243  0.04757  1
 Sm  Sm5  1  0.90486  0.95243  0.70243  1
 Sm  Sm6  1  0.75000  0.70243  0.29757  1
 Sm  Sm7  1  0.75000  0.04757  0.95243  1
 Sm  Sm8  1  0.51075  0.33331  0.34406  1
 Sm  Sm9  1  0.01075  0.66669  0.17744  1
 Sm  Sm10  1  0.48925  0.66669  0.65594  1
 Sm  Sm11  1  0.48925  0.82256  0.33331  1
 Sm  Sm12  1  0.98925  0.65594  0.66669  1
 Sm  Sm13  1  0.51075  0.17744  0.66669  1
 Sm  Sm14  1  0.59514  0.29757  0.04757  1
 Sm  Sm15  1  0.40486  0.70243  0.95243  1
 Sm  Sm16  1  0.01075  0.34406  0.33331  1
