CIF file written using JARVIS-Tools package.
data_NpO2F2
_symmetry_space_group_name_H-M  'C2/m'
_cell_length_a       10.4426
_cell_length_b       3.78948
_cell_length_c       5.66579
_cell_angle_alpha    126.581
_cell_angle_beta     157.154
_cell_angle_gamma    49.7071

_symmetry_Int_Tables_number  12
_chemical_formula_structural  NpO2F2
_chemical_formula_sum  NpO2F2
_cell_volume  66.39719443669401
_cell_formula_units_Z  1
loop_
  _symmetry_equiv_pos_site_id
 _symmetry_equiv_pos_as_xyz
 1  'x, y, z'
loop_
 _atom_site_type_symbol
 _atom_site_label
 _atom_site_symmetry_multiplicity
 _atom_site_fract_x
 _atom_site_fract_y
 _atom_site_fract_z
 _atom_site_fract_occupancy
 F  F1  1  0.16049  0.19287  1.00000  1
 F  F2  1  0.83951  0.80713  0.00000  1
 Np  Np1  1  0.00000  0.00000  0.00000  1
 O  O1  1  0.42840  0.25490  0.00000  1
 O  O2  1  0.57160  0.74510  1.00000  1
