CIF file written using JARVIS-Tools package.
data_GaPd
_symmetry_space_group_name_H-M  'P2_13'
_cell_length_a       4.96017
_cell_length_b       4.96017
_cell_length_c       4.96017
_cell_angle_alpha    90
_cell_angle_beta     90
_cell_angle_gamma    90

_symmetry_Int_Tables_number  198
_chemical_formula_structural  GaPd
_chemical_formula_sum  Ga4Pd4
_cell_volume  122.0362994271465
_cell_formula_units_Z  4
loop_
  _symmetry_equiv_pos_site_id
 _symmetry_equiv_pos_as_xyz
 1  'x, y, z'
loop_
 _atom_site_type_symbol
 _atom_site_label
 _atom_site_symmetry_multiplicity
 _atom_site_fract_x
 _atom_site_fract_y
 _atom_site_fract_z
 _atom_site_fract_occupancy
 Ga  Ga1  1  0.40781  0.90781  0.59219  1
 Ga  Ga2  1  0.90781  0.59219  0.40781  1
 Ga  Ga3  1  0.59219  0.40781  0.90781  1
 Ga  Ga4  1  0.09219  0.09219  0.09219  1
 Pd  Pd1  1  0.10935  0.60935  0.89065  1
 Pd  Pd2  1  0.60935  0.89065  0.10935  1
 Pd  Pd3  1  0.89065  0.10935  0.60935  1
 Pd  Pd4  1  0.39065  0.39065  0.39065  1
