CIF file written using JARVIS-Tools package.
data_CeMg6B
_symmetry_space_group_name_H-M  'Amm2'
_cell_length_a       7.27975
_cell_length_b       5.65746
_cell_length_c       4.61405
_cell_angle_alpha    90
_cell_angle_beta     90
_cell_angle_gamma    112.866

_symmetry_Int_Tables_number  38
_chemical_formula_structural  CeMg6B
_chemical_formula_sum  CeMg6B
_cell_volume  175.09585677726653
_cell_formula_units_Z  1
loop_
  _symmetry_equiv_pos_site_id
 _symmetry_equiv_pos_as_xyz
 1  'x, y, z'
loop_
 _atom_site_type_symbol
 _atom_site_label
 _atom_site_symmetry_multiplicity
 _atom_site_fract_x
 _atom_site_fract_y
 _atom_site_fract_z
 _atom_site_fract_occupancy
 B  B1  1  0.27549  0.88774  0.25000  1
 Ce  Ce1  1  0.10986  0.30493  0.25000  1
 Mg  Mg1  1  0.60694  0.30496  0.25000  1
 Mg  Mg2  1  0.60694  0.80197  0.25000  1
 Mg  Mg3  1  0.33907  0.16036  0.75000  1
 Mg  Mg4  1  0.33907  0.67871  0.75000  1
 Mg  Mg5  1  0.78790  0.14395  0.75000  1
 Mg  Mg6  1  0.93475  0.71737  0.75000  1
