CIF file written using JARVIS-Tools package.
data_CeS2
_symmetry_space_group_name_H-M  'P2_1/c'
_cell_length_a       4.04464
_cell_length_b       8.0627
_cell_length_c       8.03034
_cell_angle_alpha    90.2088
_cell_angle_beta     90
_cell_angle_gamma    90

_symmetry_Int_Tables_number  14
_chemical_formula_structural  CeS2
_chemical_formula_sum  Ce4S8
_cell_volume  261.87290042466714
_cell_formula_units_Z  4
loop_
  _symmetry_equiv_pos_site_id
 _symmetry_equiv_pos_as_xyz
 1  'x, y, z'
loop_
 _atom_site_type_symbol
 _atom_site_label
 _atom_site_symmetry_multiplicity
 _atom_site_fract_x
 _atom_site_fract_y
 _atom_site_fract_z
 _atom_site_fract_occupancy
 Ce  Ce1  1  0.71795  0.72279  0.63015  1
 Ce  Ce2  1  0.21795  0.27721  0.86985  1
 Ce  Ce3  1  0.28205  0.27721  0.36985  1
 Ce  Ce4  1  0.78205  0.72279  0.13015  1
 S  S1  1  0.16481  0.99806  0.60955  1
 S  S2  1  0.66481  0.00194  0.89045  1
 S  S3  1  0.83519  0.00194  0.39045  1
 S  S4  1  0.33519  0.99806  0.10955  1
 S  S5  1  0.76054  0.36445  0.12458  1
 S  S6  1  0.26054  0.63555  0.37542  1
 S  S7  1  0.23946  0.63555  0.87542  1
 S  S8  1  0.73946  0.36445  0.62458  1
