CIF file written using JARVIS-Tools package.
data_SrH16O10
_symmetry_space_group_name_H-M  'P1'
_cell_length_a       6.1902
_cell_length_b       6.19635
_cell_length_c       11.0962
_cell_angle_alpha    86.9255
_cell_angle_beta     86.4722
_cell_angle_gamma    90.2493

_symmetry_Int_Tables_number  1
_chemical_formula_structural  SrH16O10
_chemical_formula_sum  Sr2H32O20
_cell_volume  424.1815536601127
_cell_formula_units_Z  2
loop_
  _symmetry_equiv_pos_site_id
 _symmetry_equiv_pos_as_xyz
 1  'x, y, z'
loop_
 _atom_site_type_symbol
 _atom_site_label
 _atom_site_symmetry_multiplicity
 _atom_site_fract_x
 _atom_site_fract_y
 _atom_site_fract_z
 _atom_site_fract_occupancy
 H  H1  1  0.70982  0.59991  0.40254  1
 H  H2  1  0.43211  0.31692  0.88929  1
 H  H3  1  0.49609  0.07398  0.88509  1
 H  H4  1  0.33686  0.65764  0.88874  1
 H  H5  1  0.09102  0.59468  0.87791  1
 H  H6  1  0.78555  0.42080  0.88463  1
 H  H7  1  0.97761  0.31774  0.79510  1
 H  H8  1  0.38047  0.70603  0.40502  1
 H  H9  1  0.27018  0.79180  0.28642  1
 H  H10  1  0.55972  0.03586  0.35362  1
 H  H11  1  0.60422  0.26546  0.40501  1
 H  H12  1  0.79723  0.73533  0.28318  1
 H  H13  1  0.26941  0.37663  0.40732  1
 H  H14  1  0.67013  0.77364  0.87887  1
 H  H15  1  0.71991  0.97700  0.77770  1
 H  H16  1  0.06590  0.56448  0.15570  1
 H  H17  1  0.04136  0.43594  0.35470  1
 H  H18  1  0.67559  0.56875  0.61947  1
 H  H19  1  -0.01086  0.41397  0.62384  1
 H  H20  1  0.22895  0.33301  0.63249  1
 H  H21  1  0.34561  0.68263  0.61917  1
 H  H22  1  0.83113  0.67639  0.71345  1
 H  H23  1  0.50971  -0.01916  0.63394  1
 H  H24  1  0.58460  0.22413  0.62813  1
 H  H25  1  0.30474  0.62638  0.10420  1
 H  H26  1  0.23490  0.81151  0.72538  1
 H  H27  1  0.80527  0.26725  0.22381  1
 H  H28  1  0.58102  0.96565  0.15352  1
 H  H29  1  0.63652  0.73409  0.10212  1
 H  H30  1  0.27725  0.21280  0.22754  1
 H  H31  1  0.41225  0.29162  0.10634  1
 H  H32  1  0.74714  0.40349  0.10454  1
 O  O1  1  0.48580  0.47573  0.45802  1
 O  O2  1  0.55870  0.54412  0.91429  1
 O  O3  1  0.70157  0.86234  0.14236  1
 O  O4  1  0.46971  0.45943  0.59410  1
 O  O5  1  0.53752  0.52561  0.05038  1
 O  O6  1  0.14191  0.31359  0.36679  1
 O  O7  1  0.84401  0.67221  0.36166  1
 O  O8  1  0.67800  0.14092  0.36305  1
 O  O9  1  0.31901  0.84034  0.36445  1
 O  O10  1  0.18964  0.72374  0.87325  1
 O  O11  1  0.34279  0.16042  0.15058  1
 O  O12  1  0.74862  0.91818  0.86086  1
 O  O13  1  0.82824  0.63792  0.62925  1
 O  O14  1  0.07417  0.28091  0.64277  1
 O  O15  1  0.27964  0.82882  0.63679  1
 O  O16  1  0.64319  0.07242  0.63718  1
 O  O17  1  0.17084  0.68695  0.14701  1
 O  O18  1  0.36844  0.16845  0.88351  1
 O  O19  1  0.93947  0.36376  0.87841  1
 O  O20  1  0.87174  0.33168  0.14613  1
 Sr  Sr1  1  0.03968  0.02551  0.01187  1
 Sr  Sr2  1  -0.01752  -0.02359  0.49677  1
