CIF file written using JARVIS-Tools package.
data_KMn6P7O24
_symmetry_space_group_name_H-M  'P2_1/m'
_cell_length_a       5.38031
_cell_length_b       6.57893
_cell_length_c       26.7375
_cell_angle_alpha    90
_cell_angle_beta     90
_cell_angle_gamma    107.171

_symmetry_Int_Tables_number  11
_chemical_formula_structural  KMn6P7O24
_chemical_formula_sum  K2Mn2P4O48
_cell_volume  904.2335173695568
_cell_formula_units_Z  2
loop_
  _symmetry_equiv_pos_site_id
 _symmetry_equiv_pos_as_xyz
 1  'x, y, z'
loop_
 _atom_site_type_symbol
 _atom_site_label
 _atom_site_symmetry_multiplicity
 _atom_site_fract_x
 _atom_site_fract_y
 _atom_site_fract_z
 _atom_site_fract_occupancy
 K  K1  1  0.78076  0.37645  0.75000  1
 K  K2  1  0.21924  0.62355  0.25000  1
 Mn  Mn1  1  0.37713  0.72196  0.68335  1
 Mn  Mn2  1  0.62287  0.27804  0.18335  1
 Mn  Mn3  1  0.29132  0.91381  0.40194  1
 Mn  Mn4  1  0.70868  0.08619  0.90194  1
 Mn  Mn5  1  0.70868  0.08619  0.59806  1
 Mn  Mn6  1  0.29132  0.91381  0.09806  1
 Mn  Mn7  1  0.68763  0.68486  0.45533  1
 Mn  Mn8  1  0.31237  0.31514  0.95533  1
 Mn  Mn9  1  0.31237  0.31514  0.54467  1
 Mn  Mn10  1  0.68763  0.68486  0.04467  1
 Mn  Mn11  1  0.62287  0.27804  0.31665  1
 Mn  Mn12  1  0.37713  0.72196  0.81665  1
 O  O1  1  0.84846  0.21733  0.25000  1
 O  O2  1  0.36127  0.60611  0.40407  1
 O  O3  1  0.15154  0.78267  0.75000  1
 O  O4  1  0.10850  0.20548  0.61856  1
 O  O5  1  0.10850  0.20548  0.88144  1
 O  O6  1  0.89150  0.79452  0.38144  1
 O  O7  1  0.43486  0.05683  0.83376  1
 O  O8  1  0.43486  0.05683  0.66624  1
 O  O9  1  0.56514  0.94317  0.33376  1
 O  O10  1  0.63587  0.59634  0.19456  1
 O  O11  1  0.36413  0.40366  0.69456  1
 O  O12  1  0.66989  0.78221  0.75000  1
 O  O13  1  0.56514  0.94317  0.16624  1
 O  O14  1  0.65058  0.76742  0.62252  1
 O  O15  1  0.64037  0.36979  0.47816  1
 O  O16  1  0.34942  0.23258  0.37748  1
 O  O17  1  0.98972  0.38608  0.15015  1
 O  O18  1  0.01028  0.61392  0.65015  1
 O  O19  1  0.01028  0.61392  0.84985  1
 O  O20  1  0.98972  0.38608  0.34985  1
 O  O21  1  0.36413  0.40366  0.80544  1
 O  O22  1  0.35963  0.63021  0.97816  1
 O  O23  1  0.35963  0.63021  0.52184  1
 O  O24  1  0.64037  0.36979  0.02184  1
 O  O25  1  0.91082  0.17388  0.52608  1
 O  O26  1  0.08918  0.82612  0.02608  1
 O  O27  1  0.08918  0.82612  0.47392  1
 O  O28  1  0.91082  0.17388  0.97392  1
 O  O29  1  0.65058  0.76742  0.87748  1
 O  O30  1  0.63587  0.59634  0.30544  1
 O  O31  1  0.37244  0.00493  0.95196  1
 O  O32  1  -0.00308  0.06281  0.70314  1
 O  O33  1  0.00308  0.93719  0.20314  1
 O  O34  1  0.36127  0.60611  0.09593  1
 O  O35  1  0.04628  0.29234  0.44193  1
 O  O36  1  0.95372  0.70766  0.94193  1
 O  O37  1  0.95372  0.70766  0.55807  1
 O  O38  1  0.63873  0.39389  0.59593  1
 O  O39  1  0.62756  0.99507  0.45196  1
 O  O40  1  0.63873  0.39389  0.90407  1
 O  O41  1  0.33011  0.21779  0.25000  1
 O  O42  1  0.04628  0.29234  0.05807  1
 O  O43  1  0.62756  0.99507  0.04804  1
 O  O44  1  0.89150  0.79452  0.11856  1
 O  O45  1  0.34942  0.23258  0.12252  1
 O  O46  1  0.00308  0.93719  0.29686  1
 O  O47  1  -0.00308  0.06281  0.79686  1
 O  O48  1  0.37244  0.00493  0.54804  1
 P  P1  1  0.75207  0.80606  0.16784  1
 P  P2  1  0.24793  0.19394  0.66784  1
 P  P3  1  0.24793  0.19394  0.83216  1
 P  P4  1  0.75207  0.80606  0.33216  1
 P  P5  1  0.04482  0.09247  0.25000  1
 P  P6  1  0.78998  0.20459  0.02444  1
 P  P7  1  0.18577  0.38351  0.11007  1
 P  P8  1  0.21002  0.79541  0.97556  1
 P  P9  1  0.78998  0.20459  0.47556  1
 P  P10  1  0.81423  0.61649  0.61007  1
 P  P11  1  0.81423  0.61649  0.88993  1
 P  P12  1  0.18577  0.38351  0.38993  1
 P  P13  1  0.95518  0.90753  0.75000  1
 P  P14  1  0.21002  0.79541  0.52444  1
