CIF file written using JARVIS-Tools package.
data_Mn3O5F
_symmetry_space_group_name_H-M  'Pmn2_1'
_cell_length_a       4.49621
_cell_length_b       4.49921
_cell_length_c       8.83215
_cell_angle_alpha    90
_cell_angle_beta     90
_cell_angle_gamma    90

_symmetry_Int_Tables_number  31
_chemical_formula_structural  Mn3O5F
_chemical_formula_sum  Mn6O0F2
_cell_volume  178.669197197086
_cell_formula_units_Z  2
loop_
  _symmetry_equiv_pos_site_id
 _symmetry_equiv_pos_as_xyz
 1  'x, y, z'
loop_
 _atom_site_type_symbol
 _atom_site_label
 _atom_site_symmetry_multiplicity
 _atom_site_fract_x
 _atom_site_fract_y
 _atom_site_fract_z
 _atom_site_fract_occupancy
 F  F1  1  0.80039  0.45394  0.00000  1
 F  F2  1  0.30039  0.54606  0.50000  1
 Mn  Mn1  1  0.51190  0.75406  0.67503  1
 Mn  Mn2  1  0.51190  0.75406  0.32497  1
 Mn  Mn3  1  0.01190  0.24594  0.17503  1
 Mn  Mn4  1  0.01190  0.24594  0.82497  1
 Mn  Mn5  1  0.97979  0.22860  0.50000  1
 Mn  Mn6  1  0.47979  0.77140  0.00000  1
 O  O1  1  0.80547  0.44131  0.66504  1
 O  O2  1  0.80547  0.44131  0.33496  1
 O  O3  1  0.30547  0.55869  0.16504  1
 O  O4  1  0.69708  0.94880  0.83527  1
 O  O5  1  0.19092  0.06343  0.00000  1
 O  O6  1  0.69708  0.94880  0.16473  1
 O  O7  1  0.19708  0.05120  0.66473  1
 O  O8  1  0.19708  0.05120  0.33527  1
 O  O9  1  0.69092  0.93657  0.50000  1
 O  O10  1  0.30547  0.55869  0.83496  1
