CIF file written using JARVIS-Tools package.
data_RbMg6Mo
_symmetry_space_group_name_H-M  'P-6m2'
_cell_length_a       6.46077
_cell_length_b       6.46077
_cell_length_c       5.1278
_cell_angle_alpha    90
_cell_angle_beta     90
_cell_angle_gamma    119.954

_symmetry_Int_Tables_number  187
_chemical_formula_structural  RbMg6Mo
_chemical_formula_sum  RbMg6Mo
_cell_volume  185.4512536128441
_cell_formula_units_Z  1
loop_
  _symmetry_equiv_pos_site_id
 _symmetry_equiv_pos_as_xyz
 1  'x, y, z'
loop_
 _atom_site_type_symbol
 _atom_site_label
 _atom_site_symmetry_multiplicity
 _atom_site_fract_x
 _atom_site_fract_y
 _atom_site_fract_z
 _atom_site_fract_occupancy
 Mg  Mg1  1  0.11781  0.93387  0.25000  1
 Mg  Mg2  1  0.56613  0.38219  0.25000  1
 Mg  Mg3  1  0.56632  0.93368  0.25000  1
 Mg  Mg4  1  0.43544  0.59293  0.75000  1
 Mg  Mg5  1  0.90707  0.06456  0.75000  1
 Mg  Mg6  1  0.90716  0.59284  0.75000  1
 Mo  Mo1  1  0.41674  0.08326  0.75000  1
 Rb  Rb1  1  0.08333  0.41667  0.25000  1
