CIF file written using JARVIS-Tools package.
data_UGaRu
_symmetry_space_group_name_H-M  'P-62m'
_cell_length_a       4.0406
_cell_length_b       6.87361
_cell_length_c       6.8735
_cell_angle_alpha    120.001
_cell_angle_beta     90
_cell_angle_gamma    90

_symmetry_Int_Tables_number  189
_chemical_formula_structural  UGaRu
_chemical_formula_sum  U3Ga3Ru3
_cell_volume  165.32433673755236
_cell_formula_units_Z  3
loop_
  _symmetry_equiv_pos_site_id
 _symmetry_equiv_pos_as_xyz
 1  'x, y, z'
loop_
 _atom_site_type_symbol
 _atom_site_label
 _atom_site_symmetry_multiplicity
 _atom_site_fract_x
 _atom_site_fract_y
 _atom_site_fract_z
 _atom_site_fract_occupancy
 Ga  Ga1  1  0.00000  0.23957  -0.00000  1
 Ga  Ga2  1  0.00000  0.76041  0.76045  1
 Ga  Ga3  1  0.00000  0.99996  0.23955  1
 Ru  Ru1  1  0.00000  0.33330  0.66664  1
 Ru  Ru2  1  0.00000  0.66666  0.33336  1
 Ru  Ru3  1  0.50000  0.00003  0.00000  1
 U  U1  1  0.50000  0.58035  -0.00000  1
 U  U2  1  0.50000  0.41960  0.41960  1
 U  U3  1  0.50000  -0.00000  0.58040  1
