CIF file written using JARVIS-Tools package.
data_PbS
_symmetry_space_group_name_H-M  'Amm2'
_cell_length_a       4.00179
_cell_length_b       7.88508
_cell_length_c       7.88508
_cell_angle_alpha    75.1803
_cell_angle_beta     90
_cell_angle_gamma    90

_symmetry_Int_Tables_number  38
_chemical_formula_structural  PbS
_chemical_formula_sum  Pb4S4
_cell_volume  240.53255819177627
_cell_formula_units_Z  4
loop_
  _symmetry_equiv_pos_site_id
 _symmetry_equiv_pos_as_xyz
 1  'x, y, z'
loop_
 _atom_site_type_symbol
 _atom_site_label
 _atom_site_symmetry_multiplicity
 _atom_site_fract_x
 _atom_site_fract_y
 _atom_site_fract_z
 _atom_site_fract_occupancy
 Pb  Pb1  1  0.00000  0.25086  0.70467  1
 Pb  Pb2  1  0.00000  0.70467  0.25086  1
 Pb  Pb3  1  0.50000  0.21696  0.21696  1
 Pb  Pb4  1  0.00000  0.73821  0.73821  1
 S  S1  1  0.50000  0.03375  0.60728  1
 S  S2  1  0.50000  0.60728  0.03375  1
 S  S3  1  0.00000  0.35572  0.35572  1
 S  S4  1  0.50000  0.56755  0.56755  1
