CIF file written using JARVIS-Tools package.
data_BeFe4Ge
_symmetry_space_group_name_H-M  'F-43m'
_cell_length_a       4.67741
_cell_length_b       4.67741
_cell_length_c       4.67741
_cell_angle_alpha    60
_cell_angle_beta     60
_cell_angle_gamma    60

_symmetry_Int_Tables_number  216
_chemical_formula_structural  BeFe4Ge
_chemical_formula_sum  BeFe4Ge
_cell_volume  72.3602906631135
_cell_formula_units_Z  1
loop_
  _symmetry_equiv_pos_site_id
 _symmetry_equiv_pos_as_xyz
 1  'x, y, z'
loop_
 _atom_site_type_symbol
 _atom_site_label
 _atom_site_symmetry_multiplicity
 _atom_site_fract_x
 _atom_site_fract_y
 _atom_site_fract_z
 _atom_site_fract_occupancy
 Be  Be1  1  0.00000  0.00000  0.00000  1
 Fe  Fe1  1  0.37449  0.37449  0.37449  1
 Fe  Fe2  1  0.37449  0.87652  0.37449  1
 Fe  Fe3  1  0.37449  0.37449  0.87652  1
 Fe  Fe4  1  0.87652  0.37449  0.37449  1
 Ge  Ge1  1  0.75000  0.75000  0.75000  1
