CIF file written using JARVIS-Tools package.
data_LaMnO3
_symmetry_space_group_name_H-M  'Pnma'
_cell_length_a       5.54781
_cell_length_b       5.5469
_cell_length_c       7.82519
_cell_angle_alpha    90
_cell_angle_beta     90
_cell_angle_gamma    90

_symmetry_Int_Tables_number  62
_chemical_formula_structural  LaMnO3
_chemical_formula_sum  La4Mn4O2
_cell_volume  240.80608466632495
_cell_formula_units_Z  4
loop_
  _symmetry_equiv_pos_site_id
 _symmetry_equiv_pos_as_xyz
 1  'x, y, z'
loop_
 _atom_site_type_symbol
 _atom_site_label
 _atom_site_symmetry_multiplicity
 _atom_site_fract_x
 _atom_site_fract_y
 _atom_site_fract_z
 _atom_site_fract_occupancy
 La  La1  1  0.00571  0.96934  0.75000  1
 La  La2  1  0.49429  0.46934  0.75000  1
 La  La3  1  0.50571  0.53066  0.25000  1
 La  La4  1  0.99429  0.03066  0.25000  1
 Mn  Mn1  1  0.50000  0.00000  0.50000  1
 Mn  Mn2  1  0.00000  0.50000  0.50000  1
 Mn  Mn3  1  0.50000  0.00000  0.00000  1
 Mn  Mn4  1  0.00000  0.50000  0.00000  1
 O  O1  1  0.06904  0.48911  0.25000  1
 O  O2  1  0.78071  0.78154  0.46314  1
 O  O3  1  0.21929  0.21846  0.53686  1
 O  O4  1  0.28071  0.71846  0.53686  1
 O  O5  1  0.21929  0.21846  0.96314  1
 O  O6  1  0.71929  0.28154  0.46314  1
 O  O7  1  0.56904  0.01089  0.75000  1
 O  O8  1  0.71929  0.28154  0.03686  1
 O  O9  1  0.28071  0.71846  0.96314  1
 O  O10  1  0.78071  0.78154  0.03686  1
 O  O11  1  0.43096  0.98911  0.25000  1
 O  O12  1  0.93096  0.51089  0.75000  1
