CIF file written using JARVIS-Tools package.
data_LaHBr2
_symmetry_space_group_name_H-M  'P6_3/mmc'
_cell_length_a       4.10639
_cell_length_b       4.10663
_cell_length_c       13.9436
_cell_angle_alpha    90
_cell_angle_beta     90
_cell_angle_gamma    119.998

_symmetry_Int_Tables_number  194
_chemical_formula_structural  LaHBr2
_chemical_formula_sum  La2H2Br4
_cell_volume  203.63826497656783
_cell_formula_units_Z  2
loop_
  _symmetry_equiv_pos_site_id
 _symmetry_equiv_pos_as_xyz
 1  'x, y, z'
loop_
 _atom_site_type_symbol
 _atom_site_label
 _atom_site_symmetry_multiplicity
 _atom_site_fract_x
 _atom_site_fract_y
 _atom_site_fract_z
 _atom_site_fract_occupancy
 Br  Br1  1  0.33333  0.66666  0.10978  1
 Br  Br2  1  0.66667  0.33334  0.89022  1
 Br  Br3  1  0.66667  0.33334  0.60978  1
 Br  Br4  1  0.33333  0.66666  0.39022  1
 H  H1  1  0.33333  0.66667  0.75000  1
 H  H2  1  0.66667  0.33333  0.25000  1
 La  La1  1  1.00000  1.00000  0.25000  1
 La  La2  1  0.00000  0.00000  0.75000  1
