CIF file written using JARVIS-Tools package.
data_Li2BPt3
_symmetry_space_group_name_H-M  'P4_332'
_cell_length_a       6.83477
_cell_length_b       6.83477
_cell_length_c       6.83477
_cell_angle_alpha    90
_cell_angle_beta     90
_cell_angle_gamma    90

_symmetry_Int_Tables_number  212
_chemical_formula_structural  Li2BPt3
_chemical_formula_sum  Li8B4Pt2
_cell_volume  319.28002921647686
_cell_formula_units_Z  4
loop_
  _symmetry_equiv_pos_site_id
 _symmetry_equiv_pos_as_xyz
 1  'x, y, z'
loop_
 _atom_site_type_symbol
 _atom_site_label
 _atom_site_symmetry_multiplicity
 _atom_site_fract_x
 _atom_site_fract_y
 _atom_site_fract_z
 _atom_site_fract_occupancy
 B  B1  1  0.37500  0.12500  0.87500  1
 B  B2  1  0.87500  0.37500  0.12500  1
 B  B3  1  0.12500  0.87500  0.37500  1
 B  B4  1  0.62500  0.62500  0.62500  1
 Li  Li1  1  0.69717  0.80283  0.19717  1
 Li  Li2  1  0.80283  0.19717  0.69717  1
 Li  Li3  1  0.30283  0.30283  0.30283  1
 Li  Li4  1  0.19717  0.69717  0.80283  1
 Li  Li5  1  0.44717  0.55283  0.05283  1
 Li  Li6  1  0.55283  0.05283  0.44717  1
 Li  Li7  1  0.05283  0.44717  0.55283  1
 Li  Li8  1  0.94717  0.94717  0.94717  1
 Pt  Pt1  1  0.37500  0.68808  0.43808  1
 Pt  Pt2  1  0.62500  0.18808  0.06192  1
 Pt  Pt3  1  0.56192  0.87500  0.81192  1
 Pt  Pt4  1  0.68808  0.43808  0.37500  1
 Pt  Pt5  1  0.31192  0.93808  0.12500  1
 Pt  Pt6  1  0.06192  0.62500  0.18808  1
 Pt  Pt7  1  0.43808  0.37500  0.68808  1
 Pt  Pt8  1  0.18808  0.06192  0.62500  1
 Pt  Pt9  1  0.12500  0.31192  0.93808  1
 Pt  Pt10  1  0.87500  0.81192  0.56192  1
 Pt  Pt11  1  0.93808  0.12500  0.31192  1
 Pt  Pt12  1  0.81192  0.56192  0.87500  1
