CIF file written using JARVIS-Tools package.
data_Y4OsBr4
_symmetry_space_group_name_H-M  'C2/c'
_cell_length_a       6.58454
_cell_length_b       8.8309
_cell_length_c       8.8309
_cell_angle_alpha    89.4331
_cell_angle_beta     89.3093
_cell_angle_gamma    89.3093

_symmetry_Int_Tables_number  15
_chemical_formula_structural  Y4OsBr4
_chemical_formula_sum  Y8Os2Br8
_cell_volume  513.3953918745625
_cell_formula_units_Z  2
loop_
  _symmetry_equiv_pos_site_id
 _symmetry_equiv_pos_as_xyz
 1  'x, y, z'
loop_
 _atom_site_type_symbol
 _atom_site_label
 _atom_site_symmetry_multiplicity
 _atom_site_fract_x
 _atom_site_fract_y
 _atom_site_fract_z
 _atom_site_fract_occupancy
 Br  Br1  1  0.40639  0.42227  0.81336  1
 Br  Br2  1  0.90427  0.58208  0.80515  1
 Br  Br3  1  0.40427  0.80515  0.58208  1
 Br  Br4  1  0.09573  0.41792  0.19485  1
 Br  Br5  1  0.59361  0.57773  0.18664  1
 Br  Br6  1  0.90639  0.81336  0.42227  1
 Br  Br7  1  0.09361  0.18664  0.57773  1
 Br  Br8  1  0.59573  0.19485  0.41792  1
 Os  Os1  1  0.75000  0.00535  0.99465  1
 Os  Os2  1  0.25000  0.99465  0.00535  1
 Y  Y1  1  0.00956  0.90150  0.74790  1
 Y  Y2  1  0.50956  0.74790  0.90150  1
 Y  Y3  1  0.99044  0.09850  0.25210  1
 Y  Y4  1  0.49062  0.09973  0.74662  1
 Y  Y5  1  0.99062  0.74662  0.09973  1
 Y  Y6  1  0.49044  0.25210  0.09850  1
 Y  Y7  1  0.50938  0.90027  0.25338  1
 Y  Y8  1  0.00938  0.25338  0.90027  1
