CIF file written using JARVIS-Tools package.
data_Ca2BClO3
_symmetry_space_group_name_H-M  'P2_1/c'
_cell_length_a       3.92451
_cell_length_b       8.72407
_cell_length_c       12.3035
_cell_angle_alpha    90
_cell_angle_beta     97.7223
_cell_angle_gamma    90

_symmetry_Int_Tables_number  14
_chemical_formula_structural  Ca2BClO3
_chemical_formula_sum  Ca8B4Cl4O2
_cell_volume  417.4221485779502
_cell_formula_units_Z  4
loop_
  _symmetry_equiv_pos_site_id
 _symmetry_equiv_pos_as_xyz
 1  'x, y, z'
loop_
 _atom_site_type_symbol
 _atom_site_label
 _atom_site_symmetry_multiplicity
 _atom_site_fract_x
 _atom_site_fract_y
 _atom_site_fract_z
 _atom_site_fract_occupancy
 B  B1  1  0.13410  0.63419  0.84435  1
 B  B2  1  0.63410  0.86581  0.34435  1
 B  B3  1  0.86590  0.36581  0.15565  1
 B  B4  1  0.36590  0.13419  0.65565  1
 Ca  Ca1  1  0.44651  0.62123  0.11677  1
 Ca  Ca2  1  0.55349  0.37877  0.88323  1
 Ca  Ca3  1  0.43434  0.11593  0.13803  1
 Ca  Ca4  1  0.94651  0.87877  0.61677  1
 Ca  Ca5  1  0.06566  0.61593  0.36197  1
 Ca  Ca6  1  0.93434  0.38407  0.63803  1
 Ca  Ca7  1  0.56566  0.88407  0.86197  1
 Ca  Ca8  1  0.05349  0.12123  0.38323  1
 Cl  Cl1  1  0.89529  0.87315  0.08811  1
 Cl  Cl2  1  0.10471  0.12685  0.91189  1
 Cl  Cl3  1  0.60471  0.37315  0.41189  1
 Cl  Cl4  1  0.39529  0.62685  0.58811  1
 O  O1  1  0.01026  0.49028  0.81162  1
 O  O2  1  0.48974  0.99028  0.68838  1
 O  O3  1  0.01821  0.77083  0.79517  1
 O  O4  1  0.41180  0.64118  0.92781  1
 O  O5  1  0.51026  0.00972  0.31162  1
 O  O6  1  0.51821  0.72917  0.29517  1
 O  O7  1  0.98974  0.50972  0.18838  1
 O  O8  1  0.48179  0.27083  0.70483  1
 O  O9  1  0.58820  0.35882  0.07219  1
 O  O10  1  0.08820  0.14118  0.57219  1
 O  O11  1  0.91180  0.85882  0.42781  1
 O  O12  1  0.98179  0.22917  0.20483  1
