CIF file written using JARVIS-Tools package.
data_HfGeRh
_symmetry_space_group_name_H-M  'P-62m'
_cell_length_a       3.9043
_cell_length_b       6.6365
_cell_length_c       6.63641
_cell_angle_alpha    120.001
_cell_angle_beta     90
_cell_angle_gamma    90

_symmetry_Int_Tables_number  189
_chemical_formula_structural  HfGeRh
_chemical_formula_sum  Hf3Ge3Rh3
_cell_volume  148.91697426531323
_cell_formula_units_Z  3
loop_
  _symmetry_equiv_pos_site_id
 _symmetry_equiv_pos_as_xyz
 1  'x, y, z'
loop_
 _atom_site_type_symbol
 _atom_site_label
 _atom_site_symmetry_multiplicity
 _atom_site_fract_x
 _atom_site_fract_y
 _atom_site_fract_z
 _atom_site_fract_occupancy
 Ge  Ge1  1  0.00000  0.33332  0.66667  1
 Ge  Ge2  1  0.00000  0.66665  0.33333  1
 Ge  Ge3  1  0.50000  0.99999  0.00000  1
 Hf  Hf1  1  0.50000  0.57666  0.00000  1
 Hf  Hf2  1  0.50000  0.42332  0.42333  1
 Hf  Hf3  1  0.50000  0.99999  0.57667  1
 Rh  Rh1  1  0.00000  0.24893  -0.00000  1
 Rh  Rh2  1  0.00000  0.75104  0.75106  1
 Rh  Rh3  1  0.00000  0.99999  0.24894  1
