CIF file written using JARVIS-Tools package.
data_Zr2Cr4Si5
_symmetry_space_group_name_H-M  'Ibam'
_cell_length_a       4.96436
_cell_length_b       7.61158
_cell_length_c       9.2453
_cell_angle_alpha    114.308
_cell_angle_beta     105.574
_cell_angle_gamma    90

_symmetry_Int_Tables_number  72
_chemical_formula_structural  Zr2Cr4Si5
_chemical_formula_sum  Zr4Cr8Si0
_cell_volume  304.2479538600228
_cell_formula_units_Z  2
loop_
  _symmetry_equiv_pos_site_id
 _symmetry_equiv_pos_as_xyz
 1  'x, y, z'
loop_
 _atom_site_type_symbol
 _atom_site_label
 _atom_site_symmetry_multiplicity
 _atom_site_fract_x
 _atom_site_fract_y
 _atom_site_fract_z
 _atom_site_fract_occupancy
 Cr  Cr1  1  0.44147  0.69147  0.38293  1
 Cr  Cr2  1  0.55853  0.30853  0.61707  1
 Cr  Cr3  1  0.94147  0.69147  0.38293  1
 Cr  Cr4  1  0.93883  0.68606  0.87766  1
 Cr  Cr5  1  0.06117  0.31394  0.12234  1
 Cr  Cr6  1  0.56117  0.80840  0.12234  1
 Cr  Cr7  1  0.43883  0.19160  0.87766  1
 Cr  Cr8  1  0.05853  0.30853  0.61707  1
 Si  Si1  1  0.25000  -0.00000  0.00000  1
 Si  Si2  1  0.28960  0.99854  0.57920  1
 Si  Si3  1  0.71040  0.00146  0.42080  1
 Si  Si4  1  0.06439  0.63716  0.12878  1
 Si  Si5  1  0.93561  0.36284  0.87122  1
 Si  Si6  1  0.43561  0.50838  0.87122  1
 Si  Si7  1  0.75000  -0.00000  0.00000  1
 Si  Si8  1  0.78960  0.58066  0.57920  1
 Si  Si9  1  0.21040  0.41934  0.42080  1
 Si  Si10  1  0.56439  0.49162  0.12878  1
 Zr  Zr1  1  0.35874  0.73678  0.71749  1
 Zr  Zr2  1  0.14126  0.01929  0.28251  1
 Zr  Zr3  1  0.85874  0.98071  0.71749  1
 Zr  Zr4  1  0.64126  0.26322  0.28251  1
