CIF file written using JARVIS-Tools package.
data_K2SnO6
_symmetry_space_group_name_H-M  'R-3'
_cell_length_a       5.02389
_cell_length_b       5.02389
_cell_length_c       5.02388
_cell_angle_alpha    83.5886
_cell_angle_beta     83.5885
_cell_angle_gamma    83.5886

_symmetry_Int_Tables_number  148
_chemical_formula_structural  K2SnO6
_chemical_formula_sum  K2SnO6
_cell_volume  124.58560763144003
_cell_formula_units_Z  1
loop_
  _symmetry_equiv_pos_site_id
 _symmetry_equiv_pos_as_xyz
 1  'x, y, z'
loop_
 _atom_site_type_symbol
 _atom_site_label
 _atom_site_symmetry_multiplicity
 _atom_site_fract_x
 _atom_site_fract_y
 _atom_site_fract_z
 _atom_site_fract_occupancy
 K  K1  1  0.65066  0.65066  0.65066  1
 K  K2  1  0.34934  0.34934  0.34934  1
 O  O1  1  0.93179  0.10313  0.58903  1
 O  O2  1  0.58903  0.93179  0.10313  1
 O  O3  1  0.10313  0.58903  0.93179  1
 O  O4  1  0.06821  0.89687  0.41097  1
 O  O5  1  0.41097  0.06821  0.89687  1
 O  O6  1  0.89687  0.41097  0.06821  1
 Sn  Sn1  1  0.00000  0.00000  0.00000  1
