CIF file written using JARVIS-Tools package.
data_CeSi2Ag
_symmetry_space_group_name_H-M  'Cmcm'
_cell_length_a       4.20807
_cell_length_b       4.18915
_cell_length_c       9.10907
_cell_angle_alpha    103.294
_cell_angle_beta     90
_cell_angle_gamma    90

_symmetry_Int_Tables_number  63
_chemical_formula_structural  CeSi2Ag
_chemical_formula_sum  Ce2Si4Ag2
_cell_volume  156.27367438819678
_cell_formula_units_Z  2
loop_
  _symmetry_equiv_pos_site_id
 _symmetry_equiv_pos_as_xyz
 1  'x, y, z'
loop_
 _atom_site_type_symbol
 _atom_site_label
 _atom_site_symmetry_multiplicity
 _atom_site_fract_x
 _atom_site_fract_y
 _atom_site_fract_z
 _atom_site_fract_occupancy
 Ag  Ag1  1  0.75000  0.74834  0.49669  1
 Ag  Ag2  1  0.25000  0.25166  0.50331  1
 Ce  Ce1  1  0.75000  0.40422  0.80844  1
 Ce  Ce2  1  0.25000  0.59578  0.19156  1
 Si  Si1  1  0.75000  0.03164  0.06327  1
 Si  Si2  1  0.25000  0.96836  0.93673  1
 Si  Si3  1  0.75000  0.16274  0.32548  1
 Si  Si4  1  0.25000  0.83726  0.67452  1
