CIF file written using JARVIS-Tools package.
data_Sm2Fe2O5
_symmetry_space_group_name_H-M  'Pmm2'
_cell_length_a       7.13594
_cell_length_b       3.89566
_cell_length_c       3.83328
_cell_angle_alpha    90.0031
_cell_angle_beta     89.9983
_cell_angle_gamma    90.0039

_symmetry_Int_Tables_number  25
_chemical_formula_structural  Sm2Fe2O5
_chemical_formula_sum  Sm2Fe2O5
_cell_volume  106.56220532051381
_cell_formula_units_Z  1
loop_
  _symmetry_equiv_pos_site_id
 _symmetry_equiv_pos_as_xyz
 1  'x, y, z'
loop_
 _atom_site_type_symbol
 _atom_site_label
 _atom_site_symmetry_multiplicity
 _atom_site_fract_x
 _atom_site_fract_y
 _atom_site_fract_z
 _atom_site_fract_occupancy
 Fe  Fe1  1  0.20610  0.49517  0.50001  1
 Fe  Fe2  1  0.79390  0.49513  0.50001  1
 O  O1  1  0.21666  0.48334  0.00001  1
 O  O2  1  0.78337  0.48326  0.00000  1
 O  O3  1  0.50001  0.46244  0.49994  1
 O  O4  1  0.21811  0.99208  0.50004  1
 O  O5  1  0.78189  0.99204  0.50004  1
 Sm  Sm1  1  -0.00001  0.98463  0.00003  1
 Sm  Sm2  1  0.49998  0.11190  0.99991  1
