CIF file written using JARVIS-Tools package.
data_Li3FeF6
_symmetry_space_group_name_H-M  'R-3'
_cell_length_a       5.95272
_cell_length_b       5.95272
_cell_length_c       5.95272
_cell_angle_alpha    91.5792
_cell_angle_beta     91.5791
_cell_angle_gamma    91.5791

_symmetry_Int_Tables_number  148
_chemical_formula_structural  Li3FeF6
_chemical_formula_sum  Li6Fe2F2
_cell_volume  210.6886328851897
_cell_formula_units_Z  2
loop_
  _symmetry_equiv_pos_site_id
 _symmetry_equiv_pos_as_xyz
 1  'x, y, z'
loop_
 _atom_site_type_symbol
 _atom_site_label
 _atom_site_symmetry_multiplicity
 _atom_site_fract_x
 _atom_site_fract_y
 _atom_site_fract_z
 _atom_site_fract_occupancy
 F  F1  1  0.30619  0.08696  0.92473  1
 F  F2  1  0.08696  0.92473  0.30619  1
 F  F3  1  0.92473  0.30619  0.08696  1
 F  F4  1  0.44889  0.80680  0.60471  1
 F  F5  1  0.69381  0.91304  0.07527  1
 F  F6  1  0.07527  0.69381  0.91304  1
 F  F7  1  0.39529  0.55111  0.19320  1
 F  F8  1  0.60471  0.44889  0.80680  1
 F  F9  1  0.80680  0.60471  0.44889  1
 F  F10  1  0.91304  0.07527  0.69381  1
 F  F11  1  0.55111  0.19320  0.39529  1
 F  F12  1  0.19320  0.39529  0.55111  1
 Fe  Fe1  1  0.50000  0.50000  0.50000  1
 Fe  Fe2  1  0.00000  0.00000  0.00000  1
 Li  Li1  1  0.93906  0.44261  0.75022  1
 Li  Li2  1  0.55739  0.24978  0.06094  1
 Li  Li3  1  0.24978  0.06094  0.55739  1
 Li  Li4  1  0.75022  0.93906  0.44261  1
 Li  Li5  1  0.44261  0.75022  0.93906  1
 Li  Li6  1  0.06094  0.55739  0.24978  1
