CIF file written using JARVIS-Tools package.
data_K4Nb11Al2O20F
_symmetry_space_group_name_H-M  'I4/mmm'
_cell_length_a       8.88438
_cell_length_b       8.88438
_cell_length_c       8.95953
_cell_angle_alpha    119.723
_cell_angle_beta     119.723
_cell_angle_gamma    90

_symmetry_Int_Tables_number  139
_chemical_formula_structural  K4Nb11Al2O20F
_chemical_formula_sum  K4NbAl2O20F
_cell_volume  504.2229384330215
_cell_formula_units_Z  1
loop_
  _symmetry_equiv_pos_site_id
 _symmetry_equiv_pos_as_xyz
 1  'x, y, z'
loop_
 _atom_site_type_symbol
 _atom_site_label
 _atom_site_symmetry_multiplicity
 _atom_site_fract_x
 _atom_site_fract_y
 _atom_site_fract_z
 _atom_site_fract_occupancy
 Al  Al1  1  0.75000  0.25000  0.50000  1
 Al  Al2  1  0.25000  0.75000  0.50000  1
 F  F1  1  0.50000  0.50000  0.00000  1
 K  K1  1  0.50000  0.80822  -0.00000  1
 K  K2  1  0.80822  0.50000  -0.00000  1
 K  K3  1  0.50000  0.19178  0.00000  1
 K  K4  1  0.19178  0.50000  0.00000  1
 Nb  Nb1  1  0.99927  0.99927  0.67504  1
 Nb  Nb2  1  0.67576  0.99927  0.67504  1
 Nb  Nb3  1  0.99927  0.67576  0.67504  1
 Nb  Nb4  1  0.67576  0.67576  0.67504  1
 Nb  Nb5  1  0.32424  0.00073  0.32496  1
 Nb  Nb6  1  0.68355  0.68355  0.36711  1
 Nb  Nb7  1  0.32424  0.32424  0.32496  1
 Nb  Nb8  1  0.00073  0.32424  0.32496  1
 Nb  Nb9  1  0.00000  0.00000  0.00000  1
 Nb  Nb10  1  0.31645  0.31645  0.63289  1
 Nb  Nb11  1  0.00073  0.00073  0.32496  1
 O  O1  1  0.82967  0.17033  0.00000  1
 O  O2  1  0.49195  0.16094  0.65288  1
 O  O3  1  0.83424  0.17392  0.66848  1
 O  O4  1  0.82608  0.16576  0.33152  1
 O  O5  1  0.50544  0.16576  0.33152  1
 O  O6  1  0.16094  0.16094  0.65288  1
 O  O7  1  0.50805  0.50805  0.34712  1
 O  O8  1  0.82967  0.82967  -0.00000  1
 O  O9  1  0.83906  0.50805  0.34712  1
 O  O10  1  0.17392  0.83424  0.66848  1
 O  O11  1  0.16094  0.49195  0.65288  1
 O  O12  1  0.49456  0.83424  0.66848  1
 O  O13  1  0.49195  0.49195  0.65288  1
 O  O14  1  0.83906  0.83906  0.34712  1
 O  O15  1  0.16576  0.50544  0.33152  1
 O  O16  1  0.16576  0.82608  0.33152  1
 O  O17  1  0.17033  0.82967  -0.00000  1
 O  O18  1  0.17033  0.17033  0.00000  1
 O  O19  1  0.50805  0.83906  0.34712  1
 O  O20  1  0.83424  0.49456  0.66848  1
