CIF file written using JARVIS-Tools package.
data_Rb2PbO3
_symmetry_space_group_name_H-M  'Pnma'
_cell_length_a       6.13107
_cell_length_b       7.36337
_cell_length_c       10.9605
_cell_angle_alpha    90
_cell_angle_beta     90
_cell_angle_gamma    90

_symmetry_Int_Tables_number  62
_chemical_formula_structural  Rb2PbO3
_chemical_formula_sum  Rb8Pb4O2
_cell_volume  494.81398782708607
_cell_formula_units_Z  4
loop_
  _symmetry_equiv_pos_site_id
 _symmetry_equiv_pos_as_xyz
 1  'x, y, z'
loop_
 _atom_site_type_symbol
 _atom_site_label
 _atom_site_symmetry_multiplicity
 _atom_site_fract_x
 _atom_site_fract_y
 _atom_site_fract_z
 _atom_site_fract_occupancy
 O  O1  1  0.99511  0.77362  0.61849  1
 O  O2  1  0.65448  0.11634  0.75000  1
 O  O3  1  0.34552  0.88366  0.25000  1
 O  O4  1  0.49511  0.72638  0.61849  1
 O  O5  1  0.84552  0.61634  0.25000  1
 O  O6  1  0.00489  0.22638  0.11849  1
 O  O7  1  0.99511  0.77362  0.88151  1
 O  O8  1  0.49511  0.72638  0.88151  1
 O  O9  1  0.15448  0.38366  0.75000  1
 O  O10  1  0.00489  0.22638  0.38151  1
 O  O11  1  0.50489  0.27362  0.11849  1
 O  O12  1  0.50489  0.27362  0.38151  1
 Pb  Pb1  1  0.73548  0.84525  0.75000  1
 Pb  Pb2  1  0.23548  0.65475  0.75000  1
 Pb  Pb3  1  0.76452  0.34525  0.25000  1
 Pb  Pb4  1  0.26452  0.15475  0.25000  1
 Rb  Rb1  1  0.76667  0.39367  0.58628  1
 Rb  Rb2  1  0.23333  0.60633  0.08628  1
 Rb  Rb3  1  0.73333  0.89367  0.41372  1
 Rb  Rb4  1  0.23333  0.60633  0.41372  1
 Rb  Rb5  1  0.26667  0.10633  0.58628  1
 Rb  Rb6  1  0.26667  0.10633  0.91372  1
 Rb  Rb7  1  0.73333  0.89367  0.08628  1
 Rb  Rb8  1  0.76667  0.39367  0.91372  1
