CIF file written using JARVIS-Tools package.
data_La2SiO5
_symmetry_space_group_name_H-M  'P2_1/c'
_cell_length_a       7.04636
_cell_length_b       7.48574
_cell_length_c       9.36337
_cell_angle_alpha    90
_cell_angle_beta     108.388
_cell_angle_gamma    90

_symmetry_Int_Tables_number  14
_chemical_formula_structural  La2SiO5
_chemical_formula_sum  La8Si4O20
_cell_volume  468.6754015215443
_cell_formula_units_Z  4
loop_
  _symmetry_equiv_pos_site_id
 _symmetry_equiv_pos_as_xyz
 1  'x, y, z'
loop_
 _atom_site_type_symbol
 _atom_site_label
 _atom_site_symmetry_multiplicity
 _atom_site_fract_x
 _atom_site_fract_y
 _atom_site_fract_z
 _atom_site_fract_occupancy
 La  La1  1  0.59277  0.84770  0.88860  1
 La  La2  1  0.40723  0.15230  0.11140  1
 La  La3  1  0.09277  0.65230  0.88860  1
 La  La4  1  0.76486  0.37607  0.48604  1
 La  La5  1  0.73514  0.87607  0.51396  1
 La  La6  1  0.23514  0.62393  0.51396  1
 La  La7  1  0.26486  0.12393  0.48604  1
 La  La8  1  0.90723  0.34770  0.11140  1
 O  O1  1  0.50578  0.63450  0.38080  1
 O  O2  1  0.99422  0.13450  0.61920  1
 O  O3  1  0.55729  0.24741  0.90715  1
 O  O4  1  0.94271  0.74741  0.09285  1
 O  O5  1  0.54634  0.12585  0.38611  1
 O  O6  1  0.05729  0.25259  0.90715  1
 O  O7  1  0.95366  0.62585  0.61389  1
 O  O8  1  0.00578  0.86550  0.38080  1
 O  O9  1  0.04634  0.37415  0.38611  1
 O  O10  1  0.44271  0.75259  0.09285  1
 O  O11  1  0.49422  0.36550  0.61920  1
 O  O12  1  0.74959  0.53757  0.86328  1
 O  O13  1  0.13404  0.06825  0.20584  1
 O  O14  1  0.45366  0.87415  0.61389  1
 O  O15  1  0.63404  0.43175  0.20584  1
 O  O16  1  0.75041  0.03757  0.13672  1
 O  O17  1  0.25041  0.46243  0.13672  1
 O  O18  1  0.24959  0.96243  0.86328  1
 O  O19  1  0.36596  0.56825  0.79416  1
 O  O20  1  0.86596  0.93175  0.79416  1
 Si  Si1  1  0.04266  0.08104  0.79876  1
 Si  Si2  1  0.45734  0.58104  0.20124  1
 Si  Si3  1  0.95734  0.91896  0.20124  1
 Si  Si4  1  0.54266  0.41896  0.79876  1
