CIF file written using JARVIS-Tools package.
data_As2PbO4
_symmetry_space_group_name_H-M  'P2_1/c'
_cell_length_a       6.11175
_cell_length_b       7.08046
_cell_length_c       11.812
_cell_angle_alpha    90
_cell_angle_beta     90
_cell_angle_gamma    112.436

_symmetry_Int_Tables_number  14
_chemical_formula_structural  As2PbO4
_chemical_formula_sum  As8Pb4O6
_cell_volume  472.46101821280445
_cell_formula_units_Z  4
loop_
  _symmetry_equiv_pos_site_id
 _symmetry_equiv_pos_as_xyz
 1  'x, y, z'
loop_
 _atom_site_type_symbol
 _atom_site_label
 _atom_site_symmetry_multiplicity
 _atom_site_fract_x
 _atom_site_fract_y
 _atom_site_fract_z
 _atom_site_fract_occupancy
 As  As1  1  0.00729  0.61770  0.35517  1
 As  As2  1  0.49271  0.38230  0.85517  1
 As  As3  1  0.99271  0.38230  0.64483  1
 As  As4  1  0.50729  0.61770  0.14483  1
 As  As5  1  0.22020  0.28461  0.41981  1
 As  As6  1  0.27980  0.71539  0.91981  1
 As  As7  1  0.77980  0.71539  0.58019  1
 As  As8  1  0.72020  0.28461  0.08019  1
 O  O1  1  0.01458  0.80135  0.46922  1
 O  O2  1  0.48542  0.19865  0.96922  1
 O  O3  1  0.98542  0.19865  0.53078  1
 O  O4  1  0.74749  0.44677  0.57956  1
 O  O5  1  0.25251  0.55323  0.42044  1
 O  O6  1  0.24749  0.44677  0.92044  1
 O  O7  1  0.52946  0.19507  0.19904  1
 O  O8  1  0.51458  0.80135  0.03078  1
 O  O9  1  0.97054  0.80493  0.69904  1
 O  O10  1  0.78900  0.19645  0.73443  1
 O  O11  1  0.02946  0.19507  0.30096  1
 O  O12  1  0.75251  0.55323  0.07956  1
 O  O13  1  0.21100  0.80355  0.26557  1
 O  O14  1  0.71100  0.80355  0.23443  1
 O  O15  1  0.47054  0.80493  0.80096  1
 O  O16  1  0.28900  0.19645  0.76557  1
 Pb  Pb1  1  0.39694  0.98889  0.64881  1
 Pb  Pb2  1  0.60306  0.01111  0.35119  1
 Pb  Pb3  1  0.89694  0.98889  0.85119  1
 Pb  Pb4  1  0.10306  0.01111  0.14881  1
