CIF file written using JARVIS-Tools package.
data_Li2CrO3
_symmetry_space_group_name_H-M  'Pnna'
_cell_length_a       4.88677
_cell_length_b       4.89591
_cell_length_c       8.33689
_cell_angle_alpha    89.9988
_cell_angle_beta     90.0014
_cell_angle_gamma    90.0021

_symmetry_Int_Tables_number  52
_chemical_formula_structural  Li2CrO3
_chemical_formula_sum  Li8Cr4O2
_cell_volume  199.4617613543185
_cell_formula_units_Z  4
loop_
  _symmetry_equiv_pos_site_id
 _symmetry_equiv_pos_as_xyz
 1  'x, y, z'
loop_
 _atom_site_type_symbol
 _atom_site_label
 _atom_site_symmetry_multiplicity
 _atom_site_fract_x
 _atom_site_fract_y
 _atom_site_fract_z
 _atom_site_fract_occupancy
 Cr  Cr1  1  0.49999  0.99994  0.41392  1
 Cr  Cr2  1  0.00001  -0.00004  0.10020  1
 Cr  Cr3  1  0.49998  0.49994  0.60020  1
 Cr  Cr4  1  0.00002  0.49997  0.91392  1
 Li  Li1  1  1.00000  0.50019  0.57639  1
 Li  Li2  1  0.50001  0.50007  0.93772  1
 Li  Li3  1  0.50001  0.00009  0.07639  1
 Li  Li4  1  0.00001  0.49999  0.26725  1
 Li  Li5  1  0.50000  0.99993  0.76724  1
 Li  Li6  1  0.00000  -0.00000  0.74688  1
 Li  Li7  1  0.00001  0.00021  0.43773  1
 Li  Li8  1  0.50002  0.49991  0.24688  1
 O  O1  1  0.71733  0.67409  0.43290  1
 O  O2  1  0.78266  0.67410  0.08123  1
 O  O3  1  0.74999  0.64049  0.75706  1
 O  O4  1  0.24999  0.35947  0.75706  1
 O  O5  1  0.21737  0.32587  0.08123  1
 O  O6  1  0.78266  0.17409  0.93290  1
 O  O7  1  0.71733  0.17409  0.58123  1
 O  O8  1  0.75000  0.14051  0.25706  1
 O  O9  1  0.28262  0.82585  0.58123  1
 O  O10  1  0.21737  0.82586  0.93289  1
 O  O11  1  0.28262  0.32586  0.43289  1
 O  O12  1  0.25000  0.85949  0.25706  1
