CIF file written using JARVIS-Tools package.
data_Cu2OF2
_symmetry_space_group_name_H-M  'I4_1/amd'
_cell_length_a       5.71748
_cell_length_b       5.71748
_cell_length_c       6.45616
_cell_angle_alpha    63.7178
_cell_angle_beta     63.7178
_cell_angle_gamma    90

_symmetry_Int_Tables_number  141
_chemical_formula_structural  Cu2OF2
_chemical_formula_sum  Cu4O2F4
_cell_volume  164.54651125424706
_cell_formula_units_Z  2
loop_
  _symmetry_equiv_pos_site_id
 _symmetry_equiv_pos_as_xyz
 1  'x, y, z'
loop_
 _atom_site_type_symbol
 _atom_site_label
 _atom_site_symmetry_multiplicity
 _atom_site_fract_x
 _atom_site_fract_y
 _atom_site_fract_z
 _atom_site_fract_occupancy
 Cu  Cu1  1  0.00000  0.00000  0.00000  1
 Cu  Cu2  1  0.50000  0.00000  0.00000  1
 Cu  Cu3  1  -0.00000  -0.00000  0.50000  1
 Cu  Cu4  1  -0.00000  0.50000  0.50000  1
 F  F1  1  0.38201  0.13201  0.73598  1
 F  F2  1  0.13201  0.38201  0.23598  1
 F  F3  1  0.86799  0.61799  0.76402  1
 F  F4  1  0.61799  0.86799  0.26402  1
 O  O1  1  0.87500  0.12500  0.75000  1
 O  O2  1  0.12500  0.87500  0.25000  1
