CIF file written using JARVIS-Tools package.
data_K2SnO2
_symmetry_space_group_name_H-M  'P-1'
_cell_length_a       7.22171
_cell_length_b       7.44364
_cell_length_c       9.86716
_cell_angle_alpha    85.4224
_cell_angle_beta     109.732
_cell_angle_gamma    118.577

_symmetry_Int_Tables_number  2
_chemical_formula_structural  K2SnO2
_chemical_formula_sum  K8Sn4O8
_cell_volume  436.302919364725
_cell_formula_units_Z  4
loop_
  _symmetry_equiv_pos_site_id
 _symmetry_equiv_pos_as_xyz
 1  'x, y, z'
loop_
 _atom_site_type_symbol
 _atom_site_label
 _atom_site_symmetry_multiplicity
 _atom_site_fract_x
 _atom_site_fract_y
 _atom_site_fract_z
 _atom_site_fract_occupancy
 K  K1  1  0.39048  0.42823  0.13574  1
 K  K2  1  0.93566  0.45383  0.17421  1
 K  K3  1  0.93068  0.93578  0.18548  1
 K  K4  1  0.24152  0.74276  0.50944  1
 K  K5  1  0.75848  0.25724  0.49056  1
 K  K6  1  0.06932  0.06422  0.81452  1
 K  K7  1  0.06434  0.54617  0.82579  1
 K  K8  1  0.60952  0.57177  0.86426  1
 O  O1  1  0.65922  0.48251  0.62590  1
 O  O2  1  0.19664  0.40068  0.64985  1
 O  O3  1  0.80336  0.59932  0.35015  1
 O  O4  1  0.34078  0.51749  0.37410  1
 O  O5  1  0.50477  0.80764  0.00928  1
 O  O6  1  0.93558  0.21512  0.98191  1
 O  O7  1  0.49523  0.19236  0.99072  1
 O  O8  1  0.06442  0.78488  0.01809  1
 Sn  Sn1  1  0.39794  0.94448  0.12793  1
 Sn  Sn2  1  0.69668  0.70863  0.47411  1
 Sn  Sn3  1  0.60206  0.05552  0.87207  1
 Sn  Sn4  1  0.30332  0.29137  0.52589  1
