CIF file written using JARVIS-Tools package.
data_BaCa2I6
_symmetry_space_group_name_H-M  'C2/c'
_cell_length_a       7.6634
_cell_length_b       12.7412
_cell_length_c       8.16827
_cell_angle_alpha    89.0898
_cell_angle_beta     90
_cell_angle_gamma    72.4983

_symmetry_Int_Tables_number  15
_chemical_formula_structural  BaCa2I6
_chemical_formula_sum  Ba2Ca4I2
_cell_volume  760.5284989225819
_cell_formula_units_Z  2
loop_
  _symmetry_equiv_pos_site_id
 _symmetry_equiv_pos_as_xyz
 1  'x, y, z'
loop_
 _atom_site_type_symbol
 _atom_site_label
 _atom_site_symmetry_multiplicity
 _atom_site_fract_x
 _atom_site_fract_y
 _atom_site_fract_z
 _atom_site_fract_occupancy
 Ba  Ba1  1  0.78096  -0.00000  0.75000  1
 Ba  Ba2  1  0.21904  0.00000  0.25000  1
 Ca  Ca1  1  0.40746  0.65880  0.84483  1
 Ca  Ca2  1  0.93375  0.65880  0.34483  1
 Ca  Ca3  1  0.06625  0.34120  0.65517  1
 Ca  Ca4  1  0.59254  0.34120  0.15517  1
 I  I1  1  0.47581  0.87221  0.91154  1
 I  I2  1  0.65197  0.87221  0.41154  1
 I  I3  1  0.34803  0.12779  0.58846  1
 I  I4  1  0.04017  0.78368  0.03920  1
 I  I5  1  0.17615  0.78368  0.53920  1
 I  I6  1  0.19656  0.42373  0.31846  1
 I  I7  1  0.37971  0.42373  0.81846  1
 I  I8  1  0.80344  0.57626  0.68154  1
 I  I9  1  0.95983  0.21632  0.96080  1
 I  I10  1  0.82385  0.21632  0.46080  1
 I  I11  1  0.62029  0.57626  0.18154  1
 I  I12  1  0.52419  0.12779  0.08846  1
