CIF file written using JARVIS-Tools package.
data_Ba3Zn5In2O11
_symmetry_space_group_name_H-M  'F-43m'
_cell_length_a       9.53519
_cell_length_b       9.53519
_cell_length_c       9.53519
_cell_angle_alpha    60
_cell_angle_beta     60
_cell_angle_gamma    60

_symmetry_Int_Tables_number  216
_chemical_formula_structural  Ba3Zn5In2O11
_chemical_formula_sum  Ba6Zn0In4O22
_cell_volume  613.0186363630144
_cell_formula_units_Z  2
loop_
  _symmetry_equiv_pos_site_id
 _symmetry_equiv_pos_as_xyz
 1  'x, y, z'
loop_
 _atom_site_type_symbol
 _atom_site_label
 _atom_site_symmetry_multiplicity
 _atom_site_fract_x
 _atom_site_fract_y
 _atom_site_fract_z
 _atom_site_fract_occupancy
 Ba  Ba1  1  0.29411  0.29411  0.70589  1
 Ba  Ba2  1  0.29411  0.70589  0.29411  1
 Ba  Ba3  1  0.70589  0.29411  0.29411  1
 Ba  Ba4  1  0.70589  0.70589  0.29411  1
 Ba  Ba5  1  0.29411  0.70589  0.70589  1
 Ba  Ba6  1  0.70589  0.29411  0.70589  1
 In  In1  1  0.49536  0.83488  0.83488  1
 In  In2  1  0.83488  0.49536  0.83488  1
 In  In3  1  0.83488  0.83488  0.49536  1
 In  In4  1  0.83488  0.83488  0.83488  1
 O  O1  1  0.50000  0.50000  0.50000  1
 O  O2  1  0.99752  0.67133  0.99752  1
 O  O3  1  0.99752  0.33363  0.99752  1
 O  O4  1  0.34239  0.97283  0.34239  1
 O  O5  1  0.66783  0.66783  0.66783  1
 O  O6  1  0.99752  0.99752  0.67133  1
 O  O7  1  0.00000  0.00000  0.00000  1
 O  O8  1  0.67133  0.99752  0.99752  1
 O  O9  1  0.33363  0.99752  0.99752  1
 O  O10  1  0.33363  0.99752  0.67133  1
 O  O11  1  0.34239  0.34239  0.34239  1
 O  O12  1  0.99752  0.67133  0.33363  1
 O  O13  1  0.67133  0.99752  0.33363  1
 O  O14  1  0.97283  0.34239  0.34239  1
 O  O15  1  0.33363  0.67133  0.99752  1
 O  O16  1  0.67133  0.33363  0.99752  1
 O  O17  1  0.34239  0.34239  0.97283  1
 O  O18  1  0.66783  0.66783  0.99652  1
 O  O19  1  0.66783  0.99652  0.66783  1
 O  O20  1  0.99752  0.33363  0.67133  1
 O  O21  1  0.99752  0.99752  0.33363  1
 O  O22  1  0.99652  0.66783  0.66783  1
 Zn  Zn1  1  0.08150  0.08150  0.41850  1
 Zn  Zn2  1  0.08296  0.08296  0.08296  1
 Zn  Zn3  1  0.08296  0.75111  0.08296  1
 Zn  Zn4  1  0.08296  0.08296  0.75111  1
 Zn  Zn5  1  0.41850  0.41850  0.08150  1
 Zn  Zn6  1  0.08150  0.41850  0.08150  1
 Zn  Zn7  1  0.08150  0.41850  0.41850  1
 Zn  Zn8  1  0.41850  0.08150  0.41850  1
 Zn  Zn9  1  0.75111  0.08296  0.08296  1
 Zn  Zn10  1  0.41850  0.08150  0.08150  1
