CIF file written using JARVIS-Tools package.
data_Rb3CO3F
_symmetry_space_group_name_H-M  'R-3c'
_cell_length_a       7.22558
_cell_length_b       7.22558
_cell_length_c       7.22559
_cell_angle_alpha    65.6027
_cell_angle_beta     65.6027
_cell_angle_gamma    65.6027

_symmetry_Int_Tables_number  167
_chemical_formula_structural  Rb3CO3F
_chemical_formula_sum  Rb6C2O6F2
_cell_volume  299.2102544317165
_cell_formula_units_Z  2
loop_
  _symmetry_equiv_pos_site_id
 _symmetry_equiv_pos_as_xyz
 1  'x, y, z'
loop_
 _atom_site_type_symbol
 _atom_site_label
 _atom_site_symmetry_multiplicity
 _atom_site_fract_x
 _atom_site_fract_y
 _atom_site_fract_z
 _atom_site_fract_occupancy
 C  C1  1  0.75000  0.75000  0.75000  1
 C  C2  1  0.25000  0.25000  0.25000  1
 F  F1  1  0.50000  0.50000  0.50000  1
 F  F2  1  0.00000  0.00000  0.00000  1
 O  O1  1  0.25000  0.41703  0.08297  1
 O  O2  1  0.41703  0.08297  0.25000  1
 O  O3  1  0.08297  0.25000  0.41703  1
 O  O4  1  0.75000  0.58297  0.91703  1
 O  O5  1  0.91703  0.75000  0.58297  1
 O  O6  1  0.58297  0.91703  0.75000  1
 Rb  Rb1  1  0.25000  0.82061  0.67939  1
 Rb  Rb2  1  0.82061  0.67939  0.25000  1
 Rb  Rb3  1  0.67939  0.25000  0.82061  1
 Rb  Rb4  1  0.75000  0.17939  0.32061  1
 Rb  Rb5  1  0.17939  0.32061  0.75000  1
 Rb  Rb6  1  0.32061  0.75000  0.17939  1
