CIF file written using JARVIS-Tools package.
data_DyMgPd
_symmetry_space_group_name_H-M  'P-62m'
_cell_length_a       4.02349
_cell_length_b       7.43828
_cell_length_c       7.43823
_cell_angle_alpha    120
_cell_angle_beta     90
_cell_angle_gamma    90

_symmetry_Int_Tables_number  189
_chemical_formula_structural  DyMgPd
_chemical_formula_sum  Dy3Mg3Pd3
_cell_volume  192.78535595304322
_cell_formula_units_Z  3
loop_
  _symmetry_equiv_pos_site_id
 _symmetry_equiv_pos_as_xyz
 1  'x, y, z'
loop_
 _atom_site_type_symbol
 _atom_site_label
 _atom_site_symmetry_multiplicity
 _atom_site_fract_x
 _atom_site_fract_y
 _atom_site_fract_z
 _atom_site_fract_occupancy
 Dy  Dy1  1  0.50000  0.58773  0.00000  1
 Dy  Dy2  1  0.50000  0.41225  0.41227  1
 Dy  Dy3  1  0.50000  0.99998  0.58773  1
 Mg  Mg1  1  0.00000  0.24513  0.00000  1
 Mg  Mg2  1  0.00000  0.75485  0.75486  1
 Mg  Mg3  1  0.00000  0.99999  0.24514  1
 Pd  Pd1  1  0.00000  0.33332  0.66667  1
 Pd  Pd2  1  0.00000  0.66666  0.33333  1
 Pd  Pd3  1  0.50000  -0.00000  -0.00000  1
