CIF file written using JARVIS-Tools package.
data_YbCrSb3
_symmetry_space_group_name_H-M  'Pbcm'
_cell_length_a       6.06638
_cell_length_b       6.1861
_cell_length_c       13.0585
_cell_angle_alpha    90
_cell_angle_beta     90
_cell_angle_gamma    90

_symmetry_Int_Tables_number  57
_chemical_formula_structural  YbCrSb3
_chemical_formula_sum  Yb4Cr4Sb2
_cell_volume  490.04941663359233
_cell_formula_units_Z  4
loop_
  _symmetry_equiv_pos_site_id
 _symmetry_equiv_pos_as_xyz
 1  'x, y, z'
loop_
 _atom_site_type_symbol
 _atom_site_label
 _atom_site_symmetry_multiplicity
 _atom_site_fract_x
 _atom_site_fract_y
 _atom_site_fract_z
 _atom_site_fract_occupancy
 Cr  Cr1  1  0.50000  0.75000  0.09588  1
 Cr  Cr2  1  0.00000  0.75000  0.09588  1
 Cr  Cr3  1  0.50000  0.25000  0.90412  1
 Cr  Cr4  1  0.00000  0.25000  0.90412  1
 Sb  Sb1  1  0.00000  0.25000  0.50288  1
 Sb  Sb2  1  0.25000  0.00002  0.78196  1
 Sb  Sb3  1  0.75000  -0.00002  0.21804  1
 Sb  Sb4  1  0.25000  0.50002  0.21804  1
 Sb  Sb5  1  0.75000  0.49998  0.78196  1
 Sb  Sb6  1  0.25000  0.60705  0.93535  1
 Sb  Sb7  1  0.75000  0.39295  0.06465  1
 Sb  Sb8  1  0.25000  0.10705  0.06465  1
 Sb  Sb9  1  0.50000  0.75000  0.49712  1
 Sb  Sb10  1  0.00000  0.75000  0.49712  1
 Sb  Sb11  1  0.50000  0.25000  0.50288  1
 Sb  Sb12  1  0.75000  0.89295  0.93535  1
 Yb  Yb1  1  0.25000  0.00428  0.30896  1
 Yb  Yb2  1  0.25000  0.50428  0.69104  1
 Yb  Yb3  1  0.75000  0.49572  0.30896  1
 Yb  Yb4  1  0.75000  0.99572  0.69104  1
