CIF file written using JARVIS-Tools package.
data_V3OF7
_symmetry_space_group_name_H-M  'Cmcm'
_cell_length_a       3.93916
_cell_length_b       9.85059
_cell_length_c       7.79586
_cell_angle_alpha    90
_cell_angle_beta     104.632
_cell_angle_gamma    90

_symmetry_Int_Tables_number  63
_chemical_formula_structural  V3OF7
_chemical_formula_sum  V6O2F4
_cell_volume  292.69231476308465
_cell_formula_units_Z  2
loop_
  _symmetry_equiv_pos_site_id
 _symmetry_equiv_pos_as_xyz
 1  'x, y, z'
loop_
 _atom_site_type_symbol
 _atom_site_label
 _atom_site_symmetry_multiplicity
 _atom_site_fract_x
 _atom_site_fract_y
 _atom_site_fract_z
 _atom_site_fract_occupancy
 F  F1  1  0.64533  0.86698  0.27237  1
 F  F2  1  0.96981  0.50000  0.92204  1
 F  F3  1  0.45656  0.86285  0.89484  1
 F  F4  1  0.56127  0.63715  0.10515  1
 F  F5  1  0.37274  0.36698  0.72763  1
 F  F6  1  0.37274  0.63302  0.72763  1
 F  F7  1  0.45656  0.13715  0.89484  1
 F  F8  1  0.81193  0.78486  0.60577  1
 F  F9  1  0.20618  0.28486  0.39423  1
 F  F10  1  0.20618  0.71514  0.39423  1
 F  F11  1  0.04814  0.00000  0.07796  1
 F  F12  1  0.64533  0.13302  0.27237  1
 F  F13  1  0.56127  0.36285  0.10515  1
 F  F14  1  0.81193  0.21514  0.60577  1
 O  O1  1  0.71624  0.50000  0.41427  1
 O  O2  1  0.30194  0.00000  0.58573  1
 V  V1  1  0.55035  0.00000  0.08238  1
 V  V2  1  0.68794  0.67617  0.35775  1
 V  V3  1  0.68794  0.32383  0.35775  1
 V  V4  1  0.33018  0.17616  0.64226  1
 V  V5  1  0.33018  0.82384  0.64226  1
 V  V6  1  0.46761  0.50000  0.91762  1
