CIF file written using JARVIS-Tools package.
data_Ca3Mn2O7
_symmetry_space_group_name_H-M  'Cmcm'
_cell_length_a       5.37082
_cell_length_b       5.25747
_cell_length_c       9.917
_cell_angle_alpha    90
_cell_angle_beta     105.711
_cell_angle_gamma    90

_symmetry_Int_Tables_number  63
_chemical_formula_structural  Ca3Mn2O7
_chemical_formula_sum  Ca6Mn4O4
_cell_volume  269.56377614715694
_cell_formula_units_Z  2
loop_
  _symmetry_equiv_pos_site_id
 _symmetry_equiv_pos_as_xyz
 1  'x, y, z'
loop_
 _atom_site_type_symbol
 _atom_site_label
 _atom_site_symmetry_multiplicity
 _atom_site_fract_x
 _atom_site_fract_y
 _atom_site_fract_z
 _atom_site_fract_occupancy
 Ca  Ca1  1  0.55316  0.75000  0.62930  1
 Ca  Ca2  1  0.92385  0.75000  0.37070  1
 Ca  Ca3  1  0.07615  0.25000  0.62930  1
 Ca  Ca4  1  0.44684  0.25000  0.37070  1
 Ca  Ca5  1  0.74438  0.75000  0.00000  1
 Ca  Ca6  1  0.25562  0.25000  -0.00000  1
 Mn  Mn1  1  0.15021  0.75000  0.80256  1
 Mn  Mn2  1  0.84979  0.25000  0.19744  1
 Mn  Mn3  1  0.65235  0.25000  0.80256  1
 Mn  Mn4  1  0.34765  0.75000  0.19744  1
 O  O1  1  0.50187  0.75000  0.39324  1
 O  O2  1  0.89137  0.25000  0.39324  1
 O  O3  1  0.49813  0.25000  0.60676  1
 O  O4  1  0.41724  0.50000  0.83448  1
 O  O5  1  0.58276  0.00000  0.16552  1
 O  O6  1  0.58276  0.50000  0.16552  1
 O  O7  1  0.88665  0.00000  0.77330  1
 O  O8  1  0.88665  0.50000  0.77330  1
 O  O9  1  0.11335  0.00000  0.22670  1
 O  O10  1  0.10863  0.75000  0.60676  1
 O  O11  1  0.82602  0.25000  -0.00000  1
 O  O12  1  0.11335  0.50000  0.22670  1
 O  O13  1  0.41724  0.00000  0.83448  1
 O  O14  1  0.17398  0.75000  0.00000  1
