CIF file written using JARVIS-Tools package.
data_MnTl3
_symmetry_space_group_name_H-M  'P6_3/mmc'
_cell_length_a       6.69767
_cell_length_b       6.69767
_cell_length_c       5.33616
_cell_angle_alpha    90
_cell_angle_beta     90
_cell_angle_gamma    120

_symmetry_Int_Tables_number  194
_chemical_formula_structural  MnTl3
_chemical_formula_sum  Mn2Tl6
_cell_volume  207.30376654160264
_cell_formula_units_Z  2
loop_
  _symmetry_equiv_pos_site_id
 _symmetry_equiv_pos_as_xyz
 1  'x, y, z'
loop_
 _atom_site_type_symbol
 _atom_site_label
 _atom_site_symmetry_multiplicity
 _atom_site_fract_x
 _atom_site_fract_y
 _atom_site_fract_z
 _atom_site_fract_occupancy
 Mn  Mn1  1  0.33333  0.66667  0.75000  1
 Mn  Mn2  1  0.66667  0.33333  0.25000  1
 Tl  Tl1  1  0.65706  0.82853  0.25000  1
 Tl  Tl2  1  0.17147  0.82853  0.25000  1
 Tl  Tl3  1  0.17147  0.34294  0.25000  1
 Tl  Tl4  1  0.34294  0.17147  0.75000  1
 Tl  Tl5  1  0.82853  0.17147  0.75000  1
 Tl  Tl6  1  0.82853  0.65706  0.75000  1
