CIF file written using JARVIS-Tools package.
data_Na
_symmetry_space_group_name_H-M  'Pnma'
_cell_length_a       3.62749
_cell_length_b       9.17311
_cell_length_c       9.13493
_cell_angle_alpha    90
_cell_angle_beta     90
_cell_angle_gamma    90

_symmetry_Int_Tables_number  62
_chemical_formula_structural  Na
_chemical_formula_sum  Na8
_cell_volume  303.9683735477061
_cell_formula_units_Z  8
loop_
  _symmetry_equiv_pos_site_id
 _symmetry_equiv_pos_as_xyz
 1  'x, y, z'
loop_
 _atom_site_type_symbol
 _atom_site_label
 _atom_site_symmetry_multiplicity
 _atom_site_fract_x
 _atom_site_fract_y
 _atom_site_fract_z
 _atom_site_fract_occupancy
 Na  Na1  1  0.75000  0.32121  0.02458  1
 Na  Na2  1  0.75000  0.82121  0.47542  1
 Na  Na3  1  0.25000  0.67879  0.97542  1
 Na  Na4  1  0.25000  0.17879  0.52458  1
 Na  Na5  1  0.75000  0.49284  0.67884  1
 Na  Na6  1  0.75000  0.99284  0.82116  1
 Na  Na7  1  0.25000  0.50716  0.32116  1
 Na  Na8  1  0.25000  0.00716  0.17884  1
