CIF file written using JARVIS-Tools package.
data_KNa2AlH6
_symmetry_space_group_name_H-M  'P2_1'
_cell_length_a       6.6876
_cell_length_b       4.58717
_cell_length_c       11.067
_cell_angle_alpha    90
_cell_angle_beta     86.1784
_cell_angle_gamma    90

_symmetry_Int_Tables_number  4
_chemical_formula_structural  KNa2AlH6
_chemical_formula_sum  K2Na4Al2H2
_cell_volume  338.7499438374194
_cell_formula_units_Z  2
loop_
  _symmetry_equiv_pos_site_id
 _symmetry_equiv_pos_as_xyz
 1  'x, y, z'
loop_
 _atom_site_type_symbol
 _atom_site_label
 _atom_site_symmetry_multiplicity
 _atom_site_fract_x
 _atom_site_fract_y
 _atom_site_fract_z
 _atom_site_fract_occupancy
 Al  Al1  1  0.09729  0.43329  0.99386  1
 Al  Al2  1  0.90271  0.93329  0.00614  1
 H  H1  1  0.64088  0.35316  0.68130  1
 H  H2  1  0.37729  0.18678  0.47908  1
 H  H3  1  0.35912  0.85316  0.31870  1
 H  H4  1  0.58617  0.76569  0.46625  1
 H  H5  1  0.72061  0.90027  0.91136  1
 H  H6  1  0.21660  0.43130  0.85563  1
 H  H7  1  0.41383  0.26569  0.53375  1
 H  H8  1  0.78340  0.93130  0.14437  1
 H  H9  1  0.27939  0.40027  0.08864  1
 H  H10  1  0.62271  0.68678  0.52092  1
 H  H11  1  0.95178  0.31029  0.37507  1
 H  H12  1  0.04822  0.81029  0.62493  1
 K  K1  1  0.38861  0.93648  0.79053  1
 K  K2  1  0.61139  0.43648  0.20947  1
 Na  Na1  1  0.82807  0.12011  0.54573  1
 Na  Na2  1  0.12128  0.05262  0.22600  1
 Na  Na3  1  0.17193  0.62011  0.45427  1
 Na  Na4  1  0.87872  0.55262  0.77400  1
