CIF file written using JARVIS-Tools package.
data_Fe8O9
_symmetry_space_group_name_H-M  'P-1'
_cell_length_a       5.21056
_cell_length_b       5.21499
_cell_length_c       6.7195
_cell_angle_alpha    82.3525
_cell_angle_beta     75.0011
_cell_angle_gamma    79.98

_symmetry_Int_Tables_number  2
_chemical_formula_structural  Fe8O9
_chemical_formula_sum  Fe8O9
_cell_volume  172.93204872016827
_cell_formula_units_Z  1
loop_
  _symmetry_equiv_pos_site_id
 _symmetry_equiv_pos_as_xyz
 1  'x, y, z'
loop_
 _atom_site_type_symbol
 _atom_site_label
 _atom_site_symmetry_multiplicity
 _atom_site_fract_x
 _atom_site_fract_y
 _atom_site_fract_z
 _atom_site_fract_occupancy
 Fe  Fe1  1  0.89629  0.78669  0.42418  1
 Fe  Fe2  1  0.44170  0.89723  0.20572  1
 Fe  Fe3  1  0.79504  0.54912  0.89221  1
 Fe  Fe4  1  0.32272  0.68164  0.67435  1
 Fe  Fe5  1  0.20496  0.45088  0.10779  1
 Fe  Fe6  1  0.67728  0.31836  0.32565  1
 Fe  Fe7  1  0.55830  0.10277  0.79428  1
 Fe  Fe8  1  0.10371  0.21331  0.57582  1
 O  O1  1  0.18228  0.33902  0.82721  1
 O  O2  1  0.93492  0.87965  0.70974  1
 O  O3  1  0.72093  0.44423  0.60922  1
 O  O4  1  0.06508  0.12035  0.29026  1
 O  O5  1  0.27907  0.55577  0.39078  1
 O  O6  1  0.59698  0.23589  0.05846  1
 O  O7  1  0.40302  0.76411  0.94154  1
 O  O8  1  0.81772  0.66098  0.17279  1
 O  O9  1  0.50000  0.00000  0.50000  1
