CIF file written using JARVIS-Tools package.
data_FeOF
_symmetry_space_group_name_H-M  'P2/m'
_cell_length_a       4.65691
_cell_length_b       2.99535
_cell_length_c       9.31984
_cell_angle_alpha    90
_cell_angle_beta     90.3804
_cell_angle_gamma    90

_symmetry_Int_Tables_number  10
_chemical_formula_structural  FeOF
_chemical_formula_sum  Fe4O4F4
_cell_volume  130.00036700615874
_cell_formula_units_Z  4
loop_
  _symmetry_equiv_pos_site_id
 _symmetry_equiv_pos_as_xyz
 1  'x, y, z'
loop_
 _atom_site_type_symbol
 _atom_site_label
 _atom_site_symmetry_multiplicity
 _atom_site_fract_x
 _atom_site_fract_y
 _atom_site_fract_z
 _atom_site_fract_occupancy
 F  F1  1  0.78124  0.50000  0.60363  1
 F  F2  1  0.68485  0.00000  0.84203  1
 F  F3  1  0.31515  0.00000  0.15797  1
 F  F4  1  0.21876  0.50000  0.39637  1
 Fe  Fe1  1  0.00000  0.00000  0.00000  1
 Fe  Fe2  1  -0.00000  0.00000  0.50000  1
 Fe  Fe3  1  0.42424  0.50000  0.74810  1
 Fe  Fe4  1  0.57576  0.50000  0.25190  1
 O  O1  1  0.80827  0.50000  0.09512  1
 O  O2  1  0.72504  0.00000  0.35467  1
 O  O3  1  0.27496  0.00000  0.64533  1
 O  O4  1  0.19173  0.50000  0.90488  1
