CIF file written using JARVIS-Tools package.
data_Al2O3
_symmetry_space_group_name_H-M  'R-3c'
_cell_length_a       5.17219
_cell_length_b       5.17218
_cell_length_c       5.17218
_cell_angle_alpha    55.3373
_cell_angle_beta     55.3374
_cell_angle_gamma    55.3373

_symmetry_Int_Tables_number  167
_chemical_formula_structural  Al2O3
_chemical_formula_sum  Al4O6
_cell_volume  87.23873326976242
_cell_formula_units_Z  2
loop_
  _symmetry_equiv_pos_site_id
 _symmetry_equiv_pos_as_xyz
 1  'x, y, z'
loop_
 _atom_site_type_symbol
 _atom_site_label
 _atom_site_symmetry_multiplicity
 _atom_site_fract_x
 _atom_site_fract_y
 _atom_site_fract_z
 _atom_site_fract_occupancy
 Al  Al1  1  0.64774  0.64774  0.64774  1
 Al  Al2  1  0.85226  0.85226  0.85226  1
 Al  Al3  1  0.14774  0.14774  0.14774  1
 Al  Al4  1  0.35226  0.35226  0.35226  1
 O  O1  1  0.44393  0.05607  0.75000  1
 O  O2  1  0.94393  0.25000  0.55607  1
 O  O3  1  0.05607  0.75000  0.44393  1
 O  O4  1  0.75000  0.44393  0.05607  1
 O  O5  1  0.25000  0.55607  0.94393  1
 O  O6  1  0.55607  0.94393  0.25000  1
