CIF file written using JARVIS-Tools package.
data_Ca2CdSb2
_symmetry_space_group_name_H-M  'Pnma'
_cell_length_a       4.62367
_cell_length_b       7.25425
_cell_length_c       17.5883
_cell_angle_alpha    90
_cell_angle_beta     90
_cell_angle_gamma    90

_symmetry_Int_Tables_number  62
_chemical_formula_structural  Ca2CdSb2
_chemical_formula_sum  Ca8Cd4Sb8
_cell_volume  589.9321501080248
_cell_formula_units_Z  4
loop_
  _symmetry_equiv_pos_site_id
 _symmetry_equiv_pos_as_xyz
 1  'x, y, z'
loop_
 _atom_site_type_symbol
 _atom_site_label
 _atom_site_symmetry_multiplicity
 _atom_site_fract_x
 _atom_site_fract_y
 _atom_site_fract_z
 _atom_site_fract_occupancy
 Ca  Ca1  1  0.75000  0.27744  0.94586  1
 Ca  Ca2  1  0.25000  0.22256  0.44586  1
 Ca  Ca3  1  0.25000  0.03731  0.22732  1
 Ca  Ca4  1  0.75000  0.46269  0.72732  1
 Ca  Ca5  1  0.75000  0.77744  0.55414  1
 Ca  Ca6  1  0.25000  0.72256  0.05414  1
 Ca  Ca7  1  0.75000  0.96269  0.77268  1
 Ca  Ca8  1  0.25000  0.53731  0.27268  1
 Cd  Cd1  1  0.25000  0.13775  0.64998  1
 Cd  Cd2  1  0.75000  0.36225  0.14998  1
 Cd  Cd3  1  0.75000  0.86225  0.35002  1
 Cd  Cd4  1  0.25000  0.63775  0.85002  1
 Sb  Sb1  1  0.75000  0.75793  0.18295  1
 Sb  Sb2  1  0.25000  0.24207  0.81705  1
 Sb  Sb3  1  0.25000  0.74207  0.68295  1
 Sb  Sb4  1  0.75000  0.26296  0.56905  1
 Sb  Sb5  1  0.75000  0.25793  0.31705  1
 Sb  Sb6  1  0.25000  0.73704  0.43095  1
 Sb  Sb7  1  0.75000  0.76296  0.93095  1
 Sb  Sb8  1  0.25000  0.23704  0.06905  1
