CIF file written using JARVIS-Tools package.
data_K11LiMn4O16
_symmetry_space_group_name_H-M  'I-42m'
_cell_length_a       7.90317
_cell_length_b       7.90316
_cell_length_c       10.2496
_cell_angle_alpha    112.677
_cell_angle_beta     112.677
_cell_angle_gamma    90

_symmetry_Int_Tables_number  121
_chemical_formula_structural  K11LiMn4O16
_chemical_formula_sum  KLiMn4O6
_cell_volume  536.6606301012804
_cell_formula_units_Z  1
loop_
  _symmetry_equiv_pos_site_id
 _symmetry_equiv_pos_as_xyz
 1  'x, y, z'
loop_
 _atom_site_type_symbol
 _atom_site_label
 _atom_site_symmetry_multiplicity
 _atom_site_fract_x
 _atom_site_fract_y
 _atom_site_fract_z
 _atom_site_fract_occupancy
 K  K1  1  0.28667  0.28667  0.57334  1
 K  K2  1  0.50000  0.00000  0.00000  1
 K  K3  1  0.25000  0.75000  0.50000  1
 K  K4  1  0.92611  0.92611  0.24419  1
 K  K5  1  0.07389  0.68192  0.75581  1
 K  K6  1  0.71333  0.71333  0.42666  1
 K  K7  1  -0.00000  0.50000  0.00000  1
 K  K8  1  0.68192  0.07389  0.75581  1
 K  K9  1  0.31808  0.31808  0.24419  1
 K  K10  1  0.75000  0.25000  0.50000  1
 K  K11  1  0.50000  0.50000  0.00000  1
 Li  Li1  1  0.00000  0.00000  0.00000  1
 Mn  Mn1  1  0.86616  0.38489  0.25105  1
 Mn  Mn2  1  0.13384  0.13384  0.74895  1
 Mn  Mn3  1  0.61511  0.61511  0.74895  1
 Mn  Mn4  1  0.38489  0.86616  0.25105  1
 O  O1  1  0.11087  0.35812  0.77479  1
 O  O2  1  0.43257  0.00825  0.44082  1
 O  O3  1  0.79658  0.79658  0.87761  1
 O  O4  1  0.64188  0.33609  0.22521  1
 O  O5  1  0.33609  0.64188  0.22521  1
 O  O6  1  0.00825  0.43257  0.44082  1
 O  O7  1  0.35812  0.11087  0.77479  1
 O  O8  1  0.20342  0.91897  0.12239  1
 O  O9  1  0.08103  0.08103  0.87761  1
 O  O10  1  0.66392  0.41666  0.77479  1
 O  O11  1  0.99175  0.99175  0.55918  1
 O  O12  1  0.88913  0.58334  0.22521  1
 O  O13  1  0.91897  0.20342  0.12239  1
 O  O14  1  0.58334  0.88913  0.22521  1
 O  O15  1  0.56743  0.56743  0.55918  1
 O  O16  1  0.41666  0.66392  0.77479  1
