CIF file written using JARVIS-Tools package.
data_Sr8Fe3N8
_symmetry_space_group_name_H-M  'C2/m'
_cell_length_a       5.3309
_cell_length_b       7.43163
_cell_length_c       9.69385
_cell_angle_alpha    104.966
_cell_angle_beta     105.96
_cell_angle_gamma    89.9998

_symmetry_Int_Tables_number  12
_chemical_formula_structural  Sr8Fe3N8
_chemical_formula_sum  Sr8Fe3N8
_cell_volume  355.67081643978213
_cell_formula_units_Z  1
loop_
  _symmetry_equiv_pos_site_id
 _symmetry_equiv_pos_as_xyz
 1  'x, y, z'
loop_
 _atom_site_type_symbol
 _atom_site_label
 _atom_site_symmetry_multiplicity
 _atom_site_fract_x
 _atom_site_fract_y
 _atom_site_fract_z
 _atom_site_fract_occupancy
 Fe  Fe1  1  0.50000  0.50000  0.00000  1
 Fe  Fe2  1  0.81237  0.79429  0.62473  1
 Fe  Fe3  1  0.18763  0.20571  0.37527  1
 N  N1  1  0.72390  0.83224  0.44779  1
 N  N2  1  0.89241  0.98494  0.78482  1
 N  N3  1  0.10759  0.01506  0.21518  1
 N  N4  1  0.52667  0.27906  0.05335  1
 N  N5  1  0.47333  0.72094  0.94665  1
 N  N6  1  0.27610  0.16776  0.55221  1
 N  N7  1  0.17866  0.43149  0.35733  1
 N  N8  1  0.82134  0.56851  0.64267  1
 Sr  Sr1  1  0.19990  0.80524  0.39980  1
 Sr  Sr2  1  0.97124  0.73588  0.94247  1
 Sr  Sr3  1  0.59524  0.96732  0.19048  1
 Sr  Sr4  1  0.33336  0.53067  0.66672  1
 Sr  Sr5  1  0.66664  0.46933  0.33328  1
 Sr  Sr6  1  0.40476  0.03268  0.80952  1
 Sr  Sr7  1  0.80010  0.19476  0.60020  1
 Sr  Sr8  1  0.02876  0.26412  0.05753  1
