CIF file written using JARVIS-Tools package.
data_CeMg2H7
_symmetry_space_group_name_H-M  'P4_12_12'
_cell_length_a       6.26432
_cell_length_b       6.26432
_cell_length_c       9.40302
_cell_angle_alpha    90
_cell_angle_beta     90
_cell_angle_gamma    90

_symmetry_Int_Tables_number  92
_chemical_formula_structural  CeMg2H7
_chemical_formula_sum  Ce4Mg8H28
_cell_volume  368.99081744806745
_cell_formula_units_Z  4
loop_
  _symmetry_equiv_pos_site_id
 _symmetry_equiv_pos_as_xyz
 1  'x, y, z'
loop_
 _atom_site_type_symbol
 _atom_site_label
 _atom_site_symmetry_multiplicity
 _atom_site_fract_x
 _atom_site_fract_y
 _atom_site_fract_z
 _atom_site_fract_occupancy
 Ce  Ce1  1  0.76914  0.23086  0.75000  1
 Ce  Ce2  1  0.23086  0.76914  0.25000  1
 Ce  Ce3  1  0.73086  0.73086  0.50000  1
 Ce  Ce4  1  0.26914  0.26914  0.00000  1
 H  H1  1  0.65924  0.19556  0.00328  1
 H  H2  1  0.06453  0.57300  0.42878  1
 H  H3  1  0.03529  0.02824  0.12709  1
 H  H4  1  0.43547  0.07300  0.82122  1
 H  H5  1  0.56453  0.92700  0.32122  1
 H  H6  1  0.42700  0.93547  0.07122  1
 H  H7  1  0.57300  0.06453  0.57122  1
 H  H8  1  0.96471  0.97176  0.62709  1
 H  H9  1  0.92700  0.56453  0.67878  1
 H  H10  1  0.47176  0.53529  0.37709  1
 H  H11  1  0.52824  0.46471  0.87709  1
 H  H12  1  0.02824  0.03529  0.87291  1
 H  H13  1  0.97176  0.96471  0.37291  1
 H  H14  1  0.46471  0.52824  0.12291  1
 H  H15  1  0.53529  0.47176  0.62291  1
 H  H16  1  0.24422  0.24422  0.50000  1
 H  H17  1  0.25578  0.74422  0.75000  1
 H  H18  1  0.69556  0.84076  0.75328  1
 H  H19  1  0.93547  0.42700  0.92878  1
 H  H20  1  0.30444  0.15924  0.25328  1
 H  H21  1  0.84076  0.69556  0.24672  1
 H  H22  1  0.07300  0.43547  0.17878  1
 H  H23  1  0.80444  0.34076  0.49672  1
 H  H24  1  0.75578  0.75578  0.00000  1
 H  H25  1  0.15924  0.30444  0.74672  1
 H  H26  1  0.74422  0.25578  0.25000  1
 H  H27  1  0.34076  0.80444  0.50328  1
 H  H28  1  0.19556  0.65924  0.99672  1
 Mg  Mg1  1  0.52599  0.23788  0.39785  1
 Mg  Mg2  1  0.47401  0.76212  0.89785  1
 Mg  Mg3  1  0.73788  0.97401  0.14785  1
 Mg  Mg4  1  0.76212  0.47401  0.10215  1
 Mg  Mg5  1  0.23788  0.52599  0.60215  1
 Mg  Mg6  1  0.97401  0.73788  0.85215  1
 Mg  Mg7  1  0.02599  0.26212  0.35215  1
 Mg  Mg8  1  0.26212  0.02599  0.64785  1
