CIF file written using JARVIS-Tools package.
data_PrCo9Si4
_symmetry_space_group_name_H-M  'I4/mcm'
_cell_length_a       7.74492
_cell_length_b       7.74491
_cell_length_c       7.92063
_cell_angle_alpha    119.269
_cell_angle_beta     119.269
_cell_angle_gamma    90

_symmetry_Int_Tables_number  140
_chemical_formula_structural  PrCo9Si4
_chemical_formula_sum  Pr2Co8Si8
_cell_volume  343.2442649548788
_cell_formula_units_Z  2
loop_
  _symmetry_equiv_pos_site_id
 _symmetry_equiv_pos_as_xyz
 1  'x, y, z'
loop_
 _atom_site_type_symbol
 _atom_site_label
 _atom_site_symmetry_multiplicity
 _atom_site_fract_x
 _atom_site_fract_y
 _atom_site_fract_z
 _atom_site_fract_occupancy
 Co  Co1  1  0.07082  0.80011  -0.00000  1
 Co  Co2  1  0.05045  0.55045  0.35965  1
 Co  Co3  1  0.92918  0.19989  0.00000  1
 Co  Co4  1  0.44955  0.69079  0.64035  1
 Co  Co5  1  0.69989  0.42918  -0.00000  1
 Co  Co6  1  0.30011  0.57082  0.00000  1
 Co  Co7  1  0.57082  0.69989  -0.00000  1
 Co  Co8  1  0.42918  0.30011  0.00000  1
 Co  Co9  1  0.80011  0.92918  -0.00000  1
 Co  Co10  1  0.55045  0.30921  0.35965  1
 Co  Co11  1  0.30921  0.80921  0.35965  1
 Co  Co12  1  0.50000  0.00000  -0.00000  1
 Co  Co13  1  -0.00000  0.50000  -0.00000  1
 Co  Co14  1  0.19989  0.07082  -0.00000  1
 Co  Co15  1  0.80921  0.05045  0.35965  1
 Co  Co16  1  0.19079  0.94955  0.64035  1
 Co  Co17  1  0.69079  0.19079  0.64035  1
 Co  Co18  1  0.94955  0.44955  0.64035  1
 Pr  Pr1  1  0.25000  0.25000  0.50000  1
 Pr  Pr2  1  0.75000  0.75000  0.50000  1
 Si  Si1  1  0.04751  0.20943  0.75694  1
 Si  Si2  1  0.20943  0.70943  0.75694  1
 Si  Si3  1  0.45249  0.95249  0.24306  1
 Si  Si4  1  0.29057  0.45249  0.24306  1
 Si  Si5  1  0.95249  0.79057  0.24306  1
 Si  Si6  1  0.70943  0.54751  0.75694  1
 Si  Si7  1  0.54751  0.04751  0.75694  1
 Si  Si8  1  0.79057  0.29057  0.24306  1
