CIF file written using JARVIS-Tools package.
data_Zr2Cu
_symmetry_space_group_name_H-M  'Fd-3m'
_cell_length_a       8.66816
_cell_length_b       8.66817
_cell_length_c       8.66816
_cell_angle_alpha    60
_cell_angle_beta     60
_cell_angle_gamma    60

_symmetry_Int_Tables_number  227
_chemical_formula_structural  Zr2Cu
_chemical_formula_sum  Zr6Cu8
_cell_volume  460.5388608442534
_cell_formula_units_Z  8
loop_
  _symmetry_equiv_pos_site_id
 _symmetry_equiv_pos_as_xyz
 1  'x, y, z'
loop_
 _atom_site_type_symbol
 _atom_site_label
 _atom_site_symmetry_multiplicity
 _atom_site_fract_x
 _atom_site_fract_y
 _atom_site_fract_z
 _atom_site_fract_occupancy
 Cu  Cu1  1  0.70941  0.70941  0.70941  1
 Cu  Cu2  1  0.62822  0.29059  0.29059  1
 Cu  Cu3  1  0.29059  0.29059  0.62822  1
 Cu  Cu4  1  0.29059  0.29059  0.29059  1
 Cu  Cu5  1  0.37178  0.70941  0.70941  1
 Cu  Cu6  1  0.70941  0.70941  0.37178  1
 Cu  Cu7  1  0.70941  0.37178  0.70941  1
 Cu  Cu8  1  0.29059  0.62822  0.29059  1
 Zr  Zr1  1  0.50000  0.50000  0.50000  1
 Zr  Zr2  1  0.94028  0.30972  0.30972  1
 Zr  Zr3  1  0.69028  0.69028  0.05972  1
 Zr  Zr4  1  0.69028  0.05972  0.69028  1
 Zr  Zr5  1  0.94028  0.94028  0.30972  1
 Zr  Zr6  1  0.30972  0.30972  0.94028  1
 Zr  Zr7  1  0.69028  0.05972  0.05972  1
 Zr  Zr8  1  0.30972  0.94028  0.30972  1
 Zr  Zr9  1  0.05972  0.69028  0.69028  1
 Zr  Zr10  1  0.30972  0.94028  0.94028  1
 Zr  Zr11  1  0.05972  0.69028  0.05972  1
 Zr  Zr12  1  -0.00000  0.50000  0.50000  1
 Zr  Zr13  1  0.50000  0.00000  0.50000  1
 Zr  Zr14  1  0.50000  0.50000  0.00000  1
 Zr  Zr15  1  0.94028  0.30972  0.94028  1
 Zr  Zr16  1  0.05972  0.05972  0.69028  1
