CIF file written using JARVIS-Tools package.
data_AlFeF5
_symmetry_space_group_name_H-M  'Immm'
_cell_length_a       3.49231
_cell_length_b       5.10604
_cell_length_c       5.10604
_cell_angle_alpha    73.4143
_cell_angle_beta     70.0025
_cell_angle_gamma    70.0025

_symmetry_Int_Tables_number  71
_chemical_formula_structural  AlFeF5
_chemical_formula_sum  AlFeF5
_cell_volume  78.92441552855237
_cell_formula_units_Z  1
loop_
  _symmetry_equiv_pos_site_id
 _symmetry_equiv_pos_as_xyz
 1  'x, y, z'
loop_
 _atom_site_type_symbol
 _atom_site_label
 _atom_site_symmetry_multiplicity
 _atom_site_fract_x
 _atom_site_fract_y
 _atom_site_fract_z
 _atom_site_fract_occupancy
 Al  Al1  1  0.50000  0.50000  0.50000  1
 F  F1  1  0.50000  0.80522  0.19478  1
 F  F2  1  0.50000  0.19478  0.80522  1
 F  F3  1  0.74304  0.25696  0.25696  1
 F  F4  1  0.25696  0.74304  0.74304  1
 F  F5  1  -0.00000  0.50000  0.50000  1
 Fe  Fe1  1  0.00000  0.00000  0.00000  1
