CIF file written using JARVIS-Tools package.
data_K5SnSb3
_symmetry_space_group_name_H-M  'P2_1/c'
_cell_length_a       8.66497
_cell_length_b       9.86195
_cell_length_c       16.0553
_cell_angle_alpha    90.2139
_cell_angle_beta     90
_cell_angle_gamma    90

_symmetry_Int_Tables_number  14
_chemical_formula_structural  K5SnSb3
_chemical_formula_sum  K20Sn4Sb2
_cell_volume  1371.973677798488
_cell_formula_units_Z  4
loop_
  _symmetry_equiv_pos_site_id
 _symmetry_equiv_pos_as_xyz
 1  'x, y, z'
loop_
 _atom_site_type_symbol
 _atom_site_label
 _atom_site_symmetry_multiplicity
 _atom_site_fract_x
 _atom_site_fract_y
 _atom_site_fract_z
 _atom_site_fract_occupancy
 K  K1  1  0.16270  0.57622  0.25855  1
 K  K2  1  0.66270  0.92378  0.24145  1
 K  K3  1  0.83730  0.42378  0.74145  1
 K  K4  1  0.33730  0.07622  0.75855  1
 K  K5  1  0.17560  0.57930  0.57876  1
 K  K6  1  0.67560  0.92070  0.92124  1
 K  K7  1  0.82440  0.42070  0.42124  1
 K  K8  1  0.32440  0.07930  0.07876  1
 K  K9  1  0.00622  0.19635  0.91126  1
 K  K10  1  0.49675  0.69342  0.75779  1
 K  K11  1  0.50622  0.30365  0.58874  1
 K  K12  1  0.49378  0.69635  0.41126  1
 K  K13  1  0.51919  0.33024  0.92158  1
 K  K14  1  0.01919  0.16976  0.57842  1
 K  K15  1  0.48081  0.66976  0.07842  1
 K  K16  1  0.98081  0.83024  0.42158  1
 K  K17  1  0.99675  0.80658  0.74221  1
 K  K18  1  0.00325  0.19342  0.25779  1
 K  K19  1  0.50325  0.30658  0.24221  1
 K  K20  1  0.99378  0.80365  0.08874  1
 Sb  Sb1  1  0.26267  0.91811  0.26870  1
 Sb  Sb2  1  0.30466  0.91770  0.56588  1
 Sb  Sb3  1  0.80466  0.58230  0.93412  1
 Sb  Sb4  1  0.69534  0.08230  0.43412  1
 Sb  Sb5  1  0.19534  0.41770  0.06588  1
 Sb  Sb6  1  0.23928  0.34821  0.41887  1
 Sb  Sb7  1  0.73928  0.15179  0.08113  1
 Sb  Sb8  1  0.23733  0.41811  0.76870  1
 Sb  Sb9  1  0.26072  0.84821  0.91887  1
 Sb  Sb10  1  0.73733  0.08189  0.73130  1
 Sb  Sb11  1  0.76267  0.58189  0.23130  1
 Sb  Sb12  1  0.76072  0.65179  0.58113  1
 Sn  Sn1  1  0.35576  0.07434  0.41169  1
 Sn  Sn2  1  0.14424  0.57434  0.91169  1
 Sn  Sn3  1  0.64424  0.92566  0.58831  1
 Sn  Sn4  1  0.85576  0.42566  0.08831  1
