CIF file written using JARVIS-Tools package.
data_Fe6O11F
_symmetry_space_group_name_H-M  'P1'
_cell_length_a       4.37055
_cell_length_b       5.19648
_cell_length_c       7.19189
_cell_angle_alpha    86.0896
_cell_angle_beta     89.3653
_cell_angle_gamma    89.1549

_symmetry_Int_Tables_number  1
_chemical_formula_structural  Fe6O11F
_chemical_formula_sum  Fe6OF
_cell_volume  162.93251584871948
_cell_formula_units_Z  1
loop_
  _symmetry_equiv_pos_site_id
 _symmetry_equiv_pos_as_xyz
 1  'x, y, z'
loop_
 _atom_site_type_symbol
 _atom_site_label
 _atom_site_symmetry_multiplicity
 _atom_site_fract_x
 _atom_site_fract_y
 _atom_site_fract_z
 _atom_site_fract_occupancy
 F  F1  1  0.19421  0.63388  0.56653  1
 Fe  Fe1  1  0.00516  0.00319  0.00618  1
 Fe  Fe2  1  0.98440  0.66332  0.32297  1
 Fe  Fe3  1  0.52387  0.84709  0.67168  1
 Fe  Fe4  1  0.49563  0.16486  0.33132  1
 Fe  Fe5  1  0.49399  0.49721  0.99785  1
 Fe  Fe6  1  0.99000  0.32167  0.66778  1
 O  O1  1  0.19060  0.96412  0.23285  1
 O  O2  1  0.31047  0.79718  0.89763  1
 O  O3  1  0.69727  0.53760  0.76522  1
 O  O4  1  0.30882  0.13153  0.56762  1
 O  O5  1  0.69323  0.86744  0.43500  1
 O  O6  1  0.80562  0.70128  0.09958  1
 O  O7  1  0.68992  0.20091  0.10045  1
 O  O8  1  0.19283  0.29612  0.90091  1
 O  O9  1  0.81163  0.03995  0.77056  1
 O  O10  1  0.80686  0.36323  0.43215  1
 O  O11  1  0.30548  0.46942  0.23375  1
