CIF file written using JARVIS-Tools package.
data_FeSb2O6
_symmetry_space_group_name_H-M  'P4_2/mnm'
_cell_length_a       4.7304
_cell_length_b       4.7304
_cell_length_c       9.54616
_cell_angle_alpha    90
_cell_angle_beta     90
_cell_angle_gamma    90

_symmetry_Int_Tables_number  136
_chemical_formula_structural  FeSb2O6
_chemical_formula_sum  Fe2Sb4O2
_cell_volume  213.611145452168
_cell_formula_units_Z  2
loop_
  _symmetry_equiv_pos_site_id
 _symmetry_equiv_pos_as_xyz
 1  'x, y, z'
loop_
 _atom_site_type_symbol
 _atom_site_label
 _atom_site_symmetry_multiplicity
 _atom_site_fract_x
 _atom_site_fract_y
 _atom_site_fract_z
 _atom_site_fract_occupancy
 Fe  Fe1  1  0.00000  0.00000  0.00000  1
 Fe  Fe2  1  0.50000  0.50000  0.50000  1
 O  O1  1  0.30657  0.30657  0.00000  1
 O  O2  1  0.19343  0.80657  0.50000  1
 O  O3  1  0.30501  0.30501  0.66811  1
 O  O4  1  0.69343  0.69343  0.00000  1
 O  O5  1  0.80657  0.19343  0.50000  1
 O  O6  1  0.19499  0.80501  0.83189  1
 O  O7  1  0.80501  0.19499  0.83189  1
 O  O8  1  0.80501  0.19499  0.16811  1
 O  O9  1  0.19499  0.80501  0.16811  1
 O  O10  1  0.69499  0.69499  0.33189  1
 O  O11  1  0.30501  0.30501  0.33189  1
 O  O12  1  0.69499  0.69499  0.66811  1
 Sb  Sb1  1  0.00000  0.00000  0.66724  1
 Sb  Sb2  1  0.50000  0.50000  0.16724  1
 Sb  Sb3  1  0.50000  0.50000  0.83276  1
 Sb  Sb4  1  0.00000  0.00000  0.33276  1
