CIF file written using JARVIS-Tools package.
data_Mn3O2F4
_symmetry_space_group_name_H-M  'Pmn2_1'
_cell_length_a       4.65331
_cell_length_b       4.69847
_cell_length_c       9.58656
_cell_angle_alpha    90
_cell_angle_beta     90
_cell_angle_gamma    90

_symmetry_Int_Tables_number  31
_chemical_formula_structural  Mn3O2F4
_chemical_formula_sum  Mn6O4F8
_cell_volume  209.5951084037911
_cell_formula_units_Z  2
loop_
  _symmetry_equiv_pos_site_id
 _symmetry_equiv_pos_as_xyz
 1  'x, y, z'
loop_
 _atom_site_type_symbol
 _atom_site_label
 _atom_site_symmetry_multiplicity
 _atom_site_fract_x
 _atom_site_fract_y
 _atom_site_fract_z
 _atom_site_fract_occupancy
 F  F1  1  0.79579  0.97891  0.65712  1
 F  F2  1  0.31565  0.08980  0.50000  1
 F  F3  1  0.29579  0.02109  0.15712  1
 F  F4  1  0.29579  0.02109  0.84288  1
 F  F5  1  0.68918  0.48440  0.50000  1
 F  F6  1  0.18918  0.51560  0.00000  1
 F  F7  1  0.79579  0.97891  0.34288  1
 F  F8  1  0.81565  0.91020  0.00000  1
 Mn  Mn1  1  0.99528  0.71127  0.82532  1
 Mn  Mn2  1  0.49528  0.28873  0.32532  1
 Mn  Mn3  1  0.53147  0.24972  0.00000  1
 Mn  Mn4  1  0.49528  0.28873  0.67468  1
 Mn  Mn5  1  0.03147  0.75028  0.50000  1
 Mn  Mn6  1  0.99528  0.71127  0.17468  1
 O  O1  1  0.19079  0.56100  0.66715  1
 O  O2  1  0.69079  0.43900  0.16715  1
 O  O3  1  0.69079  0.43900  0.83285  1
 O  O4  1  0.19079  0.56100  0.33285  1
