CIF file written using JARVIS-Tools package.
data_Li3Fe4B4O12
_symmetry_space_group_name_H-M  'P1'
_cell_length_a       5.20783
_cell_length_b       5.18534
_cell_length_c       9.80751
_cell_angle_alpha    88.6155
_cell_angle_beta     90.8357
_cell_angle_gamma    119.917

_symmetry_Int_Tables_number  1
_chemical_formula_structural  Li3Fe4B4O12
_chemical_formula_sum  Li3Fe4B4O2
_cell_volume  229.48740238794875
_cell_formula_units_Z  1
loop_
  _symmetry_equiv_pos_site_id
 _symmetry_equiv_pos_as_xyz
 1  'x, y, z'
loop_
 _atom_site_type_symbol
 _atom_site_label
 _atom_site_symmetry_multiplicity
 _atom_site_fract_x
 _atom_site_fract_y
 _atom_site_fract_z
 _atom_site_fract_occupancy
 B  B1  1  0.67000  0.67817  0.87664  1
 B  B2  1  0.67379  0.98565  0.62131  1
 B  B3  1  0.32878  0.00115  0.36642  1
 B  B4  1  0.32583  0.32216  0.12160  1
 Fe  Fe1  1  0.33894  0.31310  0.62237  1
 Fe  Fe2  1  0.32251  0.00594  0.85950  1
 Fe  Fe3  1  0.66482  0.98876  0.12291  1
 Fe  Fe4  1  0.67578  0.67738  0.37018  1
 Li  Li1  1  0.00902  0.34382  0.35417  1
 Li  Li2  1  0.98605  0.34656  0.82713  1
 Li  Li3  1  0.99402  0.65729  0.10552  1
 O  O1  1  0.32535  0.06502  0.08468  1
 O  O2  1  0.67694  0.94434  0.90539  1
 O  O3  1  0.40173  0.42998  0.84157  1
 O  O4  1  0.41780  0.98852  0.65885  1
 O  O5  1  0.64974  0.72415  0.57590  1
 O  O6  1  0.59603  0.57641  0.15014  1
 O  O7  1  0.07156  0.73552  0.35147  1
 O  O8  1  0.92582  0.66089  0.88666  1
 O  O9  1  0.60164  0.02270  0.33924  1
 O  O10  1  0.06718  0.33009  0.13538  1
 O  O11  1  0.94133  0.24072  0.63380  1
 O  O12  1  0.32409  0.25720  0.40244  1
