CIF file written using JARVIS-Tools package.
data_H10PtCN8O2
_symmetry_space_group_name_H-M  'P-1'
_cell_length_a       4.96793
_cell_length_b       5.5793
_cell_length_c       14.6136
_cell_angle_alpha    86.972
_cell_angle_beta     82.9192
_cell_angle_gamma    81.6004

_symmetry_Int_Tables_number  2
_chemical_formula_structural  H10PtCN8O2
_chemical_formula_sum  H20Pt2C2N6O4
_cell_volume  397.4013799423843
_cell_formula_units_Z  2
loop_
  _symmetry_equiv_pos_site_id
 _symmetry_equiv_pos_as_xyz
 1  'x, y, z'
loop_
 _atom_site_type_symbol
 _atom_site_label
 _atom_site_symmetry_multiplicity
 _atom_site_fract_x
 _atom_site_fract_y
 _atom_site_fract_z
 _atom_site_fract_occupancy
 C  C1  1  0.07734  0.37010  0.89056  1
 C  C2  1  0.92266  0.62990  0.10944  1
 H  H1  1  0.08198  0.48685  0.08109  1
 H  H2  1  0.73210  0.62063  0.08046  1
 H  H3  1  0.67614  0.95162  0.56469  1
 H  H4  1  0.62736  0.73731  0.64880  1
 H  H5  1  0.00527  0.19564  0.90870  1
 H  H6  1  0.99473  0.80436  0.09130  1
 H  H7  1  0.12462  0.08935  0.34926  1
 H  H8  1  0.91802  0.51315  0.91891  1
 H  H9  1  0.06585  0.59212  0.23779  1
 H  H10  1  -0.01170  0.96110  0.78066  1
 H  H11  1  0.32386  0.04838  0.43531  1
 H  H12  1  0.17916  0.57742  0.77188  1
 H  H13  1  0.19950  0.65363  0.36077  1
 H  H14  1  0.93415  0.40788  0.76221  1
 H  H15  1  0.82084  0.42258  0.22812  1
 H  H16  1  0.80050  0.34637  0.63923  1
 H  H17  1  0.26790  0.37937  0.91954  1
 H  H18  1  0.01170  0.03890  0.21934  1
 H  H19  1  0.37264  0.26269  0.35120  1
 H  H20  1  0.87538  0.91065  0.65074  1
 N  N1  1  0.58439  0.21360  0.05590  1
 N  N2  1  0.12042  0.40651  0.78871  1
 N  N3  1  0.49592  0.09339  0.11585  1
 N  N4  1  0.67818  0.91093  0.63394  1
 N  N5  1  0.38890  0.96283  0.17473  1
 N  N6  1  0.23093  0.47729  0.56744  1
 N  N7  1  0.50408  0.90661  0.88415  1
 N  N8  1  0.32182  0.08907  0.36606  1
 N  N9  1  0.21042  0.27099  0.59686  1
 N  N10  1  0.87958  0.59349  0.21129  1
 N  N11  1  0.23468  0.67074  0.53479  1
 N  N12  1  0.61110  0.03717  0.82527  1
 N  N13  1  0.76907  0.52271  0.43256  1
 N  N14  1  0.78958  0.72901  0.40314  1
 N  N15  1  0.41561  0.78640  0.94410  1
 N  N16  1  0.76532  0.32926  0.46521  1
 O  O1  1  0.15104  0.89640  0.73859  1
 O  O2  1  0.65704  0.41401  0.68728  1
 O  O3  1  0.34296  0.58599  0.31272  1
 O  O4  1  0.84896  0.10360  0.26141  1
 Pt  Pt1  1  0.40180  0.15640  0.71323  1
 Pt  Pt2  1  0.59820  0.84360  0.28677  1
