CIF file written using JARVIS-Tools package.
data_LiVOF3
_symmetry_space_group_name_H-M  'P2_1/c'
_cell_length_a       4.44714
_cell_length_b       4.78425
_cell_length_c       12.2092
_cell_angle_alpha    90
_cell_angle_beta     110.158
_cell_angle_gamma    90

_symmetry_Int_Tables_number  14
_chemical_formula_structural  LiVOF3
_chemical_formula_sum  Li4V4O4F2
_cell_volume  243.85501033175478
_cell_formula_units_Z  4
loop_
  _symmetry_equiv_pos_site_id
 _symmetry_equiv_pos_as_xyz
 1  'x, y, z'
loop_
 _atom_site_type_symbol
 _atom_site_label
 _atom_site_symmetry_multiplicity
 _atom_site_fract_x
 _atom_site_fract_y
 _atom_site_fract_z
 _atom_site_fract_occupancy
 F  F1  1  0.95604  0.42782  0.19355  1
 F  F2  1  0.18401  0.40785  0.43156  1
 F  F3  1  0.32594  0.91331  0.56687  1
 F  F4  1  0.04396  0.92782  0.30645  1
 F  F5  1  0.95604  0.07218  0.69355  1
 F  F6  1  0.81599  0.59215  0.56844  1
 F  F7  1  0.67406  0.08669  0.43313  1
 F  F8  1  0.32594  0.58669  0.06687  1
 F  F9  1  0.18401  0.09215  0.93156  1
 F  F10  1  0.04396  0.57218  0.80645  1
 F  F11  1  0.81599  0.90785  0.06844  1
 F  F12  1  0.67406  0.41331  0.93313  1
 Li  Li1  1  0.95674  0.74658  0.94502  1
 Li  Li2  1  0.04326  0.24658  0.55498  1
 Li  Li3  1  0.95674  0.75342  0.44502  1
 Li  Li4  1  0.04326  0.25342  0.05498  1
 O  O1  1  0.55748  0.93562  0.79820  1
 O  O2  1  0.44252  0.43562  0.70180  1
 O  O3  1  0.44252  0.06438  0.20180  1
 O  O4  1  0.55748  0.56438  0.29820  1
 V  V1  1  0.34540  0.22476  0.81526  1
 V  V2  1  0.65460  0.77524  0.18474  1
 V  V3  1  0.65460  0.72476  0.68474  1
 V  V4  1  0.34540  0.27524  0.31526  1
