CIF file written using JARVIS-Tools package.
data_CeMg6Fe
_symmetry_space_group_name_H-M  'Amm2'
_cell_length_a       6.83744
_cell_length_b       5.59113
_cell_length_c       4.95979
_cell_angle_alpha    90
_cell_angle_beta     90
_cell_angle_gamma    114.133

_symmetry_Int_Tables_number  38
_chemical_formula_structural  CeMg6Fe
_chemical_formula_sum  CeMg6Fe
_cell_volume  173.03547350132735
_cell_formula_units_Z  1
loop_
  _symmetry_equiv_pos_site_id
 _symmetry_equiv_pos_as_xyz
 1  'x, y, z'
loop_
 _atom_site_type_symbol
 _atom_site_label
 _atom_site_symmetry_multiplicity
 _atom_site_fract_x
 _atom_site_fract_y
 _atom_site_fract_z
 _atom_site_fract_occupancy
 Ce  Ce1  1  0.12553  0.81276  0.25000  1
 Fe  Fe1  1  0.19670  0.34835  0.25000  1
 Mg  Mg1  1  0.62518  0.31393  0.25000  1
 Mg  Mg2  1  0.62518  0.81124  0.25000  1
 Mg  Mg3  1  0.34701  0.17880  0.75000  1
 Mg  Mg4  1  0.34701  0.66821  0.75000  1
 Mg  Mg5  1  0.93103  0.21551  0.75000  1
 Mg  Mg6  1  0.80238  0.65119  0.75000  1
