CIF file written using JARVIS-Tools package.
data_Ba2LaIrO6
_symmetry_space_group_name_H-M  'R-3'
_cell_length_a       6.07229
_cell_length_b       6.07229
_cell_length_c       6.07229
_cell_angle_alpha    60.6046
_cell_angle_beta     60.6045
_cell_angle_gamma    60.6045

_symmetry_Int_Tables_number  148
_chemical_formula_structural  Ba2LaIrO6
_chemical_formula_sum  Ba2LaIrO6
_cell_volume  160.48419364028848
_cell_formula_units_Z  1
loop_
  _symmetry_equiv_pos_site_id
 _symmetry_equiv_pos_as_xyz
 1  'x, y, z'
loop_
 _atom_site_type_symbol
 _atom_site_label
 _atom_site_symmetry_multiplicity
 _atom_site_fract_x
 _atom_site_fract_y
 _atom_site_fract_z
 _atom_site_fract_occupancy
 Ba  Ba1  1  0.74850  0.74850  0.74850  1
 Ba  Ba2  1  0.25150  0.25150  0.25150  1
 Ir  Ir1  1  0.50000  0.50000  0.50000  1
 La  La1  1  0.00000  0.00000  0.00000  1
 O  O1  1  0.27344  0.76734  0.69049  1
 O  O2  1  0.69049  0.27344  0.76734  1
 O  O3  1  0.76734  0.69049  0.27344  1
 O  O4  1  0.72656  0.23266  0.30951  1
 O  O5  1  0.30951  0.72656  0.23266  1
 O  O6  1  0.23266  0.30951  0.72656  1
