CIF file written using JARVIS-Tools package.
data_TeH5O6
_symmetry_space_group_name_H-M  'P2_1/c'
_cell_length_a       6.24325
_cell_length_b       8.97015
_cell_length_c       11.1237
_cell_angle_alpha    90
_cell_angle_beta     131.951
_cell_angle_gamma    90

_symmetry_Int_Tables_number  14
_chemical_formula_structural  TeH5O6
_chemical_formula_sum  Te4H20O24
_cell_volume  463.30341040198454
_cell_formula_units_Z  4
loop_
  _symmetry_equiv_pos_site_id
 _symmetry_equiv_pos_as_xyz
 1  'x, y, z'
loop_
 _atom_site_type_symbol
 _atom_site_label
 _atom_site_symmetry_multiplicity
 _atom_site_fract_x
 _atom_site_fract_y
 _atom_site_fract_z
 _atom_site_fract_occupancy
 H  H1  1  0.53653  0.88130  0.89249  1
 H  H2  1  0.27289  0.77867  0.03248  1
 H  H3  1  0.77289  0.72133  0.53248  1
 H  H4  1  0.72711  0.22133  0.96752  1
 H  H5  1  0.22711  0.27867  0.46752  1
 H  H6  1  0.14567  0.58888  0.20365  1
 H  H7  1  0.64567  0.91112  0.70365  1
 H  H8  1  0.35433  0.08888  0.29635  1
 H  H9  1  0.03653  0.61870  0.39249  1
 H  H10  1  0.92500  0.33213  0.20430  1
 H  H11  1  0.96347  0.38130  0.60751  1
 H  H12  1  0.85433  0.41112  0.79635  1
 H  H13  1  0.56013  0.55359  0.24178  1
 H  H14  1  0.06013  0.94641  0.74178  1
 H  H15  1  0.43987  0.44641  0.75822  1
 H  H16  1  0.93987  0.05359  0.25822  1
 H  H17  1  0.57500  0.83213  0.29570  1
 H  H18  1  0.07500  0.66787  0.79570  1
 H  H19  1  0.42500  0.16787  0.70430  1
 H  H20  1  0.46347  0.11870  0.10751  1
 O  O1  1  0.63986  0.42452  0.70563  1
 O  O2  1  0.23956  0.62787  0.49912  1
 O  O3  1  0.73956  0.87213  0.99912  1
 O  O4  1  0.13986  0.07548  0.20563  1
 O  O5  1  0.86014  0.92452  0.79437  1
 O  O6  1  0.24323  0.17741  0.58587  1
 O  O7  1  0.70999  0.15454  0.88744  1
 O  O8  1  0.20999  0.34546  0.38744  1
 O  O9  1  0.79001  0.65454  0.61256  1
 O  O10  1  0.29001  0.84546  0.11256  1
 O  O11  1  0.76044  0.37213  0.50088  1
 O  O12  1  0.36014  0.57548  0.29437  1
 O  O13  1  0.68669  0.56995  0.21731  1
 O  O14  1  0.74323  0.32259  0.08587  1
 O  O15  1  0.80408  0.59856  0.02254  1
 O  O16  1  0.31331  0.43005  0.78269  1
 O  O17  1  0.81331  0.06995  0.28269  1
 O  O18  1  0.75677  0.82259  0.41413  1
 O  O19  1  0.18669  0.93005  0.71731  1
 O  O20  1  0.69592  0.09856  0.47746  1
 O  O21  1  0.19592  0.40144  0.97746  1
 O  O22  1  0.30408  0.90144  0.52254  1
 O  O23  1  0.26044  0.12787  0.00088  1
 O  O24  1  0.25677  0.67741  0.91413  1
 Te  Te1  1  -0.00000  0.00000  0.50000  1
 Te  Te2  1  0.50000  0.50000  -0.00000  1
 Te  Te3  1  0.00000  0.00000  0.00000  1
 Te  Te4  1  0.50000  0.50000  0.50000  1
