CIF file written using JARVIS-Tools package.
data_CeSi3N5
_symmetry_space_group_name_H-M  'P2_12_12_1'
_cell_length_a       4.81076
_cell_length_b       7.86817
_cell_length_c       11.2804
_cell_angle_alpha    90
_cell_angle_beta     90
_cell_angle_gamma    90

_symmetry_Int_Tables_number  19
_chemical_formula_structural  CeSi3N5
_chemical_formula_sum  Ce4Si2N20
_cell_volume  426.984030654481
_cell_formula_units_Z  4
loop_
  _symmetry_equiv_pos_site_id
 _symmetry_equiv_pos_as_xyz
 1  'x, y, z'
loop_
 _atom_site_type_symbol
 _atom_site_label
 _atom_site_symmetry_multiplicity
 _atom_site_fract_x
 _atom_site_fract_y
 _atom_site_fract_z
 _atom_site_fract_occupancy
 Ce  Ce1  1  0.50455  0.05879  0.17051  1
 Ce  Ce2  1  0.99545  0.94121  0.67051  1
 Ce  Ce3  1  0.00455  0.44121  0.82949  1
 Ce  Ce4  1  0.49545  0.55879  0.32949  1
 N  N1  1  0.66858  0.20612  0.70473  1
 N  N2  1  0.16858  0.29388  0.29527  1
 N  N3  1  0.45342  0.84277  0.58035  1
 N  N4  1  0.95342  0.65723  0.41965  1
 N  N5  1  0.54658  0.34277  0.91965  1
 N  N6  1  0.18568  0.51854  0.09378  1
 N  N7  1  0.70569  0.64930  0.98909  1
 N  N8  1  0.83142  0.79388  0.20473  1
 N  N9  1  0.79431  0.35070  0.48909  1
 N  N10  1  0.29431  0.14930  0.51091  1
 N  N11  1  0.82880  0.61086  0.66831  1
 N  N12  1  0.32880  0.88914  0.33169  1
 N  N13  1  0.17120  0.11086  0.83169  1
 N  N14  1  0.04658  0.15723  0.08035  1
 N  N15  1  0.67120  0.38914  0.16831  1
 N  N16  1  0.31432  0.48146  0.59378  1
 N  N17  1  0.20569  0.85070  0.01091  1
 N  N18  1  0.81432  0.01854  0.40622  1
 N  N19  1  0.33142  0.70612  0.79527  1
 N  N20  1  0.68568  0.98146  0.90622  1
 Si  Si1  1  0.51536  0.29292  0.58323  1
 Si  Si2  1  0.97583  0.53318  0.54088  1
 Si  Si3  1  0.47583  0.96682  0.45912  1
 Si  Si4  1  0.02417  0.03318  0.95912  1
 Si  Si5  1  0.52417  0.46682  0.04088  1
 Si  Si6  1  0.48464  0.79292  0.91677  1
 Si  Si7  1  0.98464  0.70708  0.08323  1
 Si  Si8  1  0.01536  0.20708  0.41677  1
 Si  Si9  1  0.48480  0.66214  0.66125  1
 Si  Si10  1  0.98480  0.83786  0.33875  1
 Si  Si11  1  0.51520  0.16214  0.83875  1
 Si  Si12  1  0.01520  0.33786  0.16125  1
