CIF file written using JARVIS-Tools package.
data_CoCu2SnS4
_symmetry_space_group_name_H-M  'I-42m'
_cell_length_a       5.42379
_cell_length_b       5.42378
_cell_length_c       6.56355
_cell_angle_alpha    114.405
_cell_angle_beta     114.405
_cell_angle_gamma    89.9986

_symmetry_Int_Tables_number  121
_chemical_formula_structural  CoCu2SnS4
_chemical_formula_sum  CoCu2SnS4
_cell_volume  156.69089813399376
_cell_formula_units_Z  1
loop_
  _symmetry_equiv_pos_site_id
 _symmetry_equiv_pos_as_xyz
 1  'x, y, z'
loop_
 _atom_site_type_symbol
 _atom_site_label
 _atom_site_symmetry_multiplicity
 _atom_site_fract_x
 _atom_site_fract_y
 _atom_site_fract_z
 _atom_site_fract_occupancy
 Co  Co1  1  0.00001  0.00001  0.00001  1
 Cu  Cu1  1  0.75000  0.25000  0.50000  1
 Cu  Cu2  1  0.25000  0.75000  0.50001  1
 S  S1  1  0.64067  0.09707  0.73775  1
 S  S2  1  0.90293  0.90293  0.26225  1
 S  S3  1  0.09707  0.64068  0.73775  1
 S  S4  1  0.35932  0.35932  0.26224  1
 Sn  Sn1  1  0.50000  0.50000  -0.00001  1
