CIF file written using JARVIS-Tools package.
data_La2CrO6
_symmetry_space_group_name_H-M  'R-3'
_cell_length_a       5.30681
_cell_length_b       5.30681
_cell_length_c       5.30681
_cell_angle_alpha    64.6132
_cell_angle_beta     64.6133
_cell_angle_gamma    64.6132

_symmetry_Int_Tables_number  148
_chemical_formula_structural  La2CrO6
_chemical_formula_sum  La2CrO6
_cell_volume  116.36011855915078
_cell_formula_units_Z  1
loop_
  _symmetry_equiv_pos_site_id
 _symmetry_equiv_pos_as_xyz
 1  'x, y, z'
loop_
 _atom_site_type_symbol
 _atom_site_label
 _atom_site_symmetry_multiplicity
 _atom_site_fract_x
 _atom_site_fract_y
 _atom_site_fract_z
 _atom_site_fract_occupancy
 Cr  Cr1  1  0.00000  0.00000  0.00000  1
 La  La1  1  0.74313  0.74313  0.74313  1
 La  La2  1  0.25687  0.25687  0.25687  1
 O  O1  1  0.30957  0.78824  0.15059  1
 O  O2  1  0.78824  0.15059  0.30957  1
 O  O3  1  0.15059  0.30957  0.78824  1
 O  O4  1  0.69043  0.21176  0.84941  1
 O  O5  1  0.84941  0.69043  0.21176  1
 O  O6  1  0.21176  0.84941  0.69043  1
