CIF file written using JARVIS-Tools package.
data_Li2CoSnO4
_symmetry_space_group_name_H-M  'I-4m2'
_cell_length_a       5.37086
_cell_length_b       5.37085
_cell_length_c       5.37085
_cell_angle_alpha    134.103
_cell_angle_beta     134.103
_cell_angle_gamma    66.9269

_symmetry_Int_Tables_number  119
_chemical_formula_structural  Li2CoSnO4
_chemical_formula_sum  Li2CoSnO4
_cell_volume  78.59433878536134
_cell_formula_units_Z  1
loop_
  _symmetry_equiv_pos_site_id
 _symmetry_equiv_pos_as_xyz
 1  'x, y, z'
loop_
 _atom_site_type_symbol
 _atom_site_label
 _atom_site_symmetry_multiplicity
 _atom_site_fract_x
 _atom_site_fract_y
 _atom_site_fract_z
 _atom_site_fract_occupancy
 Co  Co1  1  0.75000  0.25000  0.50000  1
 Li  Li1  1  0.25000  0.75000  0.50000  1
 Li  Li2  1  0.50000  0.50000  0.00000  1
 O  O1  1  0.50505  0.00505  0.50000  1
 O  O2  1  0.23043  0.23043  0.00000  1
 O  O3  1  0.99495  0.49495  0.50000  1
 O  O4  1  0.76957  0.76957  -0.00000  1
 Sn  Sn1  1  0.00000  0.00000  0.00000  1
