CIF file written using JARVIS-Tools package.
data_BaH2C2O4
_symmetry_space_group_name_H-M  'P2_12_12_1'
_cell_length_a       6.35981
_cell_length_b       6.63869
_cell_length_c       10.9518
_cell_angle_alpha    90
_cell_angle_beta     90
_cell_angle_gamma    90

_symmetry_Int_Tables_number  19
_chemical_formula_structural  BaH2C2O4
_chemical_formula_sum  Ba4H8C8O6
_cell_volume  462.3953865767318
_cell_formula_units_Z  4
loop_
  _symmetry_equiv_pos_site_id
 _symmetry_equiv_pos_as_xyz
 1  'x, y, z'
loop_
 _atom_site_type_symbol
 _atom_site_label
 _atom_site_symmetry_multiplicity
 _atom_site_fract_x
 _atom_site_fract_y
 _atom_site_fract_z
 _atom_site_fract_occupancy
 Ba  Ba1  1  0.44188  0.67294  0.12592  1
 Ba  Ba2  1  0.55812  0.17294  0.37408  1
 Ba  Ba3  1  0.05812  0.32706  0.62592  1
 Ba  Ba4  1  0.94188  0.82706  0.87408  1
 C  C1  1  0.65232  0.19876  0.03308  1
 C  C2  1  0.03376  0.42103  0.28542  1
 C  C3  1  0.34768  0.69876  0.46692  1
 C  C4  1  0.53376  0.07897  0.71458  1
 C  C5  1  0.46624  0.57897  0.78542  1
 C  C6  1  0.84768  0.80124  0.53308  1
 C  C7  1  -0.03376  -0.07897  0.21458  1
 C  C8  1  0.15232  0.30124  0.96692  1
 H  H1  1  0.72103  0.28626  0.95669  1
 H  H2  1  0.95102  0.51338  0.21623  1
 H  H3  1  0.27897  0.78626  0.54331  1
 H  H4  1  0.77897  0.71374  0.45669  1
 H  H5  1  0.54898  0.48662  0.71623  1
 H  H6  1  0.45102  0.98662  0.78377  1
 H  H7  1  0.22103  0.21374  0.04331  1
 H  H8  1  0.04898  0.01338  0.28377  1
 O  O1  1  0.61112  0.01516  0.01338  1
 O  O2  1  0.93245  0.37743  0.38260  1
 O  O3  1  0.11983  0.20667  0.86714  1
 O  O4  1  0.06755  0.87743  0.11740  1
 O  O5  1  0.88888  -0.01516  0.51338  1
 O  O6  1  0.61983  0.29333  0.13286  1
 O  O7  1  0.21927  0.36628  0.26081  1
 O  O8  1  0.43245  0.12257  0.61740  1
 O  O9  1  0.11112  0.48484  0.98662  1
 O  O10  1  0.38017  0.79333  0.36714  1
 O  O11  1  0.28073  0.63372  0.76081  1
 O  O12  1  0.38888  0.51516  0.48662  1
 O  O13  1  0.56755  0.62257  0.88260  1
 O  O14  1  0.88017  0.70667  0.63286  1
 O  O15  1  0.78073  0.86628  0.23919  1
 O  O16  1  0.71927  0.13372  0.73919  1
