CIF file written using JARVIS-Tools package.
data_Lu5NiPb3
_symmetry_space_group_name_H-M  'P6_3/mcm'
_cell_length_a       8.92474
_cell_length_b       8.92474
_cell_length_c       6.5381
_cell_angle_alpha    90
_cell_angle_beta     90
_cell_angle_gamma    120

_symmetry_Int_Tables_number  193
_chemical_formula_structural  Lu5NiPb3
_chemical_formula_sum  Lu0Ni2Pb6
_cell_volume  450.99625425063243
_cell_formula_units_Z  2
loop_
  _symmetry_equiv_pos_site_id
 _symmetry_equiv_pos_as_xyz
 1  'x, y, z'
loop_
 _atom_site_type_symbol
 _atom_site_label
 _atom_site_symmetry_multiplicity
 _atom_site_fract_x
 _atom_site_fract_y
 _atom_site_fract_z
 _atom_site_fract_occupancy
 Lu  Lu1  1  0.23670  0.00000  0.25000  1
 Lu  Lu2  1  0.66667  0.33333  0.50000  1
 Lu  Lu3  1  0.00000  0.23670  0.25000  1
 Lu  Lu4  1  0.33333  0.66667  0.50000  1
 Lu  Lu5  1  0.33333  0.66667  0.00000  1
 Lu  Lu6  1  0.76330  0.00000  0.75000  1
 Lu  Lu7  1  0.00000  0.76330  0.75000  1
 Lu  Lu8  1  0.23670  0.23670  0.75000  1
 Lu  Lu9  1  0.76330  0.76330  0.25000  1
 Lu  Lu10  1  0.66667  0.33333  0.00000  1
 Ni  Ni1  1  0.00000  0.00000  0.00000  1
 Ni  Ni2  1  0.00000  0.00000  0.50000  1
 Pb  Pb1  1  0.59986  0.00000  0.25000  1
 Pb  Pb2  1  0.00000  0.59986  0.25000  1
 Pb  Pb3  1  0.40014  0.00000  0.75000  1
 Pb  Pb4  1  0.00000  0.40014  0.75000  1
 Pb  Pb5  1  0.40014  0.40014  0.25000  1
 Pb  Pb6  1  0.59986  0.59986  0.75000  1
