CIF file written using JARVIS-Tools package.
data_SrIn4Pd
_symmetry_space_group_name_H-M  'Cmcm'
_cell_length_a       4.6166
_cell_length_b       7.5916
_cell_length_c       8.95532
_cell_angle_alpha    90
_cell_angle_beta     104.937
_cell_angle_gamma    90

_symmetry_Int_Tables_number  63
_chemical_formula_structural  SrIn4Pd
_chemical_formula_sum  Sr2In8Pd2
_cell_volume  303.25516491977027
_cell_formula_units_Z  2
loop_
  _symmetry_equiv_pos_site_id
 _symmetry_equiv_pos_as_xyz
 1  'x, y, z'
loop_
 _atom_site_type_symbol
 _atom_site_label
 _atom_site_symmetry_multiplicity
 _atom_site_fract_x
 _atom_site_fract_y
 _atom_site_fract_z
 _atom_site_fract_occupancy
 In  In1  1  0.68410  0.04965  0.36820  1
 In  In2  1  0.31590  0.95035  0.63180  1
 In  In3  1  0.31590  0.54965  0.63180  1
 In  In4  1  0.68410  0.45035  0.36820  1
 In  In5  1  0.06791  0.25000  0.13582  1
 In  In6  1  0.93209  0.75000  0.86418  1
 In  In7  1  0.50000  0.00000  0.00000  1
 In  In8  1  0.50000  0.50000  0.00000  1
 Pd  Pd1  1  0.22467  0.25000  0.44934  1
 Pd  Pd2  1  0.77533  0.75000  0.55066  1
 Sr  Sr1  1  0.87515  0.25000  0.75031  1
 Sr  Sr2  1  0.12485  0.75000  0.24969  1
