CIF file written using JARVIS-Tools package.
data_PrClO2
_symmetry_space_group_name_H-M  'P2_1/m'
_cell_length_a       3.79979
_cell_length_b       6.44005
_cell_length_c       6.41039
_cell_angle_alpha    107.753
_cell_angle_beta     90
_cell_angle_gamma    90

_symmetry_Int_Tables_number  11
_chemical_formula_structural  PrClO2
_chemical_formula_sum  Pr2Cl2O4
_cell_volume  149.39743874796125
_cell_formula_units_Z  2
loop_
  _symmetry_equiv_pos_site_id
 _symmetry_equiv_pos_as_xyz
 1  'x, y, z'
loop_
 _atom_site_type_symbol
 _atom_site_label
 _atom_site_symmetry_multiplicity
 _atom_site_fract_x
 _atom_site_fract_y
 _atom_site_fract_z
 _atom_site_fract_occupancy
 Cl  Cl1  1  0.25000  0.74458  0.50390  1
 Cl  Cl2  1  0.75000  0.25542  0.49610  1
 O  O1  1  0.25000  0.91083  0.04760  1
 O  O2  1  0.75000  0.08917  0.95240  1
 O  O3  1  0.25000  0.45698  0.87173  1
 O  O4  1  0.75000  0.54302  0.12827  1
 Pr  Pr1  1  0.75000  0.69661  0.83226  1
 Pr  Pr2  1  0.25000  0.30339  0.16774  1
