CIF file written using JARVIS-Tools package.
data_Ba5V5O14
_symmetry_space_group_name_H-M  'P-3m1'
_cell_length_a       5.81615
_cell_length_b       5.81616
_cell_length_c       11.9898
_cell_angle_alpha    90
_cell_angle_beta     90
_cell_angle_gamma    120

_symmetry_Int_Tables_number  164
_chemical_formula_structural  Ba5V5O14
_chemical_formula_sum  Ba5V5O4
_cell_volume  351.2484649126822
_cell_formula_units_Z  1
loop_
  _symmetry_equiv_pos_site_id
 _symmetry_equiv_pos_as_xyz
 1  'x, y, z'
loop_
 _atom_site_type_symbol
 _atom_site_label
 _atom_site_symmetry_multiplicity
 _atom_site_fract_x
 _atom_site_fract_y
 _atom_site_fract_z
 _atom_site_fract_occupancy
 Ba  Ba1  1  0.00000  0.00000  0.00000  1
 Ba  Ba2  1  0.66667  0.33333  0.23369  1
 Ba  Ba3  1  0.33333  0.66667  0.42514  1
 Ba  Ba4  1  0.66667  0.33333  0.57486  1
 Ba  Ba5  1  0.33333  0.66667  0.76631  1
 O  O1  1  0.84663  0.69326  0.39893  1
 O  O2  1  0.30674  0.15337  0.39893  1
 O  O3  1  0.69326  0.84663  0.60107  1
 O  O4  1  0.15337  0.30674  0.60107  1
 O  O5  1  0.15337  0.84663  0.60107  1
 O  O6  1  0.83258  0.16742  0.80812  1
 O  O7  1  0.83258  0.66516  0.80812  1
 O  O8  1  0.33484  0.16742  0.80812  1
 O  O9  1  0.16742  0.33483  0.19187  1
 O  O10  1  0.84663  0.15337  0.39893  1
 O  O11  1  0.33333  0.66667  0.99119  1
 O  O12  1  0.16742  0.83258  0.19187  1
 O  O13  1  0.66516  0.83258  0.19187  1
 O  O14  1  0.66667  0.33333  0.00881  1
 V  V1  1  0.00000  0.00000  0.50000  1
 V  V2  1  0.66667  0.33333  0.86485  1
 V  V3  1  0.33333  0.66667  0.13515  1
 V  V4  1  0.00000  0.00000  0.29325  1
 V  V5  1  0.00000  0.00000  0.70675  1
