CIF file written using JARVIS-Tools package.
data_La3Ge4Rh4
_symmetry_space_group_name_H-M  'Immm'
_cell_length_a       4.1836
_cell_length_b       4.2754
_cell_length_c       13.0786
_cell_angle_alpha    99.4072
_cell_angle_beta     99.2035
_cell_angle_gamma    90.0001

_symmetry_Int_Tables_number  71
_chemical_formula_structural  La3Ge4Rh4
_chemical_formula_sum  La3Ge4Rh4
_cell_volume  227.73180581118362
_cell_formula_units_Z  1
loop_
  _symmetry_equiv_pos_site_id
 _symmetry_equiv_pos_as_xyz
 1  'x, y, z'
loop_
 _atom_site_type_symbol
 _atom_site_label
 _atom_site_symmetry_multiplicity
 _atom_site_fract_x
 _atom_site_fract_y
 _atom_site_fract_z
 _atom_site_fract_occupancy
 Ge  Ge1  1  0.45066  0.45066  0.90132  1
 Ge  Ge2  1  0.54934  0.54934  0.09868  1
 Ge  Ge3  1  0.30167  0.80167  0.60333  1
 Ge  Ge4  1  0.69833  0.19833  0.39667  1
 La  La1  1  0.85551  0.35551  0.71103  1
 La  La2  1  0.14449  0.64449  0.28897  1
 La  La3  1  0.00000  0.00000  0.00000  1
 Rh  Rh1  1  0.39974  0.89974  0.79948  1
 Rh  Rh2  1  0.25009  0.25009  0.50017  1
 Rh  Rh3  1  0.74991  0.74991  0.49983  1
 Rh  Rh4  1  0.60026  0.10026  0.20052  1
