CIF file written using JARVIS-Tools package.
data_KNO3
_symmetry_space_group_name_H-M  'Pnma'
_cell_length_a       5.43018
_cell_length_b       6.12195
_cell_length_c       9.11338
_cell_angle_alpha    90
_cell_angle_beta     90
_cell_angle_gamma    90

_symmetry_Int_Tables_number  62
_chemical_formula_structural  KNO3
_chemical_formula_sum  K4N4O2
_cell_volume  302.9589618622864
_cell_formula_units_Z  4
loop_
  _symmetry_equiv_pos_site_id
 _symmetry_equiv_pos_as_xyz
 1  'x, y, z'
loop_
 _atom_site_type_symbol
 _atom_site_label
 _atom_site_symmetry_multiplicity
 _atom_site_fract_x
 _atom_site_fract_y
 _atom_site_fract_z
 _atom_site_fract_occupancy
 K  K1  1  0.75000  0.74205  0.58285  1
 K  K2  1  0.75000  0.24205  0.91715  1
 K  K3  1  0.25000  0.75795  0.08285  1
 K  K4  1  0.25000  0.25795  0.41715  1
 N  N1  1  0.25000  0.90175  0.74289  1
 N  N2  1  0.75000  0.59825  0.24289  1
 N  N3  1  0.25000  0.40175  0.75711  1
 N  N4  1  0.75000  0.09825  0.25711  1
 O  O1  1  0.45299  0.90254  0.81291  1
 O  O2  1  0.95299  0.09746  0.18709  1
 O  O3  1  0.04701  0.40254  0.68709  1
 O  O4  1  0.54701  0.59746  0.31291  1
 O  O5  1  0.25000  0.89552  0.60336  1
 O  O6  1  0.04701  0.90254  0.81291  1
 O  O7  1  0.75000  0.60448  0.10336  1
 O  O8  1  0.54701  0.09746  0.18709  1
 O  O9  1  0.45299  0.40254  0.68709  1
 O  O10  1  0.95299  0.59746  0.31291  1
 O  O11  1  0.75000  0.10448  0.39664  1
 O  O12  1  0.25000  0.39552  0.89664  1
