CIF file written using JARVIS-Tools package.
data_S2O5F2
_symmetry_space_group_name_H-M  'P-42_1c'
_cell_length_a       7.42891
_cell_length_b       7.42891
_cell_length_c       9.02923
_cell_angle_alpha    90
_cell_angle_beta     90
_cell_angle_gamma    90

_symmetry_Int_Tables_number  114
_chemical_formula_structural  S2O5F2
_chemical_formula_sum  S8O20F8
_cell_volume  498.3119293168367
_cell_formula_units_Z  4
loop_
  _symmetry_equiv_pos_site_id
 _symmetry_equiv_pos_as_xyz
 1  'x, y, z'
loop_
 _atom_site_type_symbol
 _atom_site_label
 _atom_site_symmetry_multiplicity
 _atom_site_fract_x
 _atom_site_fract_y
 _atom_site_fract_z
 _atom_site_fract_occupancy
 F  F1  1  0.90484  0.76430  0.41458  1
 F  F2  1  0.09516  0.23570  0.41458  1
 F  F3  1  0.26430  0.40484  0.91458  1
 F  F4  1  0.40484  0.73570  0.08542  1
 F  F5  1  0.73570  0.59516  0.91458  1
 F  F6  1  0.76430  0.09516  0.58542  1
 F  F7  1  0.59516  0.26430  0.08542  1
 F  F8  1  0.23570  0.90484  0.58542  1
 O  O1  1  0.50000  0.00000  0.72434  1
 O  O2  1  0.30154  0.38476  0.24756  1
 O  O3  1  0.00000  0.50000  0.77566  1
 O  O4  1  0.50000  0.00000  0.22434  1
 O  O5  1  0.80154  0.11524  0.25244  1
 O  O6  1  0.28810  0.02381  0.00892  1
 O  O7  1  0.47619  0.21190  0.50892  1
 O  O8  1  0.11524  0.19846  0.74756  1
 O  O9  1  0.88476  0.80154  0.74756  1
 O  O10  1  0.00000  0.50000  0.27566  1
 O  O11  1  0.69846  0.61524  0.24756  1
 O  O12  1  0.38476  0.69846  0.75244  1
 O  O13  1  0.71190  0.97619  0.00892  1
 O  O14  1  0.52381  0.78810  0.50892  1
 O  O15  1  0.02381  0.71190  0.99108  1
 O  O16  1  0.21190  0.52381  0.49108  1
 O  O17  1  0.78810  0.47619  0.49108  1
 O  O18  1  0.97619  0.28810  0.99108  1
 O  O19  1  0.61524  0.30154  0.75244  1
 O  O20  1  0.19846  0.88476  0.25244  1
 S  S1  1  0.92004  0.67744  0.86258  1
 S  S2  1  0.17744  0.42004  0.36258  1
 S  S3  1  0.82256  0.57996  0.36258  1
 S  S4  1  0.07996  0.32256  0.86258  1
 S  S5  1  0.42004  0.82256  0.63742  1
 S  S6  1  0.57996  0.17744  0.63742  1
 S  S7  1  0.32256  0.92004  0.13742  1
 S  S8  1  0.67744  0.07996  0.13742  1
