CIF file written using JARVIS-Tools package.
data_KCuCl3
_symmetry_space_group_name_H-M  'P2_1/c'
_cell_length_a       3.97027
_cell_length_b       10.4127
_cell_length_c       12.2998
_cell_angle_alpha    90
_cell_angle_beta     90
_cell_angle_gamma    77.235

_symmetry_Int_Tables_number  14
_chemical_formula_structural  KCuCl3
_chemical_formula_sum  K4Cu4Cl2
_cell_volume  495.9232993199683
_cell_formula_units_Z  4
loop_
  _symmetry_equiv_pos_site_id
 _symmetry_equiv_pos_as_xyz
 1  'x, y, z'
loop_
 _atom_site_type_symbol
 _atom_site_label
 _atom_site_symmetry_multiplicity
 _atom_site_fract_x
 _atom_site_fract_y
 _atom_site_fract_z
 _atom_site_fract_occupancy
 Cl  Cl1  1  -0.11367  0.17810  0.20285  1
 Cl  Cl2  1  0.63377  0.08667  0.91264  1
 Cl  Cl3  1  -0.11367  0.67810  0.29715  1
 Cl  Cl4  1  0.11367  0.32190  0.70285  1
 Cl  Cl5  1  0.89570  0.14986  0.50276  1
 Cl  Cl6  1  0.36623  0.41333  0.41264  1
 Cl  Cl7  1  0.11367  0.82190  0.79715  1
 Cl  Cl8  1  0.36623  0.91333  0.08736  1
 Cl  Cl9  1  0.89570  0.64986  -0.00276  1
 Cl  Cl10  1  0.10430  0.35014  0.00276  1
 Cl  Cl11  1  0.63377  0.58667  0.58736  1
 Cl  Cl12  1  0.10430  0.85014  0.49724  1
 Cu  Cu1  1  0.22334  0.63740  0.44830  1
 Cu  Cu2  1  0.22334  0.13740  0.05170  1
 Cu  Cu3  1  0.77666  0.86260  0.94830  1
 Cu  Cu4  1  0.77666  0.36260  0.55170  1
 K  K1  1  0.50940  -0.00878  0.33263  1
 K  K2  1  0.49060  0.50878  0.83263  1
 K  K3  1  0.49060  0.00878  0.66737  1
 K  K4  1  0.50940  0.49122  0.16737  1
