CIF file written using JARVIS-Tools package.
data_Li3MnP2O8
_symmetry_space_group_name_H-M  'P2_1/m'
_cell_length_a       4.74664
_cell_length_b       5.78978
_cell_length_c       10.0535
_cell_angle_alpha    90
_cell_angle_beta     91.8208
_cell_angle_gamma    90

_symmetry_Int_Tables_number  11
_chemical_formula_structural  Li3MnP2O8
_chemical_formula_sum  Li6Mn2P4O6
_cell_volume  276.15128113568477
_cell_formula_units_Z  2
loop_
  _symmetry_equiv_pos_site_id
 _symmetry_equiv_pos_as_xyz
 1  'x, y, z'
loop_
 _atom_site_type_symbol
 _atom_site_label
 _atom_site_symmetry_multiplicity
 _atom_site_fract_x
 _atom_site_fract_y
 _atom_site_fract_z
 _atom_site_fract_occupancy
 Li  Li1  1  0.09646  0.75000  0.06881  1
 Li  Li2  1  0.50626  0.75000  0.22819  1
 Li  Li3  1  0.50000  0.00000  0.50000  1
 Li  Li4  1  0.50000  0.50000  0.50000  1
 Li  Li5  1  0.49374  0.25000  0.77181  1
 Li  Li6  1  0.90354  0.25000  0.93119  1
 Mn  Mn1  1  0.97105  0.25000  0.27407  1
 Mn  Mn2  1  0.02895  0.75000  0.72593  1
 O  O1  1  0.72062  0.25000  0.11389  1
 O  O2  1  0.78835  0.96182  0.34098  1
 O  O3  1  0.78835  0.53818  0.34098  1
 O  O4  1  0.68989  0.75000  0.05106  1
 O  O5  1  0.25724  0.03871  0.16940  1
 O  O6  1  0.27938  0.75000  0.88611  1
 O  O7  1  0.19639  0.25000  0.44413  1
 O  O8  1  0.25724  0.46129  0.16940  1
 O  O9  1  0.80361  0.75000  0.55587  1
 O  O10  1  0.74276  0.53871  0.83060  1
 O  O11  1  0.21165  0.03818  0.65902  1
 O  O12  1  0.21165  0.46182  0.65902  1
 O  O13  1  0.25012  0.75000  0.41434  1
 O  O14  1  0.74276  0.96129  0.83060  1
 O  O15  1  0.74988  0.25000  0.58566  1
 O  O16  1  0.31011  0.25000  0.94894  1
 P  P1  1  0.39296  0.25000  0.09617  1
 P  P2  1  0.93170  0.75000  0.41236  1
 P  P3  1  0.06830  0.25000  0.58764  1
 P  P4  1  0.60704  0.75000  0.90383  1
