CIF file written using JARVIS-Tools package.
data_Li4H4Rh
_symmetry_space_group_name_H-M  'I4/m'
_cell_length_a       4.04472
_cell_length_b       4.85871
_cell_length_c       4.85871
_cell_angle_alpha    80.0232
_cell_angle_beta     65.4029
_cell_angle_gamma    65.403

_symmetry_Int_Tables_number  87
_chemical_formula_structural  Li4H4Rh
_chemical_formula_sum  Li4H4Rh
_cell_volume  78.94118442565973
_cell_formula_units_Z  1
loop_
  _symmetry_equiv_pos_site_id
 _symmetry_equiv_pos_as_xyz
 1  'x, y, z'
loop_
 _atom_site_type_symbol
 _atom_site_label
 _atom_site_symmetry_multiplicity
 _atom_site_fract_x
 _atom_site_fract_y
 _atom_site_fract_z
 _atom_site_fract_occupancy
 H  H1  1  0.93231  0.79942  0.33597  1
 H  H2  1  0.06769  0.20058  0.66403  1
 H  H3  1  0.26827  0.66403  0.79942  1
 H  H4  1  0.73173  0.33597  0.20058  1
 Li  Li1  1  0.61262  0.16957  0.60520  1
 Li  Li2  1  0.38738  0.83043  0.39480  1
 Li  Li3  1  0.21781  0.39480  0.16957  1
 Li  Li4  1  0.78219  0.60520  0.83043  1
 Rh  Rh1  1  0.00000  0.00000  0.00000  1
