CIF file written using JARVIS-Tools package.
data_Li2Ni3SbO8
_symmetry_space_group_name_H-M  'R-3m'
_cell_length_a       5.96395
_cell_length_b       5.96395
_cell_length_c       5.96395
_cell_angle_alpha    58.5169
_cell_angle_beta     58.5169
_cell_angle_gamma    58.517

_symmetry_Int_Tables_number  166
_chemical_formula_structural  Li2Ni3SbO8
_chemical_formula_sum  Li2Ni3SbO8
_cell_volume  144.9101760636275
_cell_formula_units_Z  1
loop_
  _symmetry_equiv_pos_site_id
 _symmetry_equiv_pos_as_xyz
 1  'x, y, z'
loop_
 _atom_site_type_symbol
 _atom_site_label
 _atom_site_symmetry_multiplicity
 _atom_site_fract_x
 _atom_site_fract_y
 _atom_site_fract_z
 _atom_site_fract_occupancy
 Li  Li1  1  0.12713  0.12713  0.12713  1
 Li  Li2  1  0.87287  0.87287  0.87287  1
 Ni  Ni1  1  -0.00000  0.50000  0.50000  1
 Ni  Ni2  1  0.50000  0.00000  0.50000  1
 Ni  Ni3  1  0.50000  0.50000  -0.00000  1
 O  O1  1  0.27026  0.27026  0.27026  1
 O  O2  1  0.25906  0.25906  0.72204  1
 O  O3  1  0.25906  0.72204  0.25906  1
 O  O4  1  0.72204  0.25906  0.25906  1
 O  O5  1  0.27796  0.74094  0.74094  1
 O  O6  1  0.74094  0.27796  0.74094  1
 O  O7  1  0.74094  0.74094  0.27796  1
 O  O8  1  0.72974  0.72974  0.72974  1
 Sb  Sb1  1  0.50000  0.50000  0.50000  1
