CIF file written using JARVIS-Tools package.
data_VPbO3
_symmetry_space_group_name_H-M  'P4mm'
_cell_length_a       5.36814
_cell_length_b       5.36814
_cell_length_c       6.05414
_cell_angle_alpha    63.6822
_cell_angle_beta     63.6822
_cell_angle_gamma    90.002

_symmetry_Int_Tables_number  99
_chemical_formula_structural  VPbO3
_chemical_formula_sum  V2Pb2O6
_cell_volume  135.9086172219554
_cell_formula_units_Z  2
loop_
  _symmetry_equiv_pos_site_id
 _symmetry_equiv_pos_as_xyz
 1  'x, y, z'
loop_
 _atom_site_type_symbol
 _atom_site_label
 _atom_site_symmetry_multiplicity
 _atom_site_fract_x
 _atom_site_fract_y
 _atom_site_fract_z
 _atom_site_fract_occupancy
 O  O1  1  0.39457  0.89457  0.21086  1
 O  O2  1  0.89457  0.39457  0.21086  1
 O  O3  1  0.40573  0.90573  0.68855  1
 O  O4  1  0.90573  0.40573  0.68855  1
 O  O5  1  0.90573  0.90573  0.68854  1
 O  O6  1  0.40573  0.40573  0.68854  1
 Pb  Pb1  1  -0.00711  -0.00711  0.01422  1
 Pb  Pb2  1  0.49289  0.49289  0.01422  1
 V  V1  1  0.21524  0.71524  0.56953  1
 V  V2  1  0.71524  0.21524  0.56953  1
