CIF file written using JARVIS-Tools package.
data_Ni2PO5
_symmetry_space_group_name_H-M  'I4_1/amd'
_cell_length_a       5.32717
_cell_length_b       7.00005
_cell_length_c       5.32717
_cell_angle_alpha    67.6347
_cell_angle_beta     90
_cell_angle_gamma    112.365

_symmetry_Int_Tables_number  141
_chemical_formula_structural  Ni2PO5
_chemical_formula_sum  Ni4P2O0
_cell_volume  167.43776414538112
_cell_formula_units_Z  2
loop_
  _symmetry_equiv_pos_site_id
 _symmetry_equiv_pos_as_xyz
 1  'x, y, z'
loop_
 _atom_site_type_symbol
 _atom_site_label
 _atom_site_symmetry_multiplicity
 _atom_site_fract_x
 _atom_site_fract_y
 _atom_site_fract_z
 _atom_site_fract_occupancy
 Ni  Ni1  1  0.50000  0.50000  0.00000  1
 Ni  Ni2  1  0.50000  0.00000  0.50000  1
 Ni  Ni3  1  0.00000  0.00000  0.50000  1
 Ni  Ni4  1  0.50000  0.50000  0.50000  1
 O  O1  1  0.80522  0.11044  0.18969  1
 O  O2  1  0.30013  0.61044  0.19478  1
 O  O3  1  0.37500  0.25000  0.37500  1
 O  O4  1  0.81031  0.61044  0.19478  1
 O  O5  1  0.19478  0.88956  0.30013  1
 O  O6  1  0.80522  0.11044  0.69987  1
 O  O7  1  0.69987  0.38956  0.80522  1
 O  O8  1  0.18969  0.38956  0.80522  1
 O  O9  1  0.62500  0.75000  0.62500  1
 O  O10  1  0.19478  0.88956  0.81031  1
 P  P1  1  0.12500  0.75000  0.12500  1
 P  P2  1  0.87500  0.25000  0.87500  1
