CIF file written using JARVIS-Tools package.
data_Ba5Ga5Pb
_symmetry_space_group_name_H-M  'P-6m2'
_cell_length_a       6.07621
_cell_length_b       6.07765
_cell_length_c       10.9059
_cell_angle_alpha    90
_cell_angle_beta     90
_cell_angle_gamma    119.992

_symmetry_Int_Tables_number  187
_chemical_formula_structural  Ba5Ga5Pb
_chemical_formula_sum  Ba5Ga5Pb
_cell_volume  348.81640555377726
_cell_formula_units_Z  1
loop_
  _symmetry_equiv_pos_site_id
 _symmetry_equiv_pos_as_xyz
 1  'x, y, z'
loop_
 _atom_site_type_symbol
 _atom_site_label
 _atom_site_symmetry_multiplicity
 _atom_site_fract_x
 _atom_site_fract_y
 _atom_site_fract_z
 _atom_site_fract_occupancy
 Ba  Ba1  1  0.99996  0.99991  0.33172  1
 Ba  Ba2  1  0.66661  0.33324  0.20399  1
 Ba  Ba3  1  0.66661  0.33324  0.79601  1
 Ba  Ba4  1  0.99996  -0.00009  0.66828  1
 Ba  Ba5  1  0.33337  0.66673  0.00000  1
 Ga  Ga1  1  0.33337  0.66677  0.67487  1
 Ga  Ga2  1  0.51574  0.48409  0.50000  1
 Ga  Ga3  1  0.51592  0.03179  0.50000  1
 Ga  Ga4  1  0.33337  0.66677  0.32513  1
 Ga  Ga5  1  0.96834  0.48409  0.50000  1
 Pb  Pb1  1  0.00007  0.00014  1.00000  1
