CIF file written using JARVIS-Tools package.
data_KMnH24C14N8
_symmetry_space_group_name_H-M  'I4/m'
_cell_length_a       8.60964
_cell_length_b       8.60964
_cell_length_c       8.60964
_cell_angle_alpha    119.647
_cell_angle_beta     119.647
_cell_angle_gamma    90.6131

_symmetry_Int_Tables_number  87
_chemical_formula_structural  KMnH24C14N8
_chemical_formula_sum  KMnH24C4N8
_cell_volume  453.65552554545343
_cell_formula_units_Z  1
loop_
  _symmetry_equiv_pos_site_id
 _symmetry_equiv_pos_as_xyz
 1  'x, y, z'
loop_
 _atom_site_type_symbol
 _atom_site_label
 _atom_site_symmetry_multiplicity
 _atom_site_fract_x
 _atom_site_fract_y
 _atom_site_fract_z
 _atom_site_fract_occupancy
 C  C1  1  0.16379  0.16379  -0.00000  1
 C  C2  1  0.83621  0.83621  0.00000  1
 C  C3  1  0.40331  0.70627  0.46598  1
 C  C4  1  0.06267  0.59669  0.30296  1
 C  C5  1  0.75971  0.06267  0.46598  1
 C  C6  1  0.24029  0.93733  0.53402  1
 C  C7  1  0.59669  0.29373  0.53402  1
 C  C8  1  0.70627  0.24029  0.30296  1
 C  C9  1  0.13458  0.18503  0.31961  1
 C  C10  1  0.86542  0.81497  0.68039  1
 C  C11  1  0.81497  0.13458  0.94955  1
 C  C12  1  0.93733  0.40331  0.69704  1
 C  C13  1  0.29373  0.75971  0.69704  1
 C  C14  1  0.18503  0.86542  0.05045  1
 H  H1  1  0.02901  0.59635  0.16257  1
 H  H2  1  -0.02901  0.40365  0.83743  1
 H  H3  1  0.56622  0.13356  0.16257  1
 H  H4  1  0.13356  -0.02901  0.56734  1
 H  H5  1  0.40365  0.56622  0.43266  1
 H  H6  1  0.37235  0.70683  0.32681  1
 H  H7  1  0.59635  0.43378  0.56734  1
 H  H8  1  0.46163  0.18420  0.38588  1
 H  H9  1  0.79832  0.07576  0.61412  1
 H  H10  1  0.07576  0.46163  0.27744  1
 H  H11  1  0.53837  0.81580  0.61412  1
 H  H12  1  0.20168  0.92424  0.38588  1
 H  H13  1  0.81580  0.20168  0.27744  1
 H  H14  1  0.92424  0.53837  0.72256  1
 H  H15  1  0.62765  0.29317  0.67319  1
 H  H16  1  0.61998  -0.04554  0.32681  1
 H  H17  1  0.29317  0.61998  0.66552  1
 H  H18  1  -0.04554  0.62765  0.33448  1
 H  H19  1  0.18420  0.79832  0.72256  1
 H  H20  1  0.38002  0.04554  0.67319  1
 H  H21  1  0.70683  0.38002  0.33448  1
 H  H22  1  0.04554  0.37235  0.66552  1
 H  H23  1  0.43378  0.86644  0.83743  1
 H  H24  1  0.86644  0.02901  0.43266  1
 K  K1  1  0.50000  0.50000  0.00000  1
 Mn  Mn1  1  0.00000  0.00000  0.00000  1
 N  N1  1  0.75000  0.25000  0.50000  1
 N  N2  1  0.73927  0.73927  -0.00000  1
 N  N3  1  0.26073  0.26073  0.00000  1
 N  N4  1  0.29201  0.78180  0.07381  1
 N  N5  1  0.70799  0.21820  0.92619  1
 N  N6  1  0.21820  0.29201  0.51021  1
 N  N7  1  0.78180  0.70799  0.48979  1
 N  N8  1  0.25000  0.75000  0.50000  1
