CIF file written using JARVIS-Tools package.
data_La2Mn2Se2O3
_symmetry_space_group_name_H-M  'I4/mmm'
_cell_length_a       4.1284
_cell_length_b       4.1284
_cell_length_c       9.88623
_cell_angle_alpha    102.052
_cell_angle_beta     102.052
_cell_angle_gamma    90

_symmetry_Int_Tables_number  139
_chemical_formula_structural  La2Mn2Se2O3
_chemical_formula_sum  La2Mn2Se2O3
_cell_volume  160.9844017258388
_cell_formula_units_Z  1
loop_
  _symmetry_equiv_pos_site_id
 _symmetry_equiv_pos_as_xyz
 1  'x, y, z'
loop_
 _atom_site_type_symbol
 _atom_site_label
 _atom_site_symmetry_multiplicity
 _atom_site_fract_x
 _atom_site_fract_y
 _atom_site_fract_z
 _atom_site_fract_occupancy
 La  La1  1  0.31410  0.31410  0.62820  1
 La  La2  1  0.68590  0.68590  0.37180  1
 Mn  Mn1  1  0.00000  0.50000  0.00000  1
 Mn  Mn2  1  0.50000  0.00000  0.00000  1
 O  O1  1  0.75000  0.25000  0.50000  1
 O  O2  1  0.25000  0.75000  0.50000  1
 O  O3  1  0.50000  0.50000  0.00000  1
 Se  Se1  1  0.90111  0.90111  0.80221  1
 Se  Se2  1  0.09889  0.09889  0.19779  1
