CIF file written using JARVIS-Tools package.
data_BaMg6Ga
_symmetry_space_group_name_H-M  'Amm2'
_cell_length_a       7.89457
_cell_length_b       6.13362
_cell_length_c       4.91869
_cell_angle_alpha    90
_cell_angle_beta     90
_cell_angle_gamma    112.859

_symmetry_Int_Tables_number  38
_chemical_formula_structural  BaMg6Ga
_chemical_formula_sum  BaMg6Ga
_cell_volume  219.4680930764474
_cell_formula_units_Z  1
loop_
  _symmetry_equiv_pos_site_id
 _symmetry_equiv_pos_as_xyz
 1  'x, y, z'
loop_
 _atom_site_type_symbol
 _atom_site_label
 _atom_site_symmetry_multiplicity
 _atom_site_fract_x
 _atom_site_fract_y
 _atom_site_fract_z
 _atom_site_fract_occupancy
 Ba  Ba1  1  0.08568  0.29284  0.25000  1
 Ga  Ga1  1  0.30108  0.90054  0.25000  1
 Mg  Mg1  1  0.62814  0.32572  0.25000  1
 Mg  Mg2  1  0.62814  0.80242  0.25000  1
 Mg  Mg3  1  0.35485  0.17608  0.75000  1
 Mg  Mg4  1  0.35485  0.67877  0.75000  1
 Mg  Mg5  1  0.74258  0.12129  0.75000  1
 Mg  Mg6  1  0.90467  0.70234  0.75000  1
