CIF file written using JARVIS-Tools package.
data_BaGa2Ge2O8
_symmetry_space_group_name_H-M  'Pnma'
_cell_length_a       9.02331
_cell_length_b       9.06344
_cell_length_c       9.88875
_cell_angle_alpha    90
_cell_angle_beta     90
_cell_angle_gamma    89.995

_symmetry_Int_Tables_number  62
_chemical_formula_structural  BaGa2Ge2O8
_chemical_formula_sum  Ba4Ga8Ge8O32
_cell_volume  808.7240050662376
_cell_formula_units_Z  4
loop_
  _symmetry_equiv_pos_site_id
 _symmetry_equiv_pos_as_xyz
 1  'x, y, z'
loop_
 _atom_site_type_symbol
 _atom_site_label
 _atom_site_symmetry_multiplicity
 _atom_site_fract_x
 _atom_site_fract_y
 _atom_site_fract_z
 _atom_site_fract_occupancy
 Ba  Ba1  1  0.25000  0.87276  0.39522  1
 Ba  Ba2  1  0.75000  0.62724  0.89522  1
 Ba  Ba3  1  0.75000  0.12724  0.60478  1
 Ba  Ba4  1  0.25000  0.37276  0.10478  1
 Ga  Ga1  1  0.57119  0.74308  0.57807  1
 Ga  Ga2  1  0.42881  0.75692  0.07807  1
 Ga  Ga3  1  0.57119  0.24308  0.92193  1
 Ga  Ga4  1  0.92881  0.74307  0.57808  1
 Ga  Ga5  1  0.07119  0.75693  0.07808  1
 Ga  Ga6  1  0.07119  0.25693  0.42192  1
 Ga  Ga7  1  0.92881  0.24307  0.92192  1
 Ga  Ga8  1  0.42881  0.25692  0.42193  1
 Ge  Ge1  1  0.57388  0.56277  0.29956  1
 Ge  Ge2  1  0.92613  0.06279  0.20044  1
 Ge  Ge3  1  0.07387  0.93721  0.79956  1
 Ge  Ge4  1  0.07387  0.43721  0.70044  1
 Ge  Ge5  1  0.57388  0.06277  0.20044  1
 Ge  Ge6  1  0.42612  0.43723  0.70044  1
 Ge  Ge7  1  0.42612  0.93723  0.79956  1
 Ge  Ge8  1  0.92613  0.56279  0.29956  1
 O  O1  1  0.57189  0.11603  0.37292  1
 O  O2  1  0.92811  0.61606  0.12709  1
 O  O3  1  0.07189  0.88394  0.62709  1
 O  O4  1  0.07189  0.38394  0.87291  1
 O  O5  1  0.92811  0.11606  0.37291  1
 O  O6  1  0.52539  0.72028  0.39697  1
 O  O7  1  0.25001  0.67300  0.12481  1
 O  O8  1  0.52539  0.22028  0.10303  1
 O  O9  1  -0.02539  0.72029  0.39697  1
 O  O10  1  0.02539  0.77971  0.89697  1
 O  O11  1  0.02539  0.27971  0.60303  1
 O  O12  1  -0.02539  0.22029  0.10303  1
 O  O13  1  0.42811  0.38397  0.87292  1
 O  O14  1  0.47461  0.77972  0.89697  1
 O  O15  1  0.47461  0.27972  0.60303  1
 O  O16  1  0.56689  0.06853  0.82488  1
 O  O17  1  0.43311  0.43147  0.32488  1
 O  O18  1  0.06691  0.93148  0.17512  1
 O  O19  1  0.25001  0.17300  0.37519  1
 O  O20  1  0.74999  0.32700  0.87519  1
 O  O21  1  0.75002  0.48830  0.34828  1
 O  O22  1  0.24998  0.51170  0.65172  1
 O  O23  1  0.75002  -0.01170  0.15172  1
 O  O24  1  0.24998  0.01170  0.84828  1
 O  O25  1  0.42811  0.88397  0.62708  1
 O  O26  1  0.56689  0.56853  0.67512  1
 O  O27  1  0.43311  0.93147  0.17512  1
 O  O28  1  0.06691  0.43148  0.32488  1
 O  O29  1  0.93309  0.06852  0.82488  1
 O  O30  1  0.93309  0.56852  0.67512  1
 O  O31  1  0.57189  0.61603  0.12708  1
 O  O32  1  0.74999  0.82700  0.62481  1
