CIF file written using JARVIS-Tools package.
data_K3InP2
_symmetry_space_group_name_H-M  'Ibam'
_cell_length_a       6.8244
_cell_length_b       7.55312
_cell_length_c       8.89494
_cell_angle_alpha    115.124
_cell_angle_beta     112.558
_cell_angle_gamma    90

_symmetry_Int_Tables_number  72
_chemical_formula_structural  K3InP2
_chemical_formula_sum  K6In2P4
_cell_volume  376.01524060968967
_cell_formula_units_Z  2
loop_
  _symmetry_equiv_pos_site_id
 _symmetry_equiv_pos_as_xyz
 1  'x, y, z'
loop_
 _atom_site_type_symbol
 _atom_site_label
 _atom_site_symmetry_multiplicity
 _atom_site_fract_x
 _atom_site_fract_y
 _atom_site_fract_z
 _atom_site_fract_occupancy
 In  In1  1  0.25000  -0.00000  0.00000  1
 In  In2  1  0.75000  -0.00000  0.00000  1
 K  K1  1  0.81733  0.02492  0.63467  1
 K  K2  1  0.75000  0.50000  0.00000  1
 K  K3  1  0.31733  0.60975  0.63467  1
 K  K4  1  0.68267  0.39025  0.36533  1
 K  K5  1  0.25000  0.50000  0.00000  1
 K  K6  1  0.18267  0.97508  0.36533  1
 P  P1  1  0.40035  0.09323  0.80070  1
 P  P2  1  0.59965  0.90677  0.19930  1
 P  P3  1  0.09965  0.29253  0.19930  1
 P  P4  1  0.90035  0.70747  0.80070  1
