CIF file written using JARVIS-Tools package.
data_LiNbF6
_symmetry_space_group_name_H-M  'R-3'
_cell_length_a       5.12009
_cell_length_b       5.12009
_cell_length_c       5.47532
_cell_angle_alpha    62.1239
_cell_angle_beta     62.1239
_cell_angle_gamma    60.0001

_symmetry_Int_Tables_number  148
_chemical_formula_structural  LiNbF6
_chemical_formula_sum  LiNbF6
_cell_volume  104.63348646074978
_cell_formula_units_Z  1
loop_
  _symmetry_equiv_pos_site_id
 _symmetry_equiv_pos_as_xyz
 1  'x, y, z'
loop_
 _atom_site_type_symbol
 _atom_site_label
 _atom_site_symmetry_multiplicity
 _atom_site_fract_x
 _atom_site_fract_y
 _atom_site_fract_z
 _atom_site_fract_occupancy
 F  F1  1  0.87904  0.63101  0.24396  1
 F  F2  1  0.63101  0.24599  0.24396  1
 F  F3  1  0.24599  0.87904  0.24396  1
 F  F4  1  0.12096  0.36899  0.75604  1
 F  F5  1  0.36899  0.75401  0.75604  1
 F  F6  1  0.75401  0.12096  0.75604  1
 Li  Li1  1  0.50000  0.50000  0.50000  1
 Nb  Nb1  1  0.00000  0.00000  0.00000  1
