CIF file written using JARVIS-Tools package.
data_Fe3O4
_symmetry_space_group_name_H-M  'Fd-3m'
_cell_length_a       8.1444
_cell_length_b       8.1444
_cell_length_c       8.1444
_cell_angle_alpha    90
_cell_angle_beta     90
_cell_angle_gamma    90

_symmetry_Int_Tables_number  227
_chemical_formula_structural  Fe3O4
_chemical_formula_sum  Fe24O32
_cell_volume  540.2281942226397
_cell_formula_units_Z  8
loop_
  _symmetry_equiv_pos_site_id
 _symmetry_equiv_pos_as_xyz
 1  'x, y, z'
loop_
 _atom_site_type_symbol
 _atom_site_label
 _atom_site_symmetry_multiplicity
 _atom_site_fract_x
 _atom_site_fract_y
 _atom_site_fract_z
 _atom_site_fract_occupancy
 Fe  Fe1  1  0.50000  0.50000  0.50000  1
 Fe  Fe2  1  0.00000  0.25000  0.75000  1
 Fe  Fe3  1  0.75000  0.75000  0.50000  1
 Fe  Fe4  1  0.25000  0.25000  0.50000  1
 Fe  Fe5  1  0.50000  0.00000  0.00000  1
 Fe  Fe6  1  0.75000  0.00000  0.25000  1
 Fe  Fe7  1  0.25000  0.00000  0.75000  1
 Fe  Fe8  1  0.75000  0.25000  0.00000  1
 Fe  Fe9  1  0.25000  0.75000  0.00000  1
 Fe  Fe10  1  0.25000  0.50000  0.25000  1
 Fe  Fe11  1  0.75000  0.50000  0.75000  1
 Fe  Fe12  1  0.37500  0.87500  0.37500  1
 Fe  Fe13  1  0.00000  0.75000  0.25000  1
 Fe  Fe14  1  0.50000  0.25000  0.25000  1
 Fe  Fe15  1  0.00000  0.50000  0.00000  1
 Fe  Fe16  1  0.37500  0.37500  0.87500  1
 Fe  Fe17  1  0.62500  0.62500  0.12500  1
 Fe  Fe18  1  0.12500  0.62500  0.62500  1
 Fe  Fe19  1  0.87500  0.37500  0.37500  1
 Fe  Fe20  1  0.87500  0.87500  0.87500  1
 Fe  Fe21  1  0.12500  0.12500  0.12500  1
 Fe  Fe22  1  0.00000  0.00000  0.50000  1
 Fe  Fe23  1  0.50000  0.75000  0.75000  1
 Fe  Fe24  1  0.62500  0.12500  0.62500  1
 O  O1  1  0.23845  0.01155  0.51155  1
 O  O2  1  0.01155  0.51155  0.23845  1
 O  O3  1  0.48845  0.76155  0.98845  1
 O  O4  1  0.51155  0.23845  0.01155  1
 O  O5  1  0.98845  0.48845  0.76155  1
 O  O6  1  0.23845  0.51155  0.01155  1
 O  O7  1  0.73845  0.73845  0.73845  1
 O  O8  1  0.01155  0.23845  0.51155  1
 O  O9  1  0.98845  0.76155  0.48845  1
 O  O10  1  0.76155  0.76155  0.26155  1
 O  O11  1  0.48845  0.98845  0.76155  1
 O  O12  1  0.26155  0.26155  0.26155  1
 O  O13  1  0.76155  0.98845  0.48845  1
 O  O14  1  0.76155  0.48845  0.98845  1
 O  O15  1  0.51155  0.01155  0.23845  1
 O  O16  1  0.01155  0.73845  0.01155  1
 O  O17  1  0.48845  0.26155  0.48845  1
 O  O18  1  0.48845  0.48845  0.26155  1
 O  O19  1  0.26155  0.98845  0.98845  1
 O  O20  1  0.73845  0.51155  0.51155  1
 O  O21  1  0.26155  0.48845  0.48845  1
 O  O22  1  0.23845  0.73845  0.23845  1
 O  O23  1  0.76155  0.26155  0.76155  1
 O  O24  1  0.73845  0.01155  0.01155  1
 O  O25  1  0.51155  0.73845  0.51155  1
 O  O26  1  0.01155  0.01155  0.73845  1
 O  O27  1  0.26155  0.76155  0.76155  1
 O  O28  1  0.98845  0.26155  0.98845  1
 O  O29  1  0.98845  0.98845  0.26155  1
 O  O30  1  0.51155  0.51155  0.73845  1
 O  O31  1  0.73845  0.23845  0.23845  1
 O  O32  1  0.23845  0.23845  0.73845  1
