CIF file written using JARVIS-Tools package.
data_DyPt
_symmetry_space_group_name_H-M  'Pnma'
_cell_length_a       4.49889
_cell_length_b       5.56342
_cell_length_c       7.02257
_cell_angle_alpha    90
_cell_angle_beta     90
_cell_angle_gamma    90

_symmetry_Int_Tables_number  62
_chemical_formula_structural  DyPt
_chemical_formula_sum  Dy4Pt4
_cell_volume  175.7693018329305
_cell_formula_units_Z  4
loop_
  _symmetry_equiv_pos_site_id
 _symmetry_equiv_pos_as_xyz
 1  'x, y, z'
loop_
 _atom_site_type_symbol
 _atom_site_label
 _atom_site_symmetry_multiplicity
 _atom_site_fract_x
 _atom_site_fract_y
 _atom_site_fract_z
 _atom_site_fract_occupancy
 Dy  Dy1  1  0.25000  0.35717  0.68252  1
 Dy  Dy2  1  0.25000  0.14283  0.18252  1
 Dy  Dy3  1  0.75000  0.64283  0.31748  1
 Dy  Dy4  1  0.75000  0.85717  0.81748  1
 Pt  Pt1  1  0.25000  0.84084  0.54503  1
 Pt  Pt2  1  0.25000  0.65916  0.04503  1
 Pt  Pt3  1  0.75000  0.15916  0.45497  1
 Pt  Pt4  1  0.75000  0.34084  0.95497  1
