CIF file written using JARVIS-Tools package.
data_LiCoSiO4
_symmetry_space_group_name_H-M  'C222_1'
_cell_length_a       5.22934
_cell_length_b       6.24142
_cell_length_c       5.22906
_cell_angle_alpha    90
_cell_angle_beta     88.6492
_cell_angle_gamma    90

_symmetry_Int_Tables_number  20
_chemical_formula_structural  LiCoSiO4
_chemical_formula_sum  Li2Co2Si2O8
_cell_volume  170.62131631458539
_cell_formula_units_Z  2
loop_
  _symmetry_equiv_pos_site_id
 _symmetry_equiv_pos_as_xyz
 1  'x, y, z'
loop_
 _atom_site_type_symbol
 _atom_site_label
 _atom_site_symmetry_multiplicity
 _atom_site_fract_x
 _atom_site_fract_y
 _atom_site_fract_z
 _atom_site_fract_occupancy
 Co  Co1  1  0.16417  0.74204  0.83578  1
 Co  Co2  1  0.83583  0.24204  0.16422  1
 Li  Li1  1  0.31690  0.49205  0.31670  1
 Li  Li2  1  0.68310  0.99205  0.68330  1
 O  O1  1  0.18501  0.21124  0.22699  1
 O  O2  1  0.22706  0.77288  0.18496  1
 O  O3  1  0.29202  0.96796  0.64085  1
 O  O4  1  0.35915  0.51616  0.70791  1
 O  O5  1  0.64085  0.01616  0.29209  1
 O  O6  1  0.70798  0.46796  0.35915  1
 O  O7  1  0.77294  0.27288  0.81504  1
 O  O8  1  0.81499  0.71124  0.77301  1
 Si  Si1  1  0.32703  0.99206  0.32703  1
 Si  Si2  1  0.67297  0.49206  0.67297  1
