CIF file written using JARVIS-Tools package.
data_V2S2O11
_symmetry_space_group_name_H-M  'P2_1/c'
_cell_length_a       8.98078
_cell_length_b       9.47592
_cell_length_c       9.91501
_cell_angle_alpha    104.81
_cell_angle_beta     90
_cell_angle_gamma    90

_symmetry_Int_Tables_number  14
_chemical_formula_structural  V2S2O11
_chemical_formula_sum  V8S8O44
_cell_volume  815.7479768817018
_cell_formula_units_Z  4
loop_
  _symmetry_equiv_pos_site_id
 _symmetry_equiv_pos_as_xyz
 1  'x, y, z'
loop_
 _atom_site_type_symbol
 _atom_site_label
 _atom_site_symmetry_multiplicity
 _atom_site_fract_x
 _atom_site_fract_y
 _atom_site_fract_z
 _atom_site_fract_occupancy
 O  O1  1  0.85263  0.42854  0.93189  1
 O  O2  1  0.57278  0.85779  0.50179  1
 O  O3  1  0.92722  0.35779  0.50179  1
 O  O4  1  0.42722  0.14221  0.49821  1
 O  O5  1  0.24582  0.50952  0.32053  1
 O  O6  1  0.74582  0.99048  0.67947  1
 O  O7  1  0.75418  0.49048  0.67947  1
 O  O8  1  0.25418  0.00952  0.32053  1
 O  O9  1  0.23449  0.44717  0.54075  1
 O  O10  1  0.73449  0.05283  0.45925  1
 O  O11  1  0.76551  0.55283  0.45925  1
 O  O12  1  0.26551  0.94717  0.54075  1
 O  O13  1  0.34470  0.67155  0.52391  1
 O  O14  1  0.95874  0.47853  0.24044  1
 O  O15  1  0.32284  0.33339  0.08946  1
 O  O16  1  0.65530  0.32845  0.47609  1
 O  O17  1  0.39203  0.74442  0.24782  1
 O  O18  1  0.89203  0.75558  0.75218  1
 O  O19  1  0.60797  0.25558  0.75218  1
 O  O20  1  0.10797  0.24442  0.24782  1
 O  O21  1  0.76948  0.15131  0.23028  1
 O  O22  1  0.26948  0.34869  0.76972  1
 O  O23  1  0.23052  0.84869  0.76972  1
 O  O24  1  0.73052  0.65131  0.23028  1
 O  O25  1  0.54126  0.97853  0.24044  1
 O  O26  1  0.04126  0.52147  0.75956  1
 O  O27  1  0.45874  0.02147  0.75956  1
 O  O28  1  0.84470  0.82845  0.47609  1
 O  O29  1  0.07278  0.64221  0.49821  1
 O  O30  1  0.82284  0.16661  0.91054  1
 O  O31  1  0.98406  0.24581  0.74994  1
 O  O32  1  0.14737  0.57146  0.06811  1
 O  O33  1  0.17716  0.83339  0.08946  1
 O  O34  1  0.55341  0.22063  0.00880  1
 O  O35  1  0.05341  0.27937  0.99120  1
 O  O36  1  0.44659  0.77937  0.99120  1
 O  O37  1  0.48406  0.25419  0.25006  1
 O  O38  1  0.94659  0.72063  0.00880  1
 O  O39  1  0.01594  0.75419  0.25006  1
 O  O40  1  0.35263  0.07146  0.06811  1
 O  O41  1  0.64737  0.92854  0.93189  1
 O  O42  1  0.15530  0.17155  0.52391  1
 O  O43  1  0.67716  0.66661  0.91054  1
 O  O44  1  0.51594  0.74581  0.74994  1
 S  S1  1  0.92511  0.28666  0.89759  1
 S  S2  1  0.57489  0.78666  0.89759  1
 S  S3  1  0.42511  0.21334  0.10241  1
 S  S4  1  0.28335  0.07080  0.47309  1
 S  S5  1  0.71665  0.92920  0.52691  1
 S  S6  1  0.78335  0.42920  0.52691  1
 S  S7  1  0.21665  0.57080  0.47309  1
 S  S8  1  0.07489  0.71334  0.10241  1
 V  V1  1  0.63245  0.14451  0.33034  1
 V  V2  1  0.62423  0.12300  0.82233  1
 V  V3  1  0.12423  0.37700  0.17767  1
 V  V4  1  0.87577  0.62300  0.82233  1
 V  V5  1  0.13245  0.35549  0.66966  1
 V  V6  1  0.36755  0.85549  0.66966  1
 V  V7  1  0.86755  0.64451  0.33034  1
 V  V8  1  0.37577  0.87700  0.17767  1
