CIF file written using JARVIS-Tools package.
data_RbMnO2
_symmetry_space_group_name_H-M  'P-1'
_cell_length_a       6.53288
_cell_length_b       7.72147
_cell_length_c       8.51652
_cell_angle_alpha    77.4734
_cell_angle_beta     88.8652
_cell_angle_gamma    78.9234

_symmetry_Int_Tables_number  2
_chemical_formula_structural  RbMnO2
_chemical_formula_sum  Rb6Mn6O2
_cell_volume  411.45639629696325
_cell_formula_units_Z  6
loop_
  _symmetry_equiv_pos_site_id
 _symmetry_equiv_pos_as_xyz
 1  'x, y, z'
loop_
 _atom_site_type_symbol
 _atom_site_label
 _atom_site_symmetry_multiplicity
 _atom_site_fract_x
 _atom_site_fract_y
 _atom_site_fract_z
 _atom_site_fract_occupancy
 Mn  Mn1  1  0.59993  0.32495  0.45002  1
 Mn  Mn2  1  0.58293  0.31893  0.78503  1
 Mn  Mn3  1  0.59773  0.32058  0.11771  1
 Mn  Mn4  1  0.40227  0.67942  0.88229  1
 Mn  Mn5  1  0.40007  0.67505  0.54998  1
 Mn  Mn6  1  0.41707  0.68107  0.21497  1
 O  O1  1  0.39671  0.37084  0.27802  1
 O  O2  1  0.77388  0.22912  0.96290  1
 O  O3  1  0.77267  0.22087  0.63738  1
 O  O4  1  0.60329  0.62916  0.72198  1
 O  O5  1  0.38798  0.38184  0.94499  1
 O  O6  1  0.61120  0.61562  0.39485  1
 O  O7  1  0.22612  0.77088  0.03710  1
 O  O8  1  0.79111  0.23697  0.29852  1
 O  O9  1  0.61202  0.61816  0.05501  1
 O  O10  1  0.38880  0.38438  0.60515  1
 O  O11  1  0.20889  0.76303  0.70148  1
 O  O12  1  0.22733  0.77913  0.36262  1
 Rb  Rb1  1  0.98266  0.54301  0.23525  1
 Rb  Rb2  1  0.17779  0.12577  0.53121  1
 Rb  Rb3  1  0.01734  0.45699  0.76475  1
 Rb  Rb4  1  0.82221  0.87423  0.46879  1
 Rb  Rb5  1  0.84100  0.88730  0.88153  1
 Rb  Rb6  1  0.15900  0.11270  0.11847  1
