CIF file written using JARVIS-Tools package.
data_BaTiO3
_symmetry_space_group_name_H-M  'Amm2'
_cell_length_a       3.72464
_cell_length_b       5.43173
_cell_length_c       5.43173
_cell_angle_alpha    105.354
_cell_angle_beta     90
_cell_angle_gamma    90

_symmetry_Int_Tables_number  38
_chemical_formula_structural  BaTiO3
_chemical_formula_sum  BaTiO3
_cell_volume  105.9683736885501
_cell_formula_units_Z  1
loop_
  _symmetry_equiv_pos_site_id
 _symmetry_equiv_pos_as_xyz
 1  'x, y, z'
loop_
 _atom_site_type_symbol
 _atom_site_label
 _atom_site_symmetry_multiplicity
 _atom_site_fract_x
 _atom_site_fract_y
 _atom_site_fract_z
 _atom_site_fract_occupancy
 Ba  Ba1  1  0.00000  0.64546  0.64546  1
 O  O1  1  0.50000  0.38086  0.38086  1
 O  O2  1  0.50000  0.10471  0.78304  1
 O  O3  1  0.50000  0.78304  0.10471  1
 Ti  Ti1  1  0.50000  0.10593  0.10593  1
