CIF file written using JARVIS-Tools package.
data_Ce2InPt2
_symmetry_space_group_name_H-M  'P4/mbm'
_cell_length_a       3.77503
_cell_length_b       7.86992
_cell_length_c       7.86992
_cell_angle_alpha    90
_cell_angle_beta     90
_cell_angle_gamma    90

_symmetry_Int_Tables_number  127
_chemical_formula_structural  Ce2InPt2
_chemical_formula_sum  Ce4In2Pt4
_cell_volume  233.80854796978022
_cell_formula_units_Z  2
loop_
  _symmetry_equiv_pos_site_id
 _symmetry_equiv_pos_as_xyz
 1  'x, y, z'
loop_
 _atom_site_type_symbol
 _atom_site_label
 _atom_site_symmetry_multiplicity
 _atom_site_fract_x
 _atom_site_fract_y
 _atom_site_fract_z
 _atom_site_fract_occupancy
 Ce  Ce1  1  0.50000  0.82834  0.67166  1
 Ce  Ce2  1  0.50000  0.32834  0.82834  1
 Ce  Ce3  1  0.50000  0.17166  0.32834  1
 Ce  Ce4  1  0.50000  0.67166  0.17166  1
 In  In1  1  0.00000  0.50000  0.50000  1
 In  In2  1  0.00000  0.00000  0.00000  1
 Pt  Pt1  1  0.00000  0.13157  0.63157  1
 Pt  Pt2  1  0.00000  0.63157  0.86843  1
 Pt  Pt3  1  0.00000  0.36843  0.13157  1
 Pt  Pt4  1  0.00000  0.86843  0.36843  1
