CIF file written using JARVIS-Tools package.
data_Li2Co3SnO8
_symmetry_space_group_name_H-M  'R-3m'
_cell_length_a       5.74257
_cell_length_b       5.74257
_cell_length_c       5.95777
_cell_angle_alpha    61.1878
_cell_angle_beta     118.812
_cell_angle_gamma    120

_symmetry_Int_Tables_number  166
_chemical_formula_structural  Li2Co3SnO8
_chemical_formula_sum  Li2Co3SnO8
_cell_volume  141.36759347227965
_cell_formula_units_Z  1
loop_
  _symmetry_equiv_pos_site_id
 _symmetry_equiv_pos_as_xyz
 1  'x, y, z'
loop_
 _atom_site_type_symbol
 _atom_site_label
 _atom_site_symmetry_multiplicity
 _atom_site_fract_x
 _atom_site_fract_y
 _atom_site_fract_z
 _atom_site_fract_occupancy
 Co  Co1  1  0.50000  0.50000  0.00000  1
 Co  Co2  1  0.50000  0.00000  0.00000  1
 Co  Co3  1  -0.00000  0.50000  0.00000  1
 Li  Li1  1  0.88257  0.11743  0.64770  1
 Li  Li2  1  0.11743  0.88257  0.35230  1
 O  O1  1  0.74968  0.71496  0.78439  1
 O  O2  1  0.74968  0.25032  0.78439  1
 O  O3  1  0.26765  0.73235  0.80296  1
 O  O4  1  0.28504  0.25032  0.78439  1
 O  O5  1  0.71496  0.74968  0.21561  1
 O  O6  1  0.73235  0.26765  0.19704  1
 O  O7  1  0.25032  0.74968  0.21561  1
 O  O8  1  0.25032  0.28504  0.21561  1
 Sn  Sn1  1  0.50000  0.50000  0.50000  1
