CIF file written using JARVIS-Tools package.
data_CoI2N6
_symmetry_space_group_name_H-M  'Fm-3m'
_cell_length_a       5.41972
_cell_length_b       5.41972
_cell_length_c       5.41972
_cell_angle_alpha    60
_cell_angle_beta     60
_cell_angle_gamma    60

_symmetry_Int_Tables_number  225
_chemical_formula_structural  CoI2N6
_chemical_formula_sum  CoI2N6
_cell_volume  112.56778096980416
_cell_formula_units_Z  1
loop_
  _symmetry_equiv_pos_site_id
 _symmetry_equiv_pos_as_xyz
 1  'x, y, z'
loop_
 _atom_site_type_symbol
 _atom_site_label
 _atom_site_symmetry_multiplicity
 _atom_site_fract_x
 _atom_site_fract_y
 _atom_site_fract_z
 _atom_site_fract_occupancy
 Co  Co1  1  0.00000  0.00000  0.00000  1
 I  I1  1  0.25000  0.25000  0.25000  1
 I  I2  1  0.75000  0.75000  0.75000  1
 N  N1  1  0.76262  0.23738  0.23738  1
 N  N2  1  0.76262  0.23738  0.76262  1
 N  N3  1  0.76262  0.76262  0.23738  1
 N  N4  1  0.23738  0.76262  0.76262  1
 N  N5  1  0.23738  0.76262  0.23738  1
 N  N6  1  0.23738  0.23738  0.76262  1
