CIF file written using JARVIS-Tools package.
data_Li2ZnGe
_symmetry_space_group_name_H-M  'P6_3/mmc'
_cell_length_a       4.30134
_cell_length_b       4.30134
_cell_length_c       16.3954
_cell_angle_alpha    90
_cell_angle_beta     90
_cell_angle_gamma    120

_symmetry_Int_Tables_number  194
_chemical_formula_structural  Li2ZnGe
_chemical_formula_sum  Li8Zn4Ge4
_cell_volume  262.7006866425545
_cell_formula_units_Z  4
loop_
  _symmetry_equiv_pos_site_id
 _symmetry_equiv_pos_as_xyz
 1  'x, y, z'
loop_
 _atom_site_type_symbol
 _atom_site_label
 _atom_site_symmetry_multiplicity
 _atom_site_fract_x
 _atom_site_fract_y
 _atom_site_fract_z
 _atom_site_fract_occupancy
 Ge  Ge1  1  0.66667  0.33333  0.62503  1
 Ge  Ge2  1  0.66667  0.33333  0.12500  1
 Ge  Ge3  1  0.33333  0.66667  0.87500  1
 Ge  Ge4  1  0.33333  0.66667  0.37497  1
 Li  Li1  1  0.33333  0.66667  0.20912  1
 Li  Li2  1  0.33333  0.66667  0.04080  1
 Li  Li3  1  0.66667  0.33333  0.79088  1
 Li  Li4  1  0.66667  0.33333  0.45915  1
 Li  Li5  1  0.66667  0.33333  0.29083  1
 Li  Li6  1  0.33333  0.66667  0.70917  1
 Li  Li7  1  0.66667  0.33333  0.95920  1
 Li  Li8  1  0.33333  0.66667  0.54085  1
 Zn  Zn1  1  0.00000  0.00000  0.12483  1
 Zn  Zn2  1  0.00000  0.00000  0.62499  1
 Zn  Zn3  1  0.00000  0.00000  0.37501  1
 Zn  Zn4  1  0.00000  0.00000  0.87517  1
