CIF file written using JARVIS-Tools package.
data_KNaLi2S2O8
_symmetry_space_group_name_H-M  'P2_12_12_1'
_cell_length_a       4.93238
_cell_length_b       7.73661
_cell_length_c       18.8262
_cell_angle_alpha    90
_cell_angle_beta     90
_cell_angle_gamma    90

_symmetry_Int_Tables_number  19
_chemical_formula_structural  KNaLi2S2O8
_chemical_formula_sum  K4Na4Li8S8O32
_cell_volume  718.4051577083627
_cell_formula_units_Z  4
loop_
  _symmetry_equiv_pos_site_id
 _symmetry_equiv_pos_as_xyz
 1  'x, y, z'
loop_
 _atom_site_type_symbol
 _atom_site_label
 _atom_site_symmetry_multiplicity
 _atom_site_fract_x
 _atom_site_fract_y
 _atom_site_fract_z
 _atom_site_fract_occupancy
 K  K1  1  0.00317  0.05213  0.07182  1
 K  K2  1  -0.00317  0.55213  0.42818  1
 K  K3  1  0.49683  0.94787  0.57182  1
 K  K4  1  0.50317  0.44787  0.92818  1
 Li  Li1  1  0.51073  0.75064  0.09147  1
 Li  Li2  1  0.98927  0.24936  0.59147  1
 Li  Li3  1  0.46181  0.89386  0.36207  1
 Li  Li4  1  0.03819  0.10614  0.86207  1
 Li  Li5  1  0.96181  0.60614  0.63793  1
 Li  Li6  1  0.53819  0.39386  0.13793  1
 Li  Li7  1  0.01073  0.74936  0.90853  1
 Li  Li8  1  0.48927  0.25064  0.40853  1
 Na  Na1  1  0.01678  0.25099  0.27428  1
 Na  Na2  1  0.98322  0.75099  0.22572  1
 Na  Na3  1  0.48322  0.74901  0.77428  1
 Na  Na4  1  0.51678  0.24901  0.72572  1
 O  O1  1  0.19030  0.46642  0.57454  1
 O  O2  1  0.01625  0.06909  0.52058  1
 O  O3  1  0.48375  0.93091  0.02058  1
 O  O4  1  0.98375  0.56909  0.97942  1
 O  O5  1  0.62903  0.61398  0.57950  1
 O  O6  1  0.12903  0.88602  0.42050  1
 O  O7  1  0.37097  0.11398  0.92050  1
 O  O8  1  0.87097  0.38602  0.07950  1
 O  O9  1  0.36581  0.18881  0.17164  1
 O  O10  1  0.39752  0.80108  0.90468  1
 O  O11  1  0.89752  0.69892  0.09532  1
 O  O12  1  0.63061  0.37458  0.33010  1
 O  O13  1  0.13061  0.12542  0.66990  1
 O  O14  1  0.36939  0.87458  0.16990  1
 O  O15  1  0.86581  0.31119  0.82836  1
 O  O16  1  0.51625  0.43091  0.47942  1
 O  O17  1  0.13419  0.81119  0.67164  1
 O  O18  1  0.10248  0.19892  0.40468  1
 O  O19  1  0.30970  0.53358  0.07454  1
 O  O20  1  0.14930  0.97265  0.78150  1
 O  O21  1  0.63419  0.68881  0.32836  1
 O  O22  1  0.80970  0.96642  0.92546  1
 O  O23  1  0.23053  0.53113  0.28924  1
 O  O24  1  0.69030  0.03358  0.42546  1
 O  O25  1  0.60248  0.30108  0.59532  1
 O  O26  1  0.85070  0.47265  0.71850  1
 O  O27  1  0.73053  0.96887  0.71076  1
 O  O28  1  0.35070  0.02735  0.28150  1
 O  O29  1  0.76947  0.03113  0.21076  1
 O  O30  1  0.26947  0.46887  0.78924  1
 O  O31  1  0.64930  0.52735  0.21850  1
 O  O32  1  0.86939  0.62542  0.83010  1
 S  S1  1  0.46766  0.03065  0.20871  1
 S  S2  1  0.98709  0.04657  0.44248  1
 S  S3  1  0.48709  0.45343  0.55752  1
 S  S4  1  0.96766  0.46935  0.79129  1
 S  S5  1  0.53234  0.53065  0.29129  1
 S  S6  1  0.03234  0.96935  0.70871  1
 S  S7  1  0.01291  0.54657  0.05752  1
 S  S8  1  0.51291  0.95343  0.94248  1
