CIF file written using JARVIS-Tools package.
data_BaCaGaF7
_symmetry_space_group_name_H-M  'P2/c'
_cell_length_a       5.43352
_cell_length_b       5.44887
_cell_length_c       19.2195
_cell_angle_alpha    90
_cell_angle_beta     92.2918
_cell_angle_gamma    90

_symmetry_Int_Tables_number  13
_chemical_formula_structural  BaCaGaF7
_chemical_formula_sum  Ba4Ca4Ga4F28
_cell_volume  568.5683220341288
_cell_formula_units_Z  4
loop_
  _symmetry_equiv_pos_site_id
 _symmetry_equiv_pos_as_xyz
 1  'x, y, z'
loop_
 _atom_site_type_symbol
 _atom_site_label
 _atom_site_symmetry_multiplicity
 _atom_site_fract_x
 _atom_site_fract_y
 _atom_site_fract_z
 _atom_site_fract_occupancy
 Ba  Ba1  1  0.24767  0.23778  0.56830  1
 Ba  Ba2  1  0.25233  0.23778  0.93170  1
 Ba  Ba3  1  0.75233  0.76222  0.43170  1
 Ba  Ba4  1  0.74767  0.76222  0.06830  1
 Ca  Ca1  1  0.25000  0.67603  0.75000  1
 Ca  Ca2  1  0.75000  0.32397  0.25000  1
 Ca  Ca3  1  0.25000  0.79347  0.25000  1
 Ca  Ca4  1  0.75000  0.20653  0.75000  1
 F  F1  1  0.52666  0.02447  0.17775  1
 F  F2  1  0.97334  0.02447  0.32225  1
 F  F3  1  0.47334  0.97553  0.82225  1
 F  F4  1  0.02666  0.97553  0.67775  1
 F  F5  1  0.44252  0.12986  0.31602  1
 F  F6  1  0.56466  0.28245  0.05749  1
 F  F7  1  0.91085  0.59141  0.93974  1
 F  F8  1  0.06466  0.71755  0.55749  1
 F  F9  1  0.58915  0.59141  0.56026  1
 F  F10  1  0.27554  0.93937  0.43620  1
 F  F11  1  0.41085  0.40859  0.43974  1
 F  F12  1  0.08915  0.40859  0.06026  1
 F  F13  1  0.55748  0.87014  0.68398  1
 F  F14  1  0.43534  0.71755  0.94251  1
 F  F15  1  0.22446  0.93937  0.06380  1
 F  F16  1  0.92490  0.62973  0.19108  1
 F  F17  1  0.94252  0.87014  0.81602  1
 F  F18  1  0.77554  0.06063  0.93620  1
 F  F19  1  0.93534  0.28245  0.44251  1
 F  F20  1  0.42318  0.49622  0.17482  1
 F  F21  1  0.92318  0.50378  0.67482  1
 F  F22  1  0.57682  0.50378  0.82518  1
 F  F23  1  0.42490  0.37027  0.69108  1
 F  F24  1  0.07510  0.37027  0.80892  1
 F  F25  1  0.57510  0.62973  0.30892  1
 F  F26  1  0.07682  0.49622  0.32518  1
 F  F27  1  0.72446  0.06063  0.56380  1
 F  F28  1  0.05748  0.12986  0.18398  1
 Ga  Ga1  1  0.29873  0.22653  0.11925  1
 Ga  Ga2  1  0.20127  0.22653  0.38075  1
 Ga  Ga3  1  0.79873  0.77347  0.61925  1
 Ga  Ga4  1  0.70127  0.77347  0.88075  1
