CIF file written using JARVIS-Tools package.
data_Sr2CoSe2Cl2O6
_symmetry_space_group_name_H-M  'P2_1/c'
_cell_length_a       5.38311
_cell_length_b       6.43953
_cell_length_c       12.2806
_cell_angle_alpha    90
_cell_angle_beta     92.9196
_cell_angle_gamma    90

_symmetry_Int_Tables_number  14
_chemical_formula_structural  Sr2CoSe2Cl2O6
_chemical_formula_sum  Sr4Co2Se4Cl4O2
_cell_volume  425.1510076303586
_cell_formula_units_Z  2
loop_
  _symmetry_equiv_pos_site_id
 _symmetry_equiv_pos_as_xyz
 1  'x, y, z'
loop_
 _atom_site_type_symbol
 _atom_site_label
 _atom_site_symmetry_multiplicity
 _atom_site_fract_x
 _atom_site_fract_y
 _atom_site_fract_z
 _atom_site_fract_occupancy
 Cl  Cl1  1  0.45091  0.83092  0.89495  1
 Cl  Cl2  1  0.04909  0.33092  0.60505  1
 Cl  Cl3  1  0.54909  0.16908  0.10505  1
 Cl  Cl4  1  0.95091  0.66908  0.39495  1
 Co  Co1  1  -0.00000  0.00000  0.50000  1
 Co  Co2  1  0.50000  0.50000  0.00000  1
 O  O1  1  0.93778  0.07004  0.82261  1
 O  O2  1  0.27785  0.07372  0.39647  1
 O  O3  1  0.56222  0.57004  0.67739  1
 O  O4  1  0.77785  0.42628  0.89647  1
 O  O5  1  0.72215  0.92628  0.60353  1
 O  O6  1  0.24296  0.87783  0.62121  1
 O  O7  1  0.74296  0.62217  0.12121  1
 O  O8  1  0.43778  0.42996  0.32261  1
 O  O9  1  0.25704  0.37783  0.87879  1
 O  O10  1  0.06222  0.92996  0.17739  1
 O  O11  1  0.75704  0.12217  0.37879  1
 O  O12  1  0.22215  0.57372  0.10353  1
 Se  Se1  1  0.00725  0.23614  0.92791  1
 Se  Se2  1  0.50725  0.26386  0.42791  1
 Se  Se3  1  0.49275  0.73614  0.57209  1
 Se  Se4  1  0.99275  0.76386  0.07209  1
 Sr  Sr1  1  0.51239  0.19716  0.73444  1
 Sr  Sr2  1  0.48761  0.80284  0.26556  1
 Sr  Sr3  1  0.98761  0.69716  0.76556  1
 Sr  Sr4  1  0.01239  0.30284  0.23444  1
