CIF file written using JARVIS-Tools package.
data_Ca2As3Pb3ClO12
_symmetry_space_group_name_H-M  'P6_3/m'
_cell_length_a       10.2904
_cell_length_b       10.2904
_cell_length_c       7.12671
_cell_angle_alpha    90
_cell_angle_beta     90
_cell_angle_gamma    120

_symmetry_Int_Tables_number  176
_chemical_formula_structural  Ca2As3Pb3ClO12
_chemical_formula_sum  Ca4As6Pb6Cl2O24
_cell_volume  653.5521852254576
_cell_formula_units_Z  2
loop_
  _symmetry_equiv_pos_site_id
 _symmetry_equiv_pos_as_xyz
 1  'x, y, z'
loop_
 _atom_site_type_symbol
 _atom_site_label
 _atom_site_symmetry_multiplicity
 _atom_site_fract_x
 _atom_site_fract_y
 _atom_site_fract_z
 _atom_site_fract_occupancy
 As  As1  1  0.96930  0.57787  0.25000  1
 As  As2  1  0.42213  0.39143  0.25000  1
 As  As3  1  0.39143  0.96930  0.75000  1
 As  As4  1  0.57787  0.60857  0.75000  1
 As  As5  1  0.60857  0.03070  0.25000  1
 As  As6  1  0.03070  0.42213  0.75000  1
 Ca  Ca1  1  0.66667  0.33333  0.50542  1
 Ca  Ca2  1  0.66667  0.33333  0.99458  1
 Ca  Ca3  1  0.33333  0.66667  0.49458  1
 Ca  Ca4  1  0.33333  0.66667  0.00542  1
 Cl  Cl1  1  0.00000  0.00000  0.50000  1
 Cl  Cl2  1  0.00000  0.00000  0.00000  1
 O  O1  1  0.63416  0.72585  0.94279  1
 O  O2  1  0.72585  0.09169  0.05721  1
 O  O3  1  0.38301  0.52917  0.75000  1
 O  O4  1  0.14616  0.61699  0.75000  1
 O  O5  1  0.63401  0.47810  0.75000  1
 O  O6  1  0.27415  0.90831  0.94279  1
 O  O7  1  0.72585  0.09169  0.44279  1
 O  O8  1  0.47083  0.85384  0.75000  1
 O  O9  1  0.90831  0.63416  0.05721  1
 O  O10  1  0.15591  0.63401  0.25000  1
 O  O11  1  0.52917  0.14616  0.25000  1
 O  O12  1  0.36584  0.27415  0.44279  1
 O  O13  1  0.09169  0.36584  0.55721  1
 O  O14  1  0.63416  0.72585  0.55721  1
 O  O15  1  0.61699  0.47083  0.25000  1
 O  O16  1  0.09169  0.36584  0.94279  1
 O  O17  1  0.85384  0.38301  0.25000  1
 O  O18  1  0.47810  0.84409  0.25000  1
 O  O19  1  0.36584  0.27415  0.05721  1
 O  O20  1  0.36599  0.52190  0.25000  1
 O  O21  1  0.90831  0.63416  0.44279  1
 O  O22  1  0.84409  0.36599  0.75000  1
 O  O23  1  0.27415  0.90831  0.55721  1
 O  O24  1  0.52190  0.15591  0.75000  1
 Pb  Pb1  1  0.76257  0.74087  0.25000  1
 Pb  Pb2  1  0.23743  0.25913  0.75000  1
 Pb  Pb3  1  0.02170  0.76257  0.75000  1
 Pb  Pb4  1  0.97830  0.23743  0.25000  1
 Pb  Pb5  1  0.74087  0.97830  0.75000  1
 Pb  Pb6  1  0.25913  0.02170  0.25000  1
