CIF file written using JARVIS-Tools package.
data_Bi2Pd3S2
_symmetry_space_group_name_H-M  'R-3m'
_cell_length_a       5.74432
_cell_length_b       5.74432
_cell_length_c       5.74433
_cell_angle_alpha    65.0913
_cell_angle_beta     65.0912
_cell_angle_gamma    65.0913

_symmetry_Int_Tables_number  166
_chemical_formula_structural  Bi2Pd3S2
_chemical_formula_sum  Bi2Pd3S2
_cell_volume  148.9190883098605
_cell_formula_units_Z  1
loop_
  _symmetry_equiv_pos_site_id
 _symmetry_equiv_pos_as_xyz
 1  'x, y, z'
loop_
 _atom_site_type_symbol
 _atom_site_label
 _atom_site_symmetry_multiplicity
 _atom_site_fract_x
 _atom_site_fract_y
 _atom_site_fract_z
 _atom_site_fract_occupancy
 Bi  Bi1  1  0.00000  0.00000  0.00000  1
 Bi  Bi2  1  0.50000  0.50000  0.50000  1
 Pd  Pd1  1  0.00000  0.50000  -0.00000  1
 Pd  Pd2  1  0.50000  0.00000  0.00000  1
 Pd  Pd3  1  0.00000  0.00000  0.50000  1
 S  S1  1  0.71835  0.71835  0.71835  1
 S  S2  1  0.28165  0.28165  0.28165  1
