CIF file written using JARVIS-Tools package.
data_IBr
_symmetry_space_group_name_H-M  'Cmcm'
_cell_length_a       4.23934
_cell_length_b       4.23934
_cell_length_c       8.80178
_cell_angle_alpha    90
_cell_angle_beta     90
_cell_angle_gamma    110.815

_symmetry_Int_Tables_number  63
_chemical_formula_structural  IBr
_chemical_formula_sum  I2Br2
_cell_volume  147.86089635269803
_cell_formula_units_Z  2
loop_
  _symmetry_equiv_pos_site_id
 _symmetry_equiv_pos_as_xyz
 1  'x, y, z'
loop_
 _atom_site_type_symbol
 _atom_site_label
 _atom_site_symmetry_multiplicity
 _atom_site_fract_x
 _atom_site_fract_y
 _atom_site_fract_z
 _atom_site_fract_occupancy
 Br  Br1  1  0.84350  0.84350  0.37545  1
 Br  Br2  1  0.15650  0.15650  0.87545  1
 I  I1  1  0.50000  0.50000  0.62545  1
 I  I2  1  0.50000  0.50000  0.12545  1
