CIF file written using JARVIS-Tools package.
data_SrH16O10
_symmetry_space_group_name_H-M  'P1'
_cell_length_a       6.10872
_cell_length_b       6.25321
_cell_length_c       11.3419
_cell_angle_alpha    85.1888
_cell_angle_beta     93.5666
_cell_angle_gamma    90.3289

_symmetry_Int_Tables_number  1
_chemical_formula_structural  SrH16O10
_chemical_formula_sum  Sr2H32O20
_cell_volume  430.88783239128355
_cell_formula_units_Z  2
loop_
  _symmetry_equiv_pos_site_id
 _symmetry_equiv_pos_as_xyz
 1  'x, y, z'
loop_
 _atom_site_type_symbol
 _atom_site_label
 _atom_site_symmetry_multiplicity
 _atom_site_fract_x
 _atom_site_fract_y
 _atom_site_fract_z
 _atom_site_fract_occupancy
 H  H1  1  0.67502  0.65842  0.38819  1
 H  H2  1  0.26797  0.17903  0.77529  1
 H  H3  1  0.40321  0.22704  0.89470  1
 H  H4  1  0.30017  0.57107  0.89723  1
 H  H5  1  0.20669  0.70921  0.78108  1
 H  H6  1  0.74234  0.34831  0.89439  1
 H  H7  1  0.97905  0.40299  0.84950  1
 H  H8  1  0.34872  0.75809  0.39178  1
 H  H9  1  0.39222  0.00147  0.34667  1
 H  H10  1  0.57560  0.30910  0.37934  1
 H  H11  1  0.71849  0.21313  0.28248  1
 H  H12  1  0.92218  0.60697  0.37431  1
 H  H13  1  0.22932  0.42540  0.39677  1
 H  H14  1  0.62661  0.67987  0.88706  1
 H  H15  1  0.56180  0.92278  0.84292  1
 H  H16  1  0.18499  0.75743  0.22460  1
 H  H17  1  0.02674  0.35187  0.30464  1
 H  H18  1  0.70907  0.60830  0.60296  1
 H  H19  1  0.26888  0.38080  0.60584  1
 H  H20  1  0.03531  0.42122  0.65285  1
 H  H21  1  0.37092  0.71640  0.60452  1
 H  H22  1  0.80056  0.72287  0.71490  1
 H  H23  1  0.73783  0.17838  0.71393  1
 H  H24  1  0.59778  0.28110  0.60089  1
 H  H25  1  0.06882  0.55542  0.16370  1
 H  H26  1  0.43216  -0.05459  0.64771  1
 H  H27  1  0.03206  0.22821  0.15625  1
 H  H28  1  0.74131  0.83187  0.21226  1
 H  H29  1  0.62019  0.72617  0.10610  1
 H  H30  1  0.38559  0.26854  0.10320  1
 H  H31  1  0.43228  0.02355  0.12892  1
 H  H32  1  0.72182  0.39490  0.09830  1
 O  O1  1  0.46420  0.52630  0.42445  1
 O  O2  1  0.53662  0.45479  0.94016  1
 O  O3  1  0.68166  0.86683  0.12890  1
 O  O4  1  0.48003  0.50272  0.55741  1
 O  O5  1  0.56748  0.46596  0.07084  1
 O  O6  1  0.07230  0.37084  0.39083  1
 O  O7  1  0.81780  0.73080  0.36482  1
 O  O8  1  0.63773  0.17108  0.35458  1
 O  O9  1  0.27158  0.89749  0.36228  1
 O  O10  1  0.16203  0.64166  0.85865  1
 O  O11  1  0.30874  0.12686  0.11080  1
 O  O12  1  0.68805  0.82153  0.85228  1
 O  O13  1  0.84795  0.67144  0.64022  1
 O  O14  1  0.14254  0.30487  0.64679  1
 O  O15  1  0.30749  0.84392  0.64058  1
 O  O16  1  0.66966  0.14135  0.63689  1
 O  O17  1  0.15836  0.68989  0.14921  1
 O  O18  1  0.33506  0.10781  0.85136  1
 O  O19  1  0.87434  0.28209  0.86050  1
 O  O20  1  0.91764  0.32666  0.17507  1
 Sr  Sr1  1  0.01938  0.94099  -0.02001  1
 Sr  Sr2  1  0.97198  0.01330  0.50241  1
