CIF file written using JARVIS-Tools package.
data_CaAsH5O6
_symmetry_space_group_name_H-M  'Cc'
_cell_length_a       6.21936
_cell_length_b       9.18059
_cell_length_c       5.94332
_cell_angle_alpha    81.2383
_cell_angle_beta     116.725
_cell_angle_gamma    109.799

_symmetry_Int_Tables_number  9
_chemical_formula_structural  CaAsH5O6
_chemical_formula_sum  Ca2As2H0O2
_cell_volume  285.18147586778053
_cell_formula_units_Z  2
loop_
  _symmetry_equiv_pos_site_id
 _symmetry_equiv_pos_as_xyz
 1  'x, y, z'
loop_
 _atom_site_type_symbol
 _atom_site_label
 _atom_site_symmetry_multiplicity
 _atom_site_fract_x
 _atom_site_fract_y
 _atom_site_fract_z
 _atom_site_fract_occupancy
 As  As1  1  0.50932  0.62474  0.90960  1
 As  As2  1  0.88458  0.37526  0.40960  1
 Ca  Ca1  1  0.22440  0.68452  0.22245  1
 Ca  Ca2  1  0.53988  0.31548  0.72245  1
 H  H1  1  0.16360  -0.00953  0.76639  1
 H  H2  1  0.17313  0.00953  0.26639  1
 H  H3  1  0.43408  0.21264  0.21029  1
 H  H4  1  0.05550  0.13160  0.73021  1
 H  H5  1  -0.04714  0.71582  0.72105  1
 H  H6  1  0.22144  0.78736  0.71029  1
 H  H7  1  0.70225  0.65100  0.32326  1
 H  H8  1  0.23704  0.28418  0.22105  1
 H  H9  1  0.92390  0.86840  0.23021  1
 H  H10  1  0.05125  0.34900  0.82326  1
 O  O1  1  0.74889  0.56012  0.93865  1
 O  O2  1  0.11852  0.79493  0.79791  1
 O  O3  1  0.09706  0.89533  0.24341  1
 O  O4  1  0.26585  0.49040  0.96075  1
 O  O5  1  0.18876  0.43988  0.43865  1
 O  O6  1  0.63051  0.73383  0.19739  1
 O  O7  1  0.32359  0.20507  0.29791  1
 O  O8  1  0.77545  0.50960  0.46075  1
 O  O9  1  0.89668  0.26617  0.69739  1
 O  O10  1  0.20173  0.10467  0.74341  1
 O  O11  1  0.43737  0.74853  0.66349  1
 O  O12  1  0.68884  0.25147  0.16349  1
