CIF file written using JARVIS-Tools package.
data_Li3Cr2Ni2O8
_symmetry_space_group_name_H-M  'P-1'
_cell_length_a       5.7446
_cell_length_b       5.75181
_cell_length_c       5.8038
_cell_angle_alpha    60.0025
_cell_angle_beta     60.3307
_cell_angle_gamma    59.8449

_symmetry_Int_Tables_number  2
_chemical_formula_structural  Li3Cr2Ni2O8
_chemical_formula_sum  Li3Cr2Ni2O8
_cell_volume  135.77776364312587
_cell_formula_units_Z  1
loop_
  _symmetry_equiv_pos_site_id
 _symmetry_equiv_pos_as_xyz
 1  'x, y, z'
loop_
 _atom_site_type_symbol
 _atom_site_label
 _atom_site_symmetry_multiplicity
 _atom_site_fract_x
 _atom_site_fract_y
 _atom_site_fract_z
 _atom_site_fract_occupancy
 Cr  Cr1  1  0.50000  0.50000  0.00000  1
 Cr  Cr2  1  0.00000  0.00000  0.00000  1
 Li  Li1  1  0.00000  0.00000  0.50000  1
 Li  Li2  1  0.00000  0.50000  0.00000  1
 Li  Li3  1  0.50000  0.50000  0.50000  1
 Ni  Ni1  1  0.50000  0.00000  0.50000  1
 Ni  Ni2  1  0.50000  0.00000  -0.00000  1
 O  O1  1  0.71199  0.76646  0.76467  1
 O  O2  1  0.73217  0.23559  0.77999  1
 O  O3  1  0.25584  0.21859  0.77386  1
 O  O4  1  0.75215  0.24826  0.23308  1
 O  O5  1  0.24785  0.75174  0.76692  1
 O  O6  1  0.74416  0.78141  0.22614  1
 O  O7  1  0.26783  0.76441  0.22001  1
 O  O8  1  0.28801  0.23354  0.23533  1
