CIF file written using JARVIS-Tools package.
data_CaH12I2O14
_symmetry_space_group_name_H-M  'C2/c'
_cell_length_a       10.3989
_cell_length_b       10.3989
_cell_length_c       11.3565
_cell_angle_alpha    60.8891
_cell_angle_beta     119.111
_cell_angle_gamma    149.15

_symmetry_Int_Tables_number  15
_chemical_formula_structural  CaH12I2O14
_chemical_formula_sum  Ca2H24I4O28
_cell_volume  543.6552991756695
_cell_formula_units_Z  2
loop_
  _symmetry_equiv_pos_site_id
 _symmetry_equiv_pos_as_xyz
 1  'x, y, z'
loop_
 _atom_site_type_symbol
 _atom_site_label
 _atom_site_symmetry_multiplicity
 _atom_site_fract_x
 _atom_site_fract_y
 _atom_site_fract_z
 _atom_site_fract_occupancy
 Ca  Ca1  1  0.56773  0.56773  0.75000  1
 Ca  Ca2  1  0.43227  0.43227  0.25000  1
 H  H1  1  0.35680  0.84025  0.19017  1
 H  H2  1  0.84025  0.35680  0.30983  1
 H  H3  1  0.64320  0.15975  0.80983  1
 H  H4  1  0.15975  0.64320  0.69017  1
 H  H5  1  0.48396  0.14764  0.98330  1
 H  H6  1  0.14764  0.48396  0.51670  1
 H  H7  1  0.51604  0.85236  0.01670  1
 H  H8  1  0.85236  0.51604  0.48330  1
 H  H9  1  0.78876  0.71863  0.53567  1
 H  H10  1  0.71863  0.78876  0.96433  1
 H  H11  1  0.21124  0.28137  0.46433  1
 H  H12  1  0.28137  0.21124  0.03567  1
 H  H13  1  0.88061  0.64438  0.67128  1
 H  H14  1  0.64438  0.88061  0.82872  1
 H  H15  1  0.11939  0.35562  0.32872  1
 H  H16  1  0.35562  0.11939  0.17128  1
 H  H17  1  0.21558  0.37817  0.85015  1
 H  H18  1  0.37817  0.21558  0.64985  1
 H  H19  1  0.78442  0.62183  0.14985  1
 H  H20  1  0.62183  0.78442  0.35015  1
 H  H21  1  0.04380  0.11132  0.84493  1
 H  H22  1  0.11132  0.04380  0.65507  1
 H  H23  1  0.95620  0.88868  0.15507  1
 H  H24  1  0.88868  0.95620  0.34493  1
 I  I1  1  0.58485  0.94059  0.47817  1
 I  I2  1  0.94059  0.58485  0.02183  1
 I  I3  1  0.41515  0.05941  0.52183  1
 I  I4  1  0.05941  0.41515  0.97817  1
 O  O1  1  0.31485  0.59773  0.57925  1
 O  O2  1  0.96166  0.79691  0.90647  1
 O  O3  1  0.79691  0.96166  0.59353  1
 O  O4  1  0.03834  0.20309  0.09353  1
 O  O5  1  0.20309  0.03834  0.40647  1
 O  O6  1  0.81694  0.47778  0.16554  1
 O  O7  1  0.47778  0.81694  0.33446  1
 O  O8  1  0.18306  0.52222  0.83446  1
 O  O9  1  0.52222  0.18306  0.66554  1
 O  O10  1  0.29591  0.87916  0.09710  1
 O  O11  1  0.87916  0.29591  0.40290  1
 O  O12  1  0.70409  0.12084  0.90290  1
 O  O13  1  0.12084  0.70409  0.59710  1
 O  O14  1  0.40227  0.68515  0.07925  1
 O  O15  1  0.68515  0.40227  0.42075  1
 O  O16  1  0.06329  0.63758  0.88566  1
 O  O17  1  0.63758  0.06329  0.61434  1
 O  O18  1  0.93671  0.36242  0.11434  1
 O  O19  1  0.36242  0.93671  0.38566  1
 O  O20  1  0.82779  0.70279  0.63731  1
 O  O21  1  0.70279  0.82779  0.86269  1
 O  O22  1  0.17221  0.29721  0.36269  1
 O  O23  1  0.29721  0.17221  0.13731  1
 O  O24  1  0.22448  0.28447  0.86103  1
 O  O25  1  0.28447  0.22448  0.63897  1
 O  O26  1  0.77552  0.71553  0.13897  1
 O  O27  1  0.59773  0.31485  0.92075  1
 O  O28  1  0.71553  0.77552  0.36103  1
