CIF file written using JARVIS-Tools package.
data_Li8BiS6
_symmetry_space_group_name_H-M  'R-3'
_cell_length_a       6.86698
_cell_length_b       7.53114
_cell_length_c       6.86698
_cell_angle_alpha    117.123
_cell_angle_beta     60
_cell_angle_gamma    117.123

_symmetry_Int_Tables_number  148
_chemical_formula_structural  Li8BiS6
_chemical_formula_sum  Li8BiS6
_cell_volume  261.48792773476913
_cell_formula_units_Z  1
loop_
  _symmetry_equiv_pos_site_id
 _symmetry_equiv_pos_as_xyz
 1  'x, y, z'
loop_
 _atom_site_type_symbol
 _atom_site_label
 _atom_site_symmetry_multiplicity
 _atom_site_fract_x
 _atom_site_fract_y
 _atom_site_fract_z
 _atom_site_fract_occupancy
 Bi  Bi1  1  0.00000  0.00000  0.00000  1
 Li  Li1  1  0.11061  0.36620  0.46840  1
 Li  Li2  1  0.53160  0.63380  0.21281  1
 Li  Li3  1  0.21281  0.63380  0.88939  1
 Li  Li4  1  0.34152  0.02456  0.34152  1
 Li  Li5  1  0.65848  0.97544  0.65848  1
 Li  Li6  1  0.78719  0.36620  0.11061  1
 Li  Li7  1  0.46840  0.36620  0.78719  1
 Li  Li8  1  0.88939  0.63380  0.53160  1
 S  S1  1  0.25068  0.75127  0.59285  1
 S  S2  1  0.40715  0.24873  0.09226  1
 S  S3  1  0.09226  0.24873  0.74932  1
 S  S4  1  0.90774  0.75127  0.25068  1
 S  S5  1  0.59285  0.75127  0.90774  1
 S  S6  1  0.74932  0.24873  0.40715  1
