CIF file written using JARVIS-Tools package.
data_Li3Mg
_symmetry_space_group_name_H-M  'Immm'
_cell_length_a       3.36243
_cell_length_b       9.6981
_cell_length_c       4.88048
_cell_angle_alpha    90
_cell_angle_beta     90
_cell_angle_gamma    90

_symmetry_Int_Tables_number  71
_chemical_formula_structural  Li3Mg
_chemical_formula_sum  Li6Mg2
_cell_volume  159.14838060742983
_cell_formula_units_Z  2
loop_
  _symmetry_equiv_pos_site_id
 _symmetry_equiv_pos_as_xyz
 1  'x, y, z'
loop_
 _atom_site_type_symbol
 _atom_site_label
 _atom_site_symmetry_multiplicity
 _atom_site_fract_x
 _atom_site_fract_y
 _atom_site_fract_z
 _atom_site_fract_occupancy
 Li  Li1  1  0.50000  0.00000  0.91682  1
 Li  Li2  1  0.00000  0.24174  0.91652  1
 Li  Li3  1  0.50000  0.25826  0.41652  1
 Li  Li4  1  0.00000  0.50000  0.41682  1
 Li  Li5  1  0.50000  0.74174  0.41652  1
 Li  Li6  1  0.00000  0.75826  0.91652  1
 Mg  Mg1  1  0.00000  0.00000  0.41680  1
 Mg  Mg2  1  0.50000  0.50000  0.91680  1
