CIF file written using JARVIS-Tools package.
data_Ta2CrNO5
_symmetry_space_group_name_H-M  'Pc'
_cell_length_a       4.74299
_cell_length_b       4.75121
_cell_length_c       10.1915
_cell_angle_alpha    90
_cell_angle_beta     117.546
_cell_angle_gamma    90

_symmetry_Int_Tables_number  7
_chemical_formula_structural  Ta2CrNO5
_chemical_formula_sum  Ta4Cr2N2O0
_cell_volume  203.62979045590464
_cell_formula_units_Z  2
loop_
  _symmetry_equiv_pos_site_id
 _symmetry_equiv_pos_as_xyz
 1  'x, y, z'
loop_
 _atom_site_type_symbol
 _atom_site_label
 _atom_site_symmetry_multiplicity
 _atom_site_fract_x
 _atom_site_fract_y
 _atom_site_fract_z
 _atom_site_fract_occupancy
 Cr  Cr1  1  -0.00139  0.24996  0.99479  1
 Cr  Cr2  1  -0.00139  0.75004  0.49479  1
 N  N1  1  0.03937  0.94500  0.33998  1
 N  N2  1  0.03937  0.05500  0.83998  1
 O  O1  1  0.36351  0.94332  0.66292  1
 O  O2  1  0.36351  0.05668  0.16292  1
 O  O3  1  0.63576  0.44571  0.83437  1
 O  O4  1  0.96627  0.44844  0.16377  1
 O  O5  1  0.29835  0.45055  0.49763  1
 O  O6  1  0.96627  0.55156  0.66377  1
 O  O7  1  0.69962  0.05501  0.49938  1
 O  O8  1  0.69962  0.94499  0.99938  1
 O  O9  1  0.63576  0.55429  0.33437  1
 O  O10  1  0.29835  0.54945  0.99763  1
 Ta  Ta1  1  0.31680  0.75641  0.83120  1
 Ta  Ta2  1  0.68171  0.75822  0.17596  1
 Ta  Ta3  1  0.68171  0.24178  0.67596  1
 Ta  Ta4  1  0.31680  0.24359  0.33120  1
