CIF file written using JARVIS-Tools package.
data_Dy6Fe16O
_symmetry_space_group_name_H-M  'Im-3m'
_cell_length_a       7.51962
_cell_length_b       7.51962
_cell_length_c       7.51962
_cell_angle_alpha    109.471
_cell_angle_beta     109.471
_cell_angle_gamma    109.471

_symmetry_Int_Tables_number  229
_chemical_formula_structural  Dy6Fe16O
_chemical_formula_sum  Dy6Fe6O
_cell_volume  327.3152283135357
_cell_formula_units_Z  1
loop_
  _symmetry_equiv_pos_site_id
 _symmetry_equiv_pos_as_xyz
 1  'x, y, z'
loop_
 _atom_site_type_symbol
 _atom_site_label
 _atom_site_symmetry_multiplicity
 _atom_site_fract_x
 _atom_site_fract_y
 _atom_site_fract_z
 _atom_site_fract_occupancy
 Dy  Dy1  1  0.00000  0.27532  0.27532  1
 Dy  Dy2  1  0.27532  0.00000  0.27532  1
 Dy  Dy3  1  0.72468  -0.00000  0.72468  1
 Dy  Dy4  1  0.72468  0.72468  -0.00000  1
 Dy  Dy5  1  0.27532  0.27532  0.00000  1
 Dy  Dy6  1  -0.00000  0.72468  0.72468  1
 Fe  Fe1  1  0.50000  0.50000  0.50000  1
 Fe  Fe2  1  0.50000  0.00000  0.00000  1
 Fe  Fe3  1  -0.00000  0.50000  0.00000  1
 Fe  Fe4  1  0.00000  0.00000  0.50000  1
 Fe  Fe5  1  0.33285  0.66643  0.66643  1
 Fe  Fe6  1  0.66715  0.33357  0.33357  1
 Fe  Fe7  1  0.66643  0.33285  0.66643  1
 Fe  Fe8  1  -0.00000  0.66643  0.33357  1
 Fe  Fe9  1  0.66643  0.33357  -0.00000  1
 Fe  Fe10  1  0.66643  0.66643  0.33285  1
 Fe  Fe11  1  0.00000  0.33357  0.66643  1
 Fe  Fe12  1  0.33357  0.33357  0.66715  1
 Fe  Fe13  1  0.33357  0.00000  0.66643  1
 Fe  Fe14  1  0.33357  0.66643  0.00000  1
 Fe  Fe15  1  0.33357  0.66715  0.33357  1
 Fe  Fe16  1  0.66643  -0.00000  0.33357  1
 O  O1  1  0.00000  0.00000  0.00000  1
