CIF file written using JARVIS-Tools package.
data_Pr2TeO2
_symmetry_space_group_name_H-M  'I4/mmm'
_cell_length_a       4.09777
_cell_length_b       4.09778
_cell_length_c       7.12128
_cell_angle_alpha    106.721
_cell_angle_beta     106.721
_cell_angle_gamma    90

_symmetry_Int_Tables_number  139
_chemical_formula_structural  Pr2TeO2
_chemical_formula_sum  Pr2TeO2
_cell_volume  109.23273408165852
_cell_formula_units_Z  1
loop_
  _symmetry_equiv_pos_site_id
 _symmetry_equiv_pos_as_xyz
 1  'x, y, z'
loop_
 _atom_site_type_symbol
 _atom_site_label
 _atom_site_symmetry_multiplicity
 _atom_site_fract_x
 _atom_site_fract_y
 _atom_site_fract_z
 _atom_site_fract_occupancy
 O  O1  1  0.25000  0.75000  0.50000  1
 O  O2  1  0.75000  0.25000  0.50000  1
 Pr  Pr1  1  0.65866  0.65866  0.31733  1
 Pr  Pr2  1  0.34134  0.34134  0.68267  1
 Te  Te1  1  0.00000  0.00000  0.00000  1
