CIF file written using JARVIS-Tools package.
data_KSn2Se4
_symmetry_space_group_name_H-M  'Cm'
_cell_length_a       6.48075
_cell_length_b       7.46081
_cell_length_c       10.1226
_cell_angle_alpha    88.076
_cell_angle_beta     71.3302
_cell_angle_gamma    83.9796

_symmetry_Int_Tables_number  8
_chemical_formula_structural  KSn2Se4
_chemical_formula_sum  K2Sn4Se8
_cell_volume  461.1300302066432
_cell_formula_units_Z  2
loop_
  _symmetry_equiv_pos_site_id
 _symmetry_equiv_pos_as_xyz
 1  'x, y, z'
loop_
 _atom_site_type_symbol
 _atom_site_label
 _atom_site_symmetry_multiplicity
 _atom_site_fract_x
 _atom_site_fract_y
 _atom_site_fract_z
 _atom_site_fract_occupancy
 K  K1  1  0.96372  0.03204  0.68407  1
 K  K2  1  0.64780  0.03204  0.31593  1
 Se  Se1  1  0.89221  0.53706  0.62737  1
 Se  Se2  1  0.51957  0.53706  0.37263  1
 Se  Se3  1  0.64689  0.88407  0.00000  1
 Se  Se4  1  0.03674  0.65532  0.19437  1
 Se  Se5  1  0.63843  0.32893  0.00000  1
 Se  Se6  1  0.46277  0.11511  0.67193  1
 Se  Se7  1  0.13471  0.11511  0.32807  1
 Se  Se8  1  0.23111  0.65532  0.80563  1
 Sn  Sn1  1  0.41774  0.62914  0.00000  1
 Sn  Sn2  1  0.13925  0.44346  0.37732  1
 Sn  Sn3  1  0.51658  0.44346  0.62268  1
 Sn  Sn4  1  0.30548  0.13527  -0.00000  1
