CIF file written using JARVIS-Tools package.
data_SrCaI4
_symmetry_space_group_name_H-M  'P2_1/c'
_cell_length_a       7.99423
_cell_length_b       7.81841
_cell_length_c       16.838
_cell_angle_alpha    90
_cell_angle_beta     106.08
_cell_angle_gamma    90

_symmetry_Int_Tables_number  14
_chemical_formula_structural  SrCaI4
_chemical_formula_sum  Sr4Ca4I6
_cell_volume  1011.2391025943064
_cell_formula_units_Z  4
loop_
  _symmetry_equiv_pos_site_id
 _symmetry_equiv_pos_as_xyz
 1  'x, y, z'
loop_
 _atom_site_type_symbol
 _atom_site_label
 _atom_site_symmetry_multiplicity
 _atom_site_fract_x
 _atom_site_fract_y
 _atom_site_fract_z
 _atom_site_fract_occupancy
 Ca  Ca1  1  0.19854  0.33739  0.59586  1
 Ca  Ca2  1  0.19854  0.16261  0.09586  1
 Ca  Ca3  1  0.80146  0.83739  0.90414  1
 Ca  Ca4  1  0.80146  0.66261  0.40414  1
 I  I1  1  0.50986  0.74754  0.48067  1
 I  I2  1  0.95228  0.17617  0.68026  1
 I  I3  1  0.95228  0.32383  0.18026  1
 I  I4  1  0.05182  0.70444  0.58094  1
 I  I5  1  0.04772  0.67617  0.81974  1
 I  I6  1  0.46294  0.39536  0.76673  1
 I  I7  1  0.49014  0.25246  0.51933  1
 I  I8  1  0.05182  0.79556  0.08094  1
 I  I9  1  0.50986  0.75246  0.98067  1
 I  I10  1  0.04772  0.82383  0.31974  1
 I  I11  1  0.53706  0.89536  0.73327  1
 I  I12  1  0.46294  0.10464  0.26673  1
 I  I13  1  0.53706  0.60464  0.23327  1
 I  I14  1  0.94818  0.20444  0.91906  1
 I  I15  1  0.94818  0.29556  0.41906  1
 I  I16  1  0.49014  0.24754  0.01933  1
 Sr  Sr1  1  0.72155  0.94505  0.15747  1
 Sr  Sr2  1  0.72155  0.55495  0.65747  1
 Sr  Sr3  1  0.27845  0.44505  0.34253  1
 Sr  Sr4  1  0.27845  0.05495  0.84253  1
