CIF file written using JARVIS-Tools package.
data_BC2N
_symmetry_space_group_name_H-M  'C2'
_cell_length_a       4.394
_cell_length_b       4.3942
_cell_length_c       4.26016
_cell_angle_alpha    71.0179
_cell_angle_beta     108.979
_cell_angle_gamma    110.651

_symmetry_Int_Tables_number  5
_chemical_formula_structural  BC2N
_chemical_formula_sum  B2C4N2
_cell_volume  70.69506495642999
_cell_formula_units_Z  2
loop_
  _symmetry_equiv_pos_site_id
 _symmetry_equiv_pos_as_xyz
 1  'x, y, z'
loop_
 _atom_site_type_symbol
 _atom_site_label
 _atom_site_symmetry_multiplicity
 _atom_site_fract_x
 _atom_site_fract_y
 _atom_site_fract_z
 _atom_site_fract_occupancy
 B  B1  1  0.28110  0.20984  0.19702  1
 B  B2  1  0.45983  0.03111  0.55299  1
 C  C1  1  0.45908  0.55204  0.03195  1
 C  C2  1  0.96394  0.53973  0.54812  1
 C  C3  1  0.78974  0.71393  0.20187  1
 C  C4  1  0.80205  0.20907  0.71805  1
 N  N1  1  0.95379  0.04049  0.03697  1
 N  N2  1  0.29049  0.70379  0.71302  1
