CIF file written using JARVIS-Tools package.
data_Ta4BeTc
_symmetry_space_group_name_H-M  'F-43m'
_cell_length_a       5.31852
_cell_length_b       5.31852
_cell_length_c       5.31852
_cell_angle_alpha    60
_cell_angle_beta     60
_cell_angle_gamma    60

_symmetry_Int_Tables_number  216
_chemical_formula_structural  Ta4BeTc
_chemical_formula_sum  Ta4BeTc
_cell_volume  106.37897220471639
_cell_formula_units_Z  1
loop_
  _symmetry_equiv_pos_site_id
 _symmetry_equiv_pos_as_xyz
 1  'x, y, z'
loop_
 _atom_site_type_symbol
 _atom_site_label
 _atom_site_symmetry_multiplicity
 _atom_site_fract_x
 _atom_site_fract_y
 _atom_site_fract_z
 _atom_site_fract_occupancy
 Be  Be1  1  0.00000  0.00000  0.00000  1
 Ta  Ta1  1  0.12634  0.62455  0.62455  1
 Ta  Ta2  1  0.62455  0.62455  0.62455  1
 Ta  Ta3  1  0.62455  0.12634  0.62455  1
 Ta  Ta4  1  0.62455  0.62455  0.12634  1
 Tc  Tc1  1  0.25000  0.25000  0.25000  1
