CIF file written using JARVIS-Tools package.
data_Yb2Si2O7
_symmetry_space_group_name_H-M  'C2/m'
_cell_length_a       4.86503
_cell_length_b       5.68603
_cell_length_c       5.68604
_cell_angle_alpha    104.872
_cell_angle_beta     96.787
_cell_angle_gamma    96.7869

_symmetry_Int_Tables_number  12
_chemical_formula_structural  Yb2Si2O7
_chemical_formula_sum  Yb2Si2O7
_cell_volume  149.13858196812149
_cell_formula_units_Z  1
loop_
  _symmetry_equiv_pos_site_id
 _symmetry_equiv_pos_as_xyz
 1  'x, y, z'
loop_
 _atom_site_type_symbol
 _atom_site_label
 _atom_site_symmetry_multiplicity
 _atom_site_fract_x
 _atom_site_fract_y
 _atom_site_fract_z
 _atom_site_fract_occupancy
 O  O1  1  0.22757  0.38091  0.09698  1
 O  O2  1  0.77243  0.90302  0.61909  1
 O  O3  1  0.22759  0.08601  0.39188  1
 O  O4  1  0.77241  0.60812  0.91399  1
 O  O5  1  0.50000  0.99452  0.00548  1
 O  O6  1  0.28556  0.62048  0.63144  1
 O  O7  1  0.71444  0.36856  0.37952  1
 Si  Si1  1  0.41543  0.21401  0.22497  1
 Si  Si2  1  0.58457  0.77503  0.78599  1
 Yb  Yb1  1  0.00000  0.29961  0.70039  1
 Yb  Yb2  1  -0.00000  0.68943  0.31057  1
