CIF file written using JARVIS-Tools package.
data_MnSn3
_symmetry_space_group_name_H-M  'P6_3/mmc'
_cell_length_a       6.39844
_cell_length_b       6.39844
_cell_length_c       5.50691
_cell_angle_alpha    90
_cell_angle_beta     90
_cell_angle_gamma    120

_symmetry_Int_Tables_number  194
_chemical_formula_structural  MnSn3
_chemical_formula_sum  Mn2Sn6
_cell_volume  195.24767487304015
_cell_formula_units_Z  2
loop_
  _symmetry_equiv_pos_site_id
 _symmetry_equiv_pos_as_xyz
 1  'x, y, z'
loop_
 _atom_site_type_symbol
 _atom_site_label
 _atom_site_symmetry_multiplicity
 _atom_site_fract_x
 _atom_site_fract_y
 _atom_site_fract_z
 _atom_site_fract_occupancy
 Mn  Mn1  1  0.33333  0.66667  0.75000  1
 Mn  Mn2  1  0.66667  0.33333  0.25000  1
 Sn  Sn1  1  0.65785  0.82893  0.25000  1
 Sn  Sn2  1  0.17107  0.82893  0.25000  1
 Sn  Sn3  1  0.17107  0.34215  0.25000  1
 Sn  Sn4  1  0.34215  0.17107  0.75000  1
 Sn  Sn5  1  0.82893  0.17107  0.75000  1
 Sn  Sn6  1  0.82893  0.65785  0.75000  1
