CIF file written using JARVIS-Tools package.
data_ZrSn
_symmetry_space_group_name_H-M  'P-6m2'
_cell_length_a       6.38175
_cell_length_b       6.38176
_cell_length_c       5.2677
_cell_angle_alpha    90
_cell_angle_beta     90
_cell_angle_gamma    120

_symmetry_Int_Tables_number  187
_chemical_formula_structural  ZrSn
_chemical_formula_sum  Zr4Sn4
_cell_volume  185.79377099535745
_cell_formula_units_Z  4
loop_
  _symmetry_equiv_pos_site_id
 _symmetry_equiv_pos_as_xyz
 1  'x, y, z'
loop_
 _atom_site_type_symbol
 _atom_site_label
 _atom_site_symmetry_multiplicity
 _atom_site_fract_x
 _atom_site_fract_y
 _atom_site_fract_z
 _atom_site_fract_occupancy
 Sn  Sn1  1  0.00000  0.00000  0.00000  1
 Sn  Sn2  1  0.34042  0.17021  0.50000  1
 Sn  Sn3  1  0.82979  0.17021  0.50000  1
 Sn  Sn4  1  0.82979  0.65958  0.50000  1
 Zr  Zr1  1  0.99999  0.49999  0.00000  1
 Zr  Zr2  1  0.50001  0.49999  0.00000  1
 Zr  Zr3  1  0.50001  0.00001  0.00000  1
 Zr  Zr4  1  0.33333  0.66667  0.50000  1
