CIF file written using JARVIS-Tools package.
data_Li5Ti2Co5O12
_symmetry_space_group_name_H-M  'P1'
_cell_length_a       5.02815
_cell_length_b       5.07626
_cell_length_c       9.7341
_cell_angle_alpha    84.9036
_cell_angle_beta     101.168
_cell_angle_gamma    119.796

_symmetry_Int_Tables_number  1
_chemical_formula_structural  Li5Ti2Co5O12
_chemical_formula_sum  Li5Ti2Co5O2
_cell_volume  211.51860048417657
_cell_formula_units_Z  1
loop_
  _symmetry_equiv_pos_site_id
 _symmetry_equiv_pos_as_xyz
 1  'x, y, z'
loop_
 _atom_site_type_symbol
 _atom_site_label
 _atom_site_symmetry_multiplicity
 _atom_site_fract_x
 _atom_site_fract_y
 _atom_site_fract_z
 _atom_site_fract_occupancy
 Co  Co1  1  0.01165  0.51567  0.00070  1
 Co  Co2  1  0.10045  0.19436  0.25413  1
 Co  Co3  1  0.58279  0.16551  0.75001  1
 Co  Co4  1  0.49943  0.50499  0.49958  1
 Co  Co5  1  0.40535  0.81890  0.24550  1
 Li  Li1  1  0.33205  0.15752  0.99358  1
 Li  Li2  1  0.68767  0.86824  0.99690  1
 Li  Li3  1  0.91821  0.83546  0.75000  1
 Li  Li4  1  0.17608  0.85858  0.50361  1
 Li  Li5  1  0.81983  0.14828  0.50614  1
 O  O1  1  0.47957  0.18303  0.36947  1
 O  O2  1  0.71118  0.18590  0.13112  1
 O  O3  1  0.38928  0.50416  0.12270  1
 O  O4  1  0.02699  0.83256  0.12817  1
 O  O5  1  0.95556  0.18783  0.86657  1
 O  O6  1  0.30866  0.83350  0.86635  1
 O  O7  1  0.79723  0.82964  0.37068  1
 O  O8  1  0.11854  0.51155  0.37723  1
 O  O9  1  0.22875  0.18241  0.63346  1
 O  O10  1  0.52400  0.82942  0.63383  1
 O  O11  1  0.86365  0.47591  0.63508  1
 O  O12  1  0.61364  0.47942  0.86495  1
 Ti  Ti1  1  0.25342  0.50550  0.75007  1
 Ti  Ti2  1  0.75326  0.50607  0.25012  1
