CIF file written using JARVIS-Tools package.
data_Ba3ErMn2O9
_symmetry_space_group_name_H-M  'P6_3/mmc'
_cell_length_a       5.81709
_cell_length_b       5.81702
_cell_length_c       14.2408
_cell_angle_alpha    90
_cell_angle_beta     90
_cell_angle_gamma    120.001

_symmetry_Int_Tables_number  194
_chemical_formula_structural  Ba3ErMn2O9
_chemical_formula_sum  Ba6Er2Mn4O8
_cell_volume  417.31859935562926
_cell_formula_units_Z  2
loop_
  _symmetry_equiv_pos_site_id
 _symmetry_equiv_pos_as_xyz
 1  'x, y, z'
loop_
 _atom_site_type_symbol
 _atom_site_label
 _atom_site_symmetry_multiplicity
 _atom_site_fract_x
 _atom_site_fract_y
 _atom_site_fract_z
 _atom_site_fract_occupancy
 Ba  Ba1  1  0.33330  0.66659  0.09133  1
 Ba  Ba2  1  0.33336  0.66671  0.39716  1
 Ba  Ba3  1  0.66670  0.33341  0.59133  1
 Ba  Ba4  1  0.00001  0.00002  0.74426  1
 Ba  Ba5  1  -0.00001  -0.00002  0.24426  1
 Ba  Ba6  1  0.66664  0.33329  0.89716  1
 Er  Er1  1  0.99997  0.99993  0.99426  1
 Er  Er2  1  0.00003  0.00007  0.49426  1
 Mn  Mn1  1  0.66663  0.33326  0.15252  1
 Mn  Mn2  1  0.33331  0.66663  0.83600  1
 Mn  Mn3  1  0.66669  0.33337  0.33600  1
 Mn  Mn4  1  0.33337  0.66674  0.65252  1
 O  O1  1  0.82173  0.64346  0.40519  1
 O  O2  1  0.17827  0.35654  0.90519  1
 O  O3  1  0.52207  0.04414  0.24428  1
 O  O4  1  0.95584  0.47792  0.24426  1
 O  O5  1  0.35664  0.17837  0.40520  1
 O  O6  1  0.17827  0.82163  0.90520  1
 O  O7  1  0.47793  0.52208  0.74426  1
 O  O8  1  0.82173  0.17837  0.40520  1
 O  O9  1  0.35656  0.17821  0.08334  1
 O  O10  1  0.82165  0.17821  0.08334  1
 O  O11  1  0.64336  0.82163  0.90520  1
 O  O12  1  0.47793  0.95586  0.74428  1
 O  O13  1  0.17835  0.82179  0.58334  1
 O  O14  1  0.04416  0.52208  0.74426  1
 O  O15  1  0.17835  0.35670  0.58332  1
 O  O16  1  0.64344  0.82179  0.58334  1
 O  O17  1  0.82165  0.64330  0.08332  1
 O  O18  1  0.52207  0.47792  0.24426  1
