CIF file written using JARVIS-Tools package.
data_BeP4Ru
_symmetry_space_group_name_H-M  'F-43m'
_cell_length_a       4.94114
_cell_length_b       4.94114
_cell_length_c       4.94114
_cell_angle_alpha    60
_cell_angle_beta     60
_cell_angle_gamma    60

_symmetry_Int_Tables_number  216
_chemical_formula_structural  BeP4Ru
_chemical_formula_sum  BeP4Ru
_cell_volume  85.30315676161597
_cell_formula_units_Z  1
loop_
  _symmetry_equiv_pos_site_id
 _symmetry_equiv_pos_as_xyz
 1  'x, y, z'
loop_
 _atom_site_type_symbol
 _atom_site_label
 _atom_site_symmetry_multiplicity
 _atom_site_fract_x
 _atom_site_fract_y
 _atom_site_fract_z
 _atom_site_fract_occupancy
 Be  Be1  1  0.00000  0.00000  0.00000  1
 P  P1  1  0.62737  0.11788  0.62737  1
 P  P2  1  0.11788  0.62737  0.62737  1
 P  P3  1  0.62737  0.62737  0.62737  1
 P  P4  1  0.62737  0.62737  0.11788  1
 Ru  Ru1  1  0.25000  0.25000  0.25000  1
