CIF file written using JARVIS-Tools package.
data_CeCrGe3
_symmetry_space_group_name_H-M  'P6_3/mmc'
_cell_length_a       6.12503
_cell_length_b       6.12504
_cell_length_c       5.6349
_cell_angle_alpha    90
_cell_angle_beta     90
_cell_angle_gamma    120

_symmetry_Int_Tables_number  194
_chemical_formula_structural  CeCrGe3
_chemical_formula_sum  Ce2Cr2Ge6
_cell_volume  183.07691355100266
_cell_formula_units_Z  2
loop_
  _symmetry_equiv_pos_site_id
 _symmetry_equiv_pos_as_xyz
 1  'x, y, z'
loop_
 _atom_site_type_symbol
 _atom_site_label
 _atom_site_symmetry_multiplicity
 _atom_site_fract_x
 _atom_site_fract_y
 _atom_site_fract_z
 _atom_site_fract_occupancy
 Ce  Ce1  1  0.66667  0.33333  0.25000  1
 Ce  Ce2  1  0.33333  0.66667  0.75000  1
 Cr  Cr1  1  0.00000  0.00000  0.50000  1
 Cr  Cr2  1  0.00000  0.00000  0.00000  1
 Ge  Ge1  1  0.19124  0.80876  0.25000  1
 Ge  Ge2  1  0.80876  0.61753  0.75000  1
 Ge  Ge3  1  0.19124  0.38247  0.25000  1
 Ge  Ge4  1  0.80876  0.19124  0.75000  1
 Ge  Ge5  1  0.38247  0.19124  0.75000  1
 Ge  Ge6  1  0.61753  0.80876  0.25000  1
