CIF file written using JARVIS-Tools package.
data_AuCClO
_symmetry_space_group_name_H-M  'Cmcm'
_cell_length_a       3.98902
_cell_length_b       5.27511
_cell_length_c       8.29238
_cell_angle_alpha    90
_cell_angle_beta     103.917
_cell_angle_gamma    90

_symmetry_Int_Tables_number  63
_chemical_formula_structural  AuCClO
_chemical_formula_sum  Au2C2Cl2O2
_cell_volume  169.37002049657676
_cell_formula_units_Z  2
loop_
  _symmetry_equiv_pos_site_id
 _symmetry_equiv_pos_as_xyz
 1  'x, y, z'
loop_
 _atom_site_type_symbol
 _atom_site_label
 _atom_site_symmetry_multiplicity
 _atom_site_fract_x
 _atom_site_fract_y
 _atom_site_fract_z
 _atom_site_fract_occupancy
 Au  Au1  1  0.76176  0.25000  0.52352  1
 Au  Au2  1  0.23824  0.75000  0.47648  1
 C  C1  1  0.88055  0.25000  0.76110  1
 C  C2  1  0.11945  0.75000  0.23890  1
 Cl  Cl1  1  0.37960  0.75000  0.75920  1
 Cl  Cl2  1  0.62040  0.25000  0.24080  1
 O  O1  1  0.95150  0.25000  0.90300  1
 O  O2  1  0.04850  0.75000  0.09700  1
