CIF file written using JARVIS-Tools package.
data_NbFeF6
_symmetry_space_group_name_H-M  'R-3'
_cell_length_a       5.65886
_cell_length_b       5.65886
_cell_length_c       5.65887
_cell_angle_alpha    55.1042
_cell_angle_beta     55.1042
_cell_angle_gamma    55.1041

_symmetry_Int_Tables_number  148
_chemical_formula_structural  NbFeF6
_chemical_formula_sum  NbFeF6
_cell_volume  113.54639964181608
_cell_formula_units_Z  1
loop_
  _symmetry_equiv_pos_site_id
 _symmetry_equiv_pos_as_xyz
 1  'x, y, z'
loop_
 _atom_site_type_symbol
 _atom_site_label
 _atom_site_symmetry_multiplicity
 _atom_site_fract_x
 _atom_site_fract_y
 _atom_site_fract_z
 _atom_site_fract_occupancy
 F  F1  1  0.37332  0.13032  0.74875  1
 F  F2  1  0.74875  0.37332  0.13032  1
 F  F3  1  0.13032  0.74875  0.37332  1
 F  F4  1  0.62668  0.86968  0.25125  1
 F  F5  1  0.25125  0.62668  0.86968  1
 F  F6  1  0.86968  0.25125  0.62668  1
 Fe  Fe1  1  0.00000  0.00000  0.00000  1
 Nb  Nb1  1  0.50000  0.50000  0.50000  1
