CIF file written using JARVIS-Tools package.
data_YMg7
_symmetry_space_group_name_H-M  'Fm-3m'
_cell_length_a       6.5418
_cell_length_b       6.5418
_cell_length_c       6.5418
_cell_angle_alpha    60
_cell_angle_beta     60
_cell_angle_gamma    60

_symmetry_Int_Tables_number  225
_chemical_formula_structural  YMg7
_chemical_formula_sum  YMg7
_cell_volume  197.95965219258304
_cell_formula_units_Z  1
loop_
  _symmetry_equiv_pos_site_id
 _symmetry_equiv_pos_as_xyz
 1  'x, y, z'
loop_
 _atom_site_type_symbol
 _atom_site_label
 _atom_site_symmetry_multiplicity
 _atom_site_fract_x
 _atom_site_fract_y
 _atom_site_fract_z
 _atom_site_fract_occupancy
 Mg  Mg1  1  0.50000  0.50000  0.50000  1
 Mg  Mg2  1  0.50000  -0.00000  0.00000  1
 Mg  Mg3  1  0.50000  -0.00000  0.50000  1
 Mg  Mg4  1  0.50000  0.50000  0.00000  1
 Mg  Mg5  1  -0.00000  0.50000  0.50000  1
 Mg  Mg6  1  -0.00000  0.50000  0.00000  1
 Mg  Mg7  1  -0.00000  0.00000  0.50000  1
 Y  Y1  1  0.00000  0.00000  0.00000  1
