CIF file written using JARVIS-Tools package.
data_Y3RuI3
_symmetry_space_group_name_H-M  'P2_1/m'
_cell_length_a       4.20864
_cell_length_b       8.75144
_cell_length_c       12.1212
_cell_angle_alpha    94.5792
_cell_angle_beta     90
_cell_angle_gamma    90

_symmetry_Int_Tables_number  11
_chemical_formula_structural  Y3RuI3
_chemical_formula_sum  Y6Ru2I6
_cell_volume  445.017014203695
_cell_formula_units_Z  2
loop_
  _symmetry_equiv_pos_site_id
 _symmetry_equiv_pos_as_xyz
 1  'x, y, z'
loop_
 _atom_site_type_symbol
 _atom_site_label
 _atom_site_symmetry_multiplicity
 _atom_site_fract_x
 _atom_site_fract_y
 _atom_site_fract_z
 _atom_site_fract_occupancy
 I  I1  1  0.25000  0.63701  0.62963  1
 I  I2  1  0.75000  0.36299  0.37037  1
 I  I3  1  0.75000  0.85420  0.39257  1
 I  I4  1  0.25000  0.14580  0.60743  1
 I  I5  1  0.25000  0.57623  0.13599  1
 I  I6  1  0.75000  0.42377  0.86401  1
 Ru  Ru1  1  0.75000  0.94035  0.90379  1
 Ru  Ru2  1  0.25000  0.05965  0.09621  1
 Y  Y1  1  0.75000  0.86888  0.12610  1
 Y  Y2  1  0.25000  0.13112  0.87390  1
 Y  Y3  1  0.75000  0.89615  0.67811  1
 Y  Y4  1  0.25000  0.10385  0.32189  1
 Y  Y5  1  0.25000  0.73171  0.89295  1
 Y  Y6  1  0.75000  0.26829  0.10705  1
