CIF file written using JARVIS-Tools package.
data_LiMnF4
_symmetry_space_group_name_H-M  'Pbcn'
_cell_length_a       4.57635
_cell_length_b       5.76403
_cell_length_c       9.93362
_cell_angle_alpha    90
_cell_angle_beta     90
_cell_angle_gamma    90

_symmetry_Int_Tables_number  60
_chemical_formula_structural  LiMnF4
_chemical_formula_sum  Li4Mn4F6
_cell_volume  262.0314182943996
_cell_formula_units_Z  4
loop_
  _symmetry_equiv_pos_site_id
 _symmetry_equiv_pos_as_xyz
 1  'x, y, z'
loop_
 _atom_site_type_symbol
 _atom_site_label
 _atom_site_symmetry_multiplicity
 _atom_site_fract_x
 _atom_site_fract_y
 _atom_site_fract_z
 _atom_site_fract_occupancy
 F  F1  1  0.71861  0.02893  0.15533  1
 F  F2  1  0.24490  0.21472  0.58417  1
 F  F3  1  0.24490  0.78528  0.08417  1
 F  F4  1  0.21861  0.52893  0.34467  1
 F  F5  1  0.75510  0.78528  0.41583  1
 F  F6  1  0.28139  0.02893  0.34467  1
 F  F7  1  0.28139  0.97107  0.84467  1
 F  F8  1  0.21861  0.47107  0.84467  1
 F  F9  1  0.25510  0.71472  0.58417  1
 F  F10  1  0.74490  0.28528  0.41583  1
 F  F11  1  0.74490  0.71472  0.91583  1
 F  F12  1  0.75510  0.21472  0.91583  1
 F  F13  1  0.71861  0.97107  0.65533  1
 F  F14  1  0.78139  0.47107  0.65533  1
 F  F15  1  0.78139  0.52893  0.15533  1
 F  F16  1  0.25510  0.28528  0.08417  1
 Li  Li1  1  0.50000  0.67540  0.75000  1
 Li  Li2  1  0.50000  0.32460  0.25000  1
 Li  Li3  1  0.00000  0.17540  0.75000  1
 Li  Li4  1  0.00000  0.82460  0.25000  1
 Mn  Mn1  1  0.50000  0.00000  0.50000  1
 Mn  Mn2  1  0.50000  0.00000  0.00000  1
 Mn  Mn3  1  0.00000  0.50000  0.50000  1
 Mn  Mn4  1  0.00000  0.50000  0.00000  1
