CIF file written using JARVIS-Tools package.
data_PuNi3
_symmetry_space_group_name_H-M  'R-3m'
_cell_length_a       8.62142
_cell_length_b       8.62142
_cell_length_c       8.62142
_cell_angle_alpha    32.2257
_cell_angle_beta     32.2257
_cell_angle_gamma    32.2257

_symmetry_Int_Tables_number  166
_chemical_formula_structural  PuNi3
_chemical_formula_sum  Pu3Ni9
_cell_volume  161.9637723561059
_cell_formula_units_Z  3
loop_
  _symmetry_equiv_pos_site_id
 _symmetry_equiv_pos_as_xyz
 1  'x, y, z'
loop_
 _atom_site_type_symbol
 _atom_site_label
 _atom_site_symmetry_multiplicity
 _atom_site_fract_x
 _atom_site_fract_y
 _atom_site_fract_z
 _atom_site_fract_occupancy
 Ni  Ni1  1  0.41812  0.41812  0.91648  1
 Ni  Ni2  1  0.91648  0.41812  0.41812  1
 Ni  Ni3  1  0.66731  0.66731  0.66731  1
 Ni  Ni4  1  0.58188  0.58188  0.08352  1
 Ni  Ni5  1  0.41812  0.91648  0.41812  1
 Ni  Ni6  1  0.50000  0.50000  0.50000  1
 Ni  Ni7  1  0.08352  0.58188  0.58188  1
 Ni  Ni8  1  0.33269  0.33269  0.33269  1
 Ni  Ni9  1  0.58188  0.08352  0.58188  1
 Pu  Pu1  1  0.14759  0.14759  0.14759  1
 Pu  Pu2  1  0.00000  0.00000  0.00000  1
 Pu  Pu3  1  0.85241  0.85241  0.85241  1
