CIF file written using JARVIS-Tools package.
data_LiVF3
_symmetry_space_group_name_H-M  'Pnma'
_cell_length_a       5.2723
_cell_length_b       5.3225
_cell_length_c       7.70366
_cell_angle_alpha    90
_cell_angle_beta     90
_cell_angle_gamma    90

_symmetry_Int_Tables_number  62
_chemical_formula_structural  LiVF3
_chemical_formula_sum  Li4V4F2
_cell_volume  216.1786292246823
_cell_formula_units_Z  4
loop_
  _symmetry_equiv_pos_site_id
 _symmetry_equiv_pos_as_xyz
 1  'x, y, z'
loop_
 _atom_site_type_symbol
 _atom_site_label
 _atom_site_symmetry_multiplicity
 _atom_site_fract_x
 _atom_site_fract_y
 _atom_site_fract_z
 _atom_site_fract_occupancy
 F  F1  1  0.34018  0.66247  0.57568  1
 F  F2  1  0.63423  0.10700  0.75000  1
 F  F3  1  0.84018  0.83753  0.42432  1
 F  F4  1  0.15982  0.16247  0.92432  1
 F  F5  1  0.65982  0.33753  0.07568  1
 F  F6  1  0.15982  0.16247  0.57568  1
 F  F7  1  0.13423  0.39300  0.25000  1
 F  F8  1  0.86577  0.60700  0.75000  1
 F  F9  1  0.34018  0.66247  0.92432  1
 F  F10  1  0.36577  0.89300  0.25000  1
 F  F11  1  0.84018  0.83753  0.07568  1
 F  F12  1  0.65982  0.33753  0.42432  1
 Li  Li1  1  0.98234  0.97905  0.75000  1
 Li  Li2  1  0.48234  0.52095  0.25000  1
 Li  Li3  1  0.51766  0.47905  0.75000  1
 Li  Li4  1  0.01766  0.02095  0.25000  1
 V  V1  1  0.00000  0.50000  0.50000  1
 V  V2  1  0.00000  0.50000  0.00000  1
 V  V3  1  0.50000  0.00000  0.50000  1
 V  V4  1  0.50000  0.00000  0.00000  1
