CIF file written using JARVIS-Tools package.
data_KMg6Nb
_symmetry_space_group_name_H-M  'P4/mmm'
_cell_length_a       6.58135
_cell_length_b       9.30838
_cell_length_c       4.52445
_cell_angle_alpha    90
_cell_angle_beta     90
_cell_angle_gamma    135.005

_symmetry_Int_Tables_number  123
_chemical_formula_structural  KMg6Nb
_chemical_formula_sum  KMg6Nb
_cell_volume  195.97485628878593
_cell_formula_units_Z  1
loop_
  _symmetry_equiv_pos_site_id
 _symmetry_equiv_pos_as_xyz
 1  'x, y, z'
loop_
 _atom_site_type_symbol
 _atom_site_label
 _atom_site_symmetry_multiplicity
 _atom_site_fract_x
 _atom_site_fract_y
 _atom_site_fract_z
 _atom_site_fract_occupancy
 K  K1  1  0.24987  0.37493  0.25000  1
 Mg  Mg1  1  0.75002  0.37508  0.25000  1
 Mg  Mg2  1  0.75002  0.87494  0.25000  1
 Mg  Mg3  1  0.25004  0.09430  0.75000  1
 Mg  Mg4  1  0.25005  0.65574  0.75000  1
 Mg  Mg5  1  0.68856  0.09428  0.75000  1
 Mg  Mg6  1  0.81143  0.65572  0.75000  1
 Nb  Nb1  1  0.25001  0.87501  0.25000  1
