CIF file written using JARVIS-Tools package.
data_UCoO4
_symmetry_space_group_name_H-M  'Imma'
_cell_length_a       5.72926
_cell_length_b       5.72926
_cell_length_c       5.72926
_cell_angle_alpha    105.742
_cell_angle_beta     110.318
_cell_angle_gamma    112.424

_symmetry_Int_Tables_number  74
_chemical_formula_structural  UCoO4
_chemical_formula_sum  U2Co2O8
_cell_volume  144.25969356184297
_cell_formula_units_Z  2
loop_
  _symmetry_equiv_pos_site_id
 _symmetry_equiv_pos_as_xyz
 1  'x, y, z'
loop_
 _atom_site_type_symbol
 _atom_site_label
 _atom_site_symmetry_multiplicity
 _atom_site_fract_x
 _atom_site_fract_y
 _atom_site_fract_z
 _atom_site_fract_occupancy
 Co  Co1  1  0.50000  0.50000  0.00000  1
 Co  Co2  1  0.50000  -0.00000  0.50000  1
 O  O1  1  0.19864  0.73555  0.53691  1
 O  O2  1  0.19864  0.16173  0.96309  1
 O  O3  1  0.80136  0.26445  0.46309  1
 O  O4  1  0.80136  0.83827  0.03691  1
 O  O5  1  0.65018  0.70699  0.44319  1
 O  O6  1  0.26381  0.70699  0.05681  1
 O  O7  1  0.73619  0.29301  0.94319  1
 O  O8  1  0.34982  0.29301  0.55681  1
 U  U1  1  0.94478  0.69478  0.75000  1
 U  U2  1  0.05522  0.30522  0.25000  1
