CIF file written using JARVIS-Tools package.
data_LiErP4O12
_symmetry_space_group_name_H-M  'C2/c'
_cell_length_a       7.01293
_cell_length_b       8.82032
_cell_length_c       8.82905
_cell_angle_alpha    64.8982
_cell_angle_beta     66.5971
_cell_angle_gamma    66.5709

_symmetry_Int_Tables_number  15
_chemical_formula_structural  LiErP4O12
_chemical_formula_sum  Li2Er2P8O24
_cell_volume  436.2794342259024
_cell_formula_units_Z  2
loop_
  _symmetry_equiv_pos_site_id
 _symmetry_equiv_pos_as_xyz
 1  'x, y, z'
loop_
 _atom_site_type_symbol
 _atom_site_label
 _atom_site_symmetry_multiplicity
 _atom_site_fract_x
 _atom_site_fract_y
 _atom_site_fract_z
 _atom_site_fract_occupancy
 Er  Er1  1  0.79643  0.75000  0.25000  1
 Er  Er2  1  0.20357  0.25000  0.75000  1
 Li  Li1  1  0.29322  0.75001  0.24999  1
 Li  Li2  1  0.70678  0.24999  0.75001  1
 O  O1  1  0.21700  0.73756  0.57600  1
 O  O2  1  0.01349  0.72016  0.41528  1
 O  O3  1  0.24656  0.97598  0.76413  1
 O  O4  1  0.53056  0.76244  0.92401  1
 O  O5  1  0.01334  0.47597  0.26413  1
 O  O6  1  0.67012  0.35545  0.15476  1
 O  O7  1  0.39484  0.31557  0.45740  1
 O  O8  1  0.75344  0.02402  0.23587  1
 O  O9  1  0.83220  0.81557  0.95738  1
 O  O10  1  0.56247  0.57482  0.29877  1
 O  O11  1  0.18035  0.14455  0.34525  1
 O  O12  1  0.43753  0.42518  0.70123  1
 O  O13  1  0.85108  0.22016  0.91528  1
 O  O14  1  0.56392  0.07482  0.79878  1
 O  O15  1  0.43608  0.92518  0.20122  1
 O  O16  1  0.81965  0.85545  0.65475  1
 O  O17  1  0.46944  0.23756  0.07599  1
 O  O18  1  0.16780  0.18443  0.04262  1
 O  O19  1  0.14892  0.77984  0.08472  1
 O  O20  1  0.98666  0.52403  0.73587  1
 O  O21  1  0.98651  0.27984  0.58472  1
 O  O22  1  0.32988  0.64455  0.84524  1
 O  O23  1  0.78300  0.26244  0.42400  1
 O  O24  1  0.60516  0.68443  0.54260  1
 P  P1  1  0.58545  0.38483  0.34124  1
 P  P2  1  0.99844  0.30523  0.40264  1
 P  P3  1  0.41455  0.61517  0.65876  1
 P  P4  1  0.70631  0.19477  0.09737  1
 P  P5  1  0.29369  0.80523  0.90263  1
 P  P6  1  0.00156  0.69477  0.59736  1
 P  P7  1  0.31152  0.11518  0.15877  1
 P  P8  1  0.68848  0.88482  0.84123  1
