CIF file written using JARVIS-Tools package.
data_Si2Ag6O7
_symmetry_space_group_name_H-M  'C2/m'
_cell_length_a       8.10161
_cell_length_b       8.1016
_cell_length_c       10.6619
_cell_angle_alpha    77.6308
_cell_angle_beta     77.6308
_cell_angle_gamma    74.5624

_symmetry_Int_Tables_number  12
_chemical_formula_structural  Si2Ag6O7
_chemical_formula_sum  Si6Ag8O2
_cell_volume  649.6502867944251
_cell_formula_units_Z  3
loop_
  _symmetry_equiv_pos_site_id
 _symmetry_equiv_pos_as_xyz
 1  'x, y, z'
loop_
 _atom_site_type_symbol
 _atom_site_label
 _atom_site_symmetry_multiplicity
 _atom_site_fract_x
 _atom_site_fract_y
 _atom_site_fract_z
 _atom_site_fract_occupancy
 Ag  Ag1  1  0.15918  0.85273  0.65836  1
 Ag  Ag2  1  0.53869  0.53869  0.62974  1
 Ag  Ag3  1  0.54941  0.90109  0.37282  1
 Ag  Ag4  1  0.63648  0.99525  0.86648  1
 Ag  Ag5  1  0.44087  0.72379  0.85531  1
 Ag  Ag6  1  0.09891  0.45059  0.62718  1
 Ag  Ag7  1  0.55913  0.27621  0.14469  1
 Ag  Ag8  1  0.85273  0.15918  0.65836  1
 Ag  Ag9  1  0.36352  0.00475  0.13352  1
 Ag  Ag10  1  0.90109  0.54941  0.37282  1
 Ag  Ag11  1  0.72379  0.44087  0.85531  1
 Ag  Ag12  1  0.84082  0.14727  0.34164  1
 Ag  Ag13  1  0.46131  0.46131  0.37026  1
 Ag  Ag14  1  0.27621  0.55913  0.14469  1
 Ag  Ag15  1  0.45059  0.09891  0.62718  1
 Ag  Ag16  1  0.14727  0.84082  0.34164  1
 Ag  Ag17  1  0.99525  0.63648  0.86648  1
 Ag  Ag18  1  0.00475  0.36352  0.13352  1
 O  O1  1  0.75270  0.02634  0.21496  1
 O  O2  1  0.29797  0.29797  0.45937  1
 O  O3  1  0.97366  0.24730  0.78504  1
 O  O4  1  0.47263  0.75166  0.06873  1
 O  O5  1  0.73811  0.01309  0.56409  1
 O  O6  1  0.52737  0.24834  0.93127  1
 O  O7  1  0.24583  0.24583  0.22515  1
 O  O8  1  0.62651  0.62651  0.28433  1
 O  O9  1  0.75166  0.47263  0.06873  1
 O  O10  1  0.26189  0.98691  0.43591  1
 O  O11  1  0.01309  0.73811  0.56409  1
 O  O12  1  0.78990  0.78990  0.06473  1
 O  O13  1  0.98691  0.26189  0.43591  1
 O  O14  1  0.75417  0.75417  0.77485  1
 O  O15  1  0.21010  0.21010  0.93527  1
 O  O16  1  0.37349  0.37349  0.71567  1
 O  O17  1  0.02634  0.75270  0.21496  1
 O  O18  1  0.24834  0.52737  0.93127  1
 O  O19  1  0.00000  0.00000  0.00000  1
 O  O20  1  0.24730  0.97366  0.78504  1
 O  O21  1  0.70203  0.70203  0.54063  1
 Si  Si1  1  0.65532  0.65532  0.12422  1
 Si  Si2  1  0.19905  0.19905  0.38804  1
 Si  Si3  1  0.34468  0.34468  0.87578  1
 Si  Si4  1  0.80095  0.80095  0.61196  1
 Si  Si5  1  0.10508  0.10508  0.87351  1
 Si  Si6  1  0.89492  0.89492  0.12649  1
