CIF file written using JARVIS-Tools package.
data_K2CuH8C4O12
_symmetry_space_group_name_H-M  'P2_1/c'
_cell_length_a       3.66771
_cell_length_b       10.76
_cell_length_c       14.5874
_cell_angle_alpha    90
_cell_angle_beta     90
_cell_angle_gamma    93.6341

_symmetry_Int_Tables_number  14
_chemical_formula_structural  K2CuH8C4O12
_chemical_formula_sum  K4Cu2H6C8O24
_cell_volume  574.5273658978892
_cell_formula_units_Z  2
loop_
  _symmetry_equiv_pos_site_id
 _symmetry_equiv_pos_as_xyz
 1  'x, y, z'
loop_
 _atom_site_type_symbol
 _atom_site_label
 _atom_site_symmetry_multiplicity
 _atom_site_fract_x
 _atom_site_fract_y
 _atom_site_fract_z
 _atom_site_fract_occupancy
 C  C1  1  0.68642  0.24920  0.52424  1
 C  C2  1  0.61089  0.32173  0.09903  1
 C  C3  1  0.31358  0.75080  0.47576  1
 C  C4  1  0.18642  0.74920  0.97576  1
 C  C5  1  0.88911  0.17827  0.59903  1
 C  C6  1  0.38911  0.67827  0.90097  1
 C  C7  1  0.11089  0.82173  0.40097  1
 C  C8  1  0.81358  0.25080  0.02424  1
 Cu  Cu1  1  -0.00000  0.50000  0.00000  1
 Cu  Cu2  1  0.50000  0.00000  0.50000  1
 H  H1  1  0.84537  0.16058  0.28855  1
 H  H2  1  0.21446  0.24214  0.87249  1
 H  H3  1  0.10766  0.97492  0.68078  1
 H  H4  1  0.27227  0.29761  0.26749  1
 H  H5  1  0.22773  0.20239  0.76749  1
 H  H6  1  0.77227  0.79761  0.23251  1
 H  H7  1  0.60766  0.47492  0.81922  1
 H  H8  1  0.28554  0.25786  0.37249  1
 H  H9  1  0.65463  0.33942  0.78855  1
 H  H10  1  0.78554  0.75786  0.12751  1
 H  H11  1  0.39234  0.52508  0.18078  1
 H  H12  1  0.71446  0.74214  0.62751  1
 H  H13  1  0.34537  0.66058  0.21145  1
 H  H14  1  0.15463  0.83942  0.71145  1
 H  H15  1  0.89234  0.02508  0.31922  1
 H  H16  1  0.72773  0.70239  0.73251  1
 K  K1  1  0.23801  0.49069  0.63746  1
 K  K2  1  0.26199  0.00931  0.13746  1
 K  K3  1  0.73801  0.99069  0.86254  1
 K  K4  1  0.76199  0.50931  0.36254  1
 O  O1  1  0.49103  0.17773  0.46878  1
 O  O2  1  0.58346  0.73669  0.84376  1
 O  O3  1  0.41654  0.26331  0.15624  1
 O  O4  1  0.65437  0.44212  0.09464  1
 O  O5  1  0.78242  0.13542  0.02055  1
 O  O6  1  0.84696  0.69275  0.67226  1
 O  O7  1  0.27430  0.57377  0.22827  1
 O  O8  1  0.71758  0.36458  0.52055  1
 O  O9  1  0.65304  0.80725  0.17226  1
 O  O10  1  0.15304  0.30725  0.32774  1
 O  O11  1  0.50897  0.82227  0.53122  1
 O  O12  1  0.72570  0.42623  0.77173  1
 O  O13  1  0.34696  0.19275  0.82774  1
 O  O14  1  0.22570  0.92623  0.72827  1
 O  O15  1  0.34563  0.55788  0.90536  1
 O  O16  1  0.08346  0.23669  0.65624  1
 O  O17  1  0.77430  0.07377  0.27173  1
 O  O18  1  0.00897  0.32227  0.96878  1
 O  O19  1  0.15437  0.94212  0.40536  1
 O  O20  1  0.91654  0.76331  0.34376  1
 O  O21  1  0.99103  0.67773  0.03122  1
 O  O22  1  0.28242  0.63542  0.47945  1
 O  O23  1  0.21758  0.86458  0.97945  1
 O  O24  1  0.84563  0.05788  0.59464  1
