data_image0
_chemical_formula_structural       H3Pd2Ti4
_chemical_formula_sum              "H3 Pd2 Ti4"
_cell_length_a       2.83905
_cell_length_b       2.83916
_cell_length_c       12.5061
_cell_angle_alpha    90
_cell_angle_beta     90
_cell_angle_gamma    90

_space_group_name_H-M_alt    "P 1"
_space_group_IT_number       1

loop_
  _space_group_symop_operation_xyz
  'x, y, z'

loop_
  _atom_site_type_symbol
  _atom_site_label
  _atom_site_symmetry_multiplicity
  _atom_site_fract_x
  _atom_site_fract_y
  _atom_site_fract_z
  _atom_site_occupancy
  H   H1        1.0  0.50000  0.50000  0.00003  1.0000
  H   H2        1.0  0.50000  0.50000  0.32500  1.0000
  H   H3        1.0  0.50000  0.50000  0.67500  1.0000
  Pd  Pd1       1.0  0.00000  0.00000  0.00015  1.0000
  Pd  Pd2       1.0  0.50000  0.50000  0.50000  1.0000
  Ti  Ti1       1.0  0.50000  0.50000  0.17400  1.0000
  Ti  Ti2       1.0  0.00000  0.00000  0.33900  1.0000
  Ti  Ti3       1.0  0.00000  0.00000  0.66100  1.0000
  Ti  Ti4       1.0  0.50000  0.50000  0.82600  1.0000
