CIF file written using JARVIS-Tools package.
data_BeCu4Pt
_symmetry_space_group_name_H-M  'F-43m'
_cell_length_a       4.74579
_cell_length_b       4.74579
_cell_length_c       4.74579
_cell_angle_alpha    60
_cell_angle_beta     60
_cell_angle_gamma    60

_symmetry_Int_Tables_number  216
_chemical_formula_structural  BeCu4Pt
_chemical_formula_sum  BeCu4Pt
_cell_volume  75.58066776099052
_cell_formula_units_Z  1
loop_
  _symmetry_equiv_pos_site_id
 _symmetry_equiv_pos_as_xyz
 1  'x, y, z'
loop_
 _atom_site_type_symbol
 _atom_site_label
 _atom_site_symmetry_multiplicity
 _atom_site_fract_x
 _atom_site_fract_y
 _atom_site_fract_z
 _atom_site_fract_occupancy
 Be  Be1  1  0.00000  0.00000  0.00000  1
 Cu  Cu1  1  0.37469  0.37469  0.37469  1
 Cu  Cu2  1  0.37469  0.87594  0.37469  1
 Cu  Cu3  1  0.37469  0.37469  0.87594  1
 Cu  Cu4  1  0.87594  0.37469  0.37469  1
 Pt  Pt1  1  0.75000  0.75000  0.75000  1
