CIF file written using JARVIS-Tools package.
data_LiMn2P2O8
_symmetry_space_group_name_H-M  'Pc'
_cell_length_a       5.26594
_cell_length_b       5.9558
_cell_length_c       10.7096
_cell_angle_alpha    90
_cell_angle_beta     119.936
_cell_angle_gamma    90

_symmetry_Int_Tables_number  7
_chemical_formula_structural  LiMn2P2O8
_chemical_formula_sum  Li2Mn4P4O6
_cell_volume  291.0730446649513
_cell_formula_units_Z  2
loop_
  _symmetry_equiv_pos_site_id
 _symmetry_equiv_pos_as_xyz
 1  'x, y, z'
loop_
 _atom_site_type_symbol
 _atom_site_label
 _atom_site_symmetry_multiplicity
 _atom_site_fract_x
 _atom_site_fract_y
 _atom_site_fract_z
 _atom_site_fract_occupancy
 Li  Li1  1  0.06912  0.37042  0.44537  1
 Li  Li2  1  0.06912  0.62958  0.94537  1
 Mn  Mn1  1  0.44024  0.87975  0.66723  1
 Mn  Mn2  1  0.53244  0.35690  0.85606  1
 Mn  Mn3  1  0.44024  0.12025  0.16723  1
 Mn  Mn4  1  0.53244  0.64310  0.35606  1
 O  O1  1  0.25302  0.89489  0.26779  1
 O  O2  1  0.24239  0.41016  0.22001  1
 O  O3  1  0.76419  0.12048  0.76882  1
 O  O4  1  0.21355  0.08020  0.47439  1
 O  O5  1  0.77278  0.57959  0.01023  1
 O  O6  1  0.79814  0.18197  0.03566  1
 O  O7  1  0.22354  0.66818  0.45115  1
 O  O8  1  0.24239  0.58984  0.72001  1
 O  O9  1  0.77461  0.38833  0.23482  1
 O  O10  1  0.77278  0.42041  0.51023  1
 O  O11  1  0.21355  0.91980  0.97439  1
 O  O12  1  0.25302  0.10511  0.76779  1
 O  O13  1  0.79814  0.81803  0.53566  1
 O  O14  1  0.76419  0.87952  0.26882  1
 O  O15  1  0.22354  0.33182  0.95115  1
 O  O16  1  0.77461  0.61167  0.73482  1
 P  P1  1  0.89951  0.39630  0.13228  1
 P  P2  1  0.10001  0.88945  0.36355  1
 P  P3  1  0.10001  0.11055  0.86355  1
 P  P4  1  0.89951  0.60370  0.63228  1
