CIF file written using JARVIS-Tools package.
data_InH7N2OF4
_symmetry_space_group_name_H-M  'P2_12_12_1'
_cell_length_a       6.81804
_cell_length_b       8.54222
_cell_length_c       9.27655
_cell_angle_alpha    90
_cell_angle_beta     90
_cell_angle_gamma    90

_symmetry_Int_Tables_number  19
_chemical_formula_structural  InH7N2OF4
_chemical_formula_sum  In4H28N8O4F6
_cell_volume  540.2776823201273
_cell_formula_units_Z  4
loop_
  _symmetry_equiv_pos_site_id
 _symmetry_equiv_pos_as_xyz
 1  'x, y, z'
loop_
 _atom_site_type_symbol
 _atom_site_label
 _atom_site_symmetry_multiplicity
 _atom_site_fract_x
 _atom_site_fract_y
 _atom_site_fract_z
 _atom_site_fract_occupancy
 F  F1  1  0.32922  0.31106  0.88267  1
 F  F2  1  0.31564  0.60208  0.68543  1
 F  F3  1  0.82922  0.18894  0.11733  1
 F  F4  1  0.67078  0.81106  0.61733  1
 F  F5  1  0.10859  0.02685  0.89970  1
 F  F6  1  0.60859  0.47315  0.10030  1
 F  F7  1  0.89141  0.52685  0.60030  1
 F  F8  1  0.18436  0.39792  0.18543  1
 F  F9  1  0.39141  0.97315  0.39970  1
 F  F10  1  0.68436  0.10208  0.81457  1
 F  F11  1  0.81564  0.89792  0.31457  1
 F  F12  1  0.05326  0.84659  0.59597  1
 F  F13  1  0.94674  0.34659  0.90403  1
 F  F14  1  0.55326  0.65341  0.40403  1
 F  F15  1  0.17078  0.68894  0.38267  1
 F  F16  1  0.44674  0.15341  0.09597  1
 H  H1  1  0.76770  0.50671  0.21617  1
 H  H2  1  0.26770  0.99329  0.78383  1
 H  H3  1  0.05272  0.07305  0.58281  1
 H  H4  1  0.55272  0.42695  0.41719  1
 H  H5  1  0.94728  0.57305  0.91719  1
 H  H6  1  0.23230  0.00671  0.28383  1
 H  H7  1  0.73230  0.49329  0.71617  1
 H  H8  1  0.44728  0.92695  0.08281  1
 H  H9  1  0.49836  0.02101  0.74598  1
 H  H10  1  0.08868  0.40536  0.60498  1
 H  H11  1  0.26056  0.28141  0.53529  1
 H  H12  1  0.91594  0.17885  0.68923  1
 H  H13  1  0.00164  0.97899  0.24598  1
 H  H14  1  0.23944  0.71859  0.03529  1
 H  H15  1  0.73944  0.78141  0.96471  1
 H  H16  1  0.21729  0.28675  0.71467  1
 H  H17  1  0.28271  0.71325  0.21467  1
 H  H18  1  0.71729  0.21325  0.28533  1
 H  H19  1  0.41132  0.59464  0.10498  1
 H  H20  1  0.78271  0.78675  0.78533  1
 H  H21  1  0.76056  0.21859  0.46471  1
 H  H22  1  0.58406  0.82115  0.18923  1
 H  H23  1  0.58868  0.09464  0.39502  1
 H  H24  1  0.08406  0.67885  0.81077  1
 H  H25  1  0.41594  0.32115  0.31077  1
 H  H26  1  -0.00164  0.47899  0.25402  1
 H  H27  1  0.50164  0.52101  0.75402  1
 H  H28  1  0.91132  0.90536  0.89502  1
 In  In1  1  0.36328  0.79072  0.54869  1
 In  In2  1  0.63672  0.29072  0.95131  1
 In  In3  1  0.13672  0.20928  0.04869  1
 In  In4  1  0.86328  0.70928  0.45131  1
 N  N1  1  0.99134  0.18247  0.59305  1
 N  N2  1  0.00866  0.68247  0.90695  1
 N  N3  1  0.49134  0.31753  0.40695  1
 N  N4  1  0.50866  0.81753  0.09305  1
 N  N5  1  0.34913  0.70570  0.11356  1
 N  N6  1  0.84913  0.79430  0.88644  1
 N  N7  1  0.15087  0.29430  0.61356  1
 N  N8  1  0.65087  0.20570  0.38644  1
 O  O1  1  0.36986  0.98311  0.70694  1
 O  O2  1  0.86986  0.51689  0.29306  1
 O  O3  1  0.13014  0.01689  0.20694  1
 O  O4  1  0.63014  0.48311  0.79306  1
