CIF file written using JARVIS-Tools package.
data_Na2Si2O5
_symmetry_space_group_name_H-M  'P2_1/c'
_cell_length_a       4.85116
_cell_length_b       8.13887
_cell_length_c       12.2647
_cell_angle_alpha    104.063
_cell_angle_beta     90
_cell_angle_gamma    90

_symmetry_Int_Tables_number  14
_chemical_formula_structural  Na2Si2O5
_chemical_formula_sum  Na8Si8O20
_cell_volume  469.73118993850113
_cell_formula_units_Z  4
loop_
  _symmetry_equiv_pos_site_id
 _symmetry_equiv_pos_as_xyz
 1  'x, y, z'
loop_
 _atom_site_type_symbol
 _atom_site_label
 _atom_site_symmetry_multiplicity
 _atom_site_fract_x
 _atom_site_fract_y
 _atom_site_fract_z
 _atom_site_fract_occupancy
 Na  Na1  1  0.77821  0.86120  0.52678  1
 Na  Na2  1  0.75326  0.37970  0.44426  1
 Na  Na3  1  0.25326  0.62030  0.05574  1
 Na  Na4  1  0.24674  0.62030  0.55574  1
 Na  Na5  1  0.74674  0.37970  0.94426  1
 Na  Na6  1  0.22179  0.13880  0.47322  1
 Na  Na7  1  0.72179  0.86120  0.02678  1
 Na  Na8  1  0.27821  0.13880  0.97322  1
 O  O1  1  0.26772  0.38942  0.90223  1
 O  O2  1  0.76772  0.61058  0.59777  1
 O  O3  1  0.73228  0.61058  0.09777  1
 O  O4  1  0.84797  0.01687  0.21265  1
 O  O5  1  0.23228  0.38942  0.40223  1
 O  O6  1  0.87083  0.44945  0.76760  1
 O  O7  1  0.74470  0.77445  0.32165  1
 O  O8  1  0.24470  0.22555  0.17835  1
 O  O9  1  0.24182  0.90374  0.06122  1
 O  O10  1  0.37083  0.55055  0.73240  1
 O  O11  1  0.12917  0.55055  0.23240  1
 O  O12  1  0.75530  0.77445  0.82165  1
 O  O13  1  0.74182  0.09626  0.43878  1
 O  O14  1  0.15203  0.98313  0.78735  1
 O  O15  1  0.62917  0.44945  0.26760  1
 O  O16  1  0.25818  0.90374  0.56122  1
 O  O17  1  0.25530  0.22555  0.67835  1
 O  O18  1  0.65203  0.01687  0.71265  1
 O  O19  1  0.75818  0.09626  0.93878  1
 O  O20  1  0.34797  0.98313  0.28735  1
 Si  Si1  1  0.70195  0.59769  0.72322  1
 Si  Si2  1  0.79805  0.59769  0.22322  1
 Si  Si3  1  0.29805  0.40231  0.27678  1
 Si  Si4  1  0.32129  0.02638  0.68086  1
 Si  Si5  1  0.82129  0.97362  0.81914  1
 Si  Si6  1  0.67871  0.97362  0.31914  1
 Si  Si7  1  0.17871  0.02638  0.18086  1
 Si  Si8  1  0.20195  0.40231  0.77678  1
