CIF file written using JARVIS-Tools package.
data_Sr5In3
_symmetry_space_group_name_H-M  'I4/mcm'
_cell_length_a       8.69546
_cell_length_b       8.69546
_cell_length_c       10.2354
_cell_angle_alpha    115.136
_cell_angle_beta     115.136
_cell_angle_gamma    90

_symmetry_Int_Tables_number  140
_chemical_formula_structural  Sr5In3
_chemical_formula_sum  Sr0In6
_cell_volume  618.7080671114891
_cell_formula_units_Z  2
loop_
  _symmetry_equiv_pos_site_id
 _symmetry_equiv_pos_as_xyz
 1  'x, y, z'
loop_
 _atom_site_type_symbol
 _atom_site_label
 _atom_site_symmetry_multiplicity
 _atom_site_fract_x
 _atom_site_fract_y
 _atom_site_fract_z
 _atom_site_fract_occupancy
 In  In1  1  0.11808  0.38192  0.00000  1
 In  In2  1  0.61808  0.11808  0.00000  1
 In  In3  1  0.88192  0.61808  -0.00000  1
 In  In4  1  0.75000  0.75000  0.50000  1
 In  In5  1  0.38192  0.88192  -0.00000  1
 In  In6  1  0.25000  0.25000  0.50000  1
 Sr  Sr1  1  0.02803  0.52803  0.70766  1
 Sr  Sr2  1  0.32037  0.82037  0.29234  1
 Sr  Sr3  1  0.97197  0.47197  0.29234  1
 Sr  Sr4  1  0.50000  0.50000  0.00000  1
 Sr  Sr5  1  0.82037  0.97197  0.29234  1
 Sr  Sr6  1  0.52803  0.67963  0.70766  1
 Sr  Sr7  1  0.67963  0.17963  0.70766  1
 Sr  Sr8  1  0.17963  0.02803  0.70766  1
 Sr  Sr9  1  0.47197  0.32037  0.29234  1
 Sr  Sr10  1  0.00000  0.00000  0.00000  1
