CIF file written using JARVIS-Tools package.
data_MoCl3O
_symmetry_space_group_name_H-M  'P2_1/c'
_cell_length_a       5.63336
_cell_length_b       6.05497
_cell_length_c       13.4154
_cell_angle_alpha    90
_cell_angle_beta     90
_cell_angle_gamma    92.295

_symmetry_Int_Tables_number  14
_chemical_formula_structural  MoCl3O
_chemical_formula_sum  Mo4Cl2O4
_cell_volume  457.2298989657124
_cell_formula_units_Z  4
loop_
  _symmetry_equiv_pos_site_id
 _symmetry_equiv_pos_as_xyz
 1  'x, y, z'
loop_
 _atom_site_type_symbol
 _atom_site_label
 _atom_site_symmetry_multiplicity
 _atom_site_fract_x
 _atom_site_fract_y
 _atom_site_fract_z
 _atom_site_fract_occupancy
 Cl  Cl1  1  0.73095  0.38141  0.31762  1
 Cl  Cl2  1  0.26905  0.61859  0.68238  1
 Cl  Cl3  1  0.28338  0.64238  0.93815  1
 Cl  Cl4  1  0.71662  0.85762  0.43815  1
 Cl  Cl5  1  0.80172  0.94845  0.69203  1
 Cl  Cl6  1  0.19828  0.55155  0.19203  1
 Cl  Cl7  1  0.19828  0.05155  0.30797  1
 Cl  Cl8  1  0.80172  0.44845  0.80797  1
 Cl  Cl9  1  0.26905  0.11859  0.81762  1
 Cl  Cl10  1  0.71662  0.35762  0.06185  1
 Cl  Cl11  1  0.73095  0.88141  0.18238  1
 Cl  Cl12  1  0.28338  0.14238  0.56185  1
 Mo  Mo1  1  0.00783  0.81005  0.84210  1
 Mo  Mo2  1  0.99217  0.68995  0.34210  1
 Mo  Mo3  1  0.00783  0.31005  0.65790  1
 Mo  Mo4  1  0.99217  0.18995  0.15790  1
 O  O1  1  0.81293  0.89543  0.92477  1
 O  O2  1  0.18707  0.60457  0.42477  1
 O  O3  1  0.18707  0.10457  0.07523  1
 O  O4  1  0.81293  0.39543  0.57523  1
