CIF file written using JARVIS-Tools package.
data_Ni23B6
_symmetry_space_group_name_H-M  'Fm-3m'
_cell_length_a       7.35917
_cell_length_b       7.35916
_cell_length_c       7.35917
_cell_angle_alpha    60
_cell_angle_beta     60
_cell_angle_gamma    60

_symmetry_Int_Tables_number  225
_chemical_formula_structural  Ni23B6
_chemical_formula_sum  Ni23B6
_cell_volume  281.81947660218094
_cell_formula_units_Z  1
loop_
  _symmetry_equiv_pos_site_id
 _symmetry_equiv_pos_as_xyz
 1  'x, y, z'
loop_
 _atom_site_type_symbol
 _atom_site_label
 _atom_site_symmetry_multiplicity
 _atom_site_fract_x
 _atom_site_fract_y
 _atom_site_fract_z
 _atom_site_fract_occupancy
 B  B1  1  0.27405  0.72595  0.72595  1
 B  B2  1  0.72595  0.27405  0.72595  1
 B  B3  1  0.27405  0.27405  0.72595  1
 B  B4  1  0.72595  0.72595  0.27405  1
 B  B5  1  0.72595  0.27405  0.27405  1
 B  B6  1  0.27405  0.72595  0.27405  1
 Ni  Ni1  1  0.00000  0.00000  0.66153  1
 Ni  Ni2  1  0.00000  0.33847  0.66153  1
 Ni  Ni3  1  0.00000  0.66153  0.33847  1
 Ni  Ni4  1  0.00000  0.33847  0.00000  1
 Ni  Ni5  1  0.33847  0.00000  0.66153  1
 Ni  Ni6  1  0.66153  0.33847  0.00000  1
 Ni  Ni7  1  0.00000  0.66153  -0.00000  1
 Ni  Ni8  1  0.66153  0.00000  0.33847  1
 Ni  Ni9  1  0.66153  0.00000  -0.00000  1
 Ni  Ni10  1  0.38130  0.38130  0.38130  1
 Ni  Ni11  1  0.61870  0.61870  0.14389  1
 Ni  Ni12  1  0.14389  0.61870  0.61870  1
 Ni  Ni13  1  0.61870  0.14389  0.61870  1
 Ni  Ni14  1  0.85611  0.38130  0.38130  1
 Ni  Ni15  1  0.38130  0.85611  0.38130  1
 Ni  Ni16  1  0.38130  0.38130  0.85611  1
 Ni  Ni17  1  0.61870  0.61870  0.61870  1
 Ni  Ni18  1  0.33847  0.66153  -0.00000  1
 Ni  Ni19  1  0.00000  0.00000  0.33847  1
 Ni  Ni20  1  0.33847  0.00000  0.00000  1
 Ni  Ni21  1  0.75000  0.75000  0.75000  1
 Ni  Ni22  1  0.25000  0.25000  0.25000  1
 Ni  Ni23  1  0.00000  0.00000  0.00000  1
