CIF file written using JARVIS-Tools package.
data_ClF3
_symmetry_space_group_name_H-M  'Pnma'
_cell_length_a       4.3946
_cell_length_b       6.12705
_cell_length_c       8.60931
_cell_angle_alpha    90
_cell_angle_beta     90
_cell_angle_gamma    90

_symmetry_Int_Tables_number  62
_chemical_formula_structural  ClF3
_chemical_formula_sum  Cl4F2
_cell_volume  231.81400029045818
_cell_formula_units_Z  4
loop_
  _symmetry_equiv_pos_site_id
 _symmetry_equiv_pos_as_xyz
 1  'x, y, z'
loop_
 _atom_site_type_symbol
 _atom_site_label
 _atom_site_symmetry_multiplicity
 _atom_site_fract_x
 _atom_site_fract_y
 _atom_site_fract_z
 _atom_site_fract_occupancy
 Cl  Cl1  1  0.61662  0.75000  0.84142  1
 Cl  Cl2  1  0.38338  0.25000  0.15858  1
 Cl  Cl3  1  0.88338  0.75000  0.34142  1
 Cl  Cl4  1  0.11662  0.25000  0.65858  1
 F  F1  1  0.90933  0.75000  0.95913  1
 F  F2  1  0.36865  0.96278  0.15195  1
 F  F3  1  0.13135  0.96278  0.65195  1
 F  F4  1  0.59067  0.75000  0.45913  1
 F  F5  1  0.13135  0.53722  0.65195  1
 F  F6  1  0.09067  0.25000  0.04087  1
 F  F7  1  0.36865  0.53722  0.15195  1
 F  F8  1  0.63135  0.46278  0.84805  1
 F  F9  1  0.86865  0.46278  0.34805  1
 F  F10  1  0.63135  0.03722  0.84805  1
 F  F11  1  0.86865  0.03722  0.34805  1
 F  F12  1  0.40933  0.25000  0.54087  1
