CIF file written using JARVIS-Tools package.
data_AgC2N3
_symmetry_space_group_name_H-M  'P3_121'
_cell_length_a       3.45025
_cell_length_b       3.45024
_cell_length_c       24.7802
_cell_angle_alpha    90
_cell_angle_beta     90
_cell_angle_gamma    120

_symmetry_Int_Tables_number  152
_chemical_formula_structural  AgC2N3
_chemical_formula_sum  Ag3C6N9
_cell_volume  255.46821349450028
_cell_formula_units_Z  3
loop_
  _symmetry_equiv_pos_site_id
 _symmetry_equiv_pos_as_xyz
 1  'x, y, z'
loop_
 _atom_site_type_symbol
 _atom_site_label
 _atom_site_symmetry_multiplicity
 _atom_site_fract_x
 _atom_site_fract_y
 _atom_site_fract_z
 _atom_site_fract_occupancy
 Ag  Ag1  1  0.00000  0.27794  0.66667  1
 Ag  Ag2  1  0.27794  0.00000  0.33333  1
 Ag  Ag3  1  0.72206  0.72206  0.00000  1
 C  C1  1  0.07980  0.61633  0.21275  1
 C  C2  1  0.92020  0.53653  0.12058  1
 C  C3  1  0.38367  0.46347  0.54608  1
 C  C4  1  0.61633  0.07980  0.78725  1
 C  C5  1  0.46347  0.38367  0.45392  1
 C  C6  1  0.53653  0.92020  0.87942  1
 N  N1  1  0.15760  0.75684  0.25697  1
 N  N2  1  0.59924  0.84240  0.92364  1
 N  N3  1  0.24316  0.40076  0.59030  1
 N  N4  1  0.42086  1.00000  0.83333  1
 N  N5  1  0.40076  0.24316  0.40970  1
 N  N6  1  1.00000  0.42086  0.16667  1
 N  N7  1  0.57914  0.57914  0.50000  1
 N  N8  1  0.84240  0.59924  0.07636  1
 N  N9  1  0.75684  0.15760  0.74303  1
