CIF file written using JARVIS-Tools package.
data_BaLi4
_symmetry_space_group_name_H-M  'P6_3/mmc'
_cell_length_a       10.7087
_cell_length_b       10.7087
_cell_length_c       8.75636
_cell_angle_alpha    90
_cell_angle_beta     90
_cell_angle_gamma    120

_symmetry_Int_Tables_number  194
_chemical_formula_structural  BaLi4
_chemical_formula_sum  Ba6Li24
_cell_volume  869.6195085024901
_cell_formula_units_Z  6
loop_
  _symmetry_equiv_pos_site_id
 _symmetry_equiv_pos_as_xyz
 1  'x, y, z'
loop_
 _atom_site_type_symbol
 _atom_site_label
 _atom_site_symmetry_multiplicity
 _atom_site_fract_x
 _atom_site_fract_y
 _atom_site_fract_z
 _atom_site_fract_occupancy
 Ba  Ba1  1  0.47143  0.94286  0.25000  1
 Ba  Ba2  1  0.94286  0.47143  0.75000  1
 Ba  Ba3  1  0.05714  0.52857  0.25000  1
 Ba  Ba4  1  0.47143  0.52857  0.25000  1
 Ba  Ba5  1  0.52857  0.05714  0.75000  1
 Ba  Ba6  1  0.52857  0.47143  0.75000  1
 Li  Li1  1  0.66667  0.33333  0.08537  1
 Li  Li2  1  0.33333  0.66667  0.58537  1
 Li  Li3  1  0.00000  0.00000  0.50000  1
 Li  Li4  1  0.00000  0.00000  0.00000  1
 Li  Li5  1  0.32755  0.16377  0.43308  1
 Li  Li6  1  0.83623  0.67245  0.06692  1
 Li  Li7  1  0.66667  0.33333  0.41463  1
 Li  Li8  1  0.67245  0.83623  0.93308  1
 Li  Li9  1  0.16377  0.32755  0.93308  1
 Li  Li10  1  0.83623  0.16377  0.43308  1
 Li  Li11  1  0.33333  0.66667  0.91463  1
 Li  Li12  1  0.80048  0.90024  0.25000  1
 Li  Li13  1  0.16377  0.83623  0.93308  1
 Li  Li14  1  0.90024  0.09976  0.75000  1
 Li  Li15  1  0.09976  0.90024  0.25000  1
 Li  Li16  1  0.90024  0.80048  0.75000  1
 Li  Li17  1  0.16377  0.32755  0.56692  1
 Li  Li18  1  0.83623  0.16377  0.06692  1
 Li  Li19  1  0.32755  0.16377  0.06692  1
 Li  Li20  1  0.67245  0.83623  0.56692  1
 Li  Li21  1  0.16377  0.83623  0.56692  1
 Li  Li22  1  0.83623  0.67245  0.43308  1
 Li  Li23  1  0.09976  0.19952  0.25000  1
 Li  Li24  1  0.19952  0.09976  0.75000  1
