CIF file written using JARVIS-Tools package.
data_SbSBr3F6
_symmetry_space_group_name_H-M  'P2_1/c'
_cell_length_a       7.93446
_cell_length_b       9.42154
_cell_length_c       12.3068
_cell_angle_alpha    90
_cell_angle_beta     98.9838
_cell_angle_gamma    90

_symmetry_Int_Tables_number  14
_chemical_formula_structural  SbSBr3F6
_chemical_formula_sum  Sb4S4Br2F24
_cell_volume  908.7089813922373
_cell_formula_units_Z  4
loop_
  _symmetry_equiv_pos_site_id
 _symmetry_equiv_pos_as_xyz
 1  'x, y, z'
loop_
 _atom_site_type_symbol
 _atom_site_label
 _atom_site_symmetry_multiplicity
 _atom_site_fract_x
 _atom_site_fract_y
 _atom_site_fract_z
 _atom_site_fract_occupancy
 Br  Br1  1  0.20465  0.91150  0.77159  1
 Br  Br2  1  0.27333  0.93982  0.35479  1
 Br  Br3  1  0.72667  0.43982  0.14521  1
 Br  Br4  1  0.57417  0.31267  0.37730  1
 Br  Br5  1  0.79535  0.41150  0.72841  1
 Br  Br6  1  0.79535  0.08850  0.22841  1
 Br  Br7  1  0.72667  0.06018  0.64521  1
 Br  Br8  1  0.20465  0.58850  0.27159  1
 Br  Br9  1  0.42583  0.68733  0.62270  1
 Br  Br10  1  0.27333  0.56018  0.85479  1
 Br  Br11  1  0.42583  0.81267  0.12270  1
 Br  Br12  1  0.57417  0.18733  0.87730  1
 F  F1  1  0.58266  0.83069  0.85687  1
 F  F2  1  0.74144  0.66145  0.56790  1
 F  F3  1  0.70141  0.58815  0.95549  1
 F  F4  1  0.41734  0.16931  0.14313  1
 F  F5  1  0.41734  0.33069  0.64313  1
 F  F6  1  -0.01651  0.20618  0.49137  1
 F  F7  1  0.29859  0.41185  0.04451  1
 F  F8  1  0.29859  0.08815  0.54451  1
 F  F9  1  0.01651  0.70618  0.00863  1
 F  F10  1  0.74144  0.83855  0.06790  1
 F  F11  1  0.89454  0.54696  0.40580  1
 F  F12  1  0.10546  0.45304  0.59420  1
 F  F13  1  0.89454  0.95304  0.90580  1
 F  F14  1  0.86441  0.79506  0.29466  1
 F  F15  1  0.25856  0.16145  0.93210  1
 F  F16  1  0.13559  0.20494  0.70534  1
 F  F17  1  0.70141  0.91185  0.45549  1
 F  F18  1  0.86441  0.70494  0.79466  1
 F  F19  1  -0.01651  0.29382  0.99137  1
 F  F20  1  0.01651  0.79382  0.50863  1
 F  F21  1  0.10546  0.04696  0.09420  1
 F  F22  1  0.25856  0.33855  0.43210  1
 F  F23  1  0.13559  0.29506  0.20534  1
 F  F24  1  0.58266  0.66931  0.35687  1
 S  S1  1  0.79967  0.30559  0.29201  1
 S  S2  1  0.79967  0.19441  0.79201  1
 S  S3  1  0.20033  0.69441  0.70799  1
 S  S4  1  0.20033  0.80559  0.20799  1
 Sb  Sb1  1  0.80103  0.72989  0.43090  1
 Sb  Sb2  1  0.80103  0.77011  0.93090  1
 Sb  Sb3  1  0.19897  0.22989  0.06910  1
 Sb  Sb4  1  0.19897  0.27011  0.56910  1
