CIF file written using JARVIS-Tools package.
data_Eu2PI
_symmetry_space_group_name_H-M  'R-3m'
_cell_length_a       7.82595
_cell_length_b       7.82596
_cell_length_c       7.82596
_cell_angle_alpha    30.7666
_cell_angle_beta     30.7666
_cell_angle_gamma    30.7665

_symmetry_Int_Tables_number  166
_chemical_formula_structural  Eu2PI
_chemical_formula_sum  Eu2PI
_cell_volume  111.2244737665546
_cell_formula_units_Z  1
loop_
  _symmetry_equiv_pos_site_id
 _symmetry_equiv_pos_as_xyz
 1  'x, y, z'
loop_
 _atom_site_type_symbol
 _atom_site_label
 _atom_site_symmetry_multiplicity
 _atom_site_fract_x
 _atom_site_fract_y
 _atom_site_fract_z
 _atom_site_fract_occupancy
 Eu  Eu1  1  0.22901  0.22901  0.22901  1
 Eu  Eu2  1  0.77099  0.77099  0.77099  1
 I  I1  1  0.00000  0.00000  0.00000  1
 P  P1  1  0.50000  0.50000  0.50000  1
