CIF file written using JARVIS-Tools package.
data_HgO
_symmetry_space_group_name_H-M  'Pnma'
_cell_length_a       3.63421
_cell_length_b       5.62062
_cell_length_c       6.7318
_cell_angle_alpha    90
_cell_angle_beta     90
_cell_angle_gamma    90

_symmetry_Int_Tables_number  62
_chemical_formula_structural  HgO
_chemical_formula_sum  Hg4O4
_cell_volume  137.50706290923753
_cell_formula_units_Z  4
loop_
  _symmetry_equiv_pos_site_id
 _symmetry_equiv_pos_as_xyz
 1  'x, y, z'
loop_
 _atom_site_type_symbol
 _atom_site_label
 _atom_site_symmetry_multiplicity
 _atom_site_fract_x
 _atom_site_fract_y
 _atom_site_fract_z
 _atom_site_fract_occupancy
 Hg  Hg1  1  0.74832  0.75000  0.61416  1
 Hg  Hg2  1  0.24832  0.25000  0.88584  1
 Hg  Hg3  1  0.25168  0.25000  0.38584  1
 Hg  Hg4  1  0.75168  0.75000  0.11416  1
 O  O1  1  0.07927  0.75000  0.86300  1
 O  O2  1  0.57927  0.25000  0.63700  1
 O  O3  1  0.92073  0.25000  0.13700  1
 O  O4  1  0.42073  0.75000  0.36300  1
