CIF file written using JARVIS-Tools package.
data_Nd3SeBrN2
_symmetry_space_group_name_H-M  'Pnma'
_cell_length_a       4.10749
_cell_length_b       12.6473
_cell_length_c       13.2801
_cell_angle_alpha    90
_cell_angle_beta     90
_cell_angle_gamma    90

_symmetry_Int_Tables_number  62
_chemical_formula_structural  Nd3SeBrN2
_chemical_formula_sum  Nd2Se4Br4N8
_cell_volume  689.8816541320448
_cell_formula_units_Z  4
loop_
  _symmetry_equiv_pos_site_id
 _symmetry_equiv_pos_as_xyz
 1  'x, y, z'
loop_
 _atom_site_type_symbol
 _atom_site_label
 _atom_site_symmetry_multiplicity
 _atom_site_fract_x
 _atom_site_fract_y
 _atom_site_fract_z
 _atom_site_fract_occupancy
 Br  Br1  1  0.25000  0.05893  0.75689  1
 Br  Br2  1  0.75000  0.55893  0.74311  1
 Br  Br3  1  0.75000  0.94107  0.24311  1
 Br  Br4  1  0.25000  0.44107  0.25689  1
 N  N1  1  0.75000  0.56675  0.44708  1
 N  N2  1  0.75000  0.27218  0.64304  1
 N  N3  1  0.25000  0.06675  0.05292  1
 N  N4  1  0.25000  0.77218  0.85696  1
 N  N5  1  0.75000  0.22782  0.14304  1
 N  N6  1  0.25000  0.43325  0.55292  1
 N  N7  1  0.75000  0.93325  0.94708  1
 N  N8  1  0.25000  0.72782  0.35696  1
 Nd  Nd1  1  0.25000  0.88989  0.41092  1
 Nd  Nd2  1  0.25000  0.88473  0.02228  1
 Nd  Nd3  1  0.75000  0.65521  0.30211  1
 Nd  Nd4  1  0.25000  0.61011  0.91092  1
 Nd  Nd5  1  0.75000  0.11011  0.58908  1
 Nd  Nd6  1  0.75000  0.11527  0.97772  1
 Nd  Nd7  1  0.25000  0.34479  0.69789  1
 Nd  Nd8  1  0.25000  0.15521  0.19789  1
 Nd  Nd9  1  0.75000  0.38989  0.08908  1
 Nd  Nd10  1  0.75000  0.84479  0.80211  1
 Nd  Nd11  1  0.25000  0.61527  0.52228  1
 Nd  Nd12  1  0.75000  0.38473  0.47772  1
 Se  Se1  1  0.25000  0.14691  0.43495  1
 Se  Se2  1  0.75000  0.64691  0.06505  1
 Se  Se3  1  0.25000  0.35309  0.93495  1
 Se  Se4  1  0.75000  0.85309  0.56505  1
