CIF file written using JARVIS-Tools package.
data_Mg3V6Fe4O24
_symmetry_space_group_name_H-M  'P-1'
_cell_length_a       6.55227
_cell_length_b       7.9125
_cell_length_c       9.66384
_cell_angle_alpha    106.689
_cell_angle_beta     104.959
_cell_angle_gamma    103.579

_symmetry_Int_Tables_number  2
_chemical_formula_structural  Mg3V6Fe4O24
_chemical_formula_sum  Mg3V6Fe4O24
_cell_volume  437.05417992779684
_cell_formula_units_Z  1
loop_
  _symmetry_equiv_pos_site_id
 _symmetry_equiv_pos_as_xyz
 1  'x, y, z'
loop_
 _atom_site_type_symbol
 _atom_site_label
 _atom_site_symmetry_multiplicity
 _atom_site_fract_x
 _atom_site_fract_y
 _atom_site_fract_z
 _atom_site_fract_occupancy
 Fe  Fe1  1  0.37670  0.96242  0.60143  1
 Fe  Fe2  1  0.04412  0.19645  0.01221  1
 Fe  Fe3  1  0.62330  0.03758  0.39857  1
 Fe  Fe4  1  0.95588  0.80355  0.98779  1
 Mg  Mg1  1  -0.00000  0.50000  0.50000  1
 Mg  Mg2  1  0.72348  0.70843  0.20305  1
 Mg  Mg3  1  0.27652  0.29157  0.79695  1
 O  O1  1  0.08109  0.05619  0.13947  1
 O  O2  1  0.12568  0.01618  0.64428  1
 O  O3  1  0.52268  0.22308  0.73359  1
 O  O4  1  0.47732  0.77692  0.26641  1
 O  O5  1  0.56427  0.12418  0.24137  1
 O  O6  1  0.74582  0.48334  0.25779  1
 O  O7  1  0.34211  0.23690  0.99543  1
 O  O8  1  0.65789  0.76310  0.00457  1
 O  O9  1  0.34829  0.04079  0.43018  1
 O  O10  1  0.65171  0.95921  0.56982  1
 O  O11  1  0.20682  0.70932  0.45608  1
 O  O12  1  0.79318  0.29068  0.54392  1
 O  O13  1  0.91891  0.94381  0.86053  1
 O  O14  1  0.25418  0.51666  0.74221  1
 O  O15  1  0.83851  0.66991  0.57783  1
 O  O16  1  0.43573  0.87582  0.75863  1
 O  O17  1  0.17201  0.42837  0.17215  1
 O  O18  1  0.99050  0.28125  0.84590  1
 O  O19  1  0.00950  0.71875  0.15410  1
 O  O20  1  0.23389  0.81167  0.97225  1
 O  O21  1  0.76611  0.18833  0.02775  1
 O  O22  1  0.87432  0.98382  0.35572  1
 O  O23  1  0.16149  0.33009  0.42217  1
 O  O24  1  0.82799  0.57163  0.82785  1
 V  V1  1  0.21568  0.65626  0.26533  1
 V  V2  1  0.88171  0.89451  0.66216  1
 V  V3  1  0.39921  0.74590  0.86982  1
 V  V4  1  0.11829  0.10549  0.33784  1
 V  V5  1  0.60079  0.25410  0.13018  1
 V  V6  1  0.78432  0.34374  0.73467  1
