CIF file written using JARVIS-Tools package.
data_Li2Fe5O5F7
_symmetry_space_group_name_H-M  'P1'
_cell_length_a       5.77686
_cell_length_b       5.98541
_cell_length_c       5.87418
_cell_angle_alpha    99.6693
_cell_angle_beta     99.2424
_cell_angle_gamma    98.7141

_symmetry_Int_Tables_number  1
_chemical_formula_structural  Li2Fe5O5F7
_chemical_formula_sum  Li2Fe5O5F7
_cell_volume  194.2727368219053
_cell_formula_units_Z  1
loop_
  _symmetry_equiv_pos_site_id
 _symmetry_equiv_pos_as_xyz
 1  'x, y, z'
loop_
 _atom_site_type_symbol
 _atom_site_label
 _atom_site_symmetry_multiplicity
 _atom_site_fract_x
 _atom_site_fract_y
 _atom_site_fract_z
 _atom_site_fract_occupancy
 F  F1  1  0.32000  0.94554  0.11902  1
 F  F2  1  0.59674  0.82947  0.44258  1
 F  F3  1  0.06446  0.86276  0.69501  1
 F  F4  1  0.56689  0.41425  0.18138  1
 F  F5  1  0.87395  0.68180  0.04781  1
 F  F6  1  0.15971  0.53745  0.36056  1
 F  F7  1  0.13270  0.27890  0.90425  1
 Fe  Fe1  1  0.65276  0.39634  0.84104  1
 Fe  Fe2  1  0.14702  0.35229  0.59315  1
 Fe  Fe3  1  0.62933  0.15326  0.34259  1
 Fe  Fe4  1  0.98857  0.00845  0.02600  1
 Fe  Fe5  1  0.40747  0.88775  0.70377  1
 Li  Li1  1  0.86338  0.67462  0.40360  1
 Li  Li2  1  0.31882  0.60083  0.12334  1
 O  O1  1  0.39982  0.18255  0.57443  1
 O  O2  1  0.39353  0.58984  0.78037  1
 O  O3  1  0.84139  0.41692  0.60554  1
 O  O4  1  0.68179  0.07172  0.91324  1
 O  O5  1  0.96168  0.11527  0.34232  1
