CIF file written using JARVIS-Tools package.
data_Mn3FeP4
_symmetry_space_group_name_H-M  'Pm'
_cell_length_a       3.17507
_cell_length_b       5.18345
_cell_length_c       5.81409
_cell_angle_alpha    90.0519
_cell_angle_beta     90
_cell_angle_gamma    90

_symmetry_Int_Tables_number  6
_chemical_formula_structural  Mn3FeP4
_chemical_formula_sum  Mn3FeP4
_cell_volume  95.68698350305559
_cell_formula_units_Z  1
loop_
  _symmetry_equiv_pos_site_id
 _symmetry_equiv_pos_as_xyz
 1  'x, y, z'
loop_
 _atom_site_type_symbol
 _atom_site_label
 _atom_site_symmetry_multiplicity
 _atom_site_fract_x
 _atom_site_fract_y
 _atom_site_fract_z
 _atom_site_fract_occupancy
 Fe  Fe1  1  0.50000  0.50367  0.30381  1
 Mn  Mn1  1  0.50000  0.00536  0.19475  1
 Mn  Mn2  1  0.00000  0.49755  0.70223  1
 Mn  Mn3  1  0.00000  0.99782  0.80010  1
 P  P1  1  0.50000  0.69129  0.93117  1
 P  P2  1  0.50000  0.19046  0.56824  1
 P  P3  1  0.00000  0.30902  0.07590  1
 P  P4  1  0.00000  0.80483  0.42379  1
