CIF file written using JARVIS-Tools package.
data_TlZn2Sb2
_symmetry_space_group_name_H-M  'I4cm'
_cell_length_a       7.09015
_cell_length_b       7.09015
_cell_length_c       7.09014
_cell_angle_alpha    105.902
_cell_angle_beta     105.902
_cell_angle_gamma    116.874

_symmetry_Int_Tables_number  108
_chemical_formula_structural  TlZn2Sb2
_chemical_formula_sum  Tl2Zn4Sb4
_cell_volume  270.89750756502775
_cell_formula_units_Z  2
loop_
  _symmetry_equiv_pos_site_id
 _symmetry_equiv_pos_as_xyz
 1  'x, y, z'
loop_
 _atom_site_type_symbol
 _atom_site_label
 _atom_site_symmetry_multiplicity
 _atom_site_fract_x
 _atom_site_fract_y
 _atom_site_fract_z
 _atom_site_fract_occupancy
 Sb  Sb1  1  0.83386  0.64160  0.50000  1
 Sb  Sb2  1  0.33385  0.83386  0.19226  1
 Sb  Sb3  1  0.64160  0.14160  0.80774  1
 Sb  Sb4  1  0.14160  0.33385  0.50000  1
 Tl  Tl1  1  0.76985  0.76985  0.00000  1
 Tl  Tl2  1  0.26984  0.26984  0.00000  1
 Zn  Zn1  1  0.77062  0.98688  0.50000  1
 Zn  Zn2  1  0.98688  0.48688  0.21626  1
 Zn  Zn3  1  0.48688  0.27062  0.50000  1
 Zn  Zn4  1  0.27062  0.77062  0.78374  1
