CIF file written using JARVIS-Tools package.
data_Li3VO3F2
_symmetry_space_group_name_H-M  'Cc'
_cell_length_a       5.29883
_cell_length_b       5.29882
_cell_length_c       7.95847
_cell_angle_alpha    83.3896
_cell_angle_beta     96.6104
_cell_angle_gamma    115.612

_symmetry_Int_Tables_number  9
_chemical_formula_structural  Li3VO3F2
_chemical_formula_sum  Li6V2O6F4
_cell_volume  199.62497251411048
_cell_formula_units_Z  2
loop_
  _symmetry_equiv_pos_site_id
 _symmetry_equiv_pos_as_xyz
 1  'x, y, z'
loop_
 _atom_site_type_symbol
 _atom_site_label
 _atom_site_symmetry_multiplicity
 _atom_site_fract_x
 _atom_site_fract_y
 _atom_site_fract_z
 _atom_site_fract_occupancy
 F  F1  1  0.98172  0.35822  0.36710  1
 F  F2  1  0.00623  0.62105  0.65203  1
 F  F3  1  0.64178  0.01828  0.86710  1
 F  F4  1  0.37895  0.99377  0.15203  1
 Li  Li1  1  0.97092  0.37797  0.86966  1
 Li  Li2  1  0.24653  0.42831  0.56539  1
 Li  Li3  1  0.79463  0.57280  0.42897  1
 Li  Li4  1  0.57169  0.75347  0.06539  1
 Li  Li5  1  0.42720  0.20537  0.92897  1
 Li  Li6  1  0.62203  0.02908  0.36966  1
 O  O1  1  0.74195  0.57993  0.91284  1
 O  O2  1  0.42007  0.25805  0.41284  1
 O  O3  1  0.12306  0.13856  0.75379  1
 O  O4  1  0.22411  0.40490  0.07117  1
 O  O5  1  0.59510  0.77589  0.57117  1
 O  O6  1  0.86144  0.87694  0.25379  1
 V  V1  1  0.17108  0.17511  0.24577  1
 V  V2  1  0.82489  0.82892  0.74577  1
