CIF file written using JARVIS-Tools package.
data_KCeGeSe4
_symmetry_space_group_name_H-M  'P2_1'
_cell_length_a       6.90881
_cell_length_b       7.06627
_cell_length_c       8.92911
_cell_angle_alpha    90
_cell_angle_beta     108.214
_cell_angle_gamma    90

_symmetry_Int_Tables_number  4
_chemical_formula_structural  KCeGeSe4
_chemical_formula_sum  K2Ce2Ge2Se8
_cell_volume  414.07241188101665
_cell_formula_units_Z  2
loop_
  _symmetry_equiv_pos_site_id
 _symmetry_equiv_pos_as_xyz
 1  'x, y, z'
loop_
 _atom_site_type_symbol
 _atom_site_label
 _atom_site_symmetry_multiplicity
 _atom_site_fract_x
 _atom_site_fract_y
 _atom_site_fract_z
 _atom_site_fract_occupancy
 Ce  Ce1  1  0.73219  0.21303  0.55523  1
 Ce  Ce2  1  0.26781  0.71303  0.44477  1
 Ge  Ge1  1  0.71683  0.74638  0.31571  1
 Ge  Ge2  1  0.28317  0.24638  0.68429  1
 K  K1  1  0.24851  0.71821  0.93855  1
 K  K2  1  0.75149  0.21821  0.06145  1
 Se  Se1  1  0.91785  0.75096  0.14452  1
 Se  Se2  1  0.08215  0.25096  0.85548  1
 Se  Se3  1  0.49275  0.96888  0.71978  1
 Se  Se4  1  0.92757  0.80587  0.58142  1
 Se  Se5  1  0.07243  0.30587  0.41858  1
 Se  Se6  1  0.46346  0.99196  0.26596  1
 Se  Se7  1  0.53654  0.49196  0.73404  1
 Se  Se8  1  0.50725  0.46888  0.28022  1
