CIF file written using JARVIS-Tools package.
data_BiB3O6
_symmetry_space_group_name_H-M  'P2_1/c'
_cell_length_a       4.2799
_cell_length_b       7.28043
_cell_length_c       11.76
_cell_angle_alpha    90
_cell_angle_beta     90
_cell_angle_gamma    91.2084

_symmetry_Int_Tables_number  14
_chemical_formula_structural  BiB3O6
_chemical_formula_sum  Bi4B2O24
_cell_volume  366.3558669140178
_cell_formula_units_Z  4
loop_
  _symmetry_equiv_pos_site_id
 _symmetry_equiv_pos_as_xyz
 1  'x, y, z'
loop_
 _atom_site_type_symbol
 _atom_site_label
 _atom_site_symmetry_multiplicity
 _atom_site_fract_x
 _atom_site_fract_y
 _atom_site_fract_z
 _atom_site_fract_occupancy
 B  B1  1  0.67867  0.20740  0.16284  1
 B  B2  1  0.31127  0.93167  0.62435  1
 B  B3  1  0.19674  0.37006  0.09310  1
 B  B4  1  0.68873  0.56833  0.12435  1
 B  B5  1  0.32133  0.79260  0.83716  1
 B  B6  1  0.68873  0.06833  0.37565  1
 B  B7  1  0.80326  0.62994  0.90690  1
 B  B8  1  0.31127  0.43167  0.87565  1
 B  B9  1  0.32133  0.29260  0.66284  1
 B  B10  1  0.80326  0.12994  0.59310  1
 B  B11  1  0.19674  0.87006  0.40690  1
 B  B12  1  0.67867  0.70740  0.33716  1
 Bi  Bi1  1  0.82806  0.62753  0.61567  1
 Bi  Bi2  1  0.82806  0.12753  0.88433  1
 Bi  Bi3  1  0.17194  0.87247  0.11567  1
 Bi  Bi4  1  0.17194  0.37247  0.38433  1
 O  O1  1  0.80466  0.18093  0.47191  1
 O  O2  1  0.66026  0.77185  0.83858  1
 O  O3  1  0.64637  0.45601  0.88350  1
 O  O4  1  0.76189  0.55960  0.41823  1
 O  O5  1  0.84881  0.38443  0.12603  1
 O  O6  1  0.21171  0.32025  0.77900  1
 O  O7  1  0.35363  0.04399  0.38350  1
 O  O8  1  0.64637  0.95601  0.61650  1
 O  O9  1  0.66026  0.27185  0.66142  1
 O  O10  1  0.23811  0.44040  0.58177  1
 O  O11  1  0.76189  0.05960  0.08177  1
 O  O12  1  0.78829  0.17975  0.27900  1
 O  O13  1  0.15119  0.61557  0.87397  1
 O  O14  1  0.35363  0.54399  0.11650  1
 O  O15  1  0.78829  0.67975  0.22100  1
 O  O16  1  0.33974  0.72815  0.33858  1
 O  O17  1  0.80466  0.68093  0.02809  1
 O  O18  1  0.21171  0.82025  0.72100  1
 O  O19  1  0.33974  0.22815  0.16142  1
 O  O20  1  0.23811  0.94040  0.91823  1
 O  O21  1  0.19534  0.31907  0.97191  1
 O  O22  1  0.19534  0.81907  0.52809  1
 O  O23  1  0.84881  0.88443  0.37397  1
 O  O24  1  0.15119  0.11557  0.62603  1
