CIF file written using JARVIS-Tools package.
data_CoH2SO5
_symmetry_space_group_name_H-M  'C2/c'
_cell_length_a       5.15541
_cell_length_b       5.15541
_cell_length_c       7.5242
_cell_angle_alpha    71.7592
_cell_angle_beta     108.241
_cell_angle_gamma    83.8018

_symmetry_Int_Tables_number  15
_chemical_formula_structural  CoH2SO5
_chemical_formula_sum  Co2H4S2O0
_cell_volume  175.62240552487995
_cell_formula_units_Z  2
loop_
  _symmetry_equiv_pos_site_id
 _symmetry_equiv_pos_as_xyz
 1  'x, y, z'
loop_
 _atom_site_type_symbol
 _atom_site_label
 _atom_site_symmetry_multiplicity
 _atom_site_fract_x
 _atom_site_fract_y
 _atom_site_fract_z
 _atom_site_fract_occupancy
 Co  Co1  1  0.50000  0.50000  0.50000  1
 Co  Co2  1  0.50000  0.50000  0.00000  1
 H  H1  1  0.42129  0.15283  0.79681  1
 H  H2  1  0.15283  0.42129  0.70319  1
 H  H3  1  0.57871  0.84717  0.20319  1
 H  H4  1  0.84717  0.57871  0.29681  1
 O  O1  1  0.36203  0.36203  0.75000  1
 O  O2  1  0.78045  0.12211  0.59394  1
 O  O3  1  0.87789  0.21955  0.09394  1
 O  O4  1  0.12211  0.78045  0.90606  1
 O  O5  1  0.83376  0.62301  0.65730  1
 O  O6  1  0.37699  0.16624  0.15730  1
 O  O7  1  0.16624  0.37699  0.34270  1
 O  O8  1  0.21955  0.87789  0.40606  1
 O  O9  1  0.62301  0.83376  0.84270  1
 O  O10  1  0.63797  0.63797  0.25000  1
 S  S1  1  0.15790  0.15790  0.25000  1
 S  S2  1  0.84210  0.84210  0.75000  1
