CIF file written using JARVIS-Tools package.
data_Na2Nb4O11
_symmetry_space_group_name_H-M  'R-3c'
_cell_length_a       6.28989
_cell_length_b       6.29167
_cell_length_c       12.9175
_cell_angle_alpha    75.9099
_cell_angle_beta     75.9095
_cell_angle_gamma    60.011

_symmetry_Int_Tables_number  167
_chemical_formula_structural  Na2Nb4O11
_chemical_formula_sum  Na4Nb8O22
_cell_volume  424.90202141443604
_cell_formula_units_Z  2
loop_
  _symmetry_equiv_pos_site_id
 _symmetry_equiv_pos_as_xyz
 1  'x, y, z'
loop_
 _atom_site_type_symbol
 _atom_site_label
 _atom_site_symmetry_multiplicity
 _atom_site_fract_x
 _atom_site_fract_y
 _atom_site_fract_z
 _atom_site_fract_occupancy
 Na  Na1  1  0.33441  0.83447  -0.00344  1
 Na  Na2  1  0.16544  0.66553  0.50344  1
 Na  Na3  1  0.83456  0.33447  0.49656  1
 Na  Na4  1  0.66559  0.16553  0.00344  1
 Nb  Nb1  1  0.11436  0.25000  0.75000  1
 Nb  Nb2  1  0.75003  0.88581  0.75001  1
 Nb  Nb3  1  0.38586  0.61418  0.75000  1
 Nb  Nb4  1  0.61414  0.38582  0.25000  1
 Nb  Nb5  1  0.24997  0.11419  0.24999  1
 Nb  Nb6  1  0.50000  0.00000  0.50000  1
 Nb  Nb7  1  -0.00000  0.50000  0.00000  1
 Nb  Nb8  1  0.88564  0.75000  0.25000  1
 O  O1  1  0.77801  0.75240  0.40832  1
 O  O2  1  0.25237  0.06126  0.40830  1
 O  O3  1  0.72195  0.43872  0.09169  1
 O  O4  1  0.74763  0.93874  0.59170  1
 O  O5  1  0.27805  0.56128  0.90831  1
 O  O6  1  0.49964  0.75000  0.25000  1
 O  O7  1  0.56139  0.27793  0.40831  1
 O  O8  1  0.75238  0.77792  0.90831  1
 O  O9  1  0.43861  0.72207  0.59169  1
 O  O10  1  0.24762  0.22208  0.09169  1
 O  O11  1  0.59452  0.09454  0.21645  1
 O  O12  1  0.00072  0.99930  0.24997  1
 O  O13  1  0.24998  0.50067  0.25004  1
 O  O14  1  0.99928  0.00070  0.75003  1
 O  O15  1  0.75002  0.49933  0.74996  1
 O  O16  1  0.93875  0.74760  0.09168  1
 O  O17  1  0.90551  0.40546  0.28354  1
 O  O18  1  0.40548  0.90546  0.78355  1
 O  O19  1  0.09449  0.59454  0.71646  1
 O  O20  1  0.06125  0.25240  0.90832  1
 O  O21  1  0.22199  0.24760  0.59168  1
 O  O22  1  0.50036  0.25000  0.75000  1
