CIF file written using JARVIS-Tools package.
data_MoCl3
_symmetry_space_group_name_H-M  'C2/c'
_cell_length_a       5.72121
_cell_length_b       5.72121
_cell_length_c       12.0502
_cell_angle_alpha    91.0509
_cell_angle_beta     91.0509
_cell_angle_gamma    115.146

_symmetry_Int_Tables_number  15
_chemical_formula_structural  MoCl3
_chemical_formula_sum  Mo4Cl2
_cell_volume  356.8395424336297
_cell_formula_units_Z  4
loop_
  _symmetry_equiv_pos_site_id
 _symmetry_equiv_pos_as_xyz
 1  'x, y, z'
loop_
 _atom_site_type_symbol
 _atom_site_label
 _atom_site_symmetry_multiplicity
 _atom_site_fract_x
 _atom_site_fract_y
 _atom_site_fract_z
 _atom_site_fract_occupancy
 Cl  Cl1  1  0.67550  0.65037  0.63974  1
 Cl  Cl2  1  0.00959  0.66122  0.86060  1
 Cl  Cl3  1  0.31829  0.00645  0.10913  1
 Cl  Cl4  1  -0.00645  0.68171  0.39087  1
 Cl  Cl5  1  0.65037  0.67550  0.13974  1
 Cl  Cl6  1  0.66122  0.00959  0.36060  1
 Cl  Cl7  1  0.34963  0.32450  0.86026  1
 Cl  Cl8  1  0.00645  0.31829  0.60913  1
 Cl  Cl9  1  0.33878  -0.00959  0.63940  1
 Cl  Cl10  1  -0.00959  0.33878  0.13940  1
 Cl  Cl11  1  0.68171  -0.00645  0.89087  1
 Cl  Cl12  1  0.32450  0.34963  0.36026  1
 Mo  Mo1  1  0.97752  0.02248  0.75000  1
 Mo  Mo2  1  0.02248  0.97752  0.25000  1
 Mo  Mo3  1  0.28970  0.71030  0.25000  1
 Mo  Mo4  1  0.71030  0.28970  0.75000  1
