CIF file written using JARVIS-Tools package.
data_Li3CuF6
_symmetry_space_group_name_H-M  'P2_1/c'
_cell_length_a       5.00221
_cell_length_b       5.1254
_cell_length_c       7.54327
_cell_angle_alpha    90
_cell_angle_beta     90.4392
_cell_angle_gamma    90

_symmetry_Int_Tables_number  14
_chemical_formula_structural  Li3CuF6
_chemical_formula_sum  Li6Cu2F2
_cell_volume  193.39133299394507
_cell_formula_units_Z  2
loop_
  _symmetry_equiv_pos_site_id
 _symmetry_equiv_pos_as_xyz
 1  'x, y, z'
loop_
 _atom_site_type_symbol
 _atom_site_label
 _atom_site_symmetry_multiplicity
 _atom_site_fract_x
 _atom_site_fract_y
 _atom_site_fract_z
 _atom_site_fract_occupancy
 Cu  Cu1  1  0.74997  0.51204  0.75000  1
 Cu  Cu2  1  0.25003  0.01204  0.25000  1
 F  F1  1  0.38578  0.92402  0.48370  1
 F  F2  1  0.92631  0.83389  0.30753  1
 F  F3  1  0.08300  0.32474  0.33575  1
 F  F4  1  0.88573  0.60009  0.98369  1
 F  F5  1  0.61422  0.42402  0.51630  1
 F  F6  1  0.91700  0.82474  0.66425  1
 F  F7  1  0.57376  0.19017  0.19249  1
 F  F8  1  0.42624  0.69017  0.80751  1
 F  F9  1  0.07369  0.33389  0.69247  1
 F  F10  1  0.58299  0.19933  0.83573  1
 F  F11  1  0.11427  0.10009  0.01631  1
 F  F12  1  0.41701  0.69933  0.16427  1
 Li  Li1  1  0.24666  0.55414  0.51467  1
 Li  Li2  1  0.25001  0.01206  0.74999  1
 Li  Li3  1  0.25327  0.47001  0.98535  1
 Li  Li4  1  0.74673  0.97001  0.01465  1
 Li  Li5  1  0.74999  0.51206  0.25001  1
 Li  Li6  1  0.75334  0.05414  0.48533  1
