CIF file written using JARVIS-Tools package.
data_SrCa2I6
_symmetry_space_group_name_H-M  'P321'
_cell_length_a       13.6282
_cell_length_b       13.628
_cell_length_c       7.06254
_cell_angle_alpha    89.999
_cell_angle_beta     90
_cell_angle_gamma    120

_symmetry_Int_Tables_number  150
_chemical_formula_structural  SrCa2I6
_chemical_formula_sum  Sr3Ca6I8
_cell_volume  1135.9498696925054
_cell_formula_units_Z  3
loop_
  _symmetry_equiv_pos_site_id
 _symmetry_equiv_pos_as_xyz
 1  'x, y, z'
loop_
 _atom_site_type_symbol
 _atom_site_label
 _atom_site_symmetry_multiplicity
 _atom_site_fract_x
 _atom_site_fract_y
 _atom_site_fract_z
 _atom_site_fract_occupancy
 Ca  Ca1  1  0.67613  0.67613  0.50000  1
 Ca  Ca2  1  0.32386  -0.00000  0.50000  1
 Ca  Ca3  1  0.65752  -0.00000  -0.00000  1
 Ca  Ca4  1  -0.00000  0.32387  0.50000  1
 Ca  Ca5  1  -0.00000  0.65753  0.00000  1
 Ca  Ca6  1  0.34247  0.34247  -0.00000  1
 I  I1  1  0.54247  0.10530  0.24623  1
 I  I2  1  0.10288  0.87441  0.74288  1
 I  I3  1  0.22404  0.78588  0.23874  1
 I  I4  1  0.10530  0.54247  0.75377  1
 I  I5  1  0.43717  0.89470  0.75377  1
 I  I6  1  0.89469  0.43716  0.24622  1
 I  I7  1  0.12558  0.22847  0.74288  1
 I  I8  1  0.56183  0.77596  0.23874  1
 I  I9  1  0.21412  0.43816  0.23874  1
 I  I10  1  0.45753  0.56284  0.75378  1
 I  I11  1  0.87441  0.10288  0.25713  1
 I  I12  1  0.56283  0.45753  0.24623  1
 I  I13  1  0.22847  0.12559  0.25712  1
 I  I14  1  0.77596  0.56184  0.76126  1
 I  I15  1  0.89711  0.77153  0.25712  1
 I  I16  1  0.78587  0.22404  0.76126  1
 I  I17  1  0.77152  0.89712  0.74287  1
 I  I18  1  0.43816  0.21412  0.76126  1
 Sr  Sr1  1  0.66666  0.33334  0.50400  1
 Sr  Sr2  1  -0.00000  -0.00000  -0.00000  1
 Sr  Sr3  1  0.33333  0.66666  0.49600  1
