CIF file written using JARVIS-Tools package.
data_BeNb4Pd
_symmetry_space_group_name_H-M  'F-43m'
_cell_length_a       5.33103
_cell_length_b       5.33103
_cell_length_c       5.33103
_cell_angle_alpha    60
_cell_angle_beta     60
_cell_angle_gamma    60

_symmetry_Int_Tables_number  216
_chemical_formula_structural  BeNb4Pd
_chemical_formula_sum  BeNb4Pd
_cell_volume  107.13163597160913
_cell_formula_units_Z  1
loop_
  _symmetry_equiv_pos_site_id
 _symmetry_equiv_pos_as_xyz
 1  'x, y, z'
loop_
 _atom_site_type_symbol
 _atom_site_label
 _atom_site_symmetry_multiplicity
 _atom_site_fract_x
 _atom_site_fract_y
 _atom_site_fract_z
 _atom_site_fract_occupancy
 Be  Be1  1  0.00000  0.00000  0.00000  1
 Nb  Nb1  1  0.37402  0.37402  0.37402  1
 Nb  Nb2  1  0.37402  0.87795  0.37402  1
 Nb  Nb3  1  0.37402  0.37402  0.87795  1
 Nb  Nb4  1  0.87795  0.37402  0.37402  1
 Pd  Pd1  1  0.75000  0.75000  0.75000  1
