CIF file written using JARVIS-Tools package.
data_VOF3
_symmetry_space_group_name_H-M  'Aem2'
_cell_length_a       5.55342
_cell_length_b       4.89544
_cell_length_c       5.56614
_cell_angle_alpha    55.3522
_cell_angle_beta     90
_cell_angle_gamma    90

_symmetry_Int_Tables_number  39
_chemical_formula_structural  VOF3
_chemical_formula_sum  V2O2F6
_cell_volume  124.48834768630611
_cell_formula_units_Z  2
loop_
  _symmetry_equiv_pos_site_id
 _symmetry_equiv_pos_as_xyz
 1  'x, y, z'
loop_
 _atom_site_type_symbol
 _atom_site_label
 _atom_site_symmetry_multiplicity
 _atom_site_fract_x
 _atom_site_fract_y
 _atom_site_fract_z
 _atom_site_fract_occupancy
 F  F1  1  -0.00244  0.00030  0.27536  1
 F  F2  1  0.25193  0.57960  0.23619  1
 F  F3  1  0.00244  0.00030  0.77536  1
 F  F4  1  0.74750  0.42041  0.31573  1
 F  F5  1  0.74807  0.57960  0.73619  1
 F  F6  1  0.25250  0.42041  0.81573  1
 O  O1  1  0.51953  -0.00028  0.23123  1
 O  O2  1  0.48047  -0.00028  0.73123  1
 V  V1  1  0.27638  -0.00003  0.94149  1
 V  V2  1  0.72362  -0.00003  0.44149  1
