CIF file written using JARVIS-Tools package.
data_GaBr2
_symmetry_space_group_name_H-M  'Pnna'
_cell_length_a       7.54497
_cell_length_b       9.91475
_cell_length_c       10.0118
_cell_angle_alpha    90
_cell_angle_beta     90
_cell_angle_gamma    90

_symmetry_Int_Tables_number  52
_chemical_formula_structural  GaBr2
_chemical_formula_sum  Ga8Br6
_cell_volume  748.9479417474059
_cell_formula_units_Z  8
loop_
  _symmetry_equiv_pos_site_id
 _symmetry_equiv_pos_as_xyz
 1  'x, y, z'
loop_
 _atom_site_type_symbol
 _atom_site_label
 _atom_site_symmetry_multiplicity
 _atom_site_fract_x
 _atom_site_fract_y
 _atom_site_fract_z
 _atom_site_fract_occupancy
 Br  Br1  1  -0.00151  0.54538  0.68325  1
 Br  Br2  1  0.83739  0.18594  0.54738  1
 Br  Br3  1  0.83739  0.31406  0.95262  1
 Br  Br4  1  0.66261  0.68594  0.95262  1
 Br  Br5  1  0.00151  0.45462  0.31675  1
 Br  Br6  1  0.16261  0.81406  0.45262  1
 Br  Br7  1  0.16261  0.68594  0.04738  1
 Br  Br8  1  0.66261  0.81406  0.54738  1
 Br  Br9  1  0.33739  0.18594  0.45262  1
 Br  Br10  1  0.50151  0.04538  0.81675  1
 Br  Br11  1  0.50151  0.45462  0.68325  1
 Br  Br12  1  0.00151  0.04538  0.18325  1
 Br  Br13  1  -0.00151  0.95462  0.81675  1
 Br  Br14  1  0.49849  0.95462  0.18325  1
 Br  Br15  1  0.49849  0.54538  0.31675  1
 Br  Br16  1  0.33739  0.31406  0.04738  1
 Ga  Ga1  1  0.65712  0.25000  0.25000  1
 Ga  Ga2  1  0.84288  0.75000  0.25000  1
 Ga  Ga3  1  0.34288  0.75000  0.75000  1
 Ga  Ga4  1  0.15712  0.25000  0.75000  1
 Ga  Ga5  1  0.25000  0.50000  0.17931  1
 Ga  Ga6  1  0.25000  0.00000  0.32069  1
 Ga  Ga7  1  0.75000  0.50000  0.82069  1
 Ga  Ga8  1  0.75000  0.00000  0.67931  1
