CIF file written using JARVIS-Tools package.
data_FeOF
_symmetry_space_group_name_H-M  'P2/m'
_cell_length_a       4.62303
_cell_length_b       2.94021
_cell_length_c       13.7732
_cell_angle_alpha    90
_cell_angle_beta     91.4335
_cell_angle_gamma    90

_symmetry_Int_Tables_number  10
_chemical_formula_structural  FeOF
_chemical_formula_sum  Fe6O6F6
_cell_volume  187.1555686274092
_cell_formula_units_Z  6
loop_
  _symmetry_equiv_pos_site_id
 _symmetry_equiv_pos_as_xyz
 1  'x, y, z'
loop_
 _atom_site_type_symbol
 _atom_site_label
 _atom_site_symmetry_multiplicity
 _atom_site_fract_x
 _atom_site_fract_y
 _atom_site_fract_z
 _atom_site_fract_occupancy
 F  F1  1  0.23527  0.50000  0.42963  1
 F  F2  1  0.26925  0.00000  0.92750  1
 F  F3  1  0.73075  0.00000  0.07250  1
 F  F4  1  0.76473  0.50000  0.57037  1
 F  F5  1  0.84339  0.50000  0.23957  1
 F  F6  1  0.15661  0.50000  0.76043  1
 Fe  Fe1  1  0.09119  0.00000  0.16906  1
 Fe  Fe2  1  0.54291  0.50000  0.33579  1
 Fe  Fe3  1  0.45709  0.50000  0.66421  1
 Fe  Fe4  1  0.50000  0.50000  0.00000  1
 Fe  Fe5  1  0.00000  0.00000  0.50000  1
 Fe  Fe6  1  0.90881  0.00000  0.83094  1
 O  O1  1  0.36423  0.00000  0.27298  1
 O  O2  1  0.63577  0.00000  0.72702  1
 O  O3  1  0.72058  0.00000  0.39856  1
 O  O4  1  0.76313  0.50000  0.90087  1
 O  O5  1  0.23687  0.50000  0.09913  1
 O  O6  1  0.27942  0.00000  0.60144  1
