CIF file written using JARVIS-Tools package.
data_LuNiGe2
_symmetry_space_group_name_H-M  'Immm'
_cell_length_a       4.09278
_cell_length_b       8.44423
_cell_length_c       9.21601
_cell_angle_alpha    117.266
_cell_angle_beta     102.829
_cell_angle_gamma    90

_symmetry_Int_Tables_number  71
_chemical_formula_structural  LuNiGe2
_chemical_formula_sum  Lu4Ni4Ge8
_cell_volume  274.14187776772417
_cell_formula_units_Z  4
loop_
  _symmetry_equiv_pos_site_id
 _symmetry_equiv_pos_as_xyz
 1  'x, y, z'
loop_
 _atom_site_type_symbol
 _atom_site_label
 _atom_site_symmetry_multiplicity
 _atom_site_fract_x
 _atom_site_fract_y
 _atom_site_fract_z
 _atom_site_fract_occupancy
 Ge  Ge1  1  0.30272  0.14475  0.60544  1
 Ge  Ge2  1  0.07831  0.57831  0.15661  1
 Ge  Ge3  1  0.07684  0.07684  0.15369  1
 Ge  Ge4  1  0.69728  0.85525  0.39456  1
 Ge  Ge5  1  0.92316  0.92316  0.84631  1
 Ge  Ge6  1  0.30272  0.46069  0.60544  1
 Ge  Ge7  1  0.92169  0.42169  0.84339  1
 Ge  Ge8  1  0.69728  0.53931  0.39456  1
 Lu  Lu1  1  0.50000  0.23971  0.00000  1
 Lu  Lu2  1  0.50000  0.76029  -0.00000  1
 Lu  Lu3  1  0.29720  0.79720  0.59441  1
 Lu  Lu4  1  0.70280  0.20280  0.40559  1
 Ni  Ni1  1  0.14637  0.89758  0.29274  1
 Ni  Ni2  1  0.85363  0.10242  0.70726  1
 Ni  Ni3  1  0.14637  0.39516  0.29274  1
 Ni  Ni4  1  0.85363  0.60484  0.70726  1
