CIF file written using JARVIS-Tools package.
data_Li3Nd3W2O12
_symmetry_space_group_name_H-M  'Ia-3d'
_cell_length_a       10.8539
_cell_length_b       10.8539
_cell_length_c       10.8539
_cell_angle_alpha    109.471
_cell_angle_beta     109.471
_cell_angle_gamma    109.471

_symmetry_Int_Tables_number  230
_chemical_formula_structural  Li3Nd3W2O12
_chemical_formula_sum  Li2Nd2W8O48
_cell_volume  984.3199990331645
_cell_formula_units_Z  4
loop_
  _symmetry_equiv_pos_site_id
 _symmetry_equiv_pos_as_xyz
 1  'x, y, z'
loop_
 _atom_site_type_symbol
 _atom_site_label
 _atom_site_symmetry_multiplicity
 _atom_site_fract_x
 _atom_site_fract_y
 _atom_site_fract_z
 _atom_site_fract_occupancy
 Li  Li1  1  0.12500  0.75000  0.87500  1
 Li  Li2  1  0.62500  0.37500  0.25000  1
 Li  Li3  1  0.87500  0.12500  0.75000  1
 Li  Li4  1  0.62500  0.75000  0.37500  1
 Li  Li5  1  0.25000  0.62500  0.37500  1
 Li  Li6  1  0.87500  0.25000  0.12500  1
 Li  Li7  1  0.37500  0.62500  0.75000  1
 Li  Li8  1  0.37500  0.25000  0.62500  1
 Li  Li9  1  0.12500  0.87500  0.25000  1
 Li  Li10  1  0.75000  0.37500  0.62500  1
 Li  Li11  1  0.75000  0.87500  0.12500  1
 Li  Li12  1  0.25000  0.12500  0.87500  1
 Nd  Nd1  1  0.12500  0.37500  0.75000  1
 Nd  Nd2  1  0.25000  0.37500  0.12500  1
 Nd  Nd3  1  0.37500  0.12500  0.25000  1
 Nd  Nd4  1  0.75000  0.62500  0.87500  1
 Nd  Nd5  1  0.37500  0.75000  0.12500  1
 Nd  Nd6  1  0.87500  0.62500  0.25000  1
 Nd  Nd7  1  0.25000  0.87500  0.62500  1
 Nd  Nd8  1  0.62500  0.87500  0.75000  1
 Nd  Nd9  1  0.75000  0.12500  0.37500  1
 Nd  Nd10  1  0.62500  0.25000  0.87500  1
 Nd  Nd11  1  0.87500  0.75000  0.62500  1
 Nd  Nd12  1  0.12500  0.25000  0.37500  1
 O  O1  1  0.02300  0.32745  0.90870  1
 O  O2  1  0.47700  0.38570  0.30445  1
 O  O3  1  0.40870  0.08126  0.88570  1
 O  O4  1  0.58126  0.17255  0.19555  1
 O  O5  1  0.38570  0.30445  0.47700  1
 O  O6  1  0.67255  0.09130  0.97700  1
 O  O7  1  0.09130  0.61430  0.41874  1
 O  O8  1  0.17255  0.47700  0.59130  1
 O  O9  1  0.80445  0.41874  0.82745  1
 O  O10  1  0.30445  0.32745  0.91874  1
 O  O11  1  0.30445  0.47700  0.38570  1
 O  O12  1  0.82745  0.80445  0.41874  1
 O  O13  1  0.88570  0.97700  0.80445  1
 O  O14  1  0.52300  0.40870  0.82745  1
 O  O15  1  0.61430  0.69555  0.52300  1
 O  O16  1  0.19555  0.11430  0.02300  1
 O  O17  1  0.69555  0.67255  0.08126  1
 O  O18  1  0.19555  0.58126  0.17255  1
 O  O19  1  0.32745  0.90870  0.02300  1
 O  O20  1  0.11430  0.59130  0.91874  1
 O  O21  1  0.17255  0.19555  0.58126  1
 O  O22  1  0.02300  0.19555  0.11430  1
 O  O23  1  0.32745  0.91874  0.30445  1
 O  O24  1  0.90870  0.38570  0.58126  1
 O  O25  1  0.47700  0.59130  0.17255  1
 O  O26  1  0.08126  0.69555  0.67255  1
 O  O27  1  0.90870  0.02300  0.32745  1
 O  O28  1  0.69555  0.52300  0.61430  1
 O  O29  1  0.08126  0.88570  0.40870  1
 O  O30  1  0.59130  0.17255  0.47700  1
 O  O31  1  0.91874  0.11430  0.59130  1
 O  O32  1  0.38570  0.58126  0.90870  1
 O  O33  1  0.97700  0.80445  0.88570  1
 O  O34  1  0.80445  0.88570  0.97700  1
 O  O35  1  0.09130  0.97700  0.67255  1
 O  O36  1  0.97700  0.67255  0.09130  1
 O  O37  1  0.41874  0.09130  0.61430  1
 O  O38  1  0.61430  0.41874  0.09130  1
 O  O39  1  0.67255  0.08126  0.69555  1
 O  O40  1  0.11430  0.02300  0.19555  1
 O  O41  1  0.82745  0.52300  0.40870  1
 O  O42  1  0.88570  0.40870  0.08126  1
 O  O43  1  0.91874  0.30445  0.32745  1
 O  O44  1  0.40870  0.82745  0.52300  1
 O  O45  1  0.59130  0.91874  0.11430  1
 O  O46  1  0.58126  0.90870  0.38570  1
 O  O47  1  0.41874  0.82745  0.80445  1
 O  O48  1  0.52300  0.61430  0.69555  1
 W  W1  1  0.50000  0.00000  0.50000  1
 W  W2  1  0.50000  0.50000  0.50000  1
 W  W3  1  0.00000  0.00000  0.00000  1
 W  W4  1  0.00000  0.50000  -0.00000  1
 W  W5  1  0.00000  0.50000  0.50000  1
 W  W6  1  0.50000  0.50000  -0.00000  1
 W  W7  1  0.50000  0.00000  -0.00000  1
 W  W8  1  0.00000  0.00000  0.50000  1
