CIF file written using JARVIS-Tools package.
data_LiY3WO8
_symmetry_space_group_name_H-M  'C222'
_cell_length_a       6.25237
_cell_length_b       6.25231
_cell_length_c       6.12596
_cell_angle_alpha    90.0004
_cell_angle_beta     90.0008
_cell_angle_gamma    54.2321

_symmetry_Int_Tables_number  21
_chemical_formula_structural  LiY3WO8
_chemical_formula_sum  LiY3WO8
_cell_volume  194.30750669587647
_cell_formula_units_Z  1
loop_
  _symmetry_equiv_pos_site_id
 _symmetry_equiv_pos_as_xyz
 1  'x, y, z'
loop_
 _atom_site_type_symbol
 _atom_site_label
 _atom_site_symmetry_multiplicity
 _atom_site_fract_x
 _atom_site_fract_y
 _atom_site_fract_z
 _atom_site_fract_occupancy
 Li  Li1  1  0.50000  0.50000  0.00000  1
 O  O1  1  0.17632  0.17641  0.00007  1
 O  O2  1  0.30458  0.30425  0.50012  1
 O  O3  1  0.21697  0.72433  0.78657  1
 O  O4  1  0.27566  0.78303  0.21344  1
 O  O5  1  0.72427  0.21696  0.21342  1
 O  O6  1  0.78304  0.27573  0.78659  1
 O  O7  1  0.69575  0.69542  0.49988  1
 O  O8  1  0.82359  0.82368  0.99992  1
 W  W1  1  -0.00001  0.00001  0.00000  1
 Y  Y1  1  0.00003  0.49996  0.74340  1
 Y  Y2  1  0.50004  0.99997  0.25659  1
 Y  Y3  1  0.50002  0.49998  0.50000  1
