CIF file written using JARVIS-Tools package.
data_Li3Fe3O4F4
_symmetry_space_group_name_H-M  'Pm'
_cell_length_a       4.79922
_cell_length_b       2.8394
_cell_length_c       9.42739
_cell_angle_alpha    90
_cell_angle_beta     89.8943
_cell_angle_gamma    90

_symmetry_Int_Tables_number  6
_chemical_formula_structural  Li3Fe3O4F4
_chemical_formula_sum  Li3Fe3O4F4
_cell_volume  128.46580570496033
_cell_formula_units_Z  1
loop_
  _symmetry_equiv_pos_site_id
 _symmetry_equiv_pos_as_xyz
 1  'x, y, z'
loop_
 _atom_site_type_symbol
 _atom_site_label
 _atom_site_symmetry_multiplicity
 _atom_site_fract_x
 _atom_site_fract_y
 _atom_site_fract_z
 _atom_site_fract_occupancy
 F  F1  1  0.77827  0.50000  0.03002  1
 F  F2  1  0.72865  0.00000  0.27986  1
 F  F3  1  0.21226  0.00000  0.94639  1
 F  F4  1  0.28189  0.50000  0.18879  1
 Fe  Fe1  1  0.50686  0.00000  0.64080  1
 Fe  Fe2  1  0.48961  0.50000  0.37011  1
 Fe  Fe3  1  -0.00428  0.50000  0.84036  1
 Li  Li1  1  0.01938  0.00000  0.14134  1
 Li  Li2  1  0.52248  0.00000  0.06423  1
 Li  Li3  1  0.06094  0.50000  0.52566  1
 O  O1  1  0.78377  0.00000  0.77888  1
 O  O2  1  0.68609  0.50000  0.53788  1
 O  O3  1  0.27103  0.50000  0.70472  1
 O  O4  1  0.28889  0.00000  0.45096  1
