CIF file written using JARVIS-Tools package.
data_SiAs
_symmetry_space_group_name_H-M  'C2/m'
_cell_length_a       3.7235
_cell_length_b       8.29663
_cell_length_c       9.64521
_cell_angle_alpha    105.23
_cell_angle_beta     90
_cell_angle_gamma    102.968

_symmetry_Int_Tables_number  12
_chemical_formula_structural  SiAs
_chemical_formula_sum  Si6As6
_cell_volume  279.6176172838893
_cell_formula_units_Z  6
loop_
  _symmetry_equiv_pos_site_id
 _symmetry_equiv_pos_as_xyz
 1  'x, y, z'
loop_
 _atom_site_type_symbol
 _atom_site_label
 _atom_site_symmetry_multiplicity
 _atom_site_fract_x
 _atom_site_fract_y
 _atom_site_fract_z
 _atom_site_fract_occupancy
 As  As1  1  0.15259  0.30517  0.04509  1
 As  As2  1  0.84741  0.69483  0.95491  1
 As  As3  1  0.16317  0.32634  0.67528  1
 As  As4  1  0.83683  0.67366  0.32472  1
 As  As5  1  0.53631  0.07261  0.32445  1
 As  As6  1  0.46369  0.92739  0.67555  1
 Si  Si1  1  0.13100  0.26199  0.41612  1
 Si  Si2  1  0.86900  0.73801  0.58388  1
 Si  Si3  1  0.23825  0.47649  0.29205  1
 Si  Si4  1  0.76175  0.52351  0.70795  1
 Si  Si5  1  0.56657  0.13315  0.08926  1
 Si  Si6  1  0.43343  0.86685  0.91074  1
