CIF file written using JARVIS-Tools package.
data_CeB3O6
_symmetry_space_group_name_H-M  'P2_1/c'
_cell_length_a       4.24869
_cell_length_b       7.27191
_cell_length_c       11.7586
_cell_angle_alpha    90
_cell_angle_beta     90
_cell_angle_gamma    91.326

_symmetry_Int_Tables_number  14
_chemical_formula_structural  CeB3O6
_chemical_formula_sum  Ce4B2O24
_cell_volume  363.19736499827326
_cell_formula_units_Z  4
loop_
  _symmetry_equiv_pos_site_id
 _symmetry_equiv_pos_as_xyz
 1  'x, y, z'
loop_
 _atom_site_type_symbol
 _atom_site_label
 _atom_site_symmetry_multiplicity
 _atom_site_fract_x
 _atom_site_fract_y
 _atom_site_fract_z
 _atom_site_fract_occupancy
 B  B1  1  0.31265  0.92345  0.87921  1
 B  B2  1  0.19218  0.37495  0.40561  1
 B  B3  1  0.80782  0.12505  0.90561  1
 B  B4  1  0.67414  0.71327  0.16718  1
 B  B5  1  0.32586  0.78673  0.66718  1
 B  B6  1  0.31265  0.42345  0.62079  1
 B  B7  1  0.80782  0.62505  0.59439  1
 B  B8  1  0.67414  0.21327  0.33282  1
 B  B9  1  0.19218  0.87495  0.09439  1
 B  B10  1  0.68735  0.57655  0.37921  1
 B  B11  1  0.68735  0.07655  0.12079  1
 B  B12  1  0.32586  0.28673  0.83282  1
 Ce  Ce1  1  0.78304  0.61639  0.87843  1
 Ce  Ce2  1  0.21696  0.38361  0.12157  1
 Ce  Ce3  1  0.21696  0.88361  0.37843  1
 Ce  Ce4  1  0.78304  0.11639  0.62157  1
 O  O1  1  0.84347  0.39168  0.37339  1
 O  O2  1  0.25457  0.43752  0.90878  1
 O  O3  1  0.34666  0.05049  0.11878  1
 O  O4  1  0.65334  0.44951  0.61878  1
 O  O5  1  0.32889  0.73811  0.17059  1
 O  O6  1  0.74543  0.06248  0.40878  1
 O  O7  1  0.78031  0.19693  0.21477  1
 O  O8  1  0.21969  0.80307  0.78523  1
 O  O9  1  0.78031  0.69693  0.28523  1
 O  O10  1  0.15653  0.60832  0.62661  1
 O  O11  1  0.15653  0.10832  0.87339  1
 O  O12  1  0.25457  0.93752  0.59122  1
 O  O13  1  0.21969  0.30307  0.71477  1
 O  O14  1  0.34666  0.55049  0.38122  1
 O  O15  1  0.67111  0.26189  0.82941  1
 O  O16  1  0.79443  0.18558  0.02280  1
 O  O17  1  0.67111  0.76189  0.67059  1
 O  O18  1  0.79443  0.68558  0.47720  1
 O  O19  1  0.84347  0.89168  0.12661  1
 O  O20  1  0.32889  0.23811  0.32941  1
 O  O21  1  0.20557  0.81442  0.97720  1
 O  O22  1  0.65334  0.94951  0.88122  1
 O  O23  1  0.74543  0.56248  0.09122  1
 O  O24  1  0.20557  0.31442  0.52280  1
