CIF file written using JARVIS-Tools package.
data_LiMn2OF3
_symmetry_space_group_name_H-M  'P-3m1'
_cell_length_a       6.21757
_cell_length_b       6.21762
_cell_length_c       5.18511
_cell_angle_alpha    89.9993
_cell_angle_beta     90
_cell_angle_gamma    60.0003

_symmetry_Int_Tables_number  164
_chemical_formula_structural  LiMn2OF3
_chemical_formula_sum  Li2Mn4O2F6
_cell_volume  173.5938028875635
_cell_formula_units_Z  2
loop_
  _symmetry_equiv_pos_site_id
 _symmetry_equiv_pos_as_xyz
 1  'x, y, z'
loop_
 _atom_site_type_symbol
 _atom_site_label
 _atom_site_symmetry_multiplicity
 _atom_site_fract_x
 _atom_site_fract_y
 _atom_site_fract_z
 _atom_site_fract_occupancy
 F  F1  1  0.34840  0.82580  0.21098  1
 F  F2  1  0.82580  0.82580  0.21098  1
 F  F3  1  0.17422  0.65155  0.78906  1
 F  F4  1  0.82578  0.34845  0.21094  1
 F  F5  1  0.65160  0.17420  0.78902  1
 F  F6  1  0.17420  0.17420  0.78902  1
 Li  Li1  1  0.66666  0.66668  0.02159  1
 Li  Li2  1  0.33334  0.33332  0.97841  1
 Mn  Mn1  1  0.50000  0.50000  0.50000  1
 Mn  Mn2  1  -0.00000  0.50000  0.50000  1
 Mn  Mn3  1  0.50000  0.00000  0.50000  1
 Mn  Mn4  1  0.00000  0.00000  0.00000  1
 O  O1  1  0.66667  0.66666  0.66434  1
 O  O2  1  0.33333  0.33334  0.33566  1
