CIF file written using JARVIS-Tools package.
data_Ce2Fe12P7
_symmetry_space_group_name_H-M  'P-6'
_cell_length_a       8.9913
_cell_length_b       8.99131
_cell_length_c       3.66147
_cell_angle_alpha    90
_cell_angle_beta     90
_cell_angle_gamma    120

_symmetry_Int_Tables_number  174
_chemical_formula_structural  Ce2Fe12P7
_chemical_formula_sum  Ce2Fe2P7
_cell_volume  256.3487486789549
_cell_formula_units_Z  1
loop_
  _symmetry_equiv_pos_site_id
 _symmetry_equiv_pos_as_xyz
 1  'x, y, z'
loop_
 _atom_site_type_symbol
 _atom_site_label
 _atom_site_symmetry_multiplicity
 _atom_site_fract_x
 _atom_site_fract_y
 _atom_site_fract_z
 _atom_site_fract_occupancy
 Ce  Ce1  1  0.66667  0.33333  0.50000  1
 Ce  Ce2  1  0.33333  0.66667  0.00000  1
 Fe  Fe1  1  0.38126  0.43512  0.50000  1
 Fe  Fe2  1  0.63286  0.57059  0.00000  1
 Fe  Fe3  1  0.93773  0.36714  0.00000  1
 Fe  Fe4  1  0.12178  0.84968  0.00000  1
 Fe  Fe5  1  0.72790  0.87822  0.00000  1
 Fe  Fe6  1  0.15032  0.27210  0.00000  1
 Fe  Fe7  1  0.05385  0.61874  0.50000  1
 Fe  Fe8  1  0.56488  0.94615  0.50000  1
 Fe  Fe9  1  0.21551  0.09899  0.50000  1
 Fe  Fe10  1  0.90101  0.11652  0.50000  1
 Fe  Fe11  1  0.42941  0.06227  0.00000  1
 Fe  Fe12  1  0.88348  0.78449  0.50000  1
 P  P1  1  0.29128  0.89609  0.50000  1
 P  P2  1  0.60481  0.70872  0.50000  1
 P  P3  1  0.40521  0.30066  0.00000  1
 P  P4  1  0.89544  0.59479  0.00000  1
 P  P5  1  0.69934  0.10456  0.00000  1
 P  P6  1  0.10391  0.39519  0.50000  1
 P  P7  1  0.00000  0.00000  0.00000  1
