CIF file written using JARVIS-Tools package.
data_MgZn3S4
_symmetry_space_group_name_H-M  'Pm'
_cell_length_a       3.87915
_cell_length_b       6.35781
_cell_length_c       6.72909
_cell_angle_alpha    89.9741
_cell_angle_beta     90
_cell_angle_gamma    90

_symmetry_Int_Tables_number  6
_chemical_formula_structural  MgZn3S4
_chemical_formula_sum  MgZn3S4
_cell_volume  165.95906053378897
_cell_formula_units_Z  1
loop_
  _symmetry_equiv_pos_site_id
 _symmetry_equiv_pos_as_xyz
 1  'x, y, z'
loop_
 _atom_site_type_symbol
 _atom_site_label
 _atom_site_symmetry_multiplicity
 _atom_site_fract_x
 _atom_site_fract_y
 _atom_site_fract_z
 _atom_site_fract_occupancy
 Mg  Mg1  1  0.00000  0.50000  0.33316  1
 S  S1  1  0.00000  0.11508  0.33443  1
 S  S2  1  0.50000  0.12688  0.83283  1
 S  S3  1  0.50000  0.62944  0.15845  1
 S  S4  1  0.00000  0.62719  0.67416  1
 Zn  Zn1  1  0.50000  0.49973  0.83331  1
 Zn  Zn2  1  0.50000  0.99906  0.16393  1
 Zn  Zn3  1  0.00000  0.99863  0.66972  1
