CIF file written using JARVIS-Tools package.
data_USnPt
_symmetry_space_group_name_H-M  'P-62m'
_cell_length_a       4.15829
_cell_length_b       7.45587
_cell_length_c       7.45601
_cell_angle_alpha    119.999
_cell_angle_beta     90
_cell_angle_gamma    90

_symmetry_Int_Tables_number  189
_chemical_formula_structural  USnPt
_chemical_formula_sum  U3Sn3Pt3
_cell_volume  200.19494526336186
_cell_formula_units_Z  3
loop_
  _symmetry_equiv_pos_site_id
 _symmetry_equiv_pos_as_xyz
 1  'x, y, z'
loop_
 _atom_site_type_symbol
 _atom_site_label
 _atom_site_symmetry_multiplicity
 _atom_site_fract_x
 _atom_site_fract_y
 _atom_site_fract_z
 _atom_site_fract_occupancy
 Pt  Pt1  1  0.00000  0.33331  0.66668  1
 Pt  Pt2  1  0.00000  0.66663  0.33332  1
 Pt  Pt3  1  0.50000  0.00002  -0.00000  1
 Sn  Sn1  1  0.00000  0.25505  -0.00000  1
 Sn  Sn2  1  0.00000  0.74495  0.74496  1
 Sn  Sn3  1  0.00000  -0.00001  0.25504  1
 U  U1  1  0.50000  0.58692  0.00000  1
 U  U2  1  0.50000  0.41307  0.41310  1
 U  U3  1  0.50000  0.99997  0.58690  1
