CIF file written using JARVIS-Tools package.
data_USe3
_symmetry_space_group_name_H-M  'P2_1/m'
_cell_length_a       3.97334
_cell_length_b       5.49711
_cell_length_c       9.47183
_cell_angle_alpha    81.8118
_cell_angle_beta     90
_cell_angle_gamma    90

_symmetry_Int_Tables_number  11
_chemical_formula_structural  USe3
_chemical_formula_sum  U2Se6
_cell_volume  204.77377760618663
_cell_formula_units_Z  2
loop_
  _symmetry_equiv_pos_site_id
 _symmetry_equiv_pos_as_xyz
 1  'x, y, z'
loop_
 _atom_site_type_symbol
 _atom_site_label
 _atom_site_symmetry_multiplicity
 _atom_site_fract_x
 _atom_site_fract_y
 _atom_site_fract_z
 _atom_site_fract_occupancy
 Se  Se1  1  0.75000  0.76398  0.44378  1
 Se  Se2  1  0.25000  0.23602  0.55622  1
 Se  Se3  1  0.75000  0.42100  0.83197  1
 Se  Se4  1  0.25000  0.57900  0.16803  1
 Se  Se5  1  0.75000  0.91382  0.83397  1
 Se  Se6  1  0.25000  0.08618  0.16603  1
 U  U1  1  0.75000  0.29079  0.33371  1
 U  U2  1  0.25000  0.70921  0.66629  1
