CIF file written using JARVIS-Tools package.
data_TmCu3Te3
_symmetry_space_group_name_H-M  'Pnnm'
_cell_length_a       6.90771
_cell_length_b       7.58711
_cell_length_c       12.7928
_cell_angle_alpha    90
_cell_angle_beta     90
_cell_angle_gamma    90

_symmetry_Int_Tables_number  58
_chemical_formula_structural  TmCu3Te3
_chemical_formula_sum  Tm4Cu2Te2
_cell_volume  670.4638145359967
_cell_formula_units_Z  4
loop_
  _symmetry_equiv_pos_site_id
 _symmetry_equiv_pos_as_xyz
 1  'x, y, z'
loop_
 _atom_site_type_symbol
 _atom_site_label
 _atom_site_symmetry_multiplicity
 _atom_site_fract_x
 _atom_site_fract_y
 _atom_site_fract_z
 _atom_site_fract_occupancy
 Cu  Cu1  1  0.61793  0.62356  0.00000  1
 Cu  Cu2  1  0.36894  0.12370  0.50000  1
 Cu  Cu3  1  0.36450  0.11860  0.17468  1
 Cu  Cu4  1  0.12220  0.38137  0.82531  1
 Cu  Cu5  1  0.11793  0.37644  0.50000  1
 Cu  Cu6  1  0.86894  0.87630  0.00000  1
 Cu  Cu7  1  0.62220  0.61863  0.32531  1
 Cu  Cu8  1  0.36450  0.11860  0.82532  1
 Cu  Cu9  1  0.12220  0.38137  0.17469  1
 Cu  Cu10  1  0.86450  0.88140  0.67468  1
 Cu  Cu11  1  0.62220  0.61863  0.67469  1
 Cu  Cu12  1  0.86450  0.88140  0.32532  1
 Te  Te1  1  0.49893  0.45043  0.50000  1
 Te  Te2  1  0.01187  0.56641  0.33755  1
 Te  Te3  1  0.98777  0.04970  0.50000  1
 Te  Te4  1  0.97475  0.06643  0.16243  1
 Te  Te5  1  0.51187  0.43359  0.83755  1
 Te  Te6  1  0.97475  0.06643  0.83757  1
 Te  Te7  1  -0.00107  0.54957  0.00000  1
 Te  Te8  1  0.47475  0.93357  0.66243  1
 Te  Te9  1  0.48777  0.95030  0.00000  1
 Te  Te10  1  0.01187  0.56641  0.66245  1
 Te  Te11  1  0.51187  0.43359  0.16245  1
 Te  Te12  1  0.47475  0.93357  0.33757  1
 Tm  Tm1  1  0.24329  0.75001  0.83838  1
 Tm  Tm2  1  0.74329  0.24999  0.66162  1
 Tm  Tm3  1  0.74329  0.24999  0.33838  1
 Tm  Tm4  1  0.24329  0.75001  0.16162  1
