CIF file written using JARVIS-Tools package.
data_NdAlPt
_symmetry_space_group_name_H-M  'Pnma'
_cell_length_a       4.48627
_cell_length_b       7.18813
_cell_length_c       7.87025
_cell_angle_alpha    90
_cell_angle_beta     90
_cell_angle_gamma    90

_symmetry_Int_Tables_number  62
_chemical_formula_structural  NdAlPt
_chemical_formula_sum  Nd4Al4Pt4
_cell_volume  253.7991521931423
_cell_formula_units_Z  4
loop_
  _symmetry_equiv_pos_site_id
 _symmetry_equiv_pos_as_xyz
 1  'x, y, z'
loop_
 _atom_site_type_symbol
 _atom_site_label
 _atom_site_symmetry_multiplicity
 _atom_site_fract_x
 _atom_site_fract_y
 _atom_site_fract_z
 _atom_site_fract_occupancy
 Al  Al1  1  0.75000  0.85284  0.06834  1
 Al  Al2  1  0.25000  0.64716  0.56834  1
 Al  Al3  1  0.75000  0.35284  0.43166  1
 Al  Al4  1  0.25000  0.14716  0.93166  1
 Nd  Nd1  1  0.75000  0.47226  0.81766  1
 Nd  Nd2  1  0.25000  0.02774  0.31766  1
 Nd  Nd3  1  0.75000  0.97226  0.68234  1
 Nd  Nd4  1  0.25000  0.52774  0.18234  1
 Pt  Pt1  1  0.75000  0.71614  0.39044  1
 Pt  Pt2  1  0.75000  0.21614  0.10956  1
 Pt  Pt3  1  0.25000  0.28386  0.60956  1
 Pt  Pt4  1  0.25000  0.78386  0.89044  1
