CIF file written using JARVIS-Tools package.
data_Ba2VSi2O8
_symmetry_space_group_name_H-M  'P4bm'
_cell_length_a       5.25527
_cell_length_b       8.54826
_cell_length_c       8.54826
_cell_angle_alpha    90
_cell_angle_beta     90
_cell_angle_gamma    90

_symmetry_Int_Tables_number  100
_chemical_formula_structural  Ba2VSi2O8
_chemical_formula_sum  Ba4V2Si4O6
_cell_volume  384.0172586675044
_cell_formula_units_Z  2
loop_
  _symmetry_equiv_pos_site_id
 _symmetry_equiv_pos_as_xyz
 1  'x, y, z'
loop_
 _atom_site_type_symbol
 _atom_site_label
 _atom_site_symmetry_multiplicity
 _atom_site_fract_x
 _atom_site_fract_y
 _atom_site_fract_z
 _atom_site_fract_occupancy
 Ba  Ba1  1  0.99932  0.32858  0.82858  1
 Ba  Ba2  1  0.99932  0.82858  0.67142  1
 Ba  Ba3  1  0.99932  0.67142  0.17142  1
 Ba  Ba4  1  0.99932  0.17142  0.32858  1
 O  O1  1  0.22184  0.00000  0.00000  1
 O  O2  1  0.65326  0.07760  0.79503  1
 O  O3  1  0.65326  0.92240  0.20497  1
 O  O4  1  0.65326  0.79503  0.92240  1
 O  O5  1  0.65326  0.20497  0.07760  1
 O  O6  1  0.65326  0.70497  0.42240  1
 O  O7  1  0.65326  0.57760  0.70497  1
 O  O8  1  0.65326  0.42240  0.29503  1
 O  O9  1  0.65326  0.29503  0.57760  1
 O  O10  1  0.63439  0.00000  0.50000  1
 O  O11  1  0.21425  0.37188  0.12812  1
 O  O12  1  0.63439  0.50000  0.00000  1
 O  O13  1  0.21425  0.62812  0.87188  1
 O  O14  1  0.21425  0.87188  0.37188  1
 O  O15  1  0.22184  0.50000  0.50000  1
 O  O16  1  0.21425  0.12812  0.62812  1
 Si  Si1  1  0.51985  0.87026  0.37026  1
 Si  Si2  1  0.51985  0.62974  0.87026  1
 Si  Si3  1  0.51985  0.37026  0.12974  1
 Si  Si4  1  0.51985  0.12974  0.62974  1
 V  V1  1  0.53656  0.50000  0.50000  1
 V  V2  1  0.53656  0.00000  0.00000  1
