CIF file written using JARVIS-Tools package.
data_UH12N2O14
_symmetry_space_group_name_H-M  'Cmc2_1'
_cell_length_a       7.48079
_cell_length_b       7.48079
_cell_length_c       11.1921
_cell_angle_alpha    90
_cell_angle_beta     90
_cell_angle_gamma    116.713

_symmetry_Int_Tables_number  36
_chemical_formula_structural  UH12N2O14
_chemical_formula_sum  U2H24N4O28
_cell_volume  559.4830230669978
_cell_formula_units_Z  2
loop_
  _symmetry_equiv_pos_site_id
 _symmetry_equiv_pos_as_xyz
 1  'x, y, z'
loop_
 _atom_site_type_symbol
 _atom_site_label
 _atom_site_symmetry_multiplicity
 _atom_site_fract_x
 _atom_site_fract_y
 _atom_site_fract_z
 _atom_site_fract_occupancy
 H  H1  1  0.15670  0.69346  0.80659  1
 H  H2  1  0.58839  0.05052  0.67867  1
 H  H3  1  0.94948  0.41161  0.17867  1
 H  H4  1  0.41161  0.94948  0.17867  1
 H  H5  1  0.69346  0.15670  0.80659  1
 H  H6  1  0.84330  0.30654  0.30659  1
 H  H7  1  0.30654  0.84330  0.30659  1
 H  H8  1  0.31419  0.57389  0.92100  1
 H  H9  1  0.57389  0.31419  0.92100  1
 H  H10  1  0.68581  0.42611  0.42100  1
 H  H11  1  0.42611  0.68581  0.42100  1
 H  H12  1  0.05052  0.58839  0.67867  1
 H  H13  1  0.79851  0.39286  0.96799  1
 H  H14  1  0.20149  0.60714  0.46799  1
 H  H15  1  0.60714  0.20149  0.46799  1
 H  H16  1  0.08846  0.34826  0.57986  1
 H  H17  1  0.34826  0.08846  0.57986  1
 H  H18  1  0.91154  0.65174  0.07986  1
 H  H19  1  0.65174  0.91154  0.07986  1
 H  H20  1  0.90901  0.38117  0.51903  1
 H  H21  1  0.38117  0.90901  0.51903  1
 H  H22  1  0.09099  0.61883  0.01903  1
 H  H23  1  0.39286  0.79851  0.96799  1
 H  H24  1  0.61883  0.09099  0.01903  1
 N  N1  1  0.20591  0.20591  0.86741  1
 N  N2  1  0.49398  0.49398  0.16369  1
 N  N3  1  0.50602  0.50602  0.66369  1
 N  N4  1  0.79409  0.79409  0.36741  1
 O  O1  1  0.95496  0.95496  0.60054  1
 O  O2  1  0.64794  0.64794  0.13955  1
 O  O3  1  0.35206  0.35206  0.63955  1
 O  O4  1  0.35213  0.35213  0.91299  1
 O  O5  1  0.64787  0.64787  0.41299  1
 O  O6  1  0.67652  0.50562  0.67785  1
 O  O7  1  0.50562  0.67652  0.67785  1
 O  O8  1  0.32348  0.49438  0.17785  1
 O  O9  1  0.49438  0.32348  0.17785  1
 O  O10  1  0.04394  0.21473  0.84215  1
 O  O11  1  0.21473  0.04394  0.84215  1
 O  O12  1  0.95606  0.78527  0.34215  1
 O  O13  1  0.78527  0.95606  0.34215  1
 O  O14  1  0.77054  0.77054  0.89749  1
 O  O15  1  0.55295  0.96074  0.06399  1
 O  O16  1  0.05933  0.68663  0.74266  1
 O  O17  1  0.68663  0.05933  0.74266  1
 O  O18  1  0.94067  0.31337  0.24266  1
 O  O19  1  0.31337  0.94067  0.24266  1
 O  O20  1  0.27929  0.68598  0.92590  1
 O  O21  1  0.68598  0.27929  0.92590  1
 O  O22  1  0.72071  0.31402  0.42590  1
 O  O23  1  0.31402  0.72071  0.42590  1
 O  O24  1  0.03926  0.44705  0.56399  1
 O  O25  1  0.44705  0.03926  0.56399  1
 O  O26  1  0.96074  0.55295  0.06399  1
 O  O27  1  0.04504  0.04504  0.10054  1
 O  O28  1  0.22946  0.22946  0.39749  1
 U  U1  1  0.13646  0.13646  0.24954  1
 U  U2  1  0.86354  0.86354  0.74954  1
