CIF file written using JARVIS-Tools package.
data_MnPO4
_symmetry_space_group_name_H-M  'Pnma'
_cell_length_a       4.76122
_cell_length_b       6.53914
_cell_length_c       8.56181
_cell_angle_alpha    90
_cell_angle_beta     90
_cell_angle_gamma    90

_symmetry_Int_Tables_number  62
_chemical_formula_structural  MnPO4
_chemical_formula_sum  Mn4P4O6
_cell_volume  266.56597509462614
_cell_formula_units_Z  4
loop_
  _symmetry_equiv_pos_site_id
 _symmetry_equiv_pos_as_xyz
 1  'x, y, z'
loop_
 _atom_site_type_symbol
 _atom_site_label
 _atom_site_symmetry_multiplicity
 _atom_site_fract_x
 _atom_site_fract_y
 _atom_site_fract_z
 _atom_site_fract_occupancy
 Mn  Mn1  1  0.50000  0.00000  0.50000  1
 Mn  Mn2  1  0.00000  0.00000  0.00000  1
 Mn  Mn3  1  0.50000  0.50000  0.50000  1
 Mn  Mn4  1  0.00000  0.50000  0.00000  1
 O  O1  1  0.68598  0.05396  0.12369  1
 O  O2  1  0.81402  0.05396  0.62369  1
 O  O3  1  0.22992  0.25000  0.12608  1
 O  O4  1  0.18598  0.94604  0.37631  1
 O  O5  1  0.27008  0.25000  0.62608  1
 O  O6  1  0.92852  0.25000  0.86434  1
 O  O7  1  0.57148  0.25000  0.36434  1
 O  O8  1  0.81402  0.44604  0.62369  1
 O  O9  1  0.18598  0.55396  0.37631  1
 O  O10  1  0.07148  0.75000  0.13566  1
 O  O11  1  0.68598  0.44604  0.12369  1
 O  O12  1  0.72992  0.75000  0.37392  1
 O  O13  1  0.42852  0.75000  0.63566  1
 O  O14  1  0.77008  0.75000  0.87392  1
 O  O15  1  0.31402  0.55396  0.87631  1
 O  O16  1  0.31402  0.94604  0.87631  1
 P  P1  1  0.46256  0.75000  0.82089  1
 P  P2  1  0.03744  0.75000  0.32089  1
 P  P3  1  0.96256  0.25000  0.67911  1
 P  P4  1  0.53744  0.25000  0.17911  1
