CIF file written using JARVIS-Tools package.
data_HgN6
_symmetry_space_group_name_H-M  'Pca2_1'
_cell_length_a       6.26412
_cell_length_b       6.28341
_cell_length_c       10.6314
_cell_angle_alpha    90
_cell_angle_beta     90
_cell_angle_gamma    90

_symmetry_Int_Tables_number  29
_chemical_formula_structural  HgN6
_chemical_formula_sum  Hg4N24
_cell_volume  418.45245859384454
_cell_formula_units_Z  4
loop_
  _symmetry_equiv_pos_site_id
 _symmetry_equiv_pos_as_xyz
 1  'x, y, z'
loop_
 _atom_site_type_symbol
 _atom_site_label
 _atom_site_symmetry_multiplicity
 _atom_site_fract_x
 _atom_site_fract_y
 _atom_site_fract_z
 _atom_site_fract_occupancy
 Hg  Hg1  1  0.76260  0.76537  0.96484  1
 Hg  Hg2  1  0.23740  0.26537  0.03516  1
 Hg  Hg3  1  0.23740  0.76537  0.46484  1
 Hg  Hg4  1  0.76260  0.26537  0.53516  1
 N  N1  1  0.69526  0.66722  0.69265  1
 N  N2  1  0.39118  0.77043  0.11788  1
 N  N3  1  0.69526  0.16722  0.80735  1
 N  N4  1  0.47142  0.88434  0.03908  1
 N  N5  1  0.19570  0.60562  0.71165  1
 N  N6  1  0.11824  0.11910  0.69001  1
 N  N7  1  0.39118  0.27043  0.38212  1
 N  N8  1  0.05255  0.61891  0.91744  1
 N  N9  1  0.30474  0.66722  0.19265  1
 N  N10  1  0.30474  0.16722  0.30735  1
 N  N11  1  0.19570  0.10562  0.78835  1
 N  N12  1  0.94745  0.11891  0.08256  1
 N  N13  1  0.80430  0.10562  0.28835  1
 N  N14  1  0.52858  0.38434  0.96092  1
 N  N15  1  0.47142  0.38434  0.46092  1
 N  N16  1  0.05255  0.11891  0.58256  1
 N  N17  1  0.52858  0.88434  0.53908  1
 N  N18  1  0.11824  0.61910  0.80999  1
 N  N19  1  0.80430  0.60562  0.21165  1
 N  N20  1  0.88176  0.11910  0.19001  1
 N  N21  1  0.60882  0.27043  0.88212  1
 N  N22  1  0.94745  0.61891  0.41744  1
 N  N23  1  0.60882  0.77043  0.61788  1
 N  N24  1  0.88176  0.61910  0.30999  1
