CIF file written using JARVIS-Tools package.
data_BaY6Si3B6O24F2
_symmetry_space_group_name_H-M  'P3m1'
_cell_length_a       10.6837
_cell_length_b       10.6837
_cell_length_c       4.70032
_cell_angle_alpha    90
_cell_angle_beta     90
_cell_angle_gamma    120

_symmetry_Int_Tables_number  156
_chemical_formula_structural  BaY6Si3B6O24F2
_chemical_formula_sum  BaY6Si3B6O24F2
_cell_volume  464.62657152635774
_cell_formula_units_Z  1
loop_
  _symmetry_equiv_pos_site_id
 _symmetry_equiv_pos_as_xyz
 1  'x, y, z'
loop_
 _atom_site_type_symbol
 _atom_site_label
 _atom_site_symmetry_multiplicity
 _atom_site_fract_x
 _atom_site_fract_y
 _atom_site_fract_z
 _atom_site_fract_occupancy
 B  B1  1  0.25025  0.25000  0.48230  1
 B  B2  1  0.75000  0.74975  0.48230  1
 B  B3  1  0.99975  0.25000  0.48230  1
 B  B4  1  0.75000  0.00025  0.48230  1
 B  B5  1  0.25025  0.00025  0.48230  1
 B  B6  1  0.99975  0.74975  0.48230  1
 Ba  Ba1  1  0.00000  0.00000  0.01492  1
 F  F1  1  0.33333  0.66667  0.74197  1
 F  F2  1  0.66667  0.33333  0.79338  1
 O  O1  1  0.26112  0.26320  0.17958  1
 O  O2  1  0.02688  0.39228  0.62599  1
 O  O3  1  0.42566  0.85131  0.18185  1
 O  O4  1  0.02688  0.63459  0.62599  1
 O  O5  1  0.28930  0.14465  0.59699  1
 O  O6  1  0.56969  0.13938  0.23286  1
 O  O7  1  0.73680  0.99792  0.17958  1
 O  O8  1  0.36541  0.39228  0.62599  1
 O  O9  1  0.86062  0.43031  0.23286  1
 O  O10  1  0.42565  0.57434  0.18185  1
 O  O11  1  0.00208  0.73888  0.17958  1
 O  O12  1  0.60772  0.97312  0.62599  1
 O  O13  1  0.10957  0.89042  0.60424  1
 O  O14  1  0.78085  0.89043  0.60424  1
 O  O15  1  0.36540  0.97312  0.62599  1
 O  O16  1  0.73680  0.73888  0.17958  1
 O  O17  1  0.00208  0.26320  0.17958  1
 O  O18  1  0.85535  0.71070  0.59699  1
 O  O19  1  0.10958  0.21915  0.60424  1
 O  O20  1  0.26112  0.99792  0.17958  1
 O  O21  1  0.14869  0.57435  0.18185  1
 O  O22  1  0.56969  0.43031  0.23286  1
 O  O23  1  0.85535  0.14465  0.59699  1
 O  O24  1  0.60772  0.63460  0.62599  1
 Si  Si1  1  0.49257  0.50743  0.40254  1
 Si  Si2  1  0.01486  0.50743  0.40254  1
 Si  Si3  1  0.49257  0.98514  0.40254  1
 Y  Y1  1  0.21521  0.43042  0.95335  1
 Y  Y2  1  0.78402  0.21598  -0.00000  1
 Y  Y3  1  0.78402  0.56803  -0.00000  1
 Y  Y4  1  0.43197  0.21598  -0.00000  1
 Y  Y5  1  0.56958  0.78479  0.95335  1
 Y  Y6  1  0.21521  0.78479  0.95335  1
