CIF file written using JARVIS-Tools package.
data_Ca2RuO4
_symmetry_space_group_name_H-M  'Pbca'
_cell_length_a       5.36834
_cell_length_b       5.47105
_cell_length_c       12.1082
_cell_angle_alpha    90
_cell_angle_beta     90
_cell_angle_gamma    90

_symmetry_Int_Tables_number  61
_chemical_formula_structural  Ca2RuO4
_chemical_formula_sum  Ca8Ru4O6
_cell_volume  355.6233940084741
_cell_formula_units_Z  4
loop_
  _symmetry_equiv_pos_site_id
 _symmetry_equiv_pos_as_xyz
 1  'x, y, z'
loop_
 _atom_site_type_symbol
 _atom_site_label
 _atom_site_symmetry_multiplicity
 _atom_site_fract_x
 _atom_site_fract_y
 _atom_site_fract_z
 _atom_site_fract_occupancy
 Ca  Ca1  1  0.98991  0.95077  0.65135  1
 Ca  Ca2  1  0.48991  0.54923  0.34865  1
 Ca  Ca3  1  0.01009  0.45077  0.84865  1
 Ca  Ca4  1  0.51009  0.04923  0.15135  1
 Ca  Ca5  1  0.48991  0.95077  0.84865  1
 Ca  Ca6  1  0.98991  0.54923  0.15135  1
 Ca  Ca7  1  0.51009  0.45077  0.65135  1
 Ca  Ca8  1  0.01009  0.04923  0.34865  1
 O  O1  1  0.93875  0.98063  0.16682  1
 O  O2  1  0.43875  0.51937  0.83318  1
 O  O3  1  0.06125  0.48063  0.33318  1
 O  O4  1  0.93875  0.51937  0.66682  1
 O  O5  1  0.06125  0.01937  0.83318  1
 O  O6  1  0.56125  0.48063  0.16682  1
 O  O7  1  0.69487  0.30223  0.47596  1
 O  O8  1  0.56125  0.01937  0.66682  1
 O  O9  1  0.19487  0.19777  0.52404  1
 O  O10  1  0.80513  0.80223  0.47596  1
 O  O11  1  0.80513  0.69777  0.97596  1
 O  O12  1  0.43875  0.98063  0.33318  1
 O  O13  1  0.19487  0.30223  0.02404  1
 O  O14  1  0.30513  0.69777  0.52404  1
 O  O15  1  0.30513  0.80223  0.02404  1
 O  O16  1  0.69487  0.19777  0.97596  1
 Ru  Ru1  1  0.00000  0.50000  0.50000  1
 Ru  Ru2  1  0.00000  0.00000  0.00000  1
 Ru  Ru3  1  0.50000  0.50000  0.00000  1
 Ru  Ru4  1  0.50000  0.00000  0.50000  1
