CIF file written using JARVIS-Tools package.
data_Ba4CdSi
_symmetry_space_group_name_H-M  'F-43m'
_cell_length_a       7.02041
_cell_length_b       7.02041
_cell_length_c       7.02041
_cell_angle_alpha    60
_cell_angle_beta     60
_cell_angle_gamma    60

_symmetry_Int_Tables_number  216
_chemical_formula_structural  Ba4CdSi
_chemical_formula_sum  Ba4CdSi
_cell_volume  244.66560379272312
_cell_formula_units_Z  1
loop_
  _symmetry_equiv_pos_site_id
 _symmetry_equiv_pos_as_xyz
 1  'x, y, z'
loop_
 _atom_site_type_symbol
 _atom_site_label
 _atom_site_symmetry_multiplicity
 _atom_site_fract_x
 _atom_site_fract_y
 _atom_site_fract_z
 _atom_site_fract_occupancy
 Ba  Ba1  1  0.12167  0.62611  0.62611  1
 Ba  Ba2  1  0.62611  0.62611  0.62611  1
 Ba  Ba3  1  0.62611  0.12167  0.62611  1
 Ba  Ba4  1  0.62611  0.62611  0.12167  1
 Cd  Cd1  1  0.25000  0.25000  0.25000  1
 Si  Si1  1  0.00000  0.00000  0.00000  1
