CIF file written using JARVIS-Tools package.
data_AlPt2
_symmetry_space_group_name_H-M  'Pnma'
_cell_length_a       4.11331
_cell_length_b       5.48055
_cell_length_c       7.99025
_cell_angle_alpha    90
_cell_angle_beta     90
_cell_angle_gamma    90

_symmetry_Int_Tables_number  62
_chemical_formula_structural  AlPt2
_chemical_formula_sum  Al4Pt8
_cell_volume  180.12615214818996
_cell_formula_units_Z  4
loop_
  _symmetry_equiv_pos_site_id
 _symmetry_equiv_pos_as_xyz
 1  'x, y, z'
loop_
 _atom_site_type_symbol
 _atom_site_label
 _atom_site_symmetry_multiplicity
 _atom_site_fract_x
 _atom_site_fract_y
 _atom_site_fract_z
 _atom_site_fract_occupancy
 Al  Al1  1  0.75000  0.30717  0.39639  1
 Al  Al2  1  0.25000  0.69283  0.60361  1
 Al  Al3  1  0.75000  0.80717  0.10361  1
 Al  Al4  1  0.25000  0.19283  0.89639  1
 Pt  Pt1  1  0.75000  0.95799  0.79286  1
 Pt  Pt2  1  0.25000  0.04201  0.20714  1
 Pt  Pt3  1  0.75000  0.45799  0.70714  1
 Pt  Pt4  1  0.25000  0.54201  0.29286  1
 Pt  Pt5  1  0.75000  0.84048  0.43072  1
 Pt  Pt6  1  0.25000  0.15952  0.56928  1
 Pt  Pt7  1  0.75000  0.34048  0.06928  1
 Pt  Pt8  1  0.25000  0.65952  0.93072  1
