CIF file written using JARVIS-Tools package.
data_ZnH6C2N4O4
_symmetry_space_group_name_H-M  'Pc'
_cell_length_a       6.60531
_cell_length_b       5.03786
_cell_length_c       9.03097
_cell_angle_alpha    90
_cell_angle_beta     108.767
_cell_angle_gamma    90

_symmetry_Int_Tables_number  7
_chemical_formula_structural  ZnH6C2N4O4
_chemical_formula_sum  Zn2H2C4N8O8
_cell_volume  284.5426038828821
_cell_formula_units_Z  2
loop_
  _symmetry_equiv_pos_site_id
 _symmetry_equiv_pos_as_xyz
 1  'x, y, z'
loop_
 _atom_site_type_symbol
 _atom_site_label
 _atom_site_symmetry_multiplicity
 _atom_site_fract_x
 _atom_site_fract_y
 _atom_site_fract_z
 _atom_site_fract_occupancy
 C  C1  1  0.31335  0.60643  0.02951  1
 C  C2  1  0.31335  0.39357  0.52951  1
 C  C3  1  0.82608  0.89688  0.42485  1
 C  C4  1  0.82608  0.10312  0.92485  1
 H  H1  1  0.68546  0.48225  0.62772  1
 H  H2  1  0.88007  0.64696  0.06504  1
 H  H3  1  0.88007  0.35304  0.56504  1
 H  H4  1  0.61753  0.42017  0.84824  1
 H  H5  1  0.68546  0.51775  0.12772  1
 H  H6  1  0.24912  0.82552  0.39261  1
 H  H7  1  0.24912  0.17448  0.89261  1
 H  H8  1  0.38601  0.99529  0.29435  1
 H  H9  1  0.38601  0.00471  0.79435  1
 H  H10  1  0.51151  0.06247  0.58963  1
 H  H11  1  0.51151  0.93753  0.08963  1
 H  H12  1  0.61753  0.57983  0.34824  1
 N  N1  1  0.80931  0.47394  0.08565  1
 N  N2  1  0.72332  0.32911  0.94445  1
 N  N3  1  0.72332  0.67089  0.44445  1
 N  N4  1  0.29022  0.01222  0.36343  1
 N  N5  1  0.29022  -0.01222  0.86343  1
 N  N6  1  0.80931  0.52606  0.58565  1
 N  N7  1  0.39985  0.84196  -0.00036  1
 N  N8  1  0.39985  0.15804  0.49964  1
 O  O1  1  0.14911  0.51167  0.92192  1
 O  O2  1  0.14911  0.48833  0.42192  1
 O  O3  1  0.76472  0.00481  0.28797  1
 O  O4  1  0.40734  0.51116  0.65774  1
 O  O5  1  0.76472  -0.00481  0.78797  1
 O  O6  1  0.97273  0.00378  0.04101  1
 O  O7  1  0.40734  0.48884  0.15774  1
 O  O8  1  0.97273  0.99622  0.54101  1
 Zn  Zn1  1  0.01289  0.22060  0.24624  1
 Zn  Zn2  1  0.01289  0.77940  0.74624  1
