CIF file written using JARVIS-Tools package.
data_Li3Co2O2F3
_symmetry_space_group_name_H-M  'I4/mmm'
_cell_length_a       10.6417
_cell_length_b       10.6417
_cell_length_c       10.6417
_cell_angle_alpha    164.305
_cell_angle_beta     164.306
_cell_angle_gamma    22.2658

_symmetry_Int_Tables_number  139
_chemical_formula_structural  Li3Co2O2F3
_chemical_formula_sum  Li3Co2O2F3
_cell_volume  88.1684902498182
_cell_formula_units_Z  1
loop_
  _symmetry_equiv_pos_site_id
 _symmetry_equiv_pos_as_xyz
 1  'x, y, z'
loop_
 _atom_site_type_symbol
 _atom_site_label
 _atom_site_symmetry_multiplicity
 _atom_site_fract_x
 _atom_site_fract_y
 _atom_site_fract_z
 _atom_site_fract_occupancy
 Co  Co1  1  0.20459  0.20459  -0.00000  1
 Co  Co2  1  0.79541  0.79541  0.00000  1
 F  F1  1  0.09472  0.09472  -0.00000  1
 F  F2  1  0.90528  0.90528  0.00000  1
 F  F3  1  0.50000  0.50000  0.00000  1
 Li  Li1  1  0.59602  0.59602  0.00000  1
 Li  Li2  1  0.40398  0.40398  -0.00000  1
 Li  Li3  1  0.00000  0.00000  0.00000  1
 O  O1  1  0.69504  0.69504  0.00000  1
 O  O2  1  0.30496  0.30496  -0.00000  1
