CIF file written using JARVIS-Tools package.
data_Li3In2P3O12
_symmetry_space_group_name_H-M  'P2_1/c'
_cell_length_a       8.59486
_cell_length_b       8.95186
_cell_length_c       12.2765
_cell_angle_alpha    90
_cell_angle_beta     89.8903
_cell_angle_gamma    90

_symmetry_Int_Tables_number  14
_chemical_formula_structural  Li3In2P3O12
_chemical_formula_sum  Li2In8P2O48
_cell_volume  944.553196227632
_cell_formula_units_Z  4
loop_
  _symmetry_equiv_pos_site_id
 _symmetry_equiv_pos_as_xyz
 1  'x, y, z'
loop_
 _atom_site_type_symbol
 _atom_site_label
 _atom_site_symmetry_multiplicity
 _atom_site_fract_x
 _atom_site_fract_y
 _atom_site_fract_z
 _atom_site_fract_occupancy
 In  In1  1  0.25908  0.96466  0.60249  1
 In  In2  1  0.26382  0.53029  0.39830  1
 In  In3  1  0.23618  0.03029  0.10170  1
 In  In4  1  0.75908  0.53534  0.10249  1
 In  In5  1  0.24092  0.46466  0.89751  1
 In  In6  1  0.76382  0.96971  0.89830  1
 In  In7  1  0.73618  0.46971  0.60170  1
 In  In8  1  0.74092  0.03534  0.39751  1
 Li  Li1  1  0.93428  0.49133  0.34770  1
 Li  Li2  1  0.67456  0.71426  0.32068  1
 Li  Li3  1  0.82544  0.21426  0.17932  1
 Li  Li4  1  0.32544  0.28574  0.67932  1
 Li  Li5  1  0.56572  0.99133  0.15230  1
 Li  Li6  1  0.58443  0.41661  0.81654  1
 Li  Li7  1  0.43428  0.00867  0.84770  1
 Li  Li8  1  0.06572  0.50867  0.65230  1
 Li  Li9  1  0.91557  0.91661  0.68346  1
 Li  Li10  1  0.08443  0.08339  0.31654  1
 Li  Li11  1  0.41557  0.58339  0.18346  1
 Li  Li12  1  0.17456  0.78574  0.82068  1
 O  O1  1  0.38826  0.49792  0.75111  1
 O  O2  1  0.11174  0.99792  0.74889  1
 O  O3  1  0.61174  0.50208  0.24889  1
 O  O4  1  0.88826  0.00208  0.25111  1
 O  O5  1  0.46012  0.37294  0.94844  1
 O  O6  1  0.45004  0.17254  0.10092  1
 O  O7  1  0.53988  0.62706  0.05156  1
 O  O8  1  0.96012  0.12706  0.44844  1
 O  O9  1  0.04996  0.67254  0.39908  1
 O  O10  1  0.95004  0.32746  0.60092  1
 O  O11  1  0.67678  0.23488  0.30411  1
 O  O12  1  0.03988  0.87294  0.55156  1
 O  O13  1  0.82322  0.73488  0.19589  1
 O  O14  1  0.23131  0.47038  0.21899  1
 O  O15  1  0.17678  0.26512  0.80411  1
 O  O16  1  0.76134  0.95481  0.07417  1
 O  O17  1  0.73866  0.45481  0.42583  1
 O  O18  1  0.23866  0.04519  0.92583  1
 O  O19  1  0.44082  0.07789  0.69622  1
 O  O20  1  0.73131  0.02962  0.71899  1
 O  O21  1  0.76869  0.52962  0.78101  1
 O  O22  1  0.26869  0.97038  0.28101  1
 O  O23  1  0.95550  0.12224  0.89996  1
 O  O24  1  0.80016  0.80776  0.44101  1
 O  O25  1  0.69984  0.30776  0.05899  1
 O  O26  1  0.19984  0.19224  0.55899  1
 O  O27  1  0.30016  0.69224  0.94101  1
 O  O28  1  0.32322  0.76512  0.69589  1
 O  O29  1  0.54450  0.62224  0.60004  1
 O  O30  1  0.54996  0.82746  0.89908  1
 O  O31  1  0.12146  0.39389  0.03430  1
 O  O32  1  0.87854  0.60611  0.96570  1
 O  O33  1  0.04450  0.87776  0.10004  1
 O  O34  1  0.08715  0.36659  0.41768  1
 O  O35  1  0.41285  0.86659  0.08232  1
 O  O36  1  0.37854  0.89389  0.46570  1
 O  O37  1  0.91285  0.63341  0.58232  1
 O  O38  1  0.58715  0.13341  0.91768  1
 O  O39  1  0.62146  0.10611  0.53430  1
 O  O40  1  0.45550  0.37776  0.39996  1
 O  O41  1  0.05918  0.57789  0.80378  1
 O  O42  1  0.88416  0.79346  0.81517  1
 O  O43  1  0.61584  0.29346  0.68483  1
 O  O44  1  0.26134  0.54519  0.57417  1
 O  O45  1  0.38416  0.70654  0.31517  1
 O  O46  1  0.55918  0.92211  0.30378  1
 O  O47  1  0.94082  0.42211  0.19622  1
 O  O48  1  0.11584  0.20654  0.18483  1
 P  P1  1  0.54593  0.24682  0.00911  1
 P  P2  1  0.11531  0.11222  0.84536  1
 P  P3  1  0.38469  0.61222  0.65464  1
 P  P4  1  0.95407  0.74682  0.49089  1
 P  P5  1  0.88469  0.88778  0.15464  1
 P  P6  1  0.10953  0.37713  0.15746  1
 P  P7  1  0.39047  0.87713  0.34254  1
 P  P8  1  0.89047  0.62287  0.84254  1
 P  P9  1  0.04593  0.25318  0.50911  1
 P  P10  1  0.45407  0.75318  0.99089  1
 P  P11  1  0.60953  0.12287  0.65746  1
 P  P12  1  0.61531  0.38778  0.34536  1
