CIF file written using JARVIS-Tools package.
data_Bi5IO7
_symmetry_space_group_name_H-M  'C2/m'
_cell_length_a       4.21999
_cell_length_b       9.56231
_cell_length_c       13.1285
_cell_angle_alpha    103.314
_cell_angle_beta     90
_cell_angle_gamma    102.748

_symmetry_Int_Tables_number  12
_chemical_formula_structural  Bi5IO7
_chemical_formula_sum  Bi0I2O4
_cell_volume  502.1044696994407
_cell_formula_units_Z  2
loop_
  _symmetry_equiv_pos_site_id
 _symmetry_equiv_pos_as_xyz
 1  'x, y, z'
loop_
 _atom_site_type_symbol
 _atom_site_label
 _atom_site_symmetry_multiplicity
 _atom_site_fract_x
 _atom_site_fract_y
 _atom_site_fract_z
 _atom_site_fract_occupancy
 Bi  Bi1  1  0.20621  0.41243  0.36862  1
 Bi  Bi2  1  0.53307  0.06614  0.36663  1
 Bi  Bi3  1  0.61397  0.22795  0.12308  1
 Bi  Bi4  1  0.38603  0.77205  0.87692  1
 Bi  Bi5  1  0.27563  0.55126  0.12918  1
 Bi  Bi6  1  0.79379  0.58757  0.63138  1
 Bi  Bi7  1  0.87829  0.75658  0.40259  1
 Bi  Bi8  1  0.12171  0.24342  0.59741  1
 Bi  Bi9  1  0.72437  0.44874  0.87082  1
 Bi  Bi10  1  0.46693  0.93386  0.63337  1
 I  I1  1  0.05926  0.11851  0.86951  1
 I  I2  1  0.94074  0.88149  0.13049  1
 O  O1  1  0.72551  0.45101  0.09433  1
 O  O2  1  0.58017  0.16034  0.53391  1
 O  O3  1  0.16130  0.32259  0.16152  1
 O  O4  1  0.36721  0.73442  0.70463  1
 O  O5  1  0.63279  0.26558  0.29537  1
 O  O6  1  0.83870  0.67741  0.83848  1
 O  O7  1  0.92555  0.85110  0.58452  1
 O  O8  1  0.77309  0.54619  0.44076  1
 O  O9  1  0.22691  0.45381  0.55924  1
 O  O10  1  0.69194  0.38388  0.70340  1
 O  O11  1  0.30806  0.61612  0.29660  1
 O  O12  1  0.27449  0.54899  0.90567  1
 O  O13  1  0.07445  0.14890  0.41548  1
 O  O14  1  0.41983  0.83966  0.46609  1
