CIF file written using JARVIS-Tools package.
data_MnAlO3
_symmetry_space_group_name_H-M  'P-1'
_cell_length_a       7.52048
_cell_length_b       6.53553
_cell_length_c       5.7236
_cell_angle_alpha    66.1345
_cell_angle_beta     133.575
_cell_angle_gamma    137.973

_symmetry_Int_Tables_number  2
_chemical_formula_structural  MnAlO3
_chemical_formula_sum  Mn2Al2O6
_cell_volume  133.05459384240154
_cell_formula_units_Z  2
loop_
  _symmetry_equiv_pos_site_id
 _symmetry_equiv_pos_as_xyz
 1  'x, y, z'
loop_
 _atom_site_type_symbol
 _atom_site_label
 _atom_site_symmetry_multiplicity
 _atom_site_fract_x
 _atom_site_fract_y
 _atom_site_fract_z
 _atom_site_fract_occupancy
 Al  Al1  1  0.43784  0.63371  0.74612  1
 Al  Al2  1  0.56215  0.36627  0.25388  1
 Mn  Mn1  1  0.30284  0.68782  0.05193  1
 Mn  Mn2  1  0.69717  0.31220  -0.05193  1
 O  O1  1  0.75661  0.62014  0.04641  1
 O  O2  1  0.80205  0.50138  0.66405  1
 O  O3  1  0.51394  0.08461  0.17941  1
 O  O4  1  0.48608  0.91540  0.82060  1
 O  O5  1  0.19795  0.49865  0.33593  1
 O  O6  1  0.24337  0.37983  0.95360  1
