CIF file written using JARVIS-Tools package.
data_Y6Fe16O
_symmetry_space_group_name_H-M  'Im-3m'
_cell_length_a       7.53406
_cell_length_b       7.53406
_cell_length_c       7.53406
_cell_angle_alpha    109.471
_cell_angle_beta     109.471
_cell_angle_gamma    109.471

_symmetry_Int_Tables_number  229
_chemical_formula_structural  Y6Fe16O
_chemical_formula_sum  Y6Fe6O
_cell_volume  329.20409370509265
_cell_formula_units_Z  1
loop_
  _symmetry_equiv_pos_site_id
 _symmetry_equiv_pos_as_xyz
 1  'x, y, z'
loop_
 _atom_site_type_symbol
 _atom_site_label
 _atom_site_symmetry_multiplicity
 _atom_site_fract_x
 _atom_site_fract_y
 _atom_site_fract_z
 _atom_site_fract_occupancy
 Fe  Fe1  1  -0.00000  0.66665  0.33335  1
 Fe  Fe2  1  0.50000  0.50000  0.50000  1
 Fe  Fe3  1  0.50000  0.00000  -0.00000  1
 Fe  Fe4  1  -0.00000  0.50000  -0.00000  1
 Fe  Fe5  1  0.00000  0.00000  0.50000  1
 Fe  Fe6  1  0.33331  0.66665  0.66665  1
 Fe  Fe7  1  0.33335  0.66669  0.33335  1
 Fe  Fe8  1  0.33335  0.66665  -0.00000  1
 Fe  Fe9  1  0.33335  0.00000  0.66665  1
 Fe  Fe10  1  0.33335  0.33335  0.66669  1
 Fe  Fe11  1  0.00000  0.33335  0.66665  1
 Fe  Fe12  1  0.66665  0.66665  0.33331  1
 Fe  Fe13  1  0.66665  0.33335  0.00000  1
 Fe  Fe14  1  0.66665  -0.00000  0.33335  1
 Fe  Fe15  1  0.66665  0.33331  0.66665  1
 Fe  Fe16  1  0.66669  0.33335  0.33335  1
 O  O1  1  0.00000  0.00000  0.00000  1
 Y  Y1  1  0.27483  0.27483  0.00000  1
 Y  Y2  1  0.72517  0.72517  -0.00000  1
 Y  Y3  1  0.72517  -0.00000  0.72517  1
 Y  Y4  1  0.27483  0.00000  0.27483  1
 Y  Y5  1  -0.00000  0.72517  0.72517  1
 Y  Y6  1  0.00000  0.27483  0.27483  1
