CIF file written using JARVIS-Tools package.
data_Na2HgPb
_symmetry_space_group_name_H-M  'Cmcm'
_cell_length_a       6.10247
_cell_length_b       6.20333
_cell_length_c       6.20333
_cell_angle_alpha    101.94
_cell_angle_beta     90
_cell_angle_gamma    90

_symmetry_Int_Tables_number  63
_chemical_formula_structural  Na2HgPb
_chemical_formula_sum  Na4Hg2Pb2
_cell_volume  229.75089029368468
_cell_formula_units_Z  2
loop_
  _symmetry_equiv_pos_site_id
 _symmetry_equiv_pos_as_xyz
 1  'x, y, z'
loop_
 _atom_site_type_symbol
 _atom_site_label
 _atom_site_symmetry_multiplicity
 _atom_site_fract_x
 _atom_site_fract_y
 _atom_site_fract_z
 _atom_site_fract_occupancy
 Hg  Hg1  1  0.50000  0.00000  0.00000  1
 Hg  Hg2  1  0.00000  0.00000  0.00000  1
 Na  Na1  1  0.25000  0.13705  0.51122  1
 Na  Na2  1  0.75000  0.48878  0.86295  1
 Na  Na3  1  0.75000  0.86295  0.48878  1
 Na  Na4  1  0.25000  0.51122  0.13705  1
 Pb  Pb1  1  0.25000  0.66504  0.66504  1
 Pb  Pb2  1  0.75000  0.33496  0.33496  1
