CIF file written using JARVIS-Tools package.
data_K2PdSe10
_symmetry_space_group_name_H-M  'I-42d'
_cell_length_a       12.3498
_cell_length_b       12.8639
_cell_length_c       12.8639
_cell_angle_alpha    76.6782
_cell_angle_beta     61.3133
_cell_angle_gamma    61.3133

_symmetry_Int_Tables_number  122
_chemical_formula_structural  K2PdSe10
_chemical_formula_sum  K8Pd4Se40
_cell_volume  1572.755200265109
_cell_formula_units_Z  4
loop_
  _symmetry_equiv_pos_site_id
 _symmetry_equiv_pos_as_xyz
 1  'x, y, z'
loop_
 _atom_site_type_symbol
 _atom_site_label
 _atom_site_symmetry_multiplicity
 _atom_site_fract_x
 _atom_site_fract_y
 _atom_site_fract_z
 _atom_site_fract_occupancy
 K  K1  1  0.98146  0.05616  0.22905  1
 K  K2  1  0.51854  0.77095  0.94384  1
 K  K3  1  0.03762  0.94384  0.72904  1
 K  K4  1  0.73333  0.72905  0.55616  1
 K  K5  1  0.21051  0.55616  0.77096  1
 K  K6  1  0.46238  0.27096  0.05616  1
 K  K7  1  0.76667  0.44384  0.27095  1
 K  K8  1  0.28949  0.22904  0.44384  1
 Pd  Pd1  1  0.87500  0.75000  0.75000  1
 Pd  Pd2  1  0.37501  0.75000  0.75000  1
 Pd  Pd3  1  0.62500  0.25000  0.25000  1
 Pd  Pd4  1  0.12499  0.25000  0.25000  1
 Se  Se1  1  0.20209  0.29938  0.91597  1
 Se  Se2  1  0.53779  0.60101  0.58755  1
 Se  Se3  1  0.45074  0.19007  0.82759  1
 Se  Se4  1  0.35391  0.52990  0.45786  1
 Se  Se5  1  0.64081  0.80993  0.32759  1
 Se  Se6  1  0.68823  0.45786  0.97009  1
 Se  Se7  1  0.04926  0.17241  0.80993  1
 Se  Se8  1  0.53160  0.32759  0.69007  1
 Se  Se9  1  0.14609  0.54214  0.47010  1
 Se  Se10  1  0.36121  0.91245  0.60101  1
 Se  Se11  1  0.27833  0.69007  0.17241  1
 Se  Se12  1  0.22634  0.89899  0.91245  1
 Se  Se13  1  0.99853  0.58402  0.29938  1
 Se  Se14  1  0.72542  0.95852  0.82070  1
 Se  Se15  1  0.50147  0.70062  0.41598  1
 Se  Se16  1  0.95388  0.82070  0.54148  1
 Se  Se17  1  0.27366  0.08755  0.10101  1
 Se  Se18  1  0.58256  0.41597  0.79938  1
 Se  Se19  1  0.77458  0.17930  0.04148  1
 Se  Se20  1  0.29791  0.08403  0.70062  1
 Se  Se21  1  0.65832  0.95786  0.02990  1
 Se  Se22  1  0.37467  0.58755  0.89899  1
 Se  Se23  1  0.81177  0.02991  0.54214  1
 Se  Se24  1  0.96840  0.30993  0.67241  1
 Se  Se25  1  0.13879  0.39899  0.08755  1
 Se  Se26  1  0.49535  0.32070  0.45852  1
 Se  Se27  1  0.00465  0.54148  0.67930  1
 Se  Se28  1  0.68394  0.04148  0.32070  1
 Se  Se29  1  0.12533  0.10101  0.41245  1
 Se  Se30  1  0.81606  0.67930  0.95852  1
 Se  Se31  1  0.85919  0.67241  0.19007  1
 Se  Se32  1  0.91744  0.20062  0.58403  1
 Se  Se33  1  0.61618  0.04214  0.52991  1
 Se  Se34  1  0.54612  0.45852  0.17930  1
 Se  Se35  1  0.11807  0.79938  0.08402  1
 Se  Se36  1  0.96221  0.41245  0.39899  1
 Se  Se37  1  0.22167  0.82759  0.30993  1
 Se  Se38  1  0.84168  0.97010  0.04214  1
 Se  Se39  1  0.88382  0.47009  0.95786  1
 Se  Se40  1  0.38193  0.91598  0.20062  1
