CIF file written using JARVIS-Tools package.
data_SmZnNi
_symmetry_space_group_name_H-M  'P-62m'
_cell_length_a       3.80385
_cell_length_b       7.11449
_cell_length_c       7.11446
_cell_angle_alpha    120
_cell_angle_beta     90
_cell_angle_gamma    90

_symmetry_Int_Tables_number  189
_chemical_formula_structural  SmZnNi
_chemical_formula_sum  Sm3Zn3Ni3
_cell_volume  166.7393469817361
_cell_formula_units_Z  3
loop_
  _symmetry_equiv_pos_site_id
 _symmetry_equiv_pos_as_xyz
 1  'x, y, z'
loop_
 _atom_site_type_symbol
 _atom_site_label
 _atom_site_symmetry_multiplicity
 _atom_site_fract_x
 _atom_site_fract_y
 _atom_site_fract_z
 _atom_site_fract_occupancy
 Ni  Ni1  1  0.00000  0.33332  0.66667  1
 Ni  Ni2  1  0.00000  0.66665  0.33333  1
 Ni  Ni3  1  0.50000  0.99999  -0.00000  1
 Sm  Sm1  1  0.50000  0.58904  -0.00000  1
 Sm  Sm2  1  0.50000  0.41094  0.41095  1
 Sm  Sm3  1  0.50000  0.99999  0.58905  1
 Zn  Zn1  1  0.00000  0.23985  -0.00000  1
 Zn  Zn2  1  0.00000  0.76013  0.76014  1
 Zn  Zn3  1  0.00000  -0.00001  0.23986  1
