CIF file written using JARVIS-Tools package.
data_Na2Si3H2O8
_symmetry_space_group_name_H-M  'P2_1/c'
_cell_length_a       7.31682
_cell_length_b       12.7623
_cell_length_c       9.06432
_cell_angle_alpha    90
_cell_angle_beta     119.508
_cell_angle_gamma    90

_symmetry_Int_Tables_number  14
_chemical_formula_structural  Na2Si3H2O8
_chemical_formula_sum  Na8Si2H8O32
_cell_volume  736.6305879342877
_cell_formula_units_Z  4
loop_
  _symmetry_equiv_pos_site_id
 _symmetry_equiv_pos_as_xyz
 1  'x, y, z'
loop_
 _atom_site_type_symbol
 _atom_site_label
 _atom_site_symmetry_multiplicity
 _atom_site_fract_x
 _atom_site_fract_y
 _atom_site_fract_z
 _atom_site_fract_occupancy
 H  H1  1  0.79371  0.40025  0.17242  1
 H  H2  1  0.79371  0.09975  0.67242  1
 H  H3  1  0.20629  0.59975  0.82758  1
 H  H4  1  0.84067  0.00260  0.79354  1
 H  H5  1  0.84067  0.49740  0.29354  1
 H  H6  1  0.15933  0.50260  0.70646  1
 H  H7  1  0.15933  0.99740  0.20646  1
 H  H8  1  0.20629  0.90025  0.32758  1
 Na  Na1  1  0.14307  0.66878  0.49506  1
 Na  Na2  1  0.29180  0.42356  0.46358  1
 Na  Na3  1  0.70820  0.92356  0.03642  1
 Na  Na4  1  0.70820  0.57644  0.53642  1
 Na  Na5  1  0.29180  0.07644  0.96358  1
 Na  Na6  1  0.14307  0.83122  0.99506  1
 Na  Na7  1  0.85693  0.33122  0.50494  1
 Na  Na8  1  0.85693  0.16878  0.00494  1
 O  O1  1  0.37166  0.18525  0.49985  1
 O  O2  1  0.39030  0.68979  0.13833  1
 O  O3  1  0.67548  0.41109  0.62302  1
 O  O4  1  0.98159  0.34160  0.93210  1
 O  O5  1  0.01841  0.84160  0.56790  1
 O  O6  1  0.88188  0.07847  0.79019  1
 O  O7  1  0.01841  0.65840  0.06790  1
 O  O8  1  0.79071  0.88524  0.82647  1
 O  O9  1  0.11812  0.57847  0.70981  1
 O  O10  1  0.79071  0.61476  0.32647  1
 O  O11  1  0.20929  0.11476  0.17353  1
 O  O12  1  0.25913  0.49577  0.08504  1
 O  O13  1  0.74087  0.99577  0.41496  1
 O  O14  1  0.74087  0.50423  0.91496  1
 O  O15  1  0.25913  0.00423  0.58504  1
 O  O16  1  0.32452  0.58891  0.37698  1
 O  O17  1  0.67548  0.08891  0.12302  1
 O  O18  1  0.88188  0.42153  0.29019  1
 O  O19  1  0.32452  0.91109  0.87698  1
 O  O20  1  0.20929  0.38524  0.67353  1
 O  O21  1  0.28867  0.18119  0.75196  1
 O  O22  1  0.62834  0.81475  0.50015  1
 O  O23  1  0.71133  0.81881  0.24804  1
 O  O24  1  0.71133  0.68119  0.74804  1
 O  O25  1  0.62834  0.68525  0.00015  1
 O  O26  1  0.98159  0.15840  0.43210  1
 O  O27  1  0.37166  0.31475  -0.00015  1
 O  O28  1  0.11812  0.92153  0.20981  1
 O  O29  1  0.60970  0.31021  0.86167  1
 O  O30  1  0.60970  0.18979  0.36167  1
 O  O31  1  0.28867  0.31881  0.25196  1
 O  O32  1  0.39030  0.81021  0.63833  1
 Si  Si1  1  0.63820  0.69517  0.18560  1
 Si  Si2  1  0.25366  0.89539  0.68325  1
 Si  Si3  1  0.74634  0.10461  0.31675  1
 Si  Si4  1  0.36180  0.19517  0.31440  1
 Si  Si5  1  0.25366  0.60461  0.18325  1
 Si  Si6  1  0.63820  0.80483  0.68560  1
 Si  Si7  1  0.36180  0.30483  0.81440  1
 Si  Si8  1  0.22504  0.12991  0.56652  1
 Si  Si9  1  0.77496  0.62991  0.93348  1
 Si  Si10  1  0.77496  0.87009  0.43348  1
 Si  Si11  1  0.22504  0.37009  0.06652  1
 Si  Si12  1  0.74634  0.39539  0.81675  1
