CIF file written using JARVIS-Tools package.
data_NaMo3P3O16
_symmetry_space_group_name_H-M  'P-1'
_cell_length_a       6.4392
_cell_length_b       7.5416
_cell_length_c       12.8818
_cell_angle_alpha    79.1612
_cell_angle_beta     79.0851
_cell_angle_gamma    82.5249

_symmetry_Int_Tables_number  2
_chemical_formula_structural  NaMo3P3O16
_chemical_formula_sum  Na2Mo6P6O32
_cell_volume  600.386291283365
_cell_formula_units_Z  2
loop_
  _symmetry_equiv_pos_site_id
 _symmetry_equiv_pos_as_xyz
 1  'x, y, z'
loop_
 _atom_site_type_symbol
 _atom_site_label
 _atom_site_symmetry_multiplicity
 _atom_site_fract_x
 _atom_site_fract_y
 _atom_site_fract_z
 _atom_site_fract_occupancy
 Mo  Mo1  1  0.20803  0.21494  0.53824  1
 Mo  Mo2  1  0.79197  0.78506  0.46176  1
 Mo  Mo3  1  0.40968  0.74645  0.16201  1
 Mo  Mo4  1  0.59032  0.25355  0.83799  1
 Mo  Mo5  1  0.06496  0.20624  0.14378  1
 Mo  Mo6  1  0.93504  0.79376  0.85622  1
 Na  Na1  1  0.40868  0.69265  0.67511  1
 Na  Na2  1  0.59132  0.30735  0.32489  1
 O  O1  1  0.02205  0.67332  0.72465  1
 O  O2  1  0.14468  0.41704  0.62516  1
 O  O3  1  0.90269  0.68360  0.98316  1
 O  O4  1  0.09731  0.31640  0.01684  1
 O  O5  1  0.77826  0.58689  0.60978  1
 O  O6  1  0.22174  0.41311  0.39022  1
 O  O7  1  0.85532  0.58296  0.37484  1
 O  O8  1  0.58217  0.95860  0.10019  1
 O  O9  1  0.52262  0.25400  0.51435  1
 O  O10  1  0.29295  0.05709  0.41953  1
 O  O11  1  0.47738  0.74600  0.48565  1
 O  O12  1  0.39993  0.42363  0.81685  1
 O  O13  1  0.09838  0.77234  0.47333  1
 O  O14  1  0.90162  0.22766  0.52667  1
 O  O15  1  0.78370  0.96920  0.36541  1
 O  O16  1  0.21630  0.03080  0.63459  1
 O  O17  1  0.70705  0.94291  0.58047  1
 O  O18  1  0.75123  0.19396  0.16363  1
 O  O19  1  0.61929  0.27146  0.98810  1
 O  O20  1  0.84500  0.38947  0.78588  1
 O  O21  1  0.24877  0.80604  0.83637  1
 O  O22  1  0.37291  0.82670  0.30247  1
 O  O23  1  0.85840  0.02243  0.86148  1
 O  O24  1  0.36344  0.23564  0.16613  1
 O  O25  1  0.63656  0.76436  0.83387  1
 O  O26  1  0.14160  0.97757  0.13852  1
 O  O27  1  0.62709  0.17330  0.69753  1
 O  O28  1  0.38071  0.72854  0.01190  1
 O  O29  1  0.97795  0.32668  0.27535  1
 O  O30  1  0.15500  0.61053  0.21412  1
 O  O31  1  0.60007  0.57637  0.18315  1
 O  O32  1  0.41783  0.04140  0.89981  1
 P  P1  1  0.57732  0.16262  0.10212  1
 P  P2  1  0.42268  0.83738  0.89788  1
 P  P3  1  0.30835  0.85165  0.41968  1
 P  P4  1  0.69165  0.14835  0.58032  1
 P  P5  1  0.05807  0.48442  0.31606  1
 P  P6  1  0.94193  0.51558  0.68394  1
