CIF file written using JARVIS-Tools package.
data_K4Rb2Co2O5
_symmetry_space_group_name_H-M  'Pm'
_cell_length_a       6.72092
_cell_length_b       6.72092
_cell_length_c       11.6447
_cell_angle_alpha    90
_cell_angle_beta     90
_cell_angle_gamma    90

_symmetry_Int_Tables_number  6
_chemical_formula_structural  K4Rb2Co2O5
_chemical_formula_sum  K8Rb4Co4O0
_cell_volume  525.9991143466882
_cell_formula_units_Z  2
loop_
  _symmetry_equiv_pos_site_id
 _symmetry_equiv_pos_as_xyz
 1  'x, y, z'
loop_
 _atom_site_type_symbol
 _atom_site_label
 _atom_site_symmetry_multiplicity
 _atom_site_fract_x
 _atom_site_fract_y
 _atom_site_fract_z
 _atom_site_fract_occupancy
 Co  Co1  1  0.19804  0.80196  0.00000  1
 Co  Co2  1  0.80196  0.19804  0.00000  1
 Co  Co3  1  0.30196  0.30196  0.50000  1
 Co  Co4  1  0.69804  0.69804  0.50000  1
 K  K1  1  0.50000  0.50000  0.27767  1
 K  K2  1  0.50000  0.50000  0.72233  1
 K  K3  1  0.00000  0.00000  0.77767  1
 K  K4  1  0.00000  0.50000  0.25000  1
 K  K5  1  0.00000  0.50000  0.75000  1
 K  K6  1  0.31610  0.31610  0.00000  1
 K  K7  1  0.18390  0.81610  0.50000  1
 K  K8  1  0.00000  0.00000  0.22233  1
 O  O1  1  0.78554  0.78554  0.36021  1
 O  O2  1  0.21446  0.21446  0.36021  1
 O  O3  1  0.78554  0.78554  0.63979  1
 O  O4  1  0.28554  0.71446  0.86021  1
 O  O5  1  0.71446  0.28554  0.86021  1
 O  O6  1  0.71446  0.28554  0.13979  1
 O  O7  1  0.28554  0.71446  0.13979  1
 O  O8  1  0.00000  0.00000  0.00000  1
 O  O9  1  0.21446  0.21446  0.63979  1
 O  O10  1  0.50000  0.50000  0.50000  1
 Rb  Rb1  1  0.50000  0.00000  0.25000  1
 Rb  Rb2  1  0.68390  0.68390  0.00000  1
 Rb  Rb3  1  0.50000  0.00000  0.75000  1
 Rb  Rb4  1  0.81610  0.18390  0.50000  1
