CIF file written using JARVIS-Tools package.
data_Li5Mn3Fe2O10
_symmetry_space_group_name_H-M  'P-1'
_cell_length_a       4.9131
_cell_length_b       4.87279
_cell_length_c       7.60773
_cell_angle_alpha    102.435
_cell_angle_beta     108.531
_cell_angle_gamma    99.4709

_symmetry_Int_Tables_number  2
_chemical_formula_structural  Li5Mn3Fe2O10
_chemical_formula_sum  Li5Mn3Fe2O0
_cell_volume  163.21148968948455
_cell_formula_units_Z  1
loop_
  _symmetry_equiv_pos_site_id
 _symmetry_equiv_pos_as_xyz
 1  'x, y, z'
loop_
 _atom_site_type_symbol
 _atom_site_label
 _atom_site_symmetry_multiplicity
 _atom_site_fract_x
 _atom_site_fract_y
 _atom_site_fract_z
 _atom_site_fract_occupancy
 Fe  Fe1  1  0.30386  0.90001  0.30576  1
 Fe  Fe2  1  0.69614  0.09999  0.69424  1
 Li  Li1  1  0.91075  0.21582  0.41449  1
 Li  Li2  1  0.08925  0.78418  0.58551  1
 Li  Li3  1  0.50000  0.50000  0.50000  1
 Li  Li4  1  0.71042  0.61080  0.22149  1
 Li  Li5  1  0.28958  0.38920  0.77851  1
 Mn  Mn1  1  0.50000  -0.00000  -0.00000  1
 Mn  Mn2  1  0.11402  0.30198  0.10904  1
 Mn  Mn3  1  0.88598  0.69802  0.89096  1
 O  O1  1  0.31899  0.13101  0.54556  1
 O  O2  1  0.71313  0.33626  0.94786  1
 O  O3  1  0.90489  0.95050  0.14001  1
 O  O4  1  0.28687  0.66374  0.05214  1
 O  O5  1  0.68101  0.86899  0.45444  1
 O  O6  1  0.51000  0.76210  0.75819  1
 O  O7  1  0.10618  0.55095  0.33530  1
 O  O8  1  0.89382  0.44905  0.66470  1
 O  O9  1  0.49000  0.23790  0.24181  1
 O  O10  1  0.09511  0.04950  0.85999  1
