CIF file written using JARVIS-Tools package.
data_Li4Cr2P4H3O16
_symmetry_space_group_name_H-M  'P1'
_cell_length_a       4.87469
_cell_length_b       7.60591
_cell_length_c       8.18439
_cell_angle_alpha    90.2651
_cell_angle_beta     88.5734
_cell_angle_gamma    75.4449

_symmetry_Int_Tables_number  1
_chemical_formula_structural  Li4Cr2P4H3O16
_chemical_formula_sum  Li4Cr2P4H3O6
_cell_volume  293.6000097032509
_cell_formula_units_Z  1
loop_
  _symmetry_equiv_pos_site_id
 _symmetry_equiv_pos_as_xyz
 1  'x, y, z'
loop_
 _atom_site_type_symbol
 _atom_site_label
 _atom_site_symmetry_multiplicity
 _atom_site_fract_x
 _atom_site_fract_y
 _atom_site_fract_z
 _atom_site_fract_occupancy
 Cr  Cr1  1  0.00717  0.50096  0.99399  1
 Cr  Cr2  1  0.49525  0.00318  0.49616  1
 H  H1  1  0.52694  0.49866  0.66039  1
 H  H2  1  0.96540  0.01090  0.00900  1
 H  H3  1  0.44467  0.51221  0.43175  1
 Li  Li1  1  0.11885  0.32347  0.34848  1
 Li  Li2  1  0.39078  0.15070  0.87676  1
 Li  Li3  1  0.60072  0.83947  0.11910  1
 Li  Li4  1  0.88818  0.68196  0.63914  1
 O  O1  1  0.99508  0.69720  0.16613  1
 O  O2  1  0.51364  0.18994  0.32056  1
 O  O3  1  0.38877  0.34030  0.04714  1
 O  O4  1  0.17595  0.64204  0.80648  1
 O  O5  1  0.35438  0.83929  0.30650  1
 O  O6  1  0.00504  0.29988  0.82877  1
 O  O7  1  0.10134  0.17804  0.53814  1
 O  O8  1  0.23851  0.54792  0.41303  1
 O  O9  1  0.75718  0.05253  0.06128  1
 O  O10  1  0.85204  0.34834  0.17910  1
 O  O11  1  0.63060  0.66067  0.93811  1
 O  O12  1  0.70792  0.45204  0.59717  1
 O  O13  1  0.24391  0.94227  0.93766  1
 O  O14  1  0.65604  0.14492  0.69458  1
 O  O15  1  0.48591  0.81626  0.66957  1
 O  O16  1  0.88517  0.83965  0.44970  1
 P  P1  1  0.37715  0.76772  0.83889  1
 P  P2  1  0.11614  0.74404  0.32635  1
 P  P3  1  0.87596  0.25400  0.67067  1
 P  P4  1  0.63021  0.23953  0.15530  1
