CIF file written using JARVIS-Tools package.
data_K2MnSnSe4
_symmetry_space_group_name_H-M  'P-4n2'
_cell_length_a       8.25714
_cell_length_b       10.6359
_cell_length_c       10.6359
_cell_angle_alpha    90
_cell_angle_beta     90
_cell_angle_gamma    90

_symmetry_Int_Tables_number  118
_chemical_formula_structural  K2MnSnSe4
_chemical_formula_sum  K8Mn4Sn4Se6
_cell_volume  934.0708313281875
_cell_formula_units_Z  4
loop_
  _symmetry_equiv_pos_site_id
 _symmetry_equiv_pos_as_xyz
 1  'x, y, z'
loop_
 _atom_site_type_symbol
 _atom_site_label
 _atom_site_symmetry_multiplicity
 _atom_site_fract_x
 _atom_site_fract_y
 _atom_site_fract_z
 _atom_site_fract_occupancy
 K  K1  1  0.75000  0.25270  0.24730  1
 K  K2  1  0.50000  0.50000  0.50000  1
 K  K3  1  0.00000  0.00000  0.00000  1
 K  K4  1  0.75000  0.74730  0.75270  1
 K  K5  1  0.25000  0.00000  0.50000  1
 K  K6  1  0.75000  0.50000  0.00000  1
 K  K7  1  0.25000  0.24730  0.74730  1
 K  K8  1  0.25000  0.75270  0.25270  1
 Mn  Mn1  1  0.25000  0.50000  0.00000  1
 Mn  Mn2  1  0.75000  0.00000  0.50000  1
 Mn  Mn3  1  0.00000  0.50000  0.50000  1
 Mn  Mn4  1  0.50000  0.00000  0.00000  1
 Se  Se1  1  0.56809  0.80512  0.47470  1
 Se  Se2  1  0.06809  0.30512  0.02530  1
 Se  Se3  1  0.10455  0.28804  0.43722  1
 Se  Se4  1  0.93191  0.97470  0.30512  1
 Se  Se5  1  0.43191  0.47470  0.19488  1
 Se  Se6  1  0.10455  0.71196  0.56278  1
 Se  Se7  1  0.93191  0.02530  0.69488  1
 Se  Se8  1  0.43191  0.52530  0.80512  1
 Se  Se9  1  0.60455  0.21196  0.93722  1
 Se  Se10  1  0.39545  0.06278  0.21196  1
 Se  Se11  1  0.56809  0.19488  0.52530  1
 Se  Se12  1  0.89545  0.56278  0.28804  1
 Se  Se13  1  0.89545  0.43722  0.71196  1
 Se  Se14  1  0.39545  0.93722  0.78804  1
 Se  Se15  1  0.06809  0.69488  0.97470  1
 Se  Se16  1  0.60455  0.78804  0.06278  1
 Sn  Sn1  1  0.25000  0.27849  0.22151  1
 Sn  Sn2  1  0.75000  0.77849  0.27849  1
 Sn  Sn3  1  0.75000  0.22151  0.72151  1
 Sn  Sn4  1  0.25000  0.72151  0.77849  1
