CIF file written using JARVIS-Tools package.
data_TmNiGe2
_symmetry_space_group_name_H-M  'Cmcm'
_cell_length_a       4.18557
_cell_length_b       3.99861
_cell_length_c       8.63694
_cell_angle_alpha    103.384
_cell_angle_beta     90
_cell_angle_gamma    90

_symmetry_Int_Tables_number  63
_chemical_formula_structural  TmNiGe2
_chemical_formula_sum  Tm2Ni2Ge4
_cell_volume  140.6255092090701
_cell_formula_units_Z  2
loop_
  _symmetry_equiv_pos_site_id
 _symmetry_equiv_pos_as_xyz
 1  'x, y, z'
loop_
 _atom_site_type_symbol
 _atom_site_label
 _atom_site_symmetry_multiplicity
 _atom_site_fract_x
 _atom_site_fract_y
 _atom_site_fract_z
 _atom_site_fract_occupancy
 Ge  Ge1  1  0.75000  0.45998  0.91996  1
 Ge  Ge2  1  0.25000  0.54002  0.08004  1
 Ge  Ge3  1  0.75000  0.74699  0.49399  1
 Ge  Ge4  1  0.25000  0.25301  0.50601  1
 Ni  Ni1  1  0.75000  0.32428  0.64857  1
 Ni  Ni2  1  0.25000  0.67572  0.35143  1
 Tm  Tm1  1  0.75000  0.10783  0.21566  1
 Tm  Tm2  1  0.25000  0.89217  0.78434  1
