CIF file written using JARVIS-Tools package.
data_K2TcI6
_symmetry_space_group_name_H-M  'P2_1/c'
_cell_length_a       7.72182
_cell_length_b       7.97575
_cell_length_c       11.2036
_cell_angle_alpha    90
_cell_angle_beta     90.6161
_cell_angle_gamma    90

_symmetry_Int_Tables_number  14
_chemical_formula_structural  K2TcI6
_chemical_formula_sum  K4Tc2I2
_cell_volume  689.9607762297577
_cell_formula_units_Z  2
loop_
  _symmetry_equiv_pos_site_id
 _symmetry_equiv_pos_as_xyz
 1  'x, y, z'
loop_
 _atom_site_type_symbol
 _atom_site_label
 _atom_site_symmetry_multiplicity
 _atom_site_fract_x
 _atom_site_fract_y
 _atom_site_fract_z
 _atom_site_fract_occupancy
 I  I1  1  0.69275  0.78782  0.47061  1
 I  I2  1  0.70932  0.80554  0.03661  1
 I  I3  1  0.57251  0.49919  0.74097  1
 I  I4  1  0.07251  0.00081  0.24097  1
 I  I5  1  0.80725  0.28782  0.02939  1
 I  I6  1  0.42749  0.50081  0.25903  1
 I  I7  1  0.30725  0.21218  0.52939  1
 I  I8  1  0.29068  0.19446  0.96339  1
 I  I9  1  0.20932  0.69446  0.53661  1
 I  I10  1  0.19275  0.71218  0.97061  1
 I  I11  1  0.92749  -0.00081  0.75903  1
 I  I12  1  0.79068  0.30554  0.46339  1
 K  K1  1  0.97329  0.57020  0.25068  1
 K  K2  1  0.52671  0.07020  0.24932  1
 K  K3  1  0.47329  0.92980  0.75068  1
 K  K4  1  0.02671  0.42980  0.74932  1
 Tc  Tc1  1  0.50000  0.50000  0.50000  1
 Tc  Tc2  1  0.00000  0.00000  0.00000  1
