CIF file written using JARVIS-Tools package.
data_MgRe2O8
_symmetry_space_group_name_H-M  'P-3m1'
_cell_length_a       5.80474
_cell_length_b       5.80463
_cell_length_c       6.08187
_cell_angle_alpha    90.0007
_cell_angle_beta     89.9976
_cell_angle_gamma    120.006

_symmetry_Int_Tables_number  164
_chemical_formula_structural  MgRe2O8
_chemical_formula_sum  MgRe2O8
_cell_volume  177.45976124607975
_cell_formula_units_Z  1
loop_
  _symmetry_equiv_pos_site_id
 _symmetry_equiv_pos_as_xyz
 1  'x, y, z'
loop_
 _atom_site_type_symbol
 _atom_site_label
 _atom_site_symmetry_multiplicity
 _atom_site_fract_x
 _atom_site_fract_y
 _atom_site_fract_z
 _atom_site_fract_occupancy
 Mg  Mg1  1  0.99998  0.00000  -0.00000  1
 O  O1  1  0.16812  0.83124  0.19343  1
 O  O2  1  0.16867  0.33677  0.19359  1
 O  O3  1  0.33326  0.66672  0.57434  1
 O  O4  1  0.33681  0.16818  0.80646  1
 O  O5  1  0.66315  0.83182  0.19354  1
 O  O6  1  0.66670  0.33329  0.42566  1
 O  O7  1  0.83129  0.66323  0.80641  1
 O  O8  1  0.83184  0.16876  0.80657  1
 Re  Re1  1  0.33330  0.66664  0.28826  1
 Re  Re2  1  0.66667  0.33336  0.71174  1
