CIF file written using JARVIS-Tools package.
data_LiVF4
_symmetry_space_group_name_H-M  'P2/c'
_cell_length_a       4.56428
_cell_length_b       5.55782
_cell_length_c       5.12416
_cell_angle_alpha    90
_cell_angle_beta     91.7444
_cell_angle_gamma    90

_symmetry_Int_Tables_number  13
_chemical_formula_structural  LiVF4
_chemical_formula_sum  Li2V2F8
_cell_volume  129.92689577716646
_cell_formula_units_Z  2
loop_
  _symmetry_equiv_pos_site_id
 _symmetry_equiv_pos_as_xyz
 1  'x, y, z'
loop_
 _atom_site_type_symbol
 _atom_site_label
 _atom_site_symmetry_multiplicity
 _atom_site_fract_x
 _atom_site_fract_y
 _atom_site_fract_z
 _atom_site_fract_occupancy
 F  F1  1  0.22429  0.11589  0.91839  1
 F  F2  1  0.22429  0.88411  0.41839  1
 F  F3  1  0.26223  0.62623  0.91230  1
 F  F4  1  0.26223  0.37377  0.41230  1
 F  F5  1  0.73777  0.62623  0.58770  1
 F  F6  1  0.73777  0.37377  0.08770  1
 F  F7  1  0.77571  0.11589  0.58161  1
 F  F8  1  0.77571  0.88411  0.08161  1
 Li  Li1  1  0.50000  0.36594  0.75000  1
 Li  Li2  1  0.50000  0.63406  0.25000  1
 V  V1  1  -0.00000  0.84469  0.75000  1
 V  V2  1  0.00000  0.15531  0.25000  1
