CIF file written using JARVIS-Tools package.
data_KBiP2Se6
_symmetry_space_group_name_H-M  'P2_1/c'
_cell_length_a       7.62563
_cell_length_b       12.3261
_cell_length_c       12.5394
_cell_angle_alpha    110.513
_cell_angle_beta     90
_cell_angle_gamma    90

_symmetry_Int_Tables_number  14
_chemical_formula_structural  KBiP2Se6
_chemical_formula_sum  K4Bi4P8Se24
_cell_volume  1103.9047795718411
_cell_formula_units_Z  4
loop_
  _symmetry_equiv_pos_site_id
 _symmetry_equiv_pos_as_xyz
 1  'x, y, z'
loop_
 _atom_site_type_symbol
 _atom_site_label
 _atom_site_symmetry_multiplicity
 _atom_site_fract_x
 _atom_site_fract_y
 _atom_site_fract_z
 _atom_site_fract_occupancy
 Bi  Bi1  1  0.64121  0.88115  0.66487  1
 Bi  Bi2  1  0.14121  0.11885  0.83513  1
 Bi  Bi3  1  0.35879  0.11885  0.33513  1
 Bi  Bi4  1  0.85879  0.88115  0.16487  1
 K  K1  1  0.58741  0.40820  0.13225  1
 K  K2  1  0.41259  0.59180  0.86775  1
 K  K3  1  0.91259  0.40820  0.63225  1
 K  K4  1  0.08741  0.59180  0.36775  1
 P  P1  1  0.12736  0.76045  0.69667  1
 P  P2  1  0.09584  0.23962  0.18160  1
 P  P3  1  0.87264  0.23955  0.30333  1
 P  P4  1  0.62736  0.23955  0.80333  1
 P  P5  1  0.40416  0.23962  0.68160  1
 P  P6  1  0.37264  0.76045  0.19667  1
 P  P7  1  0.90416  0.76038  0.81840  1
 P  P8  1  0.59584  0.76038  0.31840  1
 Se  Se1  1  0.50074  0.31166  0.55465  1
 Se  Se2  1  0.50372  0.16490  0.92624  1
 Se  Se3  1  0.23638  0.58563  0.61988  1
 Se  Se4  1  0.69367  0.66049  0.70059  1
 Se  Se5  1  -0.00074  0.31166  0.05465  1
 Se  Se6  1  0.49628  0.83510  0.07376  1
 Se  Se7  1  0.18230  0.88468  0.31443  1
 Se  Se8  1  0.19367  0.33951  0.79941  1
 Se  Se9  1  0.80633  0.66049  0.20059  1
 Se  Se10  1  0.73638  0.41437  0.88012  1
 Se  Se11  1  0.31770  0.88468  0.81443  1
 Se  Se12  1  0.00372  0.83510  0.57376  1
 Se  Se13  1  0.49926  0.68834  0.44535  1
 Se  Se14  1  0.30633  0.33951  0.29941  1
 Se  Se15  1  0.30797  0.05482  0.61134  1
 Se  Se16  1  0.19203  0.05482  0.11134  1
 Se  Se17  1  0.68230  0.11532  0.18557  1
 Se  Se18  1  0.99628  0.16490  0.42624  1
 Se  Se19  1  0.26362  0.58563  0.11988  1
 Se  Se20  1  0.00074  0.68834  0.94535  1
 Se  Se21  1  0.69203  0.94518  0.38866  1
 Se  Se22  1  0.81770  0.11532  0.68557  1
 Se  Se23  1  0.80797  0.94518  0.88866  1
 Se  Se24  1  0.76362  0.41437  0.38012  1
