CIF file written using JARVIS-Tools package.
data_ErGa2Pd
_symmetry_space_group_name_H-M  'Cmcm'
_cell_length_a       4.41115
_cell_length_b       5.49474
_cell_length_c       6.56036
_cell_angle_alpha    90
_cell_angle_beta     90
_cell_angle_gamma    113.666

_symmetry_Int_Tables_number  63
_chemical_formula_structural  ErGa2Pd
_chemical_formula_sum  Er2Ga4Pd2
_cell_volume  145.6383970728268
_cell_formula_units_Z  2
loop_
  _symmetry_equiv_pos_site_id
 _symmetry_equiv_pos_as_xyz
 1  'x, y, z'
loop_
 _atom_site_type_symbol
 _atom_site_label
 _atom_site_symmetry_multiplicity
 _atom_site_fract_x
 _atom_site_fract_y
 _atom_site_fract_z
 _atom_site_fract_occupancy
 Er  Er1  1  0.41014  0.82029  0.25000  1
 Er  Er2  1  0.58986  0.17971  0.75000  1
 Ga  Ga1  1  0.12607  0.25213  0.44799  1
 Ga  Ga2  1  0.87393  0.74787  0.55201  1
 Ga  Ga3  1  0.12607  0.25213  0.05201  1
 Ga  Ga4  1  0.87393  0.74787  0.94799  1
 Pd  Pd1  1  0.69916  0.39832  0.25000  1
 Pd  Pd2  1  0.30084  0.60168  0.75000  1
