CIF file written using JARVIS-Tools package.
data_Sr2InPt2
_symmetry_space_group_name_H-M  'C2/c'
_cell_length_a       6.0218
_cell_length_b       6.02181
_cell_length_c       8.3606
_cell_angle_alpha    78.0247
_cell_angle_beta     78.0247
_cell_angle_gamma    59.5868

_symmetry_Int_Tables_number  15
_chemical_formula_structural  Sr2InPt2
_chemical_formula_sum  Sr4In2Pt4
_cell_volume  253.87294725680727
_cell_formula_units_Z  2
loop_
  _symmetry_equiv_pos_site_id
 _symmetry_equiv_pos_as_xyz
 1  'x, y, z'
loop_
 _atom_site_type_symbol
 _atom_site_label
 _atom_site_symmetry_multiplicity
 _atom_site_fract_x
 _atom_site_fract_y
 _atom_site_fract_z
 _atom_site_fract_occupancy
 In  In1  1  0.14163  0.85837  0.75000  1
 In  In2  1  0.85837  0.14163  0.25000  1
 Pt  Pt1  1  0.72321  0.00025  0.00170  1
 Pt  Pt2  1  0.99975  0.27679  0.49830  1
 Pt  Pt3  1  0.27679  0.99975  0.99830  1
 Pt  Pt4  1  0.00025  0.72321  0.50170  1
 Sr  Sr1  1  0.49699  0.20801  0.64716  1
 Sr  Sr2  1  0.79199  0.50301  0.85284  1
 Sr  Sr3  1  0.50301  0.79199  0.35284  1
 Sr  Sr4  1  0.20801  0.49699  0.14716  1
