CIF file written using JARVIS-Tools package.
data_LuRu2
_symmetry_space_group_name_H-M  'P6_3/mmc'
_cell_length_a       5.20701
_cell_length_b       5.207
_cell_length_c       8.78518
_cell_angle_alpha    90
_cell_angle_beta     90
_cell_angle_gamma    120

_symmetry_Int_Tables_number  194
_chemical_formula_structural  LuRu2
_chemical_formula_sum  Lu4Ru8
_cell_volume  206.28007129919754
_cell_formula_units_Z  4
loop_
  _symmetry_equiv_pos_site_id
 _symmetry_equiv_pos_as_xyz
 1  'x, y, z'
loop_
 _atom_site_type_symbol
 _atom_site_label
 _atom_site_symmetry_multiplicity
 _atom_site_fract_x
 _atom_site_fract_y
 _atom_site_fract_z
 _atom_site_fract_occupancy
 Lu  Lu1  1  0.33333  0.66667  0.43291  1
 Lu  Lu2  1  0.66667  0.33333  0.56709  1
 Lu  Lu3  1  0.66667  0.33333  0.93291  1
 Lu  Lu4  1  0.33333  0.66667  0.06709  1
 Ru  Ru1  1  0.17155  0.34309  0.75000  1
 Ru  Ru2  1  0.17155  0.82845  0.75000  1
 Ru  Ru3  1  0.34309  0.17155  0.25000  1
 Ru  Ru4  1  0.82845  0.65691  0.25000  1
 Ru  Ru5  1  0.65691  0.82845  0.75000  1
 Ru  Ru6  1  0.00000  0.00000  0.00000  1
 Ru  Ru7  1  0.82845  0.17155  0.25000  1
 Ru  Ru8  1  0.00000  0.00000  0.50000  1
