CIF file written using JARVIS-Tools package.
data_MnNb2Zn2O8
_symmetry_space_group_name_H-M  'C2/c'
_cell_length_a       5.256
_cell_length_b       5.83206
_cell_length_c       9.81924
_cell_angle_alpha    107.276
_cell_angle_beta     88.3197
_cell_angle_gamma    90

_symmetry_Int_Tables_number  15
_chemical_formula_structural  MnNb2Zn2O8
_chemical_formula_sum  Mn2Nb4Zn4O6
_cell_volume  287.27780669276297
_cell_formula_units_Z  2
loop_
  _symmetry_equiv_pos_site_id
 _symmetry_equiv_pos_as_xyz
 1  'x, y, z'
loop_
 _atom_site_type_symbol
 _atom_site_label
 _atom_site_symmetry_multiplicity
 _atom_site_fract_x
 _atom_site_fract_y
 _atom_site_fract_z
 _atom_site_fract_occupancy
 Mn  Mn1  1  0.25000  0.37684  -0.00000  1
 Mn  Mn2  1  0.75000  0.62316  0.00000  1
 Nb  Nb1  1  0.25429  0.94592  0.21875  1
 Nb  Nb2  1  0.74571  0.05408  0.78125  1
 Nb  Nb3  1  0.75429  0.27284  0.21875  1
 Nb  Nb4  1  0.24571  0.72716  0.78125  1
 O  O1  1  0.40001  0.06840  0.87563  1
 O  O2  1  0.90001  0.80723  0.87563  1
 O  O3  1  0.59999  0.93160  0.12437  1
 O  O4  1  0.56739  0.43109  0.10633  1
 O  O5  1  0.93261  0.32476  0.89367  1
 O  O6  1  0.43261  0.56891  0.89367  1
 O  O7  1  0.06739  0.67524  0.10633  1
 O  O8  1  0.44433  0.27004  0.34944  1
 O  O9  1  0.05567  0.92060  0.65056  1
 O  O10  1  0.86958  0.55148  0.38345  1
 O  O11  1  0.09999  0.19277  0.12437  1
 O  O12  1  0.13042  0.44852  0.61655  1
 O  O13  1  0.94433  0.07940  0.34944  1
 O  O14  1  0.55567  0.72996  0.65056  1
 O  O15  1  0.36958  0.83197  0.38345  1
 O  O16  1  0.63042  0.16803  0.61655  1
 Zn  Zn1  1  0.76378  0.44490  0.56445  1
 Zn  Zn2  1  0.73622  0.88045  0.43555  1
 Zn  Zn3  1  0.23622  0.55510  0.43555  1
 Zn  Zn4  1  0.26378  0.11955  0.56445  1
