CIF file written using JARVIS-Tools package.
data_SrIn
_symmetry_space_group_name_H-M  'Fdd2'
_cell_length_a       6.58305
_cell_length_b       6.58311
_cell_length_c       13.519
_cell_angle_alpha    101.41
_cell_angle_beta     101.41
_cell_angle_gamma    100.794

_symmetry_Int_Tables_number  43
_chemical_formula_structural  SrIn
_chemical_formula_sum  Sr8In8
_cell_volume  547.089327004703
_cell_formula_units_Z  8
loop_
  _symmetry_equiv_pos_site_id
 _symmetry_equiv_pos_as_xyz
 1  'x, y, z'
loop_
 _atom_site_type_symbol
 _atom_site_label
 _atom_site_symmetry_multiplicity
 _atom_site_fract_x
 _atom_site_fract_y
 _atom_site_fract_z
 _atom_site_fract_occupancy
 In  In1  1  0.86416  0.62201  0.42266  1
 In  In2  1  0.29013  0.04111  0.92667  1
 In  In3  1  0.11545  0.36195  0.07287  1
 In  In4  1  0.20036  0.44004  0.57680  1
 In  In5  1  0.69133  0.94913  0.07684  1
 In  In6  1  0.87332  0.61293  0.92268  1
 In  In7  1  0.61319  0.86417  0.57287  1
 In  In8  1  0.29233  0.03883  0.42666  1
 Sr  Sr1  1  0.71643  0.42139  0.64102  1
 Sr  Sr2  1  0.20691  0.91510  0.15264  1
 Sr  Sr3  1  0.78141  0.07394  0.35849  1
 Sr  Sr4  1  0.30402  0.51224  0.34686  1
 Sr  Sr5  1  0.32522  0.53018  0.85848  1
 Sr  Sr6  1  0.76351  0.05277  0.84689  1
 Sr  Sr7  1  0.16634  0.95564  0.65264  1
 Sr  Sr8  1  0.67266  0.46520  0.14101  1
