CIF file written using JARVIS-Tools package.
data_RbCoH24C14N8
_symmetry_space_group_name_H-M  'I4/m'
_cell_length_a       8.63934
_cell_length_b       8.63934
_cell_length_c       8.63934
_cell_angle_alpha    119.82
_cell_angle_beta     119.82
_cell_angle_gamma    90.3114

_symmetry_Int_Tables_number  87
_chemical_formula_structural  RbCoH24C14N8
_chemical_formula_sum  RbCoH24C4N8
_cell_volume  457.1901055977288
_cell_formula_units_Z  1
loop_
  _symmetry_equiv_pos_site_id
 _symmetry_equiv_pos_as_xyz
 1  'x, y, z'
loop_
 _atom_site_type_symbol
 _atom_site_label
 _atom_site_symmetry_multiplicity
 _atom_site_fract_x
 _atom_site_fract_y
 _atom_site_fract_z
 _atom_site_fract_occupancy
 C  C1  1  0.70392  0.24287  0.30391  1
 C  C2  1  0.93896  0.40001  0.69609  1
 C  C3  1  0.84452  0.84452  0.00000  1
 C  C4  1  0.15548  0.15548  -0.00000  1
 C  C5  1  0.17779  0.87333  0.05111  1
 C  C6  1  0.82221  0.12667  0.94889  1
 C  C7  1  0.87333  0.82221  0.69554  1
 C  C8  1  0.12667  0.17779  0.30446  1
 C  C9  1  0.29608  0.75713  0.69609  1
 C  C10  1  0.24287  0.93896  0.53894  1
 C  C11  1  0.75713  0.06104  0.46106  1
 C  C12  1  0.59999  0.29608  0.53894  1
 C  C13  1  0.06104  0.59999  0.30391  1
 C  C14  1  0.40001  0.70392  0.46106  1
 Co  Co1  1  0.00000  0.00000  0.00000  1
 H  H1  1  0.56261  0.13926  0.16454  1
 H  H2  1  0.36741  0.70731  0.32333  1
 H  H3  1  0.13926  -0.02528  0.57665  1
 H  H4  1  -0.02528  0.39807  0.83546  1
 H  H5  1  0.39807  0.56261  0.42335  1
 H  H6  1  0.02528  0.60193  0.16454  1
 H  H7  1  0.43739  0.86074  0.83546  1
 H  H8  1  0.46367  0.18930  0.39149  1
 H  H9  1  0.79781  0.07218  0.60851  1
 H  H10  1  0.07218  0.46367  0.27438  1
 H  H11  1  0.53633  0.81070  0.60851  1
 H  H12  1  0.20219  0.92782  0.39149  1
 H  H13  1  0.81070  0.20219  0.27438  1
 H  H14  1  0.92782  0.53633  0.72562  1
 H  H15  1  0.63259  0.29269  0.67667  1
 H  H16  1  0.61602  0.95592  0.32333  1
 H  H17  1  0.95592  0.63259  0.33990  1
 H  H18  1  0.18930  0.79781  0.72562  1
 H  H19  1  0.38398  0.04408  0.67667  1
 H  H20  1  0.70731  0.38398  0.33990  1
 H  H21  1  0.04408  0.36741  0.66010  1
 H  H22  1  0.60193  0.43739  0.57665  1
 H  H23  1  0.86074  0.02528  0.42335  1
 H  H24  1  0.29269  0.61602  0.66010  1
 N  N1  1  0.71384  0.20783  0.92167  1
 N  N2  1  0.20783  0.28616  0.49399  1
 N  N3  1  0.28616  0.79217  0.07833  1
 N  N4  1  0.25000  0.75000  0.50000  1
 N  N5  1  0.74834  0.74834  -0.00000  1
 N  N6  1  0.75000  0.25000  0.50000  1
 N  N7  1  0.79217  0.71384  0.50601  1
 N  N8  1  0.25166  0.25166  0.00000  1
 Rb  Rb1  1  0.50000  0.50000  0.00000  1
