CIF file written using JARVIS-Tools package.
data_SrY2S4
_symmetry_space_group_name_H-M  'Pnma'
_cell_length_a       3.98447
_cell_length_b       11.9834
_cell_length_c       14.3283
_cell_angle_alpha    90
_cell_angle_beta     90
_cell_angle_gamma    90

_symmetry_Int_Tables_number  62
_chemical_formula_structural  SrY2S4
_chemical_formula_sum  Sr4Y8S6
_cell_volume  684.1412096007481
_cell_formula_units_Z  4
loop_
  _symmetry_equiv_pos_site_id
 _symmetry_equiv_pos_as_xyz
 1  'x, y, z'
loop_
 _atom_site_type_symbol
 _atom_site_label
 _atom_site_symmetry_multiplicity
 _atom_site_fract_x
 _atom_site_fract_y
 _atom_site_fract_z
 _atom_site_fract_occupancy
 S  S1  1  0.75000  0.47774  0.78395  1
 S  S2  1  0.75000  0.36888  0.02697  1
 S  S3  1  0.25000  0.13112  0.52697  1
 S  S4  1  0.75000  0.86888  0.47303  1
 S  S5  1  0.75000  0.29229  0.32503  1
 S  S6  1  0.25000  0.70771  0.67497  1
 S  S7  1  0.75000  0.79229  0.17497  1
 S  S8  1  0.25000  0.20771  0.82503  1
 S  S9  1  0.75000  0.58633  0.42114  1
 S  S10  1  0.25000  0.41367  0.57886  1
 S  S11  1  0.75000  0.08633  0.07886  1
 S  S12  1  0.25000  0.91367  0.92114  1
 S  S13  1  0.25000  0.63112  0.97303  1
 S  S14  1  0.25000  0.02226  0.28395  1
 S  S15  1  0.25000  0.52226  0.21605  1
 S  S16  1  0.75000  0.97774  0.71605  1
 Sr  Sr1  1  0.25000  0.75756  0.33788  1
 Sr  Sr2  1  0.75000  0.24244  0.66212  1
 Sr  Sr3  1  0.25000  0.25756  0.16212  1
 Sr  Sr4  1  0.75000  0.74244  0.83788  1
 Y  Y1  1  0.25000  0.41918  0.89935  1
 Y  Y2  1  0.25000  0.43159  0.39014  1
 Y  Y3  1  0.75000  0.56841  0.60986  1
 Y  Y4  1  0.25000  0.93159  0.10986  1
 Y  Y5  1  0.75000  0.06841  0.89014  1
 Y  Y6  1  0.25000  0.91918  0.60065  1
 Y  Y7  1  0.75000  0.08082  0.39935  1
 Y  Y8  1  0.75000  0.58082  0.10065  1
