CIF file written using JARVIS-Tools package.
data_Ba3Si4
_symmetry_space_group_name_H-M  'P4_2/mnm'
_cell_length_a       8.56618
_cell_length_b       8.56618
_cell_length_c       11.8681
_cell_angle_alpha    90
_cell_angle_beta     90
_cell_angle_gamma    90

_symmetry_Int_Tables_number  136
_chemical_formula_structural  Ba3Si4
_chemical_formula_sum  Ba2Si6
_cell_volume  870.8711710792572
_cell_formula_units_Z  4
loop_
  _symmetry_equiv_pos_site_id
 _symmetry_equiv_pos_as_xyz
 1  'x, y, z'
loop_
 _atom_site_type_symbol
 _atom_site_label
 _atom_site_symmetry_multiplicity
 _atom_site_fract_x
 _atom_site_fract_y
 _atom_site_fract_z
 _atom_site_fract_occupancy
 Ba  Ba1  1  0.33491  0.33491  0.00000  1
 Ba  Ba2  1  0.16509  0.83491  0.50000  1
 Ba  Ba3  1  0.50000  0.00000  0.75000  1
 Ba  Ba4  1  0.00000  0.50000  0.75000  1
 Ba  Ba5  1  0.00000  0.50000  0.25000  1
 Ba  Ba6  1  0.00000  0.00000  0.83050  1
 Ba  Ba7  1  0.50000  0.00000  0.25000  1
 Ba  Ba8  1  0.50000  0.50000  0.66950  1
 Ba  Ba9  1  0.00000  0.00000  0.16950  1
 Ba  Ba10  1  0.66509  0.66509  0.00000  1
 Ba  Ba11  1  0.83491  0.16509  0.50000  1
 Ba  Ba12  1  0.50000  0.50000  0.33050  1
 Si  Si1  1  0.29991  0.70009  0.85389  1
 Si  Si2  1  0.20009  0.20009  0.64611  1
 Si  Si3  1  0.79991  0.79991  0.35389  1
 Si  Si4  1  0.29991  0.70009  0.14611  1
 Si  Si5  1  0.70009  0.29991  0.14611  1
 Si  Si6  1  0.70009  0.29991  0.85389  1
 Si  Si7  1  0.20009  0.20009  0.35389  1
 Si  Si8  1  0.80089  0.59881  0.50000  1
 Si  Si9  1  0.30089  0.90119  0.00000  1
 Si  Si10  1  0.09881  0.69911  0.00000  1
 Si  Si11  1  0.59881  0.80089  0.50000  1
 Si  Si12  1  0.79991  0.79991  0.64611  1
 Si  Si13  1  0.90119  0.30089  0.00000  1
 Si  Si14  1  0.40119  0.19911  0.50000  1
 Si  Si15  1  0.69911  0.09881  0.00000  1
 Si  Si16  1  0.19911  0.40119  0.50000  1
