CIF file written using JARVIS-Tools package.
data_LaBeCl4
_symmetry_space_group_name_H-M  'F-43m'
_cell_length_a       5.85518
_cell_length_b       5.85518
_cell_length_c       5.85518
_cell_angle_alpha    60
_cell_angle_beta     60
_cell_angle_gamma    60

_symmetry_Int_Tables_number  216
_chemical_formula_structural  LaBeCl4
_chemical_formula_sum  LaBeCl4
_cell_volume  141.940831739302
_cell_formula_units_Z  1
loop_
  _symmetry_equiv_pos_site_id
 _symmetry_equiv_pos_as_xyz
 1  'x, y, z'
loop_
 _atom_site_type_symbol
 _atom_site_label
 _atom_site_symmetry_multiplicity
 _atom_site_fract_x
 _atom_site_fract_y
 _atom_site_fract_z
 _atom_site_fract_occupancy
 Be  Be1  1  0.00000  0.00000  0.00000  1
 Cl  Cl1  1  0.12553  0.62482  0.62482  1
 Cl  Cl2  1  0.62482  0.62482  0.62482  1
 Cl  Cl3  1  0.62482  0.12553  0.62482  1
 Cl  Cl4  1  0.62482  0.62482  0.12553  1
 La  La1  1  0.25000  0.25000  0.25000  1
