CIF file written using JARVIS-Tools package.
data_Mg2GeB2Rh5
_symmetry_space_group_name_H-M  'P4/mbm'
_cell_length_a       2.9293
_cell_length_b       9.39283
_cell_length_c       9.39283
_cell_angle_alpha    90
_cell_angle_beta     90
_cell_angle_gamma    90

_symmetry_Int_Tables_number  127
_chemical_formula_structural  Mg2GeB2Rh5
_chemical_formula_sum  Mg4Ge2B4Rh0
_cell_volume  258.43870521455557
_cell_formula_units_Z  2
loop_
  _symmetry_equiv_pos_site_id
 _symmetry_equiv_pos_as_xyz
 1  'x, y, z'
loop_
 _atom_site_type_symbol
 _atom_site_label
 _atom_site_symmetry_multiplicity
 _atom_site_fract_x
 _atom_site_fract_y
 _atom_site_fract_z
 _atom_site_fract_occupancy
 B  B1  1  0.00000  0.12514  0.62514  1
 B  B2  1  0.00000  0.37486  0.12514  1
 B  B3  1  0.00000  0.62514  0.87486  1
 B  B4  1  0.00000  0.87486  0.37486  1
 Ge  Ge1  1  0.00000  0.50000  0.50000  1
 Ge  Ge2  1  0.00000  0.00000  0.00000  1
 Mg  Mg1  1  0.00000  0.67443  0.17443  1
 Mg  Mg2  1  0.00000  0.17443  0.32557  1
 Mg  Mg3  1  0.00000  0.82557  0.67443  1
 Mg  Mg4  1  0.00000  0.32557  0.82557  1
 Rh  Rh1  1  0.50000  0.00000  0.50000  1
 Rh  Rh2  1  0.50000  0.21303  0.07289  1
 Rh  Rh3  1  0.50000  0.42711  0.28697  1
 Rh  Rh4  1  0.50000  0.57289  0.71303  1
 Rh  Rh5  1  0.50000  0.28697  0.57289  1
 Rh  Rh6  1  0.50000  0.71303  0.42711  1
 Rh  Rh7  1  0.50000  0.78697  0.92711  1
 Rh  Rh8  1  0.50000  0.07289  0.78697  1
 Rh  Rh9  1  0.50000  0.92711  0.21303  1
 Rh  Rh10  1  0.50000  0.50000  0.00000  1
