CIF file written using JARVIS-Tools package.
data_BeNbW
_symmetry_space_group_name_H-M  'I4mm'
_cell_length_a       6.22324
_cell_length_b       6.22324
_cell_length_c       6.22324
_cell_angle_alpha    154.841
_cell_angle_beta     154.841
_cell_angle_gamma    35.8777

_symmetry_Int_Tables_number  107
_chemical_formula_structural  BeNbW
_chemical_formula_sum  BeNbW
_cell_volume  43.5053390672927
_cell_formula_units_Z  1
loop_
  _symmetry_equiv_pos_site_id
 _symmetry_equiv_pos_as_xyz
 1  'x, y, z'
loop_
 _atom_site_type_symbol
 _atom_site_label
 _atom_site_symmetry_multiplicity
 _atom_site_fract_x
 _atom_site_fract_y
 _atom_site_fract_z
 _atom_site_fract_occupancy
 Be  Be1  1  0.00372  0.00372  -0.00000  1
 Nb  Nb1  1  0.34991  0.34991  -0.00000  1
 W  W1  1  0.64637  0.64637  -0.00000  1
