CIF file written using JARVIS-Tools package.
data_LiMg3
_symmetry_space_group_name_H-M  'Imm2'
_cell_length_a       3.17677
_cell_length_b       10.0949
_cell_length_c       5.45082
_cell_angle_alpha    90
_cell_angle_beta     90
_cell_angle_gamma    90

_symmetry_Int_Tables_number  44
_chemical_formula_structural  LiMg3
_chemical_formula_sum  Li2Mg6
_cell_volume  174.80361238628737
_cell_formula_units_Z  2
loop_
  _symmetry_equiv_pos_site_id
 _symmetry_equiv_pos_as_xyz
 1  'x, y, z'
loop_
 _atom_site_type_symbol
 _atom_site_label
 _atom_site_symmetry_multiplicity
 _atom_site_fract_x
 _atom_site_fract_y
 _atom_site_fract_z
 _atom_site_fract_occupancy
 Li  Li1  1  0.50000  0.00000  0.83370  1
 Li  Li2  1  0.00000  0.50000  0.33370  1
 Mg  Mg1  1  0.00000  0.00000  0.33990  1
 Mg  Mg2  1  0.00000  0.75306  0.99653  1
 Mg  Mg3  1  0.50000  0.74694  0.49653  1
 Mg  Mg4  1  0.50000  0.50000  0.83990  1
 Mg  Mg5  1  0.50000  0.25306  0.49653  1
 Mg  Mg6  1  0.00000  0.24694  0.99653  1
