CIF file written using JARVIS-Tools package.
data_DyMn2O5
_symmetry_space_group_name_H-M  'Pbam'
_cell_length_a       5.65601
_cell_length_b       7.23241
_cell_length_c       8.52305
_cell_angle_alpha    90
_cell_angle_beta     90
_cell_angle_gamma    90

_symmetry_Int_Tables_number  55
_chemical_formula_structural  DyMn2O5
_chemical_formula_sum  Dy4Mn8O20
_cell_volume  348.64831407615407
_cell_formula_units_Z  4
loop_
  _symmetry_equiv_pos_site_id
 _symmetry_equiv_pos_as_xyz
 1  'x, y, z'
loop_
 _atom_site_type_symbol
 _atom_site_label
 _atom_site_symmetry_multiplicity
 _atom_site_fract_x
 _atom_site_fract_y
 _atom_site_fract_z
 _atom_site_fract_occupancy
 Dy  Dy1  1  0.00000  0.13777  0.17229  1
 Dy  Dy2  1  0.00000  0.63777  0.32771  1
 Dy  Dy3  1  0.00000  0.36223  0.67229  1
 Dy  Dy4  1  0.00000  0.86223  0.82771  1
 Mn  Mn1  1  0.50000  0.09367  0.85190  1
 Mn  Mn2  1  0.50000  0.59367  0.64810  1
 Mn  Mn3  1  0.50000  0.40633  0.35190  1
 Mn  Mn4  1  0.50000  0.90633  0.14810  1
 Mn  Mn5  1  0.74418  0.00000  0.50000  1
 Mn  Mn6  1  0.74418  0.50000  0.00000  1
 Mn  Mn7  1  0.25582  0.00000  0.50000  1
 Mn  Mn8  1  0.25582  0.50000  0.00000  1
 O  O1  1  0.50000  0.34518  0.93193  1
 O  O2  1  0.24572  0.10352  0.70699  1
 O  O3  1  0.75428  0.39648  0.20699  1
 O  O4  1  0.75428  0.60352  0.79301  1
 O  O5  1  0.75428  0.10352  0.70699  1
 O  O6  1  0.75428  0.89648  0.29301  1
 O  O7  1  0.24572  0.60352  0.79301  1
 O  O8  1  0.24572  0.39648  0.20699  1
 O  O9  1  0.50000  0.65482  0.06807  1
 O  O10  1  0.00000  0.16515  0.44527  1
 O  O11  1  0.50000  0.15482  0.43193  1
 O  O12  1  0.27048  0.00000  0.00000  1
 O  O13  1  0.72952  0.50000  0.50000  1
 O  O14  1  0.24572  0.89648  0.29301  1
 O  O15  1  0.72952  0.00000  0.00000  1
 O  O16  1  0.00000  0.83485  0.55473  1
 O  O17  1  0.00000  0.66515  0.05473  1
 O  O18  1  0.00000  0.33485  0.94527  1
 O  O19  1  0.50000  0.84518  0.56807  1
 O  O20  1  0.27048  0.50000  0.50000  1
