CIF file written using JARVIS-Tools package.
data_LiDyP4O12
_symmetry_space_group_name_H-M  'C2/c'
_cell_length_a       7.02126
_cell_length_b       8.84674
_cell_length_c       8.86061
_cell_angle_alpha    65.0425
_cell_angle_beta     66.6588
_cell_angle_gamma    66.62

_symmetry_Int_Tables_number  15
_chemical_formula_structural  LiDyP4O12
_chemical_formula_sum  Li2Dy2P8O24
_cell_volume  440.3688576234387
_cell_formula_units_Z  2
loop_
  _symmetry_equiv_pos_site_id
 _symmetry_equiv_pos_as_xyz
 1  'x, y, z'
loop_
 _atom_site_type_symbol
 _atom_site_label
 _atom_site_symmetry_multiplicity
 _atom_site_fract_x
 _atom_site_fract_y
 _atom_site_fract_z
 _atom_site_fract_occupancy
 Dy  Dy1  1  0.70309  0.75000  0.25000  1
 Dy  Dy2  1  0.29691  0.25000  0.75000  1
 Li  Li1  1  0.20594  0.75000  0.25000  1
 Li  Li2  1  0.79406  0.25000  0.75000  1
 O  O1  1  0.25361  0.52666  0.73461  1
 O  O2  1  0.06199  0.07453  0.79876  1
 O  O3  1  0.06471  0.57453  0.29876  1
 O  O4  1  0.93801  0.92547  0.20124  1
 O  O5  1  0.66622  0.68329  0.54466  1
 O  O6  1  0.89417  0.81671  0.95534  1
 O  O7  1  0.10583  0.18329  0.04466  1
 O  O8  1  0.83208  0.14296  0.34619  1
 O  O9  1  0.51559  0.22210  0.91537  1
 O  O10  1  0.65306  0.27790  0.58463  1
 O  O11  1  0.48441  0.77790  0.08463  1
 O  O12  1  0.34694  0.72210  0.41537  1
 O  O13  1  0.48511  0.02666  0.23461  1
 O  O14  1  0.33378  0.31671  0.45534  1
 O  O15  1  0.32123  0.35704  0.15381  1
 O  O16  1  0.67877  0.64296  0.84619  1
 O  O17  1  0.51489  0.97334  0.76539  1
 O  O18  1  0.71802  0.23711  0.07812  1
 O  O19  1  0.03324  0.26289  0.42188  1
 O  O20  1  0.28198  0.76289  0.92188  1
 O  O21  1  0.96676  0.73711  0.57812  1
 O  O22  1  0.74639  0.47334  0.26539  1
 O  O23  1  0.16792  0.85704  0.65381  1
 O  O24  1  0.93529  0.42547  0.70124  1
 P  P1  1  0.20392  0.69628  0.59722  1
 P  P2  1  0.49743  0.80372  0.90278  1
 P  P3  1  0.79608  0.30372  0.40278  1
 P  P4  1  0.50257  0.19628  0.09722  1
 P  P5  1  0.80997  0.61452  0.66006  1
 P  P6  1  0.08456  0.88548  0.83994  1
 P  P7  1  0.19003  0.38548  0.33994  1
 P  P8  1  0.91544  0.11452  0.16006  1
