CIF file written using JARVIS-Tools package.
data_Ce6B2C3Br3
_symmetry_space_group_name_H-M  'P2/m'
_cell_length_a       3.66576
_cell_length_b       8.56507
_cell_length_c       10.1148
_cell_angle_alpha    114.334
_cell_angle_beta     90
_cell_angle_gamma    90

_symmetry_Int_Tables_number  10
_chemical_formula_structural  Ce6B2C3Br3
_chemical_formula_sum  Ce6B2C3Br3
_cell_volume  289.3649147510276
_cell_formula_units_Z  1
loop_
  _symmetry_equiv_pos_site_id
 _symmetry_equiv_pos_as_xyz
 1  'x, y, z'
loop_
 _atom_site_type_symbol
 _atom_site_label
 _atom_site_symmetry_multiplicity
 _atom_site_fract_x
 _atom_site_fract_y
 _atom_site_fract_z
 _atom_site_fract_occupancy
 B  B1  1  0.00000  0.10235  0.06423  1
 B  B2  1  0.00000  0.89765  0.93577  1
 Br  Br1  1  0.00000  0.35284  0.81482  1
 Br  Br2  1  0.50000  -0.00000  0.50000  1
 Br  Br3  1  0.00000  0.64716  0.18518  1
 C  C1  1  0.00000  0.16438  0.22943  1
 C  C2  1  0.00000  0.83562  0.77057  1
 C  C3  1  0.50000  0.50000  0.50000  1
 Ce  Ce1  1  0.00000  0.28894  0.48415  1
 Ce  Ce2  1  0.50000  0.93906  0.15793  1
 Ce  Ce3  1  0.50000  0.36869  0.21910  1
 Ce  Ce4  1  0.00000  0.71106  0.51585  1
 Ce  Ce5  1  0.50000  0.06094  0.84207  1
 Ce  Ce6  1  0.50000  0.63131  0.78090  1
