CIF file written using JARVIS-Tools package.
data_KMg6Nb
_symmetry_space_group_name_H-M  'P-6m2'
_cell_length_a       6.51363
_cell_length_b       6.51363
_cell_length_c       5.10703
_cell_angle_alpha    90
_cell_angle_beta     90
_cell_angle_gamma    119.99

_symmetry_Int_Tables_number  187
_chemical_formula_structural  KMg6Nb
_chemical_formula_sum  KMg6Nb
_cell_volume  187.66705323897864
_cell_formula_units_Z  1
loop_
  _symmetry_equiv_pos_site_id
 _symmetry_equiv_pos_as_xyz
 1  'x, y, z'
loop_
 _atom_site_type_symbol
 _atom_site_label
 _atom_site_symmetry_multiplicity
 _atom_site_fract_x
 _atom_site_fract_y
 _atom_site_fract_z
 _atom_site_fract_occupancy
 K  K1  1  0.08334  0.41666  0.25000  1
 Mg  Mg1  1  0.10813  0.92908  0.25000  1
 Mg  Mg2  1  0.57092  0.39187  0.25000  1
 Mg  Mg3  1  0.57100  0.92900  0.25000  1
 Mg  Mg4  1  0.43252  0.59131  0.75000  1
 Mg  Mg5  1  0.90869  0.06748  0.75000  1
 Mg  Mg6  1  0.90872  0.59128  0.75000  1
 Nb  Nb1  1  0.41668  0.08332  0.75000  1
