CIF file written using JARVIS-Tools package.
data_Ca4ScBe
_symmetry_space_group_name_H-M  'F-43m'
_cell_length_a       6.53688
_cell_length_b       6.53688
_cell_length_c       6.53688
_cell_angle_alpha    60
_cell_angle_beta     60
_cell_angle_gamma    60

_symmetry_Int_Tables_number  216
_chemical_formula_structural  Ca4ScBe
_chemical_formula_sum  Ca4ScBe
_cell_volume  197.5136367711117
_cell_formula_units_Z  1
loop_
  _symmetry_equiv_pos_site_id
 _symmetry_equiv_pos_as_xyz
 1  'x, y, z'
loop_
 _atom_site_type_symbol
 _atom_site_label
 _atom_site_symmetry_multiplicity
 _atom_site_fract_x
 _atom_site_fract_y
 _atom_site_fract_z
 _atom_site_fract_occupancy
 Be  Be1  1  0.00000  0.00000  0.00000  1
 Ca  Ca1  1  0.12576  0.62475  0.62475  1
 Ca  Ca2  1  0.62475  0.62475  0.62475  1
 Ca  Ca3  1  0.62475  0.12576  0.62475  1
 Ca  Ca4  1  0.62475  0.62475  0.12576  1
 Sc  Sc1  1  0.25000  0.25000  0.25000  1
