CIF file written using JARVIS-Tools package.
data_CuAg5As3O11
_symmetry_space_group_name_H-M  'P-1'
_cell_length_a       5.9635
_cell_length_b       9.00932
_cell_length_c       10.3898
_cell_angle_alpha    97.0917
_cell_angle_beta     91.1273
_cell_angle_gamma    93.1096

_symmetry_Int_Tables_number  2
_chemical_formula_structural  CuAg5As3O11
_chemical_formula_sum  Cu2Ag0As6O22
_cell_volume  552.932412015826
_cell_formula_units_Z  2
loop_
  _symmetry_equiv_pos_site_id
 _symmetry_equiv_pos_as_xyz
 1  'x, y, z'
loop_
 _atom_site_type_symbol
 _atom_site_label
 _atom_site_symmetry_multiplicity
 _atom_site_fract_x
 _atom_site_fract_y
 _atom_site_fract_z
 _atom_site_fract_occupancy
 Ag  Ag1  1  0.79793  0.32199  0.65486  1
 Ag  Ag2  1  0.70071  0.32807  0.30649  1
 Ag  Ag3  1  0.43316  0.97591  0.82858  1
 Ag  Ag4  1  0.75316  0.67143  0.15958  1
 Ag  Ag5  1  0.74338  0.64664  0.86690  1
 Ag  Ag6  1  0.20207  0.67801  0.34514  1
 Ag  Ag7  1  0.29929  0.67193  0.69351  1
 Ag  Ag8  1  0.56684  0.02409  0.17142  1
 Ag  Ag9  1  0.25662  0.35336  0.13310  1
 Ag  Ag10  1  0.24684  0.32857  0.84042  1
 As  As1  1  0.27216  0.32299  0.48110  1
 As  As2  1  0.94822  0.96858  0.69179  1
 As  As3  1  0.73797  0.29465  0.98414  1
 As  As4  1  0.72784  0.67701  0.51890  1
 As  As5  1  0.05178  0.03142  0.30821  1
 As  As6  1  0.26203  0.70535  0.01586  1
 Cu  Cu1  1  0.50000  0.00000  0.50000  1
 Cu  Cu2  1  0.00000  0.00000  0.00000  1
 O  O1  1  0.35980  0.60428  0.13398  1
 O  O2  1  0.79763  0.93837  0.31962  1
 O  O3  1  0.31500  0.43980  0.36603  1
 O  O4  1  0.49252  0.78505  0.52425  1
 O  O5  1  0.95544  0.18579  0.92045  1
 O  O6  1  0.71383  0.06020  0.65165  1
 O  O7  1  0.28617  0.93980  0.34835  1
 O  O8  1  0.03291  0.19308  0.42904  1
 O  O9  1  0.48537  0.82645  0.98313  1
 O  O10  1  0.50748  0.21495  0.47575  1
 O  O11  1  0.68500  0.56020  0.63397  1
 O  O12  1  0.81302  0.59382  0.37390  1
 O  O13  1  0.20237  0.06163  0.68038  1
 O  O14  1  0.96709  0.80692  0.57096  1
 O  O15  1  0.84161  0.40667  0.12156  1
 O  O16  1  0.90809  0.88643  0.83319  1
 O  O17  1  0.18698  0.40618  0.62610  1
 O  O18  1  0.64020  0.39572  0.86602  1
 O  O19  1  0.04456  0.81421  0.07955  1
 O  O20  1  0.51463  0.17355  0.01687  1
 O  O21  1  0.15839  0.59333  0.87844  1
 O  O22  1  0.09191  0.11357  0.16681  1
