CIF file written using JARVIS-Tools package.
data_LiInI4
_symmetry_space_group_name_H-M  'P2_1/c'
_cell_length_a       7.37817
_cell_length_b       8.2945
_cell_length_c       14.9797
_cell_angle_alpha    92.5964
_cell_angle_beta     90
_cell_angle_gamma    90

_symmetry_Int_Tables_number  14
_chemical_formula_structural  LiInI4
_chemical_formula_sum  Li4In4I6
_cell_volume  915.7895718516037
_cell_formula_units_Z  4
loop_
  _symmetry_equiv_pos_site_id
 _symmetry_equiv_pos_as_xyz
 1  'x, y, z'
loop_
 _atom_site_type_symbol
 _atom_site_label
 _atom_site_symmetry_multiplicity
 _atom_site_fract_x
 _atom_site_fract_y
 _atom_site_fract_z
 _atom_site_fract_occupancy
 I  I1  1  0.66849  0.94590  0.31032  1
 I  I2  1  0.33253  0.32013  0.43440  1
 I  I3  1  0.83253  0.67987  0.06560  1
 I  I4  1  0.66747  0.67987  0.56560  1
 I  I5  1  0.81860  0.41019  0.29692  1
 I  I6  1  0.16983  0.82122  0.43928  1
 I  I7  1  0.66983  0.17878  0.06072  1
 I  I8  1  0.16747  0.32013  0.93440  1
 I  I9  1  0.33017  0.82122  0.93928  1
 I  I10  1  0.33151  0.05410  0.68968  1
 I  I11  1  0.83151  0.94590  0.81032  1
 I  I12  1  0.31860  0.58981  0.20308  1
 I  I13  1  0.16849  0.05410  0.18968  1
 I  I14  1  0.18140  0.58981  0.70308  1
 I  I15  1  0.68140  0.41019  0.79692  1
 I  I16  1  0.83017  0.17878  0.56072  1
 In  In1  1  0.32650  0.30756  0.10050  1
 In  In2  1  0.82650  0.69244  0.39950  1
 In  In3  1  0.67350  0.69244  0.89950  1
 In  In4  1  0.17350  0.30756  0.60050  1
 Li  Li1  1  0.48478  0.14031  0.87550  1
 Li  Li2  1  0.98478  0.85969  0.62450  1
 Li  Li3  1  0.51522  0.85969  0.12450  1
 Li  Li4  1  0.01522  0.14031  0.37550  1
