CIF file written using JARVIS-Tools package.
data_Li5TiV3O8
_symmetry_space_group_name_H-M  'Cm'
_cell_length_a       4.07485
_cell_length_b       6.48519
_cell_length_c       6.43467
_cell_angle_alpha    106.441
_cell_angle_beta     89.9992
_cell_angle_gamma    108.308

_symmetry_Int_Tables_number  8
_chemical_formula_structural  Li5TiV3O8
_chemical_formula_sum  Li5TiV3O8
_cell_volume  154.09583842545257
_cell_formula_units_Z  1
loop_
  _symmetry_equiv_pos_site_id
 _symmetry_equiv_pos_as_xyz
 1  'x, y, z'
loop_
 _atom_site_type_symbol
 _atom_site_label
 _atom_site_symmetry_multiplicity
 _atom_site_fract_x
 _atom_site_fract_y
 _atom_site_fract_z
 _atom_site_fract_occupancy
 Li  Li1  1  0.94176  0.89671  0.64172  1
 Li  Li2  1  0.81049  0.63418  0.00899  1
 Li  Li3  1  0.17228  0.35784  0.00483  1
 Li  Li4  1  0.49591  0.00506  0.00377  1
 Li  Li5  1  0.04711  0.10749  0.35969  1
 O  O1  1  0.20923  0.43179  0.33334  1
 O  O2  1  0.33342  0.68004  0.99785  1
 O  O3  1  0.78420  0.58155  0.68285  1
 O  O4  1  0.44057  0.89434  0.66428  1
 O  O5  1  0.88020  0.77361  0.32465  1
 O  O6  1  0.10856  0.23038  0.67928  1
 O  O7  1  0.54530  0.10386  0.33666  1
 O  O8  1  0.65160  0.31647  0.00552  1
 Ti  Ti1  1  0.27786  0.56884  0.67826  1
 V  V1  1  0.61181  0.23688  0.67413  1
 V  V2  1  0.71075  0.43483  0.33880  1
 V  V3  1  0.37912  0.77143  0.32583  1
