CIF file written using JARVIS-Tools package.
data_Na8SnO6
_symmetry_space_group_name_H-M  'R-3'
_cell_length_a       6.30954
_cell_length_b       6.71408
_cell_length_c       6.30954
_cell_angle_alpha    118.026
_cell_angle_beta     60
_cell_angle_gamma    118.026

_symmetry_Int_Tables_number  148
_chemical_formula_structural  Na8SnO6
_chemical_formula_sum  Na8SnO6
_cell_volume  194.44631472827672
_cell_formula_units_Z  1
loop_
  _symmetry_equiv_pos_site_id
 _symmetry_equiv_pos_as_xyz
 1  'x, y, z'
loop_
 _atom_site_type_symbol
 _atom_site_label
 _atom_site_symmetry_multiplicity
 _atom_site_fract_x
 _atom_site_fract_y
 _atom_site_fract_z
 _atom_site_fract_occupancy
 Na  Na1  1  0.34083  0.02250  0.34083  1
 Na  Na2  1  0.09326  0.34668  0.49929  1
 Na  Na3  1  0.24586  0.65332  0.90674  1
 Na  Na4  1  0.50071  0.65332  0.24586  1
 Na  Na5  1  0.49929  0.34668  0.75414  1
 Na  Na6  1  0.75414  0.34668  0.09326  1
 Na  Na7  1  0.90674  0.65332  0.50071  1
 Na  Na8  1  0.65917  0.97750  0.65917  1
 O  O1  1  0.22135  0.78106  0.64682  1
 O  O2  1  0.35318  0.21894  0.08711  1
 O  O3  1  0.08711  0.21894  0.77865  1
 O  O4  1  0.91289  0.78106  0.22135  1
 O  O5  1  0.64682  0.78106  0.91289  1
 O  O6  1  0.77865  0.21894  0.35318  1
 Sn  Sn1  1  0.00000  0.00000  0.00000  1
