CIF file written using JARVIS-Tools package.
data_SbSBr3F6
_symmetry_space_group_name_H-M  'P2_12_12_1'
_cell_length_a       8.03815
_cell_length_b       9.03698
_cell_length_c       12.5466
_cell_angle_alpha    90
_cell_angle_beta     90
_cell_angle_gamma    90

_symmetry_Int_Tables_number  19
_chemical_formula_structural  SbSBr3F6
_chemical_formula_sum  Sb4S4Br2F24
_cell_volume  911.391177618457
_cell_formula_units_Z  4
loop_
  _symmetry_equiv_pos_site_id
 _symmetry_equiv_pos_as_xyz
 1  'x, y, z'
loop_
 _atom_site_type_symbol
 _atom_site_label
 _atom_site_symmetry_multiplicity
 _atom_site_fract_x
 _atom_site_fract_y
 _atom_site_fract_z
 _atom_site_fract_occupancy
 Br  Br1  1  0.85961  0.18696  0.06225  1
 Br  Br2  1  0.86681  0.00356  0.37245  1
 Br  Br3  1  0.36681  0.49644  0.62755  1
 Br  Br4  1  0.13319  0.50356  0.12755  1
 Br  Br5  1  0.79100  0.81536  0.10091  1
 Br  Br6  1  0.64039  0.81304  0.56225  1
 Br  Br7  1  0.70900  0.18464  0.60091  1
 Br  Br8  1  0.63319  0.99644  0.87245  1
 Br  Br9  1  0.20900  0.31536  0.39909  1
 Br  Br10  1  0.35961  0.31304  0.93775  1
 Br  Br11  1  0.29100  0.68464  0.89909  1
 Br  Br12  1  0.14039  0.68696  0.43775  1
 F  F1  1  0.77978  0.65534  0.27709  1
 F  F2  1  0.19777  0.97215  0.05133  1
 F  F3  1  0.88034  0.37482  0.25047  1
 F  F4  1  0.72022  0.34466  0.77709  1
 F  F5  1  0.92175  0.54809  0.67879  1
 F  F6  1  0.30223  0.02785  0.55133  1
 F  F7  1  0.42175  0.95191  0.32121  1
 F  F8  1  0.27978  0.84466  0.72291  1
 F  F9  1  0.09928  0.22637  0.64906  1
 F  F10  1  0.59928  0.27363  0.35094  1
 F  F11  1  0.38034  0.12518  0.74953  1
 F  F12  1  0.07825  0.04809  0.82121  1
 F  F13  1  0.57825  0.45191  0.17879  1
 F  F14  1  0.11966  0.87482  0.24953  1
 F  F15  1  0.49799  0.56228  0.37596  1
 F  F16  1  0.50201  0.06228  0.12404  1
 F  F17  1  0.00201  0.43772  0.87596  1
 F  F18  1  0.80223  0.47215  0.44867  1
 F  F19  1  0.61966  0.62518  0.75047  1
 F  F20  1  0.40072  0.77363  0.14906  1
 F  F21  1  0.90072  0.72637  0.85094  1
 F  F22  1  -0.00201  0.93772  0.62404  1
 F  F23  1  0.22022  0.15534  0.22291  1
 F  F24  1  0.69777  0.52785  0.94867  1
 S  S1  1  0.85537  0.97504  0.97602  1
 S  S2  1  0.14463  0.47504  0.52398  1
 S  S3  1  0.35537  0.52496  0.02398  1
 S  S4  1  0.64463  0.02496  0.47602  1
 Sb  Sb1  1  0.81370  0.53448  0.81464  1
 Sb  Sb2  1  0.18630  0.03448  0.68536  1
 Sb  Sb3  1  0.68630  0.46552  0.31464  1
 Sb  Sb4  1  0.31370  0.96552  0.18536  1
