CIF file written using JARVIS-Tools package.
data_Ca2PN3
_symmetry_space_group_name_H-M  'Cmce'
_cell_length_a       5.19943
_cell_length_b       5.77803
_cell_length_c       11.2637
_cell_angle_alpha    90
_cell_angle_beta     90
_cell_angle_gamma    116.739

_symmetry_Int_Tables_number  64
_chemical_formula_structural  Ca2PN3
_chemical_formula_sum  Ca8P4N2
_cell_volume  302.20391360948673
_cell_formula_units_Z  4
loop_
  _symmetry_equiv_pos_site_id
 _symmetry_equiv_pos_as_xyz
 1  'x, y, z'
loop_
 _atom_site_type_symbol
 _atom_site_label
 _atom_site_symmetry_multiplicity
 _atom_site_fract_x
 _atom_site_fract_y
 _atom_site_fract_z
 _atom_site_fract_occupancy
 Ca  Ca1  1  0.05148  0.10296  0.85772  1
 Ca  Ca2  1  0.44852  0.89704  0.35772  1
 Ca  Ca3  1  0.55148  0.10296  0.64228  1
 Ca  Ca4  1  0.36300  0.72600  0.92592  1
 Ca  Ca5  1  0.86300  0.72600  0.57408  1
 Ca  Ca6  1  0.13700  0.27400  0.42592  1
 Ca  Ca7  1  0.63700  0.27400  0.07408  1
 Ca  Ca8  1  0.94852  0.89704  0.14228  1
 N  N1  1  0.95922  0.41843  0.25000  1
 N  N2  1  0.45922  0.41843  0.25000  1
 N  N3  1  0.04078  0.58157  0.75000  1
 N  N4  1  0.58859  0.17718  0.85920  1
 N  N5  1  0.41141  0.82282  0.14080  1
 N  N6  1  0.91141  0.82282  0.35920  1
 N  N7  1  0.33997  0.67995  0.54935  1
 N  N8  1  0.08859  0.17718  0.64080  1
 N  N9  1  0.16003  0.32005  0.04935  1
 N  N10  1  0.54078  0.58157  0.75000  1
 N  N11  1  0.66003  0.32005  0.45065  1
 N  N12  1  0.83997  0.67995  0.95065  1
 P  P1  1  0.25513  0.51025  0.16500  1
 P  P2  1  0.75513  0.51025  0.33500  1
 P  P3  1  0.74487  0.48975  0.83500  1
 P  P4  1  0.24487  0.48975  0.66500  1
