CIF file written using JARVIS-Tools package.
data_Y2AlNi2
_symmetry_space_group_name_H-M  'Immm'
_cell_length_a       8.32851
_cell_length_b       5.39116
_cell_length_c       5.39116
_cell_angle_alpha    45.3166
_cell_angle_beta     39.4281
_cell_angle_gamma    39.4281

_symmetry_Int_Tables_number  71
_chemical_formula_structural  Y2AlNi2
_chemical_formula_sum  Y2AlNi2
_cell_volume  94.17174183156581
_cell_formula_units_Z  1
loop_
  _symmetry_equiv_pos_site_id
 _symmetry_equiv_pos_as_xyz
 1  'x, y, z'
loop_
 _atom_site_type_symbol
 _atom_site_label
 _atom_site_symmetry_multiplicity
 _atom_site_fract_x
 _atom_site_fract_y
 _atom_site_fract_z
 _atom_site_fract_occupancy
 Al  Al1  1  0.00000  0.00000  0.00000  1
 Ni  Ni1  1  0.73120  0.76880  0.76880  1
 Ni  Ni2  1  0.26880  0.23120  0.23120  1
 Y  Y1  1  0.29695  0.50000  0.50000  1
 Y  Y2  1  0.70305  0.50000  0.50000  1
