CIF file written using JARVIS-Tools package.
data_HfAsRu
_symmetry_space_group_name_H-M  'P-62m'
_cell_length_a       3.90985
_cell_length_b       6.59836
_cell_length_c       6.59853
_cell_angle_alpha    119.999
_cell_angle_beta     90
_cell_angle_gamma    90

_symmetry_Int_Tables_number  189
_chemical_formula_structural  HfAsRu
_chemical_formula_sum  Hf3As3Ru3
_cell_volume  147.4273568317371
_cell_formula_units_Z  3
loop_
  _symmetry_equiv_pos_site_id
 _symmetry_equiv_pos_as_xyz
 1  'x, y, z'
loop_
 _atom_site_type_symbol
 _atom_site_label
 _atom_site_symmetry_multiplicity
 _atom_site_fract_x
 _atom_site_fract_y
 _atom_site_fract_z
 _atom_site_fract_occupancy
 As  As1  1  0.00000  0.33332  0.66667  1
 As  As2  1  0.00000  0.66665  0.33333  1
 As  As3  1  0.50000  -0.00000  -0.00000  1
 Hf  Hf1  1  0.50000  0.58188  0.00000  1
 Hf  Hf2  1  0.50000  0.41811  0.41812  1
 Hf  Hf3  1  0.50000  -0.00001  0.58188  1
 Ru  Ru1  1  0.00000  0.24602  0.00000  1
 Ru  Ru2  1  0.00000  0.75396  0.75397  1
 Ru  Ru3  1  0.00000  0.99998  0.24603  1
