CIF file written using JARVIS-Tools package.
data_H8C3O2
_symmetry_space_group_name_H-M  'P2_1/c'
_cell_length_a       5.97073
_cell_length_b       7.76256
_cell_length_c       8.96825
_cell_angle_alpha    90
_cell_angle_beta     108.712
_cell_angle_gamma    90

_symmetry_Int_Tables_number  14
_chemical_formula_structural  H8C3O2
_chemical_formula_sum  H32C2O8
_cell_volume  393.69119187583334
_cell_formula_units_Z  4
loop_
  _symmetry_equiv_pos_site_id
 _symmetry_equiv_pos_as_xyz
 1  'x, y, z'
loop_
 _atom_site_type_symbol
 _atom_site_label
 _atom_site_symmetry_multiplicity
 _atom_site_fract_x
 _atom_site_fract_y
 _atom_site_fract_z
 _atom_site_fract_occupancy
 C  C1  1  0.74514  0.16817  0.01127  1
 C  C2  1  0.89275  0.69862  0.26741  1
 C  C3  1  0.75486  0.66817  0.48873  1
 C  C4  1  0.68758  0.58309  0.85348  1
 C  C5  1  0.18758  0.91691  0.35348  1
 C  C6  1  0.31242  0.41691  0.14652  1
 C  C7  1  0.39275  0.80138  0.76741  1
 C  C8  1  0.10725  0.30138  0.73259  1
 C  C9  1  0.60725  0.19862  0.23259  1
 C  C10  1  0.24514  0.33183  0.51127  1
 C  C11  1  0.81242  0.08309  0.64652  1
 C  C12  1  0.25486  0.83183  0.98873  1
 H  H1  1  0.41165  0.79246  0.08606  1
 H  H2  1  0.62699  0.51789  0.94233  1
 H  H3  1  0.40456  0.30060  0.48177  1
 H  H4  1  0.87992  0.57230  0.88519  1
 H  H5  1  0.09544  0.80060  0.01823  1
 H  H6  1  0.90456  0.19940  0.98177  1
 H  H7  1  0.91165  0.70754  0.58606  1
 H  H8  1  0.60583  0.52117  0.73854  1
 H  H9  1  0.08835  0.29246  0.41394  1
 H  H10  1  0.61866  0.05751  0.24452  1
 H  H11  1  0.39417  0.47883  0.26146  1
 H  H12  1  0.58835  0.20754  0.91394  1
 H  H13  1  0.12699  0.98211  0.44233  1
 H  H14  1  0.33405  0.73805  0.65131  1
 H  H15  1  0.12008  0.42770  0.11481  1
 H  H16  1  0.26139  0.97174  0.97086  1
 H  H17  1  0.59544  0.69940  0.51823  1
 H  H18  1  0.76139  0.52826  0.47086  1
 H  H19  1  0.62008  0.07230  0.61481  1
 H  H20  1  0.23861  0.47174  0.52914  1
 H  H21  1  0.37992  0.92770  0.38519  1
 H  H22  1  0.88134  0.55751  0.25548  1
 H  H23  1  0.38134  0.94249  0.75548  1
 H  H24  1  0.10583  0.97883  0.23854  1
 H  H25  1  0.16595  0.23805  0.84869  1
 H  H26  1  0.11866  0.44249  0.74452  1
 H  H27  1  0.73861  0.02826  0.02914  1
 H  H28  1  0.66595  0.26195  0.34869  1
 H  H29  1  0.83405  0.76195  0.15131  1
 H  H30  1  0.37301  0.48211  0.05767  1
 H  H31  1  0.89417  0.02117  0.76146  1
 H  H32  1  0.87301  0.01789  0.55767  1
 O  O1  1  0.36565  0.23540  0.15308  1
 O  O2  1  0.76337  0.26025  0.15426  1
 O  O3  1  0.26337  0.23975  0.65426  1
 O  O4  1  0.23663  0.73975  0.84574  1
 O  O5  1  0.13435  0.73540  0.34692  1
 O  O6  1  0.73663  0.76025  0.34574  1
 O  O7  1  0.63435  0.76460  0.84692  1
 O  O8  1  0.86565  0.26460  0.65308  1
