CIF file written using JARVIS-Tools package.
data_LaIn2Pd
_symmetry_space_group_name_H-M  'Cmcm'
_cell_length_a       4.70259
_cell_length_b       5.89612
_cell_length_c       7.5785
_cell_angle_alpha    90
_cell_angle_beta     90
_cell_angle_gamma    113.502

_symmetry_Int_Tables_number  63
_chemical_formula_structural  LaIn2Pd
_chemical_formula_sum  La2In4Pd2
_cell_volume  192.6975913842193
_cell_formula_units_Z  2
loop_
  _symmetry_equiv_pos_site_id
 _symmetry_equiv_pos_as_xyz
 1  'x, y, z'
loop_
 _atom_site_type_symbol
 _atom_site_label
 _atom_site_symmetry_multiplicity
 _atom_site_fract_x
 _atom_site_fract_y
 _atom_site_fract_z
 _atom_site_fract_occupancy
 In  In1  1  0.13802  0.27604  0.55031  1
 In  In2  1  0.86198  0.72396  0.44969  1
 In  In3  1  0.13802  0.27604  0.94969  1
 In  In4  1  0.86198  0.72396  0.05031  1
 La  La1  1  0.57737  0.15474  0.25000  1
 La  La2  1  0.42263  0.84526  0.75000  1
 Pd  Pd1  1  0.70489  0.40978  0.75000  1
 Pd  Pd2  1  0.29511  0.59022  0.25000  1
