CIF file written using JARVIS-Tools package.
data_UCu2P2
_symmetry_space_group_name_H-M  'P-3m1'
_cell_length_a       3.89994
_cell_length_b       3.9
_cell_length_c       6.38396
_cell_angle_alpha    90
_cell_angle_beta     90.0009
_cell_angle_gamma    120.001

_symmetry_Int_Tables_number  164
_chemical_formula_structural  UCu2P2
_chemical_formula_sum  UCu2P2
_cell_volume  84.08939596025073
_cell_formula_units_Z  1
loop_
  _symmetry_equiv_pos_site_id
 _symmetry_equiv_pos_as_xyz
 1  'x, y, z'
loop_
 _atom_site_type_symbol
 _atom_site_label
 _atom_site_symmetry_multiplicity
 _atom_site_fract_x
 _atom_site_fract_y
 _atom_site_fract_z
 _atom_site_fract_occupancy
 Cu  Cu1  1  0.33334  0.66667  0.63187  1
 Cu  Cu2  1  0.66666  0.33333  0.36813  1
 P  P1  1  0.33330  0.66665  0.25439  1
 P  P2  1  0.66670  0.33335  0.74561  1
 U  U1  1  0.00000  0.00000  0.00000  1
