CIF file written using JARVIS-Tools package.
data_Ho4InRh
_symmetry_space_group_name_H-M  'F-43m'
_cell_length_a       9.54269
_cell_length_b       9.5427
_cell_length_c       9.54269
_cell_angle_alpha    60
_cell_angle_beta     60
_cell_angle_gamma    60

_symmetry_Int_Tables_number  216
_chemical_formula_structural  Ho4InRh
_chemical_formula_sum  Ho6In4Rh4
_cell_volume  614.4659002217411
_cell_formula_units_Z  4
loop_
  _symmetry_equiv_pos_site_id
 _symmetry_equiv_pos_as_xyz
 1  'x, y, z'
loop_
 _atom_site_type_symbol
 _atom_site_label
 _atom_site_symmetry_multiplicity
 _atom_site_fract_x
 _atom_site_fract_y
 _atom_site_fract_z
 _atom_site_fract_occupancy
 Ho  Ho1  1  0.06231  0.43769  0.43769  1
 Ho  Ho2  1  0.06231  0.06231  0.43769  1
 Ho  Ho3  1  0.65004  0.65004  0.04989  1
 Ho  Ho4  1  0.81041  0.18959  0.81041  1
 Ho  Ho5  1  0.81041  0.18959  0.18959  1
 Ho  Ho6  1  0.06231  0.43769  0.06231  1
 Ho  Ho7  1  0.81041  0.81041  0.18959  1
 Ho  Ho8  1  0.18959  0.18959  0.81041  1
 Ho  Ho9  1  0.43769  0.06231  0.43769  1
 Ho  Ho10  1  0.43769  0.06231  0.06231  1
 Ho  Ho11  1  0.04989  0.65004  0.65004  1
 Ho  Ho12  1  0.18959  0.81041  0.81041  1
 Ho  Ho13  1  0.43769  0.43769  0.06231  1
 Ho  Ho14  1  0.65004  0.65004  0.65004  1
 Ho  Ho15  1  0.65004  0.04989  0.65004  1
 Ho  Ho16  1  0.18959  0.81041  0.18959  1
 In  In1  1  0.41650  0.75051  0.41650  1
 In  In2  1  0.41650  0.41650  0.75051  1
 In  In3  1  0.75051  0.41650  0.41650  1
 In  In4  1  0.41650  0.41650  0.41650  1
 Rh  Rh1  1  0.85757  0.42728  0.85757  1
 Rh  Rh2  1  0.42728  0.85757  0.85757  1
 Rh  Rh3  1  0.85757  0.85757  0.85757  1
 Rh  Rh4  1  0.85757  0.85757  0.42728  1
