CIF file written using JARVIS-Tools package.
data_Li3TiNi2O6
_symmetry_space_group_name_H-M  'C2/m'
_cell_length_a       15.2273
_cell_length_b       9.6928
_cell_length_c       9.6928
_cell_angle_alpha    17.3072
_cell_angle_beta     16.7646
_cell_angle_gamma    16.7645

_symmetry_Int_Tables_number  12
_chemical_formula_structural  Li3TiNi2O6
_chemical_formula_sum  Li3TiNi2O6
_cell_volume  105.94080071862669
_cell_formula_units_Z  1
loop_
  _symmetry_equiv_pos_site_id
 _symmetry_equiv_pos_as_xyz
 1  'x, y, z'
loop_
 _atom_site_type_symbol
 _atom_site_label
 _atom_site_symmetry_multiplicity
 _atom_site_fract_x
 _atom_site_fract_y
 _atom_site_fract_z
 _atom_site_fract_occupancy
 Li  Li1  1  0.16667  0.50000  0.50000  1
 Li  Li2  1  0.49053  0.50133  0.50133  1
 Li  Li3  1  0.84281  0.49867  0.49867  1
 Ni  Ni1  1  0.99577  0.00374  0.00374  1
 Ni  Ni2  1  0.33756  0.99626  0.99626  1
 O  O1  1  0.25774  0.24995  0.24995  1
 O  O2  1  0.56877  0.26712  0.26712  1
 O  O3  1  0.07559  0.75005  0.75005  1
 O  O4  1  0.88719  0.27516  0.27516  1
 O  O5  1  0.44614  0.72484  0.72484  1
 O  O6  1  0.76457  0.73288  0.73288  1
 Ti  Ti1  1  0.66667  -0.00000  -0.00000  1
