CIF file written using JARVIS-Tools package.
data_Ba2VP2O11
_symmetry_space_group_name_H-M  'P2_1'
_cell_length_a       5.14677
_cell_length_b       8.73993
_cell_length_c       10.4938
_cell_angle_alpha    90
_cell_angle_beta     90.5588
_cell_angle_gamma    90

_symmetry_Int_Tables_number  4
_chemical_formula_structural  Ba2VP2O11
_chemical_formula_sum  Ba4V2P4O22
_cell_volume  472.01585122289293
_cell_formula_units_Z  2
loop_
  _symmetry_equiv_pos_site_id
 _symmetry_equiv_pos_as_xyz
 1  'x, y, z'
loop_
 _atom_site_type_symbol
 _atom_site_label
 _atom_site_symmetry_multiplicity
 _atom_site_fract_x
 _atom_site_fract_y
 _atom_site_fract_z
 _atom_site_fract_occupancy
 Ba  Ba1  1  0.97257  0.98285  0.94742  1
 Ba  Ba2  1  0.02743  0.48285  0.05258  1
 Ba  Ba3  1  -0.00567  0.34373  0.61375  1
 Ba  Ba4  1  0.00567  0.84373  0.38625  1
 O  O1  1  0.35693  0.44815  0.84916  1
 O  O2  1  0.54324  0.71886  0.28413  1
 O  O3  1  0.33730  0.05678  0.52363  1
 O  O4  1  0.37680  0.31413  0.42362  1
 O  O5  1  0.62320  0.81413  0.57638  1
 O  O6  1  0.45676  0.21886  0.71587  1
 O  O7  1  0.34017  0.20448  0.95383  1
 O  O8  1  0.12605  0.54289  0.30462  1
 O  O9  1  0.87395  0.04289  0.69538  1
 O  O10  1  0.54632  0.42977  0.19186  1
 O  O11  1  0.45368  0.92977  0.80814  1
 O  O12  1  0.93055  0.68312  0.83732  1
 O  O13  1  0.65983  0.70448  0.04617  1
 O  O14  1  0.21104  0.79451  0.11843  1
 O  O15  1  0.66270  0.55678  0.47637  1
 O  O16  1  0.65439  0.56803  0.71068  1
 O  O17  1  0.34561  0.06803  0.28932  1
 O  O18  1  0.23707  0.63178  0.57993  1
 O  O19  1  0.76293  0.13178  0.42007  1
 O  O20  1  0.64307  0.94815  0.15084  1
 O  O21  1  0.78896  0.29451  0.88157  1
 O  O22  1  0.06945  0.18312  0.16268  1
 P  P1  1  0.50185  0.79015  0.14686  1
 P  P2  1  0.49815  0.29015  0.85314  1
 P  P3  1  0.46956  0.14515  0.40940  1
 P  P4  1  0.53044  0.64515  0.59060  1
 V  V1  1  0.44004  0.50280  0.32696  1
 V  V2  1  0.55996  0.00280  0.67304  1
