CIF file written using JARVIS-Tools package.
data_LiVGeO5
_symmetry_space_group_name_H-M  'Cmme'
_cell_length_a       6.49833
_cell_length_b       6.49833
_cell_length_c       4.55082
_cell_angle_alpha    90
_cell_angle_beta     90
_cell_angle_gamma    88.7

_symmetry_Int_Tables_number  67
_chemical_formula_structural  LiVGeO5
_chemical_formula_sum  Li2V2Ge2O0
_cell_volume  192.12401849419288
_cell_formula_units_Z  2
loop_
  _symmetry_equiv_pos_site_id
 _symmetry_equiv_pos_as_xyz
 1  'x, y, z'
loop_
 _atom_site_type_symbol
 _atom_site_label
 _atom_site_symmetry_multiplicity
 _atom_site_fract_x
 _atom_site_fract_y
 _atom_site_fract_z
 _atom_site_fract_occupancy
 Ge  Ge1  1  0.25000  0.75000  0.50000  1
 Ge  Ge2  1  0.75000  0.25000  0.50000  1
 Li  Li1  1  -0.00000  0.50000  0.00000  1
 Li  Li2  1  0.50000  0.00000  0.00000  1
 O  O1  1  0.03038  0.74244  0.26888  1
 O  O2  1  0.25000  0.25000  0.26048  1
 O  O3  1  0.24244  0.53038  0.73112  1
 O  O4  1  0.25756  0.96962  0.73112  1
 O  O5  1  0.46962  0.75756  0.26888  1
 O  O6  1  0.53038  0.24244  0.73112  1
 O  O7  1  0.74244  0.03038  0.26888  1
 O  O8  1  0.75756  0.46962  0.26888  1
 O  O9  1  0.75000  0.75000  0.73952  1
 O  O10  1  0.96962  0.25756  0.73112  1
 V  V1  1  0.25000  0.25000  0.61803  1
 V  V2  1  0.75000  0.75000  0.38197  1
