CIF file written using JARVIS-Tools package.
data_Mn5Si2
_symmetry_space_group_name_H-M  'P4_12_12'
_cell_length_a       8.47424
_cell_length_b       8.68654
_cell_length_c       8.68654
_cell_angle_alpha    90
_cell_angle_beta     90
_cell_angle_gamma    90

_symmetry_Int_Tables_number  92
_chemical_formula_structural  Mn5Si2
_chemical_formula_sum  Mn40Si6
_cell_volume  639.431720293034
_cell_formula_units_Z  8
loop_
  _symmetry_equiv_pos_site_id
 _symmetry_equiv_pos_as_xyz
 1  'x, y, z'
loop_
 _atom_site_type_symbol
 _atom_site_label
 _atom_site_symmetry_multiplicity
 _atom_site_fract_x
 _atom_site_fract_y
 _atom_site_fract_z
 _atom_site_fract_occupancy
 Mn  Mn1  1  0.00000  0.86669  0.86669  1
 Mn  Mn2  1  0.00000  0.54528  0.54528  1
 Mn  Mn3  1  0.17945  0.10078  0.50586  1
 Mn  Mn4  1  0.78485  0.45739  0.36815  1
 Mn  Mn5  1  0.25000  0.95472  0.04528  1
 Mn  Mn6  1  0.17077  0.81580  0.57792  1
 Mn  Mn7  1  0.15126  0.17520  0.22093  1
 Mn  Mn8  1  0.07923  0.68420  0.07792  1
 Mn  Mn9  1  0.71515  0.63185  0.54261  1
 Mn  Mn10  1  0.90126  0.72093  0.32480  1
 Mn  Mn11  1  0.57923  0.31580  0.92208  1
 Mn  Mn12  1  0.21515  0.36815  0.45739  1
 Mn  Mn13  1  0.07055  0.39922  0.00586  1
 Mn  Mn14  1  0.32055  0.49414  0.89922  1
 Mn  Mn15  1  0.82923  0.57792  0.81580  1
 Mn  Mn16  1  0.92077  0.07792  0.68420  1
 Mn  Mn17  1  0.50000  0.13331  0.13331  1
 Mn  Mn18  1  0.50000  0.45472  0.45472  1
 Mn  Mn19  1  0.59874  0.67520  0.27907  1
 Mn  Mn20  1  0.75000  0.04528  0.95472  1
 Mn  Mn21  1  0.03485  0.13185  0.95739  1
 Mn  Mn22  1  0.67077  0.18420  0.42208  1
 Mn  Mn23  1  0.84874  0.22093  0.17520  1
 Mn  Mn24  1  0.65126  0.82480  0.77907  1
 Mn  Mn25  1  0.28485  0.54261  0.63185  1
 Mn  Mn26  1  0.32923  0.42208  0.18420  1
 Mn  Mn27  1  0.92945  0.00586  0.39922  1
 Mn  Mn28  1  0.25000  0.63331  0.36669  1
 Mn  Mn29  1  0.67945  0.89922  0.49414  1
 Mn  Mn30  1  0.82055  0.50586  0.10078  1
 Mn  Mn31  1  0.57055  0.60078  0.99414  1
 Mn  Mn32  1  0.53485  0.86815  0.04261  1
 Mn  Mn33  1  0.40126  0.27907  0.67520  1
 Mn  Mn34  1  0.09874  0.32480  0.72093  1
 Mn  Mn35  1  0.42945  0.99414  0.60078  1
 Mn  Mn36  1  0.46515  0.04261  0.86815  1
 Mn  Mn37  1  0.75000  0.36669  0.63331  1
 Mn  Mn38  1  0.34874  0.77907  0.82480  1
 Mn  Mn39  1  0.96515  0.95739  0.13185  1
 Mn  Mn40  1  0.42077  0.92208  0.31580  1
 Si  Si1  1  0.59823  0.37989  0.19595  1
 Si  Si2  1  0.34823  0.69595  0.12011  1
 Si  Si3  1  0.90177  0.80405  0.62011  1
 Si  Si4  1  0.15177  0.87989  0.30405  1
 Si  Si5  1  0.04837  0.46569  0.26389  1
 Si  Si6  1  0.20163  0.03431  0.76389  1
 Si  Si7  1  0.84823  0.30405  0.87989  1
 Si  Si8  1  0.70163  0.96569  0.23611  1
 Si  Si9  1  0.54837  0.53431  0.73611  1
 Si  Si10  1  0.79837  0.76389  0.03431  1
 Si  Si11  1  0.45163  0.73611  0.53431  1
 Si  Si12  1  0.40177  0.19595  0.37989  1
 Si  Si13  1  0.29837  0.23611  0.96569  1
 Si  Si14  1  0.65177  0.12011  0.69595  1
 Si  Si15  1  0.09823  0.62011  0.80405  1
 Si  Si16  1  0.95163  0.26389  0.46569  1
