CIF file written using JARVIS-Tools package.
data_BaSn2H2O4
_symmetry_space_group_name_H-M  'P2_1'
_cell_length_a       7.62042
_cell_length_b       5.82345
_cell_length_c       7.26979
_cell_angle_alpha    90
_cell_angle_beta     107.99
_cell_angle_gamma    90

_symmetry_Int_Tables_number  4
_chemical_formula_structural  BaSn2H2O4
_chemical_formula_sum  Ba2Sn4H4O8
_cell_volume  306.840176011937
_cell_formula_units_Z  2
loop_
  _symmetry_equiv_pos_site_id
 _symmetry_equiv_pos_as_xyz
 1  'x, y, z'
loop_
 _atom_site_type_symbol
 _atom_site_label
 _atom_site_symmetry_multiplicity
 _atom_site_fract_x
 _atom_site_fract_y
 _atom_site_fract_z
 _atom_site_fract_occupancy
 Ba  Ba1  1  0.56588  0.50415  0.81188  1
 Ba  Ba2  1  0.43412  0.00415  0.18812  1
 H  H1  1  0.48815  0.00464  0.63458  1
 H  H2  1  0.21465  0.50430  0.29685  1
 H  H3  1  0.78535  0.00430  0.70315  1
 H  H4  1  0.51185  0.50464  0.36542  1
 O  O1  1  0.36703  0.00505  0.52980  1
 O  O2  1  0.28849  0.50458  0.20750  1
 O  O3  1  0.27656  0.25328  0.85382  1
 O  O4  1  0.72344  0.75328  0.14618  1
 O  O5  1  0.72337  0.25522  0.14650  1
 O  O6  1  0.27663  0.75522  0.85350  1
 O  O7  1  0.63297  0.50505  0.47020  1
 O  O8  1  0.71151  0.00458  0.79250  1
 Sn  Sn1  1  0.10712  0.50438  0.91196  1
 Sn  Sn2  1  0.14774  0.00440  0.64638  1
 Sn  Sn3  1  0.85226  0.50440  0.35362  1
 Sn  Sn4  1  0.89288  0.00438  0.08804  1
