CIF file written using JARVIS-Tools package.
data_IrCl3
_symmetry_space_group_name_H-M  'C2/m'
_cell_length_a       6.09619
_cell_length_b       6.0962
_cell_length_c       5.95117
_cell_angle_alpha    99.3701
_cell_angle_beta     99.3701
_cell_angle_gamma    120.031

_symmetry_Int_Tables_number  12
_chemical_formula_structural  IrCl3
_chemical_formula_sum  Ir2Cl6
_cell_volume  181.02991643568998
_cell_formula_units_Z  2
loop_
  _symmetry_equiv_pos_site_id
 _symmetry_equiv_pos_as_xyz
 1  'x, y, z'
loop_
 _atom_site_type_symbol
 _atom_site_label
 _atom_site_symmetry_multiplicity
 _atom_site_fract_x
 _atom_site_fract_y
 _atom_site_fract_z
 _atom_site_fract_occupancy
 Cl  Cl1  1  0.92261  0.57322  0.23112  1
 Cl  Cl2  1  0.42678  0.07739  0.76888  1
 Cl  Cl3  1  0.77625  0.77625  0.76708  1
 Cl  Cl4  1  0.22375  0.22375  0.23292  1
 Cl  Cl5  1  0.57322  0.92261  0.23112  1
 Cl  Cl6  1  0.07739  0.42678  0.76888  1
 Ir  Ir1  1  0.16657  0.83343  0.00000  1
 Ir  Ir2  1  0.83343  0.16657  -0.00000  1
