CIF file written using JARVIS-Tools package.
data_PrMo6O12
_symmetry_space_group_name_H-M  'I4/m'
_cell_length_a       8.27416
_cell_length_b       8.27416
_cell_length_c       8.27415
_cell_angle_alpha    105.719
_cell_angle_beta     105.719
_cell_angle_gamma    117.268

_symmetry_Int_Tables_number  87
_chemical_formula_structural  PrMo6O12
_chemical_formula_sum  Pr2Mo2O24
_cell_volume  429.92881195441123
_cell_formula_units_Z  2
loop_
  _symmetry_equiv_pos_site_id
 _symmetry_equiv_pos_as_xyz
 1  'x, y, z'
loop_
 _atom_site_type_symbol
 _atom_site_label
 _atom_site_symmetry_multiplicity
 _atom_site_fract_x
 _atom_site_fract_y
 _atom_site_fract_z
 _atom_site_fract_occupancy
 Mo  Mo1  1  0.99969  0.47647  0.15264  1
 Mo  Mo2  1  0.00031  0.52353  0.84736  1
 Mo  Mo3  1  0.84705  0.99969  0.52322  1
 Mo  Mo4  1  0.32383  0.84705  0.84736  1
 Mo  Mo5  1  0.47647  0.32383  0.47678  1
 Mo  Mo6  1  0.66444  0.18447  0.84891  1
 Mo  Mo7  1  0.15295  0.00031  0.47678  1
 Mo  Mo8  1  0.52353  0.67617  0.52322  1
 Mo  Mo9  1  0.18447  0.33556  0.52003  1
 Mo  Mo10  1  0.33556  0.81553  0.15109  1
 Mo  Mo11  1  0.81553  0.66444  0.47997  1
 Mo  Mo12  1  0.67617  0.15295  0.15264  1
 O  O1  1  0.87486  0.16336  0.37231  1
 O  O2  1  0.16336  0.79105  0.28850  1
 O  O3  1  0.53826  0.83553  0.04359  1
 O  O4  1  0.79105  0.50255  0.62769  1
 O  O5  1  0.87651  0.15987  0.03638  1
 O  O6  1  0.16357  0.53899  0.70256  1
 O  O7  1  0.20895  0.49745  0.37231  1
 O  O8  1  0.12514  0.83664  0.62769  1
 O  O9  1  0.83553  0.79194  0.29727  1
 O  O10  1  0.49745  0.12514  0.28850  1
 O  O11  1  0.83664  0.20895  0.71150  1
 O  O12  1  0.50255  0.87486  0.71150  1
 O  O13  1  0.84013  0.87651  0.71664  1
 O  O14  1  0.46101  0.16357  0.62457  1
 O  O15  1  0.46174  0.16447  0.95641  1
 O  O16  1  0.12349  0.84013  0.96362  1
 O  O17  1  0.15987  0.12349  0.28336  1
 O  O18  1  0.53899  0.83643  0.37543  1
 O  O19  1  0.49467  0.53826  0.70273  1
 O  O20  1  0.83643  0.46101  0.29744  1
 O  O21  1  0.20806  0.50533  0.04359  1
 O  O22  1  0.50533  0.46174  0.29727  1
 O  O23  1  0.16447  0.20806  0.70273  1
 O  O24  1  0.79194  0.49467  0.95641  1
 Pr  Pr1  1  0.20625  0.20625  0.00000  1
 Pr  Pr2  1  0.79375  0.79375  -0.00000  1
