CIF file written using JARVIS-Tools package.
data_SrWO4
_symmetry_space_group_name_H-M  'I4_1/a'
_cell_length_a       5.45653
_cell_length_b       5.45606
_cell_length_c       7.1319
_cell_angle_alpha    112.489
_cell_angle_beta     112.492
_cell_angle_gamma    90.0007

_symmetry_Int_Tables_number  88
_chemical_formula_structural  SrWO4
_chemical_formula_sum  Sr2W2O8
_cell_volume  178.57285650035445
_cell_formula_units_Z  2
loop_
  _symmetry_equiv_pos_site_id
 _symmetry_equiv_pos_as_xyz
 1  'x, y, z'
loop_
 _atom_site_type_symbol
 _atom_site_label
 _atom_site_symmetry_multiplicity
 _atom_site_fract_x
 _atom_site_fract_y
 _atom_site_fract_z
 _atom_site_fract_occupancy
 O  O1  1  0.19480  0.56542  0.91627  1
 O  O2  1  0.35084  0.69481  0.41626  1
 O  O3  1  0.06542  0.22150  0.41629  1
 O  O4  1  0.72148  0.85086  0.91627  1
 O  O5  1  0.27852  0.14914  0.08373  1
 O  O6  1  0.93458  0.77850  0.58371  1
 O  O7  1  0.64916  0.30519  0.58374  1
 O  O8  1  0.80520  0.43458  0.08373  1
 Sr  Sr1  1  0.62500  0.87501  0.25000  1
 Sr  Sr2  1  0.37500  0.12499  0.75000  1
 W  W1  1  0.12499  0.37500  0.24999  1
 W  W2  1  0.87501  0.62500  0.75001  1
