CIF file written using JARVIS-Tools package.
data_HoB7Mo3
_symmetry_space_group_name_H-M  'Pnma'
_cell_length_a       3.09877
_cell_length_b       11.0252
_cell_length_c       12.9067
_cell_angle_alpha    90
_cell_angle_beta     90
_cell_angle_gamma    90

_symmetry_Int_Tables_number  62
_chemical_formula_structural  HoB7Mo3
_chemical_formula_sum  Ho4B28Mo2
_cell_volume  440.9488622634117
_cell_formula_units_Z  4
loop_
  _symmetry_equiv_pos_site_id
 _symmetry_equiv_pos_as_xyz
 1  'x, y, z'
loop_
 _atom_site_type_symbol
 _atom_site_label
 _atom_site_symmetry_multiplicity
 _atom_site_fract_x
 _atom_site_fract_y
 _atom_site_fract_z
 _atom_site_fract_occupancy
 B  B1  1  0.25000  0.46261  0.01834  1
 B  B2  1  0.75000  0.16477  0.83238  1
 B  B3  1  0.75000  0.23115  0.08173  1
 B  B4  1  0.25000  0.33523  0.33238  1
 B  B5  1  0.25000  0.83523  0.16762  1
 B  B6  1  0.25000  0.76885  0.91827  1
 B  B7  1  0.25000  0.26885  0.58173  1
 B  B8  1  0.75000  0.73115  0.41827  1
 B  B9  1  0.25000  0.74887  0.67358  1
 B  B10  1  0.75000  0.25113  0.32642  1
 B  B11  1  0.25000  0.24887  0.82642  1
 B  B12  1  0.75000  0.75113  0.17358  1
 B  B13  1  0.25000  0.96261  0.48166  1
 B  B14  1  0.75000  0.68524  0.93281  1
 B  B15  1  0.75000  0.03739  0.51834  1
 B  B16  1  0.75000  0.53739  0.98166  1
 B  B17  1  0.25000  0.93206  0.88392  1
 B  B18  1  0.75000  0.06794  0.11608  1
 B  B19  1  0.25000  0.43206  0.61608  1
 B  B20  1  0.75000  0.56794  0.38392  1
 B  B21  1  0.25000  0.81476  0.43281  1
 B  B22  1  0.75000  0.18524  0.56719  1
 B  B23  1  0.25000  0.31476  0.06719  1
 B  B24  1  0.25000  0.98998  0.13832  1
 B  B25  1  0.75000  0.66477  0.66762  1
 B  B26  1  0.75000  0.01002  0.86168  1
 B  B27  1  0.75000  0.51002  0.63832  1
 B  B28  1  0.25000  0.48998  0.36168  1
 Ho  Ho1  1  0.75000  0.94963  0.30829  1
 Ho  Ho2  1  0.25000  0.55037  0.80829  1
 Ho  Ho3  1  0.75000  0.44963  0.19171  1
 Ho  Ho4  1  0.25000  0.05037  0.69171  1
 Mo  Mo1  1  0.25000  0.61754  0.52696  1
 Mo  Mo2  1  0.75000  0.38246  0.47304  1
 Mo  Mo3  1  0.25000  0.11754  0.97304  1
 Mo  Mo4  1  0.25000  0.66002  0.06483  1
 Mo  Mo5  1  0.75000  0.33998  0.93517  1
 Mo  Mo6  1  0.25000  0.16002  0.43517  1
 Mo  Mo7  1  0.75000  0.83998  0.56483  1
 Mo  Mo8  1  0.25000  0.68514  0.29753  1
 Mo  Mo9  1  0.75000  0.31486  0.70247  1
 Mo  Mo10  1  0.25000  0.18514  0.20247  1
 Mo  Mo11  1  0.75000  0.81486  0.79753  1
 Mo  Mo12  1  0.75000  0.88246  0.02696  1
