CIF file written using JARVIS-Tools package.
data_MgTiBi2O6
_symmetry_space_group_name_H-M  'R3'
_cell_length_a       5.66486
_cell_length_b       5.66486
_cell_length_c       5.66487
_cell_angle_alpha    59.355
_cell_angle_beta     59.3549
_cell_angle_gamma    59.355

_symmetry_Int_Tables_number  146
_chemical_formula_structural  MgTiBi2O6
_chemical_formula_sum  MgTiBi2O6
_cell_volume  126.65728782428543
_cell_formula_units_Z  1
loop_
  _symmetry_equiv_pos_site_id
 _symmetry_equiv_pos_as_xyz
 1  'x, y, z'
loop_
 _atom_site_type_symbol
 _atom_site_label
 _atom_site_symmetry_multiplicity
 _atom_site_fract_x
 _atom_site_fract_y
 _atom_site_fract_z
 _atom_site_fract_occupancy
 Bi  Bi1  1  0.50721  0.50721  0.50721  1
 Bi  Bi2  1  0.01334  0.01334  0.01334  1
 Mg  Mg1  1  0.78658  0.78658  0.78658  1
 O  O1  1  0.11986  0.98521  0.55783  1
 O  O2  1  0.55783  0.11986  0.98521  1
 O  O3  1  0.98521  0.55783  0.11986  1
 O  O4  1  0.07986  0.45725  0.62068  1
 O  O5  1  0.62068  0.07986  0.45725  1
 O  O6  1  0.45725  0.62068  0.07986  1
 Ti  Ti1  1  0.28539  0.28539  0.28539  1
