CIF file written using JARVIS-Tools package.
data_Ca2MgSi2O7
_symmetry_space_group_name_H-M  'P2_1/c'
_cell_length_a       7.73451
_cell_length_b       9.10412
_cell_length_c       9.33604
_cell_angle_alpha    115.412
_cell_angle_beta     90
_cell_angle_gamma    90

_symmetry_Int_Tables_number  14
_chemical_formula_structural  Ca2MgSi2O7
_chemical_formula_sum  Ca8Mg4Si8O28
_cell_volume  593.7996525581215
_cell_formula_units_Z  4
loop_
  _symmetry_equiv_pos_site_id
 _symmetry_equiv_pos_as_xyz
 1  'x, y, z'
loop_
 _atom_site_type_symbol
 _atom_site_label
 _atom_site_symmetry_multiplicity
 _atom_site_fract_x
 _atom_site_fract_y
 _atom_site_fract_z
 _atom_site_fract_occupancy
 Ca  Ca1  1  0.44140  0.71558  0.80004  1
 Ca  Ca2  1  0.28325  0.45443  0.02556  1
 Ca  Ca3  1  0.21675  0.95443  0.52556  1
 Ca  Ca4  1  0.94140  0.78442  0.69996  1
 Ca  Ca5  1  0.55860  0.28442  0.19996  1
 Ca  Ca6  1  0.05860  0.21558  0.30004  1
 Ca  Ca7  1  0.78325  0.04557  0.47444  1
 Ca  Ca8  1  0.71675  0.54557  0.97444  1
 Mg  Mg1  1  0.60296  0.67527  0.38920  1
 Mg  Mg2  1  0.89704  0.17527  0.88920  1
 Mg  Mg3  1  0.39704  0.32473  0.61080  1
 Mg  Mg4  1  0.10296  0.82473  0.11080  1
 O  O1  1  0.77188  0.79656  0.92380  1
 O  O2  1  0.23247  0.45743  0.77542  1
 O  O3  1  0.56811  0.00298  0.15798  1
 O  O4  1  0.44680  0.69868  0.05573  1
 O  O5  1  0.40290  0.53564  0.28327  1
 O  O6  1  0.68196  0.63662  0.56756  1
 O  O7  1  0.55320  0.30132  0.94427  1
 O  O8  1  0.93189  0.50298  0.65798  1
 O  O9  1  0.93944  0.36720  0.85996  1
 O  O10  1  0.94680  0.80132  0.44427  1
 O  O11  1  0.43189  -0.00298  0.84202  1
 O  O12  1  0.27188  0.70344  0.57620  1
 O  O13  1  0.81804  0.13662  0.06756  1
 O  O14  1  0.43944  0.13280  0.64004  1
 O  O15  1  0.26753  0.95743  0.27542  1
 O  O16  1  0.90290  0.96436  0.21673  1
 O  O17  1  0.18196  0.86338  0.93244  1
 O  O18  1  0.22812  0.20344  0.07620  1
 O  O19  1  0.76753  0.54257  0.22458  1
 O  O20  1  0.56056  0.86720  0.35996  1
 O  O21  1  0.06056  0.63280  0.14004  1
 O  O22  1  0.72812  0.29656  0.42380  1
 O  O23  1  0.05320  0.19868  0.55573  1
 O  O24  1  0.59710  0.46436  0.71673  1
 O  O25  1  0.73247  0.04257  0.72458  1
 O  O26  1  0.06811  0.49702  0.34202  1
 O  O27  1  0.31804  0.36338  0.43244  1
 O  O28  1  0.09710  0.03564  0.78327  1
 Si  Si1  1  0.73036  0.46826  0.58138  1
 Si  Si2  1  0.04327  0.37546  0.71198  1
 Si  Si3  1  0.26964  0.53174  0.41862  1
 Si  Si4  1  0.23036  0.03174  0.91862  1
 Si  Si5  1  0.95673  0.62454  0.28802  1
 Si  Si6  1  0.76964  0.96826  0.08138  1
 Si  Si7  1  0.45673  0.87546  0.21198  1
 Si  Si8  1  0.54327  0.12454  0.78802  1
