CIF file written using JARVIS-Tools package.
data_Mn3O4F2
_symmetry_space_group_name_H-M  'C2/m'
_cell_length_a       7.40948
_cell_length_b       5.4059
_cell_length_c       5.4059
_cell_angle_alpha    69.8542
_cell_angle_beta     69.7767
_cell_angle_gamma    69.7767

_symmetry_Int_Tables_number  12
_chemical_formula_structural  Mn3O4F2
_chemical_formula_sum  Mn6O8F4
_cell_volume  184.3335318463894
_cell_formula_units_Z  2
loop_
  _symmetry_equiv_pos_site_id
 _symmetry_equiv_pos_as_xyz
 1  'x, y, z'
loop_
 _atom_site_type_symbol
 _atom_site_label
 _atom_site_symmetry_multiplicity
 _atom_site_fract_x
 _atom_site_fract_y
 _atom_site_fract_z
 _atom_site_fract_occupancy
 F  F1  1  0.01895  0.79668  0.79668  1
 F  F2  1  0.31438  0.86999  0.86999  1
 F  F3  1  0.69277  0.10922  0.10922  1
 F  F4  1  0.64056  0.55744  0.55744  1
 Mn  Mn1  1  0.01524  0.02479  0.02479  1
 Mn  Mn2  1  0.83883  0.67109  0.67109  1
 Mn  Mn3  1  0.16667  0.33333  0.33333  1
 Mn  Mn4  1  0.31810  0.64188  0.64188  1
 Mn  Mn5  1  0.66667  0.33333  0.33333  1
 Mn  Mn6  1  0.49451  0.99558  0.99558  1
 O  O1  1  0.01405  0.70271  0.31304  1
 O  O2  1  0.01405  0.31304  0.70271  1
 O  O3  1  0.31928  0.96396  0.35363  1
 O  O4  1  0.95329  0.24977  0.24977  1
 O  O5  1  0.31928  0.35363  0.96396  1
 O  O6  1  0.66667  0.03251  0.63416  1
 O  O7  1  0.38004  0.41689  0.41689  1
 O  O8  1  0.66667  0.63416  0.03251  1
