CIF file written using JARVIS-Tools package.
data_KAgCO3
_symmetry_space_group_name_H-M  'Ibca'
_cell_length_a       5.66767
_cell_length_b       5.87111
_cell_length_c       11.11
_cell_angle_alpha    105.319
_cell_angle_beta     104.781
_cell_angle_gamma    89.9996

_symmetry_Int_Tables_number  73
_chemical_formula_structural  KAgCO3
_chemical_formula_sum  K4Ag4C4O2
_cell_volume  343.85438213756504
_cell_formula_units_Z  4
loop_
  _symmetry_equiv_pos_site_id
 _symmetry_equiv_pos_as_xyz
 1  'x, y, z'
loop_
 _atom_site_type_symbol
 _atom_site_label
 _atom_site_symmetry_multiplicity
 _atom_site_fract_x
 _atom_site_fract_y
 _atom_site_fract_z
 _atom_site_fract_occupancy
 Ag  Ag1  1  0.24999  0.86576  -0.00000  1
 Ag  Ag2  1  0.75000  0.63423  -0.00000  1
 Ag  Ag3  1  0.75001  0.13424  0.00000  1
 Ag  Ag4  1  0.25000  0.36577  0.00000  1
 C  C1  1  0.62774  0.87769  0.25536  1
 C  C2  1  0.87226  0.62231  0.74464  1
 C  C3  1  0.37226  0.12231  0.74464  1
 C  C4  1  0.12774  0.37769  0.25536  1
 K  K1  1  0.18159  0.93154  0.36306  1
 K  K2  1  0.81841  0.06846  0.63694  1
 K  K3  1  0.31840  0.56845  0.63694  1
 K  K4  1  0.68160  0.43155  0.36306  1
 O  O1  1  0.25585  0.28800  0.80471  1
 O  O2  1  0.54875  0.01669  0.80472  1
 O  O3  1  0.80997  0.56006  0.62010  1
 O  O4  1  0.69002  0.93996  0.37990  1
 O  O5  1  0.19003  0.43994  0.37990  1
 O  O6  1  0.30998  0.06004  0.62010  1
 O  O7  1  0.04875  0.78800  0.80471  1
 O  O8  1  0.74415  0.71200  0.19529  1
 O  O9  1  0.45125  0.98331  0.19528  1
 O  O10  1  0.75585  0.51669  0.80471  1
 O  O11  1  0.95125  0.21200  0.19529  1
 O  O12  1  0.24415  0.48331  0.19529  1
