CIF file written using JARVIS-Tools package.
data_LiV2O5
_symmetry_space_group_name_H-M  'Pnma'
_cell_length_a       3.60327
_cell_length_b       9.77513
_cell_length_c       10.6014
_cell_angle_alpha    90
_cell_angle_beta     90
_cell_angle_gamma    90

_symmetry_Int_Tables_number  62
_chemical_formula_structural  LiV2O5
_chemical_formula_sum  Li4V8O20
_cell_volume  373.40752750470597
_cell_formula_units_Z  4
loop_
  _symmetry_equiv_pos_site_id
 _symmetry_equiv_pos_as_xyz
 1  'x, y, z'
loop_
 _atom_site_type_symbol
 _atom_site_label
 _atom_site_symmetry_multiplicity
 _atom_site_fract_x
 _atom_site_fract_y
 _atom_site_fract_z
 _atom_site_fract_occupancy
 Li  Li1  1  0.75000  0.84481  0.77386  1
 Li  Li2  1  0.25000  0.15519  0.22614  1
 Li  Li3  1  0.75000  0.34481  0.72614  1
 Li  Li4  1  0.25000  0.65519  0.27386  1
 O  O1  1  0.75000  0.02177  0.26578  1
 O  O2  1  0.75000  0.22014  0.87227  1
 O  O3  1  0.25000  0.27986  0.37227  1
 O  O4  1  0.75000  0.72014  0.62773  1
 O  O5  1  0.25000  0.97823  0.73422  1
 O  O6  1  0.25000  0.47823  0.76578  1
 O  O7  1  0.25000  0.07159  0.04212  1
 O  O8  1  0.75000  0.42841  0.54212  1
 O  O9  1  0.75000  0.92841  0.95788  1
 O  O10  1  0.75000  0.25388  0.13018  1
 O  O11  1  0.25000  0.24612  0.63018  1
 O  O12  1  0.25000  0.77986  0.12773  1
 O  O13  1  0.75000  0.56408  0.95739  1
 O  O14  1  0.75000  0.06408  0.54261  1
 O  O15  1  0.25000  0.57159  0.45788  1
 O  O16  1  0.25000  0.93592  0.45739  1
 O  O17  1  0.75000  0.52177  0.23422  1
 O  O18  1  0.75000  0.75388  0.36982  1
 O  O19  1  0.25000  0.43592  0.04261  1
 O  O20  1  0.25000  0.74612  0.86982  1
 V  V1  1  0.25000  0.37266  0.50037  1
 V  V2  1  0.75000  0.12734  0.00037  1
 V  V3  1  0.75000  0.62734  0.49963  1
 V  V4  1  0.25000  0.56431  0.89946  1
 V  V5  1  0.75000  0.43569  0.10054  1
 V  V6  1  0.25000  0.06431  0.60054  1
 V  V7  1  0.75000  0.93569  0.39946  1
 V  V8  1  0.25000  0.87266  -0.00037  1
