CIF file written using JARVIS-Tools package.
data_Ba2SiO4
_symmetry_space_group_name_H-M  'Pnma'
_cell_length_a       5.83822
_cell_length_b       7.57166
_cell_length_c       10.2959
_cell_angle_alpha    90
_cell_angle_beta     90
_cell_angle_gamma    90

_symmetry_Int_Tables_number  62
_chemical_formula_structural  Ba2SiO4
_chemical_formula_sum  Ba8Si4O6
_cell_volume  455.1317310382822
_cell_formula_units_Z  4
loop_
  _symmetry_equiv_pos_site_id
 _symmetry_equiv_pos_as_xyz
 1  'x, y, z'
loop_
 _atom_site_type_symbol
 _atom_site_label
 _atom_site_symmetry_multiplicity
 _atom_site_fract_x
 _atom_site_fract_y
 _atom_site_fract_z
 _atom_site_fract_occupancy
 Ba  Ba1  1  0.75000  0.84032  0.91491  1
 Ba  Ba2  1  0.75000  0.34032  0.58509  1
 Ba  Ba3  1  0.25000  0.65968  0.41491  1
 Ba  Ba4  1  0.75000  0.00853  0.30637  1
 Ba  Ba5  1  0.25000  0.99147  0.69363  1
 Ba  Ba6  1  0.75000  0.50853  0.19363  1
 Ba  Ba7  1  0.25000  0.49147  0.80637  1
 Ba  Ba8  1  0.25000  0.15968  0.08509  1
 O  O1  1  0.98152  0.69236  0.65085  1
 O  O2  1  0.48152  0.30764  0.34915  1
 O  O3  1  0.51848  0.19236  0.84915  1
 O  O4  1  0.48152  0.80764  0.15085  1
 O  O5  1  0.01848  0.30764  0.34915  1
 O  O6  1  0.51848  0.69236  0.65085  1
 O  O7  1  0.25000  0.80791  0.92917  1
 O  O8  1  0.01848  0.80764  0.15085  1
 O  O9  1  0.75000  0.19209  0.07083  1
 O  O10  1  0.75000  0.48856  0.91567  1
 O  O11  1  0.75000  0.69209  0.42917  1
 O  O12  1  0.98152  0.19236  0.84915  1
 O  O13  1  0.75000  0.98856  0.58433  1
 O  O14  1  0.25000  0.51144  0.08433  1
 O  O15  1  0.25000  0.30791  0.57083  1
 O  O16  1  0.25000  0.01144  0.41567  1
 Si  Si1  1  0.25000  0.72848  0.07993  1
 Si  Si2  1  0.75000  0.27152  0.92007  1
 Si  Si3  1  0.25000  0.22848  0.42007  1
 Si  Si4  1  0.75000  0.77152  0.57993  1
