CIF file written using JARVIS-Tools package.
data_CeAl
_symmetry_space_group_name_H-M  'Cmcm'
_cell_length_a       5.3356
_cell_length_b       6.00101
_cell_length_c       6.001
_cell_angle_alpha    103.562
_cell_angle_beta     90
_cell_angle_gamma    90

_symmetry_Int_Tables_number  63
_chemical_formula_structural  CeAl
_chemical_formula_sum  Ce4Al4
_cell_volume  186.788793844045
_cell_formula_units_Z  4
loop_
  _symmetry_equiv_pos_site_id
 _symmetry_equiv_pos_as_xyz
 1  'x, y, z'
loop_
 _atom_site_type_symbol
 _atom_site_label
 _atom_site_symmetry_multiplicity
 _atom_site_fract_x
 _atom_site_fract_y
 _atom_site_fract_z
 _atom_site_fract_occupancy
 Al  Al1  1  0.25000  0.83264  0.83264  1
 Al  Al2  1  0.75000  0.16736  0.16736  1
 Al  Al3  1  0.00000  0.50000  0.50000  1
 Al  Al4  1  0.50000  0.50000  0.50000  1
 Ce  Ce1  1  0.25000  0.37493  0.98500  1
 Ce  Ce2  1  0.75000  0.62507  0.01500  1
 Ce  Ce3  1  0.25000  0.98500  0.37493  1
 Ce  Ce4  1  0.75000  0.01500  0.62507  1
