CIF file written using JARVIS-Tools package.
data_Ce3Al2I2
_symmetry_space_group_name_H-M  'Cm'
_cell_length_a       4.21839
_cell_length_b       9.99624
_cell_length_c       10.8954
_cell_angle_alpha    69.8817
_cell_angle_beta     78.8353
_cell_angle_gamma    77.8199

_symmetry_Int_Tables_number  8
_chemical_formula_structural  Ce3Al2I2
_chemical_formula_sum  Ce6Al4I4
_cell_volume  418.00765480926253
_cell_formula_units_Z  2
loop_
  _symmetry_equiv_pos_site_id
 _symmetry_equiv_pos_as_xyz
 1  'x, y, z'
loop_
 _atom_site_type_symbol
 _atom_site_label
 _atom_site_symmetry_multiplicity
 _atom_site_fract_x
 _atom_site_fract_y
 _atom_site_fract_z
 _atom_site_fract_occupancy
 Al  Al1  1  0.92423  0.61499  0.53289  1
 Al  Al2  1  0.07097  0.38704  0.46736  1
 Al  Al3  1  0.65777  0.28096  0.39987  1
 Al  Al4  1  0.33743  0.72031  0.60117  1
 Ce  Ce1  1  0.19138  0.04034  0.57324  1
 Ce  Ce2  1  0.46499  0.37358  0.69277  1
 Ce  Ce3  1  0.24636  0.31664  0.18700  1
 Ce  Ce4  1  0.74791  0.68462  0.81588  1
 Ce  Ce5  1  0.52984  0.62697  0.30971  1
 Ce  Ce6  1  0.80332  0.96134  0.42839  1
 I  I1  1  0.86166  0.33100  0.94204  1
 I  I2  1  0.58114  0.02072  0.81334  1
 I  I3  1  0.13248  0.66953  0.06186  1
 I  I4  1  0.41352  0.98031  0.18903  1
