CIF file written using JARVIS-Tools package.
data_CrGeTe3
_symmetry_space_group_name_H-M  'R-3'
_cell_length_a       7.94599
_cell_length_b       7.94599
_cell_length_c       7.94599
_cell_angle_alpha    51.7474
_cell_angle_beta     51.7474
_cell_angle_gamma    51.7474

_symmetry_Int_Tables_number  148
_chemical_formula_structural  CrGeTe3
_chemical_formula_sum  Cr2Ge2Te6
_cell_volume  285.87556723400417
_cell_formula_units_Z  2
loop_
  _symmetry_equiv_pos_site_id
 _symmetry_equiv_pos_as_xyz
 1  'x, y, z'
loop_
 _atom_site_type_symbol
 _atom_site_label
 _atom_site_symmetry_multiplicity
 _atom_site_fract_x
 _atom_site_fract_y
 _atom_site_fract_z
 _atom_site_fract_occupancy
 Cr  Cr1  1  0.33442  0.33442  0.33442  1
 Cr  Cr2  1  0.66558  0.66558  0.66558  1
 Ge  Ge1  1  0.05885  0.05885  0.05885  1
 Ge  Ge2  1  0.94115  0.94115  0.94115  1
 Te  Te1  1  0.91948  0.54222  0.28785  1
 Te  Te2  1  0.28785  0.91948  0.54222  1
 Te  Te3  1  0.54222  0.28785  0.91948  1
 Te  Te4  1  0.08052  0.45778  0.71215  1
 Te  Te5  1  0.71215  0.08052  0.45778  1
 Te  Te6  1  0.45778  0.71215  0.08052  1
