CIF file written using JARVIS-Tools package.
data_CoOF
_symmetry_space_group_name_H-M  'P2/m'
_cell_length_a       4.59186
_cell_length_b       2.89164
_cell_length_c       18.1451
_cell_angle_alpha    90
_cell_angle_beta     94.9184
_cell_angle_gamma    90

_symmetry_Int_Tables_number  10
_chemical_formula_structural  CoOF
_chemical_formula_sum  Co8O8F8
_cell_volume  240.0441352717187
_cell_formula_units_Z  8
loop_
  _symmetry_equiv_pos_site_id
 _symmetry_equiv_pos_as_xyz
 1  'x, y, z'
loop_
 _atom_site_type_symbol
 _atom_site_label
 _atom_site_symmetry_multiplicity
 _atom_site_fract_x
 _atom_site_fract_y
 _atom_site_fract_z
 _atom_site_fract_occupancy
 Co  Co1  1  0.10721  0.00000  0.12289  1
 Co  Co2  1  0.89279  0.00000  0.87711  1
 Co  Co3  1  0.96278  0.00000  0.62657  1
 Co  Co4  1  0.03722  0.00000  0.37343  1
 Co  Co5  1  0.50000  0.50000  -0.00000  1
 Co  Co6  1  0.43067  0.50000  0.75331  1
 Co  Co7  1  0.50000  0.50000  0.50000  1
 Co  Co8  1  0.56933  0.50000  0.24669  1
 F  F1  1  0.09185  0.50000  0.82741  1
 F  F2  1  0.24838  0.00000  0.94770  1
 F  F3  1  0.75162  0.00000  0.05230  1
 F  F4  1  0.90815  0.50000  0.17259  1
 F  F5  1  0.82377  0.50000  0.42333  1
 F  F6  1  0.74969  0.50000  0.67625  1
 F  F7  1  0.25031  0.50000  0.32375  1
 F  F8  1  0.17623  0.50000  0.57667  1
 O  O1  1  0.74442  0.50000  0.92512  1
 O  O2  1  0.75796  0.00000  0.29734  1
 O  O3  1  0.60510  0.00000  0.80343  1
 O  O4  1  0.39490  0.00000  0.19657  1
 O  O5  1  0.31702  0.00000  0.45055  1
 O  O6  1  0.25558  0.50000  0.07488  1
 O  O7  1  0.68298  0.00000  0.54945  1
 O  O8  1  0.24204  0.00000  0.70266  1
