CIF file written using JARVIS-Tools package.
data_ZnSeO4
_symmetry_space_group_name_H-M  'Pnma'
_cell_length_a       4.9432
_cell_length_b       6.76734
_cell_length_c       9.15126
_cell_angle_alpha    90
_cell_angle_beta     90
_cell_angle_gamma    90

_symmetry_Int_Tables_number  62
_chemical_formula_structural  ZnSeO4
_chemical_formula_sum  Zn4Se4O6
_cell_volume  306.13135604035466
_cell_formula_units_Z  4
loop_
  _symmetry_equiv_pos_site_id
 _symmetry_equiv_pos_as_xyz
 1  'x, y, z'
loop_
 _atom_site_type_symbol
 _atom_site_label
 _atom_site_symmetry_multiplicity
 _atom_site_fract_x
 _atom_site_fract_y
 _atom_site_fract_z
 _atom_site_fract_occupancy
 O  O1  1  0.82772  0.54156  0.62498  1
 O  O2  1  0.67228  0.95844  0.12498  1
 O  O3  1  0.20348  0.75000  0.12540  1
 O  O4  1  0.67228  0.54156  0.12498  1
 O  O5  1  0.79652  0.25000  0.87460  1
 O  O6  1  0.56960  0.75000  0.36604  1
 O  O7  1  0.70348  0.25000  0.37460  1
 O  O8  1  0.06960  0.25000  0.13396  1
 O  O9  1  0.17228  0.45844  0.37502  1
 O  O10  1  0.82772  0.95844  0.62498  1
 O  O11  1  0.29652  0.75000  0.62540  1
 O  O12  1  0.32772  0.04156  0.87502  1
 O  O13  1  0.43040  0.25000  0.63396  1
 O  O14  1  0.93040  0.75000  0.86604  1
 O  O15  1  0.32772  0.45844  0.87502  1
 O  O16  1  0.17228  0.04156  0.37502  1
 Se  Se1  1  0.47212  0.25000  0.81904  1
 Se  Se2  1  0.97212  0.75000  0.68096  1
 Se  Se3  1  0.02788  0.25000  0.31904  1
 Se  Se4  1  0.52788  0.75000  0.18096  1
 Zn  Zn1  1  0.50000  0.50000  0.50000  1
 Zn  Zn2  1  0.50000  0.00000  0.50000  1
 Zn  Zn3  1  0.00000  0.50000  0.00000  1
 Zn  Zn4  1  0.00000  0.00000  0.00000  1
