CIF file written using JARVIS-Tools package.
data_ZnFeO3
_symmetry_space_group_name_H-M  'R-3'
_cell_length_a       5.40885
_cell_length_b       5.40885
_cell_length_c       5.40886
_cell_angle_alpha    54.5711
_cell_angle_beta     54.5711
_cell_angle_gamma    54.5712

_symmetry_Int_Tables_number  148
_chemical_formula_structural  ZnFeO3
_chemical_formula_sum  Zn2Fe2O6
_cell_volume  97.73448852881754
_cell_formula_units_Z  2
loop_
  _symmetry_equiv_pos_site_id
 _symmetry_equiv_pos_as_xyz
 1  'x, y, z'
loop_
 _atom_site_type_symbol
 _atom_site_label
 _atom_site_symmetry_multiplicity
 _atom_site_fract_x
 _atom_site_fract_y
 _atom_site_fract_z
 _atom_site_fract_occupancy
 Fe  Fe1  1  0.15960  0.15960  0.15960  1
 Fe  Fe2  1  0.84040  0.84040  0.84040  1
 O  O1  1  0.04805  0.78628  0.43753  1
 O  O2  1  0.56247  0.95195  0.21372  1
 O  O3  1  0.21372  0.56247  0.95195  1
 O  O4  1  0.78628  0.43753  0.04805  1
 O  O5  1  0.43753  0.04805  0.78628  1
 O  O6  1  0.95195  0.21372  0.56247  1
 Zn  Zn1  1  0.36686  0.36686  0.36686  1
 Zn  Zn2  1  0.63314  0.63314  0.63314  1
