CIF file written using JARVIS-Tools package.
data_ZnS
_symmetry_space_group_name_H-M  'P6_3mc'
_cell_length_a       3.84089
_cell_length_b       3.84089
_cell_length_c       31.4013
_cell_angle_alpha    90
_cell_angle_beta     90
_cell_angle_gamma    120

_symmetry_Int_Tables_number  186
_chemical_formula_structural  ZnS
_chemical_formula_sum  Zn0S0
_cell_volume  401.1822944043532
_cell_formula_units_Z  10
loop_
  _symmetry_equiv_pos_site_id
 _symmetry_equiv_pos_as_xyz
 1  'x, y, z'
loop_
 _atom_site_type_symbol
 _atom_site_label
 _atom_site_symmetry_multiplicity
 _atom_site_fract_x
 _atom_site_fract_y
 _atom_site_fract_z
 _atom_site_fract_occupancy
 S  S1  1  0.00000  0.00000  0.37483  1
 S  S2  1  0.33333  0.66667  0.17499  1
 S  S3  1  0.00000  0.00000  0.57506  1
 S  S4  1  0.33333  0.66667  0.77491  1
 S  S5  1  0.00000  0.00000  0.87483  1
 S  S6  1  0.66667  0.33333  0.67499  1
 S  S7  1  0.00000  0.00000  0.07506  1
 S  S8  1  0.66667  0.33333  0.27491  1
 S  S9  1  0.66667  0.33333  0.97508  1
 S  S10  1  0.33333  0.66667  0.47508  1
 Zn  Zn1  1  0.66667  0.33333  0.19998  1
 Zn  Zn2  1  0.66667  0.33333  0.90000  1
 Zn  Zn3  1  0.33333  0.66667  0.69998  1
 Zn  Zn4  1  0.00000  0.00000  0.50016  1
 Zn  Zn5  1  0.66667  0.33333  0.60006  1
 Zn  Zn6  1  0.00000  0.00000  0.00016  1
 Zn  Zn7  1  0.33333  0.66667  0.40000  1
 Zn  Zn8  1  0.00000  0.00000  0.29991  1
 Zn  Zn9  1  0.00000  0.00000  0.79991  1
 Zn  Zn10  1  0.33333  0.66667  0.10006  1
