CIF file written using JARVIS-Tools package.
data_Li5H9Pt2
_symmetry_space_group_name_H-M  'I4/mcm'
_cell_length_a       7.2461
_cell_length_b       7.2461
_cell_length_c       7.2461
_cell_angle_alpha    109.94
_cell_angle_beta     109.94
_cell_angle_gamma    108.537

_symmetry_Int_Tables_number  140
_chemical_formula_structural  Li5H9Pt2
_chemical_formula_sum  Li0H8Pt4
_cell_volume  292.8235382957894
_cell_formula_units_Z  2
loop_
  _symmetry_equiv_pos_site_id
 _symmetry_equiv_pos_as_xyz
 1  'x, y, z'
loop_
 _atom_site_type_symbol
 _atom_site_label
 _atom_site_symmetry_multiplicity
 _atom_site_fract_x
 _atom_site_fract_y
 _atom_site_fract_z
 _atom_site_fract_occupancy
 H  H1  1  0.86296  0.71088  0.30005  1
 H  H2  1  0.71088  0.41083  0.84792  1
 H  H3  1  0.36296  0.06291  0.15208  1
 H  H4  1  0.91083  0.21088  0.84792  1
 H  H5  1  0.50000  0.00000  0.50000  1
 H  H6  1  0.00000  0.50000  0.50000  1
 H  H7  1  0.06291  0.91083  0.69995  1
 H  H8  1  0.13704  0.28912  0.69995  1
 H  H9  1  0.08917  0.78912  0.15208  1
 H  H10  1  0.63704  0.93709  0.84792  1
 H  H11  1  0.58917  0.43709  0.30005  1
 H  H12  1  0.78912  0.63704  0.69995  1
 H  H13  1  0.93709  0.08917  0.30005  1
 H  H14  1  0.28912  0.58917  0.15208  1
 H  H15  1  0.43709  0.13704  0.84792  1
 H  H16  1  0.56291  0.86296  0.15208  1
 H  H17  1  0.41083  0.56291  0.69995  1
 H  H18  1  0.21088  0.36296  0.30005  1
 Li  Li1  1  0.69238  0.19238  0.20250  1
 Li  Li2  1  0.30762  0.80762  0.79750  1
 Li  Li3  1  0.98988  0.48988  0.79750  1
 Li  Li4  1  0.19238  0.98988  0.50000  1
 Li  Li5  1  0.48988  0.69238  0.50000  1
 Li  Li6  1  0.00000  0.00000  0.00000  1
 Li  Li7  1  0.01012  0.51012  0.20250  1
 Li  Li8  1  0.80762  0.01012  0.50000  1
 Li  Li9  1  0.51012  0.30762  0.50000  1
 Li  Li10  1  0.50000  0.50000  0.00000  1
 Pt  Pt1  1  0.15925  0.34075  0.50000  1
 Pt  Pt2  1  0.65925  0.15925  0.81851  1
 Pt  Pt3  1  0.34075  0.84075  0.18149  1
 Pt  Pt4  1  0.84075  0.65925  0.50000  1
