CIF file written using JARVIS-Tools package.
data_Li2Ti3SbO8
_symmetry_space_group_name_H-M  'P6_3mc'
_cell_length_a       5.97051
_cell_length_b       5.97054
_cell_length_c       10.3946
_cell_angle_alpha    90.0003
_cell_angle_beta     89.9998
_cell_angle_gamma    120.001

_symmetry_Int_Tables_number  186
_chemical_formula_structural  Li2Ti3SbO8
_chemical_formula_sum  Li4Ti6Sb2O6
_cell_volume  320.8938430830361
_cell_formula_units_Z  2
loop_
  _symmetry_equiv_pos_site_id
 _symmetry_equiv_pos_as_xyz
 1  'x, y, z'
loop_
 _atom_site_type_symbol
 _atom_site_label
 _atom_site_symmetry_multiplicity
 _atom_site_fract_x
 _atom_site_fract_y
 _atom_site_fract_z
 _atom_site_fract_occupancy
 Li  Li1  1  0.33334  0.66668  0.88947  1
 Li  Li2  1  0.99999  0.00001  0.99481  1
 Li  Li3  1  -0.00000  0.00001  0.49481  1
 Li  Li4  1  0.66667  0.33334  0.38947  1
 O  O1  1  0.15370  0.84632  0.60597  1
 O  O2  1  0.97944  0.48973  0.82079  1
 O  O3  1  0.33333  0.66668  0.11200  1
 O  O4  1  -0.00000  0.00001  0.31496  1
 O  O5  1  0.00000  0.00001  0.81496  1
 O  O6  1  0.15370  0.30741  0.60597  1
 O  O7  1  0.02056  0.51029  0.32079  1
 O  O8  1  0.48972  0.51029  0.32079  1
 O  O9  1  0.69260  0.84631  0.60597  1
 O  O10  1  0.51028  0.48973  0.82079  1
 O  O11  1  0.51028  0.02057  0.82079  1
 O  O12  1  0.84630  0.69262  0.10597  1
 O  O13  1  0.48972  0.97945  0.32079  1
 O  O14  1  0.30739  0.15371  0.10597  1
 O  O15  1  0.66667  0.33335  0.61200  1
 O  O16  1  0.84630  0.15371  0.10597  1
 Sb  Sb1  1  0.66667  0.33334  0.00593  1
 Sb  Sb2  1  0.33334  0.66668  0.50593  1
 Ti  Ti1  1  0.82974  0.17028  0.71882  1
 Ti  Ti2  1  0.65947  0.82974  0.21882  1
 Ti  Ti3  1  0.34053  0.17028  0.71882  1
 Ti  Ti4  1  0.82974  0.65948  0.71882  1
 Ti  Ti5  1  0.17026  0.82974  0.21882  1
 Ti  Ti6  1  0.17026  0.34054  0.21882  1
