CIF file written using JARVIS-Tools package.
data_ThAlIr
_symmetry_space_group_name_H-M  'P-62m'
_cell_length_a       4.15504
_cell_length_b       7.2556
_cell_length_c       7.25586
_cell_angle_alpha    119.999
_cell_angle_beta     90
_cell_angle_gamma    90

_symmetry_Int_Tables_number  189
_chemical_formula_structural  ThAlIr
_chemical_formula_sum  Th3Al3Ir3
_cell_volume  189.44037883195278
_cell_formula_units_Z  3
loop_
  _symmetry_equiv_pos_site_id
 _symmetry_equiv_pos_as_xyz
 1  'x, y, z'
loop_
 _atom_site_type_symbol
 _atom_site_label
 _atom_site_symmetry_multiplicity
 _atom_site_fract_x
 _atom_site_fract_y
 _atom_site_fract_z
 _atom_site_fract_occupancy
 Al  Al1  1  0.00000  0.22945  0.00000  1
 Al  Al2  1  0.00000  0.77052  0.77054  1
 Al  Al3  1  0.00000  0.99998  0.22946  1
 Ir  Ir1  1  0.00000  0.33334  0.66667  1
 Ir  Ir2  1  0.00000  0.66667  0.33333  1
 Ir  Ir3  1  0.50000  -0.00002  0.00000  1
 Th  Th1  1  0.50000  0.58217  -0.00000  1
 Th  Th2  1  0.50000  0.41782  0.41782  1
 Th  Th3  1  0.50000  0.99999  0.58218  1
