CIF file written using JARVIS-Tools package.
data_ReBiO4
_symmetry_space_group_name_H-M  'Cmcm'
_cell_length_a       3.87083
_cell_length_b       5.57952
_cell_length_c       7.83161
_cell_angle_alpha    90
_cell_angle_beta     104.308
_cell_angle_gamma    90

_symmetry_Int_Tables_number  63
_chemical_formula_structural  ReBiO4
_chemical_formula_sum  Re2Bi2O8
_cell_volume  163.89563509126017
_cell_formula_units_Z  2
loop_
  _symmetry_equiv_pos_site_id
 _symmetry_equiv_pos_as_xyz
 1  'x, y, z'
loop_
 _atom_site_type_symbol
 _atom_site_label
 _atom_site_symmetry_multiplicity
 _atom_site_fract_x
 _atom_site_fract_y
 _atom_site_fract_z
 _atom_site_fract_occupancy
 Bi  Bi1  1  0.68834  0.25000  0.37669  1
 Bi  Bi2  1  0.31166  0.75000  0.62331  1
 O  O1  1  0.81326  0.01578  0.62651  1
 O  O2  1  0.18674  0.98422  0.37349  1
 O  O3  1  0.18674  0.51578  0.37349  1
 O  O4  1  0.81326  0.48422  0.62651  1
 O  O5  1  0.00000  0.00000  0.00000  1
 O  O6  1  0.00000  0.50000  0.00000  1
 O  O7  1  0.41006  0.25000  0.82012  1
 O  O8  1  0.58994  0.75000  0.17988  1
 Re  Re1  1  0.91662  0.25000  0.83324  1
 Re  Re2  1  0.08338  0.75000  0.16676  1
