CIF file written using JARVIS-Tools package.
data_Li2FeF4
_symmetry_space_group_name_H-M  'I4/mmm'
_cell_length_a       4.04067
_cell_length_b       5.28943
_cell_length_c       5.71431
_cell_angle_alpha    89.995
_cell_angle_beta     134.999
_cell_angle_gamma    112.459

_symmetry_Int_Tables_number  139
_chemical_formula_structural  Li2FeF4
_chemical_formula_sum  Li2FeF4
_cell_volume  72.67694686626882
_cell_formula_units_Z  1
loop_
  _symmetry_equiv_pos_site_id
 _symmetry_equiv_pos_as_xyz
 1  'x, y, z'
loop_
 _atom_site_type_symbol
 _atom_site_label
 _atom_site_symmetry_multiplicity
 _atom_site_fract_x
 _atom_site_fract_y
 _atom_site_fract_z
 _atom_site_fract_occupancy
 F  F1  1  0.52192  0.52601  0.76096  1
 F  F2  1  0.46989  0.47399  0.23494  1
 F  F3  1  0.49572  1.00000  0.49790  1
 F  F4  1  0.49573  0.00000  0.99782  1
 Fe  Fe1  1  0.99581  0.00000  0.99790  1
 Li  Li1  1  0.99586  0.50000  0.74793  1
 Li  Li2  1  0.99600  0.50000  0.24800  1
