CIF file written using JARVIS-Tools package.
data_YH16C4N9O16
_symmetry_space_group_name_H-M  'Cm'
_cell_length_a       11.0232
_cell_length_b       11.0232
_cell_length_c       6.24406
_cell_angle_alpha    88.3692
_cell_angle_beta     91.6308
_cell_angle_gamma    33.8208

_symmetry_Int_Tables_number  8
_chemical_formula_structural  YH16C4N9O16
_chemical_formula_sum  YH6C4N9O6
_cell_volume  420.27771655342593
_cell_formula_units_Z  1
loop_
  _symmetry_equiv_pos_site_id
 _symmetry_equiv_pos_as_xyz
 1  'x, y, z'
loop_
 _atom_site_type_symbol
 _atom_site_label
 _atom_site_symmetry_multiplicity
 _atom_site_fract_x
 _atom_site_fract_y
 _atom_site_fract_z
 _atom_site_fract_occupancy
 C  C1  1  0.12241  0.13770  0.30974  1
 C  C2  1  0.85805  0.70822  0.46567  1
 C  C3  1  0.29178  0.14195  0.46567  1
 C  C4  1  0.86230  0.87759  0.30974  1
 H  H1  1  0.66082  0.70257  0.17925  1
 H  H2  1  0.52541  0.28693  -0.01693  1
 H  H3  1  0.71307  0.47459  -0.01693  1
 H  H4  1  0.25495  -0.03332  0.73511  1
 H  H5  1  0.38540  0.83039  0.96919  1
 H  H6  1  0.16961  0.61460  0.96919  1
 H  H7  1  0.03332  0.74505  0.73511  1
 H  H8  1  0.66992  0.45271  0.75089  1
 H  H9  1  0.35167  0.42359  0.28065  1
 H  H10  1  0.57641  0.64833  0.28065  1
 H  H11  1  0.54729  0.33008  0.75089  1
 H  H12  1  0.96840  0.10385  0.50923  1
 H  H13  1  0.89615  0.03160  0.50923  1
 H  H14  1  0.06256  0.29928  0.01579  1
 H  H15  1  0.70072  0.93744  0.01579  1
 H  H16  1  0.29743  0.33918  0.17925  1
 N  N1  1  0.76336  0.76399  0.27080  1
 N  N2  1  0.23046  0.07765  0.50055  1
 N  N3  1  0.12961  0.23199  0.17124  1
 N  N4  1  0.23601  0.23664  0.27080  1
 N  N5  1  0.76801  0.87039  0.17124  1
 N  N6  1  0.41585  0.58415  0.38858  1
 N  N7  1  0.88286  0.59165  0.62776  1
 N  N8  1  0.40835  0.11714  0.62776  1
 N  N9  1  0.92235  0.76954  0.50055  1
 O  O1  1  0.33133  0.39687  0.14348  1
 O  O2  1  0.47374  0.01061  0.80312  1
 O  O3  1  0.02736  0.11655  0.26654  1
 O  O4  1  0.88345  0.97264  0.26654  1
 O  O5  1  0.43742  0.20223  0.58475  1
 O  O6  1  0.79777  0.56258  0.58475  1
 O  O7  1  0.98939  0.52626  0.80312  1
 O  O8  1  0.60313  0.66867  0.14348  1
 O  O9  1  0.63144  0.23109  0.88487  1
 O  O10  1  0.76891  0.36856  0.88487  1
 O  O11  1  0.33671  0.66329  0.19360  1
 O  O12  1  0.92008  0.07992  0.60896  1
 O  O13  1  0.25630  0.91403  0.86986  1
 O  O14  1  0.08597  0.74370  0.86986  1
 O  O15  1  0.40492  0.49048  0.48407  1
 O  O16  1  0.50952  0.59508  0.48407  1
 Y  Y1  1  -0.01776  0.01776  0.97979  1
