CIF file written using JARVIS-Tools package.
data_H5N3O3
_symmetry_space_group_name_H-M  'P2_1/c'
_cell_length_a       5.54068
_cell_length_b       7.88568
_cell_length_c       8.1082
_cell_angle_alpha    90.3482
_cell_angle_beta     90
_cell_angle_gamma    90

_symmetry_Int_Tables_number  14
_chemical_formula_structural  H5N3O3
_chemical_formula_sum  H20N2O2
_cell_volume  354.2571807228037
_cell_formula_units_Z  4
loop_
  _symmetry_equiv_pos_site_id
 _symmetry_equiv_pos_as_xyz
 1  'x, y, z'
loop_
 _atom_site_type_symbol
 _atom_site_label
 _atom_site_symmetry_multiplicity
 _atom_site_fract_x
 _atom_site_fract_y
 _atom_site_fract_z
 _atom_site_fract_occupancy
 H  H1  1  0.57251  0.52408  0.18797  1
 H  H2  1  0.92749  0.02408  0.68797  1
 H  H3  1  0.47220  0.04469  0.35378  1
 H  H4  1  0.01869  0.17963  0.23944  1
 H  H5  1  0.20132  0.04823  0.13494  1
 H  H6  1  0.70709  0.82600  0.53831  1
 H  H7  1  0.02780  0.54469  0.85378  1
 H  H8  1  0.20709  0.67400  0.96169  1
 H  H9  1  0.52780  0.95531  0.64622  1
 H  H10  1  0.07251  0.97592  0.31203  1
 H  H11  1  0.29291  0.17400  0.46169  1
 H  H12  1  0.51869  0.32037  0.26056  1
 H  H13  1  0.97220  0.45531  0.14622  1
 H  H14  1  0.29868  0.54823  0.63494  1
 H  H15  1  0.79291  0.32600  0.03831  1
 H  H16  1  0.98131  0.82037  0.76056  1
 H  H17  1  0.70132  0.45177  0.36506  1
 H  H18  1  0.42749  0.47592  0.81203  1
 H  H19  1  0.48131  0.67963  0.73944  1
 H  H20  1  0.79868  0.95177  0.86506  1
 N  N1  1  0.85344  0.35529  0.15464  1
 N  N2  1  0.35319  0.58088  0.75460  1
 N  N3  1  0.35344  0.14471  0.34536  1
 N  N4  1  0.85319  0.91912  0.74540  1
 N  N5  1  0.34416  0.16704  0.86836  1
 N  N6  1  0.15584  0.66704  0.36836  1
 N  N7  1  0.84416  0.33296  0.63164  1
 N  N8  1  0.14656  0.64471  0.84536  1
 N  N9  1  0.64656  0.85529  0.65464  1
 N  N10  1  0.65584  0.83296  0.13164  1
 N  N11  1  0.64681  0.41912  0.24540  1
 N  N12  1  0.14681  0.08088  0.25460  1
 O  O1  1  0.12772  0.79086  0.46793  1
 O  O2  1  0.60479  0.81580  0.28328  1
 O  O3  1  0.39521  0.18420  0.71672  1
 O  O4  1  0.26555  0.02549  0.92032  1
 O  O5  1  0.10479  0.68420  0.21672  1
 O  O6  1  0.62772  0.70914  0.03207  1
 O  O7  1  0.89521  0.31580  0.78328  1
 O  O8  1  0.23445  0.52549  0.42032  1
 O  O9  1  0.37228  0.29086  0.96793  1
 O  O10  1  0.87228  0.20914  0.53207  1
 O  O11  1  0.76555  0.47451  0.57968  1
 O  O12  1  0.73445  0.97451  0.07968  1
