CIF file written using JARVIS-Tools package.
data_Fe4O3F5
_symmetry_space_group_name_H-M  'P2_1/m'
_cell_length_a       4.75437
_cell_length_b       6.06432
_cell_length_c       9.43872
_cell_angle_alpha    90
_cell_angle_beta     92.1389
_cell_angle_gamma    90

_symmetry_Int_Tables_number  11
_chemical_formula_structural  Fe4O3F5
_chemical_formula_sum  Fe8O6F0
_cell_volume  271.9480918677744
_cell_formula_units_Z  2
loop_
  _symmetry_equiv_pos_site_id
 _symmetry_equiv_pos_as_xyz
 1  'x, y, z'
loop_
 _atom_site_type_symbol
 _atom_site_label
 _atom_site_symmetry_multiplicity
 _atom_site_fract_x
 _atom_site_fract_y
 _atom_site_fract_z
 _atom_site_fract_occupancy
 F  F1  1  0.79832  0.25000  0.60609  1
 F  F2  1  0.68703  0.50193  0.84705  1
 F  F3  1  0.68703  -0.00193  0.84705  1
 F  F4  1  0.31297  0.49807  0.15295  1
 F  F5  1  0.31297  0.00193  0.15295  1
 F  F6  1  0.20725  0.25000  0.89814  1
 F  F7  1  0.20168  0.75000  0.39391  1
 F  F8  1  0.21088  0.25000  0.39988  1
 F  F9  1  0.79275  0.75000  0.10186  1
 F  F10  1  0.78912  0.75000  0.60012  1
 Fe  Fe1  1  0.00000  0.00000  0.00000  1
 Fe  Fe2  1  0.40603  0.75000  0.75433  1
 Fe  Fe3  1  0.46033  0.25000  0.72795  1
 Fe  Fe4  1  0.53967  0.75000  0.27205  1
 Fe  Fe5  1  0.59397  0.25000  0.24567  1
 Fe  Fe6  1  0.00000  0.50000  0.50000  1
 Fe  Fe7  1  0.00000  0.00000  0.50000  1
 Fe  Fe8  1  0.00000  0.50000  0.00000  1
 O  O1  1  0.71335  0.49474  0.35078  1
 O  O2  1  0.17732  0.75000  0.90764  1
 O  O3  1  0.28665  0.50526  0.64922  1
 O  O4  1  0.82268  0.25000  0.09236  1
 O  O5  1  0.71335  0.00526  0.35078  1
 O  O6  1  0.28665  -0.00526  0.64922  1
