CIF file written using JARVIS-Tools package.
data_BaAl
_symmetry_space_group_name_H-M  'Pnma'
_cell_length_a       4.66258
_cell_length_b       6.53604
_cell_length_c       9.82209
_cell_angle_alpha    90
_cell_angle_beta     90
_cell_angle_gamma    90

_symmetry_Int_Tables_number  62
_chemical_formula_structural  BaAl
_chemical_formula_sum  Ba4Al4
_cell_volume  299.32597753672815
_cell_formula_units_Z  4
loop_
  _symmetry_equiv_pos_site_id
 _symmetry_equiv_pos_as_xyz
 1  'x, y, z'
loop_
 _atom_site_type_symbol
 _atom_site_label
 _atom_site_symmetry_multiplicity
 _atom_site_fract_x
 _atom_site_fract_y
 _atom_site_fract_z
 _atom_site_fract_occupancy
 Al  Al1  1  0.75801  0.41033  0.47480  1
 Al  Al2  1  0.25801  0.58967  0.52520  1
 Al  Al3  1  0.25801  0.91033  0.02520  1
 Al  Al4  1  0.75801  0.08967  0.97480  1
 Ba  Ba1  1  0.75799  0.59105  0.82083  1
 Ba  Ba2  1  0.25799  0.40895  0.17917  1
 Ba  Ba3  1  0.25799  0.09105  0.67917  1
 Ba  Ba4  1  0.75799  0.90895  0.32083  1
