CIF file written using JARVIS-Tools package.
data_Li3VF7
_symmetry_space_group_name_H-M  'R3m'
_cell_length_a       5.70541
_cell_length_b       6.02097
_cell_length_c       5.70541
_cell_angle_alpha    58.1528
_cell_angle_beta     63.6943
_cell_angle_gamma    90

_symmetry_Int_Tables_number  160
_chemical_formula_structural  Li3VF7
_chemical_formula_sum  Li3VF7
_cell_volume  142.03590037446546
_cell_formula_units_Z  1
loop_
  _symmetry_equiv_pos_site_id
 _symmetry_equiv_pos_as_xyz
 1  'x, y, z'
loop_
 _atom_site_type_symbol
 _atom_site_label
 _atom_site_symmetry_multiplicity
 _atom_site_fract_x
 _atom_site_fract_y
 _atom_site_fract_z
 _atom_site_fract_occupancy
 F  F1  1  0.22086  0.21562  0.00524  1
 F  F2  1  0.22086  0.77914  0.00524  1
 F  F3  1  0.21807  0.23317  0.53365  1
 F  F4  1  0.25030  0.74970  0.50061  1
 F  F5  1  0.76683  0.23317  0.98490  1
 F  F6  1  0.76683  0.78193  0.98490  1
 F  F7  1  0.78438  0.77914  0.44173  1
 Li  Li1  1  0.37756  0.10702  0.27054  1
 Li  Li2  1  0.37756  0.62244  0.27054  1
 Li  Li3  1  0.89298  0.62244  0.75513  1
 V  V1  1  0.00016  -0.00016  0.00033  1
