CIF file written using JARVIS-Tools package.
data_CeTe3
_symmetry_space_group_name_H-M  'Cmcm'
_cell_length_a       4.43871
_cell_length_b       4.44034
_cell_length_c       13.0638
_cell_angle_alpha    90
_cell_angle_beta     99.7811
_cell_angle_gamma    90

_symmetry_Int_Tables_number  63
_chemical_formula_structural  CeTe3
_chemical_formula_sum  Ce2Te6
_cell_volume  253.7376844200256
_cell_formula_units_Z  2
loop_
  _symmetry_equiv_pos_site_id
 _symmetry_equiv_pos_as_xyz
 1  'x, y, z'
loop_
 _atom_site_type_symbol
 _atom_site_label
 _atom_site_symmetry_multiplicity
 _atom_site_fract_x
 _atom_site_fract_y
 _atom_site_fract_z
 _atom_site_fract_occupancy
 Ce  Ce1  1  0.08887  0.75000  0.33601  1
 Ce  Ce2  1  0.75286  0.25000  0.66399  1
 Te  Te1  1  0.99309  0.25000  0.14440  1
 Te  Te2  1  0.49331  0.75000  0.14486  1
 Te  Te3  1  0.62490  0.25000  0.40808  1
 Te  Te4  1  0.84869  0.75000  0.85560  1
 Te  Te5  1  0.34846  0.25000  0.85514  1
 Te  Te6  1  0.21682  0.75000  0.59192  1
