CIF file written using JARVIS-Tools package.
data_Na5CrO4
_symmetry_space_group_name_H-M  'Pmmn'
_cell_length_a       5.33427
_cell_length_b       7.24951
_cell_length_c       7.50008
_cell_angle_alpha    90
_cell_angle_beta     90
_cell_angle_gamma    90

_symmetry_Int_Tables_number  59
_chemical_formula_structural  Na5CrO4
_chemical_formula_sum  Na0Cr2O8
_cell_volume  290.0347381346336
_cell_formula_units_Z  2
loop_
  _symmetry_equiv_pos_site_id
 _symmetry_equiv_pos_as_xyz
 1  'x, y, z'
loop_
 _atom_site_type_symbol
 _atom_site_label
 _atom_site_symmetry_multiplicity
 _atom_site_fract_x
 _atom_site_fract_y
 _atom_site_fract_z
 _atom_site_fract_occupancy
 Cr  Cr1  1  0.21518  0.00000  0.50000  1
 Cr  Cr2  1  0.78482  0.50000  0.00000  1
 Na  Na1  1  0.25842  0.73741  0.19211  1
 Na  Na2  1  0.25842  0.26259  0.19211  1
 Na  Na3  1  0.82591  0.00000  0.00000  1
 Na  Na4  1  0.25842  0.26259  0.80789  1
 Na  Na5  1  0.25842  0.73741  0.80789  1
 Na  Na6  1  0.74158  0.23741  0.69211  1
 Na  Na7  1  0.74158  0.76259  0.69211  1
 Na  Na8  1  0.17409  0.50000  0.50000  1
 Na  Na9  1  0.74158  0.23741  0.30789  1
 Na  Na10  1  0.74158  0.76259  0.30789  1
 O  O1  1  0.39368  0.22421  0.50000  1
 O  O2  1  0.39368  0.77579  0.50000  1
 O  O3  1  0.96127  0.50000  0.22062  1
 O  O4  1  0.60632  0.27579  0.00000  1
 O  O5  1  0.60632  0.72421  0.00000  1
 O  O6  1  0.96127  0.50000  0.77938  1
 O  O7  1  0.03873  0.00000  0.72061  1
 O  O8  1  0.03873  0.00000  0.27939  1
