CIF file written using JARVIS-Tools package.
data_FeAg3C6N6
_symmetry_space_group_name_H-M  'P-31m'
_cell_length_a       6.44484
_cell_length_b       6.44484
_cell_length_c       7.61309
_cell_angle_alpha    90
_cell_angle_beta     90
_cell_angle_gamma    120

_symmetry_Int_Tables_number  162
_chemical_formula_structural  FeAg3C6N6
_chemical_formula_sum  FeAg3C6N6
_cell_volume  273.85168716519786
_cell_formula_units_Z  1
loop_
  _symmetry_equiv_pos_site_id
 _symmetry_equiv_pos_as_xyz
 1  'x, y, z'
loop_
 _atom_site_type_symbol
 _atom_site_label
 _atom_site_symmetry_multiplicity
 _atom_site_fract_x
 _atom_site_fract_y
 _atom_site_fract_z
 _atom_site_fract_occupancy
 Ag  Ag1  1  0.00000  0.50000  0.50000  1
 Ag  Ag2  1  0.50000  0.00000  0.50000  1
 Ag  Ag3  1  0.50000  0.50000  0.50000  1
 C  C1  1  0.76769  0.76769  0.15301  1
 C  C2  1  1.00000  0.76769  0.84699  1
 C  C3  1  0.23231  0.23231  0.84699  1
 C  C4  1  0.00000  0.23231  0.15301  1
 C  C5  1  0.76769  0.00000  0.84699  1
 C  C6  1  0.23231  0.00000  0.15301  1
 Fe  Fe1  1  0.00000  0.00000  0.00000  1
 N  N1  1  0.00000  0.35937  0.26269  1
 N  N2  1  0.64063  0.00000  0.73731  1
 N  N3  1  0.35937  0.35937  0.73731  1
 N  N4  1  0.64063  0.64063  0.26269  1
 N  N5  1  1.00000  0.64063  0.73731  1
 N  N6  1  0.35937  0.00000  0.26269  1
