CIF file written using JARVIS-Tools package.
data_SrCN2
_symmetry_space_group_name_H-M  'R-3m'
_cell_length_a       5.57569
_cell_length_b       5.57569
_cell_length_c       5.57569
_cell_angle_alpha    41.5598
_cell_angle_beta     41.5598
_cell_angle_gamma    41.5598

_symmetry_Int_Tables_number  166
_chemical_formula_structural  SrCN2
_chemical_formula_sum  SrCN2
_cell_volume  68.9460500217862
_cell_formula_units_Z  1
loop_
  _symmetry_equiv_pos_site_id
 _symmetry_equiv_pos_as_xyz
 1  'x, y, z'
loop_
 _atom_site_type_symbol
 _atom_site_label
 _atom_site_symmetry_multiplicity
 _atom_site_fract_x
 _atom_site_fract_y
 _atom_site_fract_z
 _atom_site_fract_occupancy
 C  C1  1  0.00000  0.00000  0.00000  1
 N  N1  1  0.08102  0.08102  0.08102  1
 N  N2  1  0.91898  0.91898  0.91898  1
 Sr  Sr1  1  0.50000  0.50000  0.50000  1
