CIF file written using JARVIS-Tools package.
data_UPt3
_symmetry_space_group_name_H-M  'P6_3/mmc'
_cell_length_a       5.01365
_cell_length_b       5.7735
_cell_length_c       5.7735
_cell_angle_alpha    120.003
_cell_angle_beta     90
_cell_angle_gamma    90

_symmetry_Int_Tables_number  194
_chemical_formula_structural  UPt3
_chemical_formula_sum  U2Pt6
_cell_volume  144.7263556649621
_cell_formula_units_Z  2
loop_
  _symmetry_equiv_pos_site_id
 _symmetry_equiv_pos_as_xyz
 1  'x, y, z'
loop_
 _atom_site_type_symbol
 _atom_site_label
 _atom_site_symmetry_multiplicity
 _atom_site_fract_x
 _atom_site_fract_y
 _atom_site_fract_z
 _atom_site_fract_occupancy
 Pt  Pt1  1  0.75000  0.16507  0.33011  1
 Pt  Pt2  1  0.75000  0.16507  0.83493  1
 Pt  Pt3  1  0.75000  0.66989  0.83493  1
 Pt  Pt4  1  0.25000  0.83493  0.66989  1
 Pt  Pt5  1  0.25000  0.83493  0.16507  1
 Pt  Pt6  1  0.25000  0.33011  0.16507  1
 U  U1  1  0.75000  0.66668  0.33332  1
 U  U2  1  0.25000  0.33332  0.66668  1
