CIF file written using JARVIS-Tools package.
data_H8PtO6
_symmetry_space_group_name_H-M  'P1'
_cell_length_a       5.48188
_cell_length_b       5.46105
_cell_length_c       7.41782
_cell_angle_alpha    85.9301
_cell_angle_beta     91.3981
_cell_angle_gamma    96.3652

_symmetry_Int_Tables_number  1
_chemical_formula_structural  H8PtO6
_chemical_formula_sum  H6Pt2O2
_cell_volume  220.1101072228951
_cell_formula_units_Z  2
loop_
  _symmetry_equiv_pos_site_id
 _symmetry_equiv_pos_as_xyz
 1  'x, y, z'
loop_
 _atom_site_type_symbol
 _atom_site_label
 _atom_site_symmetry_multiplicity
 _atom_site_fract_x
 _atom_site_fract_y
 _atom_site_fract_z
 _atom_site_fract_occupancy
 H  H1  1  0.10621  0.60494  0.84129  1
 H  H2  1  0.37726  0.86775  0.35003  1
 H  H3  1  0.61337  0.18800  0.61051  1
 H  H4  1  0.73736  0.88508  0.74973  1
 H  H5  1  0.11170  0.25365  0.25836  1
 H  H6  1  0.21451  0.57254  0.11512  1
 H  H7  1  0.51525  0.14463  0.33558  1
 H  H8  1  0.83467  0.84267  0.21024  1
 H  H9  1  0.82922  0.47167  0.84335  1
 H  H10  1  0.52044  0.45589  0.50817  1
 H  H11  1  0.78250  0.36683  0.09768  1
 H  H12  1  0.39479  0.75826  0.60319  1
 H  H13  1  0.04629  0.03186  0.98551  1
 H  H14  1  0.15068  0.15421  0.71355  1
 H  H15  1  0.96364  0.94769  0.48427  1
 H  H16  1  0.46291  0.51771  0.00474  1
 O  O1  1  0.81791  0.85520  0.07356  1
 O  O2  1  0.95096  0.59163  0.76572  1
 O  O3  1  0.03710  0.41088  0.24931  1
 O  O4  1  0.39651  0.03086  0.26704  1
 O  O5  1  0.58190  0.96125  0.74671  1
 O  O6  1  0.64412  0.32368  0.50410  1
 O  O7  1  0.18720  0.14248  0.92697  1
 O  O8  1  0.34695  0.65621  0.49812  1
 O  O9  1  0.13243  0.17017  0.57671  1
 O  O10  1  0.32782  0.63939  0.00773  1
 O  O11  1  0.65920  0.34587  0.99583  1
 O  O12  1  0.85647  0.81204  0.42553  1
 Pt  Pt1  1  0.49929  -0.00469  0.00593  1
 Pt  Pt2  1  -0.00144  0.49448  0.50643  1
