CIF file written using JARVIS-Tools package.
data_S2N2Cl
_symmetry_space_group_name_H-M  'P2_1/c'
_cell_length_a       6.47061
_cell_length_b       9.4345
_cell_length_c       13.2186
_cell_angle_alpha    114.581
_cell_angle_beta     90
_cell_angle_gamma    90

_symmetry_Int_Tables_number  14
_chemical_formula_structural  S2N2Cl
_chemical_formula_sum  S6N6Cl8
_cell_volume  733.8213156850975
_cell_formula_units_Z  8
loop_
  _symmetry_equiv_pos_site_id
 _symmetry_equiv_pos_as_xyz
 1  'x, y, z'
loop_
 _atom_site_type_symbol
 _atom_site_label
 _atom_site_symmetry_multiplicity
 _atom_site_fract_x
 _atom_site_fract_y
 _atom_site_fract_z
 _atom_site_fract_occupancy
 Cl  Cl1  1  0.75213  0.41519  0.91173  1
 Cl  Cl2  1  0.85330  0.05048  0.42426  1
 Cl  Cl3  1  0.35330  0.94952  0.07574  1
 Cl  Cl4  1  0.25213  0.58481  0.58827  1
 Cl  Cl5  1  0.74787  0.41519  0.41173  1
 Cl  Cl6  1  0.14670  0.94952  0.57574  1
 Cl  Cl7  1  0.64670  0.05048  0.92426  1
 Cl  Cl8  1  0.24787  0.58481  0.08827  1
 N  N1  1  0.89297  0.64794  0.31362  1
 N  N2  1  0.60703  0.64794  0.81362  1
 N  N3  1  0.10703  0.35206  0.68638  1
 N  N4  1  0.75918  0.79920  0.69770  1
 N  N5  1  0.93242  0.10344  0.16591  1
 N  N6  1  0.91639  0.74827  0.95062  1
 N  N7  1  0.43242  0.89656  0.33409  1
 N  N8  1  0.56758  0.10344  0.66591  1
 N  N9  1  0.06758  0.89656  0.83409  1
 N  N10  1  0.74082  0.79920  0.19770  1
 N  N11  1  0.24082  0.20080  0.30230  1
 N  N12  1  0.08361  0.25173  0.04938  1
 N  N13  1  0.39297  0.35206  0.18638  1
 N  N14  1  0.58361  0.74827  0.45062  1
 N  N15  1  0.25918  0.20080  0.80230  1
 N  N16  1  0.41639  0.25173  0.54938  1
 S  S1  1  0.19299  0.32637  0.56673  1
 S  S2  1  0.73919  0.63778  0.21225  1
 S  S3  1  0.80701  0.67363  0.43327  1
 S  S4  1  0.12582  0.04653  0.21547  1
 S  S5  1  0.30701  0.32637  0.06673  1
 S  S6  1  0.06543  0.73364  0.84696  1
 S  S7  1  0.69299  0.67363  0.93327  1
 S  S8  1  0.76081  0.63778  0.71225  1
 S  S9  1  0.87418  0.95347  0.78453  1
 S  S10  1  0.43457  0.73364  0.34696  1
 S  S11  1  0.93457  0.26636  0.15304  1
 S  S12  1  0.56543  0.26636  0.65304  1
 S  S13  1  0.26081  0.36222  0.78775  1
 S  S14  1  0.62582  0.95347  0.28453  1
 S  S15  1  0.23919  0.36222  0.28775  1
 S  S16  1  0.37418  0.04653  0.71547  1
