CIF file written using JARVIS-Tools package.
data_Ti2Sn3
_symmetry_space_group_name_H-M  'Cmce'
_cell_length_a       5.99387
_cell_length_b       7.04706
_cell_length_c       10.4839
_cell_angle_alpha    89.998
_cell_angle_beta     106.61
_cell_angle_gamma    90.0001

_symmetry_Int_Tables_number  64
_chemical_formula_structural  Ti2Sn3
_chemical_formula_sum  Ti8Sn2
_cell_volume  424.35055493677186
_cell_formula_units_Z  4
loop_
  _symmetry_equiv_pos_site_id
 _symmetry_equiv_pos_as_xyz
 1  'x, y, z'
loop_
 _atom_site_type_symbol
 _atom_site_label
 _atom_site_symmetry_multiplicity
 _atom_site_fract_x
 _atom_site_fract_y
 _atom_site_fract_z
 _atom_site_fract_occupancy
 Sn  Sn1  1  0.77623  0.57293  0.55126  1
 Sn  Sn2  1  0.22489  0.42779  0.44851  1
 Sn  Sn3  1  0.23038  0.25036  0.95963  1
 Sn  Sn4  1  0.72489  0.07292  0.44851  1
 Sn  Sn5  1  0.27622  0.92778  0.55125  1
 Sn  Sn6  1  0.87930  0.92639  0.75743  1
 Sn  Sn7  1  0.12178  0.07436  0.24233  1
 Sn  Sn8  1  0.37929  0.57437  0.75742  1
 Sn  Sn9  1  0.73037  0.25041  0.95962  1
 Sn  Sn10  1  0.62179  0.42637  0.24234  1
 Sn  Sn11  1  0.27069  0.75034  0.04013  1
 Sn  Sn12  1  0.77069  0.75039  0.04012  1
 Ti  Ti1  1  0.41968  0.95426  0.83814  1
 Ti  Ti2  1  0.91969  0.54647  0.83814  1
 Ti  Ti3  1  0.08724  0.25037  0.67332  1
 Ti  Ti4  1  0.58139  0.04647  0.16161  1
 Ti  Ti5  1  0.41387  0.75039  0.32644  1
 Ti  Ti6  1  0.91386  0.75034  0.32643  1
 Ti  Ti7  1  0.58724  0.25037  0.67332  1
 Ti  Ti8  1  0.08140  0.45426  0.16162  1
