CIF file written using JARVIS-Tools package.
data_CuH4O2F2
_symmetry_space_group_name_H-M  'C2/m'
_cell_length_a       3.33303
_cell_length_b       5.33796
_cell_length_c       5.33796
_cell_angle_alpha    87.1934
_cell_angle_beta     115.187
_cell_angle_gamma    115.187

_symmetry_Int_Tables_number  12
_chemical_formula_structural  CuH4O2F2
_chemical_formula_sum  CuH4O2F2
_cell_volume  76.75117125340033
_cell_formula_units_Z  1
loop_
  _symmetry_equiv_pos_site_id
 _symmetry_equiv_pos_as_xyz
 1  'x, y, z'
loop_
 _atom_site_type_symbol
 _atom_site_label
 _atom_site_symmetry_multiplicity
 _atom_site_fract_x
 _atom_site_fract_y
 _atom_site_fract_z
 _atom_site_fract_occupancy
 Cu  Cu1  1  0.00000  0.00000  0.00000  1
 F  F1  1  0.94726  0.23721  0.23721  1
 F  F2  1  0.05274  0.76279  0.76279  1
 H  H1  1  0.00785  0.77025  0.44576  1
 H  H2  1  0.00785  0.44576  0.77025  1
 H  H3  1  0.99215  0.22975  0.55424  1
 H  H4  1  0.99215  0.55424  0.22975  1
 O  O1  1  0.00000  0.73944  0.26056  1
 O  O2  1  0.00000  0.26056  0.73944  1
