CIF file written using JARVIS-Tools package.
data_Fe3O5F
_symmetry_space_group_name_H-M  'P2_1'
_cell_length_a       5.18054
_cell_length_b       4.34654
_cell_length_c       7.18914
_cell_angle_alpha    90
_cell_angle_beta     93.1285
_cell_angle_gamma    90

_symmetry_Int_Tables_number  4
_chemical_formula_structural  Fe3O5F
_chemical_formula_sum  Fe6O0F2
_cell_volume  161.63953987268107
_cell_formula_units_Z  2
loop_
  _symmetry_equiv_pos_site_id
 _symmetry_equiv_pos_as_xyz
 1  'x, y, z'
loop_
 _atom_site_type_symbol
 _atom_site_label
 _atom_site_symmetry_multiplicity
 _atom_site_fract_x
 _atom_site_fract_y
 _atom_site_fract_z
 _atom_site_fract_occupancy
 F  F1  1  0.27958  0.80603  0.73288  1
 F  F2  1  0.72042  0.30603  0.26712  1
 Fe  Fe1  1  0.93089  0.97480  0.16235  1
 Fe  Fe2  1  0.25312  0.01545  0.48889  1
 Fe  Fe3  1  0.06911  0.47480  0.83765  1
 Fe  Fe4  1  0.74688  0.51545  0.51111  1
 Fe  Fe5  1  0.40791  0.51229  0.16412  1
 Fe  Fe6  1  0.59209  0.01229  0.83588  1
 O  O1  1  0.62110  0.80428  0.06749  1
 O  O2  1  0.95220  0.80891  0.39829  1
 O  O3  1  0.44860  0.69885  0.39984  1
 O  O4  1  0.78289  0.69425  0.73762  1
 O  O5  1  0.21711  0.19425  0.26238  1
 O  O6  1  0.37890  0.30428  0.93251  1
 O  O7  1  0.88065  0.18515  0.93817  1
 O  O8  1  0.55140  0.19885  0.60016  1
 O  O9  1  0.04780  0.30891  0.60171  1
 O  O10  1  0.11935  0.68515  0.06183  1
