CIF file written using JARVIS-Tools package.
data_CeCoGeH
_symmetry_space_group_name_H-M  'P4/nmm'
_cell_length_a       4.01021
_cell_length_b       4.01017
_cell_length_c       7.32156
_cell_angle_alpha    89.9984
_cell_angle_beta     89.998
_cell_angle_gamma    90.0054

_symmetry_Int_Tables_number  129
_chemical_formula_structural  CeCoGeH
_chemical_formula_sum  Ce2Co2Ge2H2
_cell_volume  117.74271814378513
_cell_formula_units_Z  2
loop_
  _symmetry_equiv_pos_site_id
 _symmetry_equiv_pos_as_xyz
 1  'x, y, z'
loop_
 _atom_site_type_symbol
 _atom_site_label
 _atom_site_symmetry_multiplicity
 _atom_site_fract_x
 _atom_site_fract_y
 _atom_site_fract_z
 _atom_site_fract_occupancy
 Ce  Ce1  1  0.75000  0.75000  0.32450  1
 Ce  Ce2  1  0.25000  0.25000  0.67551  1
 Co  Co1  1  0.75000  0.24999  0.99999  1
 Co  Co2  1  0.25000  0.75001  1.00000  1
 Ge  Ge1  1  0.75000  0.75000  0.82508  1
 Ge  Ge2  1  0.25000  0.25000  0.17491  1
 H  H1  1  0.24999  0.75001  0.50001  1
 H  H2  1  0.75001  0.24999  0.50001  1
