CIF file written using JARVIS-Tools package.
data_V2CuO6
_symmetry_space_group_name_H-M  'P-1'
_cell_length_a       3.57566
_cell_length_b       5.02444
_cell_length_c       6.49768
_cell_angle_alpha    107.976
_cell_angle_beta     93.2418
_cell_angle_gamma    112.983

_symmetry_Int_Tables_number  2
_chemical_formula_structural  V2CuO6
_chemical_formula_sum  V2CuO6
_cell_volume  100.11185697122522
_cell_formula_units_Z  1
loop_
  _symmetry_equiv_pos_site_id
 _symmetry_equiv_pos_as_xyz
 1  'x, y, z'
loop_
 _atom_site_type_symbol
 _atom_site_label
 _atom_site_symmetry_multiplicity
 _atom_site_fract_x
 _atom_site_fract_y
 _atom_site_fract_z
 _atom_site_fract_occupancy
 Cu  Cu1  1  0.99802  -0.00002  -0.00001  1
 O  O1  1  0.02922  0.05188  0.71989  1
 O  O2  1  0.96679  0.94812  0.28011  1
 O  O3  1  0.40730  0.68504  0.89089  1
 O  O4  1  0.58870  0.31497  0.10911  1
 O  O5  1  0.29853  0.61410  0.43163  1
 O  O6  1  0.69746  0.38591  0.56837  1
 V  V1  1  0.20521  0.37867  0.65093  1
 V  V2  1  0.79077  0.62134  0.34907  1
