CIF file written using JARVIS-Tools package.
data_HoGeAu
_symmetry_space_group_name_H-M  'P6_3mc'
_cell_length_a       4.45376
_cell_length_b       4.45376
_cell_length_c       7.26706
_cell_angle_alpha    90
_cell_angle_beta     90
_cell_angle_gamma    120

_symmetry_Int_Tables_number  186
_chemical_formula_structural  HoGeAu
_chemical_formula_sum  Ho2Ge2Au2
_cell_volume  124.83675302454007
_cell_formula_units_Z  2
loop_
  _symmetry_equiv_pos_site_id
 _symmetry_equiv_pos_as_xyz
 1  'x, y, z'
loop_
 _atom_site_type_symbol
 _atom_site_label
 _atom_site_symmetry_multiplicity
 _atom_site_fract_x
 _atom_site_fract_y
 _atom_site_fract_z
 _atom_site_fract_occupancy
 Au  Au1  1  0.66667  0.33333  0.66801  1
 Au  Au2  1  0.33333  0.66667  0.16801  1
 Ge  Ge1  1  0.33333  0.66667  0.75434  1
 Ge  Ge2  1  0.66667  0.33333  0.25434  1
 Ho  Ho1  1  0.00000  0.00000  0.46095  1
 Ho  Ho2  1  0.00000  0.00000  0.96095  1
