CIF file written using JARVIS-Tools package.
data_Mg2Al4Si5O18
_symmetry_space_group_name_H-M  'Cccm'
_cell_length_a       9.40675
_cell_length_b       9.78155
_cell_length_c       9.89309
_cell_angle_alpha    119.628
_cell_angle_beta     90
_cell_angle_gamma    90

_symmetry_Int_Tables_number  66
_chemical_formula_structural  Mg2Al4Si5O18
_chemical_formula_sum  Mg4Al8Si0O36
_cell_volume  791.274381076524
_cell_formula_units_Z  2
loop_
  _symmetry_equiv_pos_site_id
 _symmetry_equiv_pos_as_xyz
 1  'x, y, z'
loop_
 _atom_site_type_symbol
 _atom_site_label
 _atom_site_symmetry_multiplicity
 _atom_site_fract_x
 _atom_site_fract_y
 _atom_site_fract_z
 _atom_site_fract_occupancy
 Al  Al1  1  0.00000  0.25672  0.89772  1
 Al  Al2  1  0.50000  0.64100  0.89772  1
 Al  Al3  1  0.00000  0.74328  0.10228  1
 Al  Al4  1  0.50000  0.35900  0.10228  1
 Al  Al5  1  0.74974  0.00000  0.50000  1
 Al  Al6  1  0.24974  0.50000  0.50000  1
 Al  Al7  1  0.25026  0.00000  0.50000  1
 Al  Al8  1  0.75026  0.50000  0.50000  1
 Mg  Mg1  1  0.25000  0.66246  0.32491  1
 Mg  Mg2  1  0.75000  0.33754  0.67509  1
 Mg  Mg3  1  0.25000  0.33754  0.67509  1
 Mg  Mg4  1  0.75000  0.66246  0.32491  1
 O  O1  1  0.00000  0.06195  0.75442  1
 O  O2  1  0.00000  0.24573  0.33056  1
 O  O3  1  0.00000  0.75427  0.66944  1
 O  O4  1  0.50000  0.20567  0.91396  1
 O  O5  1  0.50000  0.79433  0.08604  1
 O  O6  1  0.00000  0.29172  0.08604  1
 O  O7  1  0.00000  0.70828  0.91396  1
 O  O8  1  0.50000  0.30753  0.24558  1
 O  O9  1  0.50000  0.69247  0.75442  1
 O  O10  1  0.00000  0.93805  0.24558  1
 O  O11  1  0.35838  0.35035  0.49583  1
 O  O12  1  0.64189  0.13822  0.65326  1
 O  O13  1  0.14162  0.14548  0.49583  1
 O  O14  1  0.14189  0.48496  0.34674  1
 O  O15  1  0.35838  0.64965  0.50417  1
 O  O16  1  0.50000  0.08483  0.33056  1
 O  O17  1  0.85838  0.85452  0.50417  1
 O  O18  1  0.85838  0.14548  0.49583  1
 O  O19  1  0.64162  0.35035  0.49583  1
 O  O20  1  0.64162  0.64965  0.50417  1
 O  O21  1  0.64189  0.86178  0.34674  1
 O  O22  1  0.50000  0.91517  0.66944  1
 O  O23  1  0.84906  0.35358  0.87417  1
 O  O24  1  0.35811  0.13822  0.65326  1
 O  O25  1  0.35811  0.86178  0.34674  1
 O  O26  1  0.14162  0.85452  0.50417  1
 O  O27  1  0.85811  0.51504  0.65326  1
 O  O28  1  0.14189  0.51504  0.65326  1
 O  O29  1  0.65094  0.52060  0.87417  1
 O  O30  1  0.34906  0.52060  0.87417  1
 O  O31  1  0.84906  0.64642  0.12583  1
 O  O32  1  0.15094  0.35358  0.87417  1
 O  O33  1  0.34906  0.47940  0.12583  1
 O  O34  1  0.15094  0.64642  0.12583  1
 O  O35  1  0.85811  0.48496  0.34674  1
 O  O36  1  0.65094  0.47940  0.12583  1
 Si  Si1  1  0.50000  0.72940  0.61397  1
 Si  Si2  1  0.00000  0.37338  0.27018  1
 Si  Si3  1  0.00000  0.62662  0.72982  1
 Si  Si4  1  0.25000  0.50000  -0.00000  1
 Si  Si5  1  0.75000  0.50000  -0.00000  1
 Si  Si6  1  0.00000  0.11543  0.38603  1
 Si  Si7  1  0.00000  0.88457  0.61397  1
 Si  Si8  1  0.50000  0.27060  0.38603  1
 Si  Si9  1  0.50000  0.10320  0.72982  1
 Si  Si10  1  0.50000  0.89680  0.27018  1
