CIF file written using JARVIS-Tools package.
data_Ta5Ge3
_symmetry_space_group_name_H-M  'I4/mcm'
_cell_length_a       5.19358
_cell_length_b       7.63874
_cell_length_c       7.63874
_cell_angle_alpha    83.3637
_cell_angle_beta     70.1262
_cell_angle_gamma    70.1262

_symmetry_Int_Tables_number  140
_chemical_formula_structural  Ta5Ge3
_chemical_formula_sum  Ta0Ge6
_cell_volume  268.0252239403859
_cell_formula_units_Z  2
loop_
  _symmetry_equiv_pos_site_id
 _symmetry_equiv_pos_as_xyz
 1  'x, y, z'
loop_
 _atom_site_type_symbol
 _atom_site_label
 _atom_site_symmetry_multiplicity
 _atom_site_fract_x
 _atom_site_fract_y
 _atom_site_fract_z
 _atom_site_fract_occupancy
 Ge  Ge1  1  0.83303  0.50000  0.83394  1
 Ge  Ge2  1  0.66697  0.16606  0.50000  1
 Ge  Ge3  1  0.33303  0.83394  0.50000  1
 Ge  Ge4  1  0.16697  0.50000  0.16606  1
 Ge  Ge5  1  0.75000  0.00000  -0.00000  1
 Ge  Ge6  1  0.25000  0.00000  0.00000  1
 Ta  Ta1  1  0.27600  0.14963  0.29837  1
 Ta  Ta2  1  0.72400  0.85037  0.70163  1
 Ta  Ta3  1  0.42563  0.29837  0.85037  1
 Ta  Ta4  1  0.57437  0.70163  0.14963  1
 Ta  Ta5  1  0.92563  0.85037  0.29837  1
 Ta  Ta6  1  0.22400  0.70163  0.85037  1
 Ta  Ta7  1  0.77600  0.29837  0.14963  1
 Ta  Ta8  1  0.07437  0.14963  0.70163  1
 Ta  Ta9  1  0.75000  0.50000  0.50000  1
 Ta  Ta10  1  0.25000  0.50000  0.50000  1
