CIF file written using JARVIS-Tools package.
data_Te7O6F30
_symmetry_space_group_name_H-M  'R-3'
_cell_length_a       10.3685
_cell_length_b       10.3685
_cell_length_c       10.3685
_cell_angle_alpha    48.9183
_cell_angle_beta     48.9182
_cell_angle_gamma    48.9183

_symmetry_Int_Tables_number  148
_chemical_formula_structural  Te7O6F30
_chemical_formula_sum  Te7O6F30
_cell_volume  581.4113324341774
_cell_formula_units_Z  1
loop_
  _symmetry_equiv_pos_site_id
 _symmetry_equiv_pos_as_xyz
 1  'x, y, z'
loop_
 _atom_site_type_symbol
 _atom_site_label
 _atom_site_symmetry_multiplicity
 _atom_site_fract_x
 _atom_site_fract_y
 _atom_site_fract_z
 _atom_site_fract_occupancy
 F  F1  1  0.89642  0.24752  0.22657  1
 F  F2  1  0.57172  0.94128  0.61419  1
 F  F3  1  0.39551  0.72845  0.74120  1
 F  F4  1  0.24752  0.22657  0.89642  1
 F  F5  1  0.78123  0.40562  0.44517  1
 F  F6  1  0.74120  0.39551  0.72845  1
 F  F7  1  0.40562  0.44517  0.78123  1
 F  F8  1  0.05872  0.38581  0.42828  1
 F  F9  1  0.54598  0.91095  0.90103  1
 F  F10  1  0.90103  0.54598  0.91095  1
 F  F11  1  0.08905  0.09897  0.45402  1
 F  F12  1  0.55483  0.21877  0.59438  1
 F  F13  1  0.42828  0.05872  0.38581  1
 F  F14  1  0.09897  0.45402  0.08905  1
 F  F15  1  0.38581  0.42828  0.05872  1
 F  F16  1  0.59438  0.55483  0.21877  1
 F  F17  1  0.94128  0.61419  0.57172  1
 F  F18  1  0.45402  0.08905  0.09897  1
 F  F19  1  0.61419  0.57172  0.94128  1
 F  F20  1  0.77343  0.10358  0.75248  1
 F  F21  1  0.44517  0.78123  0.40562  1
 F  F22  1  0.72845  0.74120  0.39551  1
 F  F23  1  0.60449  0.27155  0.25880  1
 F  F24  1  0.91095  0.90103  0.54598  1
 F  F25  1  0.22657  0.89642  0.24752  1
 F  F26  1  0.75248  0.77343  0.10358  1
 F  F27  1  0.10358  0.75248  0.77343  1
 F  F28  1  0.27155  0.25880  0.60449  1
 F  F29  1  0.25880  0.60449  0.27155  1
 F  F30  1  0.21877  0.59438  0.55483  1
 O  O1  1  0.74226  0.06141  0.07557  1
 O  O2  1  0.93859  0.92443  0.25774  1
 O  O3  1  0.07557  0.74226  0.06141  1
 O  O4  1  0.06141  0.07557  0.74226  1
 O  O5  1  0.25774  0.93859  0.92443  1
 O  O6  1  0.92443  0.25774  0.93859  1
 Te  Te1  1  0.24465  0.59346  0.91572  1
 Te  Te2  1  0.40654  0.08428  0.75535  1
 Te  Te3  1  0.00000  0.00000  0.00000  1
 Te  Te4  1  0.75535  0.40654  0.08428  1
 Te  Te5  1  0.91572  0.24465  0.59346  1
 Te  Te6  1  0.08428  0.75535  0.40654  1
 Te  Te7  1  0.59346  0.91572  0.24465  1
