CIF file written using JARVIS-Tools package.
data_Ho2TiO5
_symmetry_space_group_name_H-M  'Cmcm'
_cell_length_a       4.05099
_cell_length_b       5.86639
_cell_length_c       10.4524
_cell_angle_alpha    90
_cell_angle_beta     90
_cell_angle_gamma    69.8017

_symmetry_Int_Tables_number  63
_chemical_formula_structural  Ho2TiO5
_chemical_formula_sum  Ho4Ti2O0
_cell_volume  233.12321386811917
_cell_formula_units_Z  2
loop_
  _symmetry_equiv_pos_site_id
 _symmetry_equiv_pos_as_xyz
 1  'x, y, z'
loop_
 _atom_site_type_symbol
 _atom_site_label
 _atom_site_symmetry_multiplicity
 _atom_site_fract_x
 _atom_site_fract_y
 _atom_site_fract_z
 _atom_site_fract_occupancy
 Ho  Ho1  1  0.14294  0.71413  0.92977  1
 Ho  Ho2  1  0.14294  0.71413  0.57023  1
 Ho  Ho3  1  0.85706  0.28587  0.07023  1
 Ho  Ho4  1  0.85706  0.28587  0.42977  1
 O  O1  1  0.05050  0.89900  0.37695  1
 O  O2  1  0.05050  0.89900  0.12305  1
 O  O3  1  0.71076  0.57847  0.90828  1
 O  O4  1  0.71076  0.57847  0.59172  1
 O  O5  1  0.27658  0.44684  0.75000  1
 O  O6  1  0.72342  0.55316  0.25000  1
 O  O7  1  0.28924  0.42153  0.09172  1
 O  O8  1  0.28924  0.42153  0.40828  1
 O  O9  1  0.94950  0.10100  0.62305  1
 O  O10  1  0.94950  0.10100  0.87695  1
 Ti  Ti1  1  0.17052  0.65896  0.25000  1
 Ti  Ti2  1  0.82948  0.34104  0.75000  1
