CIF file written using JARVIS-Tools package.
data_Na3Mn5O12
_symmetry_space_group_name_H-M  'P2/m'
_cell_length_a       4.94755
_cell_length_b       8.53327
_cell_length_c       5.78338
_cell_angle_alpha    90
_cell_angle_beta     107.902
_cell_angle_gamma    90

_symmetry_Int_Tables_number  10
_chemical_formula_structural  Na3Mn5O12
_chemical_formula_sum  Na3Mn5O2
_cell_volume  232.34536656930274
_cell_formula_units_Z  1
loop_
  _symmetry_equiv_pos_site_id
 _symmetry_equiv_pos_as_xyz
 1  'x, y, z'
loop_
 _atom_site_type_symbol
 _atom_site_label
 _atom_site_symmetry_multiplicity
 _atom_site_fract_x
 _atom_site_fract_y
 _atom_site_fract_z
 _atom_site_fract_occupancy
 Mn  Mn1  1  0.00000  0.82376  0.00000  1
 Mn  Mn2  1  0.00000  0.17624  0.00000  1
 Mn  Mn3  1  0.50000  0.66025  0.00000  1
 Mn  Mn4  1  0.50000  0.33975  0.00000  1
 Mn  Mn5  1  0.50000  0.00000  0.00000  1
 Na  Na1  1  0.00000  0.69999  0.50000  1
 Na  Na2  1  0.00000  0.30001  0.50000  1
 Na  Na3  1  0.50000  0.50000  0.50000  1
 O  O1  1  0.73160  0.83273  0.17942  1
 O  O2  1  0.22833  0.00000  0.17042  1
 O  O3  1  0.75127  0.68355  0.80966  1
 O  O4  1  0.73160  0.16727  0.17942  1
 O  O5  1  0.70273  0.50000  0.19961  1
 O  O6  1  0.24873  0.31645  0.19034  1
 O  O7  1  0.24873  0.68355  0.19034  1
 O  O8  1  0.77167  0.00000  0.82958  1
 O  O9  1  0.26840  0.83273  0.82058  1
 O  O10  1  0.29727  0.50000  0.80039  1
 O  O11  1  0.75127  0.31645  0.80966  1
 O  O12  1  0.26840  0.16727  0.82058  1
