CIF file written using JARVIS-Tools package.
data_LaCN2F
_symmetry_space_group_name_H-M  'Cmcm'
_cell_length_a       3.87153
_cell_length_b       4.79188
_cell_length_c       7.81885
_cell_angle_alpha    90
_cell_angle_beta     90
_cell_angle_gamma    113.826

_symmetry_Int_Tables_number  63
_chemical_formula_structural  LaCN2F
_chemical_formula_sum  La2C2N4F2
_cell_volume  132.69191509619492
_cell_formula_units_Z  2
loop_
  _symmetry_equiv_pos_site_id
 _symmetry_equiv_pos_as_xyz
 1  'x, y, z'
loop_
 _atom_site_type_symbol
 _atom_site_label
 _atom_site_symmetry_multiplicity
 _atom_site_fract_x
 _atom_site_fract_y
 _atom_site_fract_z
 _atom_site_fract_occupancy
 C  C1  1  0.50000  0.00000  0.50000  1
 C  C2  1  0.50000  0.00000  0.00000  1
 F  F1  1  0.91900  0.83801  0.75000  1
 F  F2  1  0.08100  0.16199  0.25000  1
 La  La1  1  0.77778  0.55556  0.25000  1
 La  La2  1  0.22222  0.44444  0.75000  1
 N  N1  1  0.36788  0.73577  0.05218  1
 N  N2  1  0.63212  0.26423  0.55218  1
 N  N3  1  0.36788  0.73577  0.44782  1
 N  N4  1  0.63212  0.26423  0.94782  1
