CIF file written using JARVIS-Tools package.
data_ScU3S6
_symmetry_space_group_name_H-M  'Pnnm'
_cell_length_a       3.76889
_cell_length_b       13.374
_cell_length_c       16.4379
_cell_angle_alpha    90
_cell_angle_beta     90
_cell_angle_gamma    90

_symmetry_Int_Tables_number  58
_chemical_formula_structural  ScU3S6
_chemical_formula_sum  Sc4U2S24
_cell_volume  828.5533716101888
_cell_formula_units_Z  4
loop_
  _symmetry_equiv_pos_site_id
 _symmetry_equiv_pos_as_xyz
 1  'x, y, z'
loop_
 _atom_site_type_symbol
 _atom_site_label
 _atom_site_symmetry_multiplicity
 _atom_site_fract_x
 _atom_site_fract_y
 _atom_site_fract_z
 _atom_site_fract_occupancy
 S  S1  1  0.00000  0.37340  0.60753  1
 S  S2  1  0.50000  0.18619  0.28712  1
 S  S3  1  0.00000  0.31381  0.78712  1
 S  S4  1  0.00000  0.68619  0.21288  1
 S  S5  1  0.50000  0.52520  0.10624  1
 S  S6  1  0.50000  0.47480  0.89376  1
 S  S7  1  0.00000  0.02520  0.39376  1
 S  S8  1  0.00000  0.97480  0.60624  1
 S  S9  1  0.00000  0.09247  0.92173  1
 S  S10  1  0.50000  0.40753  0.42173  1
 S  S11  1  0.00000  0.31088  0.02346  1
 S  S12  1  0.00000  0.68912  0.97654  1
 S  S13  1  0.50000  0.89991  0.24538  1
 S  S14  1  0.50000  0.10009  0.75462  1
 S  S15  1  0.00000  0.39991  0.25462  1
 S  S16  1  0.00000  0.60009  0.74538  1
 S  S17  1  0.00000  0.90753  0.07827  1
 S  S18  1  0.50000  0.81088  0.47654  1
 S  S19  1  0.50000  0.81381  0.71288  1
 S  S20  1  0.50000  0.59247  0.57827  1
 S  S21  1  0.50000  0.12660  0.10753  1
 S  S22  1  0.50000  0.87340  0.89247  1
 S  S23  1  0.00000  0.62660  0.39247  1
 S  S24  1  0.50000  0.18912  0.52346  1
 Sc  Sc1  1  0.00000  0.50000  0.00000  1
 Sc  Sc2  1  0.50000  0.00000  0.00000  1
 Sc  Sc3  1  0.00000  0.50000  0.50000  1
 Sc  Sc4  1  0.50000  0.00000  0.50000  1
 U  U1  1  0.00000  0.75112  0.59903  1
 U  U2  1  0.50000  0.55124  0.28425  1
 U  U3  1  0.50000  0.25112  0.90097  1
 U  U4  1  0.50000  0.32127  0.15020  1
 U  U5  1  0.00000  0.17873  0.65020  1
 U  U6  1  0.50000  0.67873  0.84980  1
 U  U7  1  0.00000  0.94876  0.78425  1
 U  U8  1  0.50000  0.44876  0.71575  1
 U  U9  1  0.00000  0.82127  0.34980  1
 U  U10  1  0.00000  0.05124  0.21575  1
 U  U11  1  0.00000  0.24888  0.40097  1
 U  U12  1  0.50000  0.74888  0.09903  1
