CIF file written using JARVIS-Tools package.
data_Sc4Ge6Rh7
_symmetry_space_group_name_H-M  'R-3m'
_cell_length_a       7.15828
_cell_length_b       7.15828
_cell_length_c       7.15827
_cell_angle_alpha    109.537
_cell_angle_beta     109.537
_cell_angle_gamma    109.537

_symmetry_Int_Tables_number  166
_chemical_formula_structural  Sc4Ge6Rh7
_chemical_formula_sum  Sc4Ge6Rh7
_cell_volume  281.67255749209284
_cell_formula_units_Z  1
loop_
  _symmetry_equiv_pos_site_id
 _symmetry_equiv_pos_as_xyz
 1  'x, y, z'
loop_
 _atom_site_type_symbol
 _atom_site_label
 _atom_site_symmetry_multiplicity
 _atom_site_fract_x
 _atom_site_fract_y
 _atom_site_fract_z
 _atom_site_fract_occupancy
 Ge  Ge1  1  0.32993  0.01287  0.32993  1
 Ge  Ge2  1  -0.01287  0.67007  0.67007  1
 Ge  Ge3  1  0.01287  0.32993  0.32993  1
 Ge  Ge4  1  0.67007  0.67007  -0.01287  1
 Ge  Ge5  1  0.67007  -0.01287  0.67007  1
 Ge  Ge6  1  0.32993  0.32993  0.01287  1
 Rh  Rh1  1  0.50000  0.25081  0.74919  1
 Rh  Rh2  1  0.25081  0.74919  0.50000  1
 Rh  Rh3  1  0.74919  0.25081  0.50000  1
 Rh  Rh4  1  0.74919  0.50000  0.25081  1
 Rh  Rh5  1  0.25081  0.50000  0.74919  1
 Rh  Rh6  1  0.50000  0.50000  0.50000  1
 Rh  Rh7  1  0.50000  0.74919  0.25081  1
 Sc  Sc1  1  -0.00000  -0.00000  0.50000  1
 Sc  Sc2  1  0.50000  -0.00000  0.00000  1
 Sc  Sc3  1  0.00000  0.50000  -0.00000  1
 Sc  Sc4  1  0.00000  0.00000  0.00000  1
