CIF file written using JARVIS-Tools package.
data_Ba5Ga5Sn
_symmetry_space_group_name_H-M  'P-6m2'
_cell_length_a       6.05378
_cell_length_b       6.05378
_cell_length_c       10.865
_cell_angle_alpha    90
_cell_angle_beta     90
_cell_angle_gamma    120

_symmetry_Int_Tables_number  187
_chemical_formula_structural  Ba5Ga5Sn
_chemical_formula_sum  Ba5Ga5Sn
_cell_volume  344.8364345713963
_cell_formula_units_Z  1
loop_
  _symmetry_equiv_pos_site_id
 _symmetry_equiv_pos_as_xyz
 1  'x, y, z'
loop_
 _atom_site_type_symbol
 _atom_site_label
 _atom_site_symmetry_multiplicity
 _atom_site_fract_x
 _atom_site_fract_y
 _atom_site_fract_z
 _atom_site_fract_occupancy
 Ba  Ba1  1  0.00000  0.00000  0.66937  1
 Ba  Ba2  1  0.66667  0.33333  0.79695  1
 Ba  Ba3  1  0.66667  0.33333  0.20305  1
 Ba  Ba4  1  0.33333  0.66667  0.00000  1
 Ba  Ba5  1  0.00000  0.00000  0.33063  1
 Ga  Ga1  1  0.51588  0.48412  0.50000  1
 Ga  Ga2  1  0.96824  0.48412  0.50000  1
 Ga  Ga3  1  0.51588  0.03176  0.50000  1
 Ga  Ga4  1  0.33333  0.66667  0.67490  1
 Ga  Ga5  1  0.33333  0.66667  0.32510  1
 Sn  Sn1  1  0.00000  0.00000  0.00000  1
