CIF file written using JARVIS-Tools package.
data_Sn4SF6
_symmetry_space_group_name_H-M  'Cmc2_1'
_cell_length_a       8.61157
_cell_length_b       7.57703
_cell_length_c       8.55867
_cell_angle_alpha    90
_cell_angle_beta     90
_cell_angle_gamma    124.632

_symmetry_Int_Tables_number  36
_chemical_formula_structural  Sn4SF6
_chemical_formula_sum  Sn8S2F2
_cell_volume  459.50781468449605
_cell_formula_units_Z  2
loop_
  _symmetry_equiv_pos_site_id
 _symmetry_equiv_pos_as_xyz
 1  'x, y, z'
loop_
 _atom_site_type_symbol
 _atom_site_label
 _atom_site_symmetry_multiplicity
 _atom_site_fract_x
 _atom_site_fract_y
 _atom_site_fract_z
 _atom_site_fract_occupancy
 F  F1  1  0.50434  0.50690  0.82272  1
 F  F2  1  0.61408  0.22882  0.71224  1
 F  F3  1  0.08344  0.81210  0.09424  1
 F  F4  1  0.14416  0.28921  0.89894  1
 F  F5  1  0.27077  0.18752  0.59459  1
 F  F6  1  0.72923  0.81248  0.09459  1
 F  F7  1  0.85584  0.71079  0.39895  1
 F  F8  1  0.49566  0.49310  0.32272  1
 F  F9  1  0.38592  0.77118  0.21224  1
 F  F10  1  0.99805  0.49313  0.32213  1
 F  F11  1  0.00195  0.50687  0.82213  1
 F  F12  1  0.91656  0.18790  0.59424  1
 S  S1  1  0.66085  0.32164  0.06458  1
 S  S2  1  0.33915  0.67836  0.56458  1
 Sn  Sn1  1  0.84512  0.69042  0.92654  1
 Sn  Sn2  1  0.80653  0.15936  0.83337  1
 Sn  Sn3  1  0.35254  0.15945  0.83366  1
 Sn  Sn4  1  0.15488  0.30958  0.42654  1
 Sn  Sn5  1  0.19347  0.84064  0.33338  1
 Sn  Sn6  1  0.64746  0.84055  0.33366  1
 Sn  Sn7  1  0.68199  0.36330  0.36787  1
 Sn  Sn8  1  0.31801  0.63670  0.86787  1
