CIF file written using JARVIS-Tools package.
data_Na2TeH10O8
_symmetry_space_group_name_H-M  'C2/c'
_cell_length_a       7.67114
_cell_length_b       7.67114
_cell_length_c       17.0222
_cell_angle_alpha    83.9648
_cell_angle_beta     96.0352
_cell_angle_gamma    122.686

_symmetry_Int_Tables_number  15
_chemical_formula_structural  Na2TeH10O8
_chemical_formula_sum  Na8Te4H40O32
_cell_volume  836.9894886748702
_cell_formula_units_Z  4
loop_
  _symmetry_equiv_pos_site_id
 _symmetry_equiv_pos_as_xyz
 1  'x, y, z'
loop_
 _atom_site_type_symbol
 _atom_site_label
 _atom_site_symmetry_multiplicity
 _atom_site_fract_x
 _atom_site_fract_y
 _atom_site_fract_z
 _atom_site_fract_occupancy
 H  H1  1  0.43296  0.84047  0.45892  1
 H  H2  1  0.90121  0.79591  0.84438  1
 H  H3  1  0.20409  0.09879  0.34438  1
 H  H4  1  0.09879  0.20409  0.15562  1
 H  H5  1  0.23181  0.12473  0.84271  1
 H  H6  1  0.91104  0.58808  0.84413  1
 H  H7  1  0.41192  0.08896  0.34413  1
 H  H8  1  0.08896  0.41192  0.15587  1
 H  H9  1  0.79591  0.90121  0.65562  1
 H  H10  1  0.19476  0.12586  0.04554  1
 H  H11  1  0.80524  0.87414  0.95446  1
 H  H12  1  0.87777  0.55679  0.34005  1
 H  H13  1  0.55679  0.87777  0.15995  1
 H  H14  1  0.77442  0.46931  0.64670  1
 H  H15  1  0.46931  0.77442  0.85330  1
 H  H16  1  0.53069  0.22558  0.14670  1
 H  H17  1  0.55489  0.25325  0.64732  1
 H  H18  1  0.12473  0.23181  0.65729  1
 H  H19  1  0.58808  0.91104  0.65587  1
 H  H20  1  0.12586  0.19476  0.45446  1
 H  H21  1  0.87414  0.80524  0.54554  1
 H  H22  1  0.44321  0.12223  0.84005  1
 H  H23  1  0.84047  0.43296  0.04108  1
 H  H24  1  0.12223  0.44321  0.65995  1
 H  H25  1  0.14871  0.63399  0.04360  1
 H  H26  1  0.63399  0.14871  0.45640  1
 H  H27  1  0.85129  0.36601  0.95640  1
 H  H28  1  0.36601  0.85129  0.54360  1
 H  H29  1  0.15953  0.56704  0.95892  1
 H  H30  1  0.56704  0.15953  0.54108  1
 H  H31  1  0.22558  0.53069  0.35330  1
 H  H32  1  0.74675  0.44511  0.14732  1
 H  H33  1  0.87527  0.76819  0.34271  1
 H  H34  1  0.76819  0.87527  0.15729  1
 H  H35  1  0.83204  0.84329  0.45519  1
 H  H36  1  0.84329  0.83204  0.04481  1
 H  H37  1  0.16796  0.15671  0.54481  1
 H  H38  1  0.15671  0.16796  0.95519  1
 H  H39  1  0.25325  0.55489  0.85268  1
 H  H40  1  0.44511  0.74675  0.35268  1
 Na  Na1  1  0.46905  0.56404  0.57516  1
 Na  Na2  1  0.50000  0.00000  0.00000  1
 Na  Na3  1  -0.00000  0.50000  0.50000  1
 Na  Na4  1  0.48363  0.48363  0.25000  1
 Na  Na5  1  0.51637  0.51637  0.75000  1
 Na  Na6  1  0.43596  0.53095  0.07516  1
 Na  Na7  1  0.53095  0.43596  0.42484  1
 Na  Na8  1  0.56404  0.46905  0.92484  1
 O  O1  1  0.79426  0.62233  0.32740  1
 O  O2  1  0.37767  0.20574  0.82740  1
 O  O3  1  0.20574  0.37767  0.67260  1
 O  O4  1  0.40250  0.96855  0.13403  1
 O  O5  1  0.96855  0.40250  0.36597  1
 O  O6  1  0.59750  0.03145  0.86597  1
 O  O7  1  0.03145  0.59750  0.63403  1
 O  O8  1  0.00735  0.57944  0.12574  1
 O  O9  1  0.96245  0.02379  0.37449  1
 O  O10  1  0.42056  0.99265  0.62574  1
 O  O11  1  0.02379  0.96245  0.12551  1
 O  O12  1  0.99265  0.42056  0.87426  1
 O  O13  1  0.97621  0.03755  0.87449  1
 O  O14  1  0.03755  0.97621  0.62551  1
 O  O15  1  0.65833  0.24404  0.49773  1
 O  O16  1  0.57944  0.00735  0.37426  1
 O  O17  1  0.62233  0.79426  0.17260  1
 O  O18  1  0.59594  0.37677  0.15424  1
 O  O19  1  0.78076  0.73354  0.49906  1
 O  O20  1  0.75596  0.34167  0.99773  1
 O  O21  1  0.73354  0.78076  0.00094  1
 O  O22  1  0.21924  0.26646  0.50094  1
 O  O23  1  0.26646  0.21924  0.99906  1
 O  O24  1  0.17141  0.34803  0.17353  1
 O  O25  1  0.82859  0.65197  0.82647  1
 O  O26  1  0.65197  0.82859  0.67353  1
 O  O27  1  0.37677  0.59594  0.34576  1
 O  O28  1  0.62323  0.40406  0.65424  1
 O  O29  1  0.40406  0.62323  0.84576  1
 O  O30  1  0.34167  0.75596  0.50227  1
 O  O31  1  0.34803  0.17141  0.32647  1
 O  O32  1  0.24404  0.65833  0.00227  1
 Te  Te1  1  0.17443  0.85268  0.68325  1
 Te  Te2  1  0.14732  0.82557  0.18325  1
 Te  Te3  1  0.82557  0.14732  0.31675  1
 Te  Te4  1  0.85268  0.17443  0.81675  1
