CIF file written using JARVIS-Tools package.
data_LiBS2O8
_symmetry_space_group_name_H-M  'Pc'
_cell_length_a       7.60501
_cell_length_b       9.2454
_cell_length_c       8.53384
_cell_angle_alpha    90
_cell_angle_beta     92.7498
_cell_angle_gamma    90

_symmetry_Int_Tables_number  7
_chemical_formula_structural  LiBS2O8
_chemical_formula_sum  Li4B4S8O32
_cell_volume  599.3344035179051
_cell_formula_units_Z  4
loop_
  _symmetry_equiv_pos_site_id
 _symmetry_equiv_pos_as_xyz
 1  'x, y, z'
loop_
 _atom_site_type_symbol
 _atom_site_label
 _atom_site_symmetry_multiplicity
 _atom_site_fract_x
 _atom_site_fract_y
 _atom_site_fract_z
 _atom_site_fract_occupancy
 B  B1  1  0.21730  0.40424  0.01939  1
 B  B2  1  0.21730  0.59576  0.51939  1
 B  B3  1  0.73350  0.85109  0.39723  1
 B  B4  1  0.73350  0.14891  0.89723  1
 Li  Li1  1  0.23782  0.11911  0.53401  1
 Li  Li2  1  0.23782  0.88089  0.03401  1
 Li  Li3  1  0.72036  0.67345  0.86916  1
 Li  Li4  1  0.72036  0.32655  0.36916  1
 O  O1  1  0.08640  0.48625  0.92300  1
 O  O2  1  0.16624  0.20408  0.72810  1
 O  O3  1  0.94904  0.67587  0.77157  1
 O  O4  1  0.08784  0.01392  0.91487  1
 O  O5  1  0.08784  0.98608  0.41487  1
 O  O6  1  0.70958  0.81101  0.04556  1
 O  O7  1  0.70958  0.18899  0.54556  1
 O  O8  1  0.46025  0.97852  0.06625  1
 O  O9  1  0.24210  0.71816  0.89860  1
 O  O10  1  0.89722  0.77496  0.36338  1
 O  O11  1  0.94904  0.32413  0.27157  1
 O  O12  1  0.39186  0.43979  0.96205  1
 O  O13  1  0.24210  0.28184  0.39860  1
 O  O14  1  0.69997  0.50702  0.48755  1
 O  O15  1  0.69997  0.49298  0.98755  1
 O  O16  1  0.57127  0.67526  0.67416  1
 O  O17  1  0.57127  0.32474  0.17416  1
 O  O18  1  0.46025  0.02148  0.56625  1
 O  O19  1  0.17751  0.75248  0.51121  1
 O  O20  1  0.68326  0.03724  0.77966  1
 O  O21  1  0.75901  0.07379  0.04872  1
 O  O22  1  0.17751  0.24752  0.01121  1
 O  O23  1  0.59034  0.25603  0.89665  1
 O  O24  1  0.59034  0.74397  0.39665  1
 O  O25  1  0.21171  0.45130  0.18293  1
 O  O26  1  0.39186  0.56021  0.46205  1
 O  O27  1  0.08640  0.51375  0.42300  1
 O  O28  1  0.68326  0.96276  0.27966  1
 O  O29  1  0.16624  0.79592  0.22810  1
 O  O30  1  0.75901  0.92621  0.54872  1
 O  O31  1  0.21171  0.54870  0.68293  1
 O  O32  1  0.89722  0.22504  0.86338  1
 S  S1  1  0.11981  0.62001  0.82038  1
 S  S2  1  0.57382  0.38172  0.01688  1
 S  S3  1  0.57382  0.61828  0.51688  1
 S  S4  1  0.11981  0.37999  0.32038  1
 S  S5  1  0.08721  0.16439  0.87192  1
 S  S6  1  0.64346  0.05328  0.60170  1
 S  S7  1  0.64346  0.94672  0.10170  1
 S  S8  1  0.08721  0.83561  0.37192  1
