CIF file written using JARVIS-Tools package.
data_Ca4P6O19
_symmetry_space_group_name_H-M  'P-1'
_cell_length_a       6.87268
_cell_length_b       9.1797
_cell_length_c       12.83
_cell_angle_alpha    109.49
_cell_angle_beta     100.048
_cell_angle_gamma    91.6277

_symmetry_Int_Tables_number  2
_chemical_formula_structural  Ca4P6O19
_chemical_formula_sum  Ca8P2O38
_cell_volume  748.0722478784252
_cell_formula_units_Z  2
loop_
  _symmetry_equiv_pos_site_id
 _symmetry_equiv_pos_as_xyz
 1  'x, y, z'
loop_
 _atom_site_type_symbol
 _atom_site_label
 _atom_site_symmetry_multiplicity
 _atom_site_fract_x
 _atom_site_fract_y
 _atom_site_fract_z
 _atom_site_fract_occupancy
 Ca  Ca1  1  0.81087  0.99102  0.36532  1
 Ca  Ca2  1  0.64521  0.12666  0.87868  1
 Ca  Ca3  1  0.35479  0.87334  0.12132  1
 Ca  Ca4  1  0.90346  0.35110  0.66576  1
 Ca  Ca5  1  0.97365  0.81483  0.85165  1
 Ca  Ca6  1  0.09654  0.64890  0.33424  1
 Ca  Ca7  1  0.02635  0.18517  0.14835  1
 Ca  Ca8  1  0.18913  0.00898  0.63468  1
 O  O1  1  0.00757  0.77708  0.21390  1
 O  O2  1  0.22285  0.26797  0.63195  1
 O  O3  1  0.24212  0.35088  0.96388  1
 O  O4  1  0.28942  0.08689  0.83699  1
 O  O5  1  0.17977  0.96675  0.44202  1
 O  O6  1  0.87514  0.56603  0.84939  1
 O  O7  1  0.33574  0.62276  0.09319  1
 O  O8  1  0.99243  0.22292  0.78610  1
 O  O9  1  0.12486  0.43397  0.15061  1
 O  O10  1  0.66426  0.37724  0.90681  1
 O  O11  1  0.57950  0.38667  0.65209  1
 O  O12  1  0.60379  0.78572  0.53533  1
 O  O13  1  0.69360  0.18638  0.08379  1
 O  O14  1  0.49126  0.40739  0.14326  1
 O  O15  1  0.39621  0.21428  0.46467  1
 O  O16  1  0.60861  0.27346  0.28320  1
 O  O17  1  0.28724  0.47620  0.54778  1
 O  O18  1  0.11240  0.09806  0.29828  1
 O  O19  1  0.88760  0.90194  0.70172  1
 O  O20  1  0.71276  0.52380  0.45222  1
 O  O21  1  0.77715  0.73203  0.36805  1
 O  O22  1  0.34822  0.13424  0.11947  1
 O  O23  1  0.15721  0.72521  0.54441  1
 O  O24  1  0.82023  0.03325  0.55798  1
 O  O25  1  0.99870  0.88307  0.05578  1
 O  O26  1  0.84279  0.27479  0.45559  1
 O  O27  1  0.04890  0.59409  0.67924  1
 O  O28  1  0.00130  0.11693  0.94422  1
 O  O29  1  0.65178  0.86576  0.88053  1
 O  O30  1  0.75788  0.64912  0.03612  1
 O  O31  1  0.95110  0.40591  0.32076  1
 O  O32  1  0.30640  0.81362  0.91621  1
 O  O33  1  0.71058  0.91311  0.16301  1
 O  O34  1  0.43942  0.97025  0.31951  1
 O  O35  1  0.56058  0.02975  0.68049  1
 O  O36  1  0.50874  0.59261  0.85674  1
 O  O37  1  0.42050  0.61333  0.34791  1
 O  O38  1  0.39139  0.72654  0.71680  1
 P  P1  1  0.53463  0.24200  0.15078  1
 P  P2  1  0.46537  0.75800  0.84922  1
 P  P3  1  0.37660  0.33228  0.58383  1
 P  P4  1  0.27462  0.05179  0.37558  1
 P  P5  1  0.20366  0.63068  0.61971  1
 P  P6  1  0.72538  0.94821  0.62442  1
 P  P7  1  0.62340  0.66772  0.41617  1
 P  P8  1  0.79634  0.36932  0.38029  1
 P  P9  1  0.87525  0.81336  0.12023  1
 P  P10  1  0.28470  0.46421  0.09150  1
 P  P11  1  0.71530  0.53579  0.90850  1
 P  P12  1  0.12475  0.18664  0.87977  1
