CIF file written using JARVIS-Tools package.
data_LaNbO4
_symmetry_space_group_name_H-M  'C2/c'
_cell_length_a       5.25017
_cell_length_b       5.59366
_cell_length_c       6.86525
_cell_angle_alpha    112.305
_cell_angle_beta     110.653
_cell_angle_gamma    94.1767

_symmetry_Int_Tables_number  15
_chemical_formula_structural  LaNbO4
_chemical_formula_sum  La2Nb2O8
_cell_volume  169.49552483265867
_cell_formula_units_Z  2
loop_
  _symmetry_equiv_pos_site_id
 _symmetry_equiv_pos_as_xyz
 1  'x, y, z'
loop_
 _atom_site_type_symbol
 _atom_site_label
 _atom_site_symmetry_multiplicity
 _atom_site_fract_x
 _atom_site_fract_y
 _atom_site_fract_z
 _atom_site_fract_occupancy
 La  La1  1  0.37940  0.12940  0.75880  1
 La  La2  1  0.62060  0.87060  0.24120  1
 Nb  Nb1  1  0.85411  0.60411  0.70823  1
 Nb  Nb2  1  0.14589  0.39589  0.29177  1
 O  O1  1  0.80344  0.14275  0.08755  1
 O  O2  1  0.28412  0.44480  0.08755  1
 O  O3  1  0.19656  0.85725  0.91245  1
 O  O4  1  0.71588  0.55520  0.91245  1
 O  O5  1  0.58195  0.77137  0.56465  1
 O  O6  1  0.98270  0.29328  0.56465  1
 O  O7  1  0.41805  0.22863  0.43535  1
 O  O8  1  0.01730  0.70672  0.43535  1
