CIF file written using JARVIS-Tools package.
data_TiSnSb
_symmetry_space_group_name_H-M  'Fddd'
_cell_length_a       5.51818
_cell_length_b       5.64063
_cell_length_c       10.1794
_cell_angle_alpha    82.3812
_cell_angle_beta     74.2734
_cell_angle_gamma    60.7156

_symmetry_Int_Tables_number  70
_chemical_formula_structural  TiSnSb
_chemical_formula_sum  Ti4Sn4Sb4
_cell_volume  266.00635739147924
_cell_formula_units_Z  4
loop_
  _symmetry_equiv_pos_site_id
 _symmetry_equiv_pos_as_xyz
 1  'x, y, z'
loop_
 _atom_site_type_symbol
 _atom_site_label
 _atom_site_symmetry_multiplicity
 _atom_site_fract_x
 _atom_site_fract_y
 _atom_site_fract_z
 _atom_site_fract_occupancy
 Sb  Sb1  1  0.45254  0.25000  0.09492  1
 Sb  Sb2  1  0.29746  0.25000  0.40508  1
 Sb  Sb3  1  0.54746  0.75000  0.90508  1
 Sb  Sb4  1  0.70254  0.75000  0.59492  1
 Sn  Sn1  1  0.70774  0.58452  0.25000  1
 Sn  Sn2  1  0.04226  0.91548  0.25000  1
 Sn  Sn3  1  0.29226  0.41548  0.75000  1
 Sn  Sn4  1  0.95774  0.08452  0.75000  1
 Ti  Ti1  1  0.00144  0.25000  0.99712  1
 Ti  Ti2  1  0.74856  0.25000  0.50288  1
 Ti  Ti3  1  0.99856  0.75000  0.00288  1
 Ti  Ti4  1  0.25144  0.75000  0.49712  1
