CIF file written using JARVIS-Tools package.
data_SrAl12O19
_symmetry_space_group_name_H-M  'P6_3/mmc'
_cell_length_a       5.62246
_cell_length_b       5.62246
_cell_length_c       22.0854
_cell_angle_alpha    90
_cell_angle_beta     90
_cell_angle_gamma    120

_symmetry_Int_Tables_number  194
_chemical_formula_structural  SrAl12O19
_chemical_formula_sum  Sr2Al24O38
_cell_volume  604.6284177587521
_cell_formula_units_Z  2
loop_
  _symmetry_equiv_pos_site_id
 _symmetry_equiv_pos_as_xyz
 1  'x, y, z'
loop_
 _atom_site_type_symbol
 _atom_site_label
 _atom_site_symmetry_multiplicity
 _atom_site_fract_x
 _atom_site_fract_y
 _atom_site_fract_z
 _atom_site_fract_occupancy
 Al  Al1  1  0.16815  0.33630  0.89106  1
 Al  Al2  1  0.83185  0.16815  0.10894  1
 Al  Al3  1  0.33333  0.66667  0.47154  1
 Al  Al4  1  0.33630  0.16815  0.39106  1
 Al  Al5  1  0.83185  0.16815  0.39106  1
 Al  Al6  1  0.33333  0.66667  0.02846  1
 Al  Al7  1  0.66667  0.33333  0.97154  1
 Al  Al8  1  0.66667  0.33333  0.52846  1
 Al  Al9  1  0.16815  0.83185  0.89106  1
 Al  Al10  1  0.00000  0.00000  0.75000  1
 Al  Al11  1  0.66370  0.83185  0.89106  1
 Al  Al12  1  0.83185  0.66370  0.39106  1
 Al  Al13  1  0.00000  0.00000  0.25000  1
 Al  Al14  1  0.00000  0.00000  0.00000  1
 Al  Al15  1  0.00000  0.00000  0.50000  1
 Al  Al16  1  0.33333  0.66667  0.30935  1
 Al  Al17  1  0.83185  0.66370  0.10894  1
 Al  Al18  1  0.66667  0.33333  0.69065  1
 Al  Al19  1  0.33333  0.66667  0.19065  1
 Al  Al20  1  0.66667  0.33333  0.80935  1
 Al  Al21  1  0.16815  0.33630  0.60894  1
 Al  Al22  1  0.66370  0.83185  0.60894  1
 Al  Al23  1  0.33630  0.16815  0.10894  1
 Al  Al24  1  0.16815  0.83185  0.60894  1
 O  O1  1  0.33333  0.66667  0.94567  1
 O  O2  1  0.15470  0.84530  0.05210  1
 O  O3  1  0.15470  0.30939  0.44790  1
 O  O4  1  0.69061  0.84530  0.44790  1
 O  O5  1  0.30939  0.15470  0.94790  1
 O  O6  1  0.84530  0.15470  0.94790  1
 O  O7  1  0.84530  0.69061  0.94790  1
 O  O8  1  0.69061  0.84530  0.05210  1
 O  O9  1  0.33333  0.66667  0.55433  1
 O  O10  1  0.84530  0.15470  0.55210  1
 O  O11  1  0.15470  0.30939  0.05210  1
 O  O12  1  0.81824  0.63649  0.75000  1
 O  O13  1  0.18176  0.81824  0.25000  1
 O  O14  1  0.00000  0.00000  0.14975  1
 O  O15  1  0.00000  0.00000  0.64975  1
 O  O16  1  0.15470  0.84530  0.44790  1
 O  O17  1  0.00000  0.00000  0.85025  1
 O  O18  1  0.30939  0.15470  0.55210  1
 O  O19  1  0.50240  0.00480  0.14836  1
 O  O20  1  0.66667  0.33333  0.44567  1
 O  O21  1  0.00480  0.50240  0.64836  1
 O  O22  1  0.66667  0.33333  0.05433  1
 O  O23  1  0.84530  0.69061  0.55210  1
 O  O24  1  0.36351  0.18176  0.75000  1
 O  O25  1  0.81824  0.18176  0.75000  1
 O  O26  1  0.18176  0.36351  0.25000  1
 O  O27  1  0.63649  0.81824  0.25000  1
 O  O28  1  0.50240  0.49760  0.35164  1
 O  O29  1  0.49760  0.50240  0.64836  1
 O  O30  1  0.00000  0.00000  0.35025  1
 O  O31  1  0.99520  0.49760  0.35164  1
 O  O32  1  0.00480  0.50240  0.85164  1
 O  O33  1  0.49760  0.99520  0.64836  1
 O  O34  1  0.49760  0.50240  0.85164  1
 O  O35  1  0.49760  0.99520  0.85164  1
 O  O36  1  0.50240  0.49760  0.14836  1
 O  O37  1  0.99520  0.49760  0.14836  1
 O  O38  1  0.50240  0.00480  0.35164  1
 Sr  Sr1  1  0.33333  0.66667  0.75000  1
 Sr  Sr2  1  0.66667  0.33333  0.25000  1
