CIF file written using JARVIS-Tools package.
data_NbNiTe5
_symmetry_space_group_name_H-M  'Cmcm'
_cell_length_a       3.71334
_cell_length_b       6.93879
_cell_length_c       15.2926
_cell_angle_alpha    90
_cell_angle_beta     90
_cell_angle_gamma    105.52

_symmetry_Int_Tables_number  63
_chemical_formula_structural  NbNiTe5
_chemical_formula_sum  Nb2Ni2Te0
_cell_volume  379.6624114124762
_cell_formula_units_Z  2
loop_
  _symmetry_equiv_pos_site_id
 _symmetry_equiv_pos_as_xyz
 1  'x, y, z'
loop_
 _atom_site_type_symbol
 _atom_site_label
 _atom_site_symmetry_multiplicity
 _atom_site_fract_x
 _atom_site_fract_y
 _atom_site_fract_z
 _atom_site_fract_occupancy
 Nb  Nb1  1  0.51119  0.02237  0.25000  1
 Nb  Nb2  1  0.48881  0.97763  0.75000  1
 Ni  Ni1  1  0.00000  0.00000  0.50000  1
 Ni  Ni2  1  0.00000  0.00000  0.00000  1
 Te  Te1  1  0.60575  0.21150  0.42563  1
 Te  Te2  1  0.39425  0.78850  0.57437  1
 Te  Te3  1  0.39425  0.78850  0.92563  1
 Te  Te4  1  0.60575  0.21150  0.07437  1
 Te  Te5  1  0.17270  0.34539  0.25000  1
 Te  Te6  1  0.82730  0.65461  0.75000  1
 Te  Te7  1  0.10206  0.20412  0.64439  1
 Te  Te8  1  0.89794  0.79588  0.35561  1
 Te  Te9  1  0.89794  0.79588  0.14439  1
 Te  Te10  1  0.10206  0.20412  0.85561  1
