CIF file written using JARVIS-Tools package.
data_UCuP2
_symmetry_space_group_name_H-M  'I4/mmm'
_cell_length_a       3.78601
_cell_length_b       3.78601
_cell_length_c       9.76561
_cell_angle_alpha    101.177
_cell_angle_beta     101.177
_cell_angle_gamma    90

_symmetry_Int_Tables_number  139
_chemical_formula_structural  UCuP2
_chemical_formula_sum  U2Cu2P4
_cell_volume  134.61637007247754
_cell_formula_units_Z  2
loop_
  _symmetry_equiv_pos_site_id
 _symmetry_equiv_pos_as_xyz
 1  'x, y, z'
loop_
 _atom_site_type_symbol
 _atom_site_label
 _atom_site_symmetry_multiplicity
 _atom_site_fract_x
 _atom_site_fract_y
 _atom_site_fract_z
 _atom_site_fract_occupancy
 Cu  Cu1  1  0.25000  0.75000  0.50000  1
 Cu  Cu2  1  0.75000  0.25000  0.50000  1
 P  P1  1  0.50000  0.00000  0.00000  1
 P  P2  1  0.00000  0.50000  0.00000  1
 P  P3  1  0.66817  0.66817  0.33635  1
 P  P4  1  0.33183  0.33183  0.66365  1
 U  U1  1  0.89069  0.89069  0.78137  1
 U  U2  1  0.10931  0.10931  0.21863  1
