CIF file written using JARVIS-Tools package.
data_CdAu
_symmetry_space_group_name_H-M  'P31m'
_cell_length_a       8.26835
_cell_length_b       8.26835
_cell_length_c       5.90308
_cell_angle_alpha    90
_cell_angle_beta     90
_cell_angle_gamma    120

_symmetry_Int_Tables_number  157
_chemical_formula_structural  CdAu
_chemical_formula_sum  Cd9Au9
_cell_volume  349.49956267427956
_cell_formula_units_Z  9
loop_
  _symmetry_equiv_pos_site_id
 _symmetry_equiv_pos_as_xyz
 1  'x, y, z'
loop_
 _atom_site_type_symbol
 _atom_site_label
 _atom_site_symmetry_multiplicity
 _atom_site_fract_x
 _atom_site_fract_y
 _atom_site_fract_z
 _atom_site_fract_occupancy
 Au  Au1  1  0.00000  0.00000  0.99408  1
 Au  Au2  1  0.33332  0.97809  0.41610  1
 Au  Au3  1  0.02191  0.35523  0.41610  1
 Au  Au4  1  0.64477  0.66668  0.41610  1
 Au  Au5  1  0.69150  0.02480  0.71281  1
 Au  Au6  1  0.97520  0.66670  0.71281  1
 Au  Au7  1  0.33330  0.30850  0.71281  1
 Au  Au8  1  0.33333  0.66667  0.15372  1
 Au  Au9  1  0.66667  0.33333  0.99404  1
 Cd  Cd1  1  0.33336  0.31442  0.21309  1
 Cd  Cd2  1  0.68558  0.01894  0.21309  1
 Cd  Cd3  1  0.64672  0.66666  0.91441  1
 Cd  Cd4  1  0.00000  0.00000  0.50036  1
 Cd  Cd5  1  0.33334  0.98006  0.91441  1
 Cd  Cd6  1  0.66667  0.33333  0.50036  1
 Cd  Cd7  1  0.33333  0.66667  0.64620  1
 Cd  Cd8  1  0.98106  0.66664  0.21309  1
 Cd  Cd9  1  0.01994  0.35328  0.91441  1
