CIF file written using JARVIS-Tools package.
data_Na4CuAs2O8
_symmetry_space_group_name_H-M  'P-1'
_cell_length_a       4.89121
_cell_length_b       5.88558
_cell_length_c       6.96965
_cell_angle_alpha    97.4442
_cell_angle_beta     90.4029
_cell_angle_gamma    106.868

_symmetry_Int_Tables_number  2
_chemical_formula_structural  Na4CuAs2O8
_chemical_formula_sum  Na4CuAs2O8
_cell_volume  190.17833202201106
_cell_formula_units_Z  1
loop_
  _symmetry_equiv_pos_site_id
 _symmetry_equiv_pos_as_xyz
 1  'x, y, z'
loop_
 _atom_site_type_symbol
 _atom_site_label
 _atom_site_symmetry_multiplicity
 _atom_site_fract_x
 _atom_site_fract_y
 _atom_site_fract_z
 _atom_site_fract_occupancy
 As  As1  1  0.40281  0.80382  0.73239  1
 As  As2  1  0.59719  0.19618  0.26761  1
 Cu  Cu1  1  0.00000  0.00000  0.00000  1
 Na  Na1  1  0.28425  0.56683  0.16835  1
 Na  Na2  1  0.71575  0.43317  0.83165  1
 Na  Na3  1  0.15629  0.25256  0.58307  1
 Na  Na4  1  0.84371  0.74744  0.41693  1
 O  O1  1  0.68635  0.27179  0.50973  1
 O  O2  1  0.22526  0.14406  0.24494  1
 O  O3  1  0.23699  0.56044  0.84455  1
 O  O4  1  0.77474  0.85594  0.75506  1
 O  O5  1  0.76301  0.43956  0.15545  1
 O  O6  1  0.67145  0.93544  0.16444  1
 O  O7  1  0.32855  0.06456  0.83556  1
 O  O8  1  0.31365  0.72821  0.49027  1
