CIF file written using JARVIS-Tools package.
data_MnPSe3
_symmetry_space_group_name_H-M  'R-3'
_cell_length_a       7.60701
_cell_length_b       7.60701
_cell_length_c       7.60702
_cell_angle_alpha    49.5804
_cell_angle_beta     49.5804
_cell_angle_gamma    49.5804

_symmetry_Int_Tables_number  148
_chemical_formula_structural  MnPSe3
_chemical_formula_sum  Mn2P2Se6
_cell_volume  234.5712442640822
_cell_formula_units_Z  2
loop_
  _symmetry_equiv_pos_site_id
 _symmetry_equiv_pos_as_xyz
 1  'x, y, z'
loop_
 _atom_site_type_symbol
 _atom_site_label
 _atom_site_symmetry_multiplicity
 _atom_site_fract_x
 _atom_site_fract_y
 _atom_site_fract_z
 _atom_site_fract_occupancy
 Mn  Mn1  1  0.83247  0.83247  0.83247  1
 Mn  Mn2  1  0.16753  0.16753  0.16753  1
 P  P1  1  0.55634  0.55634  0.55634  1
 P  P2  1  0.44366  0.44366  0.44366  1
 Se  Se1  1  0.41242  0.75436  0.07817  1
 Se  Se2  1  0.07817  0.41242  0.75436  1
 Se  Se3  1  0.75436  0.07817  0.41242  1
 Se  Se4  1  0.58758  0.24564  0.92183  1
 Se  Se5  1  0.92183  0.58758  0.24564  1
 Se  Se6  1  0.24564  0.92183  0.58758  1
