CIF file written using JARVIS-Tools package.
data_TePCl9
_symmetry_space_group_name_H-M  'Ima2'
_cell_length_a       11.9667
_cell_length_b       11.9667
_cell_length_c       11.9667
_cell_angle_alpha    91.0139
_cell_angle_beta     119.034
_cell_angle_gamma    119.8

_symmetry_Int_Tables_number  46
_chemical_formula_structural  TePCl9
_chemical_formula_sum  Te4P4Cl36
_cell_volume  1222.1279896570525
_cell_formula_units_Z  4
loop_
  _symmetry_equiv_pos_site_id
 _symmetry_equiv_pos_as_xyz
 1  'x, y, z'
loop_
 _atom_site_type_symbol
 _atom_site_label
 _atom_site_symmetry_multiplicity
 _atom_site_fract_x
 _atom_site_fract_y
 _atom_site_fract_z
 _atom_site_fract_occupancy
 Cl  Cl1  1  0.52935  0.97618  0.35704  1
 Cl  Cl2  1  0.30574  0.44977  0.35597  1
 Cl  Cl3  1  0.52935  0.67231  0.05317  1
 Cl  Cl4  1  0.85831  0.01664  0.34167  1
 Cl  Cl5  1  0.61914  0.17231  0.64296  1
 Cl  Cl6  1  0.48985  0.93936  0.05049  1
 Cl  Cl7  1  0.10275  0.74889  0.85386  1
 Cl  Cl8  1  0.31088  0.11239  0.05372  1
 Cl  Cl9  1  0.61914  0.47618  0.94683  1
 Cl  Cl10  1  0.08649  0.40162  0.49008  1
 Cl  Cl11  1  0.51363  0.83138  0.57480  1
 Cl  Cl12  1  0.51790  0.14453  0.87337  1
 Cl  Cl13  1  0.67497  0.51664  0.65833  1
 Cl  Cl14  1  0.51485  0.63632  0.75515  1
 Cl  Cl15  1  0.31088  0.75716  0.69849  1
 Cl  Cl16  1  0.25658  0.33138  0.81775  1
 Cl  Cl17  1  0.64868  0.72521  0.42347  1
 Cl  Cl18  1  0.88887  0.43936  0.94951  1
 Cl  Cl19  1  0.08649  0.09641  0.18487  1
 Cl  Cl20  1  0.88117  0.75970  0.24485  1
 Cl  Cl21  1  0.89503  0.24889  0.14614  1
 Cl  Cl22  1  0.05736  0.78938  0.10231  1
 Cl  Cl23  1  0.25658  0.93883  0.42520  1
 Cl  Cl24  1  0.09380  0.94977  0.64403  1
 Cl  Cl25  1  0.51485  0.25970  0.37853  1
 Cl  Cl26  1  0.05867  0.25716  0.94628  1
 Cl  Cl27  1  0.27117  0.64453  0.12663  1
 Cl  Cl28  1  0.91154  0.90162  0.81513  1
 Cl  Cl29  1  0.05736  0.45506  0.76798  1
 Cl  Cl30  1  0.68708  0.95506  0.89769  1
 Cl  Cl31  1  0.68708  0.28938  0.23202  1
 Cl  Cl32  1  0.30174  0.22521  0.57653  1
 Cl  Cl33  1  0.51363  0.43883  0.18225  1
 Cl  Cl34  1  0.05867  0.61239  0.30151  1
 Cl  Cl35  1  0.88117  0.13632  0.62147  1
 Cl  Cl36  1  0.91154  0.59641  0.50992  1
 P  P1  1  0.50715  0.27498  0.21264  1
 P  P2  1  0.06234  0.77498  0.26783  1
 P  P3  1  0.06234  0.29451  0.78736  1
 P  P4  1  0.50715  0.79451  0.73217  1
 Te  Te1  1  0.61110  0.32744  0.78366  1
 Te  Te2  1  0.90167  0.74854  0.65313  1
 Te  Te3  1  0.54378  0.82744  0.21634  1
 Te  Te4  1  0.09542  0.24854  0.34687  1
