CIF file written using JARVIS-Tools package.
data_Cu2AsClO4
_symmetry_space_group_name_H-M  'P2_1/m'
_cell_length_a       4.88404
_cell_length_b       6.78507
_cell_length_c       6.71659
_cell_angle_alpha    90
_cell_angle_beta     91.0073
_cell_angle_gamma    90

_symmetry_Int_Tables_number  11
_chemical_formula_structural  Cu2AsClO4
_chemical_formula_sum  Cu4As2Cl2O8
_cell_volume  222.5437807624093
_cell_formula_units_Z  2
loop_
  _symmetry_equiv_pos_site_id
 _symmetry_equiv_pos_as_xyz
 1  'x, y, z'
loop_
 _atom_site_type_symbol
 _atom_site_label
 _atom_site_symmetry_multiplicity
 _atom_site_fract_x
 _atom_site_fract_y
 _atom_site_fract_z
 _atom_site_fract_occupancy
 As  As1  1  0.49808  0.75000  0.23915  1
 As  As2  1  0.50192  0.25000  0.76085  1
 Cl  Cl1  1  0.82156  0.25000  0.26166  1
 Cl  Cl2  1  0.17844  0.75000  0.73834  1
 Cu  Cu1  1  0.34583  0.25000  0.26601  1
 Cu  Cu2  1  0.65417  0.75000  0.73399  1
 Cu  Cu3  1  0.00000  0.00000  0.00000  1
 Cu  Cu4  1  0.00000  0.50000  0.00000  1
 O  O1  1  0.28656  0.54637  0.20666  1
 O  O2  1  0.71344  0.04637  0.79334  1
 O  O3  1  0.75086  0.75000  0.04939  1
 O  O4  1  0.28656  0.95363  0.20666  1
 O  O5  1  0.30720  0.25000  0.55159  1
 O  O6  1  0.69280  0.75000  0.44841  1
 O  O7  1  0.71344  0.45363  0.79334  1
 O  O8  1  0.24914  0.25000  0.95061  1
