CIF file written using JARVIS-Tools package.
data_SmCl2
_symmetry_space_group_name_H-M  'Pnma'
_cell_length_a       3.49225
_cell_length_b       9.60694
_cell_length_c       8.62258
_cell_angle_alpha    90
_cell_angle_beta     90
_cell_angle_gamma    90

_symmetry_Int_Tables_number  62
_chemical_formula_structural  SmCl2
_chemical_formula_sum  Sm4Cl8
_cell_volume  289.28638231176404
_cell_formula_units_Z  4
loop_
  _symmetry_equiv_pos_site_id
 _symmetry_equiv_pos_as_xyz
 1  'x, y, z'
loop_
 _atom_site_type_symbol
 _atom_site_label
 _atom_site_symmetry_multiplicity
 _atom_site_fract_x
 _atom_site_fract_y
 _atom_site_fract_z
 _atom_site_fract_occupancy
 Cl  Cl1  1  0.25000  0.55583  0.66764  1
 Cl  Cl2  1  0.75000  0.44417  0.33236  1
 Cl  Cl3  1  0.25000  0.05583  0.83236  1
 Cl  Cl4  1  0.75000  0.94417  0.16764  1
 Cl  Cl5  1  0.75000  0.85000  0.54619  1
 Cl  Cl6  1  0.25000  0.15000  0.45381  1
 Cl  Cl7  1  0.75000  0.35000  0.95381  1
 Cl  Cl8  1  0.25000  0.65000  0.04619  1
 Sm  Sm1  1  0.25000  0.68404  0.36521  1
 Sm  Sm2  1  0.75000  0.31596  0.63479  1
 Sm  Sm3  1  0.25000  0.18404  0.13479  1
 Sm  Sm4  1  0.75000  0.81596  0.86521  1
