CIF file written using JARVIS-Tools package.
data_Ce3Co4Sn13
_symmetry_space_group_name_H-M  'Pm-3n'
_cell_length_a       9.62347
_cell_length_b       9.62347
_cell_length_c       9.62347
_cell_angle_alpha    90
_cell_angle_beta     90
_cell_angle_gamma    90

_symmetry_Int_Tables_number  223
_chemical_formula_structural  Ce3Co4Sn13
_chemical_formula_sum  Ce6Co8Sn26
_cell_volume  891.2412292496676
_cell_formula_units_Z  2
loop_
  _symmetry_equiv_pos_site_id
 _symmetry_equiv_pos_as_xyz
 1  'x, y, z'
loop_
 _atom_site_type_symbol
 _atom_site_label
 _atom_site_symmetry_multiplicity
 _atom_site_fract_x
 _atom_site_fract_y
 _atom_site_fract_z
 _atom_site_fract_occupancy
 Ce  Ce1  1  0.25000  0.50000  0.00000  1
 Ce  Ce2  1  0.50000  0.00000  0.25000  1
 Ce  Ce3  1  0.50000  0.00000  0.75000  1
 Ce  Ce4  1  0.00000  0.75000  0.50000  1
 Ce  Ce5  1  0.00000  0.25000  0.50000  1
 Ce  Ce6  1  0.75000  0.50000  0.00000  1
 Co  Co1  1  0.75000  0.75000  0.25000  1
 Co  Co2  1  0.75000  0.75000  0.75000  1
 Co  Co3  1  0.25000  0.75000  0.25000  1
 Co  Co4  1  0.25000  0.75000  0.75000  1
 Co  Co5  1  0.75000  0.25000  0.25000  1
 Co  Co6  1  0.25000  0.25000  0.25000  1
 Co  Co7  1  0.75000  0.25000  0.75000  1
 Co  Co8  1  0.25000  0.25000  0.75000  1
 Sn  Sn1  1  0.34283  0.80401  0.50000  1
 Sn  Sn2  1  0.80401  0.50000  0.34283  1
 Sn  Sn3  1  0.19599  0.50000  0.34283  1
 Sn  Sn4  1  0.65717  0.19599  0.50000  1
 Sn  Sn5  1  0.34283  0.19599  0.50000  1
 Sn  Sn6  1  0.50000  0.65717  0.80401  1
 Sn  Sn7  1  0.00000  0.00000  0.00000  1
 Sn  Sn8  1  0.50000  0.50000  0.50000  1
 Sn  Sn9  1  0.00000  0.30401  0.15717  1
 Sn  Sn10  1  0.50000  0.34283  0.80401  1
 Sn  Sn11  1  0.50000  0.65717  0.19599  1
 Sn  Sn12  1  0.19599  0.50000  0.65717  1
 Sn  Sn13  1  0.84283  0.00000  0.69599  1
 Sn  Sn14  1  0.15717  0.00000  0.30401  1
 Sn  Sn15  1  0.69599  0.84283  0.00000  1
 Sn  Sn16  1  0.15717  0.00000  0.69599  1
 Sn  Sn17  1  0.69599  0.15717  0.00000  1
 Sn  Sn18  1  0.84283  0.00000  0.30401  1
 Sn  Sn19  1  0.30401  0.15717  0.00000  1
 Sn  Sn20  1  0.30401  0.84283  0.00000  1
 Sn  Sn21  1  0.00000  0.69599  0.84283  1
 Sn  Sn22  1  0.00000  0.30401  0.84283  1
 Sn  Sn23  1  0.00000  0.69599  0.15717  1
 Sn  Sn24  1  0.50000  0.34283  0.19599  1
 Sn  Sn25  1  0.80401  0.50000  0.65717  1
 Sn  Sn26  1  0.65717  0.80401  0.50000  1
