CIF file written using JARVIS-Tools package.
data_CuHgSI
_symmetry_space_group_name_H-M  'Pna2_1'
_cell_length_a       7.06236
_cell_length_b       7.18238
_cell_length_c       8.47173
_cell_angle_alpha    90
_cell_angle_beta     90
_cell_angle_gamma    90

_symmetry_Int_Tables_number  33
_chemical_formula_structural  CuHgSI
_chemical_formula_sum  Cu4Hg4S4I4
_cell_volume  429.7244092216446
_cell_formula_units_Z  4
loop_
  _symmetry_equiv_pos_site_id
 _symmetry_equiv_pos_as_xyz
 1  'x, y, z'
loop_
 _atom_site_type_symbol
 _atom_site_label
 _atom_site_symmetry_multiplicity
 _atom_site_fract_x
 _atom_site_fract_y
 _atom_site_fract_z
 _atom_site_fract_occupancy
 Cu  Cu1  1  0.29337  0.07710  0.35704  1
 Cu  Cu2  1  0.79337  0.92290  0.64296  1
 Cu  Cu3  1  0.79337  0.42290  0.85704  1
 Cu  Cu4  1  0.29337  0.57710  0.14296  1
 Hg  Hg1  1  0.18935  0.03283  0.94677  1
 Hg  Hg2  1  0.68935  0.96717  0.05323  1
 Hg  Hg3  1  0.68935  0.46717  0.44677  1
 Hg  Hg4  1  0.18935  0.53283  0.55323  1
 I  I1  1  0.40836  0.91563  0.62425  1
 I  I2  1  0.90836  0.08437  0.37575  1
 I  I3  1  0.90836  0.58437  0.12425  1
 I  I4  1  0.40836  0.41563  0.87575  1
 S  S1  1  0.87540  0.11752  0.84170  1
 S  S2  1  0.37540  0.88248  0.15830  1
 S  S3  1  0.37540  0.38248  0.34170  1
 S  S4  1  0.87540  0.61752  0.65830  1
