CIF file written using JARVIS-Tools package.
data_Li3Ti2CuO6
_symmetry_space_group_name_H-M  'C2/m'
_cell_length_a       15.4996
_cell_length_b       9.90871
_cell_length_c       9.90871
_cell_angle_alpha    17.1045
_cell_angle_beta     16.7715
_cell_angle_gamma    16.7715

_symmetry_Int_Tables_number  12
_chemical_formula_structural  Li3Ti2CuO6
_chemical_formula_sum  Li3Ti2CuO6
_cell_volume  111.9242142116438
_cell_formula_units_Z  1
loop_
  _symmetry_equiv_pos_site_id
 _symmetry_equiv_pos_as_xyz
 1  'x, y, z'
loop_
 _atom_site_type_symbol
 _atom_site_label
 _atom_site_symmetry_multiplicity
 _atom_site_fract_x
 _atom_site_fract_y
 _atom_site_fract_z
 _atom_site_fract_occupancy
 Cu  Cu1  1  0.66667  0.00000  0.00000  1
 Li  Li1  1  0.16667  0.50000  0.50000  1
 Li  Li2  1  0.51563  0.48956  0.48956  1
 Li  Li3  1  0.81770  0.51044  0.51044  1
 O  O1  1  0.19271  0.29506  0.29506  1
 O  O2  1  0.56681  0.27076  0.27076  1
 O  O3  1  0.14062  0.70494  0.70494  1
 O  O4  1  0.95500  0.22202  0.22202  1
 O  O5  1  0.37834  0.77798  0.77798  1
 O  O6  1  0.76652  0.72924  0.72924  1
 Ti  Ti1  1  0.03390  0.97660  0.97660  1
 Ti  Ti2  1  0.29943  0.02340  0.02340  1
