CIF file written using JARVIS-Tools package.
data_VH6O3F3
_symmetry_space_group_name_H-M  'P1'
_cell_length_a       6.77339
_cell_length_b       5.94947
_cell_length_c       6.76528
_cell_angle_alpha    128.713
_cell_angle_beta     107.016
_cell_angle_gamma    105.875

_symmetry_Int_Tables_number  1
_chemical_formula_structural  VH6O3F3
_chemical_formula_sum  VH6O3F3
_cell_volume  160.886281114929
_cell_formula_units_Z  1
loop_
  _symmetry_equiv_pos_site_id
 _symmetry_equiv_pos_as_xyz
 1  'x, y, z'
loop_
 _atom_site_type_symbol
 _atom_site_label
 _atom_site_symmetry_multiplicity
 _atom_site_fract_x
 _atom_site_fract_y
 _atom_site_fract_z
 _atom_site_fract_occupancy
 F  F1  1  0.51758  0.50387  -0.00933  1
 F  F2  1  0.00423  0.05919  0.23914  1
 F  F3  1  0.70114  0.20482  0.07081  1
 H  H1  1  0.84666  0.11214  0.63753  1
 H  H2  1  0.18379  0.95967  0.89709  1
 H  H3  1  0.18057  0.77718  0.35070  1
 H  H4  1  0.26307  0.71505  0.35247  1
 H  H5  1  0.94706  0.29457  0.72104  1
 H  H6  1  0.09003  0.80783  0.71604  1
 O  O1  1  0.58127  0.64429  0.55860  1
 O  O2  1  0.58314  0.40708  0.56238  1
 O  O3  1  0.43503  0.70715  0.98288  1
 V  V1  1  0.68063  0.82134  0.93485  1
