CIF file written using JARVIS-Tools package.
data_Li2FeF6
_symmetry_space_group_name_H-M  'P-31m'
_cell_length_a       4.82466
_cell_length_b       4.82513
_cell_length_c       4.33649
_cell_angle_alpha    90.006
_cell_angle_beta     89.988
_cell_angle_gamma    119.997

_symmetry_Int_Tables_number  162
_chemical_formula_structural  Li2FeF6
_chemical_formula_sum  Li2FeF6
_cell_volume  87.42982984326387
_cell_formula_units_Z  1
loop_
  _symmetry_equiv_pos_site_id
 _symmetry_equiv_pos_as_xyz
 1  'x, y, z'
loop_
 _atom_site_type_symbol
 _atom_site_label
 _atom_site_symmetry_multiplicity
 _atom_site_fract_x
 _atom_site_fract_y
 _atom_site_fract_z
 _atom_site_fract_occupancy
 F  F1  1  0.00000  0.69058  0.75922  1
 F  F2  1  -0.00002  0.30942  0.24078  1
 F  F3  1  0.30942  0.30942  0.75922  1
 F  F4  1  0.30940  -0.00000  0.24074  1
 F  F5  1  0.69055  0.69058  0.24078  1
 F  F6  1  0.69058  0.00000  0.75926  1
 Fe  Fe1  1  -0.00001  -0.00000  0.00000  1
 Li  Li1  1  0.33333  0.66668  0.50000  1
 Li  Li2  1  0.66665  0.33332  0.50000  1
