CIF file written using JARVIS-Tools package.
data_Al3Bi5Cl12
_symmetry_space_group_name_H-M  'R-3c'
_cell_length_a       12.1014
_cell_length_b       12.1014
_cell_length_c       12.1014
_cell_angle_alpha    58.3064
_cell_angle_beta     58.3064
_cell_angle_gamma    58.3064

_symmetry_Int_Tables_number  167
_chemical_formula_structural  Al3Bi5Cl12
_chemical_formula_sum  Al6Bi0Cl24
_cell_volume  1204.5099944354756
_cell_formula_units_Z  2
loop_
  _symmetry_equiv_pos_site_id
 _symmetry_equiv_pos_as_xyz
 1  'x, y, z'
loop_
 _atom_site_type_symbol
 _atom_site_label
 _atom_site_symmetry_multiplicity
 _atom_site_fract_x
 _atom_site_fract_y
 _atom_site_fract_z
 _atom_site_fract_occupancy
 Al  Al1  1  0.75000  0.22487  0.27513  1
 Al  Al2  1  0.25000  0.77513  0.72487  1
 Al  Al3  1  0.77513  0.72487  0.25000  1
 Al  Al4  1  0.22487  0.27513  0.75000  1
 Al  Al5  1  0.72487  0.25000  0.77513  1
 Al  Al6  1  0.27513  0.75000  0.22487  1
 Bi  Bi1  1  0.32941  0.32941  0.32941  1
 Bi  Bi2  1  0.58797  0.91203  0.75000  1
 Bi  Bi3  1  0.17059  0.17059  0.17059  1
 Bi  Bi4  1  0.25000  0.41203  0.08797  1
 Bi  Bi5  1  0.67059  0.67059  0.67059  1
 Bi  Bi6  1  0.41203  0.08797  0.25000  1
 Bi  Bi7  1  0.82941  0.82941  0.82941  1
 Bi  Bi8  1  0.91203  0.75000  0.58797  1
 Bi  Bi9  1  0.08797  0.25000  0.41203  1
 Bi  Bi10  1  0.75000  0.58797  0.91203  1
 Cl  Cl1  1  0.76777  0.19669  0.60899  1
 Cl  Cl2  1  0.69425  0.07324  0.96242  1
 Cl  Cl3  1  0.26777  0.10899  0.69669  1
 Cl  Cl4  1  0.19425  0.46242  0.57324  1
 Cl  Cl5  1  0.19669  0.60899  0.76777  1
 Cl  Cl6  1  0.96242  0.69425  0.07324  1
 Cl  Cl7  1  0.03758  0.30575  0.92676  1
 Cl  Cl8  1  0.30331  0.73223  0.89101  1
 Cl  Cl9  1  0.73223  0.89101  0.30331  1
 Cl  Cl10  1  0.46242  0.57324  0.19425  1
 Cl  Cl11  1  0.10899  0.69669  0.26777  1
 Cl  Cl12  1  0.30575  0.92676  0.03758  1
 Cl  Cl13  1  0.80575  0.53758  0.42676  1
 Cl  Cl14  1  0.42676  0.80575  0.53758  1
 Cl  Cl15  1  0.89101  0.30331  0.73223  1
 Cl  Cl16  1  0.60899  0.76777  0.19669  1
 Cl  Cl17  1  0.80331  0.39101  0.23223  1
 Cl  Cl18  1  0.39101  0.23223  0.80331  1
 Cl  Cl19  1  0.07324  0.96242  0.69425  1
 Cl  Cl20  1  0.23223  0.80331  0.39101  1
 Cl  Cl21  1  0.57324  0.19425  0.46242  1
 Cl  Cl22  1  0.69669  0.26777  0.10899  1
 Cl  Cl23  1  0.92676  0.03758  0.30575  1
 Cl  Cl24  1  0.53758  0.42676  0.80575  1
