CIF file written using JARVIS-Tools package.
data_Na3Sc2B3O9
_symmetry_space_group_name_H-M  'R-3c'
_cell_length_a       8.33409
_cell_length_b       8.33409
_cell_length_c       8.33409
_cell_angle_alpha    62.2746
_cell_angle_beta     62.2746
_cell_angle_gamma    62.2746

_symmetry_Int_Tables_number  167
_chemical_formula_structural  Na3Sc2B3O9
_chemical_formula_sum  Na6Sc4B6O8
_cell_volume  430.0992451252784
_cell_formula_units_Z  2
loop_
  _symmetry_equiv_pos_site_id
 _symmetry_equiv_pos_as_xyz
 1  'x, y, z'
loop_
 _atom_site_type_symbol
 _atom_site_label
 _atom_site_symmetry_multiplicity
 _atom_site_fract_x
 _atom_site_fract_y
 _atom_site_fract_z
 _atom_site_fract_occupancy
 B  B1  1  0.09067  0.75000  0.40933  1
 B  B2  1  0.40933  0.09067  0.75000  1
 B  B3  1  0.59067  0.90933  0.25000  1
 B  B4  1  0.90933  0.25000  0.59067  1
 B  B5  1  0.75000  0.40933  0.09067  1
 B  B6  1  0.25000  0.59067  0.90933  1
 Na  Na1  1  0.91789  0.58211  0.25000  1
 Na  Na2  1  0.41789  0.75000  0.08211  1
 Na  Na3  1  0.25000  0.91789  0.58211  1
 Na  Na4  1  0.75000  0.08211  0.41789  1
 Na  Na5  1  0.58211  0.25000  0.91789  1
 Na  Na6  1  0.08211  0.41789  0.75000  1
 O  O1  1  0.81500  0.40446  0.65677  1
 O  O2  1  0.84323  0.09554  0.68500  1
 O  O3  1  0.90446  0.31500  0.15677  1
 O  O4  1  0.34323  0.18500  0.59554  1
 O  O5  1  0.65677  0.81500  0.40446  1
 O  O6  1  0.75000  0.57043  0.92957  1
 O  O7  1  0.59554  0.34323  0.18500  1
 O  O8  1  0.15677  0.90446  0.31500  1
 O  O9  1  0.09554  0.68500  0.84323  1
 O  O10  1  0.18500  0.59554  0.34323  1
 O  O11  1  0.31500  0.15677  0.90446  1
 O  O12  1  0.57043  0.92957  0.75000  1
 O  O13  1  0.40446  0.65677  0.81500  1
 O  O14  1  0.07043  0.25000  0.42957  1
 O  O15  1  0.42957  0.07043  0.25000  1
 O  O16  1  0.25000  0.42957  0.07043  1
 O  O17  1  0.68500  0.84323  0.09554  1
 O  O18  1  0.92957  0.75000  0.57043  1
 Sc  Sc1  1  0.32744  0.32744  0.32744  1
 Sc  Sc2  1  0.67256  0.67256  0.67256  1
 Sc  Sc3  1  0.17256  0.17256  0.17256  1
 Sc  Sc4  1  0.82744  0.82744  0.82744  1
