CIF file written using JARVIS-Tools package.
data_K2P2H2O7
_symmetry_space_group_name_H-M  'P-1'
_cell_length_a       11.3141
_cell_length_b       7.78408
_cell_length_c       8.28472
_cell_angle_alpha    86.5493
_cell_angle_beta     84.2827
_cell_angle_gamma    81.368

_symmetry_Int_Tables_number  2
_chemical_formula_structural  K2P2H2O7
_chemical_formula_sum  K8P8H8O28
_cell_volume  717.0208372406079
_cell_formula_units_Z  4
loop_
  _symmetry_equiv_pos_site_id
 _symmetry_equiv_pos_as_xyz
 1  'x, y, z'
loop_
 _atom_site_type_symbol
 _atom_site_label
 _atom_site_symmetry_multiplicity
 _atom_site_fract_x
 _atom_site_fract_y
 _atom_site_fract_z
 _atom_site_fract_occupancy
 H  H1  1  0.46070  0.83581  0.10314  1
 H  H2  1  0.16159  0.92241  0.09110  1
 H  H3  1  0.80537  0.02777  0.74052  1
 H  H4  1  0.19463  0.97223  0.25948  1
 H  H5  1  0.83841  0.07759  0.90890  1
 H  H6  1  0.53930  0.16419  0.89686  1
 H  H7  1  0.65082  0.22456  0.96185  1
 H  H8  1  0.34918  0.77544  0.03815  1
 K  K1  1  0.93007  0.38360  0.71033  1
 K  K2  1  0.56084  0.21052  0.57073  1
 K  K3  1  0.43359  0.34875  0.18499  1
 K  K4  1  0.56641  0.65125  0.81501  1
 K  K5  1  0.43916  0.78948  0.42927  1
 K  K6  1  0.06993  0.61640  0.28967  1
 K  K7  1  0.95017  0.18286  0.24351  1
 K  K8  1  0.04983  0.81714  0.75649  1
 O  O1  1  0.92964  0.71542  0.03264  1
 O  O2  1  0.76942  0.54534  0.93713  1
 O  O3  1  0.69120  0.66992  0.47941  1
 O  O4  1  0.90332  0.71264  0.54491  1
 O  O5  1  0.09668  0.28736  0.45509  1
 O  O6  1  0.70955  0.91875  0.64239  1
 O  O7  1  0.29045  0.08125  0.35761  1
 O  O8  1  0.57913  0.26641  0.90257  1
 O  O9  1  0.22460  0.65558  0.51955  1
 O  O10  1  0.79519  0.91483  0.34273  1
 O  O11  1  0.20481  0.08517  0.65727  1
 O  O12  1  0.70143  0.80399  0.10832  1
 O  O13  1  0.29857  0.19601  0.89168  1
 O  O14  1  0.81761  0.53349  0.23448  1
 O  O15  1  0.18239  0.46651  0.76552  1
 O  O16  1  0.30880  0.33008  0.52059  1
 O  O17  1  0.77540  0.34442  0.48045  1
 O  O18  1  0.13212  0.92502  0.20733  1
 O  O19  1  0.59670  0.47901  0.31932  1
 O  O20  1  0.40330  0.52099  0.68068  1
 O  O21  1  0.07036  0.28458  0.96736  1
 O  O22  1  0.23058  0.45466  0.06287  1
 O  O23  1  0.86788  0.07498  0.79267  1
 O  O24  1  0.42087  0.73359  0.09743  1
 O  O25  1  0.24303  0.88697  0.89991  1
 O  O26  1  0.57504  0.02498  0.28288  1
 O  O27  1  0.42496  0.97502  0.71712  1
 O  O28  1  0.75697  0.11303  0.10009  1
 P  P1  1  0.21907  0.19504  0.48274  1
 P  P2  1  0.18746  0.35238  0.94032  1
 P  P3  1  0.78093  0.80496  0.51726  1
 P  P4  1  0.28408  0.50994  0.62253  1
 P  P5  1  0.71592  0.49006  0.37747  1
 P  P6  1  0.29916  0.02125  0.79298  1
 P  P7  1  0.70084  0.97875  0.20702  1
 P  P8  1  0.81254  0.64762  0.05968  1
