CIF file written using JARVIS-Tools package.
data_H8PtO6
_symmetry_space_group_name_H-M  'P1'
_cell_length_a       5.46122
_cell_length_b       5.48236
_cell_length_c       7.41731
_cell_angle_alpha    88.5959
_cell_angle_beta     94.0613
_cell_angle_gamma    96.3707

_symmetry_Int_Tables_number  1
_chemical_formula_structural  H8PtO6
_chemical_formula_sum  H6Pt2O2
_cell_volume  220.12029805840152
_cell_formula_units_Z  2
loop_
  _symmetry_equiv_pos_site_id
 _symmetry_equiv_pos_as_xyz
 1  'x, y, z'
loop_
 _atom_site_type_symbol
 _atom_site_label
 _atom_site_symmetry_multiplicity
 _atom_site_fract_x
 _atom_site_fract_y
 _atom_site_fract_z
 _atom_site_fract_occupancy
 H  H1  1  0.17796  0.61369  0.88746  1
 H  H2  1  0.44584  0.52080  -0.01023  1
 H  H3  1  0.87496  0.73762  0.74827  1
 H  H4  1  0.85763  0.37763  0.14790  1
 H  H5  1  0.13454  0.51560  0.16237  1
 H  H6  1  0.24347  0.11196  0.23956  1
 H  H7  1  0.56237  0.21491  0.38276  1
 H  H8  1  0.93760  0.96403  0.01369  1
 H  H9  1  0.59488  0.10653  0.65659  1
 H  H10  1  0.74816  0.39515  0.89472  1
 H  H11  1  0.46155  0.82958  0.65459  1
 H  H12  1  0.35673  0.78283  0.40027  1
 H  H13  1  0.14413  0.15101  0.78438  1
 H  H14  1  0.02168  0.04665  0.51242  1
 H  H15  1  0.83254  0.83497  0.28770  1
 H  H16  1  0.50756  0.46326  0.49320  1
 O  O1  1  0.80191  0.85683  0.07239  1
 O  O2  1  0.95114  0.58220  0.75127  1
 O  O3  1  0.02071  0.39689  0.23089  1
 O  O4  1  0.40074  0.03747  0.24863  1
 O  O5  1  0.58155  0.95131  0.73219  1
 O  O6  1  0.62924  0.32820  0.49016  1
 O  O7  1  0.16013  0.13281  0.92124  1
 O  O8  1  0.33574  0.65954  0.50214  1
 O  O9  1  0.13229  0.18755  0.57098  1
 O  O10  1  0.31362  0.64446  -0.00615  1
 O  O11  1  0.64611  0.34730  -0.00020  1
 O  O12  1  0.84513  0.81825  0.42439  1
 Pt  Pt1  1  0.48439  -0.00108  -0.00850  1
 Pt  Pt2  1  0.98518  0.49963  0.49202  1
