CIF file written using JARVIS-Tools package.
data_CaPbI4
_symmetry_space_group_name_H-M  'P2/m'
_cell_length_a       6.95815
_cell_length_b       4.5235
_cell_length_c       7.92261
_cell_angle_alpha    90
_cell_angle_beta     89.5595
_cell_angle_gamma    90

_symmetry_Int_Tables_number  10
_chemical_formula_structural  CaPbI4
_chemical_formula_sum  CaPbI4
_cell_volume  249.35818592507144
_cell_formula_units_Z  1
loop_
  _symmetry_equiv_pos_site_id
 _symmetry_equiv_pos_as_xyz
 1  'x, y, z'
loop_
 _atom_site_type_symbol
 _atom_site_label
 _atom_site_symmetry_multiplicity
 _atom_site_fract_x
 _atom_site_fract_y
 _atom_site_fract_z
 _atom_site_fract_occupancy
 Ca  Ca1  1  0.00000  0.50000  0.50000  1
 I  I1  1  0.25666  0.00000  0.65646  1
 I  I2  1  0.26565  0.50000  0.17727  1
 I  I3  1  0.73435  0.50000  0.82273  1
 I  I4  1  0.74334  0.00000  0.34354  1
 Pb  Pb1  1  0.00000  0.00000  0.00000  1
