CIF file written using JARVIS-Tools package.
data_Li2Ca3Be3Si3O12F2
_symmetry_space_group_name_H-M  'I2_13'
_cell_length_a       11.1751
_cell_length_b       11.1752
_cell_length_c       11.1752
_cell_angle_alpha    109.471
_cell_angle_beta     109.471
_cell_angle_gamma    109.471

_symmetry_Int_Tables_number  199
_chemical_formula_structural  Li2Ca3Be3Si3O12F2
_chemical_formula_sum  Li8Ca2Be2Si2O48F8
_cell_volume  1074.3314980266614
_cell_formula_units_Z  4
loop_
  _symmetry_equiv_pos_site_id
 _symmetry_equiv_pos_as_xyz
 1  'x, y, z'
loop_
 _atom_site_type_symbol
 _atom_site_label
 _atom_site_symmetry_multiplicity
 _atom_site_fract_x
 _atom_site_fract_y
 _atom_site_fract_z
 _atom_site_fract_occupancy
 Be  Be1  1  0.70050  0.42436  0.46471  1
 Be  Be2  1  0.72385  0.79950  0.26421  1
 Be  Be3  1  0.77615  0.04036  0.07564  1
 Be  Be4  1  0.04036  0.07564  0.77615  1
 Be  Be5  1  0.03529  0.45964  0.23579  1
 Be  Be6  1  0.46471  0.70050  0.42436  1
 Be  Be7  1  0.23579  0.03529  0.45964  1
 Be  Be8  1  0.79950  0.26421  0.72385  1
 Be  Be9  1  0.07564  0.77615  0.04036  1
 Be  Be10  1  0.26421  0.72385  0.79950  1
 Be  Be11  1  0.45964  0.23579  0.03529  1
 Be  Be12  1  0.42436  0.46471  0.70050  1
 Ca  Ca1  1  0.25000  0.33612  0.08612  1
 Ca  Ca2  1  0.75000  0.16388  0.41388  1
 Ca  Ca3  1  0.59377  0.84377  0.75000  1
 Ca  Ca4  1  0.25000  0.90623  0.65623  1
 Ca  Ca5  1  0.75000  0.59377  0.84377  1
 Ca  Ca6  1  0.90623  0.65623  0.25000  1
 Ca  Ca7  1  0.84377  0.75000  0.59377  1
 Ca  Ca8  1  0.65623  0.25000  0.90623  1
 Ca  Ca9  1  0.08612  0.25000  0.33612  1
 Ca  Ca10  1  0.41388  0.75000  0.16388  1
 Ca  Ca11  1  0.33612  0.08612  0.25000  1
 Ca  Ca12  1  0.16388  0.41388  0.75000  1
 F  F1  1  0.29087  0.29087  0.29087  1
 F  F2  1  0.50000  0.00000  0.20913  1
 F  F3  1  -0.00000  0.70917  0.50000  1
 F  F4  1  0.70917  0.50000  0.00000  1
 F  F5  1  0.50000  0.00000  0.70917  1
 F  F6  1  -0.00000  0.20913  0.50000  1
 F  F7  1  0.20913  0.50000  0.00000  1
 F  F8  1  0.79083  0.79083  0.79083  1
 Li  Li1  1  0.50000  0.00000  0.03978  1
 Li  Li2  1  0.50000  -0.00000  0.54332  1
 Li  Li3  1  0.03978  0.50000  -0.00000  1
 Li  Li4  1  0.00000  0.03978  0.50000  1
 Li  Li5  1  0.00000  0.54332  0.50000  1
 Li  Li6  1  0.54332  0.50000  -0.00000  1
 Li  Li7  1  0.95668  0.95668  0.95668  1
 Li  Li8  1  0.46022  0.46022  0.46022  1
 O  O1  1  0.14136  0.05093  0.32422  1
 O  O2  1  0.90470  0.99355  0.61164  1
 O  O3  1  0.38655  0.79226  0.38338  1
 O  O4  1  0.68287  0.90957  0.35864  1
 O  O5  1  0.95040  0.77281  0.09045  1
 O  O6  1  0.72719  0.67759  0.31763  1
 O  O7  1  0.90957  0.35864  0.68287  1
 O  O8  1  0.79226  0.38338  0.38655  1
 O  O9  1  0.54960  0.64005  0.82241  1
 O  O10  1  0.50645  0.41115  0.61808  1
 O  O11  1  0.67759  0.31763  0.72719  1
 O  O12  1  0.61164  0.90470  0.99355  1
 O  O13  1  0.00317  0.11662  0.90888  1
 O  O14  1  0.09045  0.95040  0.77281  1
 O  O15  1  0.18237  0.85995  0.40955  1
 O  O16  1  0.81713  0.17578  0.22670  1
 O  O17  1  0.05093  0.32422  0.14136  1
 O  O18  1  0.20694  0.08885  0.59530  1
 O  O19  1  0.99355  0.61164  0.90470  1
 O  O20  1  0.11662  0.90888  0.00317  1
 O  O21  1  0.11345  0.49683  0.40571  1
 O  O22  1  0.40571  0.11345  0.49683  1
 O  O23  1  0.35864  0.68287  0.90957  1
 O  O24  1  0.59043  0.27330  0.44907  1
 O  O25  1  0.82241  0.54960  0.64005  1
 O  O26  1  0.38338  0.38655  0.79226  1
 O  O27  1  0.41115  0.61808  0.50645  1
 O  O28  1  0.70774  0.09429  0.59112  1
 O  O29  1  0.59530  0.20694  0.08885  1
 O  O30  1  0.85995  0.40955  0.18237  1
 O  O31  1  0.27330  0.44907  0.59043  1
 O  O32  1  0.59112  0.70774  0.09429  1
 O  O33  1  0.88836  0.88192  0.29306  1
 O  O34  1  0.08885  0.59530  0.20694  1
 O  O35  1  0.77281  0.09045  0.95040  1
 O  O36  1  0.49683  0.40571  0.11345  1
 O  O37  1  0.61808  0.50645  0.41115  1
 O  O38  1  0.40955  0.18237  0.85995  1
 O  O39  1  0.44907  0.59043  0.27330  1
 O  O40  1  0.88192  0.29306  0.88836  1
 O  O41  1  0.32422  0.14136  0.05093  1
 O  O42  1  0.09429  0.59112  0.70774  1
 O  O43  1  0.31763  0.72719  0.67759  1
 O  O44  1  0.64005  0.82241  0.54960  1
 O  O45  1  0.22670  0.81713  0.17578  1
 O  O46  1  0.90888  0.00317  0.11662  1
 O  O47  1  0.29306  0.88836  0.88192  1
 O  O48  1  0.17578  0.22670  0.81713  1
 Si  Si1  1  0.22124  0.76529  0.29675  1
 Si  Si2  1  0.92449  0.20325  0.96854  1
 Si  Si3  1  0.29675  0.22124  0.76529  1
 Si  Si4  1  0.95595  0.53146  0.73471  1
 Si  Si5  1  0.96854  0.92449  0.20325  1
 Si  Si6  1  0.76529  0.29675  0.22124  1
 Si  Si7  1  0.27876  0.57551  0.54405  1
 Si  Si8  1  0.20325  0.96854  0.92449  1
 Si  Si9  1  0.73471  0.95595  0.53146  1
 Si  Si10  1  0.53146  0.73471  0.95595  1
 Si  Si11  1  0.57551  0.54405  0.27876  1
 Si  Si12  1  0.54405  0.27876  0.57551  1
