CIF file written using JARVIS-Tools package.
data_CS3N4
_symmetry_space_group_name_H-M  'P2_1/c'
_cell_length_a       5.40267
_cell_length_b       8.62024
_cell_length_c       11.9926
_cell_angle_alpha    90
_cell_angle_beta     106.011
_cell_angle_gamma    90

_symmetry_Int_Tables_number  14
_chemical_formula_structural  CS3N4
_chemical_formula_sum  C4S2N6
_cell_volume  536.8591751966561
_cell_formula_units_Z  4
loop_
  _symmetry_equiv_pos_site_id
 _symmetry_equiv_pos_as_xyz
 1  'x, y, z'
loop_
 _atom_site_type_symbol
 _atom_site_label
 _atom_site_symmetry_multiplicity
 _atom_site_fract_x
 _atom_site_fract_y
 _atom_site_fract_z
 _atom_site_fract_occupancy
 C  C1  1  0.38980  0.15929  0.71517  1
 C  C2  1  0.61020  0.65929  0.78483  1
 C  C3  1  0.61020  0.84071  0.28483  1
 C  C4  1  0.38980  0.34071  0.21517  1
 N  N1  1  0.21938  0.85594  0.53482  1
 N  N2  1  0.21938  0.64406  0.03482  1
 N  N3  1  0.78062  0.14406  0.46518  1
 N  N4  1  0.60220  0.41435  0.21789  1
 N  N5  1  0.60220  0.08565  0.71789  1
 N  N6  1  0.19200  0.27738  0.20697  1
 N  N7  1  0.78062  0.35594  0.96518  1
 N  N8  1  0.80800  0.77738  0.29303  1
 N  N9  1  0.80800  0.72262  0.79303  1
 N  N10  1  0.19200  0.22262  0.70697  1
 N  N11  1  0.28308  0.56253  0.55445  1
 N  N12  1  0.39780  0.58565  0.78211  1
 N  N13  1  0.71692  0.43747  0.44555  1
 N  N14  1  0.71692  0.06253  0.94555  1
 N  N15  1  0.39780  0.91435  0.28211  1
 N  N16  1  0.28308  0.93747  0.05445  1
 S  S1  1  0.64237  0.21582  0.00523  1
 S  S2  1  0.35763  0.71582  0.49477  1
 S  S3  1  0.35763  0.78418  0.99477  1
 S  S4  1  0.64237  0.28418  0.50523  1
 S  S5  1  0.95912  0.33127  0.87913  1
 S  S6  1  0.83439  0.42421  0.33434  1
 S  S7  1  0.04088  0.66873  0.12087  1
 S  S8  1  0.95912  0.16873  0.37913  1
 S  S9  1  0.83439  0.07579  0.83434  1
 S  S10  1  0.16561  0.57579  0.66566  1
 S  S11  1  0.16561  0.92421  0.16566  1
 S  S12  1  0.04088  0.83127  0.62087  1
