CIF file written using JARVIS-Tools package.
data_KC2N3
_symmetry_space_group_name_H-M  'Pnma'
_cell_length_a       3.74516
_cell_length_b       8.70417
_cell_length_c       11.971
_cell_angle_alpha    90.0007
_cell_angle_beta     89.9991
_cell_angle_gamma    90

_symmetry_Int_Tables_number  62
_chemical_formula_structural  KC2N3
_chemical_formula_sum  K4C8N2
_cell_volume  390.2371440944072
_cell_formula_units_Z  4
loop_
  _symmetry_equiv_pos_site_id
 _symmetry_equiv_pos_as_xyz
 1  'x, y, z'
loop_
 _atom_site_type_symbol
 _atom_site_label
 _atom_site_symmetry_multiplicity
 _atom_site_fract_x
 _atom_site_fract_y
 _atom_site_fract_z
 _atom_site_fract_occupancy
 C  C1  1  0.75000  0.75315  0.63149  1
 C  C2  1  0.75000  0.25315  0.86851  1
 C  C3  1  0.25000  0.01448  0.12458  1
 C  C4  1  0.25000  0.74685  0.13149  1
 C  C5  1  0.75000  0.48552  0.62458  1
 C  C6  1  0.25000  0.24685  0.36851  1
 C  C7  1  0.25000  0.51448  0.37542  1
 C  C8  1  0.75000  0.98552  0.87542  1
 K  K1  1  0.25000  0.62284  0.86966  1
 K  K2  1  0.75001  0.87716  0.36966  1
 K  K3  1  0.74999  0.37716  0.13034  1
 K  K4  1  0.25000  0.12284  0.63034  1
 N  N1  1  0.75000  0.85823  0.90883  1
 N  N2  1  0.75000  0.35823  0.59117  1
 N  N3  1  0.75000  0.38358  0.89518  1
 N  N4  1  0.25001  0.64177  0.40883  1
 N  N5  1  0.25001  0.11642  0.39518  1
 N  N6  1  0.75000  0.88358  0.60482  1
 N  N7  1  0.74999  0.11732  0.82382  1
 N  N8  1  0.75001  0.61732  0.67618  1
 N  N9  1  0.24999  0.14177  0.09117  1
 N  N10  1  0.25002  0.88268  0.17618  1
 N  N11  1  0.24998  0.38268  0.32382  1
 N  N12  1  0.24999  0.61642  0.10482  1
