CIF file written using JARVIS-Tools package.
data_Co3O4F2
_symmetry_space_group_name_H-M  'P-1'
_cell_length_a       4.42721
_cell_length_b       5.24725
_cell_length_c       7.32342
_cell_angle_alpha    86.7686
_cell_angle_beta     87.347
_cell_angle_gamma    86.5791

_symmetry_Int_Tables_number  2
_chemical_formula_structural  Co3O4F2
_chemical_formula_sum  Co6O8F4
_cell_volume  169.39746170449817
_cell_formula_units_Z  2
loop_
  _symmetry_equiv_pos_site_id
 _symmetry_equiv_pos_as_xyz
 1  'x, y, z'
loop_
 _atom_site_type_symbol
 _atom_site_label
 _atom_site_symmetry_multiplicity
 _atom_site_fract_x
 _atom_site_fract_y
 _atom_site_fract_z
 _atom_site_fract_occupancy
 Co  Co1  1  0.47441  0.48470  0.99120  1
 Co  Co2  1  0.52559  0.18197  0.34214  1
 Co  Co3  1  0.50000  0.83333  0.66667  1
 Co  Co4  1  0.00000  0.33333  0.66667  1
 Co  Co5  1  0.98533  0.65199  0.33144  1
 Co  Co6  1  0.01467  0.01467  0.00190  1
 F  F1  1  0.79830  0.01936  0.76107  1
 F  F2  1  0.20074  0.97116  0.24535  1
 F  F3  1  0.20170  0.64731  0.57227  1
 F  F4  1  0.79926  0.69551  0.08799  1
 O  O1  1  0.31853  0.13943  0.56936  1
 O  O2  1  0.68960  0.19709  0.09894  1
 O  O3  1  0.68146  0.52723  0.76397  1
 O  O4  1  0.81572  0.36725  0.43633  1
 O  O5  1  0.69690  0.86599  0.43425  1
 O  O6  1  0.30310  0.80067  0.89909  1
 O  O7  1  0.18428  0.29941  0.89700  1
 O  O8  1  0.31040  0.46957  0.23440  1
