CIF file written using JARVIS-Tools package.
data_Ba2LaAg5S6
_symmetry_space_group_name_H-M  'C2/m'
_cell_length_a       4.27495
_cell_length_b       7.33064
_cell_length_c       11.2794
_cell_angle_alpha    94.2423
_cell_angle_beta     90
_cell_angle_gamma    106.953

_symmetry_Int_Tables_number  12
_chemical_formula_structural  Ba2LaAg5S6
_chemical_formula_sum  Ba2LaAg5S6
_cell_volume  337.1036148466315
_cell_formula_units_Z  1
loop_
  _symmetry_equiv_pos_site_id
 _symmetry_equiv_pos_as_xyz
 1  'x, y, z'
loop_
 _atom_site_type_symbol
 _atom_site_label
 _atom_site_symmetry_multiplicity
 _atom_site_fract_x
 _atom_site_fract_y
 _atom_site_fract_z
 _atom_site_fract_occupancy
 Ag  Ag1  1  0.35750  0.71499  0.03646  1
 Ag  Ag2  1  0.64250  0.28501  0.96354  1
 Ag  Ag3  1  0.97973  0.95946  0.74549  1
 Ag  Ag4  1  0.02027  0.04054  0.25451  1
 Ag  Ag5  1  0.00000  0.00000  0.00000  1
 Ba  Ba1  1  0.25145  0.50290  0.70881  1
 Ba  Ba2  1  0.74855  0.49710  0.29119  1
 La  La1  1  0.50000  0.00000  0.50000  1
 S  S1  1  0.58623  0.17245  0.74125  1
 S  S2  1  0.84100  0.68201  0.90037  1
 S  S3  1  0.15900  0.31799  0.09963  1
 S  S4  1  0.41377  0.82755  0.25875  1
 S  S5  1  0.13305  0.26610  0.44909  1
 S  S6  1  0.86695  0.73390  0.55091  1
