CIF file written using JARVIS-Tools package.
data_LiMn2OF3
_symmetry_space_group_name_H-M  'Imm2'
_cell_length_a       8.31542
_cell_length_b       8.31542
_cell_length_c       6.10446
_cell_angle_alpha    68.4606
_cell_angle_beta     111.539
_cell_angle_gamma    116.079

_symmetry_Int_Tables_number  44
_chemical_formula_structural  LiMn2OF3
_chemical_formula_sum  Li4Mn8O4F2
_cell_volume  341.78802084972256
_cell_formula_units_Z  4
loop_
  _symmetry_equiv_pos_site_id
 _symmetry_equiv_pos_as_xyz
 1  'x, y, z'
loop_
 _atom_site_type_symbol
 _atom_site_label
 _atom_site_symmetry_multiplicity
 _atom_site_fract_x
 _atom_site_fract_y
 _atom_site_fract_z
 _atom_site_fract_occupancy
 F  F1  1  0.11543  0.86708  0.87865  1
 F  F2  1  0.01598  0.51598  0.75000  1
 F  F3  1  0.63584  0.38901  0.87095  1
 F  F4  1  0.36708  0.61543  0.62135  1
 F  F5  1  0.11548  0.86706  0.36976  1
 F  F6  1  0.72829  0.74160  0.49336  1
 F  F7  1  0.88901  0.13584  0.62905  1
 F  F8  1  0.36706  0.61548  0.13024  1
 F  F9  1  0.63581  0.38904  0.37585  1
 F  F10  1  0.98897  0.48897  0.25000  1
 F  F11  1  0.88904  0.13581  0.12415  1
 F  F12  1  0.24160  0.22829  0.00664  1
 Li  Li1  1  0.75542  0.53272  0.11135  1
 Li  Li2  1  0.24476  0.48460  0.88007  1
 Li  Li3  1  0.98460  0.74476  0.61993  1
 Li  Li4  1  0.03272  0.25542  0.38865  1
 Mn  Mn1  1  0.61671  0.88067  0.62523  1
 Mn  Mn2  1  0.38067  0.11671  0.87477  1
 Mn  Mn3  1  0.78656  0.28656  0.75000  1
 Mn  Mn4  1  0.48543  0.48378  0.50081  1
 Mn  Mn5  1  0.21627  0.71627  0.25000  1
 Mn  Mn6  1  0.61672  0.88066  0.11081  1
 Mn  Mn7  1  0.38066  0.11672  0.38919  1
 Mn  Mn8  1  0.98378  0.98543  0.99919  1
 O  O1  1  0.28170  0.23919  0.52125  1
 O  O2  1  0.73919  0.78170  0.97875  1
 O  O3  1  0.46020  0.96020  0.25000  1
 O  O4  1  0.54505  0.04505  0.75000  1
