CIF file written using JARVIS-Tools package.
data_Sr3Ga2N4
_symmetry_space_group_name_H-M  'Pnna'
_cell_length_a       5.97734
_cell_length_b       9.52892
_cell_length_c       10.3186
_cell_angle_alpha    90
_cell_angle_beta     90
_cell_angle_gamma    90

_symmetry_Int_Tables_number  52
_chemical_formula_structural  Sr3Ga2N4
_chemical_formula_sum  Sr2Ga8N6
_cell_volume  587.722510205937
_cell_formula_units_Z  4
loop_
  _symmetry_equiv_pos_site_id
 _symmetry_equiv_pos_as_xyz
 1  'x, y, z'
loop_
 _atom_site_type_symbol
 _atom_site_label
 _atom_site_symmetry_multiplicity
 _atom_site_fract_x
 _atom_site_fract_y
 _atom_site_fract_z
 _atom_site_fract_occupancy
 Ga  Ga1  1  0.34142  0.25000  0.75000  1
 Ga  Ga2  1  0.65858  0.75000  0.25000  1
 Ga  Ga3  1  0.25000  0.22938  0.00000  1
 Ga  Ga4  1  0.75000  0.72938  0.50000  1
 Ga  Ga5  1  0.75000  0.77062  0.00000  1
 Ga  Ga6  1  0.25000  0.27062  0.50000  1
 Ga  Ga7  1  0.15858  0.25000  0.25000  1
 Ga  Ga8  1  0.84142  0.75000  0.75000  1
 N  N1  1  0.00488  0.16805  0.40548  1
 N  N2  1  0.00488  0.33195  0.09452  1
 N  N3  1  0.50488  0.83195  0.40548  1
 N  N4  1  0.99512  0.83195  0.59452  1
 N  N5  1  0.99512  0.66805  0.90548  1
 N  N6  1  0.12500  0.12264  0.85264  1
 N  N7  1  0.37500  0.37736  0.35264  1
 N  N8  1  0.37500  0.12264  0.14736  1
 N  N9  1  0.87500  0.87736  0.14736  1
 N  N10  1  0.62500  0.62264  0.64736  1
 N  N11  1  0.62500  0.87736  0.85264  1
 N  N12  1  0.50488  0.66805  0.09452  1
 N  N13  1  0.49512  0.33195  0.90548  1
 N  N14  1  0.49512  0.16805  0.59452  1
 N  N15  1  0.12500  0.37736  0.64736  1
 N  N16  1  0.87500  0.62264  0.35264  1
 Sr  Sr1  1  0.89042  0.41285  0.84525  1
 Sr  Sr2  1  0.39042  0.91285  0.65475  1
 Sr  Sr3  1  0.60958  0.08715  0.34525  1
 Sr  Sr4  1  0.60958  0.41285  0.15475  1
 Sr  Sr5  1  0.10958  0.91285  0.34525  1
 Sr  Sr6  1  0.10958  0.58715  0.15475  1
 Sr  Sr7  1  0.75000  0.40336  0.50000  1
 Sr  Sr8  1  0.39042  0.58715  0.84525  1
 Sr  Sr9  1  0.75000  0.09664  0.00000  1
 Sr  Sr10  1  0.25000  0.90336  0.00000  1
 Sr  Sr11  1  0.25000  0.59664  0.50000  1
 Sr  Sr12  1  0.89042  0.08715  0.65475  1
