CIF file written using JARVIS-Tools package.
data_BaIn2S4
_symmetry_space_group_name_H-M  'Fddd'
_cell_length_a       12.7869
_cell_length_b       12.7869
_cell_length_c       12.8388
_cell_angle_alpha    105.573
_cell_angle_beta     105.573
_cell_angle_gamma    117.445

_symmetry_Int_Tables_number  70
_chemical_formula_structural  BaIn2S4
_chemical_formula_sum  Ba8In6S32
_cell_volume  1594.5588118970143
_cell_formula_units_Z  8
loop_
  _symmetry_equiv_pos_site_id
 _symmetry_equiv_pos_as_xyz
 1  'x, y, z'
loop_
 _atom_site_type_symbol
 _atom_site_label
 _atom_site_symmetry_multiplicity
 _atom_site_fract_x
 _atom_site_fract_y
 _atom_site_fract_z
 _atom_site_fract_occupancy
 Ba  Ba1  1  0.87500  0.12500  0.25000  1
 Ba  Ba2  1  0.87234  0.62234  0.24468  1
 Ba  Ba3  1  0.37766  0.12766  0.25532  1
 Ba  Ba4  1  0.12766  0.37766  0.75532  1
 Ba  Ba5  1  0.12500  0.87500  0.75000  1
 Ba  Ba6  1  0.62500  0.37500  0.75000  1
 Ba  Ba7  1  0.37500  0.62500  0.25000  1
 Ba  Ba8  1  0.62234  0.87234  0.74468  1
 In  In1  1  0.64352  0.03642  0.50013  1
 In  In2  1  0.53628  0.64338  0.99987  1
 In  In3  1  0.03642  0.64352  0.00013  1
 In  In4  1  0.64338  0.53628  0.49987  1
 In  In5  1  0.46372  0.35662  0.00013  1
 In  In6  1  0.96358  0.35648  0.99987  1
 In  In7  1  0.35662  0.46372  0.50013  1
 In  In8  1  0.35648  0.96358  0.49987  1
 In  In9  1  0.38852  0.86262  0.00124  1
 In  In10  1  0.13738  0.61148  0.49876  1
 In  In11  1  0.11271  0.13862  0.00124  1
 In  In12  1  0.61148  0.13738  0.99876  1
 In  In13  1  0.13862  0.11271  0.50124  1
 In  In14  1  0.86262  0.38852  0.50124  1
 In  In15  1  0.88729  0.86138  0.99876  1
 In  In16  1  0.86138  0.88729  0.49876  1
 S  S1  1  0.58627  0.08696  0.17084  1
 S  S2  1  0.84177  0.65301  0.99743  1
 S  S3  1  0.34699  0.15823  0.50257  1
 S  S4  1  0.65566  0.34442  0.99743  1
 S  S5  1  0.58514  0.08511  0.67168  1
 S  S6  1  0.41343  0.41346  0.82832  1
 S  S7  1  0.58657  0.58654  0.17168  1
 S  S8  1  0.58654  0.58657  0.67168  1
 S  S9  1  0.41486  0.91489  0.32832  1
 S  S10  1  0.08511  0.58514  0.17168  1
 S  S11  1  0.41346  0.41343  0.32832  1
 S  S12  1  0.91304  0.41373  0.32916  1
 S  S13  1  0.34434  0.65558  0.00257  1
 S  S14  1  0.91489  0.41486  0.82832  1
 S  S15  1  0.65301  0.84177  0.49743  1
 S  S16  1  0.91543  0.91612  0.82916  1
 S  S17  1  0.15823  0.34699  0.00257  1
 S  S18  1  0.31672  0.15019  0.00241  1
 S  S19  1  0.14777  0.81431  0.49759  1
 S  S20  1  0.84981  0.68328  0.49759  1
 S  S21  1  0.18569  0.85223  0.00241  1
 S  S22  1  0.68328  0.84981  0.99759  1
 S  S23  1  0.85223  0.18569  0.50241  1
 S  S24  1  0.15019  0.31672  0.50241  1
 S  S25  1  0.08457  0.08388  0.17084  1
 S  S26  1  0.81431  0.14777  0.99759  1
 S  S27  1  0.65558  0.34434  0.50257  1
 S  S28  1  0.41373  0.91304  0.82916  1
 S  S29  1  0.08388  0.08457  0.67084  1
 S  S30  1  0.08696  0.58627  0.67084  1
 S  S31  1  0.34442  0.65566  0.49743  1
 S  S32  1  0.91612  0.91543  0.32916  1
