CIF file written using JARVIS-Tools package.
data_Ta2Pd3Se8
_symmetry_space_group_name_H-M  'Pbam'
_cell_length_a       3.59652
_cell_length_b       10.7932
_cell_length_c       15.3857
_cell_angle_alpha    90
_cell_angle_beta     90
_cell_angle_gamma    90

_symmetry_Int_Tables_number  55
_chemical_formula_structural  Ta2Pd3Se8
_chemical_formula_sum  Ta4Pd6Se6
_cell_volume  597.2420795872251
_cell_formula_units_Z  2
loop_
  _symmetry_equiv_pos_site_id
 _symmetry_equiv_pos_as_xyz
 1  'x, y, z'
loop_
 _atom_site_type_symbol
 _atom_site_label
 _atom_site_symmetry_multiplicity
 _atom_site_fract_x
 _atom_site_fract_y
 _atom_site_fract_z
 _atom_site_fract_occupancy
 Pd  Pd1  1  0.00000  0.00000  0.00000  1
 Pd  Pd2  1  0.00000  0.50000  0.50000  1
 Pd  Pd3  1  0.00000  0.62225  0.78398  1
 Pd  Pd4  1  0.00000  0.37775  0.21602  1
 Pd  Pd5  1  0.00000  0.12225  0.71602  1
 Pd  Pd6  1  0.00000  0.87775  0.28398  1
 Se  Se1  1  0.00000  0.73088  0.50775  1
 Se  Se2  1  0.50000  0.04584  0.61592  1
 Se  Se3  1  0.50000  0.45416  0.11592  1
 Se  Se4  1  0.50000  0.54584  0.88408  1
 Se  Se5  1  0.50000  0.74770  0.21649  1
 Se  Se6  1  0.50000  0.25230  0.78351  1
 Se  Se7  1  0.50000  0.24770  0.28351  1
 Se  Se8  1  0.50000  0.75230  0.71649  1
 Se  Se9  1  0.00000  0.54392  0.34320  1
 Se  Se10  1  0.00000  0.26912  0.49225  1
 Se  Se11  1  0.00000  0.76912  0.00775  1
 Se  Se12  1  0.50000  0.95416  0.38408  1
 Se  Se13  1  0.00000  0.23088  -0.00775  1
 Se  Se14  1  0.00000  0.95608  0.84320  1
 Se  Se15  1  0.00000  0.04392  0.15680  1
 Se  Se16  1  0.00000  0.45608  0.65680  1
 Ta  Ta1  1  0.50000  0.21450  0.11749  1
 Ta  Ta2  1  0.50000  0.71450  0.38251  1
 Ta  Ta3  1  0.50000  0.28550  0.61749  1
 Ta  Ta4  1  0.50000  0.78550  0.88251  1
