CIF file written using JARVIS-Tools package.
data_SrCd2Ge2
_symmetry_space_group_name_H-M  'I4/mmm'
_cell_length_a       4.51769
_cell_length_b       4.51768
_cell_length_c       6.79434
_cell_angle_alpha    109.418
_cell_angle_beta     109.418
_cell_angle_gamma    90

_symmetry_Int_Tables_number  139
_chemical_formula_structural  SrCd2Ge2
_chemical_formula_sum  SrCd2Ge2
_cell_volume  122.38613563252406
_cell_formula_units_Z  1
loop_
  _symmetry_equiv_pos_site_id
 _symmetry_equiv_pos_as_xyz
 1  'x, y, z'
loop_
 _atom_site_type_symbol
 _atom_site_label
 _atom_site_symmetry_multiplicity
 _atom_site_fract_x
 _atom_site_fract_y
 _atom_site_fract_z
 _atom_site_fract_occupancy
 Cd  Cd1  1  0.75000  0.25000  0.50000  1
 Cd  Cd2  1  0.25000  0.75000  0.50000  1
 Ge  Ge1  1  0.60673  0.60673  0.21345  1
 Ge  Ge2  1  0.39327  0.39327  0.78655  1
 Sr  Sr1  1  0.00000  0.00000  0.00000  1
