CIF file written using JARVIS-Tools package.
data_K2CoH12S2O14
_symmetry_space_group_name_H-M  'P2_1/c'
_cell_length_a       6.12014
_cell_length_b       8.93945
_cell_length_c       12.0167
_cell_angle_alpha    90
_cell_angle_beta     90
_cell_angle_gamma    104.385

_symmetry_Int_Tables_number  14
_chemical_formula_structural  K2CoH12S2O14
_chemical_formula_sum  K4Co2H24S4O28
_cell_volume  636.8284947571608
_cell_formula_units_Z  2
loop_
  _symmetry_equiv_pos_site_id
 _symmetry_equiv_pos_as_xyz
 1  'x, y, z'
loop_
 _atom_site_type_symbol
 _atom_site_label
 _atom_site_symmetry_multiplicity
 _atom_site_fract_x
 _atom_site_fract_y
 _atom_site_fract_z
 _atom_site_fract_occupancy
 Co  Co1  1  0.00000  0.00000  0.00000  1
 Co  Co2  1  0.00000  0.50000  0.50000  1
 H  H1  1  0.65940  0.60353  0.44213  1
 H  H2  1  0.65940  0.10353  0.05787  1
 H  H3  1  0.66585  0.47149  0.35321  1
 H  H4  1  0.34060  0.89647  0.94213  1
 H  H5  1  0.00052  0.35644  0.30573  1
 H  H6  1  -0.00052  0.14356  0.80573  1
 H  H7  1  0.32332  0.21972  0.08550  1
 H  H8  1  0.00052  0.85644  0.19427  1
 H  H9  1  -0.00052  0.64356  0.69427  1
 H  H10  1  0.07259  0.27275  0.89880  1
 H  H11  1  0.07259  0.77275  0.60120  1
 H  H12  1  0.09100  0.75636  0.37728  1
 H  H13  1  0.34060  0.39647  0.55787  1
 H  H14  1  0.90900  0.74364  0.87728  1
 H  H15  1  0.90900  0.24364  0.62272  1
 H  H16  1  0.09100  0.25636  0.12272  1
 H  H17  1  0.32332  0.71972  0.41450  1
 H  H18  1  0.67668  0.78028  0.91450  1
 H  H19  1  0.67668  0.28028  0.58550  1
 H  H20  1  0.92741  0.22725  0.39880  1
 H  H21  1  0.66585  0.97149  0.14679  1
 H  H22  1  0.33415  0.52851  0.64679  1
 H  H23  1  0.92741  0.72725  0.10120  1
 H  H24  1  0.33415  0.02851  0.85321  1
 K  K1  1  0.34409  0.13624  0.33795  1
 K  K2  1  0.34409  0.63624  0.16205  1
 K  K3  1  0.65591  0.86376  0.66205  1
 K  K4  1  0.65591  0.36376  0.83795  1
 O  O1  1  0.94879  0.39775  0.16788  1
 O  O2  1  0.05121  0.10225  0.66788  1
 O  O3  1  0.05121  0.60225  0.83212  1
 O  O4  1  0.94879  0.89775  0.33212  1
 O  O5  1  0.16886  0.17202  0.11395  1
 O  O6  1  0.83114  0.32798  0.61395  1
 O  O7  1  0.70048  0.00344  0.06783  1
 O  O8  1  0.61424  0.78222  0.44412  1
 O  O9  1  0.70048  0.50344  0.43217  1
 O  O10  1  0.29952  0.99656  0.93217  1
 O  O11  1  0.03942  0.32675  0.38153  1
 O  O12  1  0.96058  0.17325  0.88153  1
 O  O13  1  0.96058  0.67325  0.61847  1
 O  O14  1  0.29952  0.49656  0.56783  1
 O  O15  1  0.38576  0.71778  0.94412  1
 O  O16  1  0.03942  0.82675  0.11847  1
 O  O17  1  0.61424  0.28222  0.05588  1
 O  O18  1  0.74523  0.06057  0.43159  1
 O  O19  1  0.25477  0.43943  0.93159  1
 O  O20  1  0.25477  0.93943  0.56841  1
 O  O21  1  0.74523  0.56057  0.06841  1
 O  O22  1  0.57218  0.91029  0.27076  1
 O  O23  1  0.42782  0.58971  0.77076  1
 O  O24  1  0.42782  0.08971  0.72924  1
 O  O25  1  0.57218  0.41029  0.22924  1
 O  O26  1  0.83114  0.82798  0.88605  1
 O  O27  1  0.16886  0.67202  0.38605  1
 O  O28  1  0.38576  0.21778  0.55588  1
 S  S1  1  0.72228  0.91399  0.36964  1
 S  S2  1  0.27772  0.58601  0.86964  1
 S  S3  1  0.27772  0.08601  0.63036  1
 S  S4  1  0.72228  0.41399  0.13036  1
