CIF file written using JARVIS-Tools package.
data_KCo2O4
_symmetry_space_group_name_H-M  'Pmmn'
_cell_length_a       4.92619
_cell_length_b       5.68058
_cell_length_c       12.4132
_cell_angle_alpha    89.9998
_cell_angle_beta     90.0001
_cell_angle_gamma    90

_symmetry_Int_Tables_number  59
_chemical_formula_structural  KCo2O4
_chemical_formula_sum  K4Co8O6
_cell_volume  347.36658203173636
_cell_formula_units_Z  4
loop_
  _symmetry_equiv_pos_site_id
 _symmetry_equiv_pos_as_xyz
 1  'x, y, z'
loop_
 _atom_site_type_symbol
 _atom_site_label
 _atom_site_symmetry_multiplicity
 _atom_site_fract_x
 _atom_site_fract_y
 _atom_site_fract_z
 _atom_site_fract_occupancy
 Co  Co1  1  -0.00003  0.00002  0.50168  1
 Co  Co2  1  0.49996  0.25002  0.50000  1
 Co  Co3  1  0.00004  -0.00000  0.99832  1
 Co  Co4  1  0.50005  0.24999  0.00000  1
 Co  Co5  1  0.50005  0.74999  0.00000  1
 Co  Co6  1  0.49996  0.75001  0.50000  1
 Co  Co7  1  0.00005  0.49999  0.00168  1
 Co  Co8  1  -0.00003  0.50001  0.49832  1
 K  K1  1  0.95857  0.00012  0.25001  1
 K  K2  1  0.36346  0.50007  0.24999  1
 K  K3  1  0.63655  0.99993  0.74999  1
 K  K4  1  0.04145  0.49988  0.75000  1
 O  O1  1  0.16636  0.24852  0.07835  1
 O  O2  1  0.66569  0.00001  0.42414  1
 O  O3  1  0.83366  0.74854  0.57834  1
 O  O4  1  0.33137  0.00002  0.57770  1
 O  O5  1  0.33145  -0.00000  0.92230  1
 O  O6  1  0.16628  0.24855  0.42165  1
 O  O7  1  0.66577  -0.00001  0.07586  1
 O  O8  1  0.16635  0.75146  0.07834  1
 O  O9  1  0.66865  0.49999  0.07770  1
 O  O10  1  0.33424  0.50002  0.57586  1
 O  O11  1  0.33432  0.49999  0.92414  1
 O  O12  1  0.16627  0.75148  0.42166  1
 O  O13  1  0.83365  0.25148  0.57835  1
 O  O14  1  0.66857  0.50001  0.42230  1
 O  O15  1  0.83373  0.25146  0.92165  1
 O  O16  1  0.83374  0.74852  0.92166  1
