CIF file written using JARVIS-Tools package.
data_SnCl2
_symmetry_space_group_name_H-M  'Pnma'
_cell_length_a       4.40871
_cell_length_b       7.75288
_cell_length_c       9.2331
_cell_angle_alpha    90
_cell_angle_beta     90
_cell_angle_gamma    90

_symmetry_Int_Tables_number  62
_chemical_formula_structural  SnCl2
_chemical_formula_sum  Sn4Cl8
_cell_volume  315.58915708019873
_cell_formula_units_Z  4
loop_
  _symmetry_equiv_pos_site_id
 _symmetry_equiv_pos_as_xyz
 1  'x, y, z'
loop_
 _atom_site_type_symbol
 _atom_site_label
 _atom_site_symmetry_multiplicity
 _atom_site_fract_x
 _atom_site_fract_y
 _atom_site_fract_z
 _atom_site_fract_occupancy
 Cl  Cl1  1  0.25000  0.51974  0.84436  1
 Cl  Cl2  1  0.25000  0.14273  0.07879  1
 Cl  Cl3  1  0.25000  0.01974  0.65564  1
 Cl  Cl4  1  0.75000  0.48026  0.15564  1
 Cl  Cl5  1  0.75000  0.85727  0.92121  1
 Cl  Cl6  1  0.75000  0.35727  0.57879  1
 Cl  Cl7  1  0.25000  0.64273  0.42121  1
 Cl  Cl8  1  0.75000  0.98026  0.34436  1
 Sn  Sn1  1  0.75000  0.76768  0.57738  1
 Sn  Sn2  1  0.25000  0.23232  0.42262  1
 Sn  Sn3  1  0.25000  0.73232  0.07738  1
 Sn  Sn4  1  0.75000  0.26768  0.92262  1
