CIF file written using JARVIS-Tools package.
data_NiH12Cl2O6
_symmetry_space_group_name_H-M  'C2/m'
_cell_length_a       6.1997
_cell_length_b       6.1997
_cell_length_c       6.48168
_cell_angle_alpha    63.0175
_cell_angle_beta     63.0175
_cell_angle_gamma    68.2999

_symmetry_Int_Tables_number  12
_chemical_formula_structural  NiH12Cl2O6
_chemical_formula_sum  NiH2Cl2O6
_cell_volume  193.58655232879636
_cell_formula_units_Z  1
loop_
  _symmetry_equiv_pos_site_id
 _symmetry_equiv_pos_as_xyz
 1  'x, y, z'
loop_
 _atom_site_type_symbol
 _atom_site_label
 _atom_site_symmetry_multiplicity
 _atom_site_fract_x
 _atom_site_fract_y
 _atom_site_fract_z
 _atom_site_fract_occupancy
 Cl  Cl1  1  0.72379  0.72379  0.17330  1
 Cl  Cl2  1  0.27621  0.27621  0.82670  1
 H  H1  1  0.26848  0.26848  0.15761  1
 H  H2  1  0.19933  0.58225  0.28048  1
 H  H3  1  0.41775  0.80067  0.71952  1
 H  H4  1  0.80067  0.41775  0.71951  1
 H  H5  1  0.67491  0.20982  0.76698  1
 H  H6  1  0.79018  0.32509  0.23302  1
 H  H7  1  0.73152  0.73152  0.84238  1
 H  H8  1  0.20982  0.67491  0.76698  1
 H  H9  1  0.18135  0.18135  0.45251  1
 H  H10  1  0.81865  0.81865  0.54749  1
 H  H11  1  0.32509  0.79018  0.23302  1
 H  H12  1  0.58225  0.19933  0.28048  1
 Ni  Ni1  1  0.00000  0.00000  0.00000  1
 O  O1  1  0.71531  0.71531  0.70434  1
 O  O2  1  0.28469  0.28469  0.29566  1
 O  O3  1  0.83411  0.23900  0.73909  1
 O  O4  1  0.76100  0.16589  0.26091  1
 O  O5  1  0.23900  0.83411  0.73909  1
 O  O6  1  0.16589  0.76100  0.26091  1
