CIF file written using JARVIS-Tools package.
data_BeCo4Pb
_symmetry_space_group_name_H-M  'F-43m'
_cell_length_a       4.81272
_cell_length_b       4.81272
_cell_length_c       4.81272
_cell_angle_alpha    60
_cell_angle_beta     60
_cell_angle_gamma    60

_symmetry_Int_Tables_number  216
_chemical_formula_structural  BeCo4Pb
_chemical_formula_sum  BeCo4Pb
_cell_volume  78.8238310709728
_cell_formula_units_Z  1
loop_
  _symmetry_equiv_pos_site_id
 _symmetry_equiv_pos_as_xyz
 1  'x, y, z'
loop_
 _atom_site_type_symbol
 _atom_site_label
 _atom_site_symmetry_multiplicity
 _atom_site_fract_x
 _atom_site_fract_y
 _atom_site_fract_z
 _atom_site_fract_occupancy
 Be  Be1  1  0.00000  0.00000  0.00000  1
 Co  Co1  1  0.37383  0.37383  0.37383  1
 Co  Co2  1  0.37383  0.87851  0.37383  1
 Co  Co3  1  0.37383  0.37383  0.87851  1
 Co  Co4  1  0.87851  0.37383  0.37383  1
 Pb  Pb1  1  0.75000  0.75000  0.75000  1
