CIF file written using JARVIS-Tools package.
data_La3TiSb5
_symmetry_space_group_name_H-M  'P6_3/mcm'
_cell_length_a       9.58919
_cell_length_b       9.5892
_cell_length_c       6.34076
_cell_angle_alpha    90
_cell_angle_beta     90
_cell_angle_gamma    120

_symmetry_Int_Tables_number  193
_chemical_formula_structural  La3TiSb5
_chemical_formula_sum  La6Ti2Sb0
_cell_volume  504.93538866014427
_cell_formula_units_Z  2
loop_
  _symmetry_equiv_pos_site_id
 _symmetry_equiv_pos_as_xyz
 1  'x, y, z'
loop_
 _atom_site_type_symbol
 _atom_site_label
 _atom_site_symmetry_multiplicity
 _atom_site_fract_x
 _atom_site_fract_y
 _atom_site_fract_z
 _atom_site_fract_occupancy
 La  La1  1  0.61757  0.00000  0.25000  1
 La  La2  1  -0.00000  0.38243  0.75000  1
 La  La3  1  -0.00000  0.61757  0.25000  1
 La  La4  1  0.38243  0.38243  0.25000  1
 La  La5  1  0.38243  0.00000  0.75000  1
 La  La6  1  0.61757  0.61757  0.75000  1
 Sb  Sb1  1  0.66667  0.33333  0.50000  1
 Sb  Sb2  1  0.33333  0.66667  0.00000  1
 Sb  Sb3  1  0.75083  0.00000  0.75000  1
 Sb  Sb4  1  0.00000  0.24917  0.25000  1
 Sb  Sb5  1  -0.00000  0.75083  0.75000  1
 Sb  Sb6  1  0.66667  0.33333  0.00000  1
 Sb  Sb7  1  0.75083  0.75083  0.25000  1
 Sb  Sb8  1  0.33333  0.66667  0.50000  1
 Sb  Sb9  1  0.24917  0.24917  0.75000  1
 Sb  Sb10  1  0.24917  0.00000  0.25000  1
 Ti  Ti1  1  0.00000  0.00000  0.50000  1
 Ti  Ti2  1  0.00000  0.00000  0.00000  1
