CIF file written using JARVIS-Tools package.
data_CoBi2SO7
_symmetry_space_group_name_H-M  'Pbcm'
_cell_length_a       5.39385
_cell_length_b       7.15248
_cell_length_c       15.827
_cell_angle_alpha    90
_cell_angle_beta     90
_cell_angle_gamma    90

_symmetry_Int_Tables_number  57
_chemical_formula_structural  CoBi2SO7
_chemical_formula_sum  Co4Bi8S4O28
_cell_volume  610.597868304908
_cell_formula_units_Z  4
loop_
  _symmetry_equiv_pos_site_id
 _symmetry_equiv_pos_as_xyz
 1  'x, y, z'
loop_
 _atom_site_type_symbol
 _atom_site_label
 _atom_site_symmetry_multiplicity
 _atom_site_fract_x
 _atom_site_fract_y
 _atom_site_fract_z
 _atom_site_fract_occupancy
 Bi  Bi1  1  0.75000  0.17344  0.01916  1
 Bi  Bi2  1  0.25000  0.17344  0.48084  1
 Bi  Bi3  1  0.25000  0.82656  0.98084  1
 Bi  Bi4  1  0.25000  0.76541  0.34132  1
 Bi  Bi5  1  0.75000  0.82656  0.51916  1
 Bi  Bi6  1  0.75000  0.23459  0.65868  1
 Bi  Bi7  1  0.25000  0.23459  0.84132  1
 Bi  Bi8  1  0.75000  0.76541  0.15868  1
 Co  Co1  1  0.25000  0.94824  0.67425  1
 Co  Co2  1  0.75000  0.94824  0.82575  1
 Co  Co3  1  0.75000  0.05176  0.32575  1
 Co  Co4  1  0.25000  0.05176  0.17425  1
 O  O1  1  0.52745  0.68515  0.84972  1
 O  O2  1  0.97255  0.68515  0.84972  1
 O  O3  1  0.49744  0.95534  0.41759  1
 O  O4  1  0.50000  0.08162  0.75000  1
 O  O5  1  0.50256  0.04466  0.58241  1
 O  O6  1  0.00256  0.95534  0.41759  1
 O  O7  1  0.02745  0.68515  0.65028  1
 O  O8  1  0.00256  0.04466  0.91759  1
 O  O9  1  0.47255  0.68515  0.65028  1
 O  O10  1  0.50000  0.91838  0.25000  1
 O  O11  1  0.75000  0.61229  0.36463  1
 O  O12  1  0.25000  0.61329  0.51890  1
 O  O13  1  0.02745  0.31485  0.15028  1
 O  O14  1  0.99744  0.04466  0.58241  1
 O  O15  1  0.52745  0.31485  0.34972  1
 O  O16  1  0.00000  0.91838  0.25000  1
 O  O17  1  0.97255  0.31485  0.34972  1
 O  O18  1  0.25000  0.61229  0.13537  1
 O  O19  1  0.75000  0.61329  0.98110  1
 O  O20  1  0.75000  0.38771  0.86463  1
 O  O21  1  0.00000  0.08162  0.75000  1
 O  O22  1  0.47255  0.31485  0.15028  1
 O  O23  1  0.25000  0.38671  0.01890  1
 O  O24  1  0.99744  0.95534  0.08241  1
 O  O25  1  0.49744  0.04466  0.91759  1
 O  O26  1  0.50256  0.95534  0.08241  1
 O  O27  1  0.75000  0.38671  0.48110  1
 O  O28  1  0.25000  0.38771  0.63537  1
 S  S1  1  0.75000  0.40940  0.38732  1
 S  S2  1  0.25000  0.59060  0.61268  1
 S  S3  1  0.25000  0.40940  0.11268  1
 S  S4  1  0.75000  0.59060  0.88732  1
