CIF file written using JARVIS-Tools package.
data_Li3CrCo3O8
_symmetry_space_group_name_H-M  'C2/m'
_cell_length_a       5.67302
_cell_length_b       5.67302
_cell_length_c       5.70594
_cell_angle_alpha    60.9468
_cell_angle_beta     60.9467
_cell_angle_gamma    60.0275

_symmetry_Int_Tables_number  12
_chemical_formula_structural  Li3CrCo3O8
_chemical_formula_sum  Li3CrCo3O8
_cell_volume  131.70498584445386
_cell_formula_units_Z  1
loop_
  _symmetry_equiv_pos_site_id
 _symmetry_equiv_pos_as_xyz
 1  'x, y, z'
loop_
 _atom_site_type_symbol
 _atom_site_label
 _atom_site_symmetry_multiplicity
 _atom_site_fract_x
 _atom_site_fract_y
 _atom_site_fract_z
 _atom_site_fract_occupancy
 Co  Co1  1  -0.00000  0.50000  -0.00000  1
 Co  Co2  1  0.50000  -0.00000  -0.00000  1
 Co  Co3  1  0.50000  0.50000  -0.00000  1
 Cr  Cr1  1  0.00000  0.00000  0.00000  1
 Li  Li1  1  -0.00000  0.50000  0.50000  1
 Li  Li2  1  0.50000  -0.00000  0.50000  1
 Li  Li3  1  0.50000  0.50000  0.50000  1
 O  O1  1  0.26718  0.26718  0.20863  1
 O  O2  1  0.26713  0.75777  0.21601  1
 O  O3  1  0.24189  0.24189  0.77608  1
 O  O4  1  0.24223  0.73287  0.78399  1
 O  O5  1  0.75777  0.26713  0.21601  1
 O  O6  1  0.75811  0.75811  0.22392  1
 O  O7  1  0.73287  0.24223  0.78399  1
 O  O8  1  0.73282  0.73282  0.79137  1
