CIF file written using JARVIS-Tools package.
data_K3VO4
_symmetry_space_group_name_H-M  'I-42m'
_cell_length_a       5.79068
_cell_length_b       5.79068
_cell_length_c       5.79068
_cell_angle_alpha    105.641
_cell_angle_beta     111.419
_cell_angle_gamma    111.419

_symmetry_Int_Tables_number  121
_chemical_formula_structural  K3VO4
_chemical_formula_sum  K3VO4
_cell_volume  148.97757469616195
_cell_formula_units_Z  1
loop_
  _symmetry_equiv_pos_site_id
 _symmetry_equiv_pos_as_xyz
 1  'x, y, z'
loop_
 _atom_site_type_symbol
 _atom_site_label
 _atom_site_symmetry_multiplicity
 _atom_site_fract_x
 _atom_site_fract_y
 _atom_site_fract_z
 _atom_site_fract_occupancy
 K  K1  1  1.00000  0.50000  0.50000  1
 K  K2  1  0.50000  0.25000  0.75000  1
 K  K3  1  0.50000  0.75000  0.25000  1
 O  O1  1  0.69057  0.98741  0.98741  1
 O  O2  1  1.00000  0.01259  0.70316  1
 O  O3  1  1.00000  0.70316  0.01259  1
 O  O4  1  0.30943  0.29684  0.29684  1
 V  V1  1  0.00000  0.00000  0.00000  1
