CIF file written using JARVIS-Tools package.
data_Ca6Si3H2O13
_symmetry_space_group_name_H-M  'P-1'
_cell_length_a       6.84032
_cell_length_b       6.93769
_cell_length_c       12.9052
_cell_angle_alpha    90.9846
_cell_angle_beta     97.5679
_cell_angle_gamma    98.2736

_symmetry_Int_Tables_number  2
_chemical_formula_structural  Ca6Si3H2O13
_chemical_formula_sum  Ca2Si6H4O26
_cell_volume  600.3675846517211
_cell_formula_units_Z  2
loop_
  _symmetry_equiv_pos_site_id
 _symmetry_equiv_pos_as_xyz
 1  'x, y, z'
loop_
 _atom_site_type_symbol
 _atom_site_label
 _atom_site_symmetry_multiplicity
 _atom_site_fract_x
 _atom_site_fract_y
 _atom_site_fract_z
 _atom_site_fract_occupancy
 Ca  Ca1  1  0.68483  0.81169  0.12526  1
 Ca  Ca2  1  0.31517  0.18831  0.87474  1
 Ca  Ca3  1  0.56578  0.03488  0.32307  1
 Ca  Ca4  1  0.40410  0.52186  0.29581  1
 Ca  Ca5  1  0.89100  0.47351  0.29073  1
 Ca  Ca6  1  0.19084  0.20304  0.48686  1
 Ca  Ca7  1  0.59590  0.47814  0.70419  1
 Ca  Ca8  1  0.92150  0.80375  0.89867  1
 Ca  Ca9  1  0.10900  0.52649  0.70927  1
 Ca  Ca10  1  0.43422  0.96512  0.67693  1
 Ca  Ca11  1  0.80916  0.79696  0.51314  1
 Ca  Ca12  1  0.07850  0.19625  0.10133  1
 H  H1  1  0.80016  0.97369  0.72894  1
 H  H2  1  0.19984  0.02631  0.27106  1
 H  H3  1  0.06128  0.11062  0.67599  1
 H  H4  1  0.93872  0.88938  0.32401  1
 O  O1  1  0.16387  0.51232  0.41706  1
 O  O2  1  0.83613  0.48768  0.58294  1
 O  O3  1  0.38602  0.50887  0.83491  1
 O  O4  1  0.38345  0.81818  0.19611  1
 O  O5  1  0.25123  0.66232  0.99950  1
 O  O6  1  0.61398  0.49113  0.16509  1
 O  O7  1  0.35971  0.62821  0.60912  1
 O  O8  1  0.76494  0.83957  0.70050  1
 O  O9  1  0.61655  0.18182  0.80389  1
 O  O10  1  0.61104  0.81187  0.94801  1
 O  O11  1  0.88729  0.48861  0.83051  1
 O  O12  1  0.15362  0.87132  0.51400  1
 O  O13  1  0.74475  0.15447  0.17766  1
 O  O14  1  0.64029  0.37179  0.39088  1
 O  O15  1  0.74877  0.33768  0.00050  1
 O  O16  1  0.23506  0.16043  0.29950  1
 O  O17  1  0.98681  0.14699  0.91004  1
 O  O18  1  0.47856  0.78289  0.43320  1
 O  O19  1  0.01319  0.85301  0.08996  1
 O  O20  1  0.52144  0.21711  0.56680  1
 O  O21  1  0.18547  0.20233  0.68454  1
 O  O22  1  0.25525  0.84553  0.82234  1
 O  O23  1  0.81453  0.79767  0.31546  1
 O  O24  1  0.84638  0.12868  0.48600  1
 O  O25  1  0.11271  0.51139  0.16949  1
 O  O26  1  0.38896  0.18813  0.05199  1
 Si  Si1  1  0.28457  0.69890  0.49081  1
 Si  Si2  1  0.38765  0.71106  0.90209  1
 Si  Si3  1  0.61235  0.28894  0.09791  1
 Si  Si4  1  0.18916  0.71684  0.11580  1
 Si  Si5  1  0.81084  0.28316  0.88420  1
 Si  Si6  1  0.71543  0.30110  0.50919  1
