CIF file written using JARVIS-Tools package.
data_Tl6SI4
_symmetry_space_group_name_H-M  'P4/mnc'
_cell_length_a       9.24941
_cell_length_b       9.24941
_cell_length_c       9.70825
_cell_angle_alpha    90
_cell_angle_beta     90
_cell_angle_gamma    90

_symmetry_Int_Tables_number  128
_chemical_formula_structural  Tl6SI4
_chemical_formula_sum  Tl2S2I8
_cell_volume  830.5559901403008
_cell_formula_units_Z  2
loop_
  _symmetry_equiv_pos_site_id
 _symmetry_equiv_pos_as_xyz
 1  'x, y, z'
loop_
 _atom_site_type_symbol
 _atom_site_label
 _atom_site_symmetry_multiplicity
 _atom_site_fract_x
 _atom_site_fract_y
 _atom_site_fract_z
 _atom_site_fract_occupancy
 I  I1  1  0.16177  0.33823  0.75000  1
 I  I2  1  0.33823  0.83823  0.75000  1
 I  I3  1  0.83823  0.66177  0.75000  1
 I  I4  1  0.83823  0.66177  0.25000  1
 I  I5  1  0.33823  0.83823  0.25000  1
 I  I6  1  0.66177  0.16177  0.25000  1
 I  I7  1  0.16177  0.33823  0.25000  1
 I  I8  1  0.66177  0.16177  0.75000  1
 S  S1  1  0.00000  0.00000  0.50000  1
 S  S2  1  0.50000  0.50000  0.00000  1
 Tl  Tl1  1  0.00000  0.00000  0.20022  1
 Tl  Tl2  1  0.69081  0.89094  0.50000  1
 Tl  Tl3  1  0.60906  0.80919  0.00000  1
 Tl  Tl4  1  0.10906  0.69081  0.50000  1
 Tl  Tl5  1  0.89094  0.30919  0.50000  1
 Tl  Tl6  1  0.19081  0.60906  0.00000  1
 Tl  Tl7  1  0.80919  0.39094  0.00000  1
 Tl  Tl8  1  0.39094  0.19081  0.00000  1
 Tl  Tl9  1  0.00000  0.00000  0.79978  1
 Tl  Tl10  1  0.50000  0.50000  0.70022  1
 Tl  Tl11  1  0.30919  0.10906  0.50000  1
 Tl  Tl12  1  0.50000  0.50000  0.29978  1
