CIF file written using JARVIS-Tools package.
data_Na5Li3Ti5O14
_symmetry_space_group_name_H-M  'P1'
_cell_length_a       5.21312
_cell_length_b       7.00619
_cell_length_c       8.19151
_cell_angle_alpha    90.1075
_cell_angle_beta     101.159
_cell_angle_gamma    97.3672

_symmetry_Int_Tables_number  1
_chemical_formula_structural  Na5Li3Ti5O14
_chemical_formula_sum  Na5Li3Ti5O4
_cell_volume  290.99951360113744
_cell_formula_units_Z  1
loop_
  _symmetry_equiv_pos_site_id
 _symmetry_equiv_pos_as_xyz
 1  'x, y, z'
loop_
 _atom_site_type_symbol
 _atom_site_label
 _atom_site_symmetry_multiplicity
 _atom_site_fract_x
 _atom_site_fract_y
 _atom_site_fract_z
 _atom_site_fract_occupancy
 Li  Li1  1  0.17415  0.46747  0.91550  1
 Li  Li2  1  0.85748  0.70994  0.71255  1
 Li  Li3  1  0.56793  0.15245  0.14034  1
 Na  Na1  1  0.51364  0.99866  0.49664  1
 Na  Na2  1  0.91255  0.84475  0.34650  1
 Na  Na3  1  0.64712  0.30718  0.81237  1
 Na  Na4  1  0.07431  0.13523  0.64089  1
 Na  Na5  1  0.35763  0.71005  0.21090  1
 O  O1  1  0.94591  0.26941  0.04961  1
 O  O2  1  0.75248  0.97985  0.78020  1
 O  O3  1  0.20565  0.82724  0.61980  1
 O  O4  1  0.48649  0.59289  0.80470  1
 O  O5  1  0.96983  0.44803  0.65821  1
 O  O6  1  0.12452  0.74809  0.95231  1
 O  O7  1  0.60005  0.67320  0.47934  1
 O  O8  1  0.68222  0.88268  0.07526  1
 O  O9  1  0.04188  0.53583  0.35162  1
 O  O10  1  0.83373  0.17777  0.37566  1
 O  O11  1  0.46305  0.40280  0.21615  1
 O  O12  1  0.31085  0.10060  0.90084  1
 O  O13  1  0.40581  0.31030  0.52285  1
 O  O14  1  0.21916  0.02492  0.22782  1
 Ti  Ti1  1  0.27606  0.57753  0.58413  1
 Ti  Ti2  1  0.01363  0.98717  0.99444  1
 Ti  Ti3  1  0.45279  0.85763  0.86736  1
 Ti  Ti4  1  0.69930  0.42516  0.42713  1
 Ti  Ti5  1  0.12624  0.28150  0.26579  1
