CIF file written using JARVIS-Tools package.
data_CaAlF5
_symmetry_space_group_name_H-M  'C2/c'
_cell_length_a       5.42423
_cell_length_b       5.42422
_cell_length_c       7.37952
_cell_angle_alpha    69.9985
_cell_angle_beta     69.9986
_cell_angle_gamma    71.8112

_symmetry_Int_Tables_number  15
_chemical_formula_structural  CaAlF5
_chemical_formula_sum  Ca2Al2F0
_cell_volume  186.9788966352281
_cell_formula_units_Z  2
loop_
  _symmetry_equiv_pos_site_id
 _symmetry_equiv_pos_as_xyz
 1  'x, y, z'
loop_
 _atom_site_type_symbol
 _atom_site_label
 _atom_site_symmetry_multiplicity
 _atom_site_fract_x
 _atom_site_fract_y
 _atom_site_fract_z
 _atom_site_fract_occupancy
 Al  Al1  1  0.00000  -0.00000  0.50000  1
 Al  Al2  1  0.00000  0.00000  0.00000  1
 Ca  Ca1  1  0.45561  0.54439  0.25000  1
 Ca  Ca2  1  0.54439  0.45561  0.75000  1
 F  F1  1  0.79863  0.75585  0.61488  1
 F  F2  1  0.24415  0.20137  0.88512  1
 F  F3  1  0.20137  0.24415  0.38512  1
 F  F4  1  0.75585  0.79863  0.11488  1
 F  F5  1  0.93911  0.06089  0.75000  1
 F  F6  1  0.06089  0.93911  0.25000  1
 F  F7  1  0.72988  0.29845  0.02706  1
 F  F8  1  0.70155  0.27012  0.47294  1
 F  F9  1  0.27012  0.70155  0.97294  1
 F  F10  1  0.29845  0.72988  0.52706  1
