CIF file written using JARVIS-Tools package.
data_NiS2
_symmetry_space_group_name_H-M  'Pa-3'
_cell_length_a       5.63358
_cell_length_b       5.63358
_cell_length_c       5.63358
_cell_angle_alpha    90
_cell_angle_beta     90
_cell_angle_gamma    90

_symmetry_Int_Tables_number  205
_chemical_formula_structural  NiS2
_chemical_formula_sum  Ni4S8
_cell_volume  178.79394879265965
_cell_formula_units_Z  4
loop_
  _symmetry_equiv_pos_site_id
 _symmetry_equiv_pos_as_xyz
 1  'x, y, z'
loop_
 _atom_site_type_symbol
 _atom_site_label
 _atom_site_symmetry_multiplicity
 _atom_site_fract_x
 _atom_site_fract_y
 _atom_site_fract_z
 _atom_site_fract_occupancy
 Ni  Ni1  1  0.00000  0.50000  0.50000  1
 Ni  Ni2  1  0.50000  0.50000  0.00000  1
 Ni  Ni3  1  0.50000  0.00000  0.50000  1
 Ni  Ni4  1  0.00000  0.00000  0.00000  1
 S  S1  1  0.39319  0.10681  0.89319  1
 S  S2  1  0.10681  0.89319  0.39319  1
 S  S3  1  0.89319  0.39319  0.10681  1
 S  S4  1  0.60681  0.60681  0.60681  1
 S  S5  1  0.39319  0.39319  0.39319  1
 S  S6  1  0.10681  0.60681  0.89319  1
 S  S7  1  0.89319  0.10681  0.60681  1
 S  S8  1  0.60681  0.89319  0.10681  1
