CIF file written using JARVIS-Tools package.
data_K3SmP2O8
_symmetry_space_group_name_H-M  'P2_1/m'
_cell_length_a       5.64536
_cell_length_b       7.39297
_cell_length_c       9.50227
_cell_angle_alpha    90.7189
_cell_angle_beta     90
_cell_angle_gamma    90

_symmetry_Int_Tables_number  11
_chemical_formula_structural  K3SmP2O8
_chemical_formula_sum  K6Sm2P4O6
_cell_volume  396.5553892763069
_cell_formula_units_Z  2
loop_
  _symmetry_equiv_pos_site_id
 _symmetry_equiv_pos_as_xyz
 1  'x, y, z'
loop_
 _atom_site_type_symbol
 _atom_site_label
 _atom_site_symmetry_multiplicity
 _atom_site_fract_x
 _atom_site_fract_y
 _atom_site_fract_z
 _atom_site_fract_occupancy
 K  K1  1  0.25000  0.80032  0.91779  1
 K  K2  1  0.75000  0.19968  0.08221  1
 K  K3  1  0.75000  0.63460  0.40826  1
 K  K4  1  0.25000  0.36540  0.59174  1
 K  K5  1  0.75000  0.49305  0.80885  1
 K  K6  1  0.25000  0.50695  0.19115  1
 O  O1  1  0.47413  0.15478  0.83839  1
 O  O2  1  0.97413  0.84522  0.16161  1
 O  O3  1  0.52587  0.84522  0.16161  1
 O  O4  1  0.75000  0.28489  0.57484  1
 O  O5  1  0.25000  0.71511  0.42516  1
 O  O6  1  0.75000  0.98670  0.44953  1
 O  O7  1  0.25000  0.01330  0.55047  1
 O  O8  1  0.02507  0.74928  0.65739  1
 O  O9  1  0.52507  0.25072  0.34261  1
 O  O10  1  0.97493  0.25072  0.34261  1
 O  O11  1  0.25000  0.44143  0.89897  1
 O  O12  1  0.75000  0.55857  0.10103  1
 O  O13  1  0.25000  0.17620  0.06949  1
 O  O14  1  0.02587  0.15478  0.83839  1
 O  O15  1  0.47493  0.74928  0.65739  1
 O  O16  1  0.75000  0.82380  0.93051  1
 P  P1  1  0.75000  0.19395  0.42574  1
 P  P2  1  0.75000  0.76521  0.08740  1
 P  P3  1  0.25000  0.23479  0.91260  1
 P  P4  1  0.25000  0.80605  0.57426  1
 Sm  Sm1  1  0.25000  0.00685  0.29137  1
 Sm  Sm2  1  0.75000  0.99315  0.70863  1
