CIF file written using JARVIS-Tools package.
data_Rb2SbAuS4
_symmetry_space_group_name_H-M  'Pbcm'
_cell_length_a       6.72733
_cell_length_b       7.20386
_cell_length_c       20.2035
_cell_angle_alpha    90
_cell_angle_beta     90
_cell_angle_gamma    90

_symmetry_Int_Tables_number  57
_chemical_formula_structural  Rb2SbAuS4
_chemical_formula_sum  Rb8Sb4Au4S6
_cell_volume  979.1154426346687
_cell_formula_units_Z  4
loop_
  _symmetry_equiv_pos_site_id
 _symmetry_equiv_pos_as_xyz
 1  'x, y, z'
loop_
 _atom_site_type_symbol
 _atom_site_label
 _atom_site_symmetry_multiplicity
 _atom_site_fract_x
 _atom_site_fract_y
 _atom_site_fract_z
 _atom_site_fract_occupancy
 Au  Au1  1  0.40286  0.00000  0.75000  1
 Au  Au2  1  0.59714  0.00000  0.25000  1
 Au  Au3  1  0.40286  0.50000  0.75000  1
 Au  Au4  1  0.59714  0.50000  0.25000  1
 Rb  Rb1  1  0.90950  0.75000  0.82909  1
 Rb  Rb2  1  0.70055  0.75000  0.51191  1
 Rb  Rb3  1  0.29945  0.75000  0.01191  1
 Rb  Rb4  1  0.09050  0.75000  0.32909  1
 Rb  Rb5  1  0.29945  0.25000  0.48809  1
 Rb  Rb6  1  0.70055  0.25000  0.98809  1
 Rb  Rb7  1  0.90950  0.25000  0.67091  1
 Rb  Rb8  1  0.09050  0.25000  0.17091  1
 S  S1  1  0.10281  0.75000  0.16241  1
 S  S2  1  0.60088  0.52386  0.36433  1
 S  S3  1  0.80165  0.25000  0.50689  1
 S  S4  1  0.39912  0.02386  0.63567  1
 S  S5  1  0.10281  0.25000  0.33759  1
 S  S6  1  0.60088  0.97614  0.36433  1
 S  S7  1  0.19835  0.25000  0.00689  1
 S  S8  1  0.89719  0.25000  0.83759  1
 S  S9  1  0.19835  0.75000  0.49311  1
 S  S10  1  0.60088  0.02386  0.13567  1
 S  S11  1  0.39912  0.52386  0.86433  1
 S  S12  1  0.89719  0.75000  0.66241  1
 S  S13  1  0.80165  0.75000  0.99311  1
 S  S14  1  0.60088  0.47614  0.13567  1
 S  S15  1  0.39912  0.47614  0.63567  1
 S  S16  1  0.39912  0.97614  0.86433  1
 Sb  Sb1  1  0.20643  0.75000  0.60955  1
 Sb  Sb2  1  0.20643  0.25000  0.89045  1
 Sb  Sb3  1  0.79357  0.25000  0.39045  1
 Sb  Sb4  1  0.79357  0.75000  0.10955  1
