CIF file written using JARVIS-Tools package.
data_CaMo5O8
_symmetry_space_group_name_H-M  'P2_1/c'
_cell_length_a       7.57779
_cell_length_b       9.11145
_cell_length_c       10.0242
_cell_angle_alpha    90
_cell_angle_beta     110.139
_cell_angle_gamma    90

_symmetry_Int_Tables_number  14
_chemical_formula_structural  CaMo5O8
_chemical_formula_sum  Ca4Mo20O32
_cell_volume  649.8017063832755
_cell_formula_units_Z  4
loop_
  _symmetry_equiv_pos_site_id
 _symmetry_equiv_pos_as_xyz
 1  'x, y, z'
loop_
 _atom_site_type_symbol
 _atom_site_label
 _atom_site_symmetry_multiplicity
 _atom_site_fract_x
 _atom_site_fract_y
 _atom_site_fract_z
 _atom_site_fract_occupancy
 Ca  Ca1  1  0.26644  0.50412  0.52388  1
 Ca  Ca2  1  0.73356  0.00412  0.97612  1
 Ca  Ca3  1  0.73356  0.49588  0.47612  1
 Ca  Ca4  1  0.26644  0.99588  0.02388  1
 Mo  Mo1  1  -0.00001  0.12284  0.41318  1
 Mo  Mo2  1  0.17596  0.87262  0.38666  1
 Mo  Mo3  1  -0.00001  0.37716  0.91318  1
 Mo  Mo4  1  0.00001  0.87716  0.58682  1
 Mo  Mo5  1  0.39006  0.38517  0.01579  1
 Mo  Mo6  1  0.39006  0.11483  0.51579  1
 Mo  Mo7  1  0.60994  0.61483  0.98421  1
 Mo  Mo8  1  0.38343  0.88517  0.68157  1
 Mo  Mo9  1  0.61657  0.38517  0.81843  1
 Mo  Mo10  1  0.60994  0.88517  0.48421  1
 Mo  Mo11  1  0.81153  0.63426  0.80089  1
 Mo  Mo12  1  0.82404  0.12738  0.61334  1
 Mo  Mo13  1  0.82404  0.37262  0.11334  1
 Mo  Mo14  1  0.17596  0.62738  0.88666  1
 Mo  Mo15  1  0.81153  0.86574  0.30089  1
 Mo  Mo16  1  0.18847  0.36574  0.19911  1
 Mo  Mo17  1  0.18847  0.13426  0.69911  1
 Mo  Mo18  1  0.38343  0.61483  0.18157  1
 Mo  Mo19  1  0.00001  0.62284  0.08682  1
 Mo  Mo20  1  0.61657  0.11483  0.31843  1
 O  O1  1  0.59990  -0.00832  0.15706  1
 O  O2  1  0.79998  0.74613  0.61794  1
 O  O3  1  0.20002  0.25387  0.38207  1
 O  O4  1  0.79998  0.75387  0.11793  1
 O  O5  1  0.39982  0.75151  0.52132  1
 O  O6  1  0.60018  0.25151  0.97868  1
 O  O7  1  0.01505  0.50047  0.26482  1
 O  O8  1  0.39982  0.74849  0.02132  1
 O  O9  1  0.98495  0.49953  0.73518  1
 O  O10  1  0.01505  -0.00047  0.76482  1
 O  O11  1  0.98495  0.00047  0.23518  1
 O  O12  1  0.40010  0.00832  0.84294  1
 O  O13  1  0.20631  0.75129  0.21940  1
 O  O14  1  0.60018  0.24849  0.47868  1
 O  O15  1  0.79369  0.25129  0.28060  1
 O  O16  1  0.99231  0.27964  0.56188  1
 O  O17  1  0.20631  0.74871  0.71940  1
 O  O18  1  0.60743  0.76573  0.83194  1
 O  O19  1  0.39258  0.26573  0.66806  1
 O  O20  1  0.39258  0.23427  0.16807  1
 O  O21  1  0.60743  0.73427  0.33194  1
 O  O22  1  0.38207  -0.00179  0.33064  1
 O  O23  1  0.61793  0.49821  0.16936  1
 O  O24  1  0.61793  0.00179  0.66936  1
 O  O25  1  0.59990  0.50832  0.65706  1
 O  O26  1  0.38207  0.50179  0.83063  1
 O  O27  1  0.20002  0.24613  0.88207  1
 O  O28  1  0.99231  0.22036  0.06188  1
 O  O29  1  0.00769  0.77964  0.93812  1
 O  O30  1  0.00769  0.72036  0.43812  1
 O  O31  1  0.79369  0.24871  0.78060  1
 O  O32  1  0.40010  0.49168  0.34294  1
