CIF file written using JARVIS-Tools package.
data_K2Ag4Se3
_symmetry_space_group_name_H-M  'C2/m'
_cell_length_a       4.42141
_cell_length_b       9.27985
_cell_length_c       11.8742
_cell_angle_alpha    107.585
_cell_angle_beta     90
_cell_angle_gamma    103.782

_symmetry_Int_Tables_number  12
_chemical_formula_structural  K2Ag4Se3
_chemical_formula_sum  K4Ag8Se6
_cell_volume  449.6975668314352
_cell_formula_units_Z  2
loop_
  _symmetry_equiv_pos_site_id
 _symmetry_equiv_pos_as_xyz
 1  'x, y, z'
loop_
 _atom_site_type_symbol
 _atom_site_label
 _atom_site_symmetry_multiplicity
 _atom_site_fract_x
 _atom_site_fract_y
 _atom_site_fract_z
 _atom_site_fract_occupancy
 Ag  Ag1  1  0.02116  0.04233  0.62980  1
 Ag  Ag2  1  0.58548  0.17096  0.08019  1
 Ag  Ag3  1  0.59008  0.18016  0.51760  1
 Ag  Ag4  1  0.01141  0.02282  0.87904  1
 Ag  Ag5  1  0.98859  0.97718  0.12097  1
 Ag  Ag6  1  0.97884  0.95767  0.37020  1
 Ag  Ag7  1  0.41452  0.82904  0.91981  1
 Ag  Ag8  1  0.40992  0.81984  0.48240  1
 K  K1  1  0.81543  0.63087  0.65778  1
 K  K2  1  0.66339  0.32678  0.83666  1
 K  K3  1  0.33661  0.67322  0.16334  1
 K  K4  1  0.18457  0.36913  0.34222  1
 Se  Se1  1  0.53405  0.06809  0.27716  1
 Se  Se2  1  0.85040  0.70079  0.95919  1
 Se  Se3  1  0.16684  0.33367  0.61898  1
 Se  Se4  1  0.46595  0.93191  0.72284  1
 Se  Se5  1  0.83316  0.66633  0.38102  1
 Se  Se6  1  0.14960  0.29921  0.04081  1
