CIF file written using JARVIS-Tools package.
data_Nd3S2Cl5
_symmetry_space_group_name_H-M  'P2_1/c'
_cell_length_a       6.56387
_cell_length_b       7.08189
_cell_length_c       21.8988
_cell_angle_alpha    97.7435
_cell_angle_beta     90
_cell_angle_gamma    90

_symmetry_Int_Tables_number  14
_chemical_formula_structural  Nd3S2Cl5
_chemical_formula_sum  Nd2S8Cl20
_cell_volume  1008.6735109104358
_cell_formula_units_Z  4
loop_
  _symmetry_equiv_pos_site_id
 _symmetry_equiv_pos_as_xyz
 1  'x, y, z'
loop_
 _atom_site_type_symbol
 _atom_site_label
 _atom_site_symmetry_multiplicity
 _atom_site_fract_x
 _atom_site_fract_y
 _atom_site_fract_z
 _atom_site_fract_occupancy
 Cl  Cl1  1  0.14907  0.97735  0.88181  1
 Cl  Cl2  1  0.73416  0.40200  0.51076  1
 Cl  Cl3  1  0.66748  0.61664  0.37365  1
 Cl  Cl4  1  0.82298  0.66283  0.98163  1
 Cl  Cl5  1  0.67702  0.16283  0.98163  1
 Cl  Cl6  1  0.32298  0.83717  0.01837  1
 Cl  Cl7  1  0.63555  0.27020  0.24460  1
 Cl  Cl8  1  0.83252  0.11664  0.37365  1
 Cl  Cl9  1  0.33252  0.38336  0.62635  1
 Cl  Cl10  1  0.35093  0.47735  0.88181  1
 Cl  Cl11  1  0.85093  0.02265  0.11819  1
 Cl  Cl12  1  0.17702  0.33717  0.01837  1
 Cl  Cl13  1  0.64907  0.52265  0.11819  1
 Cl  Cl14  1  0.76584  0.90200  0.51076  1
 Cl  Cl15  1  0.13555  0.22980  0.75540  1
 Cl  Cl16  1  0.23416  0.09800  0.48924  1
 Cl  Cl17  1  0.26584  0.59800  0.48924  1
 Cl  Cl18  1  0.16748  0.88336  0.62635  1
 Cl  Cl19  1  0.86445  0.77020  0.24460  1
 Cl  Cl20  1  0.36445  0.72980  0.75540  1
 Nd  Nd1  1  0.04405  0.66271  0.09947  1
 Nd  Nd2  1  0.04512  0.79223  0.40448  1
 Nd  Nd3  1  0.45488  0.29223  0.40448  1
 Nd  Nd4  1  0.95595  0.33729  0.90053  1
 Nd  Nd5  1  0.45625  0.63911  0.25077  1
 Nd  Nd6  1  0.45595  0.16271  0.09947  1
 Nd  Nd7  1  0.95625  0.86089  0.74923  1
 Nd  Nd8  1  0.95488  0.20777  0.59552  1
 Nd  Nd9  1  0.54405  0.83729  0.90053  1
 Nd  Nd10  1  0.54512  0.70777  0.59552  1
 Nd  Nd11  1  0.04375  0.13911  0.25077  1
 Nd  Nd12  1  0.54375  0.36089  0.74923  1
 S  S1  1  0.81462  0.59973  0.82625  1
 S  S2  1  0.81448  0.53662  0.66785  1
 S  S3  1  0.18538  0.40027  0.17375  1
 S  S4  1  0.18552  0.46338  0.33215  1
 S  S5  1  0.31462  0.90027  0.17375  1
 S  S6  1  0.68552  0.03662  0.66785  1
 S  S7  1  0.68538  0.09973  0.82625  1
 S  S8  1  0.31448  0.96338  0.33215  1
