CIF file written using JARVIS-Tools package.
data_CeCuTeO
_symmetry_space_group_name_H-M  'P4/nmm'
_cell_length_a       4.08817
_cell_length_b       4.08817
_cell_length_c       9.43614
_cell_angle_alpha    90
_cell_angle_beta     90
_cell_angle_gamma    90

_symmetry_Int_Tables_number  129
_chemical_formula_structural  CeCuTeO
_chemical_formula_sum  Ce2Cu2Te2O2
_cell_volume  157.70768879266214
_cell_formula_units_Z  2
loop_
  _symmetry_equiv_pos_site_id
 _symmetry_equiv_pos_as_xyz
 1  'x, y, z'
loop_
 _atom_site_type_symbol
 _atom_site_label
 _atom_site_symmetry_multiplicity
 _atom_site_fract_x
 _atom_site_fract_y
 _atom_site_fract_z
 _atom_site_fract_occupancy
 Ce  Ce1  1  0.75000  0.75000  0.37342  1
 Ce  Ce2  1  0.25000  0.25000  0.62658  1
 Cu  Cu1  1  0.75000  0.25000  0.00000  1
 Cu  Cu2  1  0.25000  0.75000  0.00000  1
 O  O1  1  0.75000  0.25000  0.50000  1
 O  O2  1  0.25000  0.75000  0.50000  1
 Te  Te1  1  0.75000  0.75000  0.81633  1
 Te  Te2  1  0.25000  0.25000  0.18367  1
