CIF file written using JARVIS-Tools package.
data_InN
_symmetry_space_group_name_H-M  'P6_3mc'
_cell_length_a       3.57158
_cell_length_b       3.57158
_cell_length_c       5.78431
_cell_angle_alpha    90
_cell_angle_beta     90
_cell_angle_gamma    120

_symmetry_Int_Tables_number  186
_chemical_formula_structural  InN
_chemical_formula_sum  In2N2
_cell_volume  63.90020520310598
_cell_formula_units_Z  2
loop_
  _symmetry_equiv_pos_site_id
 _symmetry_equiv_pos_as_xyz
 1  'x, y, z'
loop_
 _atom_site_type_symbol
 _atom_site_label
 _atom_site_symmetry_multiplicity
 _atom_site_fract_x
 _atom_site_fract_y
 _atom_site_fract_z
 _atom_site_fract_occupancy
 In  In1  1  0.66667  0.33333  0.49909  1
 In  In2  1  0.33333  0.66667  0.99909  1
 N  N1  1  0.66667  0.33333  0.12091  1
 N  N2  1  0.33333  0.66667  0.62091  1
