CIF file written using JARVIS-Tools package.
data_Li2ZnSi
_symmetry_space_group_name_H-M  'P6_3/mmc'
_cell_length_a       4.26808
_cell_length_b       4.26808
_cell_length_c       7.63342
_cell_angle_alpha    90
_cell_angle_beta     90
_cell_angle_gamma    120.021

_symmetry_Int_Tables_number  194
_chemical_formula_structural  Li2ZnSi
_chemical_formula_sum  Li4Zn2Si2
_cell_volume  120.39854271154812
_cell_formula_units_Z  2
loop_
  _symmetry_equiv_pos_site_id
 _symmetry_equiv_pos_as_xyz
 1  'x, y, z'
loop_
 _atom_site_type_symbol
 _atom_site_label
 _atom_site_symmetry_multiplicity
 _atom_site_fract_x
 _atom_site_fract_y
 _atom_site_fract_z
 _atom_site_fract_occupancy
 Li  Li1  1  0.66674  0.33326  0.58186  1
 Li  Li2  1  0.33326  0.66674  0.41814  1
 Li  Li3  1  0.33326  0.66674  0.08186  1
 Li  Li4  1  0.66674  0.33326  0.91814  1
 Si  Si1  1  0.00000  0.00000  0.50000  1
 Si  Si2  1  0.00000  0.00000  0.00000  1
 Zn  Zn1  1  0.66640  0.33360  0.25000  1
 Zn  Zn2  1  0.33360  0.66640  0.75000  1
