CIF file written using JARVIS-Tools package.
data_HgH16Br6N4
_symmetry_space_group_name_H-M  'P4/mnc'
_cell_length_a       9.0425
_cell_length_b       9.04069
_cell_length_c       8.87406
_cell_angle_alpha    90
_cell_angle_beta     90
_cell_angle_gamma    90

_symmetry_Int_Tables_number  128
_chemical_formula_structural  HgH16Br6N4
_chemical_formula_sum  Hg2H32Br2N8
_cell_volume  725.4582728311233
_cell_formula_units_Z  2
loop_
  _symmetry_equiv_pos_site_id
 _symmetry_equiv_pos_as_xyz
 1  'x, y, z'
loop_
 _atom_site_type_symbol
 _atom_site_label
 _atom_site_symmetry_multiplicity
 _atom_site_fract_x
 _atom_site_fract_y
 _atom_site_fract_z
 _atom_site_fract_occupancy
 Br  Br1  1  0.50000  0.50000  0.79481  1
 Br  Br2  1  0.17637  0.63183  0.50000  1
 Br  Br3  1  0.82363  0.36817  0.50000  1
 Br  Br4  1  0.36821  0.17635  0.50000  1
 Br  Br5  1  0.00000  0.00000  0.70519  1
 Br  Br6  1  0.00000  0.00000  0.29481  1
 Br  Br7  1  0.86821  0.32365  0.00000  1
 Br  Br8  1  0.13179  0.67635  0.00000  1
 Br  Br9  1  0.63179  0.82365  0.50000  1
 Br  Br10  1  0.50000  0.50000  0.20519  1
 Br  Br11  1  0.32363  0.13183  0.00000  1
 Br  Br12  1  0.67637  0.86817  0.00000  1
 H  H1  1  0.25519  0.85840  0.69157  1
 H  H2  1  0.05807  0.35729  0.82593  1
 H  H3  1  0.35741  0.94196  0.17397  1
 H  H4  1  0.64259  0.05804  0.17397  1
 H  H5  1  0.85741  0.55804  0.67397  1
 H  H6  1  0.44193  0.85729  0.32593  1
 H  H7  1  0.64224  0.24479  0.19173  1
 H  H8  1  0.64259  0.05804  0.82603  1
 H  H9  1  0.14224  0.25521  0.69173  1
 H  H10  1  0.05807  0.35729  0.17407  1
 H  H11  1  0.24481  0.35840  0.19157  1
 H  H12  1  0.35776  0.75521  0.19173  1
 H  H13  1  0.25519  0.85840  0.30843  1
 H  H14  1  0.64224  0.24479  0.80827  1
 H  H15  1  0.14224  0.25521  0.30827  1
 H  H16  1  0.44193  0.85729  0.67407  1
 H  H17  1  0.14259  0.44196  0.32603  1
 H  H18  1  0.24481  0.35840  0.80843  1
 H  H19  1  0.85741  0.55804  0.32603  1
 H  H20  1  0.35741  0.94196  0.82603  1
 H  H21  1  0.75519  0.64160  0.19157  1
 H  H22  1  0.35776  0.75521  0.80827  1
 H  H23  1  0.85776  0.74479  0.69173  1
 H  H24  1  0.85776  0.74479  0.30827  1
 H  H25  1  0.55807  0.14271  0.32593  1
 H  H26  1  0.94193  0.64271  0.17407  1
 H  H27  1  0.14259  0.44196  0.67397  1
 H  H28  1  0.55807  0.14271  0.67407  1
 H  H29  1  0.74481  0.14160  0.69157  1
 H  H30  1  0.94193  0.64271  0.82593  1
 H  H31  1  0.75519  0.64160  0.80843  1
 H  H32  1  0.74481  0.14160  0.30843  1
 Hg  Hg1  1  0.50000  0.50000  0.50000  1
 Hg  Hg2  1  0.00000  0.00000  0.00000  1
 N  N1  1  0.85387  0.64600  0.75001  1
 N  N2  1  0.35387  0.85400  0.74999  1
 N  N3  1  0.14613  0.35400  0.75001  1
 N  N4  1  0.14613  0.35400  0.24999  1
 N  N5  1  0.64613  0.14600  0.74999  1
 N  N6  1  0.35387  0.85400  0.25001  1
 N  N7  1  0.85387  0.64600  0.24999  1
 N  N8  1  0.64613  0.14600  0.25001  1
