CIF file written using JARVIS-Tools package.
data_NaZrCuS3
_symmetry_space_group_name_H-M  'Cmcm'
_cell_length_a       3.7073
_cell_length_b       6.69541
_cell_length_c       9.79121
_cell_angle_alpha    90
_cell_angle_beta     90
_cell_angle_gamma    106.073

_symmetry_Int_Tables_number  63
_chemical_formula_structural  NaZrCuS3
_chemical_formula_sum  Na2Zr2Cu2S6
_cell_volume  233.53634937098636
_cell_formula_units_Z  2
loop_
  _symmetry_equiv_pos_site_id
 _symmetry_equiv_pos_as_xyz
 1  'x, y, z'
loop_
 _atom_site_type_symbol
 _atom_site_label
 _atom_site_symmetry_multiplicity
 _atom_site_fract_x
 _atom_site_fract_y
 _atom_site_fract_z
 _atom_site_fract_occupancy
 Cu  Cu1  1  0.46857  0.93715  0.75000  1
 Cu  Cu2  1  0.53143  0.06285  0.25000  1
 Na  Na1  1  0.75068  0.50137  0.75000  1
 Na  Na2  1  0.24932  0.49863  0.25000  1
 S  S1  1  0.92086  0.84172  0.25000  1
 S  S2  1  0.36672  0.73343  0.94153  1
 S  S3  1  0.07914  0.15828  0.75000  1
 S  S4  1  0.36672  0.73343  0.55847  1
 S  S5  1  0.63328  0.26657  0.05847  1
 S  S6  1  0.63328  0.26657  0.44153  1
 Zr  Zr1  1  0.00000  0.00000  0.50000  1
 Zr  Zr2  1  0.00000  0.00000  0.00000  1
