CIF file written using JARVIS-Tools package.
data_SrMg6Nb
_symmetry_space_group_name_H-M  'P4/mmm'
_cell_length_a       6.54135
_cell_length_b       9.25175
_cell_length_c       4.52279
_cell_angle_alpha    90
_cell_angle_beta     90
_cell_angle_gamma    135.006

_symmetry_Int_Tables_number  123
_chemical_formula_structural  SrMg6Nb
_chemical_formula_sum  SrMg6Nb
_cell_volume  193.52636304130587
_cell_formula_units_Z  1
loop_
  _symmetry_equiv_pos_site_id
 _symmetry_equiv_pos_as_xyz
 1  'x, y, z'
loop_
 _atom_site_type_symbol
 _atom_site_label
 _atom_site_symmetry_multiplicity
 _atom_site_fract_x
 _atom_site_fract_y
 _atom_site_fract_z
 _atom_site_fract_occupancy
 Mg  Mg1  1  0.75000  0.37502  0.25000  1
 Mg  Mg2  1  0.75000  0.87498  0.25000  1
 Mg  Mg3  1  0.25001  0.09761  0.75000  1
 Mg  Mg4  1  0.25001  0.65240  0.75000  1
 Mg  Mg5  1  0.69509  0.09755  0.75000  1
 Mg  Mg6  1  0.80487  0.65243  0.75000  1
 Nb  Nb1  1  0.25002  0.87501  0.25000  1
 Sr  Sr1  1  0.24998  0.37499  0.25000  1
