CIF file written using JARVIS-Tools package.
data_Sc3Si3Ni
_symmetry_space_group_name_H-M  'C2/m'
_cell_length_a       3.99078
_cell_length_b       5.30022
_cell_length_c       12.2284
_cell_angle_alpha    84.3418
_cell_angle_beta     80.6086
_cell_angle_gamma    67.8845

_symmetry_Int_Tables_number  12
_chemical_formula_structural  Sc3Si3Ni
_chemical_formula_sum  Sc6Si6Ni2
_cell_volume  236.21710144722235
_cell_formula_units_Z  2
loop_
  _symmetry_equiv_pos_site_id
 _symmetry_equiv_pos_as_xyz
 1  'x, y, z'
loop_
 _atom_site_type_symbol
 _atom_site_label
 _atom_site_symmetry_multiplicity
 _atom_site_fract_x
 _atom_site_fract_y
 _atom_site_fract_z
 _atom_site_fract_occupancy
 Ni  Ni1  1  0.24371  0.91517  0.59742  1
 Ni  Ni2  1  0.75629  0.08483  0.40258  1
 Sc  Sc1  1  0.60033  0.72031  0.07903  1
 Sc  Sc2  1  0.47390  0.67313  0.37907  1
 Sc  Sc3  1  0.74228  0.74188  0.77356  1
 Sc  Sc4  1  0.52610  0.32687  0.62093  1
 Sc  Sc5  1  0.39967  0.27969  0.92097  1
 Sc  Sc6  1  0.25772  0.25812  0.22644  1
 Si  Si1  1  0.96283  0.83811  0.23622  1
 Si  Si2  1  0.86654  0.72103  0.54589  1
 Si  Si3  1  0.13346  0.27897  0.45411  1
 Si  Si4  1  0.11944  0.83681  0.92432  1
 Si  Si5  1  0.03717  0.16189  0.76378  1
 Si  Si6  1  0.88056  0.16319  0.07568  1
