CIF file written using JARVIS-Tools package.
data_Pr2Se2O
_symmetry_space_group_name_H-M  'P2_1/c'
_cell_length_a       7.39371
_cell_length_b       7.40891
_cell_length_c       8.92112
_cell_angle_alpha    100.08
_cell_angle_beta     90
_cell_angle_gamma    90

_symmetry_Int_Tables_number  14
_chemical_formula_structural  Pr2Se2O
_chemical_formula_sum  Pr8Se8O4
_cell_volume  481.148920871059
_cell_formula_units_Z  4
loop_
  _symmetry_equiv_pos_site_id
 _symmetry_equiv_pos_as_xyz
 1  'x, y, z'
loop_
 _atom_site_type_symbol
 _atom_site_label
 _atom_site_symmetry_multiplicity
 _atom_site_fract_x
 _atom_site_fract_y
 _atom_site_fract_z
 _atom_site_fract_occupancy
 O  O1  1  0.91505  0.64979  0.61414  1
 O  O2  1  0.08495  0.35021  0.38586  1
 O  O3  1  0.41505  0.85021  0.38586  1
 O  O4  1  0.58495  0.14979  0.61414  1
 Pr  Pr1  1  0.14833  0.67348  0.42525  1
 Pr  Pr2  1  0.94703  0.25291  0.14189  1
 Pr  Pr3  1  0.64833  0.82652  0.57475  1
 Pr  Pr4  1  0.05297  0.74709  0.85811  1
 Pr  Pr5  1  0.55297  0.75291  0.14189  1
 Pr  Pr6  1  0.85167  0.32652  0.57475  1
 Pr  Pr7  1  0.35167  0.17348  0.42525  1
 Pr  Pr8  1  0.44703  0.24709  0.85811  1
 Se  Se1  1  0.87244  0.92988  0.31891  1
 Se  Se2  1  0.72138  0.97113  0.92197  1
 Se  Se3  1  0.12756  0.07012  0.68109  1
 Se  Se4  1  0.62756  0.42988  0.31891  1
 Se  Se5  1  0.37244  0.57012  0.68109  1
 Se  Se6  1  0.27862  0.02887  0.07803  1
 Se  Se7  1  0.77862  0.47113  0.92197  1
 Se  Se8  1  0.22138  0.52887  0.07803  1
