CIF file written using JARVIS-Tools package.
data_TiO2
_symmetry_space_group_name_H-M  'Pnma'
_cell_length_a       3.02306
_cell_length_b       9.74431
_cell_length_c       9.37338
_cell_angle_alpha    89.9982
_cell_angle_beta     90.0015
_cell_angle_gamma    89.996

_symmetry_Int_Tables_number  62
_chemical_formula_structural  TiO2
_chemical_formula_sum  Ti8O6
_cell_volume  276.11780618368954
_cell_formula_units_Z  8
loop_
  _symmetry_equiv_pos_site_id
 _symmetry_equiv_pos_as_xyz
 1  'x, y, z'
loop_
 _atom_site_type_symbol
 _atom_site_label
 _atom_site_symmetry_multiplicity
 _atom_site_fract_x
 _atom_site_fract_y
 _atom_site_fract_z
 _atom_site_fract_occupancy
 O  O1  1  0.75011  0.69795  0.72093  1
 O  O2  1  0.25012  0.10395  0.97601  1
 O  O3  1  0.75012  0.05943  0.24590  1
 O  O4  1  0.75011  0.19795  0.77669  1
 O  O5  1  0.25014  0.93991  0.75172  1
 O  O6  1  0.75011  0.35964  -0.00628  1
 O  O7  1  0.25015  0.30138  0.27670  1
 O  O8  1  0.25013  0.13968  0.49371  1
 O  O9  1  0.75013  0.39538  0.47602  1
 O  O10  1  0.25012  0.60395  0.52161  1
 O  O11  1  0.75012  0.55942  0.25172  1
 O  O12  1  0.75014  0.89538  0.02161  1
 O  O13  1  0.25014  0.63969  0.00390  1
 O  O14  1  0.75012  0.85965  0.50391  1
 O  O15  1  0.25015  0.80138  0.22093  1
 O  O16  1  0.25014  0.43991  0.74590  1
 Ti  Ti1  1  0.75013  0.02455  0.84548  1
 Ti  Ti2  1  0.25014  0.79811  0.59633  1
 Ti  Ti3  1  0.75011  0.70122  0.09633  1
 Ti  Ti4  1  0.25014  0.47478  0.34549  1
 Ti  Ti5  1  0.75012  0.52455  0.65214  1
 Ti  Ti6  1  0.25013  0.29811  0.90129  1
 Ti  Ti7  1  0.75010  0.20122  0.40130  1
 Ti  Ti8  1  0.25013  -0.02522  0.15214  1
