CIF file written using JARVIS-Tools package.
data_Mg6NbC
_symmetry_space_group_name_H-M  'Amm2'
_cell_length_a       6.20596
_cell_length_b       6.20597
_cell_length_c       4.41828
_cell_angle_alpha    90
_cell_angle_beta     90
_cell_angle_gamma    102.127

_symmetry_Int_Tables_number  38
_chemical_formula_structural  Mg6NbC
_chemical_formula_sum  Mg6NbC
_cell_volume  166.36844654267307
_cell_formula_units_Z  1
loop_
  _symmetry_equiv_pos_site_id
 _symmetry_equiv_pos_as_xyz
 1  'x, y, z'
loop_
 _atom_site_type_symbol
 _atom_site_label
 _atom_site_symmetry_multiplicity
 _atom_site_fract_x
 _atom_site_fract_y
 _atom_site_fract_z
 _atom_site_fract_occupancy
 C  C1  1  0.13981  0.36019  0.75000  1
 Mg  Mg1  1  0.20943  0.90203  0.25000  1
 Mg  Mg2  1  0.59797  0.29057  0.25000  1
 Mg  Mg3  1  0.70122  0.79878  0.25000  1
 Mg  Mg4  1  0.42425  0.61465  0.75000  1
 Mg  Mg5  1  0.88535  0.07575  0.75000  1
 Mg  Mg6  1  0.91361  0.58639  0.75000  1
 Nb  Nb1  1  0.12837  0.37163  0.25000  1
