CIF file written using JARVIS-Tools package.
data_Sr2LiCBr3N2
_symmetry_space_group_name_H-M  'Fd-3m'
_cell_length_a       10.3296
_cell_length_b       10.3296
_cell_length_c       10.3296
_cell_angle_alpha    60
_cell_angle_beta     60
_cell_angle_gamma    60

_symmetry_Int_Tables_number  227
_chemical_formula_structural  Sr2LiCBr3N2
_chemical_formula_sum  Sr8Li4C4Br2N8
_cell_volume  779.3484294095867
_cell_formula_units_Z  4
loop_
  _symmetry_equiv_pos_site_id
 _symmetry_equiv_pos_as_xyz
 1  'x, y, z'
loop_
 _atom_site_type_symbol
 _atom_site_label
 _atom_site_symmetry_multiplicity
 _atom_site_fract_x
 _atom_site_fract_y
 _atom_site_fract_z
 _atom_site_fract_occupancy
 Br  Br1  1  0.57121  0.17879  0.17879  1
 Br  Br2  1  0.57121  0.17879  0.57121  1
 Br  Br3  1  0.82121  0.82121  0.42879  1
 Br  Br4  1  0.42879  0.42879  0.82121  1
 Br  Br5  1  0.82121  0.42879  0.82121  1
 Br  Br6  1  0.17879  0.57121  0.57121  1
 Br  Br7  1  0.42879  0.82121  0.42879  1
 Br  Br8  1  0.57121  0.57121  0.17879  1
 Br  Br9  1  0.42879  0.82121  0.82121  1
 Br  Br10  1  0.82121  0.42879  0.42879  1
 Br  Br11  1  0.17879  0.17879  0.57121  1
 Br  Br12  1  0.17879  0.57121  0.17879  1
 C  C1  1  0.00000  0.00000  0.00000  1
 C  C2  1  0.00000  0.00000  0.50000  1
 C  C3  1  0.00000  0.50000  0.00000  1
 C  C4  1  0.50000  0.00000  0.00000  1
 Li  Li1  1  0.50000  0.50000  0.00000  1
 Li  Li2  1  0.00000  0.50000  0.50000  1
 Li  Li3  1  0.50000  0.50000  0.50000  1
 Li  Li4  1  0.50000  0.00000  0.50000  1
 N  N1  1  0.04862  0.04862  0.35414  1
 N  N2  1  0.35414  0.04862  0.04862  1
 N  N3  1  0.95138  0.95138  0.64586  1
 N  N4  1  0.95138  0.95138  0.95138  1
 N  N5  1  0.04862  0.35414  0.04862  1
 N  N6  1  0.04862  0.04862  0.04862  1
 N  N7  1  0.95138  0.64586  0.95138  1
 N  N8  1  0.64586  0.95138  0.95138  1
 Sr  Sr1  1  0.22210  0.22210  0.22210  1
 Sr  Sr2  1  0.22210  0.83369  0.22210  1
 Sr  Sr3  1  0.77790  0.77790  0.77790  1
 Sr  Sr4  1  0.77790  0.77790  0.16631  1
 Sr  Sr5  1  0.22210  0.22210  0.83369  1
 Sr  Sr6  1  0.77790  0.16631  0.77790  1
 Sr  Sr7  1  0.16631  0.77790  0.77790  1
 Sr  Sr8  1  0.83369  0.22210  0.22210  1
