CIF file written using JARVIS-Tools package.
data_NaPO3
_symmetry_space_group_name_H-M  'I4_1/a'
_cell_length_a       5.88455
_cell_length_b       9.74871
_cell_length_c       9.74871
_cell_angle_alpha    84.7736
_cell_angle_beta     72.4335
_cell_angle_gamma    72.4335

_symmetry_Int_Tables_number  88
_chemical_formula_structural  NaPO3
_chemical_formula_sum  Na8P8O24
_cell_volume  508.31006635846404
_cell_formula_units_Z  8
loop_
  _symmetry_equiv_pos_site_id
 _symmetry_equiv_pos_as_xyz
 1  'x, y, z'
loop_
 _atom_site_type_symbol
 _atom_site_label
 _atom_site_symmetry_multiplicity
 _atom_site_fract_x
 _atom_site_fract_y
 _atom_site_fract_z
 _atom_site_fract_occupancy
 Na  Na1  1  0.51634  0.26876  0.55575  1
 Na  Na2  1  0.71491  0.44425  0.76876  1
 Na  Na3  1  0.92791  0.05575  0.73124  1
 Na  Na4  1  0.07209  0.94425  0.26876  1
 Na  Na5  1  0.28509  0.55575  0.23124  1
 Na  Na6  1  0.34084  0.23124  0.94425  1
 Na  Na7  1  0.65916  0.76876  0.05575  1
 Na  Na8  1  0.48366  0.73124  0.44425  1
 O  O1  1  0.76419  0.61846  0.58239  1
 O  O2  1  0.20439  0.13946  0.35802  1
 O  O3  1  0.03496  0.11846  0.08239  1
 O  O4  1  0.34658  0.91761  0.61846  1
 O  O5  1  0.29814  0.63946  0.85802  1
 O  O6  1  0.08311  0.73869  0.41031  1
 O  O7  1  0.84384  0.35802  0.36054  1
 O  O8  1  0.23581  0.38154  0.41761  1
 O  O9  1  0.65342  0.08239  0.38154  1
 O  O10  1  0.76789  0.23869  0.91031  1
 O  O11  1  0.32181  0.41031  0.76131  1
 O  O12  1  0.91689  0.26131  0.58969  1
 O  O13  1  0.50658  0.91031  0.26131  1
 O  O14  1  0.70186  0.36054  0.14198  1
 O  O15  1  0.43760  0.85802  0.86054  1
 O  O16  1  0.67819  0.58969  0.23869  1
 O  O17  1  -0.03496  0.88154  0.91761  1
 O  O18  1  0.49342  0.08969  0.73869  1
 O  O19  1  0.23211  0.76131  0.08969  1
 O  O20  1  0.56240  0.14198  0.13946  1
 O  O21  1  0.11735  0.41761  0.11846  1
 O  O22  1  0.88265  0.58239  0.88154  1
 O  O23  1  0.15616  0.64198  0.63946  1
 O  O24  1  0.79561  0.86054  0.64198  1
 P  P1  1  0.20681  0.79379  0.94070  1
 P  P2  1  0.50059  0.94070  0.70621  1
 P  P3  1  0.94130  0.70621  0.55930  1
 P  P4  1  0.79319  0.20621  0.05930  1
 P  P5  1  0.05870  0.29379  0.44070  1
 P  P6  1  0.14751  0.55930  0.79379  1
 P  P7  1  0.85249  0.44070  0.20621  1
 P  P8  1  0.49941  0.05930  0.29379  1
