CIF file written using JARVIS-Tools package.
data_BiXeF9
_symmetry_space_group_name_H-M  'P-1'
_cell_length_a       5.65493
_cell_length_b       7.78648
_cell_length_c       8.55387
_cell_angle_alpha    79.3697
_cell_angle_beta     70.6889
_cell_angle_gamma    86.0804

_symmetry_Int_Tables_number  2
_chemical_formula_structural  BiXeF9
_chemical_formula_sum  Bi2Xe2F8
_cell_volume  349.3414573949295
_cell_formula_units_Z  2
loop_
  _symmetry_equiv_pos_site_id
 _symmetry_equiv_pos_as_xyz
 1  'x, y, z'
loop_
 _atom_site_type_symbol
 _atom_site_label
 _atom_site_symmetry_multiplicity
 _atom_site_fract_x
 _atom_site_fract_y
 _atom_site_fract_z
 _atom_site_fract_occupancy
 Bi  Bi1  1  0.20780  0.34373  0.74335  1
 Bi  Bi2  1  0.79220  0.65627  0.25665  1
 F  F1  1  0.85795  0.45054  0.82509  1
 F  F2  1  0.63831  0.12327  0.04518  1
 F  F3  1  0.53738  0.87680  0.60764  1
 F  F4  1  0.73302  0.55030  0.50193  1
 F  F5  1  0.12462  0.22002  0.01490  1
 F  F6  1  0.02894  0.79063  0.60933  1
 F  F7  1  0.33766  0.54214  0.81868  1
 F  F8  1  0.54360  0.21598  0.71256  1
 F  F9  1  0.45640  0.78402  0.28744  1
 F  F10  1  0.46262  0.12320  0.39236  1
 F  F11  1  0.66234  0.45786  0.18132  1
 F  F12  1  0.26698  0.44970  0.49807  1
 F  F13  1  0.87538  0.77998  0.98510  1
 F  F14  1  0.14205  0.54946  0.17491  1
 F  F15  1  0.97106  0.20937  0.39067  1
 F  F16  1  0.94207  0.88271  0.26865  1
 F  F17  1  0.05793  0.11729  0.73135  1
 F  F18  1  0.36169  0.87673  0.95482  1
 Xe  Xe1  1  0.69816  0.83020  0.78590  1
 Xe  Xe2  1  0.30184  0.16980  0.21410  1
