CIF file written using JARVIS-Tools package.
data_In2Ni21P6
_symmetry_space_group_name_H-M  'Fm-3m'
_cell_length_a       7.88717
_cell_length_b       7.88717
_cell_length_c       7.88717
_cell_angle_alpha    60
_cell_angle_beta     60
_cell_angle_gamma    60

_symmetry_Int_Tables_number  225
_chemical_formula_structural  In2Ni21P6
_chemical_formula_sum  In2Ni2P6
_cell_volume  346.9353848826753
_cell_formula_units_Z  1
loop_
  _symmetry_equiv_pos_site_id
 _symmetry_equiv_pos_as_xyz
 1  'x, y, z'
loop_
 _atom_site_type_symbol
 _atom_site_label
 _atom_site_symmetry_multiplicity
 _atom_site_fract_x
 _atom_site_fract_y
 _atom_site_fract_z
 _atom_site_fract_occupancy
 In  In1  1  0.75000  0.75000  0.75000  1
 In  In2  1  0.25000  0.25000  0.25000  1
 Ni  Ni1  1  0.61545  0.61545  0.15366  1
 Ni  Ni2  1  0.34784  0.00000  0.65216  1
 Ni  Ni3  1  0.65216  0.34784  0.00000  1
 Ni  Ni4  1  0.00000  0.65216  -0.00000  1
 Ni  Ni5  1  0.65216  -0.00000  0.34784  1
 Ni  Ni6  1  0.00000  0.00000  0.65216  1
 Ni  Ni7  1  0.65216  0.00000  -0.00000  1
 Ni  Ni8  1  0.38455  0.38455  0.38455  1
 Ni  Ni9  1  0.61545  0.15366  0.61545  1
 Ni  Ni10  1  0.84634  0.38455  0.38455  1
 Ni  Ni11  1  0.15366  0.61545  0.61545  1
 Ni  Ni12  1  0.38455  0.38455  0.84634  1
 Ni  Ni13  1  0.61545  0.61545  0.61545  1
 Ni  Ni14  1  0.00000  0.00000  0.00000  1
 Ni  Ni15  1  -0.00000  0.65216  0.34784  1
 Ni  Ni16  1  0.00000  0.34784  0.65216  1
 Ni  Ni17  1  0.34784  0.65216  -0.00000  1
 Ni  Ni18  1  -0.00000  -0.00000  0.34784  1
 Ni  Ni19  1  0.34784  -0.00000  0.00000  1
 Ni  Ni20  1  -0.00000  0.34784  0.00000  1
 Ni  Ni21  1  0.38455  0.84634  0.38455  1
 P  P1  1  0.73753  0.26247  0.73753  1
 P  P2  1  0.26247  0.73753  0.73753  1
 P  P3  1  0.73753  0.26247  0.26247  1
 P  P4  1  0.73753  0.73753  0.26247  1
 P  P5  1  0.26247  0.26247  0.73753  1
 P  P6  1  0.26247  0.73753  0.26247  1
