CIF file written using JARVIS-Tools package.
data_TiFeP2O8
_symmetry_space_group_name_H-M  'P2_1/m'
_cell_length_a       4.88822
_cell_length_b       5.88163
_cell_length_c       9.85827
_cell_angle_alpha    90
_cell_angle_beta     89.8349
_cell_angle_gamma    90

_symmetry_Int_Tables_number  11
_chemical_formula_structural  TiFeP2O8
_chemical_formula_sum  Ti2Fe2P4O6
_cell_volume  283.43066048144266
_cell_formula_units_Z  2
loop_
  _symmetry_equiv_pos_site_id
 _symmetry_equiv_pos_as_xyz
 1  'x, y, z'
loop_
 _atom_site_type_symbol
 _atom_site_label
 _atom_site_symmetry_multiplicity
 _atom_site_fract_x
 _atom_site_fract_y
 _atom_site_fract_z
 _atom_site_fract_occupancy
 Fe  Fe1  1  0.05334  0.75000  0.27145  1
 Fe  Fe2  1  0.94666  0.25000  0.72855  1
 O  O1  1  0.71942  0.95126  0.66569  1
 O  O2  1  0.34093  0.25000  0.06054  1
 O  O3  1  0.27998  0.75000  0.11046  1
 O  O4  1  0.72740  0.95870  0.16444  1
 O  O5  1  0.72002  0.25000  0.88954  1
 O  O6  1  0.28058  0.04874  0.33431  1
 O  O7  1  0.28058  0.45126  0.33431  1
 O  O8  1  0.72740  0.54130  0.16444  1
 O  O9  1  0.84180  0.75000  0.44064  1
 O  O10  1  0.15820  0.25000  0.55936  1
 O  O11  1  0.65907  0.75000  0.93946  1
 O  O12  1  0.82272  0.25000  0.36741  1
 O  O13  1  0.71942  0.54874  0.66569  1
 O  O14  1  0.27260  0.45870  0.83556  1
 O  O15  1  0.27260  0.04130  0.83556  1
 O  O16  1  0.17728  0.75000  0.63259  1
 P  P1  1  0.41182  0.25000  0.90797  1
 P  P2  1  0.87380  0.75000  0.59272  1
 P  P3  1  0.12620  0.25000  0.40728  1
 P  P4  1  0.58818  0.75000  0.09203  1
 Ti  Ti1  1  0.44778  0.75000  0.77229  1
 Ti  Ti2  1  0.55222  0.25000  0.22771  1
