CIF file written using JARVIS-Tools package.
data_P3Se4I
_symmetry_space_group_name_H-M  'P2_1/c'
_cell_length_a       11.3026
_cell_length_b       6.51507
_cell_length_c       14.3006
_cell_angle_alpha    90
_cell_angle_beta     117.578
_cell_angle_gamma    90

_symmetry_Int_Tables_number  14
_chemical_formula_structural  P3Se4I
_chemical_formula_sum  P2Se6I4
_cell_volume  933.4041627534541
_cell_formula_units_Z  4
loop_
  _symmetry_equiv_pos_site_id
 _symmetry_equiv_pos_as_xyz
 1  'x, y, z'
loop_
 _atom_site_type_symbol
 _atom_site_label
 _atom_site_symmetry_multiplicity
 _atom_site_fract_x
 _atom_site_fract_y
 _atom_site_fract_z
 _atom_site_fract_occupancy
 I  I1  1  0.85729  0.73640  0.68494  1
 I  I2  1  0.85729  0.76360  0.18494  1
 I  I3  1  0.14271  0.23640  0.81506  1
 I  I4  1  0.14271  0.26360  0.31506  1
 P  P1  1  0.32962  0.39313  0.49103  1
 P  P2  1  0.17183  0.64852  0.63121  1
 P  P3  1  0.17183  0.85148  0.13121  1
 P  P4  1  0.82817  0.35148  0.36879  1
 P  P5  1  0.82817  0.14852  0.86879  1
 P  P6  1  0.29026  0.72526  0.45138  1
 P  P7  1  0.32962  0.10687  0.99103  1
 P  P8  1  0.67038  0.60687  0.50897  1
 P  P9  1  0.70974  0.27474  0.54862  1
 P  P10  1  0.29026  0.77474  0.95138  1
 P  P11  1  0.70974  0.22526  0.04862  1
 P  P12  1  0.67038  0.89313  0.00897  1
 Se  Se1  1  0.74639  0.66576  0.38860  1
 Se  Se2  1  0.89742  0.29201  0.03300  1
 Se  Se3  1  0.10258  0.79201  0.46700  1
 Se  Se4  1  0.10258  0.70799  0.96700  1
 Se  Se5  1  0.74639  0.83424  0.88860  1
 Se  Se6  1  0.25361  0.33424  0.61140  1
 Se  Se7  1  0.89742  0.20799  0.53300  1
 Se  Se8  1  0.53683  0.32765  0.89044  1
 Se  Se9  1  0.46317  0.67235  0.10956  1
 Se  Se10  1  0.53683  0.17235  0.39044  1
 Se  Se11  1  0.63850  0.32580  0.77263  1
 Se  Se12  1  0.36150  0.67420  0.22737  1
 Se  Se13  1  0.63850  0.17420  0.27263  1
 Se  Se14  1  0.46317  0.82765  0.60956  1
 Se  Se15  1  0.25361  0.16576  0.11140  1
 Se  Se16  1  0.36150  0.82580  0.72737  1
