CIF file written using JARVIS-Tools package.
data_KAuF6
_symmetry_space_group_name_H-M  'R-3m'
_cell_length_a       5.01733
_cell_length_b       5.01733
_cell_length_c       5.01734
_cell_angle_alpha    98.516
_cell_angle_beta     98.516
_cell_angle_gamma    98.516

_symmetry_Int_Tables_number  166
_chemical_formula_structural  KAuF6
_chemical_formula_sum  KAuF6
_cell_volume  121.65416193777232
_cell_formula_units_Z  1
loop_
  _symmetry_equiv_pos_site_id
 _symmetry_equiv_pos_as_xyz
 1  'x, y, z'
loop_
 _atom_site_type_symbol
 _atom_site_label
 _atom_site_symmetry_multiplicity
 _atom_site_fract_x
 _atom_site_fract_y
 _atom_site_fract_z
 _atom_site_fract_occupancy
 Au  Au1  1  0.00000  0.00000  0.00000  1
 F  F1  1  0.72194  0.07291  0.72194  1
 F  F2  1  0.07291  0.72194  0.72194  1
 F  F3  1  0.27806  0.27806  0.92709  1
 F  F4  1  0.92709  0.27806  0.27806  1
 F  F5  1  0.27806  0.92709  0.27806  1
 F  F6  1  0.72194  0.72194  0.07291  1
 K  K1  1  0.50000  0.50000  0.50000  1
