CIF file written using JARVIS-Tools package.
data_Sm4I6O
_symmetry_space_group_name_H-M  'P6_3mc'
_cell_length_a       9.8921
_cell_length_b       9.8921
_cell_length_c       8.24183
_cell_angle_alpha    90
_cell_angle_beta     90
_cell_angle_gamma    120

_symmetry_Int_Tables_number  186
_chemical_formula_structural  Sm4I6O
_chemical_formula_sum  Sm8I2O2
_cell_volume  698.4432334523759
_cell_formula_units_Z  2
loop_
  _symmetry_equiv_pos_site_id
 _symmetry_equiv_pos_as_xyz
 1  'x, y, z'
loop_
 _atom_site_type_symbol
 _atom_site_label
 _atom_site_symmetry_multiplicity
 _atom_site_fract_x
 _atom_site_fract_y
 _atom_site_fract_z
 _atom_site_fract_occupancy
 I  I1  1  0.52799  0.47201  0.88561  1
 I  I2  1  0.26675  0.13337  0.19857  1
 I  I3  1  0.47201  0.94402  0.38561  1
 I  I4  1  0.13337  0.86663  0.69857  1
 I  I5  1  0.86663  0.13337  0.19857  1
 I  I6  1  0.05598  0.52799  0.38561  1
 I  I7  1  0.13337  0.26675  0.69857  1
 I  I8  1  0.86663  0.73325  0.19857  1
 I  I9  1  0.73325  0.86663  0.69857  1
 I  I10  1  0.47201  0.52799  0.38561  1
 I  I11  1  0.94402  0.47201  0.88561  1
 I  I12  1  0.52799  0.05598  0.88561  1
 O  O1  1  0.33333  0.66667  0.04784  1
 O  O2  1  0.66667  0.33333  0.54784  1
 Sm  Sm1  1  0.20194  0.40387  0.07087  1
 Sm  Sm2  1  0.79806  0.20194  0.57087  1
 Sm  Sm3  1  0.33333  0.66667  0.75493  1
 Sm  Sm4  1  0.40387  0.20194  0.57087  1
 Sm  Sm5  1  0.66667  0.33333  0.25493  1
 Sm  Sm6  1  0.59613  0.79806  0.07087  1
 Sm  Sm7  1  0.79806  0.59613  0.57087  1
 Sm  Sm8  1  0.20194  0.79806  0.07087  1
