CIF file written using JARVIS-Tools package.
data_SrB2O4
_symmetry_space_group_name_H-M  'Pa-3'
_cell_length_a       9.2656
_cell_length_b       9.2656
_cell_length_c       9.2656
_cell_angle_alpha    90
_cell_angle_beta     90
_cell_angle_gamma    90

_symmetry_Int_Tables_number  205
_chemical_formula_structural  SrB2O4
_chemical_formula_sum  Sr2B24O48
_cell_volume  795.4636488533413
_cell_formula_units_Z  12
loop_
  _symmetry_equiv_pos_site_id
 _symmetry_equiv_pos_as_xyz
 1  'x, y, z'
loop_
 _atom_site_type_symbol
 _atom_site_label
 _atom_site_symmetry_multiplicity
 _atom_site_fract_x
 _atom_site_fract_y
 _atom_site_fract_z
 _atom_site_fract_occupancy
 B  B1  1  0.33921  0.38624  0.68815  1
 B  B2  1  0.88624  0.81185  0.66079  1
 B  B3  1  0.81185  0.66079  0.88624  1
 B  B4  1  0.68815  0.33921  0.38624  1
 B  B5  1  0.16079  0.61376  0.18815  1
 B  B6  1  0.66079  0.88624  0.81185  1
 B  B7  1  0.83921  0.11376  0.31185  1
 B  B8  1  0.83921  0.38624  0.81185  1
 B  B9  1  0.18815  0.16079  0.61376  1
 B  B10  1  0.11376  0.31185  0.83921  1
 B  B11  1  0.61376  0.18815  0.16079  1
 B  B12  1  0.11376  0.18815  0.33921  1
 B  B13  1  0.33921  0.11376  0.18815  1
 B  B14  1  0.18815  0.33921  0.11376  1
 B  B15  1  0.31185  0.66079  0.61376  1
 B  B16  1  0.38624  0.68815  0.33921  1
 B  B17  1  0.31185  0.83921  0.11376  1
 B  B18  1  0.81185  0.83921  0.38624  1
 B  B19  1  0.68815  0.16079  0.88624  1
 B  B20  1  0.61376  0.31185  0.66079  1
 B  B21  1  0.88624  0.68815  0.16079  1
 B  B22  1  0.38624  0.81185  0.83921  1
 B  B23  1  0.66079  0.61376  0.31185  1
 B  B24  1  0.16079  0.88624  0.68815  1
 O  O1  1  0.59316  0.28108  0.50287  1
 O  O2  1  0.90684  0.71892  0.00287  1
 O  O3  1  0.00287  0.90684  0.71892  1
 O  O4  1  0.71892  0.00287  0.90684  1
 O  O5  1  0.78108  0.99713  0.40684  1
 O  O6  1  0.49713  0.09316  0.21892  1
 O  O7  1  0.28108  0.50287  0.59316  1
 O  O8  1  0.09316  0.21892  0.49713  1
 O  O9  1  0.99713  0.40684  0.78108  1
 O  O10  1  0.21892  0.49713  0.09316  1
 O  O11  1  0.40684  0.78108  0.99713  1
 O  O12  1  0.50287  0.59316  0.28108  1
 O  O13  1  0.25892  0.38397  0.82550  1
 O  O14  1  0.99713  0.09316  0.28108  1
 O  O15  1  0.25892  0.11603  0.32550  1
 O  O16  1  0.38397  0.82550  0.25892  1
 O  O17  1  0.24108  0.88397  0.82550  1
 O  O18  1  0.61603  0.17450  0.74108  1
 O  O19  1  0.38397  0.67450  0.75892  1
 O  O20  1  0.88397  0.82550  0.24108  1
 O  O21  1  0.75892  0.38397  0.67450  1
 O  O22  1  0.82550  0.24108  0.88397  1
 O  O23  1  0.67450  0.75892  0.38397  1
 O  O24  1  0.17450  0.74108  0.61603  1
 O  O25  1  0.67450  0.74108  0.88397  1
 O  O26  1  0.88397  0.67450  0.74108  1
 O  O27  1  0.74108  0.88397  0.67450  1
 O  O28  1  0.32550  0.25892  0.11603  1
 O  O29  1  0.75892  0.11603  0.17450  1
 O  O30  1  0.74108  0.61603  0.17450  1
 O  O31  1  0.40684  0.71892  0.49713  1
 O  O32  1  0.24108  0.61603  0.32550  1
 O  O33  1  0.17450  0.75892  0.11603  1
 O  O34  1  0.61603  0.32550  0.24108  1
 O  O35  1  0.82550  0.25892  0.38397  1
 O  O36  1  0.09316  0.28108  0.99713  1
 O  O37  1  0.11603  0.32550  0.25892  1
 O  O38  1  0.28108  0.99713  0.09316  1
 O  O39  1  0.59316  0.21892  0.00287  1
 O  O40  1  0.32550  0.24108  0.61603  1
 O  O41  1  0.71892  0.49713  0.40684  1
 O  O42  1  0.50287  0.90684  0.78108  1
 O  O43  1  0.00287  0.59316  0.21892  1
 O  O44  1  0.78108  0.50287  0.90684  1
 O  O45  1  0.11603  0.17450  0.75892  1
 O  O46  1  0.90684  0.78108  0.50287  1
 O  O47  1  0.21892  0.00287  0.59316  1
 O  O48  1  0.49713  0.40684  0.71892  1
 Sr  Sr1  1  0.50000  0.00000  0.50000  1
 Sr  Sr2  1  0.37110  0.12890  0.87110  1
 Sr  Sr3  1  0.12890  0.87110  0.37110  1
 Sr  Sr4  1  0.62890  0.62890  0.62890  1
 Sr  Sr5  1  0.62890  0.87110  0.12890  1
 Sr  Sr6  1  0.00000  0.50000  0.50000  1
 Sr  Sr7  1  0.12890  0.62890  0.87110  1
 Sr  Sr8  1  0.37110  0.37110  0.37110  1
 Sr  Sr9  1  0.50000  0.50000  0.00000  1
 Sr  Sr10  1  0.87110  0.12890  0.62890  1
 Sr  Sr11  1  0.87110  0.37110  0.12890  1
 Sr  Sr12  1  0.00000  0.00000  0.00000  1
