CIF file written using JARVIS-Tools package.
data_Be2NbPt
_symmetry_space_group_name_H-M  'I-4m2'
_cell_length_a       4.62402
_cell_length_b       4.62402
_cell_length_c       4.62402
_cell_angle_alpha    132.519
_cell_angle_beta     132.519
_cell_angle_gamma    69.4112

_symmetry_Int_Tables_number  119
_chemical_formula_structural  Be2NbPt
_chemical_formula_sum  Be2NbPt
_cell_volume  52.69630430630691
_cell_formula_units_Z  1
loop_
  _symmetry_equiv_pos_site_id
 _symmetry_equiv_pos_as_xyz
 1  'x, y, z'
loop_
 _atom_site_type_symbol
 _atom_site_label
 _atom_site_symmetry_multiplicity
 _atom_site_fract_x
 _atom_site_fract_y
 _atom_site_fract_z
 _atom_site_fract_occupancy
 Be  Be1  1  0.00000  0.00000  0.00000  1
 Be  Be2  1  0.25000  0.75000  0.50000  1
 Nb  Nb1  1  0.50000  0.50000  0.00000  1
 Pt  Pt1  1  0.75000  0.25000  0.50000  1
