CIF file written using JARVIS-Tools package.
data_YCI
_symmetry_space_group_name_H-M  'C2/m'
_cell_length_a       3.89581
_cell_length_b       4.12834
_cell_length_c       10.4789
_cell_angle_alpha    93.2465
_cell_angle_beta     90
_cell_angle_gamma    118.154

_symmetry_Int_Tables_number  12
_chemical_formula_structural  YCI
_chemical_formula_sum  Y2C2I2
_cell_volume  148.28751917044855
_cell_formula_units_Z  2
loop_
  _symmetry_equiv_pos_site_id
 _symmetry_equiv_pos_as_xyz
 1  'x, y, z'
loop_
 _atom_site_type_symbol
 _atom_site_label
 _atom_site_symmetry_multiplicity
 _atom_site_fract_x
 _atom_site_fract_y
 _atom_site_fract_z
 _atom_site_fract_occupancy
 C  C1  1  0.57634  0.15268  0.96889  1
 C  C2  1  0.42366  0.84732  0.03111  1
 I  I1  1  0.17290  0.34581  0.66700  1
 I  I2  1  0.82710  0.65419  0.33300  1
 Y  Y1  1  0.14589  0.29178  0.13211  1
 Y  Y2  1  0.85411  0.70822  0.86789  1
