CIF file written using JARVIS-Tools package.
data_Dy4B6O15
_symmetry_space_group_name_H-M  'C2/c'
_cell_length_a       4.3872
_cell_length_b       6.24862
_cell_length_c       18.8399
_cell_angle_alpha    96.1796
_cell_angle_beta     90
_cell_angle_gamma    110.552

_symmetry_Int_Tables_number  15
_chemical_formula_structural  Dy4B6O15
_chemical_formula_sum  Dy8B2O30
_cell_volume  480.3987424048213
_cell_formula_units_Z  2
loop_
  _symmetry_equiv_pos_site_id
 _symmetry_equiv_pos_as_xyz
 1  'x, y, z'
loop_
 _atom_site_type_symbol
 _atom_site_label
 _atom_site_symmetry_multiplicity
 _atom_site_fract_x
 _atom_site_fract_y
 _atom_site_fract_z
 _atom_site_fract_occupancy
 B  B1  1  0.64079  0.66345  0.52527  1
 B  B2  1  0.66245  0.86374  0.30530  1
 B  B3  1  0.35921  0.33655  0.47473  1
 B  B4  1  0.97734  0.33655  0.97473  1
 B  B5  1  0.19857  0.80875  0.58715  1
 B  B6  1  0.79870  0.13626  0.19470  1
 B  B7  1  0.33755  0.13626  0.69470  1
 B  B8  1  0.20130  0.86374  0.80530  1
 B  B9  1  0.80143  0.19125  0.41285  1
 B  B10  1  0.61019  0.80875  0.08715  1
 B  B11  1  0.02266  0.66345  0.02527  1
 B  B12  1  0.38981  0.19125  0.91285  1
 Dy  Dy1  1  0.64843  0.72549  0.69593  1
 Dy  Dy2  1  0.34029  0.26791  0.09913  1
 Dy  Dy3  1  0.07238  0.73209  0.40087  1
 Dy  Dy4  1  0.65971  0.73209  0.90087  1
 Dy  Dy5  1  0.92762  0.26791  0.59913  1
 Dy  Dy6  1  0.07705  0.72549  0.19593  1
 Dy  Dy7  1  0.35157  0.27451  0.30407  1
 Dy  Dy8  1  0.92295  0.27451  0.80407  1
 O  O1  1  0.08565  0.58000  0.95000  1
 O  O2  1  0.49434  0.58000  0.45000  1
 O  O3  1  0.91435  0.42000  0.05000  1
 O  O4  1  0.18993  0.03010  0.62102  1
 O  O5  1  0.15983  0.96990  0.87898  1
 O  O6  1  0.91648  0.35766  0.36117  1
 O  O7  1  0.66089  0.13043  0.69715  1
 O  O8  1  0.53046  0.86957  0.80285  1
 O  O9  1  0.33911  0.86957  0.30285  1
 O  O10  1  0.54377  0.83372  0.56936  1
 O  O11  1  0.71005  0.16628  0.93064  1
 O  O12  1  0.50566  0.42000  0.55000  1
 O  O13  1  0.84017  0.03010  0.12102  1
 O  O14  1  0.55881  0.64234  0.13883  1
 O  O15  1  0.05246  0.36306  0.20415  1
 O  O16  1  0.45623  0.16628  0.43064  1
 O  O17  1  0.00661  0.25496  0.47920  1
 O  O18  1  0.12968  -0.00000  0.75000  1
 O  O19  1  0.99339  0.74504  0.52080  1
 O  O20  1  0.24835  0.25496  0.97920  1
 O  O21  1  0.31059  0.36306  0.70415  1
 O  O22  1  0.94754  0.63694  0.79585  1
 O  O23  1  0.68941  0.63694  0.29585  1
 O  O24  1  0.28995  0.83372  0.06936  1
 O  O25  1  0.87032  -0.00000  0.25000  1
 O  O26  1  0.75165  0.74504  0.02080  1
 O  O27  1  0.81007  0.96990  0.37898  1
 O  O28  1  0.08352  0.64234  0.63883  1
 O  O29  1  0.44119  0.35766  0.86117  1
 O  O30  1  0.46954  0.13043  0.19715  1
