CIF file written using JARVIS-Tools package.
data_BaFeSi4O10
_symmetry_space_group_name_H-M  'P4/ncc'
_cell_length_a       7.58774
_cell_length_b       7.58774
_cell_length_c       16.2664
_cell_angle_alpha    90
_cell_angle_beta     90
_cell_angle_gamma    90

_symmetry_Int_Tables_number  130
_chemical_formula_structural  BaFeSi4O10
_chemical_formula_sum  Ba4Fe4Si6O40
_cell_volume  936.5189487696366
_cell_formula_units_Z  4
loop_
  _symmetry_equiv_pos_site_id
 _symmetry_equiv_pos_as_xyz
 1  'x, y, z'
loop_
 _atom_site_type_symbol
 _atom_site_label
 _atom_site_symmetry_multiplicity
 _atom_site_fract_x
 _atom_site_fract_y
 _atom_site_fract_z
 _atom_site_fract_occupancy
 Ba  Ba1  1  0.25000  0.75000  0.00000  1
 Ba  Ba2  1  0.25000  0.75000  0.50000  1
 Ba  Ba3  1  0.75000  0.25000  0.00000  1
 Ba  Ba4  1  0.75000  0.25000  0.50000  1
 Fe  Fe1  1  0.25000  0.25000  0.08935  1
 Fe  Fe2  1  0.75000  0.75000  0.41065  1
 Fe  Fe3  1  0.75000  0.75000  0.91065  1
 Fe  Fe4  1  0.25000  0.25000  0.58935  1
 O  O1  1  0.02675  0.11389  0.08930  1
 O  O2  1  0.88611  0.97325  0.41070  1
 O  O3  1  0.61389  0.52675  0.41070  1
 O  O4  1  0.11389  0.47325  0.08930  1
 O  O5  1  0.52675  0.88611  0.41070  1
 O  O6  1  0.97325  0.88611  0.91070  1
 O  O7  1  0.61389  0.97325  0.91070  1
 O  O8  1  0.52675  0.61389  0.91070  1
 O  O9  1  0.02821  0.97179  0.75000  1
 O  O10  1  0.11389  0.02675  0.58930  1
 O  O11  1  0.97325  0.61389  0.41070  1
 O  O12  1  0.47325  0.38611  0.08930  1
 O  O13  1  0.72143  0.50171  0.63607  1
 O  O14  1  0.50171  0.77857  0.63607  1
 O  O15  1  0.22143  0.49829  0.86393  1
 O  O16  1  0.38611  0.47325  0.58930  1
 O  O17  1  0.77857  0.99829  0.63607  1
 O  O18  1  0.00171  0.22143  0.86393  1
 O  O19  1  0.49829  0.27857  0.86393  1
 O  O20  1  0.27857  0.00171  0.86393  1
 O  O21  1  0.47179  0.97179  0.25000  1
 O  O22  1  0.52821  0.47179  0.25000  1
 O  O23  1  0.97179  0.02821  0.25000  1
 O  O24  1  0.02821  0.52821  0.25000  1
 O  O25  1  0.52821  0.02821  0.75000  1
 O  O26  1  0.38611  0.02675  0.08930  1
 O  O27  1  0.88611  0.52675  0.91070  1
 O  O28  1  0.99829  0.72143  0.63607  1
 O  O29  1  0.47179  0.52821  0.75000  1
 O  O30  1  0.47325  0.11389  0.58930  1
 O  O31  1  0.50171  0.72143  0.13607  1
 O  O32  1  0.99829  0.77857  0.13607  1
 O  O33  1  0.22143  0.00171  0.36393  1
 O  O34  1  0.72143  0.99829  0.13607  1
 O  O35  1  0.97179  0.47179  0.75000  1
 O  O36  1  0.49829  0.22143  0.36393  1
 O  O37  1  0.27857  0.49829  0.36393  1
 O  O38  1  0.00171  0.27857  0.36393  1
 O  O39  1  0.02675  0.38611  0.58930  1
 O  O40  1  0.77857  0.50171  0.13607  1
 Si  Si1  1  0.93530  0.51737  0.65390  1
 Si  Si2  1  0.56470  0.98263  0.65390  1
 Si  Si3  1  0.01737  0.43530  0.84610  1
 Si  Si4  1  0.51737  0.56470  0.65390  1
 Si  Si5  1  0.98263  0.93530  0.65390  1
 Si  Si6  1  0.43530  0.48263  0.84610  1
 Si  Si7  1  0.06470  0.01737  0.84610  1
 Si  Si8  1  0.43530  0.01737  0.34610  1
 Si  Si9  1  0.98263  0.56470  0.15390  1
 Si  Si10  1  0.48263  0.43530  0.34610  1
 Si  Si11  1  0.01737  0.06470  0.34610  1
 Si  Si12  1  0.56470  0.51737  0.15390  1
 Si  Si13  1  0.51737  0.93530  0.15390  1
 Si  Si14  1  0.06470  0.48263  0.34610  1
 Si  Si15  1  0.48263  0.06470  0.84610  1
 Si  Si16  1  0.93530  0.98263  0.15390  1
