CIF file written using JARVIS-Tools package.
data_NaSbO2
_symmetry_space_group_name_H-M  'C2/c'
_cell_length_a       5.25333
_cell_length_b       5.25333
_cell_length_c       5.66024
_cell_angle_alpha    63.7217
_cell_angle_beta     116.278
_cell_angle_gamma    90.8598

_symmetry_Int_Tables_number  15
_chemical_formula_structural  NaSbO2
_chemical_formula_sum  Na2Sb2O4
_cell_volume  122.36523670034637
_cell_formula_units_Z  2
loop_
  _symmetry_equiv_pos_site_id
 _symmetry_equiv_pos_as_xyz
 1  'x, y, z'
loop_
 _atom_site_type_symbol
 _atom_site_label
 _atom_site_symmetry_multiplicity
 _atom_site_fract_x
 _atom_site_fract_y
 _atom_site_fract_z
 _atom_site_fract_occupancy
 Na  Na1  1  0.37407  0.37407  0.75000  1
 Na  Na2  1  0.62593  0.62593  0.25000  1
 O  O1  1  0.26499  0.86194  0.74664  1
 O  O2  1  0.13806  0.73501  0.24664  1
 O  O3  1  0.86194  0.26499  0.75336  1
 O  O4  1  0.73501  0.13806  0.25336  1
 Sb  Sb1  1  0.88606  0.88606  0.75000  1
 Sb  Sb2  1  0.11394  0.11394  0.25000  1
