CIF file written using JARVIS-Tools package.
data_Li2ZnI4
_symmetry_space_group_name_H-M  'Pnma'
_cell_length_a       7.01738
_cell_length_b       8.52114
_cell_length_c       14.7486
_cell_angle_alpha    90
_cell_angle_beta     90
_cell_angle_gamma    90

_symmetry_Int_Tables_number  62
_chemical_formula_structural  Li2ZnI4
_chemical_formula_sum  Li8Zn4I6
_cell_volume  881.9098443294429
_cell_formula_units_Z  4
loop_
  _symmetry_equiv_pos_site_id
 _symmetry_equiv_pos_as_xyz
 1  'x, y, z'
loop_
 _atom_site_type_symbol
 _atom_site_label
 _atom_site_symmetry_multiplicity
 _atom_site_fract_x
 _atom_site_fract_y
 _atom_site_fract_z
 _atom_site_fract_occupancy
 I  I1  1  0.24649  0.00387  0.16726  1
 I  I2  1  0.22392  0.75000  0.91174  1
 I  I3  1  0.75351  0.50387  0.83274  1
 I  I4  1  0.77608  0.25000  0.08826  1
 I  I5  1  0.27608  0.75000  0.41174  1
 I  I6  1  0.74786  0.75000  0.57877  1
 I  I7  1  0.24786  0.25000  0.92123  1
 I  I8  1  0.72392  0.25000  0.58826  1
 I  I9  1  0.75214  0.75000  0.07877  1
 I  I10  1  0.75351  0.99613  0.83274  1
 I  I11  1  0.25351  0.00387  0.66726  1
 I  I12  1  0.24649  0.49613  0.16726  1
 I  I13  1  0.74649  0.50387  0.33274  1
 I  I14  1  0.25351  0.49613  0.66726  1
 I  I15  1  0.74649  0.99613  0.33274  1
 I  I16  1  0.25214  0.25000  0.42123  1
 Li  Li1  1  0.50207  0.75000  0.23699  1
 Li  Li2  1  0.00207  0.25000  0.26301  1
 Li  Li3  1  0.49793  0.25000  0.76301  1
 Li  Li4  1  0.99793  0.75000  0.73699  1
 Li  Li5  1  0.50000  0.50000  0.50000  1
 Li  Li6  1  0.00000  0.50000  0.00000  1
 Li  Li7  1  0.50000  0.00000  0.50000  1
 Li  Li8  1  0.00000  0.00000  0.00000  1
 Zn  Zn1  1  0.59607  0.75000  0.91451  1
 Zn  Zn2  1  0.09607  0.25000  0.58549  1
 Zn  Zn3  1  0.40393  0.25000  0.08549  1
 Zn  Zn4  1  0.90393  0.75000  0.41451  1
