CIF file written using JARVIS-Tools package.
data_H7NO6
_symmetry_space_group_name_H-M  'P2_1'
_cell_length_a       9.59629
_cell_length_b       14.2528
_cell_length_c       3.34148
_cell_angle_alpha    90.0199
_cell_angle_beta     89.9946
_cell_angle_gamma    89.9922

_symmetry_Int_Tables_number  4
_chemical_formula_structural  H7NO6
_chemical_formula_sum  H28N4O24
_cell_volume  457.0248594583929
_cell_formula_units_Z  4
loop_
  _symmetry_equiv_pos_site_id
 _symmetry_equiv_pos_as_xyz
 1  'x, y, z'
loop_
 _atom_site_type_symbol
 _atom_site_label
 _atom_site_symmetry_multiplicity
 _atom_site_fract_x
 _atom_site_fract_y
 _atom_site_fract_z
 _atom_site_fract_occupancy
 H  H1  1  0.49710  0.67572  0.02709  1
 H  H2  1  0.53190  0.57151  0.27853  1
 H  H3  1  0.04161  0.32136  0.25884  1
 H  H4  1  0.91371  0.29209  0.59158  1
 H  H5  1  0.08779  0.79200  0.90822  1
 H  H6  1  0.95986  0.82129  0.24086  1
 H  H7  1  0.50433  0.17583  0.47295  1
 H  H8  1  0.46963  0.07154  0.22165  1
 H  H9  1  0.43538  0.94077  0.22649  1
 H  H10  1  0.59099  -0.03907  0.09544  1
 H  H11  1  -0.01781  -0.00007  0.14637  1
 H  H12  1  0.89438  0.04501  0.48963  1
 H  H13  1  0.01926  0.49998  0.35347  1
 H  H14  1  0.87015  0.36778  0.23822  1
 H  H15  1  0.10715  0.54492  0.01022  1
 H  H16  1  0.56617  0.44076  0.27386  1
 H  H17  1  0.26385  0.95362  0.66566  1
 H  H18  1  0.13131  0.86771  0.26180  1
 H  H19  1  0.31168  0.84671  0.63246  1
 H  H20  1  0.34253  0.12762  0.50097  1
 H  H21  1  0.19156  0.16206  0.87938  1
 H  H22  1  0.12718  0.08518  0.58373  1
 H  H23  1  0.80999  0.66208  0.62066  1
 H  H24  1  0.87436  0.58516  0.91598  1
 H  H25  1  0.65894  0.62756  0.99894  1
 H  H26  1  0.68980  0.34676  0.86755  1
 H  H27  1  0.73760  0.45366  0.83461  1
 H  H28  1  0.41052  0.46095  0.40472  1
 N  N1  1  0.74576  0.17575  0.70427  1
 N  N2  1  0.73647  0.83725  0.38657  1
 N  N3  1  0.26501  0.33732  0.11330  1
 N  N4  1  0.25571  0.67564  0.79540  1
 O  O1  1  0.72380  0.09085  0.63183  1
 O  O2  1  0.62489  0.81401  0.54230  1
 O  O3  1  0.86352  0.20303  0.84026  1
 O  O4  1  0.13795  0.70292  0.65938  1
 O  O5  1  0.78777  0.60363  0.76693  1
 O  O6  1  0.84647  0.78205  0.43128  1
 O  O7  1  0.64947  0.23697  0.64096  1
 O  O8  1  0.35197  0.73686  0.85902  1
 O  O9  1  0.15501  0.28216  0.06817  1
 O  O10  1  0.75298  0.91119  0.18454  1
 O  O11  1  0.37659  0.31404  -0.04253  1
 O  O12  1  0.01143  0.52708  0.08619  1
 O  O13  1  0.94905  0.34614  0.42121  1
 O  O14  1  0.05243  0.84606  0.07871  1
 O  O15  1  0.43175  0.13874  0.32840  1
 O  O16  1  0.49310  -0.01724  0.05964  1
 O  O17  1  -0.00993  0.02714  0.41350  1
 O  O18  1  0.21377  0.10362  0.73292  1
 O  O19  1  0.50840  0.48278  0.44061  1
 O  O20  1  0.27373  0.90090  0.47852  1
 O  O21  1  0.56973  0.63869  0.17162  1
 O  O22  1  0.27767  0.59074  0.86777  1
 O  O23  1  0.24851  0.41123  0.31576  1
 O  O24  1  0.72774  0.40095  0.02162  1
