CIF file written using JARVIS-Tools package.
data_LiSi
_symmetry_space_group_name_H-M  'I4_1/a'
_cell_length_a       5.52825
_cell_length_b       7.82744
_cell_length_c       7.82744
_cell_angle_alpha    82.8364
_cell_angle_beta     69.3209
_cell_angle_gamma    69.3209

_symmetry_Int_Tables_number  88
_chemical_formula_structural  LiSi
_chemical_formula_sum  Li8Si8
_cell_volume  296.4713976333229
_cell_formula_units_Z  8
loop_
  _symmetry_equiv_pos_site_id
 _symmetry_equiv_pos_as_xyz
 1  'x, y, z'
loop_
 _atom_site_type_symbol
 _atom_site_label
 _atom_site_symmetry_multiplicity
 _atom_site_fract_x
 _atom_site_fract_y
 _atom_site_fract_z
 _atom_site_fract_occupancy
 Li  Li1  1  0.67294  0.15425  0.00088  1
 Li  Li2  1  0.82807  0.34575  0.49912  1
 Li  Li3  1  0.32618  0.50088  0.84575  1
 Li  Li4  1  0.32706  0.84575  0.99912  1
 Li  Li5  1  0.17193  0.65425  0.50088  1
 Li  Li6  1  0.32719  0.00088  0.34575  1
 Li  Li7  1  0.67382  0.49912  0.15425  1
 Li  Li8  1  0.67281  0.99912  0.65425  1
 Si  Si1  1  0.32822  0.30017  0.58131  1
 Si  Si2  1  0.90953  0.91869  0.30017  1
 Si  Si3  1  0.67178  0.69983  0.41869  1
 Si  Si4  1  0.20970  0.19983  0.91869  1
 Si  Si5  1  0.12839  0.58131  0.19983  1
 Si  Si6  1  0.09047  0.08131  0.69983  1
 Si  Si7  1  0.87161  0.41869  0.80017  1
 Si  Si8  1  0.79030  0.80017  0.08131  1
