CIF file written using JARVIS-Tools package.
data_Te2Pd3Pb2
_symmetry_space_group_name_H-M  'Pmmn'
_cell_length_a       6.03857
_cell_length_b       6.53027
_cell_length_c       8.70516
_cell_angle_alpha    90
_cell_angle_beta     90
_cell_angle_gamma    90

_symmetry_Int_Tables_number  59
_chemical_formula_structural  Te2Pd3Pb2
_chemical_formula_sum  Te4Pd6Pb4
_cell_volume  343.27485986387813
_cell_formula_units_Z  2
loop_
  _symmetry_equiv_pos_site_id
 _symmetry_equiv_pos_as_xyz
 1  'x, y, z'
loop_
 _atom_site_type_symbol
 _atom_site_label
 _atom_site_symmetry_multiplicity
 _atom_site_fract_x
 _atom_site_fract_y
 _atom_site_fract_z
 _atom_site_fract_occupancy
 Pb  Pb1  1  0.25000  0.25065  0.25000  1
 Pb  Pb2  1  0.75000  0.74935  0.75000  1
 Pb  Pb3  1  0.25000  0.20113  0.75000  1
 Pb  Pb4  1  0.75000  0.79887  0.25000  1
 Pd  Pd1  1  0.00000  0.00000  0.50000  1
 Pd  Pd2  1  0.75000  0.20355  0.75000  1
 Pd  Pd3  1  0.00000  0.00000  0.00000  1
 Pd  Pd4  1  0.50000  0.00000  0.50000  1
 Pd  Pd5  1  0.50000  0.00000  0.00000  1
 Pd  Pd6  1  0.25000  0.79645  0.25000  1
 Te  Te1  1  0.25000  0.67243  0.54063  1
 Te  Te2  1  0.75000  0.32757  0.04063  1
 Te  Te3  1  0.25000  0.67243  0.95937  1
 Te  Te4  1  0.75000  0.32757  0.45937  1
