CIF file written using JARVIS-Tools package.
data_Rb6Si10O23
_symmetry_space_group_name_H-M  'Amm2'
_cell_length_a       8.10469
_cell_length_b       9.33186
_cell_length_c       9.48346
_cell_angle_alpha    119.473
_cell_angle_beta     90
_cell_angle_gamma    90

_symmetry_Int_Tables_number  38
_chemical_formula_structural  Rb6Si10O23
_chemical_formula_sum  Rb6Si0O23
_cell_volume  624.4320026262288
_cell_formula_units_Z  1
loop_
  _symmetry_equiv_pos_site_id
 _symmetry_equiv_pos_as_xyz
 1  'x, y, z'
loop_
 _atom_site_type_symbol
 _atom_site_label
 _atom_site_symmetry_multiplicity
 _atom_site_fract_x
 _atom_site_fract_y
 _atom_site_fract_z
 _atom_site_fract_occupancy
 O  O1  1  0.30719  0.43671  0.57402  1
 O  O2  1  0.74637  0.77216  0.76281  1
 O  O3  1  0.25363  0.77216  0.76281  1
 O  O4  1  0.75148  0.25089  -0.00000  1
 O  O5  1  0.69281  0.43671  0.57402  1
 O  O6  1  0.50000  0.44352  -0.00000  1
 O  O7  1  0.80006  0.16185  0.56764  1
 O  O8  1  0.19994  0.59421  0.43236  1
 O  O9  1  0.00000  0.77401  0.35887  1
 O  O10  1  0.22853  0.43911  0.84913  1
 O  O11  1  0.25363  0.00936  0.23719  1
 O  O12  1  0.24852  0.25089  -0.00000  1
 O  O13  1  0.19994  0.16185  0.56764  1
 O  O14  1  0.00000  0.41514  0.64113  1
 O  O15  1  0.22853  0.58999  0.15087  1
 O  O16  1  0.77147  0.58999  0.15087  1
 O  O17  1  0.69281  0.86269  0.42598  1
 O  O18  1  0.30719  0.86269  0.42598  1
 O  O19  1  0.50000  0.10073  0.46012  1
 O  O20  1  0.80006  0.59421  0.43236  1
 O  O21  1  0.50000  0.64061  0.53988  1
 O  O22  1  0.77147  0.43911  0.84913  1
 O  O23  1  0.74637  0.00936  0.23719  1
 Rb  Rb1  1  0.50000  0.77207  -0.00000  1
 Rb  Rb2  1  0.50000  0.01667  0.75658  1
 Rb  Rb3  1  0.00000  0.76959  -0.00000  1
 Rb  Rb4  1  0.00000  0.25391  0.23871  1
 Rb  Rb5  1  0.00000  0.01520  0.76129  1
 Rb  Rb6  1  0.50000  0.26009  0.24342  1
 Si  Si1  1  0.18768  0.36148  0.65893  1
 Si  Si2  1  0.69016  0.03088  0.40630  1
 Si  Si3  1  0.81232  0.70255  0.34107  1
 Si  Si4  1  0.30984  0.62459  0.59370  1
 Si  Si5  1  0.30984  0.03088  0.40630  1
 Si  Si6  1  0.81232  0.36148  0.65893  1
 Si  Si7  1  0.29891  0.41449  -0.00000  1
 Si  Si8  1  0.18768  0.70255  0.34107  1
 Si  Si9  1  0.70109  0.41449  -0.00000  1
 Si  Si10  1  0.69016  0.62459  0.59370  1
