CIF file written using JARVIS-Tools package.
data_Na2VO3
_symmetry_space_group_name_H-M  'Cmc2_1'
_cell_length_a       6.31685
_cell_length_b       6.3251
_cell_length_c       4.91207
_cell_angle_alpha    90
_cell_angle_beta     90
_cell_angle_gamma    60.0431

_symmetry_Int_Tables_number  36
_chemical_formula_structural  Na2VO3
_chemical_formula_sum  Na4V2O6
_cell_volume  170.0402688791591
_cell_formula_units_Z  2
loop_
  _symmetry_equiv_pos_site_id
 _symmetry_equiv_pos_as_xyz
 1  'x, y, z'
loop_
 _atom_site_type_symbol
 _atom_site_label
 _atom_site_symmetry_multiplicity
 _atom_site_fract_x
 _atom_site_fract_y
 _atom_site_fract_z
 _atom_site_fract_occupancy
 Na  Na1  1  0.50105  0.66831  0.00795  1
 Na  Na2  1  0.83064  0.66831  0.50795  1
 Na  Na3  1  0.49895  0.33169  0.50795  1
 Na  Na4  1  0.16936  0.33169  0.00795  1
 O  O1  1  0.83822  0.72282  0.98777  1
 O  O2  1  0.43895  0.72282  0.48777  1
 O  O3  1  0.56105  0.27718  0.98777  1
 O  O4  1  0.16178  0.27718  0.48777  1
 O  O5  1  0.88687  0.00000  0.42110  1
 O  O6  1  0.11313  0.00000  0.92110  1
 V  V1  1  0.83070  0.00000  0.04546  1
 V  V2  1  0.16930  0.00000  0.54546  1
