CIF file written using JARVIS-Tools package.
data_TbHO2
_symmetry_space_group_name_H-M  'P2_1/m'
_cell_length_a       3.66718
_cell_length_b       4.33212
_cell_length_c       6.02165
_cell_angle_alpha    109.03
_cell_angle_beta     90
_cell_angle_gamma    90

_symmetry_Int_Tables_number  11
_chemical_formula_structural  TbHO2
_chemical_formula_sum  Tb2H2O4
_cell_volume  90.43543508567635
_cell_formula_units_Z  2
loop_
  _symmetry_equiv_pos_site_id
 _symmetry_equiv_pos_as_xyz
 1  'x, y, z'
loop_
 _atom_site_type_symbol
 _atom_site_label
 _atom_site_symmetry_multiplicity
 _atom_site_fract_x
 _atom_site_fract_y
 _atom_site_fract_z
 _atom_site_fract_occupancy
 H  H1  1  0.25000  0.98546  0.57794  1
 H  H2  1  0.75000  0.01454  0.42206  1
 O  O1  1  0.25000  0.76566  0.04991  1
 O  O2  1  0.75000  0.23434  0.95009  1
 O  O3  1  0.25000  0.75375  0.56157  1
 O  O4  1  0.75000  0.24625  0.43843  1
 Tb  Tb1  1  0.25000  0.33348  0.19011  1
 Tb  Tb2  1  0.75000  0.66652  0.80989  1
