CIF file written using JARVIS-Tools package.
data_Fe6O7F5
_symmetry_space_group_name_H-M  'P1'
_cell_length_a       4.54579
_cell_length_b       5.45924
_cell_length_c       7.53056
_cell_angle_alpha    85.0745
_cell_angle_beta     89.3867
_cell_angle_gamma    89.0305

_symmetry_Int_Tables_number  1
_chemical_formula_structural  Fe6O7F5
_chemical_formula_sum  Fe6O7F5
_cell_volume  186.15784226802214
_cell_formula_units_Z  1
loop_
  _symmetry_equiv_pos_site_id
 _symmetry_equiv_pos_as_xyz
 1  'x, y, z'
loop_
 _atom_site_type_symbol
 _atom_site_label
 _atom_site_symmetry_multiplicity
 _atom_site_fract_x
 _atom_site_fract_y
 _atom_site_fract_z
 _atom_site_fract_occupancy
 F  F1  1  0.20971  0.64278  0.56022  1
 F  F2  1  0.71006  0.19142  0.12428  1
 F  F3  1  0.80827  0.36496  0.44711  1
 F  F4  1  0.21478  0.95309  0.21723  1
 F  F5  1  0.29946  0.80680  0.87934  1
 Fe  Fe1  1  0.53105  0.84525  0.65465  1
 Fe  Fe2  1  0.98347  0.65615  0.31133  1
 Fe  Fe3  1  0.00545  0.33877  0.69532  1
 Fe  Fe4  1  0.47919  0.16298  0.35592  1
 Fe  Fe5  1  0.49597  0.49817  0.00303  1
 Fe  Fe6  1  0.98054  -0.00049  0.98207  1
 O  O1  1  0.20705  0.30313  0.91023  1
 O  O2  1  0.30464  0.44768  0.23900  1
 O  O3  1  0.69914  0.55066  0.76270  1
 O  O4  1  0.78891  0.69540  0.09066  1
 O  O5  1  0.78456  0.03849  0.76114  1
 O  O6  1  0.70102  0.86961  0.43376  1
 O  O7  1  0.29673  0.13515  0.57200  1
