CIF file written using JARVIS-Tools package.
data_NbVO4
_symmetry_space_group_name_H-M  'I-4m2'
_cell_length_a       5.61495
_cell_length_b       5.61495
_cell_length_c       5.61495
_cell_angle_alpha    139.18
_cell_angle_beta     139.18
_cell_angle_gamma    59.1011

_symmetry_Int_Tables_number  119
_chemical_formula_structural  NbVO4
_chemical_formula_sum  NbVO4
_cell_volume  74.91660454056279
_cell_formula_units_Z  1
loop_
  _symmetry_equiv_pos_site_id
 _symmetry_equiv_pos_as_xyz
 1  'x, y, z'
loop_
 _atom_site_type_symbol
 _atom_site_label
 _atom_site_symmetry_multiplicity
 _atom_site_fract_x
 _atom_site_fract_y
 _atom_site_fract_z
 _atom_site_fract_occupancy
 Nb  Nb1  1  0.00000  0.00000  0.00000  1
 O  O1  1  0.54165  0.04165  0.50000  1
 O  O2  1  0.20933  0.20933  -0.00000  1
 O  O3  1  0.95835  0.45835  0.50000  1
 O  O4  1  0.79067  0.79067  0.00000  1
 V  V1  1  0.75000  0.25000  0.50000  1
