CIF file written using JARVIS-Tools package.
data_Mn3O2F4
_symmetry_space_group_name_H-M  'C2'
_cell_length_a       4.67833
_cell_length_b       4.67833
_cell_length_c       9.56286
_cell_angle_alpha    90.4638
_cell_angle_beta     90.4638
_cell_angle_gamma    89.737

_symmetry_Int_Tables_number  5
_chemical_formula_structural  Mn3O2F4
_chemical_formula_sum  Mn6O4F8
_cell_volume  209.28424789361674
_cell_formula_units_Z  2
loop_
  _symmetry_equiv_pos_site_id
 _symmetry_equiv_pos_as_xyz
 1  'x, y, z'
loop_
 _atom_site_type_symbol
 _atom_site_label
 _atom_site_symmetry_multiplicity
 _atom_site_fract_x
 _atom_site_fract_y
 _atom_site_fract_z
 _atom_site_fract_occupancy
 F  F1  1  0.77769  0.20676  0.82318  1
 F  F2  1  0.67765  0.70481  0.65423  1
 F  F3  1  0.73375  0.72045  0.32908  1
 F  F4  1  0.29519  0.32235  0.67910  1
 F  F5  1  0.27955  0.26625  0.00425  1
 F  F6  1  0.21098  0.78902  0.16667  1
 F  F7  1  0.79324  0.22231  0.51016  1
 F  F8  1  0.82224  0.17776  0.16667  1
 Mn  Mn1  1  0.98292  0.95067  0.99199  1
 Mn  Mn2  1  0.47463  0.51597  0.49139  1
 Mn  Mn3  1  0.51393  0.48607  0.16667  1
 Mn  Mn4  1  0.48403  0.52537  0.84195  1
 Mn  Mn5  1  0.01687  0.98313  0.66667  1
 Mn  Mn6  1  0.04933  0.01708  0.34134  1
 O  O1  1  0.17852  0.79600  0.83276  1
 O  O2  1  0.68035  0.67488  0.00187  1
 O  O3  1  0.32512  0.31965  0.33146  1
 O  O4  1  0.20400  0.82148  0.50057  1
