CIF file written using JARVIS-Tools package.
data_PH3O4
_symmetry_space_group_name_H-M  'P2_1/c'
_cell_length_a       5.70018
_cell_length_b       4.76309
_cell_length_c       11.334
_cell_angle_alpha    90
_cell_angle_beta     94.6444
_cell_angle_gamma    90

_symmetry_Int_Tables_number  14
_chemical_formula_structural  PH3O4
_chemical_formula_sum  P4H2O6
_cell_volume  306.71390232289554
_cell_formula_units_Z  4
loop_
  _symmetry_equiv_pos_site_id
 _symmetry_equiv_pos_as_xyz
 1  'x, y, z'
loop_
 _atom_site_type_symbol
 _atom_site_label
 _atom_site_symmetry_multiplicity
 _atom_site_fract_x
 _atom_site_fract_y
 _atom_site_fract_z
 _atom_site_fract_occupancy
 H  H1  1  0.15129  0.51353  0.82866  1
 H  H2  1  0.28334  0.56670  0.54062  1
 H  H3  1  0.73251  0.06676  -0.03809  1
 H  H4  1  0.73251  0.43324  0.46191  1
 H  H5  1  0.28334  0.93330  0.04062  1
 H  H6  1  0.48285  0.64705  0.17711  1
 H  H7  1  0.15129  0.98647  0.32866  1
 H  H8  1  0.86453  0.01353  0.67389  1
 H  H9  1  0.48285  0.85295  0.67711  1
 H  H10  1  0.53297  0.35298  0.82539  1
 H  H11  1  0.53297  0.14702  0.32539  1
 H  H12  1  0.86453  0.48647  0.17389  1
 O  O1  1  0.94348  0.34696  0.12052  1
 O  O2  1  0.73006  0.85983  0.97300  1
 O  O3  1  0.28578  0.35977  0.52954  1
 O  O4  1  0.68862  0.11271  0.37657  1
 O  O5  1  0.73006  0.64017  0.47300  1
 O  O6  1  0.28578  0.14023  0.02954  1
 O  O7  1  0.07236  0.65307  0.88202  1
 O  O8  1  0.94348  0.15304  0.62052  1
 O  O9  1  0.29696  0.31809  0.75656  1
 O  O10  1  0.32719  0.61277  0.12595  1
 O  O11  1  0.71887  0.68186  0.24597  1
 O  O12  1  0.29696  0.18191  0.25656  1
 O  O13  1  0.32719  0.88723  0.62595  1
 O  O14  1  0.68862  0.38729  0.87657  1
 O  O15  1  0.07236  0.84693  0.38202  1
 O  O16  1  0.71887  0.81814  0.74597  1
 P  P1  1  0.21553  0.31443  0.13871  1
 P  P2  1  0.80030  0.81438  0.36383  1
 P  P3  1  0.80030  0.68562  0.86383  1
 P  P4  1  0.21553  0.18557  0.63871  1
