CIF file written using JARVIS-Tools package.
data_LuU4S5O4
_symmetry_space_group_name_H-M  'I4/mmm'
_cell_length_a       3.79623
_cell_length_b       3.79623
_cell_length_c       17.3971
_cell_angle_alpha    96.2637
_cell_angle_beta     96.2637
_cell_angle_gamma    90

_symmetry_Int_Tables_number  139
_chemical_formula_structural  LuU4S5O4
_chemical_formula_sum  LuU4S5O4
_cell_volume  247.71179059973295
_cell_formula_units_Z  1
loop_
  _symmetry_equiv_pos_site_id
 _symmetry_equiv_pos_as_xyz
 1  'x, y, z'
loop_
 _atom_site_type_symbol
 _atom_site_label
 _atom_site_symmetry_multiplicity
 _atom_site_fract_x
 _atom_site_fract_y
 _atom_site_fract_z
 _atom_site_fract_occupancy
 Lu  Lu1  1  0.50000  0.50000  0.00000  1
 O  O1  1  0.15066  0.65066  0.30132  1
 O  O2  1  0.65066  0.15066  0.30132  1
 O  O3  1  0.84934  0.34934  0.69868  1
 O  O4  1  0.34934  0.84934  0.69868  1
 S  S1  1  0.77717  0.77717  0.55433  1
 S  S2  1  0.42321  0.42321  0.84642  1
 S  S3  1  0.22283  0.22283  0.44567  1
 S  S4  1  0.57679  0.57679  0.15358  1
 S  S5  1  0.00000  0.00000  0.00000  1
 U  U1  1  0.30820  0.30820  0.61640  1
 U  U2  1  0.69180  0.69180  0.38360  1
 U  U3  1  0.11304  0.11304  0.22609  1
 U  U4  1  0.88696  0.88696  0.77391  1
