CIF file written using JARVIS-Tools package.
data_Fe4O7F
_symmetry_space_group_name_H-M  'Cm'
_cell_length_a       4.32134
_cell_length_b       5.1894
_cell_length_c       5.1894
_cell_angle_alpha    112.906
_cell_angle_beta     91.1175
_cell_angle_gamma    88.8825

_symmetry_Int_Tables_number  8
_chemical_formula_structural  Fe4O7F
_chemical_formula_sum  Fe4O7F
_cell_volume  107.16714172897788
_cell_formula_units_Z  1
loop_
  _symmetry_equiv_pos_site_id
 _symmetry_equiv_pos_as_xyz
 1  'x, y, z'
loop_
 _atom_site_type_symbol
 _atom_site_label
 _atom_site_symmetry_multiplicity
 _atom_site_fract_x
 _atom_site_fract_y
 _atom_site_fract_z
 _atom_site_fract_occupancy
 F  F1  1  0.19931  0.35037  0.14963  1
 Fe  Fe1  1  0.49640  0.99770  0.50230  1
 Fe  Fe2  1  0.52132  0.51108  0.98892  1
 Fe  Fe3  1  0.98871  0.50030  0.51091  1
 Fe  Fe4  1  0.98871  0.98909  -0.00030  1
 O  O1  1  0.80397  0.65542  0.84458  1
 O  O2  1  0.80399  0.14913  0.35087  1
 O  O3  1  0.69708  0.15504  0.84934  1
 O  O4  1  0.69708  0.65066  0.34496  1
 O  O5  1  0.30545  0.84714  0.15081  1
 O  O6  1  0.30545  0.34919  0.65286  1
 O  O7  1  0.19251  0.84488  0.65512  1
