CIF file written using JARVIS-Tools package.
data_Ho3Se4O12F
_symmetry_space_group_name_H-M  'P6_3mc'
_cell_length_a       10.3617
_cell_length_b       10.3617
_cell_length_c       6.74318
_cell_angle_alpha    90
_cell_angle_beta     90
_cell_angle_gamma    120

_symmetry_Int_Tables_number  186
_chemical_formula_structural  Ho3Se4O12F
_chemical_formula_sum  Ho6Se8O24F2
_cell_volume  626.9807515302388
_cell_formula_units_Z  2
loop_
  _symmetry_equiv_pos_site_id
 _symmetry_equiv_pos_as_xyz
 1  'x, y, z'
loop_
 _atom_site_type_symbol
 _atom_site_label
 _atom_site_symmetry_multiplicity
 _atom_site_fract_x
 _atom_site_fract_y
 _atom_site_fract_z
 _atom_site_fract_occupancy
 F  F1  1  0.33333  0.66667  0.25462  1
 F  F2  1  0.66667  0.33333  0.75462  1
 Ho  Ho1  1  0.53827  0.46173  0.70386  1
 Ho  Ho2  1  0.46173  0.53827  0.20386  1
 Ho  Ho3  1  0.07654  0.53827  0.20386  1
 Ho  Ho4  1  0.53827  0.07654  0.70386  1
 Ho  Ho5  1  0.46173  0.92346  0.20386  1
 Ho  Ho6  1  0.92346  0.46173  0.70386  1
 O  O1  1  0.91938  0.33586  0.00764  1
 O  O2  1  0.41960  0.83921  0.88025  1
 O  O3  1  0.33586  0.91938  0.50764  1
 O  O4  1  0.63640  0.81820  0.19099  1
 O  O5  1  0.18180  0.81820  0.19099  1
 O  O6  1  0.58352  0.91938  0.50764  1
 O  O7  1  0.83921  0.41960  0.38025  1
 O  O8  1  0.41648  0.33586  0.00764  1
 O  O9  1  0.36360  0.18180  0.69099  1
 O  O10  1  0.41960  0.58040  0.88025  1
 O  O11  1  0.66414  0.08062  0.00764  1
 O  O12  1  0.58040  0.41960  0.38025  1
 O  O13  1  0.81820  0.63640  0.69099  1
 O  O14  1  0.33586  0.41648  0.50764  1
 O  O15  1  0.66414  0.58352  0.00764  1
 O  O16  1  0.81820  0.18180  0.69099  1
 O  O17  1  0.16079  0.58040  0.88025  1
 O  O18  1  0.91938  0.58352  0.00764  1
 O  O19  1  0.08062  0.66414  0.50764  1
 O  O20  1  0.41648  0.08062  0.00764  1
 O  O21  1  0.58352  0.66414  0.50764  1
 O  O22  1  0.58040  0.16079  0.38025  1
 O  O23  1  0.08062  0.41648  0.50764  1
 O  O24  1  0.18180  0.36360  0.19099  1
 Se  Se1  1  0.84681  0.69363  0.93565  1
 Se  Se2  1  0.30637  0.15319  0.93565  1
 Se  Se3  1  0.84681  0.15319  0.93565  1
 Se  Se4  1  0.33333  0.66667  0.76226  1
 Se  Se5  1  0.15319  0.84681  0.43565  1
 Se  Se6  1  0.69363  0.84681  0.43565  1
 Se  Se7  1  0.66667  0.33333  0.26226  1
 Se  Se8  1  0.15319  0.30637  0.43565  1
