CIF file written using JARVIS-Tools package.
data_Fe2TeO5
_symmetry_space_group_name_H-M  'P2_1/c'
_cell_length_a       4.85962
_cell_length_b       7.80514
_cell_length_c       10.6499
_cell_angle_alpha    101.296
_cell_angle_beta     90
_cell_angle_gamma    90

_symmetry_Int_Tables_number  14
_chemical_formula_structural  Fe2TeO5
_chemical_formula_sum  Fe8Te4O20
_cell_volume  396.126190293292
_cell_formula_units_Z  4
loop_
  _symmetry_equiv_pos_site_id
 _symmetry_equiv_pos_as_xyz
 1  'x, y, z'
loop_
 _atom_site_type_symbol
 _atom_site_label
 _atom_site_symmetry_multiplicity
 _atom_site_fract_x
 _atom_site_fract_y
 _atom_site_fract_z
 _atom_site_fract_occupancy
 Fe  Fe1  1  0.05249  0.81192  0.90956  1
 Fe  Fe2  1  0.94751  0.18808  0.09044  1
 Fe  Fe3  1  0.55249  0.18808  0.59044  1
 Fe  Fe4  1  0.43232  0.98189  0.13130  1
 Fe  Fe5  1  0.56768  0.01811  0.86870  1
 Fe  Fe6  1  0.06768  0.98189  0.63130  1
 Fe  Fe7  1  0.44751  0.81192  0.40956  1
 Fe  Fe8  1  0.93232  0.01811  0.36870  1
 O  O1  1  0.20601  0.73954  0.06482  1
 O  O2  1  0.12486  0.42188  0.15888  1
 O  O3  1  0.73659  0.93734  0.01292  1
 O  O4  1  0.37514  0.42188  0.65888  1
 O  O5  1  0.70601  0.26046  0.43518  1
 O  O6  1  0.39885  0.75881  0.81783  1
 O  O7  1  0.23659  0.06266  0.48708  1
 O  O8  1  0.60115  0.24119  0.18217  1
 O  O9  1  0.87831  0.91759  0.76867  1
 O  O10  1  0.87514  0.57812  0.84112  1
 O  O11  1  0.79399  0.26046  0.93518  1
 O  O12  1  0.37831  0.08241  0.73133  1
 O  O13  1  0.10115  0.75881  0.31783  1
 O  O14  1  0.62486  0.57812  0.34112  1
 O  O15  1  0.12169  0.08241  0.23133  1
 O  O16  1  0.29399  0.73954  0.56482  1
 O  O17  1  0.76341  0.93734  0.51292  1
 O  O18  1  0.26341  0.06266  0.98708  1
 O  O19  1  0.89885  0.24119  0.68217  1
 O  O20  1  0.62169  0.91759  0.26867  1
 Te  Te1  1  0.92836  0.63872  0.16455  1
 Te  Te2  1  0.07164  0.36128  0.83545  1
 Te  Te3  1  0.57164  0.63872  0.66455  1
 Te  Te4  1  0.42836  0.36128  0.33545  1
