CIF file written using JARVIS-Tools package.
data_Hf27P16
_symmetry_space_group_name_H-M  'Immm'
_cell_length_a       3.53847
_cell_length_b       14.9544
_cell_length_c       14.9544
_cell_angle_alpha    77.1806
_cell_angle_beta     83.2056
_cell_angle_gamma    83.2055

_symmetry_Int_Tables_number  71
_chemical_formula_structural  Hf27P16
_chemical_formula_sum  Hf27P6
_cell_volume  762.7123961768785
_cell_formula_units_Z  1
loop_
  _symmetry_equiv_pos_site_id
 _symmetry_equiv_pos_as_xyz
 1  'x, y, z'
loop_
 _atom_site_type_symbol
 _atom_site_label
 _atom_site_symmetry_multiplicity
 _atom_site_fract_x
 _atom_site_fract_y
 _atom_site_fract_z
 _atom_site_fract_occupancy
 Hf  Hf1  1  0.71508  0.78492  0.78492  1
 Hf  Hf2  1  0.28492  0.21508  0.21508  1
 Hf  Hf3  1  0.58002  0.01332  0.82665  1
 Hf  Hf4  1  0.41998  0.98668  0.17335  1
 Hf  Hf5  1  0.41998  0.17335  0.98668  1
 Hf  Hf6  1  0.58002  0.82665  0.01332  1
 Hf  Hf7  1  0.39109  0.74032  0.47750  1
 Hf  Hf8  1  0.07148  0.68250  0.17455  1
 Hf  Hf9  1  0.39109  0.47750  0.74032  1
 Hf  Hf10  1  0.60891  0.52250  0.25968  1
 Hf  Hf11  1  0.81781  0.04897  0.31541  1
 Hf  Hf12  1  0.18219  0.95103  0.68459  1
 Hf  Hf13  1  0.18219  0.68459  0.95103  1
 Hf  Hf14  1  0.60891  0.25968  0.52250  1
 Hf  Hf15  1  0.92852  0.82545  0.31750  1
 Hf  Hf16  1  0.81781  0.31541  0.04897  1
 Hf  Hf17  1  0.85238  0.64762  0.64762  1
 Hf  Hf18  1  -0.00000  0.58362  0.41638  1
 Hf  Hf19  1  0.00000  0.41638  0.58362  1
 Hf  Hf20  1  0.78383  0.52983  0.90251  1
 Hf  Hf21  1  0.00000  0.00000  0.00000  1
 Hf  Hf22  1  0.21617  0.09749  0.47017  1
 Hf  Hf23  1  0.78383  0.90251  0.52983  1
 Hf  Hf24  1  0.14762  0.35238  0.35238  1
 Hf  Hf25  1  0.92852  0.31750  0.82545  1
 Hf  Hf26  1  0.07148  0.17455  0.68250  1
 Hf  Hf27  1  0.21617  0.47017  0.09749  1
 P  P1  1  0.71497  0.20855  0.36151  1
 P  P2  1  0.34299  0.92524  0.38878  1
 P  P3  1  0.28503  0.79145  0.63849  1
 P  P4  1  0.28503  0.63849  0.79145  1
 P  P5  1  0.71497  0.36151  0.20855  1
 P  P6  1  0.65701  0.07476  0.61122  1
 P  P7  1  0.34299  0.38878  0.92524  1
 P  P8  1  0.50000  0.69114  0.30886  1
 P  P9  1  0.12470  0.87530  0.87530  1
 P  P10  1  0.56108  0.43892  0.43892  1
 P  P11  1  0.43892  0.56108  0.56108  1
 P  P12  1  0.50000  0.30886  0.69114  1
 P  P13  1  0.00000  0.86091  0.13909  1
 P  P14  1  0.65701  0.61122  0.07476  1
 P  P15  1  0.87530  0.12470  0.12470  1
 P  P16  1  -0.00000  0.13909  0.86091  1
