CIF file written using JARVIS-Tools package.
data_Fe2NiSe4
_symmetry_space_group_name_H-M  'Cm'
_cell_length_a       6.25183
_cell_length_b       6.25184
_cell_length_c       6.19464
_cell_angle_alpha    62.2423
_cell_angle_beta     62.2423
_cell_angle_gamma    33.2212

_symmetry_Int_Tables_number  8
_chemical_formula_structural  Fe2NiSe4
_chemical_formula_sum  Fe2NiSe4
_cell_volume  115.93079148375843
_cell_formula_units_Z  1
loop_
  _symmetry_equiv_pos_site_id
 _symmetry_equiv_pos_as_xyz
 1  'x, y, z'
loop_
 _atom_site_type_symbol
 _atom_site_label
 _atom_site_symmetry_multiplicity
 _atom_site_fract_x
 _atom_site_fract_y
 _atom_site_fract_z
 _atom_site_fract_occupancy
 Fe  Fe1  1  0.99963  0.99963  0.99838  1
 Fe  Fe2  1  0.26122  0.26122  0.71418  1
 Ni  Ni1  1  0.73691  0.73691  0.28880  1
 Se  Se1  1  0.88210  0.88210  0.45480  1
 Se  Se2  1  0.11659  0.11659  0.55370  1
 Se  Se3  1  0.63352  0.63352  0.02349  1
 Se  Se4  1  0.37005  0.37005  0.96664  1
