CIF file written using JARVIS-Tools package.
data_TlSe
_symmetry_space_group_name_H-M  'I4/mcm'
_cell_length_a       6.74247
_cell_length_b       6.74247
_cell_length_c       6.74247
_cell_angle_alpha    106.217
_cell_angle_beta     106.217
_cell_angle_gamma    116.197

_symmetry_Int_Tables_number  140
_chemical_formula_structural  TlSe
_chemical_formula_sum  Tl4Se4
_cell_volume  233.49160471140885
_cell_formula_units_Z  4
loop_
  _symmetry_equiv_pos_site_id
 _symmetry_equiv_pos_as_xyz
 1  'x, y, z'
loop_
 _atom_site_type_symbol
 _atom_site_label
 _atom_site_symmetry_multiplicity
 _atom_site_fract_x
 _atom_site_fract_y
 _atom_site_fract_z
 _atom_site_fract_occupancy
 Se  Se1  1  0.81808  0.31808  0.13616  1
 Se  Se2  1  0.18192  0.68192  0.86384  1
 Se  Se3  1  0.68192  0.81808  0.50000  1
 Se  Se4  1  0.31808  0.18192  0.50000  1
 Tl  Tl1  1  0.75000  0.75000  0.00000  1
 Tl  Tl2  1  0.25000  0.25000  0.00000  1
 Tl  Tl3  1  0.25000  0.75000  0.50000  1
 Tl  Tl4  1  0.75000  0.25000  0.50000  1
