CIF file written using JARVIS-Tools package.
data_Sr3MgSi2O8
_symmetry_space_group_name_H-M  'C2/c'
_cell_length_a       5.48418
_cell_length_b       9.47054
_cell_length_c       13.9458
_cell_angle_alpha    89.1787
_cell_angle_beta     90
_cell_angle_gamma    90

_symmetry_Int_Tables_number  15
_chemical_formula_structural  Sr3MgSi2O8
_chemical_formula_sum  Sr2Mg4Si8O32
_cell_volume  724.2464873480155
_cell_formula_units_Z  4
loop_
  _symmetry_equiv_pos_site_id
 _symmetry_equiv_pos_as_xyz
 1  'x, y, z'
loop_
 _atom_site_type_symbol
 _atom_site_label
 _atom_site_symmetry_multiplicity
 _atom_site_fract_x
 _atom_site_fract_y
 _atom_site_fract_z
 _atom_site_fract_occupancy
 Mg  Mg1  1  0.24999  0.75003  0.99996  1
 Mg  Mg2  1  0.74999  0.24997  0.50004  1
 Mg  Mg3  1  0.25001  0.75003  0.49996  1
 Mg  Mg4  1  0.75001  0.24997  0.00004  1
 O  O1  1  0.17446  0.07708  0.75495  1
 O  O2  1  0.71575  0.06614  0.08063  1
 O  O3  1  0.51829  0.17617  0.88540  1
 O  O4  1  0.04238  0.32612  0.57645  1
 O  O5  1  0.95749  0.82605  0.07628  1
 O  O6  1  0.21578  0.56617  0.08062  1
 O  O7  1  0.45749  0.17395  0.42372  1
 O  O8  1  0.21575  0.93386  0.41937  1
 O  O9  1  0.98171  0.17617  0.38540  1
 O  O10  1  0.28422  0.56617  0.58062  1
 O  O11  1  0.82513  0.57681  0.25486  1
 O  O12  1  0.51825  0.32387  0.61462  1
 O  O13  1  0.04251  0.17395  0.92372  1
 O  O14  1  0.67446  0.92292  0.74505  1
 O  O15  1  0.71578  0.43383  0.41938  1
 O  O16  1  0.82554  0.92292  0.24505  1
 O  O17  1  0.17487  0.42319  0.74514  1
 O  O18  1  0.01829  0.82383  0.61460  1
 O  O19  1  0.54251  0.82605  0.57628  1
 O  O20  1  0.67487  0.57681  0.75486  1
 O  O21  1  0.32513  0.42319  0.24514  1
 O  O22  1  0.78422  0.43383  0.91938  1
 O  O23  1  0.32554  0.07708  0.25495  1
 O  O24  1  0.98175  0.32387  0.11462  1
 O  O25  1  0.48171  0.82383  0.11460  1
 O  O26  1  0.95762  0.67388  0.42355  1
 O  O27  1  0.01825  0.67613  0.88538  1
 O  O28  1  0.45762  0.32612  0.07645  1
 O  O29  1  0.28425  0.93386  0.91937  1
 O  O30  1  0.78425  0.06614  0.58063  1
 O  O31  1  0.48175  0.67613  0.38538  1
 O  O32  1  0.54238  0.67388  0.92355  1
 Si  Si1  1  0.76248  0.58976  0.86505  1
 Si  Si2  1  0.23756  0.08982  0.36511  1
 Si  Si3  1  0.23752  0.41024  0.13495  1
 Si  Si4  1  0.26248  0.41024  0.63495  1
 Si  Si5  1  0.26244  0.08982  0.86511  1
 Si  Si6  1  0.73752  0.58976  0.36505  1
 Si  Si7  1  0.76244  0.91018  0.63489  1
 Si  Si8  1  0.73756  0.91018  0.13489  1
 Sr  Sr1  1  0.26785  0.07686  0.58788  1
 Sr  Sr2  1  0.73216  0.57691  0.08775  1
 Sr  Sr3  1  0.76785  0.92314  0.91212  1
 Sr  Sr4  1  0.80575  0.25024  0.75005  1
 Sr  Sr5  1  0.23215  0.07686  0.08788  1
 Sr  Sr6  1  0.73215  0.92314  0.41212  1
 Sr  Sr7  1  0.30575  0.74976  0.74995  1
 Sr  Sr8  1  0.23216  0.42309  0.41225  1
 Sr  Sr9  1  0.19425  0.74976  0.24995  1
 Sr  Sr10  1  0.76784  0.57691  0.58775  1
 Sr  Sr11  1  0.26784  0.42309  0.91225  1
 Sr  Sr12  1  0.69425  0.25024  0.25005  1
