CIF file written using JARVIS-Tools package.
data_BeIn4Pb
_symmetry_space_group_name_H-M  'F-43m'
_cell_length_a       6.17497
_cell_length_b       6.17497
_cell_length_c       6.17497
_cell_angle_alpha    60
_cell_angle_beta     60
_cell_angle_gamma    60

_symmetry_Int_Tables_number  216
_chemical_formula_structural  BeIn4Pb
_chemical_formula_sum  BeIn4Pb
_cell_volume  166.489787443938
_cell_formula_units_Z  1
loop_
  _symmetry_equiv_pos_site_id
 _symmetry_equiv_pos_as_xyz
 1  'x, y, z'
loop_
 _atom_site_type_symbol
 _atom_site_label
 _atom_site_symmetry_multiplicity
 _atom_site_fract_x
 _atom_site_fract_y
 _atom_site_fract_z
 _atom_site_fract_occupancy
 Be  Be1  1  0.00000  0.00000  0.00000  1
 In  In1  1  0.12387  0.62538  0.62538  1
 In  In2  1  0.62538  0.62538  0.62538  1
 In  In3  1  0.62538  0.12387  0.62538  1
 In  In4  1  0.62538  0.62538  0.12387  1
 Pb  Pb1  1  0.25000  0.25000  0.25000  1
