CIF file written using JARVIS-Tools package.
data_K2FeCuC6N6
_symmetry_space_group_name_H-M  'P-1'
_cell_length_a       6.95857
_cell_length_b       6.83809
_cell_length_c       6.9701
_cell_angle_alpha    119.367
_cell_angle_beta     116.575
_cell_angle_gamma    90.018

_symmetry_Int_Tables_number  2
_chemical_formula_structural  K2FeCuC6N6
_chemical_formula_sum  K2FeCuC6N6
_cell_volume  248.0237572156801
_cell_formula_units_Z  1
loop_
  _symmetry_equiv_pos_site_id
 _symmetry_equiv_pos_as_xyz
 1  'x, y, z'
loop_
 _atom_site_type_symbol
 _atom_site_label
 _atom_site_symmetry_multiplicity
 _atom_site_fract_x
 _atom_site_fract_y
 _atom_site_fract_z
 _atom_site_fract_occupancy
 C  C1  1  0.71976  0.72155  0.06718  1
 C  C2  1  0.28024  0.27845  0.93282  1
 C  C3  1  0.40938  0.32378  0.64650  1
 C  C4  1  0.71943  0.34525  0.06630  1
 C  C5  1  0.59062  0.67622  0.35350  1
 C  C6  1  0.28057  0.65476  0.93370  1
 Cu  Cu1  1  0.00000  1.00000  0.00000  1
 Fe  Fe1  1  0.50000  0.50000  0.00000  1
 K  K1  1  0.21101  0.74370  0.48830  1
 K  K2  1  0.78899  0.25630  0.51170  1
 N  N1  1  0.64590  0.78504  0.57190  1
 N  N2  1  0.12930  0.14423  0.87836  1
 N  N3  1  0.12977  0.73471  0.87969  1
 N  N4  1  0.87023  0.26529  0.12030  1
 N  N5  1  0.87070  0.85577  0.12163  1
 N  N6  1  0.35410  0.21496  0.42811  1
