CIF file written using JARVIS-Tools package.
data_Ba2InIrO6
_symmetry_space_group_name_H-M  'P-3m1'
_cell_length_a       5.91994
_cell_length_b       5.91993
_cell_length_c       14.6965
_cell_angle_alpha    90
_cell_angle_beta     90
_cell_angle_gamma    120

_symmetry_Int_Tables_number  164
_chemical_formula_structural  Ba2InIrO6
_chemical_formula_sum  Ba6In3Ir3O8
_cell_volume  446.0434883547321
_cell_formula_units_Z  3
loop_
  _symmetry_equiv_pos_site_id
 _symmetry_equiv_pos_as_xyz
 1  'x, y, z'
loop_
 _atom_site_type_symbol
 _atom_site_label
 _atom_site_symmetry_multiplicity
 _atom_site_fract_x
 _atom_site_fract_y
 _atom_site_fract_z
 _atom_site_fract_occupancy
 Ba  Ba1  1  0.33333  0.66667  0.40308  1
 Ba  Ba2  1  0.66667  0.33333  0.90636  1
 Ba  Ba3  1  0.00000  0.00000  0.24718  1
 Ba  Ba4  1  0.00000  0.00000  0.75282  1
 Ba  Ba5  1  0.66667  0.33333  0.59692  1
 Ba  Ba6  1  0.33333  0.66667  0.09364  1
 In  In1  1  0.66667  0.33333  0.34810  1
 In  In2  1  0.33333  0.66667  0.65190  1
 In  In3  1  0.00000  0.00000  0.00000  1
 Ir  Ir1  1  0.66667  0.33333  0.15734  1
 Ir  Ir2  1  0.33333  0.66667  0.84266  1
 Ir  Ir3  1  0.00000  0.00000  0.50000  1
 O  O1  1  0.15683  0.84317  0.57882  1
 O  O2  1  0.82942  0.65883  0.08439  1
 O  O3  1  0.84317  0.68634  0.42118  1
 O  O4  1  0.48857  0.97714  0.75696  1
 O  O5  1  0.97714  0.48857  0.24304  1
 O  O6  1  0.68634  0.84317  0.57882  1
 O  O7  1  0.31366  0.15683  0.42118  1
 O  O8  1  0.51143  0.02286  0.24304  1
 O  O9  1  0.65883  0.82942  0.91561  1
 O  O10  1  0.82942  0.17058  0.08439  1
 O  O11  1  0.17058  0.34117  0.91561  1
 O  O12  1  0.17058  0.82942  0.91561  1
 O  O13  1  0.51143  0.48857  0.24304  1
 O  O14  1  0.15683  0.31366  0.57882  1
 O  O15  1  0.02286  0.51143  0.75696  1
 O  O16  1  0.84317  0.15683  0.42118  1
 O  O17  1  0.34117  0.17058  0.08439  1
 O  O18  1  0.48857  0.51143  0.75696  1
