CIF file written using JARVIS-Tools package.
data_CeSnPd
_symmetry_space_group_name_H-M  'Pnma'
_cell_length_a       4.73015
_cell_length_b       7.44487
_cell_length_c       7.98705
_cell_angle_alpha    90
_cell_angle_beta     90
_cell_angle_gamma    90

_symmetry_Int_Tables_number  62
_chemical_formula_structural  CeSnPd
_chemical_formula_sum  Ce4Sn4Pd4
_cell_volume  281.26699378178824
_cell_formula_units_Z  4
loop_
  _symmetry_equiv_pos_site_id
 _symmetry_equiv_pos_as_xyz
 1  'x, y, z'
loop_
 _atom_site_type_symbol
 _atom_site_label
 _atom_site_symmetry_multiplicity
 _atom_site_fract_x
 _atom_site_fract_y
 _atom_site_fract_z
 _atom_site_fract_occupancy
 Ce  Ce1  1  0.25000  0.51232  0.79542  1
 Ce  Ce2  1  0.75000  0.48768  0.20458  1
 Ce  Ce3  1  0.25000  0.01232  0.70458  1
 Ce  Ce4  1  0.75000  0.98768  0.29542  1
 Pd  Pd1  1  0.75000  0.20737  0.91776  1
 Pd  Pd2  1  0.25000  0.29263  0.41776  1
 Pd  Pd3  1  0.75000  0.70737  0.58224  1
 Pd  Pd4  1  0.25000  0.79263  0.08224  1
 Sn  Sn1  1  0.25000  0.19053  0.08815  1
 Sn  Sn2  1  0.75000  0.30947  0.58815  1
 Sn  Sn3  1  0.25000  0.69053  0.41185  1
 Sn  Sn4  1  0.75000  0.80947  0.91185  1
