CIF file written using JARVIS-Tools package.
data_GeRh
_symmetry_space_group_name_H-M  'Pnma'
_cell_length_a       3.43249
_cell_length_b       5.68855
_cell_length_c       6.41633
_cell_angle_alpha    90
_cell_angle_beta     90
_cell_angle_gamma    90

_symmetry_Int_Tables_number  62
_chemical_formula_structural  GeRh
_chemical_formula_sum  Ge4Rh4
_cell_volume  125.2843610476212
_cell_formula_units_Z  4
loop_
  _symmetry_equiv_pos_site_id
 _symmetry_equiv_pos_as_xyz
 1  'x, y, z'
loop_
 _atom_site_type_symbol
 _atom_site_label
 _atom_site_symmetry_multiplicity
 _atom_site_fract_x
 _atom_site_fract_y
 _atom_site_fract_z
 _atom_site_fract_occupancy
 Ge  Ge1  1  0.75000  0.80394  0.57070  1
 Ge  Ge2  1  0.25000  0.19606  0.42930  1
 Ge  Ge3  1  0.75000  0.30394  0.92930  1
 Ge  Ge4  1  0.25000  0.69606  0.07070  1
 Rh  Rh1  1  0.75000  0.99474  0.20523  1
 Rh  Rh2  1  0.25000  0.00526  0.79477  1
 Rh  Rh3  1  0.75000  0.49474  0.29477  1
 Rh  Rh4  1  0.25000  0.50526  0.70523  1
