CIF file written using JARVIS-Tools package.
data_CuAgO2
_symmetry_space_group_name_H-M  'C2/m'
_cell_length_a       2.83337
_cell_length_b       5.89584
_cell_length_c       6.25322
_cell_angle_alpha    108.965
_cell_angle_beta     89.9891
_cell_angle_gamma    90.0055

_symmetry_Int_Tables_number  12
_chemical_formula_structural  CuAgO2
_chemical_formula_sum  Cu2Ag2O4
_cell_volume  98.79036188567311
_cell_formula_units_Z  2
loop_
  _symmetry_equiv_pos_site_id
 _symmetry_equiv_pos_as_xyz
 1  'x, y, z'
loop_
 _atom_site_type_symbol
 _atom_site_label
 _atom_site_symmetry_multiplicity
 _atom_site_fract_x
 _atom_site_fract_y
 _atom_site_fract_z
 _atom_site_fract_occupancy
 Ag  Ag1  1  0.50000  -0.00000  0.50000  1
 Ag  Ag2  1  0.00000  0.00000  0.00000  1
 Cu  Cu1  1  -0.00000  0.50000  0.50000  1
 Cu  Cu2  1  0.50000  0.50000  0.00000  1
 O  O1  1  -0.00003  0.71006  0.13241  1
 O  O2  1  0.50003  0.28994  0.36760  1
 O  O3  1  0.49997  0.71006  0.63240  1
 O  O4  1  0.00003  0.28994  0.86759  1
