CIF file written using JARVIS-Tools package.
data_Tl3Cd2I7
_symmetry_space_group_name_H-M  'Pbam'
_cell_length_a       4.56096
_cell_length_b       13.6993
_cell_length_c       14.9923
_cell_angle_alpha    90
_cell_angle_beta     90
_cell_angle_gamma    90

_symmetry_Int_Tables_number  55
_chemical_formula_structural  Tl3Cd2I7
_chemical_formula_sum  Tl6Cd4I4
_cell_volume  936.7450904547258
_cell_formula_units_Z  2
loop_
  _symmetry_equiv_pos_site_id
 _symmetry_equiv_pos_as_xyz
 1  'x, y, z'
loop_
 _atom_site_type_symbol
 _atom_site_label
 _atom_site_symmetry_multiplicity
 _atom_site_fract_x
 _atom_site_fract_y
 _atom_site_fract_z
 _atom_site_fract_occupancy
 Cd  Cd1  1  0.50000  0.23029  0.89204  1
 Cd  Cd2  1  0.50000  0.76971  0.10796  1
 Cd  Cd3  1  0.50000  0.26971  0.39204  1
 Cd  Cd4  1  0.50000  0.73029  0.60796  1
 I  I1  1  0.00000  0.34774  0.29981  1
 I  I2  1  0.50000  0.50000  0.50000  1
 I  I3  1  0.50000  0.00000  0.00000  1
 I  I4  1  0.50000  0.70122  0.93155  1
 I  I5  1  0.00000  0.65226  0.70019  1
 I  I6  1  0.50000  0.20122  0.56845  1
 I  I7  1  0.50000  0.79878  0.43155  1
 I  I8  1  0.50000  0.07111  0.31880  1
 I  I9  1  0.00000  0.15226  0.79981  1
 I  I10  1  0.50000  0.29878  0.06845  1
 I  I11  1  0.50000  0.57111  0.18120  1
 I  I12  1  0.50000  0.92889  0.68120  1
 I  I13  1  0.00000  0.84774  0.20019  1
 I  I14  1  0.50000  0.42889  0.81880  1
 Tl  Tl1  1  0.00000  0.11157  0.14285  1
 Tl  Tl2  1  0.00000  0.00000  0.50000  1
 Tl  Tl3  1  0.00000  0.50000  0.00000  1
 Tl  Tl4  1  0.00000  0.61157  0.35715  1
 Tl  Tl5  1  0.00000  0.38843  0.64285  1
 Tl  Tl6  1  0.00000  0.88843  0.85715  1
