CIF file written using JARVIS-Tools package.
data_Ni6OF11
_symmetry_space_group_name_H-M  'C2'
_cell_length_a       7.31323
_cell_length_b       5.58365
_cell_length_c       5.58365
_cell_angle_alpha    71.3523
_cell_angle_beta     72.4646
_cell_angle_gamma    72.4646

_symmetry_Int_Tables_number  5
_chemical_formula_structural  Ni6OF11
_chemical_formula_sum  Ni6OF
_cell_volume  200.6259892061191
_cell_formula_units_Z  1
loop_
  _symmetry_equiv_pos_site_id
 _symmetry_equiv_pos_as_xyz
 1  'x, y, z'
loop_
 _atom_site_type_symbol
 _atom_site_label
 _atom_site_symmetry_multiplicity
 _atom_site_fract_x
 _atom_site_fract_y
 _atom_site_fract_z
 _atom_site_fract_occupancy
 F  F1  1  0.36938  0.43428  0.43642  1
 F  F2  1  0.67012  0.02043  0.63881  1
 F  F3  1  0.66676  0.63280  0.03038  1
 F  F4  1  0.29827  0.89859  0.90011  1
 F  F5  1  0.63062  0.56358  0.56572  1
 F  F6  1  0.32988  0.36119  0.97957  1
 F  F7  1  0.70173  0.09989  0.10141  1
 F  F8  1  0.03663  0.77063  0.76406  1
 F  F9  1  -0.00000  0.70895  0.29105  1
 F  F10  1  0.33324  0.96962  0.36720  1
 F  F11  1  0.96337  0.23594  0.22937  1
 Ni  Ni1  1  0.00000  0.02408  0.97592  1
 Ni  Ni2  1  0.50000  -0.00120  0.00120  1
 Ni  Ni3  1  0.15819  0.33165  0.35254  1
 Ni  Ni4  1  0.66657  0.32857  0.33648  1
 Ni  Ni5  1  0.33343  0.66352  0.67143  1
 Ni  Ni6  1  0.84181  0.64746  0.66835  1
 O  O1  1  -0.00000  0.31001  0.68999  1
