CIF file written using JARVIS-Tools package.
data_Ca5MnSi9Pb9O33
_symmetry_space_group_name_H-M  'P-6'
_cell_length_a       9.8082
_cell_length_b       9.8082
_cell_length_c       10.2073
_cell_angle_alpha    90
_cell_angle_beta     90
_cell_angle_gamma    120

_symmetry_Int_Tables_number  174
_chemical_formula_structural  Ca5MnSi9Pb9O33
_chemical_formula_sum  Ca5MnSi9Pb9O33
_cell_volume  850.3936448286419
_cell_formula_units_Z  1
loop_
  _symmetry_equiv_pos_site_id
 _symmetry_equiv_pos_as_xyz
 1  'x, y, z'
loop_
 _atom_site_type_symbol
 _atom_site_label
 _atom_site_symmetry_multiplicity
 _atom_site_fract_x
 _atom_site_fract_y
 _atom_site_fract_z
 _atom_site_fract_occupancy
 Ca  Ca1  1  0.33333  0.66667  0.66217  1
 Ca  Ca2  1  0.66667  0.33333  0.67635  1
 Ca  Ca3  1  0.33333  0.66667  0.33783  1
 Ca  Ca4  1  0.66667  0.33333  0.32365  1
 Ca  Ca5  1  0.33333  0.66667  0.00000  1
 Mn  Mn1  1  0.66667  0.33333  0.00000  1
 O  O1  1  0.50626  0.83330  0.50000  1
 O  O2  1  0.32705  0.49374  0.50000  1
 O  O3  1  0.46156  0.86821  0.83016  1
 O  O4  1  0.07010  0.30625  0.74617  1
 O  O5  1  0.13179  0.59335  0.16984  1
 O  O6  1  0.16670  0.67295  0.50000  1
 O  O7  1  0.62969  0.70734  0.00000  1
 O  O8  1  0.83555  0.34467  0.85022  1
 O  O9  1  0.51979  0.12103  0.50000  1
 O  O10  1  0.40665  0.53844  0.16984  1
 O  O11  1  0.29266  0.92235  0.00000  1
 O  O12  1  0.69375  0.76385  0.25383  1
 O  O13  1  0.35448  0.26211  0.37409  1
 O  O14  1  0.60124  0.48021  0.50000  1
 O  O15  1  0.07010  0.30625  0.25383  1
 O  O16  1  0.50912  0.16445  0.14978  1
 O  O17  1  0.65533  0.49088  0.85022  1
 O  O18  1  0.50912  0.16445  0.85022  1
 O  O19  1  0.13179  0.59335  0.83016  1
 O  O20  1  0.65533  0.49088  0.14978  1
 O  O21  1  0.23615  0.92990  0.25383  1
 O  O22  1  0.69375  0.76385  0.74617  1
 O  O23  1  0.73789  0.09237  0.62591  1
 O  O24  1  0.07765  0.37031  0.00000  1
 O  O25  1  0.23615  0.92990  0.74617  1
 O  O26  1  0.83555  0.34467  0.14978  1
 O  O27  1  0.90763  0.64552  0.62591  1
 O  O28  1  0.87897  0.39876  0.50000  1
 O  O29  1  0.46156  0.86821  0.16984  1
 O  O30  1  0.73789  0.09237  0.37409  1
 O  O31  1  0.40665  0.53844  0.83016  1
 O  O32  1  0.90763  0.64552  0.37409  1
 O  O33  1  0.35448  0.26211  0.62591  1
 Pb  Pb1  1  0.27039  0.26274  0.82595  1
 Pb  Pb2  1  0.99235  0.72961  0.82595  1
 Pb  Pb3  1  0.75141  0.74654  0.50000  1
 Pb  Pb4  1  0.73726  0.00765  0.17405  1
 Pb  Pb5  1  0.25346  0.00487  0.50000  1
 Pb  Pb6  1  0.99513  0.24859  0.50000  1
 Pb  Pb7  1  0.73726  0.00765  0.82595  1
 Pb  Pb8  1  0.27039  0.26274  0.17405  1
 Pb  Pb9  1  0.99235  0.72961  0.17405  1
 Si  Si1  1  0.59948  0.62003  0.85102  1
 Si  Si2  1  0.37997  0.97945  0.85102  1
 Si  Si3  1  0.97747  0.59310  0.50000  1
 Si  Si4  1  0.02055  0.40052  0.14898  1
 Si  Si5  1  0.59948  0.62003  0.14898  1
 Si  Si6  1  0.40690  0.38437  0.50000  1
 Si  Si7  1  0.37997  0.97945  0.14898  1
 Si  Si8  1  0.02055  0.40052  0.85102  1
 Si  Si9  1  0.61563  0.02253  0.50000  1
