CIF file written using JARVIS-Tools package.
data_CSCl2
_symmetry_space_group_name_H-M  'P2_1/c'
_cell_length_a       5.92036
_cell_length_b       6.36265
_cell_length_c       9.23664
_cell_angle_alpha    98.6948
_cell_angle_beta     90
_cell_angle_gamma    90

_symmetry_Int_Tables_number  14
_chemical_formula_structural  CSCl2
_chemical_formula_sum  C4S4Cl8
_cell_volume  343.93828083407567
_cell_formula_units_Z  4
loop_
  _symmetry_equiv_pos_site_id
 _symmetry_equiv_pos_as_xyz
 1  'x, y, z'
loop_
 _atom_site_type_symbol
 _atom_site_label
 _atom_site_symmetry_multiplicity
 _atom_site_fract_x
 _atom_site_fract_y
 _atom_site_fract_z
 _atom_site_fract_occupancy
 C  C1  1  0.41382  0.67063  0.54996  1
 C  C2  1  0.58618  0.32937  0.45004  1
 C  C3  1  0.91382  0.32937  0.95004  1
 C  C4  1  0.08618  0.67063  0.04996  1
 Cl  Cl1  1  0.94797  0.88442  0.16659  1
 Cl  Cl2  1  0.63001  0.24713  0.97830  1
 Cl  Cl3  1  0.05203  0.11558  0.83341  1
 Cl  Cl4  1  0.13001  0.75287  0.52170  1
 Cl  Cl5  1  0.44797  0.11558  0.33341  1
 Cl  Cl6  1  0.86999  0.24713  0.47830  1
 Cl  Cl7  1  0.36999  0.75287  0.02170  1
 Cl  Cl8  1  0.55203  0.88442  0.66659  1
 S  S1  1  0.56640  0.58256  0.37917  1
 S  S2  1  0.43360  0.41744  0.62083  1
 S  S3  1  0.93360  0.58256  0.87917  1
 S  S4  1  0.06640  0.41744  0.12083  1
