CIF file written using JARVIS-Tools package.
data_Na2SrMgP2O8
_symmetry_space_group_name_H-M  'C2/c'
_cell_length_a       9.07713
_cell_length_b       5.31757
_cell_length_c       13.5266
_cell_angle_alpha    90
_cell_angle_beta     90.0769
_cell_angle_gamma    90

_symmetry_Int_Tables_number  15
_chemical_formula_structural  Na2SrMgP2O8
_chemical_formula_sum  Na8Sr4Mg4P8O32
_cell_volume  652.9045714569077
_cell_formula_units_Z  4
loop_
  _symmetry_equiv_pos_site_id
 _symmetry_equiv_pos_as_xyz
 1  'x, y, z'
loop_
 _atom_site_type_symbol
 _atom_site_label
 _atom_site_symmetry_multiplicity
 _atom_site_fract_x
 _atom_site_fract_y
 _atom_site_fract_z
 _atom_site_fract_occupancy
 Mg  Mg1  1  0.75000  0.25001  -0.00001  1
 Mg  Mg2  1  0.75000  0.24999  0.49999  1
 Mg  Mg3  1  0.25000  0.74999  0.00001  1
 Mg  Mg4  1  0.25000  0.75001  0.50001  1
 Na  Na1  1  0.08237  0.22420  0.91054  1
 Na  Na2  1  0.91763  0.72420  0.58946  1
 Na  Na3  1  0.91763  0.77580  0.08946  1
 Na  Na4  1  0.08237  0.27580  0.41054  1
 Na  Na5  1  0.41767  0.22421  0.58948  1
 Na  Na6  1  0.58233  0.72421  0.91052  1
 Na  Na7  1  0.58233  0.77579  0.41052  1
 Na  Na8  1  0.41767  0.27579  0.08948  1
 O  O1  1  0.14564  0.46372  0.57793  1
 O  O2  1  0.85436  0.96372  0.92207  1
 O  O3  1  0.07406  0.82326  0.40944  1
 O  O4  1  0.42421  0.21600  0.25632  1
 O  O5  1  0.18238  0.50216  0.11019  1
 O  O6  1  0.31763  0.99781  0.88983  1
 O  O7  1  0.68237  0.49781  0.61017  1
 O  O8  1  0.14564  0.03628  0.07793  1
 O  O9  1  0.81762  0.00216  0.38981  1
 O  O10  1  0.07572  0.28397  0.74369  1
 O  O11  1  0.18238  0.99784  0.61019  1
 O  O12  1  0.07572  0.21603  0.24369  1
 O  O13  1  0.92428  0.71603  0.25631  1
 O  O14  1  0.92428  0.78397  0.75631  1
 O  O15  1  0.57407  0.32326  0.40942  1
 O  O16  1  0.31763  0.50219  0.38983  1
 O  O17  1  0.92594  0.32326  0.09056  1
 O  O18  1  0.92594  0.17674  0.59056  1
 O  O19  1  0.07406  0.67674  0.90944  1
 O  O20  1  0.81762  0.49784  0.88981  1
 O  O21  1  0.42593  0.82326  0.09058  1
 O  O22  1  0.42421  0.28400  0.75632  1
 O  O23  1  0.35435  0.46368  0.92209  1
 O  O24  1  0.42593  0.67674  0.59058  1
 O  O25  1  0.64565  0.96368  0.57791  1
 O  O26  1  0.64565  0.53632  0.07791  1
 O  O27  1  0.35435  0.03632  0.42209  1
 O  O28  1  0.68237  0.00219  0.11017  1
 O  O29  1  0.57579  0.78400  0.74368  1
 O  O30  1  0.57579  0.71600  0.24368  1
 O  O31  1  0.57407  0.17674  0.90942  1
 O  O32  1  0.85436  0.53628  0.42207  1
 P  P1  1  0.08240  0.22879  0.63266  1
 P  P2  1  0.91760  0.72879  0.86734  1
 P  P3  1  0.08240  0.27121  0.13266  1
 P  P4  1  0.41758  0.22878  0.86735  1
 P  P5  1  0.58242  0.72878  0.63265  1
 P  P6  1  0.58242  0.77122  0.13265  1
 P  P7  1  0.41758  0.27122  0.36735  1
 P  P8  1  0.91760  0.77121  0.36734  1
 Sr  Sr1  1  0.75003  0.18967  0.74999  1
 Sr  Sr2  1  0.24997  0.68967  0.75001  1
 Sr  Sr3  1  0.24997  0.81033  0.25001  1
 Sr  Sr4  1  0.75003  0.31033  0.24999  1
