CIF file written using JARVIS-Tools package.
data_CaSc2S4
_symmetry_space_group_name_H-M  'Pnma'
_cell_length_a       3.72955
_cell_length_b       11.5174
_cell_length_c       13.4824
_cell_angle_alpha    90
_cell_angle_beta     90
_cell_angle_gamma    90

_symmetry_Int_Tables_number  62
_chemical_formula_structural  CaSc2S4
_chemical_formula_sum  Ca4Sc8S6
_cell_volume  579.132154175074
_cell_formula_units_Z  4
loop_
  _symmetry_equiv_pos_site_id
 _symmetry_equiv_pos_as_xyz
 1  'x, y, z'
loop_
 _atom_site_type_symbol
 _atom_site_label
 _atom_site_symmetry_multiplicity
 _atom_site_fract_x
 _atom_site_fract_y
 _atom_site_fract_z
 _atom_site_fract_occupancy
 Ca  Ca1  1  0.25000  0.73963  0.83273  1
 Ca  Ca2  1  0.75000  0.26037  0.16727  1
 Ca  Ca3  1  0.25000  0.23963  0.66727  1
 Ca  Ca4  1  0.75000  0.76037  0.33273  1
 S  S1  1  0.75000  0.90752  0.92489  1
 S  S2  1  0.25000  0.59248  0.42489  1
 S  S3  1  0.75000  0.40752  0.57511  1
 S  S4  1  0.25000  0.96737  0.71502  1
 S  S5  1  0.75000  0.03263  0.28498  1
 S  S6  1  0.25000  0.46737  0.78498  1
 S  S7  1  0.75000  0.53263  0.21502  1
 S  S8  1  0.25000  0.37366  0.03333  1
 S  S9  1  0.75000  0.62634  0.96667  1
 S  S10  1  0.25000  0.87366  0.46667  1
 S  S11  1  0.75000  0.12634  0.53333  1
 S  S12  1  0.75000  0.70231  0.66917  1
 S  S13  1  0.75000  0.20231  0.83083  1
 S  S14  1  0.25000  0.29769  0.33083  1
 S  S15  1  0.25000  0.09248  0.07511  1
 S  S16  1  0.25000  0.79769  0.16917  1
 Sc  Sc1  1  0.75000  0.94240  0.11182  1
 Sc  Sc2  1  0.25000  0.08570  0.40360  1
 Sc  Sc3  1  0.75000  0.91430  0.59640  1
 Sc  Sc4  1  0.25000  0.58570  0.09640  1
 Sc  Sc5  1  0.75000  0.41430  0.90360  1
 Sc  Sc6  1  0.75000  0.44240  0.38818  1
 Sc  Sc7  1  0.25000  0.55760  0.61182  1
 Sc  Sc8  1  0.25000  0.05760  0.88818  1
