CIF file written using JARVIS-Tools package.
data_Mn6O7F5
_symmetry_space_group_name_H-M  'C2'
_cell_length_a       7.41439
_cell_length_b       5.5412
_cell_length_c       5.5412
_cell_angle_alpha    69.396
_cell_angle_beta     69.3735
_cell_angle_gamma    69.3735

_symmetry_Int_Tables_number  5
_chemical_formula_structural  Mn6O7F5
_chemical_formula_sum  Mn6O7F5
_cell_volume  192.5441652796095
_cell_formula_units_Z  1
loop_
  _symmetry_equiv_pos_site_id
 _symmetry_equiv_pos_as_xyz
 1  'x, y, z'
loop_
 _atom_site_type_symbol
 _atom_site_label
 _atom_site_symmetry_multiplicity
 _atom_site_fract_x
 _atom_site_fract_y
 _atom_site_fract_z
 _atom_site_fract_occupancy
 F  F1  1  0.00000  0.70265  0.29735  1
 F  F2  1  0.61996  0.57997  0.58264  1
 F  F3  1  0.29612  0.89586  0.90388  1
 F  F4  1  0.38004  0.41736  0.42003  1
 F  F5  1  0.70388  0.09612  0.10414  1
 Mn  Mn1  1  0.83934  0.68165  0.69594  1
 Mn  Mn2  1  0.50000  0.99706  0.00294  1
 Mn  Mn3  1  0.16066  0.30406  0.31835  1
 Mn  Mn4  1  0.31730  0.65920  0.66869  1
 Mn  Mn5  1  0.68270  0.33131  0.34080  1
 Mn  Mn6  1  0.00000  0.02457  0.97543  1
 O  O1  1  0.00000  0.32038  0.67962  1
 O  O2  1  0.66875  0.63846  0.04070  1
 O  O3  1  0.96292  0.22692  0.22040  1
 O  O4  1  0.33035  0.35267  0.96716  1
 O  O5  1  0.66965  0.03284  0.64733  1
 O  O6  1  0.03708  0.77960  0.77308  1
 O  O7  1  0.33125  0.95930  0.36154  1
