CIF file written using JARVIS-Tools package.
data_Cu2SO5
_symmetry_space_group_name_H-M  'C2/m'
_cell_length_a       5.66995
_cell_length_b       5.66995
_cell_length_c       7.2572
_cell_angle_alpha    100.313
_cell_angle_beta     108.453
_cell_angle_gamma    111.453

_symmetry_Int_Tables_number  12
_chemical_formula_structural  Cu2SO5
_chemical_formula_sum  Cu4S2O0
_cell_volume  194.1576648762994
_cell_formula_units_Z  2
loop_
  _symmetry_equiv_pos_site_id
 _symmetry_equiv_pos_as_xyz
 1  'x, y, z'
loop_
 _atom_site_type_symbol
 _atom_site_label
 _atom_site_symmetry_multiplicity
 _atom_site_fract_x
 _atom_site_fract_y
 _atom_site_fract_z
 _atom_site_fract_occupancy
 Cu  Cu1  1  0.14392  0.07865  0.22257  1
 Cu  Cu2  1  0.85608  0.92135  0.77743  1
 Cu  Cu3  1  0.50000  0.00000  0.00000  1
 Cu  Cu4  1  0.00000  0.50000  0.00000  1
 O  O1  1  0.42029  0.71191  0.74909  1
 O  O2  1  0.96281  0.67119  0.25091  1
 O  O3  1  0.57971  0.28809  0.25091  1
 O  O4  1  0.03719  0.32881  0.74909  1
 O  O5  1  0.86855  0.14888  0.01742  1
 O  O6  1  0.13145  0.85112  0.98258  1
 O  O7  1  0.47289  0.30995  0.78284  1
 O  O8  1  0.52711  0.69005  0.21716  1
 O  O9  1  0.84455  0.69555  0.54010  1
 O  O10  1  0.15545  0.30445  0.45990  1
 S  S1  1  0.72207  0.59143  0.31349  1
 S  S2  1  0.27793  0.40857  0.68651  1
