CIF file written using JARVIS-Tools package.
data_TeS4N4Cl4
_symmetry_space_group_name_H-M  'Cc'
_cell_length_a       7.11968
_cell_length_b       8.84283
_cell_length_c       8.84284
_cell_angle_alpha    84.7566
_cell_angle_beta     80.9865
_cell_angle_gamma    80.9864

_symmetry_Int_Tables_number  9
_chemical_formula_structural  TeS4N4Cl4
_chemical_formula_sum  Te2S8N8Cl8
_cell_volume  541.7869137737389
_cell_formula_units_Z  2
loop_
  _symmetry_equiv_pos_site_id
 _symmetry_equiv_pos_as_xyz
 1  'x, y, z'
loop_
 _atom_site_type_symbol
 _atom_site_label
 _atom_site_symmetry_multiplicity
 _atom_site_fract_x
 _atom_site_fract_y
 _atom_site_fract_z
 _atom_site_fract_occupancy
 Cl  Cl1  1  0.67261  0.96454  0.95424  1
 Cl  Cl2  1  0.42841  0.69746  0.22343  1
 Cl  Cl3  1  0.04958  0.95129  0.41749  1
 Cl  Cl4  1  0.80850  0.67439  0.69773  1
 Cl  Cl5  1  0.92841  0.22343  0.69746  1
 Cl  Cl6  1  0.17261  0.95424  0.96454  1
 Cl  Cl7  1  0.30850  0.69773  0.67439  1
 Cl  Cl8  1  0.54958  0.41749  0.95129  1
 N  N1  1  0.74546  0.33983  0.29975  1
 N  N2  1  0.50923  0.04119  0.32921  1
 N  N3  1  0.85100  0.62631  0.04043  1
 N  N4  1  0.24546  0.29975  0.33983  1
 N  N5  1  0.85194  0.61368  0.34477  1
 N  N6  1  0.35194  0.34477  0.61368  1
 N  N7  1  0.00923  0.32921  0.04119  1
 N  N8  1  0.35100  0.04043  0.62631  1
 S  S1  1  0.52906  0.96339  0.49634  1
 S  S2  1  0.76122  0.46777  0.41186  1
 S  S3  1  0.26122  0.41186  0.46777  1
 S  S4  1  0.38219  0.17030  0.24291  1
 S  S5  1  0.41073  0.18667  0.70754  1
 S  S6  1  0.91073  0.70754  0.18667  1
 S  S7  1  0.88219  0.24291  0.17030  1
 S  S8  1  0.02906  0.49634  0.96339  1
 Te  Te1  1  0.07721  0.94912  0.69755  1
 Te  Te2  1  0.57721  0.69755  0.94912  1
