CIF file written using JARVIS-Tools package.
data_SmB3O6
_symmetry_space_group_name_H-M  'C2/c'
_cell_length_a       6.28448
_cell_length_b       6.32286
_cell_length_c       6.32285
_cell_angle_alpha    79.4004
_cell_angle_beta     63.0598
_cell_angle_gamma    63.0599

_symmetry_Int_Tables_number  15
_chemical_formula_structural  SmB3O6
_chemical_formula_sum  Sm2B6O2
_cell_volume  199.60090550782633
_cell_formula_units_Z  2
loop_
  _symmetry_equiv_pos_site_id
 _symmetry_equiv_pos_as_xyz
 1  'x, y, z'
loop_
 _atom_site_type_symbol
 _atom_site_label
 _atom_site_symmetry_multiplicity
 _atom_site_fract_x
 _atom_site_fract_y
 _atom_site_fract_z
 _atom_site_fract_occupancy
 B  B1  1  0.41322  0.78883  0.15940  1
 B  B2  1  0.08678  0.34060  0.71117  1
 B  B3  1  0.91322  0.65940  0.28883  1
 B  B4  1  0.75000  0.78007  0.71993  1
 B  B5  1  0.58678  0.21117  0.84060  1
 B  B6  1  0.25000  0.21993  0.28007  1
 O  O1  1  0.99514  0.58638  0.71056  1
 O  O2  1  0.49514  0.21056  0.08638  1
 O  O3  1  0.20864  0.00386  0.28540  1
 O  O4  1  0.29136  0.21460  0.49614  1
 O  O5  1  0.99634  0.79063  0.10767  1
 O  O6  1  0.50366  0.39233  0.70937  1
 O  O7  1  0.00486  0.41362  0.28944  1
 O  O8  1  0.49634  0.60767  0.29063  1
 O  O9  1  0.50486  0.78944  0.91362  1
 O  O10  1  0.79136  0.99614  0.71460  1
 O  O11  1  0.70864  0.78540  0.50386  1
 O  O12  1  0.00366  0.20937  0.89233  1
 Sm  Sm1  1  0.75000  0.19860  0.30140  1
 Sm  Sm2  1  0.25000  0.80140  0.69860  1
