CIF file written using JARVIS-Tools package.
data_ErZnPd
_symmetry_space_group_name_H-M  'P-62m'
_cell_length_a       3.78489
_cell_length_b       7.26879
_cell_length_c       7.26882
_cell_angle_alpha    120
_cell_angle_beta     90
_cell_angle_gamma    90

_symmetry_Int_Tables_number  189
_chemical_formula_structural  ErZnPd
_chemical_formula_sum  Er3Zn3Pd3
_cell_volume  173.18536257765157
_cell_formula_units_Z  3
loop_
  _symmetry_equiv_pos_site_id
 _symmetry_equiv_pos_as_xyz
 1  'x, y, z'
loop_
 _atom_site_type_symbol
 _atom_site_label
 _atom_site_symmetry_multiplicity
 _atom_site_fract_x
 _atom_site_fract_y
 _atom_site_fract_z
 _atom_site_fract_occupancy
 Er  Er1  1  0.00000  0.40254  -0.00000  1
 Er  Er2  1  0.00000  0.59744  0.59745  1
 Er  Er3  1  0.00000  0.99999  0.40255  1
 Pd  Pd1  1  0.00000  0.99999  0.00000  1
 Pd  Pd2  1  0.50000  0.33332  0.66667  1
 Pd  Pd3  1  0.50000  0.66666  0.33333  1
 Zn  Zn1  1  0.50000  0.74379  0.00000  1
 Zn  Zn2  1  0.50000  0.25619  0.25619  1
 Zn  Zn3  1  0.50000  0.99999  0.74381  1
