CIF file written using JARVIS-Tools package.
data_Ti4MnBi2
_symmetry_space_group_name_H-M  'I4/mcm'
_cell_length_a       5.0171
_cell_length_b       7.85246
_cell_length_c       7.85247
_cell_angle_alpha    84.1425
_cell_angle_beta     71.3697
_cell_angle_gamma    71.3697

_symmetry_Int_Tables_number  140
_chemical_formula_structural  Ti4MnBi2
_chemical_formula_sum  Ti8Mn2Bi4
_cell_volume  277.7884332121325
_cell_formula_units_Z  2
loop_
  _symmetry_equiv_pos_site_id
 _symmetry_equiv_pos_as_xyz
 1  'x, y, z'
loop_
 _atom_site_type_symbol
 _atom_site_label
 _atom_site_symmetry_multiplicity
 _atom_site_fract_x
 _atom_site_fract_y
 _atom_site_fract_z
 _atom_site_fract_occupancy
 Bi  Bi1  1  0.13960  0.50000  0.22081  1
 Bi  Bi2  1  0.36040  0.77919  0.50000  1
 Bi  Bi3  1  0.86040  0.50000  0.77919  1
 Bi  Bi4  1  0.63960  0.22081  0.50000  1
 Mn  Mn1  1  0.25000  0.00000  0.00000  1
 Mn  Mn2  1  0.75000  0.00000  0.00000  1
 Ti  Ti1  1  0.69135  0.88807  0.72924  1
 Ti  Ti2  1  0.30865  0.11193  0.27076  1
 Ti  Ti3  1  0.57941  0.72924  0.11193  1
 Ti  Ti4  1  0.07941  0.11193  0.72924  1
 Ti  Ti5  1  0.80865  0.27076  0.11193  1
 Ti  Ti6  1  0.42059  0.27076  0.88807  1
 Ti  Ti7  1  0.92059  0.88807  0.27076  1
 Ti  Ti8  1  0.19135  0.72924  0.88807  1
