CIF file written using JARVIS-Tools package.
data_CoH4Br2O2
_symmetry_space_group_name_H-M  'C2/m'
_cell_length_a       3.7579
_cell_length_b       5.71659
_cell_length_c       5.717
_cell_angle_alpha    97.3098
_cell_angle_beta     95.067
_cell_angle_gamma    95.0608

_symmetry_Int_Tables_number  12
_chemical_formula_structural  CoH4Br2O2
_chemical_formula_sum  CoH4Br2O2
_cell_volume  120.72425010266076
_cell_formula_units_Z  1
loop_
  _symmetry_equiv_pos_site_id
 _symmetry_equiv_pos_as_xyz
 1  'x, y, z'
loop_
 _atom_site_type_symbol
 _atom_site_label
 _atom_site_symmetry_multiplicity
 _atom_site_fract_x
 _atom_site_fract_y
 _atom_site_fract_z
 _atom_site_fract_occupancy
 Br  Br1  1  0.43790  0.75629  0.75625  1
 Br  Br2  1  0.56210  0.24371  0.24375  1
 Co  Co1  1  -0.00000  0.00000  -0.00000  1
 H  H1  1  0.84586  0.21496  0.61487  1
 H  H2  1  0.15412  0.38519  0.78510  1
 H  H3  1  0.84588  0.61481  0.21490  1
 H  H4  1  0.15414  0.78504  0.38513  1
 O  O1  1  0.00005  0.76705  0.23287  1
 O  O2  1  -0.00005  0.23295  0.76713  1
