CIF file written using JARVIS-Tools package.
data_HfNCl
_symmetry_space_group_name_H-M  'R-3m'
_cell_length_a       9.4629
_cell_length_b       9.4629
_cell_length_c       9.4629
_cell_angle_alpha    21.8054
_cell_angle_beta     21.8054
_cell_angle_gamma    21.8054

_symmetry_Int_Tables_number  166
_chemical_formula_structural  HfNCl
_chemical_formula_sum  Hf2N2Cl2
_cell_volume  102.47732891301982
_cell_formula_units_Z  2
loop_
  _symmetry_equiv_pos_site_id
 _symmetry_equiv_pos_as_xyz
 1  'x, y, z'
loop_
 _atom_site_type_symbol
 _atom_site_label
 _atom_site_symmetry_multiplicity
 _atom_site_fract_x
 _atom_site_fract_y
 _atom_site_fract_z
 _atom_site_fract_occupancy
 Cl  Cl1  1  0.38761  0.38761  0.38761  1
 Cl  Cl2  1  0.61239  0.61239  0.61239  1
 Hf  Hf1  1  0.11951  0.11951  0.11951  1
 Hf  Hf2  1  0.88049  0.88049  0.88049  1
 N  N1  1  0.19762  0.19762  0.19762  1
 N  N2  1  0.80238  0.80238  0.80238  1
