CIF file written using JARVIS-Tools package.
data_Sr3Mg
_symmetry_space_group_name_H-M  'Immm'
_cell_length_a       4.3402
_cell_length_b       12.8803
_cell_length_c       6.36683
_cell_angle_alpha    90
_cell_angle_beta     90
_cell_angle_gamma    90

_symmetry_Int_Tables_number  71
_chemical_formula_structural  Sr3Mg
_chemical_formula_sum  Sr6Mg2
_cell_volume  355.92641041175534
_cell_formula_units_Z  2
loop_
  _symmetry_equiv_pos_site_id
 _symmetry_equiv_pos_as_xyz
 1  'x, y, z'
loop_
 _atom_site_type_symbol
 _atom_site_label
 _atom_site_symmetry_multiplicity
 _atom_site_fract_x
 _atom_site_fract_y
 _atom_site_fract_z
 _atom_site_fract_occupancy
 Mg  Mg1  1  0.00000  0.00000  0.41669  1
 Mg  Mg2  1  0.50000  0.50000  0.91669  1
 Sr  Sr1  1  0.50000  0.00000  0.91667  1
 Sr  Sr2  1  0.00000  0.28244  0.91665  1
 Sr  Sr3  1  0.50000  0.21756  0.41665  1
 Sr  Sr4  1  0.00000  0.50000  0.41667  1
 Sr  Sr5  1  0.50000  0.78244  0.41665  1
 Sr  Sr6  1  0.00000  0.71756  0.91665  1
