CIF file written using JARVIS-Tools package.
data_UWC2
_symmetry_space_group_name_H-M  'Pnma'
_cell_length_a       3.2452
_cell_length_b       5.65994
_cell_length_c       11.067
_cell_angle_alpha    90
_cell_angle_beta     90
_cell_angle_gamma    90

_symmetry_Int_Tables_number  62
_chemical_formula_structural  UWC2
_chemical_formula_sum  U4W4C8
_cell_volume  203.27544305214687
_cell_formula_units_Z  4
loop_
  _symmetry_equiv_pos_site_id
 _symmetry_equiv_pos_as_xyz
 1  'x, y, z'
loop_
 _atom_site_type_symbol
 _atom_site_label
 _atom_site_symmetry_multiplicity
 _atom_site_fract_x
 _atom_site_fract_y
 _atom_site_fract_z
 _atom_site_fract_occupancy
 C  C1  1  0.25000  0.16296  0.75521  1
 C  C2  1  0.75000  0.75150  0.50763  1
 C  C3  1  0.25000  0.74850  0.00763  1
 C  C4  1  0.75000  0.25150  0.99236  1
 C  C5  1  0.75000  0.83704  0.24479  1
 C  C6  1  0.75000  0.33704  0.25521  1
 C  C7  1  0.25000  0.66296  0.74479  1
 C  C8  1  0.25000  0.24850  0.49236  1
 U  U1  1  0.25000  0.58012  0.35848  1
 U  U2  1  0.75000  0.91988  0.85848  1
 U  U3  1  0.25000  0.08011  0.14152  1
 U  U4  1  0.75000  0.41988  0.64152  1
 W  W1  1  0.25000  0.42064  0.89747  1
 W  W2  1  0.25000  0.92064  0.60253  1
 W  W3  1  0.75000  0.07936  0.39747  1
 W  W4  1  0.75000  0.57936  0.10253  1
