CIF file written using JARVIS-Tools package.
data_MnFeBiO5
_symmetry_space_group_name_H-M  'Pbam'
_cell_length_a       5.70579
_cell_length_b       7.49006
_cell_length_c       8.59395
_cell_angle_alpha    90
_cell_angle_beta     90
_cell_angle_gamma    90

_symmetry_Int_Tables_number  55
_chemical_formula_structural  MnFeBiO5
_chemical_formula_sum  Mn4Fe4Bi4O20
_cell_volume  367.27703033121117
_cell_formula_units_Z  4
loop_
  _symmetry_equiv_pos_site_id
 _symmetry_equiv_pos_as_xyz
 1  'x, y, z'
loop_
 _atom_site_type_symbol
 _atom_site_label
 _atom_site_symmetry_multiplicity
 _atom_site_fract_x
 _atom_site_fract_y
 _atom_site_fract_z
 _atom_site_fract_occupancy
 Bi  Bi1  1  0.00000  0.84771  0.83042  1
 Bi  Bi2  1  0.00000  0.34771  0.66958  1
 Bi  Bi3  1  0.00000  0.15229  0.16958  1
 Bi  Bi4  1  0.00000  0.65229  0.33042  1
 Fe  Fe1  1  0.73543  0.50000  0.00000  1
 Fe  Fe2  1  0.26457  0.50000  0.00000  1
 Fe  Fe3  1  0.73543  0.00000  0.50000  1
 Fe  Fe4  1  0.26457  0.00000  0.50000  1
 Mn  Mn1  1  0.50000  0.90248  0.14829  1
 Mn  Mn2  1  0.50000  0.40248  0.35171  1
 Mn  Mn3  1  0.50000  0.59752  0.64829  1
 Mn  Mn4  1  0.50000  0.09752  0.85171  1
 O  O1  1  0.28129  0.50000  0.50000  1
 O  O2  1  0.50000  0.65578  0.06873  1
 O  O3  1  0.00000  0.15336  0.44747  1
 O  O4  1  0.25622  0.89444  0.29617  1
 O  O5  1  0.25622  0.39444  0.20383  1
 O  O6  1  0.74378  0.60556  0.79617  1
 O  O7  1  0.74378  0.10556  0.70383  1
 O  O8  1  0.50000  0.34422  0.93127  1
 O  O9  1  0.71871  0.00000  0.00000  1
 O  O10  1  0.50000  0.84422  0.56873  1
 O  O11  1  0.74378  0.39444  0.20383  1
 O  O12  1  0.74378  0.89444  0.29617  1
 O  O13  1  0.25622  0.60556  0.79617  1
 O  O14  1  0.28129  0.00000  0.00000  1
 O  O15  1  0.00000  0.84664  0.55253  1
 O  O16  1  0.50000  0.15578  0.43127  1
 O  O17  1  0.71871  0.50000  0.50000  1
 O  O18  1  0.00000  0.65336  0.05253  1
 O  O19  1  0.25622  0.10556  0.70383  1
 O  O20  1  0.00000  0.34664  0.94747  1
