CIF file written using JARVIS-Tools package.
data_PrCr2B6
_symmetry_space_group_name_H-M  'Immm'
_cell_length_a       3.12125
_cell_length_b       5.54933
_cell_length_c       5.54933
_cell_angle_alpha    73.2067
_cell_angle_beta     73.6666
_cell_angle_gamma    73.6666

_symmetry_Int_Tables_number  71
_chemical_formula_structural  PrCr2B6
_chemical_formula_sum  PrCr2B6
_cell_volume  86.18883089071866
_cell_formula_units_Z  1
loop_
  _symmetry_equiv_pos_site_id
 _symmetry_equiv_pos_as_xyz
 1  'x, y, z'
loop_
 _atom_site_type_symbol
 _atom_site_label
 _atom_site_symmetry_multiplicity
 _atom_site_fract_x
 _atom_site_fract_y
 _atom_site_fract_z
 _atom_site_fract_occupancy
 B  B1  1  0.50000  0.13690  0.86310  1
 B  B2  1  0.50000  0.86310  0.13690  1
 B  B3  1  0.69792  0.03660  0.56757  1
 B  B4  1  0.30208  0.43243  0.96340  1
 B  B5  1  0.69792  0.56757  0.03660  1
 B  B6  1  0.30208  0.96340  0.43243  1
 Cr  Cr1  1  0.84546  0.15454  0.15454  1
 Cr  Cr2  1  0.15454  0.84546  0.84546  1
 Pr  Pr1  1  0.00000  0.50000  0.50000  1
