CIF file written using JARVIS-Tools package.
data_BeNbCd
_symmetry_space_group_name_H-M  'I4mm'
_cell_length_a       5.94848
_cell_length_b       5.94848
_cell_length_c       5.94848
_cell_angle_alpha    151.77
_cell_angle_beta     151.77
_cell_angle_gamma    40.3493

_symmetry_Int_Tables_number  107
_chemical_formula_structural  BeNbCd
_chemical_formula_sum  BeNbCd
_cell_volume  46.99955291743972
_cell_formula_units_Z  1
loop_
  _symmetry_equiv_pos_site_id
 _symmetry_equiv_pos_as_xyz
 1  'x, y, z'
loop_
 _atom_site_type_symbol
 _atom_site_label
 _atom_site_symmetry_multiplicity
 _atom_site_fract_x
 _atom_site_fract_y
 _atom_site_fract_z
 _atom_site_fract_occupancy
 Be  Be1  1  0.00129  0.00129  0.00000  1
 Cd  Cd1  1  0.35129  0.35129  -0.00000  1
 Nb  Nb1  1  0.64741  0.64741  -0.00000  1
