CIF file written using JARVIS-Tools package.
data_PH3O4
_symmetry_space_group_name_H-M  'P2_1/c'
_cell_length_a       5.69994
_cell_length_b       4.76263
_cell_length_c       11.3312
_cell_angle_alpha    90
_cell_angle_beta     94.6274
_cell_angle_gamma    90

_symmetry_Int_Tables_number  14
_chemical_formula_structural  PH3O4
_chemical_formula_sum  P4H2O6
_cell_volume  306.6025897215485
_cell_formula_units_Z  4
loop_
  _symmetry_equiv_pos_site_id
 _symmetry_equiv_pos_as_xyz
 1  'x, y, z'
loop_
 _atom_site_type_symbol
 _atom_site_label
 _atom_site_symmetry_multiplicity
 _atom_site_fract_x
 _atom_site_fract_y
 _atom_site_fract_z
 _atom_site_fract_occupancy
 H  H1  1  0.14347  0.51319  0.82740  1
 H  H2  1  0.27551  0.56629  0.53937  1
 H  H3  1  0.72449  0.06629  0.96063  1
 H  H4  1  0.72449  0.43371  0.46063  1
 H  H5  1  0.27551  0.93371  0.03937  1
 H  H6  1  0.47489  0.64766  0.17582  1
 H  H7  1  0.14347  0.98681  0.32740  1
 H  H8  1  0.85653  0.01319  0.67260  1
 H  H9  1  0.47489  0.85234  0.67582  1
 H  H10  1  0.52511  0.35234  0.82418  1
 H  H11  1  0.52511  0.14766  0.32418  1
 H  H12  1  0.85653  0.48681  0.17260  1
 O  O1  1  0.93560  0.34715  0.11930  1
 O  O2  1  0.72191  0.85933  0.97170  1
 O  O3  1  0.27809  0.35933  0.52830  1
 O  O4  1  0.68083  0.11331  0.37530  1
 O  O5  1  0.72191  0.64067  0.47170  1
 O  O6  1  0.27809  0.14067  0.02830  1
 O  O7  1  0.06440  0.65285  0.88070  1
 O  O8  1  0.93560  0.15285  0.61930  1
 O  O9  1  0.28911  0.31754  0.75538  1
 O  O10  1  0.31917  0.61331  0.12470  1
 O  O11  1  0.71089  0.68246  0.24462  1
 O  O12  1  0.28911  0.18246  0.25538  1
 O  O13  1  0.31917  0.88669  0.62470  1
 O  O14  1  0.68083  0.38669  0.87530  1
 O  O15  1  0.06440  0.84715  0.38070  1
 O  O16  1  0.71089  0.81754  0.74462  1
 P  P1  1  0.20766  0.31488  0.13749  1
 P  P2  1  0.79234  0.81488  0.36251  1
 P  P3  1  0.79234  0.68512  0.86251  1
 P  P4  1  0.20766  0.18512  0.63749  1
