CIF file written using JARVIS-Tools package.
data_MgGaAu
_symmetry_space_group_name_H-M  'P-62m'
_cell_length_a       3.48242
_cell_length_b       7.37038
_cell_length_c       7.37063
_cell_angle_alpha    119.999
_cell_angle_beta     90
_cell_angle_gamma    90

_symmetry_Int_Tables_number  189
_chemical_formula_structural  MgGaAu
_chemical_formula_sum  Mg3Ga3Au3
_cell_volume  163.83635650116213
_cell_formula_units_Z  3
loop_
  _symmetry_equiv_pos_site_id
 _symmetry_equiv_pos_as_xyz
 1  'x, y, z'
loop_
 _atom_site_type_symbol
 _atom_site_label
 _atom_site_symmetry_multiplicity
 _atom_site_fract_x
 _atom_site_fract_y
 _atom_site_fract_z
 _atom_site_fract_occupancy
 Au  Au1  1  0.00000  -0.00001  -0.00000  1
 Au  Au2  1  0.50000  0.33331  0.66667  1
 Au  Au3  1  0.50000  0.66665  0.33333  1
 Ga  Ga1  1  0.50000  0.27963  -0.00000  1
 Ga  Ga2  1  0.50000  0.72035  0.72036  1
 Ga  Ga3  1  0.50000  -0.00001  0.27964  1
 Mg  Mg1  1  0.00000  0.61486  0.00000  1
 Mg  Mg2  1  0.00000  0.38512  0.38513  1
 Mg  Mg3  1  0.00000  -0.00001  0.61487  1
