CIF file written using JARVIS-Tools package.
data_Nd3S3N
_symmetry_space_group_name_H-M  'Pnma'
_cell_length_a       4.02921
_cell_length_b       12.2215
_cell_length_c       13.1045
_cell_angle_alpha    90
_cell_angle_beta     90
_cell_angle_gamma    90

_symmetry_Int_Tables_number  62
_chemical_formula_structural  Nd3S3N
_chemical_formula_sum  Nd2S2N4
_cell_volume  645.3064482997413
_cell_formula_units_Z  4
loop_
  _symmetry_equiv_pos_site_id
 _symmetry_equiv_pos_as_xyz
 1  'x, y, z'
loop_
 _atom_site_type_symbol
 _atom_site_label
 _atom_site_symmetry_multiplicity
 _atom_site_fract_x
 _atom_site_fract_y
 _atom_site_fract_z
 _atom_site_fract_occupancy
 N  N1  1  0.75000  0.95395  0.20199  1
 N  N2  1  0.25000  0.04605  0.79801  1
 N  N3  1  0.75000  0.45395  0.29801  1
 N  N4  1  0.25000  0.54605  0.70199  1
 Nd  Nd1  1  0.25000  0.04075  0.14843  1
 Nd  Nd2  1  0.75000  0.45925  0.64843  1
 Nd  Nd3  1  0.25000  0.54075  0.35157  1
 Nd  Nd4  1  0.25000  0.72287  0.63364  1
 Nd  Nd5  1  0.75000  0.27713  0.36636  1
 Nd  Nd6  1  0.75000  0.91675  0.37298  1
 Nd  Nd7  1  0.75000  0.77713  0.13364  1
 Nd  Nd8  1  0.25000  0.22287  0.86636  1
 Nd  Nd9  1  0.75000  0.41675  0.12702  1
 Nd  Nd10  1  0.25000  0.58325  0.87298  1
 Nd  Nd11  1  0.75000  0.95925  0.85157  1
 Nd  Nd12  1  0.25000  0.08325  0.62702  1
 S  S1  1  0.75000  0.63964  0.50298  1
 S  S2  1  0.75000  0.23077  0.69722  1
 S  S3  1  0.75000  0.73077  0.80278  1
 S  S4  1  0.75000  0.91758  0.60654  1
 S  S5  1  0.25000  0.26923  0.19722  1
 S  S6  1  0.25000  0.86036  0.00298  1
 S  S7  1  0.75000  0.41758  0.89346  1
 S  S8  1  0.25000  0.36036  0.49702  1
 S  S9  1  0.25000  0.76923  0.30278  1
 S  S10  1  0.25000  0.58242  0.10654  1
 S  S11  1  0.75000  0.13964  0.99702  1
 S  S12  1  0.25000  0.08242  0.39346  1
