CIF file written using JARVIS-Tools package.
data_LiMn2B2O6
_symmetry_space_group_name_H-M  'P1'
_cell_length_a       5.14377
_cell_length_b       5.22613
_cell_length_c       5.75439
_cell_angle_alpha    91.3966
_cell_angle_beta     113.54
_cell_angle_gamma    119.403

_symmetry_Int_Tables_number  1
_chemical_formula_structural  LiMn2B2O6
_chemical_formula_sum  LiMn2B2O6
_cell_volume  118.74811449826615
_cell_formula_units_Z  1
loop_
  _symmetry_equiv_pos_site_id
 _symmetry_equiv_pos_as_xyz
 1  'x, y, z'
loop_
 _atom_site_type_symbol
 _atom_site_label
 _atom_site_symmetry_multiplicity
 _atom_site_fract_x
 _atom_site_fract_y
 _atom_site_fract_z
 _atom_site_fract_occupancy
 B  B1  1  0.18225  0.90785  0.25666  1
 B  B2  1  0.81806  0.08778  0.74630  1
 Li  Li1  1  0.44938  0.39731  0.66641  1
 Mn  Mn1  1  0.83052  0.22443  0.24378  1
 Mn  Mn2  1  0.14691  0.76425  0.74193  1
 O  O1  1  0.02560  0.68088  0.36548  1
 O  O2  1  0.33669  0.85629  0.12342  1
 O  O3  1  0.21363  0.17980  0.29850  1
 O  O4  1  0.78249  0.81023  0.72443  1
 O  O5  1  0.62076  0.13820  0.83035  1
 O  O6  1  0.02846  0.31897  0.67127  1
