CIF file written using JARVIS-Tools package.
data_Hg2ClO
_symmetry_space_group_name_H-M  'P-1'
_cell_length_a       7.51516
_cell_length_b       6.61686
_cell_length_c       9.22548
_cell_angle_alpha    109.182
_cell_angle_beta     76.1379
_cell_angle_gamma    121.103

_symmetry_Int_Tables_number  2
_chemical_formula_structural  Hg2ClO
_chemical_formula_sum  Hg8Cl4O4
_cell_volume  369.60859021040295
_cell_formula_units_Z  4
loop_
  _symmetry_equiv_pos_site_id
 _symmetry_equiv_pos_as_xyz
 1  'x, y, z'
loop_
 _atom_site_type_symbol
 _atom_site_label
 _atom_site_symmetry_multiplicity
 _atom_site_fract_x
 _atom_site_fract_y
 _atom_site_fract_z
 _atom_site_fract_occupancy
 Cl  Cl1  1  0.69410  0.59003  0.33002  1
 Cl  Cl2  1  -0.03085  0.66320  0.88416  1
 Cl  Cl3  1  0.03051  0.33696  0.11344  1
 Cl  Cl4  1  0.30555  0.41012  0.66759  1
 Hg  Hg1  1  0.81209  0.08908  0.88978  1
 Hg  Hg2  1  0.24965  0.15023  0.39629  1
 Hg  Hg3  1  0.37195  -0.00036  0.70741  1
 Hg  Hg4  1  0.62773  0.00054  0.29021  1
 Hg  Hg5  1  -0.00016  0.50009  0.49880  1
 Hg  Hg6  1  0.18755  0.91106  0.10783  1
 Hg  Hg7  1  0.75001  0.84992  0.60132  1
 Hg  Hg8  1  0.49983  0.50008  0.99881  1
 O  O1  1  0.74009  0.17284  0.50410  1
 O  O2  1  0.25960  0.82734  0.49352  1
 O  O3  1  0.47594  0.15938  0.92470  1
 O  O4  1  0.52372  0.84078  0.07291  1
