CIF file written using JARVIS-Tools package.
data_InH8C4NO10
_symmetry_space_group_name_H-M  'P6_222'
_cell_length_a       9.02438
_cell_length_b       9.02438
_cell_length_c       11.4988
_cell_angle_alpha    90
_cell_angle_beta     90
_cell_angle_gamma    120

_symmetry_Int_Tables_number  180
_chemical_formula_structural  InH8C4NO10
_chemical_formula_sum  In3H24C2N3O30
_cell_volume  810.9973107725002
_cell_formula_units_Z  3
loop_
  _symmetry_equiv_pos_site_id
 _symmetry_equiv_pos_as_xyz
 1  'x, y, z'
loop_
 _atom_site_type_symbol
 _atom_site_label
 _atom_site_symmetry_multiplicity
 _atom_site_fract_x
 _atom_site_fract_y
 _atom_site_fract_z
 _atom_site_fract_occupancy
 C  C1  1  0.37887  0.68944  0.16667  1
 C  C2  1  0.78868  0.21132  0.83333  1
 C  C3  1  0.68944  0.31056  0.83333  1
 C  C4  1  0.31056  0.68944  0.83333  1
 C  C5  1  0.62113  0.31056  0.16667  1
 C  C6  1  0.42264  0.21132  0.16667  1
 C  C7  1  0.68944  0.37887  0.50000  1
 C  C8  1  0.57736  0.78868  0.16667  1
 C  C9  1  0.78868  0.57736  0.50000  1
 C  C10  1  0.31056  0.62113  0.50000  1
 C  C11  1  0.21132  0.42264  0.50000  1
 C  C12  1  0.21132  0.78868  0.83333  1
 H  H1  1  0.35906  0.10020  0.48759  1
 H  H2  1  0.64094  0.89980  0.48759  1
 H  H3  1  0.10372  0.02567  0.38576  1
 H  H4  1  0.89628  0.97433  0.38576  1
 H  H5  1  0.07804  0.97433  0.61424  1
 H  H6  1  0.10372  0.07804  0.94757  1
 H  H7  1  0.89980  0.64094  0.17907  1
 H  H8  1  0.89628  0.92196  0.94757  1
 H  H9  1  0.25886  0.89980  0.51241  1
 H  H10  1  0.92196  0.02567  0.61424  1
 H  H11  1  0.25886  0.35906  0.82093  1
 H  H12  1  0.02567  0.10372  0.28090  1
 H  H13  1  0.97433  0.07804  0.05243  1
 H  H14  1  0.02567  0.92196  0.05243  1
 H  H15  1  0.10020  0.74114  0.15426  1
 H  H16  1  0.74114  0.10020  0.51241  1
 H  H17  1  0.10020  0.35906  0.17907  1
 H  H18  1  0.89980  0.25886  0.15426  1
 H  H19  1  0.64094  0.74114  0.84574  1
 H  H20  1  0.74114  0.64094  0.82093  1
 H  H21  1  0.97433  0.89628  0.28090  1
 H  H22  1  0.35906  0.25886  0.84574  1
 H  H23  1  0.07804  0.10372  0.71910  1
 H  H24  1  0.92196  0.89628  0.71910  1
 In  In1  1  0.50000  0.00000  0.00000  1
 In  In2  1  0.50000  0.50000  0.33333  1
 In  In3  1  -0.00000  0.50000  0.66667  1
 N  N1  1  0.00000  0.00000  0.66667  1
 N  N2  1  0.00000  0.00000  0.33333  1
 N  N3  1  0.00000  0.00000  0.00000  1
 O  O1  1  0.73123  0.07739  0.89430  1
 O  O2  1  0.44937  0.75544  0.88988  1
 O  O3  1  0.00000  0.24463  0.16667  1
 O  O4  1  0.73123  0.65384  0.43904  1
 O  O5  1  0.24456  0.55063  0.77679  1
 O  O6  1  0.55063  0.24456  0.88988  1
 O  O7  1  0.34616  0.26877  0.22763  1
 O  O8  1  0.24463  0.24463  0.83333  1
 O  O9  1  0.55063  0.30607  0.44345  1
 O  O10  1  0.07739  0.73123  0.77237  1
 O  O11  1  0.24456  0.69393  0.55655  1
 O  O12  1  0.65384  0.73123  0.22763  1
 O  O13  1  0.24463  0.00000  0.50000  1
 O  O14  1  0.75537  0.75537  0.83333  1
 O  O15  1  0.75537  0.00000  0.50000  1
 O  O16  1  0.69393  0.24456  0.11012  1
 O  O17  1  0.75544  0.44937  0.77679  1
 O  O18  1  0.30607  0.75544  0.11012  1
 O  O19  1  0.34616  0.07739  0.10570  1
 O  O20  1  0.07739  0.34616  0.56096  1
 O  O21  1  0.75544  0.30607  0.55655  1
 O  O22  1  -0.00000  0.75537  0.16667  1
 O  O23  1  0.92261  0.26877  0.77237  1
 O  O24  1  0.69393  0.44937  0.22321  1
 O  O25  1  0.44937  0.69393  0.44345  1
 O  O26  1  0.26877  0.92261  0.89430  1
 O  O27  1  0.65384  0.92261  0.10570  1
 O  O28  1  0.26877  0.34616  0.43904  1
 O  O29  1  0.92261  0.65384  0.56096  1
 O  O30  1  0.30607  0.55063  0.22321  1
