CIF file written using JARVIS-Tools package.
data_LiUAsO6
_symmetry_space_group_name_H-M  'P-1'
_cell_length_a       5.06305
_cell_length_b       5.38805
_cell_length_c       10.1075
_cell_angle_alpha    89.491
_cell_angle_beta     97.3012
_cell_angle_gamma    104.961

_symmetry_Int_Tables_number  2
_chemical_formula_structural  LiUAsO6
_chemical_formula_sum  Li2U2As2O2
_cell_volume  264.1434738640717
_cell_formula_units_Z  2
loop_
  _symmetry_equiv_pos_site_id
 _symmetry_equiv_pos_as_xyz
 1  'x, y, z'
loop_
 _atom_site_type_symbol
 _atom_site_label
 _atom_site_symmetry_multiplicity
 _atom_site_fract_x
 _atom_site_fract_y
 _atom_site_fract_z
 _atom_site_fract_occupancy
 As  As1  1  0.41186  0.01585  0.74131  1
 As  As2  1  0.58814  0.98415  0.25869  1
 Li  Li1  1  0.95381  0.56153  0.22663  1
 Li  Li2  1  0.04619  0.43847  0.77337  1
 O  O1  1  0.17628  0.49743  0.39319  1
 O  O2  1  0.23593  0.31059  0.97248  1
 O  O3  1  0.82372  0.50257  0.60681  1
 O  O4  1  0.71951  0.74366  0.33031  1
 O  O5  1  0.72627  0.14193  0.83591  1
 O  O6  1  0.28049  0.25634  0.66969  1
 O  O7  1  0.27373  0.85807  0.16409  1
 O  O8  1  0.81663  0.17518  0.16301  1
 O  O9  1  0.53820  0.17290  0.38208  1
 O  O10  1  0.18337  0.82482  0.83699  1
 O  O11  1  0.46180  0.82710  0.61792  1
 O  O12  1  0.76407  0.68941  0.02752  1
 U  U1  1  0.00000  0.00000  0.00000  1
 U  U2  1  0.50000  0.50000  0.50000  1
