CIF file written using JARVIS-Tools package.
data_K2NbCl6
_symmetry_space_group_name_H-M  'P4/mnc'
_cell_length_a       6.82919
_cell_length_b       6.82919
_cell_length_c       10.2647
_cell_angle_alpha    90
_cell_angle_beta     90
_cell_angle_gamma    90

_symmetry_Int_Tables_number  128
_chemical_formula_structural  K2NbCl6
_chemical_formula_sum  K4Nb2Cl2
_cell_volume  478.7231614252202
_cell_formula_units_Z  2
loop_
  _symmetry_equiv_pos_site_id
 _symmetry_equiv_pos_as_xyz
 1  'x, y, z'
loop_
 _atom_site_type_symbol
 _atom_site_label
 _atom_site_symmetry_multiplicity
 _atom_site_fract_x
 _atom_site_fract_y
 _atom_site_fract_z
 _atom_site_fract_occupancy
 Cl  Cl1  1  0.20738  0.29803  0.50000  1
 Cl  Cl2  1  0.50000  0.50000  0.73935  1
 Cl  Cl3  1  0.00000  0.00000  0.76065  1
 Cl  Cl4  1  0.79262  0.70197  0.50000  1
 Cl  Cl5  1  0.50000  0.50000  0.26065  1
 Cl  Cl6  1  0.70197  0.20738  0.50000  1
 Cl  Cl7  1  0.20197  0.29262  0.00000  1
 Cl  Cl8  1  0.70738  0.20197  0.00000  1
 Cl  Cl9  1  0.00000  0.00000  0.23935  1
 Cl  Cl10  1  0.29262  0.79803  0.00000  1
 Cl  Cl11  1  0.29803  0.79262  0.50000  1
 Cl  Cl12  1  0.79803  0.70738  0.00000  1
 K  K1  1  0.00000  0.50000  0.25000  1
 K  K2  1  0.50000  0.00000  0.25000  1
 K  K3  1  0.00000  0.50000  0.75000  1
 K  K4  1  0.50000  0.00000  0.75000  1
 Nb  Nb1  1  0.50000  0.50000  0.50000  1
 Nb  Nb2  1  0.00000  0.00000  0.00000  1
