CIF file written using JARVIS-Tools package.
data_Mg6ZrC
_symmetry_space_group_name_H-M  'Amm2'
_cell_length_a       6.35927
_cell_length_b       6.35927
_cell_length_c       4.55548
_cell_angle_alpha    90
_cell_angle_beta     90
_cell_angle_gamma    105.025

_symmetry_Int_Tables_number  38
_chemical_formula_structural  Mg6ZrC
_chemical_formula_sum  Mg6ZrC
_cell_volume  177.9266392492077
_cell_formula_units_Z  1
loop_
  _symmetry_equiv_pos_site_id
 _symmetry_equiv_pos_as_xyz
 1  'x, y, z'
loop_
 _atom_site_type_symbol
 _atom_site_label
 _atom_site_symmetry_multiplicity
 _atom_site_fract_x
 _atom_site_fract_y
 _atom_site_fract_z
 _atom_site_fract_occupancy
 C  C1  1  0.11908  0.38092  0.75000  1
 Mg  Mg1  1  0.21703  0.89284  0.25000  1
 Mg  Mg2  1  0.60716  0.28297  0.25000  1
 Mg  Mg3  1  0.70288  0.79712  0.25000  1
 Mg  Mg4  1  0.42768  0.61774  0.75000  1
 Mg  Mg5  1  0.88226  0.07232  0.75000  1
 Mg  Mg6  1  0.90802  0.59198  0.75000  1
 Zr  Zr1  1  0.13587  0.36413  0.25000  1
