CIF file written using JARVIS-Tools package.
data_LiAgF2
_symmetry_space_group_name_H-M  'Pnma'
_cell_length_a       2.881
_cell_length_b       4.89964
_cell_length_c       13.2266
_cell_angle_alpha    90
_cell_angle_beta     90
_cell_angle_gamma    90

_symmetry_Int_Tables_number  62
_chemical_formula_structural  LiAgF2
_chemical_formula_sum  Li4Ag4F8
_cell_volume  186.70441864383088
_cell_formula_units_Z  4
loop_
  _symmetry_equiv_pos_site_id
 _symmetry_equiv_pos_as_xyz
 1  'x, y, z'
loop_
 _atom_site_type_symbol
 _atom_site_label
 _atom_site_symmetry_multiplicity
 _atom_site_fract_x
 _atom_site_fract_y
 _atom_site_fract_z
 _atom_site_fract_occupancy
 Ag  Ag1  1  0.75000  0.79856  0.94168  1
 Ag  Ag2  1  0.75000  0.70144  0.44168  1
 Ag  Ag3  1  0.25000  0.29856  0.55832  1
 Ag  Ag4  1  0.25000  0.20144  0.05832  1
 F  F1  1  0.75000  0.32142  0.90653  1
 F  F2  1  0.75000  0.38206  0.70702  1
 F  F3  1  0.75000  0.17858  0.40653  1
 F  F4  1  0.75000  0.11794  0.20702  1
 F  F5  1  0.25000  0.88206  0.79298  1
 F  F6  1  0.25000  0.82142  0.59347  1
 F  F7  1  0.25000  0.61794  0.29298  1
 F  F8  1  0.25000  0.67858  0.09347  1
 Li  Li1  1  0.75000  0.77437  0.69898  1
 Li  Li2  1  0.75000  0.72563  0.19898  1
 Li  Li3  1  0.25000  0.27437  0.80102  1
 Li  Li4  1  0.25000  0.22563  0.30102  1
