CIF file written using JARVIS-Tools package.
data_SrMg6W
_symmetry_space_group_name_H-M  'P4/mmm'
_cell_length_a       6.52625
_cell_length_b       9.23034
_cell_length_c       4.33238
_cell_angle_alpha    90
_cell_angle_beta     90
_cell_angle_gamma    135.005

_symmetry_Int_Tables_number  123
_chemical_formula_structural  SrMg6W
_chemical_formula_sum  SrMg6W
_cell_volume  184.52439938650843
_cell_formula_units_Z  1
loop_
  _symmetry_equiv_pos_site_id
 _symmetry_equiv_pos_as_xyz
 1  'x, y, z'
loop_
 _atom_site_type_symbol
 _atom_site_label
 _atom_site_symmetry_multiplicity
 _atom_site_fract_x
 _atom_site_fract_y
 _atom_site_fract_z
 _atom_site_fract_occupancy
 Mg  Mg1  1  0.75003  0.37504  0.25000  1
 Mg  Mg2  1  0.75003  0.87499  0.25000  1
 Mg  Mg3  1  0.25004  0.09273  0.75000  1
 Mg  Mg4  1  0.25004  0.65731  0.75000  1
 Mg  Mg5  1  0.68536  0.09268  0.75000  1
 Mg  Mg6  1  0.81458  0.65729  0.75000  1
 Sr  Sr1  1  0.24994  0.37497  0.25000  1
 W  W1  1  0.24998  0.87499  0.25000  1
