CIF file written using JARVIS-Tools package.
data_Nb3Cl5O2
_symmetry_space_group_name_H-M  'Pnnm'
_cell_length_a       6.73208
_cell_length_b       8.16263
_cell_length_c       14.5925
_cell_angle_alpha    90
_cell_angle_beta     90
_cell_angle_gamma    90

_symmetry_Int_Tables_number  58
_chemical_formula_structural  Nb3Cl5O2
_chemical_formula_sum  Nb2Cl20O8
_cell_volume  801.8776963469834
_cell_formula_units_Z  4
loop_
  _symmetry_equiv_pos_site_id
 _symmetry_equiv_pos_as_xyz
 1  'x, y, z'
loop_
 _atom_site_type_symbol
 _atom_site_label
 _atom_site_symmetry_multiplicity
 _atom_site_fract_x
 _atom_site_fract_y
 _atom_site_fract_z
 _atom_site_fract_occupancy
 Cl  Cl1  1  0.50000  0.79338  0.63975  1
 Cl  Cl2  1  0.00000  0.29338  0.86025  1
 Cl  Cl3  1  0.50000  0.27701  0.12799  1
 Cl  Cl4  1  0.50000  0.72299  0.87201  1
 Cl  Cl5  1  0.00000  0.77701  0.37201  1
 Cl  Cl6  1  0.00000  0.22299  0.62799  1
 Cl  Cl7  1  0.50000  0.20662  0.36025  1
 Cl  Cl8  1  0.00000  0.79185  0.62501  1
 Cl  Cl9  1  0.50000  0.70815  0.12501  1
 Cl  Cl10  1  0.50000  0.82979  0.39062  1
 Cl  Cl11  1  0.00000  0.67021  0.89062  1
 Cl  Cl12  1  0.00000  0.32979  0.10938  1
 Cl  Cl13  1  0.50000  0.17021  0.60938  1
 Cl  Cl14  1  0.25593  0.50000  0.50000  1
 Cl  Cl15  1  0.75593  0.00000  0.00000  1
 Cl  Cl16  1  0.74407  0.50000  0.50000  1
 Cl  Cl17  1  0.00000  0.20815  0.37499  1
 Cl  Cl18  1  0.24407  0.00000  0.00000  1
 Cl  Cl19  1  0.00000  0.70662  0.13975  1
 Cl  Cl20  1  0.50000  0.29185  0.87499  1
 Nb  Nb1  1  0.00000  0.02788  0.13406  1
 Nb  Nb2  1  0.00000  0.97212  0.86594  1
 Nb  Nb3  1  0.71183  0.74190  0.25988  1
 Nb  Nb4  1  0.78817  0.75810  0.75988  1
 Nb  Nb5  1  0.28817  0.25810  0.74012  1
 Nb  Nb6  1  0.71183  0.25810  0.74012  1
 Nb  Nb7  1  0.78817  0.24190  0.24012  1
 Nb  Nb8  1  0.21183  0.24190  0.24012  1
 Nb  Nb9  1  0.50000  0.47212  0.63406  1
 Nb  Nb10  1  0.50000  0.52788  0.36594  1
 Nb  Nb11  1  0.28817  0.74190  0.25988  1
 Nb  Nb12  1  0.21183  0.75810  0.75988  1
 O  O1  1  0.72354  0.50847  0.72635  1
 O  O2  1  0.22354  0.99153  0.22635  1
 O  O3  1  0.22354  0.00847  0.77365  1
 O  O4  1  0.27646  0.49153  0.27365  1
 O  O5  1  0.27646  0.50847  0.72635  1
 O  O6  1  0.77646  0.00847  0.77365  1
 O  O7  1  0.77646  0.99153  0.22635  1
 O  O8  1  0.72354  0.49153  0.27365  1
