CIF file written using JARVIS-Tools package.
data_Li3Mn5Cr2O12
_symmetry_space_group_name_H-M  'C2'
_cell_length_a       5.0051
_cell_length_b       5.00509
_cell_length_c       9.83591
_cell_angle_alpha    84.2412
_cell_angle_beta     95.7588
_cell_angle_gamma    58.9797

_symmetry_Int_Tables_number  5
_chemical_formula_structural  Li3Mn5Cr2O12
_chemical_formula_sum  Li3Mn5Cr2O2
_cell_volume  206.72710800667724
_cell_formula_units_Z  1
loop_
  _symmetry_equiv_pos_site_id
 _symmetry_equiv_pos_as_xyz
 1  'x, y, z'
loop_
 _atom_site_type_symbol
 _atom_site_label
 _atom_site_symmetry_multiplicity
 _atom_site_fract_x
 _atom_site_fract_y
 _atom_site_fract_z
 _atom_site_fract_occupancy
 Cr  Cr1  1  0.25526  0.25526  0.75000  1
 Cr  Cr2  1  0.76415  0.76415  0.25000  1
 Li  Li1  1  0.33074  0.82759  0.98949  1
 Li  Li2  1  0.82759  0.33074  0.51051  1
 Li  Li3  1  0.92402  0.92402  0.75000  1
 Mn  Mn1  1  0.06470  0.06470  0.25000  1
 Mn  Mn2  1  0.41509  0.41509  0.25000  1
 Mn  Mn3  1  0.57795  0.57795  0.75000  1
 Mn  Mn4  1  0.50773  0.01084  0.51131  1
 Mn  Mn5  1  0.01084  0.50773  0.98869  1
 O  O1  1  0.96398  0.23249  0.86486  1
 O  O2  1  0.04482  0.77945  0.12587  1
 O  O3  1  0.35899  0.13181  0.13964  1
 O  O4  1  0.29803  0.54285  0.86030  1
 O  O5  1  0.13181  0.35899  0.36036  1
 O  O6  1  0.70927  0.46535  0.14485  1
 O  O7  1  0.77945  0.04482  0.37413  1
 O  O8  1  0.46535  0.70927  0.35515  1
 O  O9  1  0.61281  0.85333  0.86413  1
 O  O10  1  0.54285  0.29803  0.63970  1
 O  O11  1  0.23249  0.96398  0.63514  1
 O  O12  1  0.85333  0.61281  0.63587  1
