CIF file written using JARVIS-Tools package.
data_Li2Mn3F8
_symmetry_space_group_name_H-M  'P6_3mc'
_cell_length_a       6.38182
_cell_length_b       6.38182
_cell_length_c       8.97053
_cell_angle_alpha    90
_cell_angle_beta     90
_cell_angle_gamma    120

_symmetry_Int_Tables_number  186
_chemical_formula_structural  Li2Mn3F8
_chemical_formula_sum  Li4Mn6F6
_cell_volume  316.4006985010335
_cell_formula_units_Z  2
loop_
  _symmetry_equiv_pos_site_id
 _symmetry_equiv_pos_as_xyz
 1  'x, y, z'
loop_
 _atom_site_type_symbol
 _atom_site_label
 _atom_site_symmetry_multiplicity
 _atom_site_fract_x
 _atom_site_fract_y
 _atom_site_fract_z
 _atom_site_fract_occupancy
 F  F1  1  0.17447  0.34893  0.85761  1
 F  F2  1  0.34893  0.17447  0.35761  1
 F  F3  1  0.51379  0.48621  0.62125  1
 F  F4  1  0.48621  0.51379  0.12125  1
 F  F5  1  0.00000  0.00000  0.63282  1
 F  F6  1  0.00000  0.00000  0.13282  1
 F  F7  1  0.82553  0.65107  0.35761  1
 F  F8  1  0.66667  0.33333  0.88085  1
 F  F9  1  0.97242  0.48621  0.62125  1
 F  F10  1  0.17447  0.82553  0.85761  1
 F  F11  1  0.02758  0.51379  0.12125  1
 F  F12  1  0.48621  0.97242  0.12125  1
 F  F13  1  0.65107  0.82553  0.85761  1
 F  F14  1  0.33333  0.66667  0.38085  1
 F  F15  1  0.82553  0.17447  0.35761  1
 F  F16  1  0.51379  0.02758  0.62125  1
 Li  Li1  1  0.33333  0.66667  0.59489  1
 Li  Li2  1  0.33333  0.66667  0.95877  1
 Li  Li3  1  0.66667  0.33333  0.09489  1
 Li  Li4  1  0.66667  0.33333  0.45877  1
 Mn  Mn1  1  0.16500  0.83500  0.25408  1
 Mn  Mn2  1  0.33000  0.16500  0.75408  1
 Mn  Mn3  1  0.83500  0.67000  0.75408  1
 Mn  Mn4  1  0.16500  0.33000  0.25408  1
 Mn  Mn5  1  0.83500  0.16500  0.75408  1
 Mn  Mn6  1  0.67000  0.83500  0.25408  1
