CIF file written using JARVIS-Tools package.
data_Hg3PO4
_symmetry_space_group_name_H-M  'P2_1/c'
_cell_length_a       7.99856
_cell_length_b       8.20391
_cell_length_c       9.40638
_cell_angle_alpha    90
_cell_angle_beta     110.414
_cell_angle_gamma    90

_symmetry_Int_Tables_number  14
_chemical_formula_structural  Hg3PO4
_chemical_formula_sum  Hg2P4O6
_cell_volume  578.4760422797832
_cell_formula_units_Z  4
loop_
  _symmetry_equiv_pos_site_id
 _symmetry_equiv_pos_as_xyz
 1  'x, y, z'
loop_
 _atom_site_type_symbol
 _atom_site_label
 _atom_site_symmetry_multiplicity
 _atom_site_fract_x
 _atom_site_fract_y
 _atom_site_fract_z
 _atom_site_fract_occupancy
 Hg  Hg1  1  0.99783  0.22160  0.44148  1
 Hg  Hg2  1  0.73560  0.44778  0.88014  1
 Hg  Hg3  1  0.00217  0.77840  0.55852  1
 Hg  Hg4  1  0.50217  0.72160  0.05852  1
 Hg  Hg5  1  0.23560  0.05222  0.38014  1
 Hg  Hg6  1  0.49783  0.27840  0.94148  1
 Hg  Hg7  1  0.09367  0.11172  0.96562  1
 Hg  Hg8  1  0.26440  0.55222  0.11986  1
 Hg  Hg9  1  0.40633  0.61172  0.53438  1
 Hg  Hg10  1  0.76440  0.94778  0.61986  1
 Hg  Hg11  1  0.59367  0.38828  0.46562  1
 Hg  Hg12  1  0.90633  0.88828  0.03438  1
 O  O1  1  0.94310  0.56268  0.81481  1
 O  O2  1  0.82231  0.66153  0.11534  1
 O  O3  1  0.59052  0.81579  0.85840  1
 O  O4  1  0.90948  0.31579  0.64160  1
 O  O5  1  0.09052  0.68421  0.35840  1
 O  O6  1  0.34425  0.03192  0.83053  1
 O  O7  1  0.15575  0.53192  0.66947  1
 O  O8  1  0.65575  0.96808  0.16947  1
 O  O9  1  0.17769  0.33847  0.88466  1
 O  O10  1  0.05690  0.43732  0.18519  1
 O  O11  1  0.67769  0.16153  0.38466  1
 O  O12  1  0.84425  0.46808  0.33053  1
 O  O13  1  0.44310  0.93732  0.31481  1
 O  O14  1  0.55690  0.06268  0.68519  1
 O  O15  1  0.32231  0.83847  0.61534  1
 O  O16  1  0.40948  0.18421  0.14160  1
 P  P1  1  0.54565  0.06138  0.24743  1
 P  P2  1  0.95435  0.56138  0.25257  1
 P  P3  1  0.45435  0.93862  0.75257  1
 P  P4  1  0.04565  0.43862  0.74743  1
