CIF file written using JARVIS-Tools package.
data_Na4CuAs2O8
_symmetry_space_group_name_H-M  'P-1'
_cell_length_a       4.90122
_cell_length_b       5.9079
_cell_length_c       6.98274
_cell_angle_alpha    97.565
_cell_angle_beta     90.4569
_cell_angle_gamma    106.787

_symmetry_Int_Tables_number  2
_chemical_formula_structural  Na4CuAs2O8
_chemical_formula_sum  Na4CuAs2O8
_cell_volume  191.6648472580304
_cell_formula_units_Z  1
loop_
  _symmetry_equiv_pos_site_id
 _symmetry_equiv_pos_as_xyz
 1  'x, y, z'
loop_
 _atom_site_type_symbol
 _atom_site_label
 _atom_site_symmetry_multiplicity
 _atom_site_fract_x
 _atom_site_fract_y
 _atom_site_fract_z
 _atom_site_fract_occupancy
 As  As1  1  0.59731  0.19618  0.26748  1
 As  As2  1  0.40269  0.80382  0.73252  1
 Cu  Cu1  1  0.00000  0.00000  0.00000  1
 Na  Na1  1  0.28454  0.56735  0.16827  1
 Na  Na2  1  0.71546  0.43265  0.83173  1
 Na  Na3  1  0.84340  0.74753  0.41703  1
 Na  Na4  1  0.15660  0.25247  0.58297  1
 O  O1  1  0.68608  0.27134  0.50912  1
 O  O2  1  0.31392  0.72866  0.49088  1
 O  O3  1  0.67244  0.93694  0.16460  1
 O  O4  1  0.32756  0.06306  0.83540  1
 O  O5  1  0.22676  0.14430  0.24418  1
 O  O6  1  0.77324  0.85570  0.75582  1
 O  O7  1  0.76239  0.43818  0.15595  1
 O  O8  1  0.23761  0.56182  0.84405  1
