CIF file written using JARVIS-Tools package.
data_NaClO3
_symmetry_space_group_name_H-M  'P1'
_cell_length_a       7.44639
_cell_length_b       7.03566
_cell_length_c       7.72029
_cell_angle_alpha    99.3082
_cell_angle_beta     81.1819
_cell_angle_gamma    98.4361

_symmetry_Int_Tables_number  1
_chemical_formula_structural  NaClO3
_chemical_formula_sum  Na4Cl4O2
_cell_volume  391.3299250149635
_cell_formula_units_Z  4
loop_
  _symmetry_equiv_pos_site_id
 _symmetry_equiv_pos_as_xyz
 1  'x, y, z'
loop_
 _atom_site_type_symbol
 _atom_site_label
 _atom_site_symmetry_multiplicity
 _atom_site_fract_x
 _atom_site_fract_y
 _atom_site_fract_z
 _atom_site_fract_occupancy
 Cl  Cl1  1  0.96217  0.53945  0.92365  1
 Cl  Cl2  1  0.43392  0.49404  0.43647  1
 Cl  Cl3  1  0.92625  0.05357  0.46834  1
 Cl  Cl4  1  0.60540  0.89447  0.12146  1
 Na  Na1  1  0.58997  0.50889  0.09010  1
 Na  Na2  1  0.57358  0.89017  0.46543  1
 Na  Na3  1  0.08864  0.40766  0.59019  1
 Na  Na4  1  0.95556  0.90167  0.11655  1
 O  O1  1  0.29750  0.23332  0.09559  1
 O  O2  1  0.55438  0.30028  0.78736  1
 O  O3  1  0.65306  0.17521  0.79855  1
 O  O4  1  0.15379  0.20048  0.02558  1
 O  O5  1  -0.08204  0.42419  0.30938  1
 O  O6  1  0.19838  0.75376  0.22376  1
 O  O7  1  0.31649  0.90651  0.72024  1
 O  O8  1  0.78576  0.62598  0.63058  1
 O  O9  1  0.18365  0.76342  0.38787  1
 O  O10  1  0.30958  0.82371  0.85253  1
 O  O11  1  0.71250  0.76860  0.71090  1
 O  O12  1  0.78146  0.33463  0.24547  1
