CIF file written using JARVIS-Tools package.
data_Tm3TaO7
_symmetry_space_group_name_H-M  'Cmcm'
_cell_length_a       6.35243
_cell_length_b       6.35243
_cell_length_c       7.40498
_cell_angle_alpha    90
_cell_angle_beta     90
_cell_angle_gamma    110.45

_symmetry_Int_Tables_number  63
_chemical_formula_structural  Tm3TaO7
_chemical_formula_sum  Tm6Ta2O4
_cell_volume  279.984526143987
_cell_formula_units_Z  2
loop_
  _symmetry_equiv_pos_site_id
 _symmetry_equiv_pos_as_xyz
 1  'x, y, z'
loop_
 _atom_site_type_symbol
 _atom_site_label
 _atom_site_symmetry_multiplicity
 _atom_site_fract_x
 _atom_site_fract_y
 _atom_site_fract_z
 _atom_site_fract_occupancy
 O  O1  1  0.43551  0.17403  0.53794  1
 O  O2  1  0.15447  0.88867  0.25000  1
 O  O3  1  0.11133  0.84553  0.75000  1
 O  O4  1  0.84553  0.11133  0.75000  1
 O  O5  1  0.56449  0.82597  0.46206  1
 O  O6  1  0.17403  0.43551  0.96206  1
 O  O7  1  0.56449  0.82597  0.03794  1
 O  O8  1  0.58791  0.58791  0.75000  1
 O  O9  1  0.41209  0.41209  0.25000  1
 O  O10  1  0.82597  0.56449  0.03794  1
 O  O11  1  0.88867  0.15447  0.25000  1
 O  O12  1  0.43551  0.17403  0.96206  1
 O  O13  1  0.82597  0.56449  0.46206  1
 O  O14  1  0.17403  0.43551  0.53794  1
 Ta  Ta1  1  0.50000  0.50000  0.50000  1
 Ta  Ta2  1  0.50000  0.50000  0.00000  1
 Tm  Tm1  1  0.51635  0.05698  0.25000  1
 Tm  Tm2  1  0.94302  0.48365  0.75000  1
 Tm  Tm3  1  0.00000  0.00000  0.50000  1
 Tm  Tm4  1  0.00000  0.00000  0.00000  1
 Tm  Tm5  1  0.48365  0.94302  0.75000  1
 Tm  Tm6  1  0.05698  0.51635  0.25000  1
