CIF file written using JARVIS-Tools package.
data_W3O7F
_symmetry_space_group_name_H-M  'Cmmm'
_cell_length_a       6.2962
_cell_length_b       6.2962
_cell_length_c       3.81621
_cell_angle_alpha    90
_cell_angle_beta     90
_cell_angle_gamma    59.8122

_symmetry_Int_Tables_number  65
_chemical_formula_structural  W3O7F
_chemical_formula_sum  W3O7F
_cell_volume  130.76608127465116
_cell_formula_units_Z  1
loop_
  _symmetry_equiv_pos_site_id
 _symmetry_equiv_pos_as_xyz
 1  'x, y, z'
loop_
 _atom_site_type_symbol
 _atom_site_label
 _atom_site_symmetry_multiplicity
 _atom_site_fract_x
 _atom_site_fract_y
 _atom_site_fract_z
 _atom_site_fract_occupancy
 F  F1  1  0.50000  0.50000  0.00000  1
 O  O1  1  0.03899  0.66115  0.00000  1
 O  O2  1  0.33885  0.96101  0.00000  1
 O  O3  1  0.00000  0.00000  0.50000  1
 O  O4  1  0.30727  0.30727  0.50000  1
 O  O5  1  0.69273  0.69273  0.50000  1
 O  O6  1  0.96101  0.33885  0.00000  1
 O  O7  1  0.66115  0.03899  0.00000  1
 W  W1  1  0.00000  0.00000  0.00000  1
 W  W2  1  0.30376  0.30376  0.00000  1
 W  W3  1  0.69624  0.69624  0.00000  1
