CIF file written using JARVIS-Tools package.
data_ThFe4P2
_symmetry_space_group_name_H-M  'Pnnm'
_cell_length_a       3.71185
_cell_length_b       10.708
_cell_length_c       14.278
_cell_angle_alpha    90
_cell_angle_beta     90
_cell_angle_gamma    90

_symmetry_Int_Tables_number  58
_chemical_formula_structural  ThFe4P2
_chemical_formula_sum  Th6Fe24P2
_cell_volume  567.4978332023072
_cell_formula_units_Z  6
loop_
  _symmetry_equiv_pos_site_id
 _symmetry_equiv_pos_as_xyz
 1  'x, y, z'
loop_
 _atom_site_type_symbol
 _atom_site_label
 _atom_site_symmetry_multiplicity
 _atom_site_fract_x
 _atom_site_fract_y
 _atom_site_fract_z
 _atom_site_fract_occupancy
 Fe  Fe1  1  0.50000  0.23395  0.42186  1
 Fe  Fe2  1  0.00000  0.74038  0.46262  1
 Fe  Fe3  1  0.00000  0.07785  0.44647  1
 Fe  Fe4  1  0.50000  0.57785  0.05353  1
 Fe  Fe5  1  0.00000  0.59120  0.94841  1
 Fe  Fe6  1  0.00000  0.40880  0.05159  1
 Fe  Fe7  1  0.50000  0.09120  0.55159  1
 Fe  Fe8  1  0.50000  0.42215  0.94647  1
 Fe  Fe9  1  0.00000  0.25962  0.53738  1
 Fe  Fe10  1  0.50000  0.75962  0.96262  1
 Fe  Fe11  1  0.50000  0.67765  0.21019  1
 Fe  Fe12  1  0.00000  0.92215  0.55353  1
 Fe  Fe13  1  0.50000  0.90880  0.44841  1
 Fe  Fe14  1  0.00000  0.26605  0.92186  1
 Fe  Fe15  1  0.00000  0.73395  0.07814  1
 Fe  Fe16  1  0.00000  0.56712  0.32502  1
 Fe  Fe17  1  0.50000  0.24038  0.03738  1
 Fe  Fe18  1  0.50000  0.32235  0.78981  1
 Fe  Fe19  1  0.00000  0.17765  0.28981  1
 Fe  Fe20  1  0.00000  0.82235  0.71019  1
 Fe  Fe21  1  0.50000  0.06712  0.17498  1
 Fe  Fe22  1  0.50000  0.93288  0.82502  1
 Fe  Fe23  1  0.50000  0.76605  0.57814  1
 Fe  Fe24  1  0.00000  0.43288  0.67498  1
 P  P1  1  0.00000  0.79889  0.86712  1
 P  P2  1  0.00000  0.20111  0.13288  1
 P  P3  1  0.00000  0.57073  0.16598  1
 P  P4  1  0.50000  0.70111  0.36712  1
 P  P5  1  0.00000  0.42927  0.83402  1
 P  P6  1  0.50000  0.29889  0.63288  1
 P  P7  1  0.50000  0.92927  0.66598  1
 P  P8  1  0.00000  0.64999  0.61369  1
 P  P9  1  0.50000  0.85001  0.11369  1
 P  P10  1  0.50000  0.14999  0.88631  1
 P  P11  1  0.50000  0.07073  0.33402  1
 P  P12  1  0.00000  0.35001  0.38631  1
 Th  Th1  1  0.00000  0.87596  0.27419  1
 Th  Th2  1  0.00000  0.12404  0.72581  1
 Th  Th3  1  0.50000  0.50000  0.50000  1
 Th  Th4  1  0.50000  0.62404  0.77419  1
 Th  Th5  1  0.50000  0.37596  0.22581  1
 Th  Th6  1  0.00000  0.00000  0.00000  1
