CIF file written using JARVIS-Tools package.
data_Nb2Ni4O9
_symmetry_space_group_name_H-M  'Pbcn'
_cell_length_a       5.09179
_cell_length_b       8.73388
_cell_length_c       14.4253
_cell_angle_alpha    90
_cell_angle_beta     90
_cell_angle_gamma    90

_symmetry_Int_Tables_number  60
_chemical_formula_structural  Nb2Ni4O9
_chemical_formula_sum  Nb8Ni6O36
_cell_volume  641.5091878124325
_cell_formula_units_Z  4
loop_
  _symmetry_equiv_pos_site_id
 _symmetry_equiv_pos_as_xyz
 1  'x, y, z'
loop_
 _atom_site_type_symbol
 _atom_site_label
 _atom_site_symmetry_multiplicity
 _atom_site_fract_x
 _atom_site_fract_y
 _atom_site_fract_z
 _atom_site_fract_occupancy
 Nb  Nb1  1  0.00502  0.03170  0.35561  1
 Nb  Nb2  1  0.50502  0.46830  0.35561  1
 Nb  Nb3  1  0.49498  0.46830  0.85561  1
 Nb  Nb4  1  0.99498  0.03170  0.85561  1
 Nb  Nb5  1  0.00502  0.96830  0.14439  1
 Nb  Nb6  1  0.50502  0.53170  0.14439  1
 Nb  Nb7  1  0.99498  0.96830  0.64439  1
 Nb  Nb8  1  0.49498  0.53170  0.64439  1
 Ni  Ni1  1  0.00419  0.66197  0.31434  1
 Ni  Ni2  1  0.50389  0.16438  0.00139  1
 Ni  Ni3  1  0.00419  0.33803  0.18566  1
 Ni  Ni4  1  0.49581  0.83803  0.81434  1
 Ni  Ni5  1  0.00389  0.33562  0.00139  1
 Ni  Ni6  1  -0.00419  0.66197  0.81434  1
 Ni  Ni7  1  0.99611  0.33562  0.50139  1
 Ni  Ni8  1  0.99611  0.66438  0.99861  1
 Ni  Ni9  1  0.50419  0.83803  0.31434  1
 Ni  Ni10  1  0.50419  0.16197  0.18566  1
 Ni  Ni11  1  0.00389  0.66438  0.49861  1
 Ni  Ni12  1  0.49611  0.83562  0.99861  1
 Ni  Ni13  1  0.49581  0.16197  0.68566  1
 Ni  Ni14  1  -0.00419  0.33803  0.68566  1
 Ni  Ni15  1  0.49611  0.16438  0.50139  1
 Ni  Ni16  1  0.50389  0.83562  0.49861  1
 O  O1  1  0.84547  0.84798  0.75100  1
 O  O2  1  0.66601  0.33635  0.59521  1
 O  O3  1  0.83399  0.83635  0.40479  1
 O  O4  1  0.16601  0.16365  0.59521  1
 O  O5  1  0.28933  0.00000  0.75000  1
 O  O6  1  0.15453  0.15202  0.24900  1
 O  O7  1  0.17492  0.82608  0.57120  1
 O  O8  1  0.16601  0.83635  0.90479  1
 O  O9  1  0.67492  0.67392  0.57120  1
 O  O10  1  0.82508  0.82608  0.07120  1
 O  O11  1  0.33399  0.66365  0.40479  1
 O  O12  1  0.84028  0.49555  0.08382  1
 O  O13  1  0.15453  0.84798  0.25100  1
 O  O14  1  0.15972  0.49555  0.58382  1
 O  O15  1  0.34547  0.34798  0.74900  1
 O  O16  1  0.65972  0.00445  0.58382  1
 O  O17  1  0.32508  0.67392  0.07120  1
 O  O18  1  0.21067  0.50000  0.25000  1
 O  O19  1  0.33399  0.33635  0.09521  1
 O  O20  1  0.71067  0.00000  0.25000  1
 O  O21  1  0.65453  0.65202  0.25100  1
 O  O22  1  0.65453  0.34798  0.24900  1
 O  O23  1  0.84547  0.15202  0.74900  1
 O  O24  1  0.65972  0.99555  0.91618  1
 O  O25  1  0.83399  0.16365  0.09521  1
 O  O26  1  0.34028  0.00445  0.08382  1
 O  O27  1  0.32508  0.32608  0.42880  1
 O  O28  1  0.84028  0.50445  0.41618  1
 O  O29  1  0.78933  0.50000  0.75000  1
 O  O30  1  0.82508  0.17392  0.42880  1
 O  O31  1  0.15972  0.50445  0.91618  1
 O  O32  1  0.34547  0.65202  0.75100  1
 O  O33  1  0.67492  0.32608  0.92880  1
 O  O34  1  0.17492  0.17392  0.92880  1
 O  O35  1  0.34028  0.99555  0.41618  1
 O  O36  1  0.66601  0.66365  0.90479  1
