CIF file written using JARVIS-Tools package.
data_Sc5In4Rh2
_symmetry_space_group_name_H-M  'Pbam'
_cell_length_a       3.34838
_cell_length_b       7.67838
_cell_length_c       17.5633
_cell_angle_alpha    90
_cell_angle_beta     90
_cell_angle_gamma    90

_symmetry_Int_Tables_number  55
_chemical_formula_structural  Sc5In4Rh2
_chemical_formula_sum  Sc0In8Rh4
_cell_volume  451.5546259995508
_cell_formula_units_Z  2
loop_
  _symmetry_equiv_pos_site_id
 _symmetry_equiv_pos_as_xyz
 1  'x, y, z'
loop_
 _atom_site_type_symbol
 _atom_site_label
 _atom_site_symmetry_multiplicity
 _atom_site_fract_x
 _atom_site_fract_y
 _atom_site_fract_z
 _atom_site_fract_occupancy
 In  In1  1  0.50000  0.06853  0.85139  1
 In  In2  1  0.50000  0.79718  0.43424  1
 In  In3  1  0.50000  0.43147  0.35139  1
 In  In4  1  0.50000  0.56853  0.64861  1
 In  In5  1  0.50000  0.20282  0.56576  1
 In  In6  1  0.50000  0.29718  0.06576  1
 In  In7  1  0.50000  0.70282  0.93424  1
 In  In8  1  0.50000  0.93147  0.14861  1
 Rh  Rh1  1  0.50000  0.46246  0.80540  1
 Rh  Rh2  1  0.50000  0.53754  0.19460  1
 Rh  Rh3  1  0.50000  0.96246  0.69460  1
 Rh  Rh4  1  0.50000  0.03754  0.30540  1
 Sc  Sc1  1  0.00000  0.62433  0.08606  1
 Sc  Sc2  1  0.00000  0.37567  0.91394  1
 Sc  Sc3  1  0.00000  0.12433  0.41394  1
 Sc  Sc4  1  0.00000  0.87567  0.58606  1
 Sc  Sc5  1  0.00000  0.75556  0.27912  1
 Sc  Sc6  1  0.00000  0.24444  0.72088  1
 Sc  Sc7  1  0.00000  0.25556  0.22088  1
 Sc  Sc8  1  0.00000  0.74444  0.77912  1
 Sc  Sc9  1  0.00000  0.50000  0.50000  1
 Sc  Sc10  1  0.00000  0.00000  0.00000  1
