CIF file written using JARVIS-Tools package.
data_LiMnF4
_symmetry_space_group_name_H-M  'Pnma'
_cell_length_a       4.56382
_cell_length_b       5.80609
_cell_length_c       9.98432
_cell_angle_alpha    90
_cell_angle_beta     90
_cell_angle_gamma    90

_symmetry_Int_Tables_number  62
_chemical_formula_structural  LiMnF4
_chemical_formula_sum  Li4Mn4F6
_cell_volume  264.56365581139914
_cell_formula_units_Z  4
loop_
  _symmetry_equiv_pos_site_id
 _symmetry_equiv_pos_as_xyz
 1  'x, y, z'
loop_
 _atom_site_type_symbol
 _atom_site_label
 _atom_site_symmetry_multiplicity
 _atom_site_fract_x
 _atom_site_fract_y
 _atom_site_fract_z
 _atom_site_fract_occupancy
 F  F1  1  0.26181  0.50109  0.67231  1
 F  F2  1  0.74829  0.75000  0.08733  1
 F  F3  1  0.23819  0.99891  0.17231  1
 F  F4  1  0.23819  0.50109  0.17231  1
 F  F5  1  0.76181  0.00109  0.82769  1
 F  F6  1  0.18006  0.75000  0.40141  1
 F  F7  1  0.73819  0.49891  0.32769  1
 F  F8  1  0.68006  0.25000  0.09859  1
 F  F9  1  0.24829  0.25000  0.41267  1
 F  F10  1  0.75171  0.75000  0.58733  1
 F  F11  1  0.26181  0.99891  0.67231  1
 F  F12  1  0.25171  0.25000  0.91267  1
 F  F13  1  0.81994  0.25000  0.59859  1
 F  F14  1  0.31994  0.75000  0.90141  1
 F  F15  1  0.76181  0.49891  0.82769  1
 F  F16  1  0.73819  0.00109  0.32769  1
 Li  Li1  1  0.00000  0.50000  0.50000  1
 Li  Li2  1  0.00000  0.00000  0.50000  1
 Li  Li3  1  0.50000  0.50000  0.00000  1
 Li  Li4  1  0.50000  0.00000  0.00000  1
 Mn  Mn1  1  0.02439  0.25000  0.76031  1
 Mn  Mn2  1  0.52439  0.75000  0.73969  1
 Mn  Mn3  1  0.47561  0.25000  0.26031  1
 Mn  Mn4  1  0.97561  0.75000  0.23969  1
