CIF file written using JARVIS-Tools package.
data_MnNb3O6
_symmetry_space_group_name_H-M  'Immm'
_cell_length_a       6.58482
_cell_length_b       7.07619
_cell_length_c       7.07619
_cell_angle_alpha    60.9269
_cell_angle_beta     62.2717
_cell_angle_gamma    62.2717

_symmetry_Int_Tables_number  71
_chemical_formula_structural  MnNb3O6
_chemical_formula_sum  Mn2Nb6O2
_cell_volume  242.583009152143
_cell_formula_units_Z  2
loop_
  _symmetry_equiv_pos_site_id
 _symmetry_equiv_pos_as_xyz
 1  'x, y, z'
loop_
 _atom_site_type_symbol
 _atom_site_label
 _atom_site_symmetry_multiplicity
 _atom_site_fract_x
 _atom_site_fract_y
 _atom_site_fract_z
 _atom_site_fract_occupancy
 Mn  Mn1  1  0.74800  -0.00000  0.00000  1
 Mn  Mn2  1  0.25200  0.00000  -0.00000  1
 Nb  Nb1  1  0.22360  0.49738  0.05542  1
 Nb  Nb2  1  0.20107  0.50000  0.50000  1
 Nb  Nb3  1  0.79893  0.50000  0.50000  1
 Nb  Nb4  1  0.22360  0.05542  0.49738  1
 Nb  Nb5  1  0.77640  0.94458  0.50262  1
 Nb  Nb6  1  0.77640  0.50262  0.94458  1
 O  O1  1  0.41263  0.17016  0.56099  1
 O  O2  1  0.85623  0.56099  0.17016  1
 O  O3  1  0.58737  0.43901  0.82984  1
 O  O4  1  0.85623  0.17016  0.56099  1
 O  O5  1  0.58737  0.82984  0.43901  1
 O  O6  1  0.35358  0.14642  0.14642  1
 O  O7  1  0.41263  0.56099  0.17016  1
 O  O8  1  0.14377  0.82984  0.43901  1
 O  O9  1  0.85802  0.14198  0.14198  1
 O  O10  1  0.64642  0.85358  0.85358  1
 O  O11  1  0.14377  0.43901  0.82984  1
 O  O12  1  0.14198  0.85802  0.85802  1
