CIF file written using JARVIS-Tools package.
data_Na4Ga2S5
_symmetry_space_group_name_H-M  'P2_1/c'
_cell_length_a       6.11959
_cell_length_b       7.9752
_cell_length_c       19.8455
_cell_angle_alpha    90.8578
_cell_angle_beta     90
_cell_angle_gamma    90

_symmetry_Int_Tables_number  14
_chemical_formula_structural  Na4Ga2S5
_chemical_formula_sum  Na6Ga8S20
_cell_volume  968.4506737621706
_cell_formula_units_Z  4
loop_
  _symmetry_equiv_pos_site_id
 _symmetry_equiv_pos_as_xyz
 1  'x, y, z'
loop_
 _atom_site_type_symbol
 _atom_site_label
 _atom_site_symmetry_multiplicity
 _atom_site_fract_x
 _atom_site_fract_y
 _atom_site_fract_z
 _atom_site_fract_occupancy
 Ga  Ga1  1  0.08693  0.65512  0.03627  1
 Ga  Ga2  1  0.43347  0.16494  0.86491  1
 Ga  Ga3  1  0.58693  0.34488  0.46373  1
 Ga  Ga4  1  0.41307  0.65512  0.53627  1
 Ga  Ga5  1  0.06653  0.16494  0.36491  1
 Ga  Ga6  1  0.56653  0.83506  0.13509  1
 Ga  Ga7  1  0.93347  0.83506  0.63509  1
 Ga  Ga8  1  0.91307  0.34488  0.96373  1
 Na  Na1  1  0.04007  0.59594  0.39705  1
 Na  Na2  1  0.24328  0.07692  0.54354  1
 Na  Na3  1  0.25672  0.07692  0.04354  1
 Na  Na4  1  0.75672  0.92308  0.45646  1
 Na  Na5  1  0.74328  0.92308  0.95646  1
 Na  Na6  1  0.95993  0.40406  0.60295  1
 Na  Na7  1  0.45993  0.59594  0.89705  1
 Na  Na8  1  0.99604  0.11422  0.19973  1
 Na  Na9  1  0.00396  0.88578  0.80027  1
 Na  Na10  1  0.50396  0.11422  0.69973  1
 Na  Na11  1  0.49604  0.88578  0.30027  1
 Na  Na12  1  0.97378  0.34343  0.78430  1
 Na  Na13  1  0.47378  0.65657  0.71570  1
 Na  Na14  1  0.52622  0.34343  0.28430  1
 Na  Na15  1  0.54007  0.40406  0.10295  1
 Na  Na16  1  0.02622  0.65657  0.21570  1
 S  S1  1  0.56868  0.86909  0.59751  1
 S  S2  1  0.94061  0.25885  0.47097  1
 S  S3  1  0.06868  0.13091  0.90249  1
 S  S4  1  0.43132  0.13091  0.40249  1
 S  S5  1  0.93132  0.86909  0.09751  1
 S  S6  1  0.55939  0.25885  0.97097  1
 S  S7  1  0.05939  0.74115  0.52903  1
 S  S8  1  0.44061  0.74115  0.02903  1
 S  S9  1  0.02431  0.09424  0.67374  1
 S  S10  1  0.01143  0.37040  0.29158  1
 S  S11  1  0.47569  0.09424  0.17374  1
 S  S12  1  0.97569  0.90576  0.32626  1
 S  S13  1  0.51143  0.62960  0.20842  1
 S  S14  1  0.47725  0.38817  0.57595  1
 S  S15  1  0.97725  0.61183  0.92405  1
 S  S16  1  0.52275  0.61183  0.42405  1
 S  S17  1  0.48857  0.37040  0.79158  1
 S  S18  1  0.52431  0.90576  0.82626  1
 S  S19  1  0.02275  0.38817  0.07595  1
 S  S20  1  0.98857  0.62960  0.70842  1
