CIF file written using JARVIS-Tools package.
data_AlCuH28S2ClO22
_symmetry_space_group_name_H-M  'P-1'
_cell_length_a       6.2962
_cell_length_b       13.2178
_cell_length_c       6.20655
_cell_angle_alpha    91.8897
_cell_angle_beta     94.7062
_cell_angle_gamma    82.5357

_symmetry_Int_Tables_number  2
_chemical_formula_structural  AlCuH28S2ClO22
_chemical_formula_sum  AlCuH28S2ClO22
_cell_volume  510.2878084813431
_cell_formula_units_Z  1
loop_
  _symmetry_equiv_pos_site_id
 _symmetry_equiv_pos_as_xyz
 1  'x, y, z'
loop_
 _atom_site_type_symbol
 _atom_site_label
 _atom_site_symmetry_multiplicity
 _atom_site_fract_x
 _atom_site_fract_y
 _atom_site_fract_z
 _atom_site_fract_occupancy
 Al  Al1  1  0.50000  -0.00000  0.50000  1
 Cl  Cl1  1  -0.00000  0.50000  0.50000  1
 Cu  Cu1  1  0.50000  0.50000  0.00000  1
 H  H1  1  0.30506  0.03020  0.12291  1
 H  H2  1  0.80066  0.90711  0.27353  1
 H  H3  1  0.68891  0.09085  0.82851  1
 H  H4  1  0.31109  0.90915  0.17149  1
 H  H5  1  0.19934  0.09289  0.72647  1
 H  H6  1  0.28690  0.86700  0.65076  1
 H  H7  1  0.12014  0.10173  0.46594  1
 H  H8  1  0.87986  0.89827  0.53406  1
 H  H9  1  0.48214  0.19345  0.41747  1
 H  H10  1  0.51786  0.80655  0.58253  1
 H  H11  1  0.71310  0.13300  0.34924  1
 H  H12  1  0.50664  0.38928  0.35290  1
 H  H13  1  0.49336  0.61072  0.64710  1
 H  H14  1  0.69494  0.96980  0.87709  1
 H  H15  1  0.28150  0.54633  0.63728  1
 H  H16  1  0.35781  0.31956  0.60833  1
 H  H17  1  0.22134  0.31805  0.37167  1
 H  H18  1  0.64219  0.68044  0.39167  1
 H  H19  1  0.53370  0.27995  0.91061  1
 H  H20  1  0.46630  0.72005  0.08939  1
 H  H21  1  0.28375  0.31156  0.95165  1
 H  H22  1  0.77866  0.68195  0.62833  1
 H  H23  1  0.88583  0.40048  0.99180  1
 H  H24  1  0.11417  0.59952  0.00820  1
 H  H25  1  0.15162  0.52663  0.21600  1
 H  H26  1  0.84838  0.47337  0.78400  1
 H  H27  1  0.71625  0.68844  0.04835  1
 H  H28  1  0.71850  0.45367  0.36272  1
 O  O1  1  0.43090  0.87628  0.60144  1
 O  O2  1  0.78538  0.19661  0.92040  1
 O  O3  1  0.21462  0.80339  0.07960  1
 O  O4  1  0.15963  0.12190  0.97797  1
 O  O5  1  0.94508  0.15795  0.28387  1
 O  O6  1  0.05206  0.29734  0.09037  1
 O  O7  1  0.94794  0.70266  0.90963  1
 O  O8  1  0.05492  0.84205  0.71613  1
 O  O9  1  0.63398  0.69498  0.55268  1
 O  O10  1  0.84037  0.87810  0.02203  1
 O  O11  1  0.76964  0.93191  0.42401  1
 O  O12  1  0.42152  0.55734  0.71434  1
 O  O13  1  0.40355  0.32828  0.87038  1
 O  O14  1  0.23036  0.06809  0.57599  1
 O  O15  1  0.79787  0.46218  0.92768  1
 O  O16  1  0.59645  0.67172  0.12962  1
 O  O17  1  0.57848  0.44266  0.28566  1
 O  O18  1  0.62359  0.02722  0.78434  1
 O  O19  1  0.37641  0.97278  0.21566  1
 O  O20  1  0.56910  0.12372  0.39856  1
 O  O21  1  0.20213  0.53782  0.07232  1
 O  O22  1  0.36602  0.30502  0.44732  1
 S  S1  1  0.98374  0.19343  0.06691  1
 S  S2  1  0.01626  0.80657  0.93309  1
