CIF file written using JARVIS-Tools package.
data_MnO2
_symmetry_space_group_name_H-M  'C2/m'
_cell_length_a       2.87142
_cell_length_b       8.84956
_cell_length_c       7.09577
_cell_angle_alpha    88.5585
_cell_angle_beta     101.674
_cell_angle_gamma    90.0012

_symmetry_Int_Tables_number  12
_chemical_formula_structural  MnO2
_chemical_formula_sum  Mn6O2
_cell_volume  176.52102071474542
_cell_formula_units_Z  6
loop_
  _symmetry_equiv_pos_site_id
 _symmetry_equiv_pos_as_xyz
 1  'x, y, z'
loop_
 _atom_site_type_symbol
 _atom_site_label
 _atom_site_symmetry_multiplicity
 _atom_site_fract_x
 _atom_site_fract_y
 _atom_site_fract_z
 _atom_site_fract_occupancy
 Mn  Mn1  1  0.34275  0.25710  0.67982  1
 Mn  Mn2  1  0.34261  0.75707  0.67980  1
 Mn  Mn3  1  0.66181  0.24465  0.31792  1
 Mn  Mn4  1  0.66167  0.74466  0.31789  1
 Mn  Mn5  1  0.00222  0.00087  0.99884  1
 Mn  Mn6  1  0.00223  0.50086  0.99886  1
 O  O1  1  0.55977  0.10519  0.11393  1
 O  O2  1  0.55972  0.60522  0.11389  1
 O  O3  1  0.77755  0.35931  0.54942  1
 O  O4  1  0.44467  0.89654  0.88378  1
 O  O5  1  0.44472  0.39651  0.88384  1
 O  O6  1  0.89651  0.64418  0.78757  1
 O  O7  1  0.89665  0.14424  0.78762  1
 O  O8  1  0.10790  0.35752  0.21012  1
 O  O9  1  0.22701  0.14245  0.44831  1
 O  O10  1  0.22686  0.64244  0.44827  1
 O  O11  1  0.10778  0.85752  0.21009  1
 O  O12  1  0.77742  0.85928  0.54942  1
