CIF file written using JARVIS-Tools package.
data_Y4CoB13
_symmetry_space_group_name_H-M  'P4/mnc'
_cell_length_a       7.31241
_cell_length_b       7.31241
_cell_length_c       6.94581
_cell_angle_alpha    90
_cell_angle_beta     90
_cell_angle_gamma    90

_symmetry_Int_Tables_number  128
_chemical_formula_structural  Y4CoB13
_chemical_formula_sum  Y8Co2B26
_cell_volume  371.40188347206123
_cell_formula_units_Z  2
loop_
  _symmetry_equiv_pos_site_id
 _symmetry_equiv_pos_as_xyz
 1  'x, y, z'
loop_
 _atom_site_type_symbol
 _atom_site_label
 _atom_site_symmetry_multiplicity
 _atom_site_fract_x
 _atom_site_fract_y
 _atom_site_fract_z
 _atom_site_fract_occupancy
 B  B1  1  0.46076  0.66977  0.75460  1
 B  B2  1  0.16977  0.96076  0.74540  1
 B  B3  1  0.16977  0.96076  0.25460  1
 B  B4  1  0.90895  0.59105  0.75000  1
 B  B5  1  0.03924  0.16977  0.25460  1
 B  B6  1  0.40895  0.90895  0.75000  1
 B  B7  1  0.09105  0.40895  0.75000  1
 B  B8  1  0.53924  0.33023  0.24540  1
 B  B9  1  0.33023  0.46076  0.75460  1
 B  B10  1  0.59105  0.09105  0.25000  1
 B  B11  1  0.90895  0.59105  0.25000  1
 B  B12  1  0.09105  0.40895  0.25000  1
 B  B13  1  0.40895  0.90895  0.25000  1
 B  B14  1  0.50000  0.50000  0.00000  1
 B  B15  1  0.00000  0.00000  0.50000  1
 B  B16  1  0.59105  0.09105  0.75000  1
 B  B17  1  0.53924  0.33023  0.75460  1
 B  B18  1  0.66977  0.53924  0.75460  1
 B  B19  1  0.83023  0.03924  0.74540  1
 B  B20  1  0.03924  0.16977  0.74540  1
 B  B21  1  0.96076  0.83023  0.74540  1
 B  B22  1  0.33023  0.46076  0.24540  1
 B  B23  1  0.66977  0.53924  0.24540  1
 B  B24  1  0.96076  0.83023  0.25460  1
 B  B25  1  0.46076  0.66977  0.24540  1
 B  B26  1  0.83023  0.03924  0.25460  1
 Co  Co1  1  0.00000  0.00000  0.00000  1
 Co  Co2  1  0.50000  0.50000  0.50000  1
 Y  Y1  1  0.81892  0.31594  0.50000  1
 Y  Y2  1  0.18108  0.68406  0.50000  1
 Y  Y3  1  0.81594  0.31892  0.00000  1
 Y  Y4  1  0.31594  0.18108  0.50000  1
 Y  Y5  1  0.68406  0.81892  0.50000  1
 Y  Y6  1  0.68108  0.81594  0.00000  1
 Y  Y7  1  0.31892  0.18406  0.00000  1
 Y  Y8  1  0.18406  0.68108  0.00000  1
