CIF file written using JARVIS-Tools package.
data_As3HO6
_symmetry_space_group_name_H-M  'Pc'
_cell_length_a       12.5566
_cell_length_b       5.18981
_cell_length_c       9.41023
_cell_angle_alpha    90
_cell_angle_beta     119.752
_cell_angle_gamma    90

_symmetry_Int_Tables_number  7
_chemical_formula_structural  As3HO6
_chemical_formula_sum  As2H4O24
_cell_volume  532.3960880221737
_cell_formula_units_Z  4
loop_
  _symmetry_equiv_pos_site_id
 _symmetry_equiv_pos_as_xyz
 1  'x, y, z'
loop_
 _atom_site_type_symbol
 _atom_site_label
 _atom_site_symmetry_multiplicity
 _atom_site_fract_x
 _atom_site_fract_y
 _atom_site_fract_z
 _atom_site_fract_occupancy
 As  As1  1  0.91035  0.11339  0.61750  1
 As  As2  1  0.06922  0.53603  0.92336  1
 As  As3  1  0.06922  0.96397  0.42336  1
 As  As4  1  0.91035  0.38661  0.11750  1
 As  As5  1  0.41680  0.60612  0.45896  1
 As  As6  1  0.57156  0.35625  0.79383  1
 As  As7  1  0.57156  0.14375  0.29383  1
 As  As8  1  0.41680  -0.10612  -0.04104  1
 As  As9  1  0.23675  0.36069  0.73865  1
 As  As10  1  0.76013  0.87242  0.79254  1
 As  As11  1  0.76013  0.62758  0.29254  1
 As  As12  1  0.23675  0.13931  0.23865  1
 H  H1  1  0.06676  0.01375  0.88486  1
 H  H2  1  0.06676  0.48625  0.38486  1
 H  H3  1  0.59913  0.92854  0.96123  1
 H  H4  1  0.59913  0.57146  0.46123  1
 O  O1  1  0.03493  -0.08404  0.77900  1
 O  O2  1  0.93751  0.38509  0.76287  1
 O  O3  1  0.93751  0.11491  0.26287  1
 O  O4  1  0.64572  0.85764  0.20518  1
 O  O5  1  0.10364  0.31862  0.55192  1
 O  O6  1  0.89275  0.78500  0.95612  1
 O  O7  1  0.89275  0.71500  0.45612  1
 O  O8  1  0.10364  0.18138  0.05192  1
 O  O9  1  0.34447  0.55022  0.73787  1
 O  O10  1  0.70838  0.14419  0.85443  1
 O  O11  1  0.03493  0.58404  0.27900  1
 O  O12  1  0.77282  0.52224  0.12332  1
 O  O13  1  0.47440  0.28882  0.58210  1
 O  O14  1  0.51646  0.95590  0.86638  1
 O  O15  1  0.51646  0.54410  0.36638  1
 O  O16  1  0.47440  0.21118  0.08210  1
 O  O17  1  0.19814  0.47309  0.88280  1
 O  O18  1  0.77282  -0.02224  0.62332  1
 O  O19  1  0.70838  0.35581  0.35443  1
 O  O20  1  0.19814  0.02691  0.38280  1
 O  O21  1  0.27985  0.03732  0.78917  1
 O  O22  1  0.64572  0.64236  0.70518  1
 O  O23  1  0.34447  0.94978  0.23787  1
 O  O24  1  0.27985  0.46268  0.28917  1
