CIF file written using JARVIS-Tools package.
data_H6N4O9
_symmetry_space_group_name_H-M  'P2_1'
_cell_length_a       5.9755
_cell_length_b       14.0215
_cell_length_c       4.36092
_cell_angle_alpha    90
_cell_angle_beta     87.3193
_cell_angle_gamma    90

_symmetry_Int_Tables_number  4
_chemical_formula_structural  H6N4O9
_chemical_formula_sum  H2N8O8
_cell_volume  364.98139735607424
_cell_formula_units_Z  2
loop_
  _symmetry_equiv_pos_site_id
 _symmetry_equiv_pos_as_xyz
 1  'x, y, z'
loop_
 _atom_site_type_symbol
 _atom_site_label
 _atom_site_symmetry_multiplicity
 _atom_site_fract_x
 _atom_site_fract_y
 _atom_site_fract_z
 _atom_site_fract_occupancy
 H  H1  1  0.01094  -0.01078  0.72145  1
 H  H2  1  -0.01094  0.48922  0.77855  1
 H  H3  1  0.03413  0.00312  0.10216  1
 H  H4  1  0.25808  0.03078  0.85389  1
 H  H5  1  0.74192  0.53078  0.64611  1
 H  H6  1  0.96587  0.50312  0.39784  1
 H  H7  1  0.81866  0.41785  0.58164  1
 H  H8  1  0.18134  0.91785  -0.08164  1
 H  H9  1  0.77632  0.82355  0.62643  1
 H  H10  1  0.78158  0.17355  0.40580  1
 H  H11  1  0.21842  0.67355  0.09420  1
 H  H12  1  0.22368  0.32355  0.87357  1
 N  N1  1  0.39717  0.49542  0.00983  1
 N  N2  1  0.12187  -0.01374  -0.10027  1
 N  N3  1  0.60283  0.99542  0.49017  1
 N  N4  1  0.87813  0.48626  0.60027  1
 N  N5  1  0.76082  0.73915  -0.02166  1
 N  N6  1  0.78474  0.25473  0.04957  1
 N  N7  1  0.23918  0.23915  0.52166  1
 N  N8  1  0.21526  0.75473  0.45043  1
 O  O1  1  0.24788  0.66547  0.31564  1
 O  O2  1  0.80774  -0.03049  0.42471  1
 O  O3  1  0.19226  0.46951  0.07529  1
 O  O4  1  0.44485  0.95328  0.36826  1
 O  O5  1  0.56742  0.06239  0.68246  1
 O  O6  1  0.43258  0.56239  0.81754  1
 O  O7  1  0.55515  0.45328  0.13174  1
 O  O8  1  0.68125  0.73051  0.23940  1
 O  O9  1  0.31875  0.23051  0.26060  1
 O  O10  1  0.87247  0.68091  -0.17446  1
 O  O11  1  0.89068  0.31431  0.18953  1
 O  O12  1  0.10932  0.81431  0.31047  1
 O  O13  1  0.12753  0.18091  0.67446  1
 O  O14  1  0.72289  0.82838  -0.15457  1
 O  O15  1  0.75212  0.16547  0.18436  1
 O  O16  1  0.70849  0.26365  0.79558  1
 O  O17  1  0.29151  0.76365  0.70442  1
 O  O18  1  0.27711  0.32838  0.65457  1
