CIF file written using JARVIS-Tools package.
data_Cu5Se2Cl2O8
_symmetry_space_group_name_H-M  'P2_1/c'
_cell_length_a       5.63978
_cell_length_b       6.09071
_cell_length_c       13.6755
_cell_angle_alpha    90
_cell_angle_beta     90
_cell_angle_gamma    95.4262

_symmetry_Int_Tables_number  14
_chemical_formula_structural  Cu5Se2Cl2O8
_chemical_formula_sum  Cu0Se4Cl4O6
_cell_volume  467.65382766518894
_cell_formula_units_Z  2
loop_
  _symmetry_equiv_pos_site_id
 _symmetry_equiv_pos_as_xyz
 1  'x, y, z'
loop_
 _atom_site_type_symbol
 _atom_site_label
 _atom_site_symmetry_multiplicity
 _atom_site_fract_x
 _atom_site_fract_y
 _atom_site_fract_z
 _atom_site_fract_occupancy
 Cl  Cl1  1  0.76341  0.67836  0.32371  1
 Cl  Cl2  1  0.26341  0.67836  0.17629  1
 Cl  Cl3  1  0.73659  0.32164  0.82371  1
 Cl  Cl4  1  0.23659  0.32164  0.67629  1
 Cu  Cu1  1  0.04615  0.43102  0.31166  1
 Cu  Cu2  1  0.45385  0.56898  0.81166  1
 Cu  Cu3  1  0.50980  0.74384  0.00217  1
 Cu  Cu4  1  0.99020  0.25616  0.50217  1
 Cu  Cu5  1  0.49020  0.25616  0.99783  1
 Cu  Cu6  1  0.50000  0.50000  0.50000  1
 Cu  Cu7  1  0.00000  0.50000  0.00000  1
 Cu  Cu8  1  0.95385  0.56898  0.68834  1
 Cu  Cu9  1  0.54615  0.43102  0.18834  1
 Cu  Cu10  1  0.00980  0.74384  0.49783  1
 O  O1  1  0.07642  0.22784  0.05844  1
 O  O2  1  0.42358  0.77216  0.55844  1
 O  O3  1  0.19089  0.75418  0.77482  1
 O  O4  1  0.18011  0.50592  0.44077  1
 O  O5  1  0.31989  0.49408  0.94077  1
 O  O6  1  0.81989  0.49408  0.55923  1
 O  O7  1  0.68011  0.50592  0.05923  1
 O  O8  1  0.13192  0.02136  0.42741  1
 O  O9  1  0.36808  0.97864  0.92741  1
 O  O10  1  0.57642  0.22784  0.44156  1
 O  O11  1  0.63192  0.02136  0.07259  1
 O  O12  1  0.92358  0.77216  0.94156  1
 O  O13  1  0.80911  0.24582  0.22518  1
 O  O14  1  0.69089  0.75418  0.72518  1
 O  O15  1  0.86808  0.97864  0.57259  1
 O  O16  1  0.30911  0.24582  0.27482  1
 Se  Se1  1  0.09651  0.94092  0.86247  1
 Se  Se2  1  0.59651  0.94092  0.63753  1
 Se  Se3  1  0.90349  0.05908  0.13753  1
 Se  Se4  1  0.40349  0.05908  0.36247  1
