CIF file written using JARVIS-Tools package.
data_FeTeS2N2Cl5
_symmetry_space_group_name_H-M  'P2_1/c'
_cell_length_a       7.36962
_cell_length_b       12.1481
_cell_length_c       12.3776
_cell_angle_alpha    90
_cell_angle_beta     97.3921
_cell_angle_gamma    90

_symmetry_Int_Tables_number  14
_chemical_formula_structural  FeTeS2N2Cl5
_chemical_formula_sum  Fe4Te4S8N8Cl20
_cell_volume  1098.9215818088953
_cell_formula_units_Z  4
loop_
  _symmetry_equiv_pos_site_id
 _symmetry_equiv_pos_as_xyz
 1  'x, y, z'
loop_
 _atom_site_type_symbol
 _atom_site_label
 _atom_site_symmetry_multiplicity
 _atom_site_fract_x
 _atom_site_fract_y
 _atom_site_fract_z
 _atom_site_fract_occupancy
 Cl  Cl1  1  0.53265  0.29657  0.12746  1
 Cl  Cl2  1  0.86201  0.49661  0.64896  1
 Cl  Cl3  1  0.46735  0.79657  0.37254  1
 Cl  Cl4  1  0.94543  0.76253  0.39683  1
 Cl  Cl5  1  0.73370  0.82847  0.63883  1
 Cl  Cl6  1  0.23686  0.96836  0.57057  1
 Cl  Cl7  1  0.76314  0.46836  0.92943  1
 Cl  Cl8  1  0.94543  0.73747  0.89683  1
 Cl  Cl9  1  0.23686  0.53164  0.07057  1
 Cl  Cl10  1  0.76314  0.03164  0.42943  1
 Cl  Cl11  1  0.73370  0.67153  0.13883  1
 Cl  Cl12  1  0.13799  0.50339  0.35104  1
 Cl  Cl13  1  0.86201  0.00339  0.14896  1
 Cl  Cl14  1  0.26630  0.17153  0.36117  1
 Cl  Cl15  1  0.05457  0.26253  0.10317  1
 Cl  Cl16  1  0.05457  0.23747  0.60317  1
 Cl  Cl17  1  0.13799  0.99661  0.85104  1
 Cl  Cl18  1  0.53265  0.20343  0.62746  1
 Cl  Cl19  1  0.26630  0.32847  0.86117  1
 Cl  Cl20  1  0.46735  0.70343  0.87254  1
 Fe  Fe1  1  0.72750  0.85700  0.46161  1
 Fe  Fe2  1  0.27250  0.35700  0.03839  1
 Fe  Fe3  1  0.27250  0.14300  0.53839  1
 Fe  Fe4  1  0.72750  0.64300  0.96161  1
 N  N1  1  0.84352  0.19434  0.82830  1
 N  N2  1  0.84352  0.30566  0.32830  1
 N  N3  1  0.40332  0.58598  0.57941  1
 N  N4  1  0.40332  0.91402  0.07941  1
 N  N5  1  0.59668  0.41402  0.42059  1
 N  N6  1  0.15648  0.80566  0.17170  1
 N  N7  1  0.59668  0.08598  0.92059  1
 N  N8  1  0.15648  0.69434  0.67170  1
 S  S1  1  0.29405  0.80327  0.08520  1
 S  S2  1  0.37884  0.01871  0.15817  1
 S  S3  1  0.70595  0.30327  0.41480  1
 S  S4  1  0.62116  0.51871  0.34183  1
 S  S5  1  0.29405  0.69673  0.58520  1
 S  S6  1  0.37884  0.48129  0.65817  1
 S  S7  1  0.62116  0.98129  0.84183  1
 S  S8  1  0.70595  0.19673  0.91480  1
 Te  Te1  1  0.86497  0.06026  0.73892  1
 Te  Te2  1  0.86497  0.43974  0.23892  1
 Te  Te3  1  0.13503  0.93974  0.26108  1
 Te  Te4  1  0.13503  0.56026  0.76108  1
