CIF file written using JARVIS-Tools package.
data_AlF3
_symmetry_space_group_name_H-M  'R-3c'
_cell_length_a       5.06151
_cell_length_b       5.06153
_cell_length_c       5.06154
_cell_angle_alpha    57.4856
_cell_angle_beta     57.4861
_cell_angle_gamma    57.4861

_symmetry_Int_Tables_number  167
_chemical_formula_structural  AlF3
_chemical_formula_sum  Al2F6
_cell_volume  86.38953280854541
_cell_formula_units_Z  2
loop_
  _symmetry_equiv_pos_site_id
 _symmetry_equiv_pos_as_xyz
 1  'x, y, z'
loop_
 _atom_site_type_symbol
 _atom_site_label
 _atom_site_symmetry_multiplicity
 _atom_site_fract_x
 _atom_site_fract_y
 _atom_site_fract_z
 _atom_site_fract_occupancy
 Al  Al1  1  0.99995  0.00001  0.00004  1
 Al  Al2  1  0.49995  0.50001  0.50004  1
 F  F1  1  0.84897  0.25003  0.65102  1
 F  F2  1  0.24996  0.65099  0.84906  1
 F  F3  1  0.65092  0.84903  0.25006  1
 F  F4  1  0.15092  0.74999  0.34907  1
 F  F5  1  0.74993  0.34903  0.15102  1
 F  F6  1  0.34897  0.15099  0.75003  1
