CIF file written using JARVIS-Tools package.
data_RbNa5Be8O11
_symmetry_space_group_name_H-M  'P-1'
_cell_length_a       6.4584
_cell_length_b       9.49767
_cell_length_c       10.6122
_cell_angle_alpha    64.2014
_cell_angle_beta     89.4193
_cell_angle_gamma    70.0343

_symmetry_Int_Tables_number  2
_chemical_formula_structural  RbNa5Be8O11
_chemical_formula_sum  Rb2Na0Be6O22
_cell_volume  543.4217345463375
_cell_formula_units_Z  2
loop_
  _symmetry_equiv_pos_site_id
 _symmetry_equiv_pos_as_xyz
 1  'x, y, z'
loop_
 _atom_site_type_symbol
 _atom_site_label
 _atom_site_symmetry_multiplicity
 _atom_site_fract_x
 _atom_site_fract_y
 _atom_site_fract_z
 _atom_site_fract_occupancy
 Be  Be1  1  0.44682  0.08783  0.27563  1
 Be  Be2  1  0.49439  0.40762  0.25344  1
 Be  Be3  1  0.90609  0.84480  0.29829  1
 Be  Be4  1  0.55318  0.91217  0.72437  1
 Be  Be5  1  0.72364  0.61303  0.14812  1
 Be  Be6  1  0.78194  0.10959  0.64422  1
 Be  Be7  1  0.38516  0.21496  0.72758  1
 Be  Be8  1  0.61484  0.78504  0.27242  1
 Be  Be9  1  0.66698  0.28114  0.75957  1
 Be  Be10  1  0.33302  0.71886  0.24043  1
 Be  Be11  1  0.09391  0.15520  0.70171  1
 Be  Be12  1  0.96005  0.34377  0.78437  1
 Be  Be13  1  0.03995  0.65623  0.21563  1
 Be  Be14  1  0.21806  0.89041  0.35578  1
 Be  Be15  1  0.50561  0.59238  0.74656  1
 Be  Be16  1  0.27636  0.38697  0.85188  1
 Na  Na1  1  0.74910  0.94544  0.97356  1
 Na  Na2  1  0.74118  0.73283  0.53990  1
 Na  Na3  1  0.24773  0.55355  0.51785  1
 Na  Na4  1  0.90969  0.63683  0.85743  1
 Na  Na5  1  0.12777  0.86000  0.62797  1
 Na  Na6  1  0.09031  0.36317  0.14257  1
 Na  Na7  1  0.75227  0.44645  0.48215  1
 Na  Na8  1  0.87223  0.14000  0.37203  1
 Na  Na9  1  0.25090  0.05456  0.02644  1
 Na  Na10  1  0.25882  0.26717  0.46010  1
 O  O1  1  0.63822  0.96085  0.24397  1
 O  O2  1  0.48398  0.23066  0.86225  1
 O  O3  1  0.43568  0.73436  0.37671  1
 O  O4  1  0.06978  0.84811  0.17666  1
 O  O5  1  0.46957  0.24131  0.28154  1
 O  O6  1  0.01801  0.85130  0.42859  1
 O  O7  1  0.36178  0.03915  0.75603  1
 O  O8  1  0.12298  0.34263  0.66412  1
 O  O9  1  0.87702  0.65737  0.33588  1
 O  O10  1  0.53043  0.75869  0.71846  1
 O  O11  1  0.93170  0.64461  0.08531  1
 O  O12  1  0.98199  0.14870  0.57141  1
 O  O13  1  0.06830  0.35539  0.91469  1
 O  O14  1  0.78551  0.92734  0.71609  1
 O  O15  1  0.93022  0.15189  0.82334  1
 O  O16  1  0.30520  0.54049  0.27977  1
 O  O17  1  0.69480  0.45951  0.72023  1
 O  O18  1  0.71190  0.43569  0.20843  1
 O  O19  1  0.56432  0.26564  0.62329  1
 O  O20  1  0.51602  0.76934  0.13775  1
 O  O21  1  0.21449  0.07266  0.28391  1
 O  O22  1  0.28810  0.56431  0.79157  1
 Rb  Rb1  1  0.24832  0.76467  0.93832  1
 Rb  Rb2  1  0.75168  0.23533  0.06168  1
