CIF file written using JARVIS-Tools package.
data_Sm3SiCuSe7
_symmetry_space_group_name_H-M  'P3'
_cell_length_a       10.4852
_cell_length_b       10.4852
_cell_length_c       6.03276
_cell_angle_alpha    90
_cell_angle_beta     90
_cell_angle_gamma    120

_symmetry_Int_Tables_number  143
_chemical_formula_structural  Sm3SiCuSe7
_chemical_formula_sum  Sm6Si2Cu2Se4
_cell_volume  574.3831555899894
_cell_formula_units_Z  2
loop_
  _symmetry_equiv_pos_site_id
 _symmetry_equiv_pos_as_xyz
 1  'x, y, z'
loop_
 _atom_site_type_symbol
 _atom_site_label
 _atom_site_symmetry_multiplicity
 _atom_site_fract_x
 _atom_site_fract_y
 _atom_site_fract_z
 _atom_site_fract_occupancy
 Cu  Cu1  1  0.33333  0.66667  0.33189  1
 Cu  Cu2  1  0.00000  0.00000  0.21032  1
 Se  Se1  1  0.58085  0.47863  0.98358  1
 Se  Se2  1  0.89779  0.41915  0.98358  1
 Se  Se3  1  0.52137  0.10221  0.98358  1
 Se  Se4  1  0.90471  0.74047  0.72417  1
 Se  Se5  1  0.83577  0.09529  0.72417  1
 Se  Se6  1  0.33333  0.66667  0.95609  1
 Se  Se7  1  0.66667  0.33333  0.45609  1
 Se  Se8  1  0.41915  0.52137  0.48359  1
 Se  Se9  1  0.74047  0.83577  0.22417  1
 Se  Se10  1  0.09529  0.25953  0.22417  1
 Se  Se11  1  0.10221  0.58085  0.48359  1
 Se  Se12  1  0.25953  0.16423  0.72417  1
 Se  Se13  1  0.16423  0.90471  0.22417  1
 Se  Se14  1  0.47863  0.89779  0.48359  1
 Si  Si1  1  0.00000  0.00000  0.71031  1
 Si  Si2  1  0.66667  0.33333  0.83190  1
 Sm  Sm1  1  0.77381  0.12987  0.24464  1
 Sm  Sm2  1  0.12987  0.35606  0.74464  1
 Sm  Sm3  1  0.87013  0.64394  0.24464  1
 Sm  Sm4  1  0.35606  0.22619  0.24464  1
 Sm  Sm5  1  0.22619  0.87013  0.74464  1
 Sm  Sm6  1  0.64394  0.77381  0.74464  1
