CIF file written using JARVIS-Tools package.
data_GaCuTe2
_symmetry_space_group_name_H-M  'R3m'
_cell_length_a       7.42957
_cell_length_b       7.42957
_cell_length_c       7.42957
_cell_angle_alpha    33.808
_cell_angle_beta     33.808
_cell_angle_gamma    33.808

_symmetry_Int_Tables_number  160
_chemical_formula_structural  GaCuTe2
_chemical_formula_sum  GaCuTe2
_cell_volume  113.13716942509708
_cell_formula_units_Z  1
loop_
  _symmetry_equiv_pos_site_id
 _symmetry_equiv_pos_as_xyz
 1  'x, y, z'
loop_
 _atom_site_type_symbol
 _atom_site_label
 _atom_site_symmetry_multiplicity
 _atom_site_fract_x
 _atom_site_fract_y
 _atom_site_fract_z
 _atom_site_fract_occupancy
 Cu  Cu1  1  0.99197  0.99197  0.99197  1
 Ga  Ga1  1  0.50778  0.50778  0.50778  1
 Te  Te1  1  0.11834  0.11834  0.11834  1
 Te  Te2  1  0.63190  0.63190  0.63190  1
