CIF file written using JARVIS-Tools package.
data_ErSn3
_symmetry_space_group_name_H-M  'Amm2'
_cell_length_a       4.40449
_cell_length_b       4.43635
_cell_length_c       11.2478
_cell_angle_alpha    101.374
_cell_angle_beta     90
_cell_angle_gamma    90

_symmetry_Int_Tables_number  38
_chemical_formula_structural  ErSn3
_chemical_formula_sum  Er2Sn6
_cell_volume  215.46360401145247
_cell_formula_units_Z  2
loop_
  _symmetry_equiv_pos_site_id
 _symmetry_equiv_pos_as_xyz
 1  'x, y, z'
loop_
 _atom_site_type_symbol
 _atom_site_label
 _atom_site_symmetry_multiplicity
 _atom_site_fract_x
 _atom_site_fract_y
 _atom_site_fract_z
 _atom_site_fract_occupancy
 Er  Er1  1  0.50000  0.48220  0.96440  1
 Er  Er2  1  0.00000  0.20942  0.41885  1
 Sn  Sn1  1  0.50000  0.09829  0.19654  1
 Sn  Sn2  1  0.50000  0.73436  0.46874  1
 Sn  Sn3  1  0.50000  0.86930  0.73864  1
 Sn  Sn4  1  0.00000  0.97621  0.95241  1
 Sn  Sn5  1  0.00000  0.35792  0.71585  1
 Sn  Sn6  1  0.00000  0.59830  0.19657  1
