CIF file written using JARVIS-Tools package.
data_Li3ScN2
_symmetry_space_group_name_H-M  'Ia-3'
_cell_length_a       8.65829
_cell_length_b       8.65829
_cell_length_c       8.65829
_cell_angle_alpha    109.471
_cell_angle_beta     109.471
_cell_angle_gamma    109.471

_symmetry_Int_Tables_number  206
_chemical_formula_structural  Li3ScN2
_chemical_formula_sum  Li24Sc8N6
_cell_volume  499.6598593454478
_cell_formula_units_Z  8
loop_
  _symmetry_equiv_pos_site_id
 _symmetry_equiv_pos_as_xyz
 1  'x, y, z'
loop_
 _atom_site_type_symbol
 _atom_site_label
 _atom_site_symmetry_multiplicity
 _atom_site_fract_x
 _atom_site_fract_y
 _atom_site_fract_z
 _atom_site_fract_occupancy
 Li  Li1  1  0.46205  0.23613  0.00364  1
 Li  Li2  1  0.26387  0.72591  0.76750  1
 Li  Li3  1  0.00364  0.46205  0.23613  1
 Li  Li4  1  0.72591  0.76750  0.26387  1
 Li  Li5  1  0.77409  0.03795  0.04159  1
 Li  Li6  1  0.73250  0.45841  0.49636  1
 Li  Li7  1  0.45841  0.49636  0.73250  1
 Li  Li8  1  0.23613  0.00364  0.46205  1
 Li  Li9  1  0.76750  0.26387  0.72591  1
 Li  Li10  1  0.50364  0.26750  0.54159  1
 Li  Li11  1  0.96205  0.95841  0.22591  1
 Li  Li12  1  0.73613  0.27409  0.23250  1
 Li  Li13  1  0.04159  0.77409  0.03795  1
 Li  Li14  1  0.95841  0.22591  0.96205  1
 Li  Li15  1  0.23250  0.73613  0.27409  1
 Li  Li16  1  0.76387  0.99636  0.53795  1
 Li  Li17  1  0.54159  0.50364  0.26750  1
 Li  Li18  1  0.26750  0.54159  0.50364  1
 Li  Li19  1  0.22591  0.96205  0.95841  1
 Li  Li20  1  0.27409  0.23250  0.73613  1
 Li  Li21  1  0.99636  0.53795  0.76387  1
 Li  Li22  1  0.49636  0.73250  0.45841  1
 Li  Li23  1  0.03795  0.04159  0.77409  1
 Li  Li24  1  0.53795  0.76387  0.99636  1
 N  N1  1  0.23818  0.25000  0.48818  1
 N  N2  1  0.48818  0.23818  0.25000  1
 N  N3  1  0.25000  0.48818  0.23818  1
 N  N4  1  0.01182  0.26182  0.75000  1
 N  N5  1  0.00000  0.00000  0.00000  1
 N  N6  1  0.50000  0.50000  0.00000  1
 N  N7  1  0.50000  0.00000  0.50000  1
 N  N8  1  0.00000  0.50000  0.50000  1
 N  N9  1  0.75000  0.01182  0.26182  1
 N  N10  1  0.76182  0.75000  0.51182  1
 N  N11  1  0.75000  0.51182  0.76182  1
 N  N12  1  0.25000  0.98818  0.73818  1
 N  N13  1  0.73818  0.25000  0.98818  1
 N  N14  1  0.51182  0.76182  0.75000  1
 N  N15  1  0.26182  0.75000  0.01182  1
 N  N16  1  0.98818  0.73818  0.25000  1
 Sc  Sc1  1  -0.00000  0.25626  0.50000  1
 Sc  Sc2  1  0.25626  0.50000  0.00000  1
 Sc  Sc3  1  0.75626  0.75626  0.75626  1
 Sc  Sc4  1  0.00000  0.74374  0.50000  1
 Sc  Sc5  1  0.50000  -0.00000  0.74374  1
 Sc  Sc6  1  0.74374  0.50000  -0.00000  1
 Sc  Sc7  1  0.24374  0.24374  0.24374  1
 Sc  Sc8  1  0.50000  0.00000  0.25626  1
