CIF file written using JARVIS-Tools package.
data_K2PtO6
_symmetry_space_group_name_H-M  'R-3'
_cell_length_a       4.89419
_cell_length_b       4.89419
_cell_length_c       4.89419
_cell_angle_alpha    82.9503
_cell_angle_beta     82.9503
_cell_angle_gamma    82.9503

_symmetry_Int_Tables_number  148
_chemical_formula_structural  K2PtO6
_chemical_formula_sum  K2PtO6
_cell_volume  114.77314566793618
_cell_formula_units_Z  1
loop_
  _symmetry_equiv_pos_site_id
 _symmetry_equiv_pos_as_xyz
 1  'x, y, z'
loop_
 _atom_site_type_symbol
 _atom_site_label
 _atom_site_symmetry_multiplicity
 _atom_site_fract_x
 _atom_site_fract_y
 _atom_site_fract_z
 _atom_site_fract_occupancy
 K  K1  1  0.64976  0.64976  0.64976  1
 K  K2  1  0.35024  0.35024  0.35024  1
 O  O1  1  0.91949  0.09784  0.59402  1
 O  O2  1  0.59402  0.91949  0.09784  1
 O  O3  1  0.09784  0.59402  0.91949  1
 O  O4  1  0.08051  0.90216  0.40598  1
 O  O5  1  0.40598  0.08051  0.90216  1
 O  O6  1  0.90216  0.40598  0.08051  1
 Pt  Pt1  1  0.00000  0.00000  0.00000  1
