CIF file written using JARVIS-Tools package.
data_CoOF
_symmetry_space_group_name_H-M  'P4_12_12'
_cell_length_a       4.442
_cell_length_b       4.442
_cell_length_c       5.99431
_cell_angle_alpha    90
_cell_angle_beta     90
_cell_angle_gamma    90

_symmetry_Int_Tables_number  92
_chemical_formula_structural  CoOF
_chemical_formula_sum  Co4O4F4
_cell_volume  118.27586873146745
_cell_formula_units_Z  4
loop_
  _symmetry_equiv_pos_site_id
 _symmetry_equiv_pos_as_xyz
 1  'x, y, z'
loop_
 _atom_site_type_symbol
 _atom_site_label
 _atom_site_symmetry_multiplicity
 _atom_site_fract_x
 _atom_site_fract_y
 _atom_site_fract_z
 _atom_site_fract_occupancy
 Co  Co1  1  0.03042  0.03042  0.00000  1
 Co  Co2  1  0.96958  0.96958  0.50000  1
 Co  Co3  1  0.46958  0.53042  0.25000  1
 Co  Co4  1  0.53042  0.46958  0.75000  1
 F  F1  1  0.77922  0.22078  0.25000  1
 F  F2  1  0.72078  0.72078  0.00000  1
 F  F3  1  0.27922  0.27922  0.50000  1
 F  F4  1  0.22078  0.77922  0.75000  1
 O  O1  1  0.81923  0.18077  0.75000  1
 O  O2  1  0.68077  0.68077  0.50000  1
 O  O3  1  0.31923  0.31923  0.00000  1
 O  O4  1  0.18077  0.81923  0.25000  1
