CIF file written using JARVIS-Tools package.
data_NdInNi
_symmetry_space_group_name_H-M  'P-62m'
_cell_length_a       3.9349
_cell_length_b       7.55672
_cell_length_c       7.55702
_cell_angle_alpha    119.999
_cell_angle_beta     90
_cell_angle_gamma    90

_symmetry_Int_Tables_number  189
_chemical_formula_structural  NdInNi
_chemical_formula_sum  Nd3In3Ni3
_cell_volume  194.60483834004555
_cell_formula_units_Z  3
loop_
  _symmetry_equiv_pos_site_id
 _symmetry_equiv_pos_as_xyz
 1  'x, y, z'
loop_
 _atom_site_type_symbol
 _atom_site_label
 _atom_site_symmetry_multiplicity
 _atom_site_fract_x
 _atom_site_fract_y
 _atom_site_fract_z
 _atom_site_fract_occupancy
 In  In1  1  0.00000  0.24854  0.00000  1
 In  In2  1  0.00000  0.75145  0.75147  1
 In  In3  1  0.00000  -0.00002  0.24853  1
 Nd  Nd1  1  0.50000  0.58688  0.00000  1
 Nd  Nd2  1  0.50000  0.41311  0.41314  1
 Nd  Nd3  1  0.50000  0.99997  0.58686  1
 Ni  Ni1  1  0.50000  0.00003  -0.00000  1
 Ni  Ni2  1  0.00000  0.33331  0.66666  1
 Ni  Ni3  1  0.00000  0.66665  0.33334  1
