CIF file written using JARVIS-Tools package.
data_TmAgSn
_symmetry_space_group_name_H-M  'P6_3mc'
_cell_length_a       4.68334
_cell_length_b       4.68334
_cell_length_c       7.31685
_cell_angle_alpha    90
_cell_angle_beta     90
_cell_angle_gamma    120

_symmetry_Int_Tables_number  186
_chemical_formula_structural  TmAgSn
_chemical_formula_sum  Tm2Ag2Sn2
_cell_volume  138.98417681715122
_cell_formula_units_Z  2
loop_
  _symmetry_equiv_pos_site_id
 _symmetry_equiv_pos_as_xyz
 1  'x, y, z'
loop_
 _atom_site_type_symbol
 _atom_site_label
 _atom_site_symmetry_multiplicity
 _atom_site_fract_x
 _atom_site_fract_y
 _atom_site_fract_z
 _atom_site_fract_occupancy
 Ag  Ag1  1  0.66667  0.33333  0.18897  1
 Ag  Ag2  1  0.33333  0.66667  0.68897  1
 Sn  Sn1  1  0.33333  0.66667  0.28673  1
 Sn  Sn2  1  0.66667  0.33333  0.78673  1
 Tm  Tm1  1  0.00000  0.00000  0.50777  1
 Tm  Tm2  1  0.00000  0.00000  0.00777  1
