CIF file written using JARVIS-Tools package.
data_Rb6Si10O23
_symmetry_space_group_name_H-M  'P-62m'
_cell_length_a       9.57368
_cell_length_b       9.57368
_cell_length_c       8.18824
_cell_angle_alpha    90
_cell_angle_beta     90
_cell_angle_gamma    120

_symmetry_Int_Tables_number  189
_chemical_formula_structural  Rb6Si10O23
_chemical_formula_sum  Rb6Si0O23
_cell_volume  649.9490953625029
_cell_formula_units_Z  1
loop_
  _symmetry_equiv_pos_site_id
 _symmetry_equiv_pos_as_xyz
 1  'x, y, z'
loop_
 _atom_site_type_symbol
 _atom_site_label
 _atom_site_symmetry_multiplicity
 _atom_site_fract_x
 _atom_site_fract_y
 _atom_site_fract_z
 _atom_site_fract_occupancy
 O  O1  1  0.43267  0.58229  0.73579  1
 O  O2  1  0.41771  0.85038  0.73579  1
 O  O3  1  0.00000  0.75115  0.21354  1
 O  O4  1  0.62661  -0.00000  0.50000  1
 O  O5  1  0.75115  -0.00000  0.21354  1
 O  O6  1  0.41771  0.85038  0.26421  1
 O  O7  1  0.37339  0.37339  0.50000  1
 O  O8  1  0.85038  0.41771  0.73579  1
 O  O9  1  0.00000  0.62661  0.50000  1
 O  O10  1  0.85038  0.41771  0.26421  1
 O  O11  1  0.58229  0.43267  0.73579  1
 O  O12  1  0.75115  -0.00000  0.78646  1
 O  O13  1  0.14962  0.56733  0.73579  1
 O  O14  1  0.43267  0.58229  0.26421  1
 O  O15  1  0.00000  0.75115  0.78646  1
 O  O16  1  0.24885  0.24885  0.21354  1
 O  O17  1  0.33333  0.66667  0.00000  1
 O  O18  1  0.58229  0.43267  0.26421  1
 O  O19  1  0.66667  0.33333  0.00000  1
 O  O20  1  0.14962  0.56733  0.26421  1
 O  O21  1  0.24885  0.24885  0.78646  1
 O  O22  1  0.56733  0.14962  0.26421  1
 O  O23  1  0.56733  0.14962  0.73579  1
 Rb  Rb1  1  0.74709  0.74709  0.50000  1
 Rb  Rb2  1  0.00000  0.24123  0.00000  1
 Rb  Rb3  1  0.24123  -0.00000  0.00000  1
 Rb  Rb4  1  0.75877  0.75877  0.00000  1
 Rb  Rb5  1  0.00000  0.25291  0.50000  1
 Rb  Rb6  1  0.25291  -0.00000  0.50000  1
 Si  Si1  1  0.00000  0.60452  0.69887  1
 Si  Si2  1  0.60452  -0.00000  0.69887  1
 Si  Si3  1  0.33333  0.66667  0.80209  1
 Si  Si4  1  0.39548  0.39548  0.30113  1
 Si  Si5  1  0.33333  0.66667  0.19791  1
 Si  Si6  1  0.66667  0.33333  0.19791  1
 Si  Si7  1  0.00000  0.60452  0.30113  1
 Si  Si8  1  0.66667  0.33333  0.80209  1
 Si  Si9  1  0.39548  0.39548  0.69887  1
 Si  Si10  1  0.60452  -0.00000  0.30113  1
