CIF file written using JARVIS-Tools package.
data_Li4Ti5Cr3O16
_symmetry_space_group_name_H-M  'Cm'
_cell_length_a       5.84076
_cell_length_b       5.8797
_cell_length_c       9.50532
_cell_angle_alpha    90.0003
_cell_angle_beta     89.6718
_cell_angle_gamma    120.221

_symmetry_Int_Tables_number  8
_chemical_formula_structural  Li4Ti5Cr3O16
_chemical_formula_sum  Li4Ti5Cr3O6
_cell_volume  282.059897396501
_cell_formula_units_Z  1
loop_
  _symmetry_equiv_pos_site_id
 _symmetry_equiv_pos_as_xyz
 1  'x, y, z'
loop_
 _atom_site_type_symbol
 _atom_site_label
 _atom_site_symmetry_multiplicity
 _atom_site_fract_x
 _atom_site_fract_y
 _atom_site_fract_z
 _atom_site_fract_occupancy
 Cr  Cr1  1  0.82842  0.16881  0.71284  1
 Cr  Cr2  1  0.65706  0.82854  0.21225  1
 Cr  Cr3  1  0.82842  0.65963  0.71284  1
 Li  Li1  1  0.33149  0.66576  0.89489  1
 Li  Li2  1  0.99302  0.99651  0.99317  1
 Li  Li3  1  0.99684  0.99843  0.49686  1
 Li  Li4  1  0.66916  0.33459  0.39936  1
 O  O1  1  0.16736  0.83386  0.59624  1
 O  O2  1  0.95791  0.47897  0.83786  1
 O  O3  1  0.32906  0.66454  0.10099  1
 O  O4  1  0.99633  0.99817  0.31076  1
 O  O5  1  -0.00302  -0.00149  0.80811  1
 O  O6  1  0.16736  0.33352  0.59624  1
 O  O7  1  0.03731  0.51867  0.33975  1
 O  O8  1  0.48251  0.51894  0.34057  1
 O  O9  1  0.66523  0.83262  0.59707  1
 O  O10  1  0.83458  0.66788  0.09594  1
 O  O11  1  0.51456  0.03492  0.84160  1
 O  O12  1  0.66300  0.33151  0.60272  1
 O  O13  1  0.48252  0.96360  0.34057  1
 O  O14  1  0.33207  0.16604  0.09577  1
 O  O15  1  0.51456  0.47966  0.84160  1
 O  O16  1  0.83458  0.16672  0.09594  1
 Ti  Ti1  1  0.68126  0.34064  0.99084  1
 Ti  Ti2  1  0.17738  0.34294  0.21735  1
 Ti  Ti3  1  0.33614  0.66808  0.49671  1
 Ti  Ti4  1  0.17738  0.83447  0.21735  1
 Ti  Ti5  1  0.34751  0.17377  0.72166  1
