CIF file written using JARVIS-Tools package.
data_Fe4O5F3
_symmetry_space_group_name_H-M  'Cm'
_cell_length_a       4.72854
_cell_length_b       5.50854
_cell_length_c       5.50854
_cell_angle_alpha    117.653
_cell_angle_beta     96.4458
_cell_angle_gamma    83.5542

_symmetry_Int_Tables_number  8
_chemical_formula_structural  Fe4O5F3
_chemical_formula_sum  Fe4O5F3
_cell_volume  125.99520529731217
_cell_formula_units_Z  1
loop_
  _symmetry_equiv_pos_site_id
 _symmetry_equiv_pos_as_xyz
 1  'x, y, z'
loop_
 _atom_site_type_symbol
 _atom_site_label
 _atom_site_symmetry_multiplicity
 _atom_site_fract_x
 _atom_site_fract_y
 _atom_site_fract_z
 _atom_site_fract_occupancy
 F  F1  1  0.79562  0.64618  0.85382  1
 F  F2  1  0.20936  0.35803  0.14197  1
 F  F3  1  0.16754  0.83319  0.66681  1
 Fe  Fe1  1  0.53486  0.01280  0.48720  1
 Fe  Fe2  1  0.49702  0.50285  -0.00285  1
 Fe  Fe3  1  0.99113  0.47697  0.48591  1
 Fe  Fe4  1  0.99113  0.01409  0.02303  1
 O  O1  1  0.80900  0.15402  0.34598  1
 O  O2  1  0.69872  0.15251  0.85055  1
 O  O3  1  0.69872  0.64945  0.34749  1
 O  O4  1  0.30345  0.85622  0.15631  1
 O  O5  1  0.30345  0.34369  0.64378  1
