CIF file written using JARVIS-Tools package.
data_Sr2CuB2O6
_symmetry_space_group_name_H-M  'P2_1/c'
_cell_length_a       5.74595
_cell_length_b       6.02039
_cell_length_c       8.89035
_cell_angle_alpha    90
_cell_angle_beta     90
_cell_angle_gamma    116.506

_symmetry_Int_Tables_number  14
_chemical_formula_structural  Sr2CuB2O6
_chemical_formula_sum  Sr4Cu2B4O2
_cell_volume  275.2161088919304
_cell_formula_units_Z  2
loop_
  _symmetry_equiv_pos_site_id
 _symmetry_equiv_pos_as_xyz
 1  'x, y, z'
loop_
 _atom_site_type_symbol
 _atom_site_label
 _atom_site_symmetry_multiplicity
 _atom_site_fract_x
 _atom_site_fract_y
 _atom_site_fract_z
 _atom_site_fract_occupancy
 B  B1  1  0.80114  0.16079  0.24798  1
 B  B2  1  0.19886  0.33921  0.74798  1
 B  B3  1  0.80114  0.66079  0.25202  1
 B  B4  1  0.19886  0.83921  0.75202  1
 Cu  Cu1  1  0.00000  0.00000  0.00000  1
 Cu  Cu2  1  -0.00000  0.50000  0.50000  1
 O  O1  1  0.41341  0.88355  0.83656  1
 O  O2  1  0.96488  0.31199  0.68683  1
 O  O3  1  0.03512  0.68801  0.31317  1
 O  O4  1  0.96488  0.81199  0.81317  1
 O  O5  1  0.20834  0.32107  0.90571  1
 O  O6  1  0.79166  0.17893  0.40571  1
 O  O7  1  0.79166  0.67893  0.09429  1
 O  O8  1  0.20834  0.82107  0.59429  1
 O  O9  1  0.58659  0.61645  0.33656  1
 O  O10  1  0.58659  0.11645  0.16344  1
 O  O11  1  0.41341  0.38355  0.66344  1
 O  O12  1  0.03512  0.18801  0.18683  1
 Sr  Sr1  1  0.32735  0.16202  0.39573  1
 Sr  Sr2  1  0.67265  0.83798  0.60427  1
 Sr  Sr3  1  0.32735  0.66202  0.10427  1
 Sr  Sr4  1  0.67265  0.33798  0.89573  1
