CIF file written using JARVIS-Tools package.
data_CoSiH12O6F6
_symmetry_space_group_name_H-M  'R-3'
_cell_length_a       6.22051
_cell_length_b       6.22051
_cell_length_c       6.22051
_cell_angle_alpha    96.3669
_cell_angle_beta     96.3669
_cell_angle_gamma    96.3668

_symmetry_Int_Tables_number  148
_chemical_formula_structural  CoSiH12O6F6
_chemical_formula_sum  CoSiH2O6F6
_cell_volume  235.88463708991014
_cell_formula_units_Z  1
loop_
  _symmetry_equiv_pos_site_id
 _symmetry_equiv_pos_as_xyz
 1  'x, y, z'
loop_
 _atom_site_type_symbol
 _atom_site_label
 _atom_site_symmetry_multiplicity
 _atom_site_fract_x
 _atom_site_fract_y
 _atom_site_fract_z
 _atom_site_fract_occupancy
 Co  Co1  1  0.00000  0.00000  0.00000  1
 F  F1  1  0.28724  0.33107  0.56897  1
 F  F2  1  0.43103  0.71276  0.66893  1
 F  F3  1  0.66893  0.43103  0.71276  1
 F  F4  1  0.71276  0.66893  0.43103  1
 F  F5  1  0.56897  0.28724  0.33107  1
 F  F6  1  0.33107  0.56897  0.28724  1
 H  H1  1  0.31383  0.22182  0.82132  1
 H  H2  1  0.58376  0.81068  0.93669  1
 H  H3  1  0.93669  0.58376  0.81068  1
 H  H4  1  0.81068  0.93669  0.58376  1
 H  H5  1  0.18932  0.06331  0.41624  1
 H  H6  1  0.41625  0.18932  0.06331  1
 H  H7  1  0.22182  0.82132  0.31383  1
 H  H8  1  0.82132  0.31383  0.22182  1
 H  H9  1  0.68617  0.77818  0.17868  1
 H  H10  1  0.77818  0.17869  0.68617  1
 H  H11  1  0.17869  0.68617  0.77818  1
 H  H12  1  0.06331  0.41625  0.18932  1
 O  O1  1  0.30869  0.12676  0.93769  1
 O  O2  1  0.06231  0.69131  0.87324  1
 O  O3  1  0.93769  0.30869  0.12676  1
 O  O4  1  0.87324  0.06231  0.69131  1
 O  O5  1  0.12676  0.93769  0.30869  1
 O  O6  1  0.69131  0.87324  0.06231  1
 Si  Si1  1  0.50000  0.50000  0.50000  1
