CIF file written using JARVIS-Tools package.
data_Hf9Mo4As
_symmetry_space_group_name_H-M  'P6_3/mmc'
_cell_length_a       8.6509
_cell_length_b       8.6509
_cell_length_c       8.65998
_cell_angle_alpha    90
_cell_angle_beta     90
_cell_angle_gamma    120

_symmetry_Int_Tables_number  194
_chemical_formula_structural  Hf9Mo4As
_chemical_formula_sum  Hf8Mo8As2
_cell_volume  561.2671001423321
_cell_formula_units_Z  2
loop_
  _symmetry_equiv_pos_site_id
 _symmetry_equiv_pos_as_xyz
 1  'x, y, z'
loop_
 _atom_site_type_symbol
 _atom_site_label
 _atom_site_symmetry_multiplicity
 _atom_site_fract_x
 _atom_site_fract_y
 _atom_site_fract_z
 _atom_site_fract_occupancy
 As  As1  1  0.33333  0.66667  0.25000  1
 As  As2  1  0.66667  0.33333  0.75000  1
 Hf  Hf1  1  0.19626  0.39251  0.04268  1
 Hf  Hf2  1  0.39251  0.19626  0.95732  1
 Hf  Hf3  1  0.80374  0.60749  0.95732  1
 Hf  Hf4  1  0.19626  0.80374  0.45732  1
 Hf  Hf5  1  0.19626  0.39251  0.45732  1
 Hf  Hf6  1  0.60749  0.80374  0.04268  1
 Hf  Hf7  1  0.19626  0.80374  0.04268  1
 Hf  Hf8  1  0.80374  0.19626  0.95732  1
 Hf  Hf9  1  0.39251  0.19626  0.54268  1
 Hf  Hf10  1  0.07952  0.53976  0.75000  1
 Hf  Hf11  1  0.53976  0.07952  0.25000  1
 Hf  Hf12  1  0.92048  0.46024  0.25000  1
 Hf  Hf13  1  0.53976  0.46024  0.25000  1
 Hf  Hf14  1  0.60749  0.80374  0.45732  1
 Hf  Hf15  1  0.46024  0.53976  0.75000  1
 Hf  Hf16  1  0.80374  0.60749  0.54268  1
 Hf  Hf17  1  0.80374  0.19626  0.54268  1
 Hf  Hf18  1  0.46024  0.92048  0.75000  1
 Mo  Mo1  1  0.00000  0.00000  0.00000  1
 Mo  Mo2  1  0.88983  0.77966  0.25000  1
 Mo  Mo3  1  0.22034  0.11017  0.25000  1
 Mo  Mo4  1  0.11017  0.88983  0.75000  1
 Mo  Mo5  1  0.11017  0.22034  0.75000  1
 Mo  Mo6  1  0.77966  0.88983  0.75000  1
 Mo  Mo7  1  0.88983  0.11017  0.25000  1
 Mo  Mo8  1  0.00000  0.00000  0.50000  1
