CIF file written using JARVIS-Tools package.
data_HoAu
_symmetry_space_group_name_H-M  'Cmcm'
_cell_length_a       5.75423
_cell_length_b       5.75423
_cell_length_c       4.61668
_cell_angle_alpha    90
_cell_angle_beta     90
_cell_angle_gamma    142.426

_symmetry_Int_Tables_number  63
_chemical_formula_structural  HoAu
_chemical_formula_sum  Ho2Au2
_cell_volume  93.21315970715371
_cell_formula_units_Z  2
loop_
  _symmetry_equiv_pos_site_id
 _symmetry_equiv_pos_as_xyz
 1  'x, y, z'
loop_
 _atom_site_type_symbol
 _atom_site_label
 _atom_site_symmetry_multiplicity
 _atom_site_fract_x
 _atom_site_fract_y
 _atom_site_fract_z
 _atom_site_fract_occupancy
 Au  Au1  1  0.59094  0.40906  0.75000  1
 Au  Au2  1  0.40906  0.59094  0.25000  1
 Ho  Ho1  1  0.86160  0.13840  0.75000  1
 Ho  Ho2  1  0.13840  0.86160  0.25000  1
