CIF file written using JARVIS-Tools package.
data_Ca2PbAu2
_symmetry_space_group_name_H-M  'P4/mbm'
_cell_length_a       3.75496
_cell_length_b       8.16985
_cell_length_c       8.16985
_cell_angle_alpha    90
_cell_angle_beta     90
_cell_angle_gamma    90

_symmetry_Int_Tables_number  127
_chemical_formula_structural  Ca2PbAu2
_chemical_formula_sum  Ca4Pb2Au4
_cell_volume  250.63053111807898
_cell_formula_units_Z  2
loop_
  _symmetry_equiv_pos_site_id
 _symmetry_equiv_pos_as_xyz
 1  'x, y, z'
loop_
 _atom_site_type_symbol
 _atom_site_label
 _atom_site_symmetry_multiplicity
 _atom_site_fract_x
 _atom_site_fract_y
 _atom_site_fract_z
 _atom_site_fract_occupancy
 Au  Au1  1  0.00000  0.62410  0.12410  1
 Au  Au2  1  0.00000  0.87590  0.62410  1
 Au  Au3  1  0.00000  0.12410  0.37590  1
 Au  Au4  1  0.00000  0.37590  0.87590  1
 Ca  Ca1  1  0.50000  0.17240  0.67240  1
 Ca  Ca2  1  0.50000  0.32760  0.17240  1
 Ca  Ca3  1  0.50000  0.67240  0.82760  1
 Ca  Ca4  1  0.50000  0.82760  0.32760  1
 Pb  Pb1  1  0.00000  0.00000  0.00000  1
 Pb  Pb2  1  0.00000  0.50000  0.50000  1
