CIF file written using JARVIS-Tools package.
data_Co3O4F2
_symmetry_space_group_name_H-M  'P-1'
_cell_length_a       5.2514
_cell_length_b       5.3024
_cell_length_c       6.6795
_cell_angle_alpha    74.6173
_cell_angle_beta     74.5416
_cell_angle_gamma    75.1454

_symmetry_Int_Tables_number  2
_chemical_formula_structural  Co3O4F2
_chemical_formula_sum  Co6O8F4
_cell_volume  169.35572452376695
_cell_formula_units_Z  2
loop_
  _symmetry_equiv_pos_site_id
 _symmetry_equiv_pos_as_xyz
 1  'x, y, z'
loop_
 _atom_site_type_symbol
 _atom_site_label
 _atom_site_symmetry_multiplicity
 _atom_site_fract_x
 _atom_site_fract_y
 _atom_site_fract_z
 _atom_site_fract_occupancy
 Co  Co1  1  0.50000  0.50000  -0.00000  1
 Co  Co2  1  0.50000  0.50000  0.50000  1
 Co  Co3  1  0.19227  0.13904  0.83300  1
 Co  Co4  1  0.18769  0.16206  0.32524  1
 Co  Co5  1  0.81231  0.83794  0.67476  1
 Co  Co6  1  0.80773  0.86096  0.16700  1
 F  F1  1  0.19639  0.78837  0.51147  1
 F  F2  1  0.80361  0.21163  0.48853  1
 F  F3  1  0.11011  0.55312  0.16491  1
 F  F4  1  0.88989  0.44688  0.83509  1
 O  O1  1  0.58639  0.61656  0.20401  1
 O  O2  1  0.07245  0.06404  0.12952  1
 O  O3  1  0.72475  0.73870  0.46633  1
 O  O4  1  0.41361  0.38344  0.79599  1
 O  O5  1  0.27525  0.26130  0.53367  1
 O  O6  1  0.47166  0.84917  0.83533  1
 O  O7  1  0.52834  0.15083  0.16467  1
 O  O8  1  0.92755  0.93596  0.87048  1
