CIF file written using JARVIS-Tools package.
data_Ti4S8Cl6O
_symmetry_space_group_name_H-M  'C2/c'
_cell_length_a       9.13784
_cell_length_b       9.25971
_cell_length_c       12.6712
_cell_angle_alpha    81.3491
_cell_angle_beta     72.2514
_cell_angle_gamma    60.4344

_symmetry_Int_Tables_number  15
_chemical_formula_structural  Ti4S8Cl6O
_chemical_formula_sum  Ti8S6Cl2O2
_cell_volume  888.1671393612568
_cell_formula_units_Z  2
loop_
  _symmetry_equiv_pos_site_id
 _symmetry_equiv_pos_as_xyz
 1  'x, y, z'
loop_
 _atom_site_type_symbol
 _atom_site_label
 _atom_site_symmetry_multiplicity
 _atom_site_fract_x
 _atom_site_fract_y
 _atom_site_fract_z
 _atom_site_fract_occupancy
 Cl  Cl1  1  0.35689  0.07759  0.12991  1
 Cl  Cl2  1  0.31764  0.47405  0.50570  1
 Cl  Cl3  1  0.70415  0.21712  0.96557  1
 Cl  Cl4  1  0.92127  0.78288  0.46557  1
 Cl  Cl5  1  0.20831  0.47405  -0.00570  1
 Cl  Cl6  1  0.64311  0.92241  0.87009  1
 Cl  Cl7  1  0.68236  0.52595  0.49430  1
 Cl  Cl8  1  0.43448  0.92241  0.62991  1
 Cl  Cl9  1  0.07873  0.21712  0.53443  1
 Cl  Cl10  1  0.29585  0.78288  0.03443  1
 Cl  Cl11  1  0.79169  0.52595  0.00570  1
 Cl  Cl12  1  0.56552  0.07759  0.37009  1
 O  O1  1  0.89030  0.21940  0.75000  1
 O  O2  1  0.10970  0.78060  0.25000  1
 S  S1  1  0.71281  0.13673  0.61386  1
 S  S2  1  0.15046  0.13673  0.88614  1
 S  S3  1  0.91753  0.14015  0.17157  1
 S  S4  1  0.52972  0.30898  0.73567  1
 S  S5  1  0.05768  0.85985  0.67157  1
 S  S6  1  0.84954  0.86327  0.11386  1
 S  S7  1  0.94232  0.14015  0.32843  1
 S  S8  1  0.82677  0.57786  0.70754  1
 S  S9  1  0.16130  0.30898  0.76433  1
 S  S10  1  0.28719  0.86327  0.38614  1
 S  S11  1  0.59537  0.57786  0.79246  1
 S  S12  1  0.47028  0.69102  0.26433  1
 S  S13  1  0.08247  0.85985  0.82843  1
 S  S14  1  0.40463  0.42214  0.20754  1
 S  S15  1  0.83870  0.69102  0.23567  1
 S  S16  1  0.17323  0.42214  0.29246  1
 Ti  Ti1  1  0.75860  0.37784  0.64326  1
 Ti  Ti2  1  0.78781  0.06204  0.78872  1
 Ti  Ti3  1  0.84985  0.93796  0.28872  1
 Ti  Ti4  1  0.24140  0.62216  0.35674  1
 Ti  Ti5  1  0.13643  0.62216  0.14326  1
 Ti  Ti6  1  0.15015  0.06204  0.71128  1
 Ti  Ti7  1  0.21219  0.93796  0.21128  1
 Ti  Ti8  1  0.86357  0.37784  0.85674  1
