CIF file written using JARVIS-Tools package.
data_NaNdGa4S8
_symmetry_space_group_name_H-M  'Fddd'
_cell_length_a       11.8037
_cell_length_b       11.8037
_cell_length_c       11.8464
_cell_angle_alpha    105.536
_cell_angle_beta     105.536
_cell_angle_gamma    117.54

_symmetry_Int_Tables_number  70
_chemical_formula_structural  NaNdGa4S8
_chemical_formula_sum  Na4Nd4Ga6S32
_cell_volume  1253.0932036902957
_cell_formula_units_Z  4
loop_
  _symmetry_equiv_pos_site_id
 _symmetry_equiv_pos_as_xyz
 1  'x, y, z'
loop_
 _atom_site_type_symbol
 _atom_site_label
 _atom_site_symmetry_multiplicity
 _atom_site_fract_x
 _atom_site_fract_y
 _atom_site_fract_z
 _atom_site_fract_occupancy
 Ga  Ga1  1  0.11669  0.61134  0.47814  1
 Ga  Ga2  1  0.96888  0.46865  0.10991  1
 Ga  Ga3  1  0.64103  0.64126  0.10991  1
 Ga  Ga4  1  0.38866  0.88331  0.02186  1
 Ga  Ga5  1  0.86145  0.86680  0.47814  1
 Ga  Ga6  1  0.13320  0.13855  0.02186  1
 Ga  Ga7  1  0.61134  0.11669  0.97814  1
 Ga  Ga8  1  0.13855  0.13320  0.52186  1
 Ga  Ga9  1  0.46865  0.96888  0.60991  1
 Ga  Ga10  1  0.53135  0.03112  0.39009  1
 Ga  Ga11  1  0.64126  0.64103  0.60991  1
 Ga  Ga12  1  0.03112  0.53135  0.89009  1
 Ga  Ga13  1  0.35897  0.35874  0.89009  1
 Ga  Ga14  1  0.35874  0.35897  0.39009  1
 Ga  Ga15  1  0.86680  0.86145  0.97814  1
 Ga  Ga16  1  0.88331  0.38866  0.52186  1
 Na  Na1  1  0.37850  0.62150  0.75000  1
 Na  Na2  1  0.87150  0.12850  0.75000  1
 Na  Na3  1  0.62150  0.37850  0.25000  1
 Na  Na4  1  0.12850  0.87150  0.25000  1
 Nd  Nd1  1  0.87500  0.12500  0.25000  1
 Nd  Nd2  1  0.37500  0.62500  0.25000  1
 Nd  Nd3  1  0.62500  0.37500  0.75000  1
 Nd  Nd4  1  0.12500  0.87500  0.75000  1
 S  S1  1  0.08835  0.91671  0.99472  1
 S  S2  1  0.40637  0.07801  0.99472  1
 S  S3  1  0.08329  0.91165  0.50528  1
 S  S4  1  0.85011  0.84771  0.16589  1
 S  S5  1  0.68181  0.18421  0.33411  1
 S  S6  1  0.15229  0.14989  0.33411  1
 S  S7  1  0.34620  0.34105  0.68651  1
 S  S8  1  0.65895  0.65380  0.81349  1
 S  S9  1  0.84030  0.34545  0.68651  1
 S  S10  1  0.41922  0.09170  0.50484  1
 S  S11  1  0.34105  0.34620  0.18651  1
 S  S12  1  0.15970  0.65455  0.31349  1
 S  S13  1  0.92199  0.59363  0.50528  1
 S  S14  1  0.81579  0.31819  0.16589  1
 S  S15  1  0.91671  0.08835  0.49472  1
 S  S16  1  0.58686  0.41438  0.99516  1
 S  S17  1  0.91165  0.08329  0.00528  1
 S  S18  1  0.07801  0.40637  0.49472  1
 S  S19  1  0.41314  0.58562  0.00484  1
 S  S20  1  0.58078  0.90830  0.49516  1
 S  S21  1  0.41438  0.58686  0.49516  1
 S  S22  1  0.65380  0.65895  0.31349  1
 S  S23  1  0.34545  0.84030  0.18651  1
 S  S24  1  0.18421  0.68181  0.83411  1
 S  S25  1  0.84771  0.85011  0.66589  1
 S  S26  1  0.90830  0.58078  0.99516  1
 S  S27  1  0.58562  0.41314  0.50484  1
 S  S28  1  0.09170  0.41922  0.00484  1
 S  S29  1  0.31819  0.81579  0.66589  1
 S  S30  1  0.14989  0.15229  0.83411  1
 S  S31  1  0.59363  0.92199  0.00528  1
 S  S32  1  0.65455  0.15970  0.81349  1
