CIF file written using JARVIS-Tools package.
data_RbInTe2
_symmetry_space_group_name_H-M  'I4/mcm'
_cell_length_a       7.2909
_cell_length_b       7.29091
_cell_length_c       7.2909
_cell_angle_alpha    105.223
_cell_angle_beta     105.223
_cell_angle_gamma    118.349

_symmetry_Int_Tables_number  140
_chemical_formula_structural  RbInTe2
_chemical_formula_sum  Rb2In2Te4
_cell_volume  292.8997675420174
_cell_formula_units_Z  2
loop_
  _symmetry_equiv_pos_site_id
 _symmetry_equiv_pos_as_xyz
 1  'x, y, z'
loop_
 _atom_site_type_symbol
 _atom_site_label
 _atom_site_symmetry_multiplicity
 _atom_site_fract_x
 _atom_site_fract_y
 _atom_site_fract_z
 _atom_site_fract_occupancy
 In  In1  1  0.75000  0.25000  0.50000  1
 In  In2  1  0.25000  0.75000  0.50000  1
 Rb  Rb1  1  0.75000  0.75000  0.00000  1
 Rb  Rb2  1  0.25000  0.25000  0.00000  1
 Te  Te1  1  0.32668  0.17332  0.50000  1
 Te  Te2  1  0.17332  0.67332  0.84664  1
 Te  Te3  1  0.82668  0.32668  0.15336  1
 Te  Te4  1  0.67332  0.82668  0.50000  1
