CIF file written using JARVIS-Tools package.
data_HI
_symmetry_space_group_name_H-M  'C2/c'
_cell_length_a       8.21022
_cell_length_b       8.8228
_cell_length_c       8.21022
_cell_angle_alpha    117.569
_cell_angle_beta     90.3141
_cell_angle_gamma    117.558

_symmetry_Int_Tables_number  15
_chemical_formula_structural  HI
_chemical_formula_sum  H8I8
_cell_volume  448.7628511808361
_cell_formula_units_Z  8
loop_
  _symmetry_equiv_pos_site_id
 _symmetry_equiv_pos_as_xyz
 1  'x, y, z'
loop_
 _atom_site_type_symbol
 _atom_site_label
 _atom_site_symmetry_multiplicity
 _atom_site_fract_x
 _atom_site_fract_y
 _atom_site_fract_z
 _atom_site_fract_occupancy
 H  H1  1  0.24476  0.01317  0.56259  1
 H  H2  1  0.54942  0.48683  0.73159  1
 H  H3  1  0.75524  0.98683  0.43741  1
 H  H4  1  0.45058  0.51317  0.26841  1
 H  H5  1  0.55771  0.00180  0.76331  1
 H  H6  1  0.76151  0.49820  0.05591  1
 H  H7  1  0.44229  -0.00180  0.23669  1
 H  H8  1  0.23849  0.50180  0.94409  1
 I  I1  1  0.24481  0.01785  0.76675  1
 I  I2  1  0.74891  0.48215  0.72696  1
 I  I3  1  0.75519  0.98215  0.23325  1
 I  I4  1  0.25109  0.51785  0.27304  1
 I  I5  1  0.75807  0.99879  0.76480  1
 I  I6  1  0.76601  0.50121  0.25928  1
 I  I7  1  0.24193  0.00121  0.23520  1
 I  I8  1  0.23399  0.49879  0.74072  1
