CIF file written using JARVIS-Tools package.
data_Cd3N2
_symmetry_space_group_name_H-M  'Ia-3'
_cell_length_a       9.49295
_cell_length_b       9.49295
_cell_length_c       9.49295
_cell_angle_alpha    109.471
_cell_angle_beta     109.471
_cell_angle_gamma    109.471

_symmetry_Int_Tables_number  206
_chemical_formula_structural  Cd3N2
_chemical_formula_sum  Cd24N6
_cell_volume  658.5385379640019
_cell_formula_units_Z  8
loop_
  _symmetry_equiv_pos_site_id
 _symmetry_equiv_pos_as_xyz
 1  'x, y, z'
loop_
 _atom_site_type_symbol
 _atom_site_label
 _atom_site_symmetry_multiplicity
 _atom_site_fract_x
 _atom_site_fract_y
 _atom_site_fract_z
 _atom_site_fract_occupancy
 Cd  Cd1  1  0.75545  0.03054  0.47698  1
 Cd  Cd2  1  0.05356  0.27848  0.02302  1
 Cd  Cd3  1  0.53054  0.77509  0.55356  1
 Cd  Cd4  1  0.22491  0.44644  0.46946  1
 Cd  Cd5  1  0.94644  0.72152  0.97698  1
 Cd  Cd6  1  0.27509  0.74455  0.22152  1
 Cd  Cd7  1  0.03054  0.47698  0.75545  1
 Cd  Cd8  1  0.74455  0.22152  0.27509  1
 Cd  Cd9  1  0.22152  0.27509  0.74455  1
 Cd  Cd10  1  0.72491  0.25545  0.77848  1
 Cd  Cd11  1  0.52302  0.24455  0.96946  1
 Cd  Cd12  1  0.27848  0.02302  0.05356  1
 Cd  Cd13  1  0.24455  0.96946  0.52302  1
 Cd  Cd14  1  0.72152  0.97698  0.94644  1
 Cd  Cd15  1  0.97698  0.94644  0.72152  1
 Cd  Cd16  1  0.47698  0.75545  0.03054  1
 Cd  Cd17  1  0.96946  0.52302  0.24455  1
 Cd  Cd18  1  0.44644  0.46946  0.22491  1
 Cd  Cd19  1  0.25545  0.77848  0.72491  1
 Cd  Cd20  1  0.77848  0.72491  0.25545  1
 Cd  Cd21  1  0.77509  0.55356  0.53054  1
 Cd  Cd22  1  0.55356  0.53054  0.77509  1
 Cd  Cd23  1  0.46946  0.22491  0.44644  1
 Cd  Cd24  1  0.02302  0.05356  0.27848  1
 N  N1  1  0.50000  0.00000  0.00000  1
 N  N2  1  0.25000  0.72147  0.47147  1
 N  N3  1  0.22147  0.97147  0.25000  1
 N  N4  1  0.25000  0.22147  0.97147  1
 N  N5  1  0.97147  0.25000  0.22147  1
 N  N6  1  0.47147  0.25000  0.72147  1
 N  N7  1  0.77853  0.02853  0.75000  1
 N  N8  1  0.75000  0.77853  0.02853  1
 N  N9  1  0.02853  0.75000  0.77853  1
 N  N10  1  0.72147  0.47147  0.25000  1
 N  N11  1  0.52853  0.75000  0.27853  1
 N  N12  1  0.27853  0.52853  0.75000  1
 N  N13  1  0.50000  0.50000  0.50000  1
 N  N14  1  0.00000  0.00000  0.50000  1
 N  N15  1  0.75000  0.27853  0.52853  1
 N  N16  1  0.00000  0.50000  0.00000  1
