CIF file written using JARVIS-Tools package.
data_TiFeO3
_symmetry_space_group_name_H-M  'Cmcm'
_cell_length_a       2.87972
_cell_length_b       4.92645
_cell_length_c       7.23644
_cell_angle_alpha    90
_cell_angle_beta     90
_cell_angle_gamma    106.994

_symmetry_Int_Tables_number  63
_chemical_formula_structural  TiFeO3
_chemical_formula_sum  Ti2Fe2O6
_cell_volume  98.17942598994468
_cell_formula_units_Z  2
loop_
  _symmetry_equiv_pos_site_id
 _symmetry_equiv_pos_as_xyz
 1  'x, y, z'
loop_
 _atom_site_type_symbol
 _atom_site_label
 _atom_site_symmetry_multiplicity
 _atom_site_fract_x
 _atom_site_fract_y
 _atom_site_fract_z
 _atom_site_fract_occupancy
 Fe  Fe1  1  0.75673  0.51345  0.25000  1
 Fe  Fe2  1  0.24327  0.48655  0.75000  1
 O  O1  1  0.36719  0.73438  0.42867  1
 O  O2  1  0.36719  0.73438  0.07133  1
 O  O3  1  0.90538  0.81076  0.75000  1
 O  O4  1  0.63281  0.26562  0.92867  1
 O  O5  1  0.63281  0.26562  0.57133  1
 O  O6  1  0.09462  0.18924  0.25000  1
 Ti  Ti1  1  0.00000  0.00000  0.00000  1
 Ti  Ti2  1  0.00000  0.00000  0.50000  1
