CIF file written using JARVIS-Tools package.
data_B4Mo
_symmetry_space_group_name_H-M  'P6_3/mmc'
_cell_length_a       5.14017
_cell_length_b       5.14017
_cell_length_c       7.08802
_cell_angle_alpha    90
_cell_angle_beta     90
_cell_angle_gamma    120

_symmetry_Int_Tables_number  194
_chemical_formula_structural  B4Mo
_chemical_formula_sum  B6Mo4
_cell_volume  162.18554637114894
_cell_formula_units_Z  4
loop_
  _symmetry_equiv_pos_site_id
 _symmetry_equiv_pos_as_xyz
 1  'x, y, z'
loop_
 _atom_site_type_symbol
 _atom_site_label
 _atom_site_symmetry_multiplicity
 _atom_site_fract_x
 _atom_site_fract_y
 _atom_site_fract_z
 _atom_site_fract_occupancy
 B  B1  1  0.66574  0.66574  0.00000  1
 B  B2  1  -0.00000  0.66574  0.00000  1
 B  B3  1  0.00000  0.33426  0.00000  1
 B  B4  1  0.33426  0.00000  0.00000  1
 B  B5  1  0.33426  0.33426  0.50000  1
 B  B6  1  -0.00000  0.66574  0.50000  1
 B  B7  1  0.66574  -0.00000  0.50000  1
 B  B8  1  0.66574  0.66574  0.50000  1
 B  B9  1  0.33426  0.33426  0.00000  1
 B  B10  1  0.00000  0.33426  0.50000  1
 B  B11  1  0.33426  0.00000  0.50000  1
 B  B12  1  0.66667  0.33333  0.36955  1
 B  B13  1  0.33333  0.66667  0.86955  1
 B  B14  1  0.33333  0.66667  0.63045  1
 B  B15  1  0.66667  0.33333  0.13045  1
 B  B16  1  0.66574  -0.00000  0.00000  1
 Mo  Mo1  1  0.33333  0.66667  0.25000  1
 Mo  Mo2  1  0.00000  0.00000  0.75000  1
 Mo  Mo3  1  0.66667  0.33333  0.75000  1
 Mo  Mo4  1  0.00000  0.00000  0.25000  1
