CIF file written using JARVIS-Tools package.
data_Li2TiMnO4
_symmetry_space_group_name_H-M  'I-4m2'
_cell_length_a       5.21272
_cell_length_b       5.21272
_cell_length_c       5.21272
_cell_angle_alpha    134.328
_cell_angle_beta     134.328
_cell_angle_gamma    66.5761

_symmetry_Int_Tables_number  119
_chemical_formula_structural  Li2TiMnO4
_chemical_formula_sum  Li2TiMnO4
_cell_volume  71.33353402286326
_cell_formula_units_Z  1
loop_
  _symmetry_equiv_pos_site_id
 _symmetry_equiv_pos_as_xyz
 1  'x, y, z'
loop_
 _atom_site_type_symbol
 _atom_site_label
 _atom_site_symmetry_multiplicity
 _atom_site_fract_x
 _atom_site_fract_y
 _atom_site_fract_z
 _atom_site_fract_occupancy
 Li  Li1  1  0.25000  0.75000  0.50000  1
 Li  Li2  1  0.50000  0.50000  0.00000  1
 Mn  Mn1  1  0.00000  0.00000  0.00000  1
 O  O1  1  0.51494  0.01494  0.50000  1
 O  O2  1  0.25021  0.25021  0.00000  1
 O  O3  1  0.98506  0.48506  0.50000  1
 O  O4  1  0.74979  0.74979  -0.00000  1
 Ti  Ti1  1  0.75000  0.25000  0.50000  1
