CIF file written using JARVIS-Tools package.
data_Cu3H2C2O8
_symmetry_space_group_name_H-M  'P2_1/c'
_cell_length_a       4.93205
_cell_length_b       5.87288
_cell_length_c       10.5065
_cell_angle_alpha    90
_cell_angle_beta     90.6864
_cell_angle_gamma    90

_symmetry_Int_Tables_number  14
_chemical_formula_structural  Cu3H2C2O8
_chemical_formula_sum  Cu6H4C4O6
_cell_volume  304.3018577376422
_cell_formula_units_Z  2
loop_
  _symmetry_equiv_pos_site_id
 _symmetry_equiv_pos_as_xyz
 1  'x, y, z'
loop_
 _atom_site_type_symbol
 _atom_site_label
 _atom_site_symmetry_multiplicity
 _atom_site_fract_x
 _atom_site_fract_y
 _atom_site_fract_z
 _atom_site_fract_occupancy
 C  C1  1  0.66657  0.80605  0.18425  1
 C  C2  1  0.33343  0.30605  0.31575  1
 C  C3  1  0.66657  0.69395  0.68425  1
 C  C4  1  0.33343  0.19395  0.81575  1
 Cu  Cu1  1  0.00000  0.50000  0.50000  1
 Cu  Cu2  1  0.00000  0.00000  0.00000  1
 Cu  Cu3  1  0.24799  -0.00194  0.58471  1
 Cu  Cu4  1  0.24799  0.50194  0.08471  1
 Cu  Cu5  1  0.75201  0.00194  0.41529  1
 Cu  Cu6  1  0.75201  0.49806  0.91529  1
 H  H1  1  0.19880  0.70062  0.87123  1
 H  H2  1  0.80120  0.20062  0.62877  1
 H  H3  1  0.80120  0.29938  0.12877  1
 H  H4  1  0.19880  0.79938  0.37123  1
 O  O1  1  0.07695  0.68912  0.94532  1
 O  O2  1  0.56098  0.70292  0.79602  1
 O  O3  1  0.43902  0.20292  0.70398  1
 O  O4  1  0.07695  0.81088  0.44532  1
 O  O5  1  0.92305  0.31088  0.05468  1
 O  O6  1  0.92305  0.18912  0.55468  1
 O  O7  1  0.89973  0.90612  0.17106  1
 O  O8  1  0.56098  0.79708  0.29602  1
 O  O9  1  0.45428  0.21938  0.41448  1
 O  O10  1  0.54572  0.71938  0.08552  1
 O  O11  1  0.54572  0.78062  0.58552  1
 O  O12  1  0.45428  0.28062  0.91448  1
 O  O13  1  0.43902  0.29708  0.20398  1
 O  O14  1  0.10027  0.09388  0.82894  1
 O  O15  1  0.89973  0.59388  0.67106  1
 O  O16  1  0.10027  0.40612  0.32894  1
