CIF file written using JARVIS-Tools package.
data_AlP2H5O9
_symmetry_space_group_name_H-M  'P2_1/c'
_cell_length_a       7.76843
_cell_length_b       9.13344
_cell_length_c       9.34
_cell_angle_alpha    90
_cell_angle_beta     111.006
_cell_angle_gamma    90

_symmetry_Int_Tables_number  14
_chemical_formula_structural  AlP2H5O9
_chemical_formula_sum  Al4P8H20O36
_cell_volume  618.6542125952176
_cell_formula_units_Z  4
loop_
  _symmetry_equiv_pos_site_id
 _symmetry_equiv_pos_as_xyz
 1  'x, y, z'
loop_
 _atom_site_type_symbol
 _atom_site_label
 _atom_site_symmetry_multiplicity
 _atom_site_fract_x
 _atom_site_fract_y
 _atom_site_fract_z
 _atom_site_fract_occupancy
 Al  Al1  1  0.12963  0.28192  0.93602  1
 Al  Al2  1  0.87037  0.78192  0.56398  1
 Al  Al3  1  0.87037  0.71808  0.06398  1
 Al  Al4  1  0.12963  0.21808  0.43602  1
 H  H1  1  0.44753  0.85639  0.43024  1
 H  H2  1  0.23507  0.87866  0.74294  1
 H  H3  1  0.44753  0.64361  0.93024  1
 H  H4  1  0.11877  0.08954  0.13878  1
 H  H5  1  0.88123  0.91046  0.86122  1
 H  H6  1  0.88123  0.58954  0.36122  1
 H  H7  1  0.76493  0.37866  0.75706  1
 H  H8  1  0.74191  0.53410  0.43629  1
 H  H9  1  0.74191  0.96590  0.93629  1
 H  H10  1  0.25809  0.46590  0.56371  1
 H  H11  1  0.25809  0.03410  0.06371  1
 H  H12  1  0.11877  0.41046  0.63878  1
 H  H13  1  0.76493  0.12134  0.25706  1
 H  H14  1  0.55247  0.14361  0.56976  1
 H  H15  1  0.62641  0.20384  0.92326  1
 H  H16  1  0.37359  0.70384  0.57674  1
 H  H17  1  0.37359  0.79616  0.07674  1
 H  H18  1  0.62641  0.29616  0.42326  1
 H  H19  1  0.55247  0.35639  0.06976  1
 H  H20  1  0.23507  0.62134  0.24294  1
 O  O1  1  0.34517  0.84414  0.47092  1
 O  O2  1  0.65805  0.86224  0.40101  1
 O  O3  1  0.84642  0.60206  0.45320  1
 O  O4  1  0.28148  0.30176  0.34308  1
 O  O5  1  0.15358  0.10206  0.04680  1
 O  O6  1  0.40562  0.88700  0.14381  1
 O  O7  1  0.84642  0.89794  0.95320  1
 O  O8  1  0.15358  0.39794  0.54680  1
 O  O9  1  0.96947  0.34800  0.02821  1
 O  O10  1  0.71852  0.80176  0.15692  1
 O  O11  1  0.03053  0.65200  0.97179  1
 O  O12  1  0.71852  0.69824  0.65692  1
 O  O13  1  0.28148  0.19824  0.84308  1
 O  O14  1  0.91450  0.28066  0.27343  1
 O  O15  1  0.08550  0.78066  0.22657  1
 O  O16  1  0.08550  0.71934  0.72657  1
 O  O17  1  0.91450  0.21934  0.77343  1
 O  O18  1  0.96947  0.15200  0.52821  1
 O  O19  1  0.65805  0.63776  0.90101  1
 O  O20  1  0.03053  0.84800  0.47179  1
 O  O21  1  0.40562  0.61300  0.64381  1
 O  O22  1  0.34195  0.13776  0.59899  1
 O  O23  1  0.35297  0.56758  0.29243  1
 O  O24  1  0.65483  0.15586  0.52908  1
 O  O25  1  0.59438  0.11300  0.85619  1
 O  O26  1  0.11814  0.45698  0.82003  1
 O  O27  1  0.88186  0.95698  0.67997  1
 O  O28  1  0.88186  0.54302  0.17997  1
 O  O29  1  0.34195  0.36224  0.09899  1
 O  O30  1  0.34517  0.65586  0.97092  1
 O  O31  1  0.64703  0.06758  0.20757  1
 O  O32  1  0.65483  0.34414  0.02908  1
 O  O33  1  0.35297  0.93242  0.79243  1
 O  O34  1  0.64703  0.43242  0.70757  1
 O  O35  1  0.11814  0.04302  0.32003  1
 O  O36  1  0.59438  0.38700  0.35619  1
 P  P1  1  0.86516  0.38073  0.13331  1
 P  P2  1  0.86516  0.11927  0.63331  1
 P  P3  1  0.13484  0.61927  0.86669  1
 P  P4  1  0.13484  0.88073  0.36669  1
 P  P5  1  0.62114  0.89991  0.23278  1
 P  P6  1  0.37886  0.10009  0.76722  1
 P  P7  1  0.62114  0.60009  0.73278  1
 P  P8  1  0.37886  0.39991  0.26722  1
