CIF file written using JARVIS-Tools package.
data_Li2WO4
_symmetry_space_group_name_H-M  'R-3'
_cell_length_a       8.90443
_cell_length_b       8.90443
_cell_length_c       8.90443
_cell_angle_alpha    107.803
_cell_angle_beta     107.803
_cell_angle_gamma    107.803

_symmetry_Int_Tables_number  148
_chemical_formula_structural  Li2WO4
_chemical_formula_sum  Li2W6O24
_cell_volume  574.6150546340608
_cell_formula_units_Z  6
loop_
  _symmetry_equiv_pos_site_id
 _symmetry_equiv_pos_as_xyz
 1  'x, y, z'
loop_
 _atom_site_type_symbol
 _atom_site_label
 _atom_site_symmetry_multiplicity
 _atom_site_fract_x
 _atom_site_fract_y
 _atom_site_fract_z
 _atom_site_fract_occupancy
 Li  Li1  1  0.06670  0.29741  0.89437  1
 Li  Li2  1  0.10563  0.93330  0.70259  1
 Li  Li3  1  0.29741  0.89437  0.06670  1
 Li  Li4  1  0.89437  0.06670  0.29741  1
 Li  Li5  1  0.70259  0.10563  0.93330  1
 Li  Li6  1  0.36959  0.77511  0.60928  1
 Li  Li7  1  0.93330  0.70259  0.10563  1
 Li  Li8  1  0.60928  0.36959  0.77511  1
 Li  Li9  1  0.77511  0.60928  0.36959  1
 Li  Li10  1  0.39072  0.63041  0.22489  1
 Li  Li11  1  0.63041  0.22489  0.39072  1
 Li  Li12  1  0.22489  0.39072  0.63041  1
 O  O1  1  0.49655  0.18805  0.52906  1
 O  O2  1  0.54224  0.85984  0.84662  1
 O  O3  1  0.50345  0.81195  0.47094  1
 O  O4  1  0.81195  0.47094  0.50345  1
 O  O5  1  0.47094  0.50345  0.81195  1
 O  O6  1  0.18805  0.52906  0.49655  1
 O  O7  1  0.87876  0.21835  0.18207  1
 O  O8  1  0.81793  0.12124  0.78165  1
 O  O9  1  0.12124  0.78165  0.81793  1
 O  O10  1  0.84662  0.54224  0.85984  1
 O  O11  1  0.08132  0.42338  0.75151  1
 O  O12  1  0.14016  0.15338  0.45776  1
 O  O13  1  0.52906  0.49655  0.18805  1
 O  O14  1  0.15338  0.45776  0.14016  1
 O  O15  1  0.91868  0.57662  0.24849  1
 O  O16  1  0.75151  0.08132  0.42338  1
 O  O17  1  0.78165  0.81793  0.12124  1
 O  O18  1  0.42338  0.75151  0.08132  1
 O  O19  1  0.24849  0.91868  0.57662  1
 O  O20  1  0.85984  0.84662  0.54224  1
 O  O21  1  0.57662  0.24849  0.91868  1
 O  O22  1  0.21835  0.18207  0.87876  1
 O  O23  1  0.45776  0.14016  0.15338  1
 O  O24  1  0.18207  0.87876  0.21835  1
 W  W1  1  0.44440  0.26985  0.03382  1
 W  W2  1  0.03382  0.44441  0.26985  1
 W  W3  1  0.96618  0.55559  0.73015  1
 W  W4  1  0.55560  0.73015  0.96618  1
 W  W5  1  0.26985  0.03382  0.44440  1
 W  W6  1  0.73015  0.96618  0.55559  1
