CIF file written using JARVIS-Tools package.
data_ZrBrN
_symmetry_space_group_name_H-M  'R-3m'
_cell_length_a       10.0386
_cell_length_b       10.0386
_cell_length_c       10.0386
_cell_angle_alpha    21.0109
_cell_angle_beta     21.011
_cell_angle_gamma    21.011

_symmetry_Int_Tables_number  166
_chemical_formula_structural  ZrBrN
_chemical_formula_sum  Zr2Br2N2
_cell_volume  113.88877599679113
_cell_formula_units_Z  2
loop_
  _symmetry_equiv_pos_site_id
 _symmetry_equiv_pos_as_xyz
 1  'x, y, z'
loop_
 _atom_site_type_symbol
 _atom_site_label
 _atom_site_symmetry_multiplicity
 _atom_site_fract_x
 _atom_site_fract_y
 _atom_site_fract_z
 _atom_site_fract_occupancy
 Br  Br1  1  0.38825  0.38825  0.38825  1
 Br  Br2  1  0.61175  0.61175  0.61175  1
 N  N1  1  0.19623  0.19623  0.19623  1
 N  N2  1  0.80377  0.80377  0.80377  1
 Zr  Zr1  1  0.12222  0.12222  0.12222  1
 Zr  Zr2  1  0.87778  0.87778  0.87778  1
