CIF file written using JARVIS-Tools package.
data_BH6N
_symmetry_space_group_name_H-M  'Pmn2_1'
_cell_length_a       4.72654
_cell_length_b       4.97454
_cell_length_c       5.36239
_cell_angle_alpha    90
_cell_angle_beta     90
_cell_angle_gamma    90

_symmetry_Int_Tables_number  31
_chemical_formula_structural  BH6N
_chemical_formula_sum  B2H2N2
_cell_volume  126.08265861952044
_cell_formula_units_Z  2
loop_
  _symmetry_equiv_pos_site_id
 _symmetry_equiv_pos_as_xyz
 1  'x, y, z'
loop_
 _atom_site_type_symbol
 _atom_site_label
 _atom_site_symmetry_multiplicity
 _atom_site_fract_x
 _atom_site_fract_y
 _atom_site_fract_z
 _atom_site_fract_occupancy
 B  B1  1  0.17551  0.99165  0.00000  1
 B  B2  1  0.82449  0.49165  0.50000  1
 H  H1  1  0.72240  0.39154  0.31221  1
 H  H2  1  0.84279  0.89861  0.34445  1
 H  H3  1  0.72240  0.39154  0.68779  1
 H  H4  1  0.27760  0.89154  0.81221  1
 H  H5  1  0.27760  0.89154  0.18779  1
 H  H6  1  0.08333  0.46499  0.50000  1
 H  H7  1  0.91667  0.96499  0.00000  1
 H  H8  1  0.15721  0.39861  0.15555  1
 H  H9  1  0.45526  0.34624  0.00000  1
 H  H10  1  0.54474  0.84624  0.50000  1
 H  H11  1  0.84279  0.89861  0.65555  1
 H  H12  1  0.15721  0.39861  0.84445  1
 N  N1  1  0.75838  0.80581  0.50000  1
 N  N2  1  0.24162  0.30581  0.00000  1
