CIF file written using JARVIS-Tools package.
data_CaCdAu
_symmetry_space_group_name_H-M  'Pnma'
_cell_length_a       4.33617
_cell_length_b       7.37606
_cell_length_c       8.90667
_cell_angle_alpha    90
_cell_angle_beta     90
_cell_angle_gamma    90

_symmetry_Int_Tables_number  62
_chemical_formula_structural  CaCdAu
_chemical_formula_sum  Ca4Cd4Au4
_cell_volume  284.86926552291703
_cell_formula_units_Z  4
loop_
  _symmetry_equiv_pos_site_id
 _symmetry_equiv_pos_as_xyz
 1  'x, y, z'
loop_
 _atom_site_type_symbol
 _atom_site_label
 _atom_site_symmetry_multiplicity
 _atom_site_fract_x
 _atom_site_fract_y
 _atom_site_fract_z
 _atom_site_fract_occupancy
 Au  Au1  1  0.25000  0.24208  0.37000  1
 Au  Au2  1  0.75000  0.25792  0.87000  1
 Au  Au3  1  0.75000  0.75792  0.63000  1
 Au  Au4  1  0.25000  0.74208  0.13000  1
 Ca  Ca1  1  0.25000  0.04722  0.68231  1
 Ca  Ca2  1  0.75000  0.45278  0.18231  1
 Ca  Ca3  1  0.75000  0.95278  0.31769  1
 Ca  Ca4  1  0.25000  0.54722  0.81769  1
 Cd  Cd1  1  0.25000  0.14081  0.05985  1
 Cd  Cd2  1  0.75000  0.35919  0.55985  1
 Cd  Cd3  1  0.75000  0.85919  0.94015  1
 Cd  Cd4  1  0.25000  0.64081  0.44015  1
