CIF file written using JARVIS-Tools package.
data_Li3FeCo3O8
_symmetry_space_group_name_H-M  'C2/m'
_cell_length_a       5.66194
_cell_length_b       5.66194
_cell_length_c       5.72668
_cell_angle_alpha    120.017
_cell_angle_beta     90.4861
_cell_angle_gamma    59.8276

_symmetry_Int_Tables_number  12
_chemical_formula_structural  Li3FeCo3O8
_chemical_formula_sum  Li3FeCo3O8
_cell_volume  129.98484225929997
_cell_formula_units_Z  1
loop_
  _symmetry_equiv_pos_site_id
 _symmetry_equiv_pos_as_xyz
 1  'x, y, z'
loop_
 _atom_site_type_symbol
 _atom_site_label
 _atom_site_symmetry_multiplicity
 _atom_site_fract_x
 _atom_site_fract_y
 _atom_site_fract_z
 _atom_site_fract_occupancy
 Co  Co1  1  -0.00000  0.50000  -0.00000  1
 Co  Co2  1  0.50000  -0.00000  -0.00000  1
 Co  Co3  1  0.50000  0.50000  -0.00000  1
 Fe  Fe1  1  0.00000  0.00000  0.00000  1
 Li  Li1  1  -0.00000  -0.00000  0.50000  1
 Li  Li2  1  0.50000  -0.00000  0.50000  1
 Li  Li3  1  0.50000  0.50000  0.50000  1
 O  O1  1  0.23868  0.01896  0.78028  1
 O  O2  1  0.26593  0.47743  0.21151  1
 O  O3  1  0.23868  0.52454  0.78718  1
 O  O4  1  0.73737  0.02586  0.78718  1
 O  O5  1  0.26263  0.97414  0.21282  1
 O  O6  1  0.76132  0.47546  0.21282  1
 O  O7  1  0.73407  0.52257  0.78849  1
 O  O8  1  0.76132  0.98104  0.21972  1
