CIF file written using JARVIS-Tools package.
data_SCl2O2
_symmetry_space_group_name_H-M  'Fdd2'
_cell_length_a       5.7017
_cell_length_b       5.78812
_cell_length_c       7.83917
_cell_angle_alpha    79.6816
_cell_angle_beta     68.6744
_cell_angle_gamma    60.4927

_symmetry_Int_Tables_number  43
_chemical_formula_structural  SCl2O2
_chemical_formula_sum  S2Cl4O4
_cell_volume  209.73655749701882
_cell_formula_units_Z  2
loop_
  _symmetry_equiv_pos_site_id
 _symmetry_equiv_pos_as_xyz
 1  'x, y, z'
loop_
 _atom_site_type_symbol
 _atom_site_label
 _atom_site_symmetry_multiplicity
 _atom_site_fract_x
 _atom_site_fract_y
 _atom_site_fract_z
 _atom_site_fract_occupancy
 Cl  Cl1  1  0.37779  0.78462  0.41168  1
 Cl  Cl2  1  0.03947  0.28462  0.08832  1
 Cl  Cl3  1  0.41241  0.71538  0.91168  1
 Cl  Cl4  1  0.57409  0.21538  0.58832  1
 O  O1  1  -0.00026  0.60157  0.65594  1
 O  O2  1  0.90569  0.10157  0.84406  1
 O  O3  1  0.25726  0.39843  0.34406  1
 O  O4  1  0.85132  0.89843  0.15594  1
 S  S1  1  0.24964  0.50000  0.50000  1
 S  S2  1  -0.00036  -0.00000  0.00000  1
