CIF file written using JARVIS-Tools package.
data_CaTeO3
_symmetry_space_group_name_H-M  'P2_1/c'
_cell_length_a       5.72546
_cell_length_b       8.29389
_cell_length_c       21.1069
_cell_angle_alpha    90.0594
_cell_angle_beta     90
_cell_angle_gamma    90

_symmetry_Int_Tables_number  14
_chemical_formula_structural  CaTeO3
_chemical_formula_sum  Ca2Te2O36
_cell_volume  1002.2869475127075
_cell_formula_units_Z  12
loop_
  _symmetry_equiv_pos_site_id
 _symmetry_equiv_pos_as_xyz
 1  'x, y, z'
loop_
 _atom_site_type_symbol
 _atom_site_label
 _atom_site_symmetry_multiplicity
 _atom_site_fract_x
 _atom_site_fract_y
 _atom_site_fract_z
 _atom_site_fract_occupancy
 Ca  Ca1  1  0.22794  0.96077  0.94166  1
 Ca  Ca2  1  0.35209  0.18893  0.18245  1
 Ca  Ca3  1  0.85209  0.31107  0.31755  1
 Ca  Ca4  1  0.27206  0.46077  0.44166  1
 Ca  Ca5  1  0.33310  0.57303  0.27733  1
 Ca  Ca6  1  0.72794  0.53923  0.55834  1
 Ca  Ca7  1  0.77206  0.03923  0.05834  1
 Ca  Ca8  1  0.66690  0.42697  0.72267  1
 Ca  Ca9  1  0.14791  0.68893  0.68245  1
 Ca  Ca10  1  0.64791  0.81107  0.81755  1
 Ca  Ca11  1  0.16690  0.07303  0.77733  1
 Ca  Ca12  1  0.83310  0.92697  0.22267  1
 O  O1  1  0.14314  0.72663  0.20181  1
 O  O2  1  0.98017  0.33080  0.49935  1
 O  O3  1  0.92204  0.62612  0.77530  1
 O  O4  1  0.11224  0.05336  0.27505  1
 O  O5  1  0.40346  0.48940  0.62578  1
 O  O6  1  0.76571  0.63757  0.90224  1
 O  O7  1  0.73429  0.13757  0.40224  1
 O  O8  1  0.49232  0.69542  0.48963  1
 O  O9  1  0.44680  0.09752  0.85495  1
 O  O10  1  0.88776  0.94664  0.72495  1
 O  O11  1  0.01983  0.66920  0.50065  1
 O  O12  1  0.55320  0.90248  0.14505  1
 O  O13  1  0.75790  0.72177  0.63994  1
 O  O14  1  0.48017  0.16920  0.00065  1
 O  O15  1  0.51983  0.83080  0.99935  1
 O  O16  1  0.24210  0.27823  0.36006  1
 O  O17  1  0.07796  0.37388  0.22470  1
 O  O18  1  0.25790  0.77823  0.86006  1
 O  O19  1  0.74210  0.22177  0.13994  1
 O  O20  1  0.38776  0.55336  0.77505  1
 O  O21  1  0.64314  0.77337  0.29819  1
 O  O22  1  0.61224  0.44664  0.22495  1
 O  O23  1  0.99232  0.80458  0.01037  1
 O  O24  1  0.90346  0.01060  0.87422  1
 O  O25  1  0.23429  0.36243  0.09776  1
 O  O26  1  0.42204  0.87388  0.72470  1
 O  O27  1  0.35686  0.22663  0.70181  1
 O  O28  1  0.50768  0.30458  0.51037  1
 O  O29  1  0.85686  0.27337  0.79819  1
 O  O30  1  0.57796  0.12612  0.27530  1
 O  O31  1  0.00768  0.19542  0.98963  1
 O  O32  1  0.26571  0.86243  0.59776  1
 O  O33  1  0.09654  0.98940  0.12578  1
 O  O34  1  0.94680  0.40248  0.64505  1
 O  O35  1  0.05320  0.59752  0.35495  1
 O  O36  1  0.59654  0.51060  0.37422  1
 Te  Te1  1  0.75855  0.16477  0.49048  1
 Te  Te2  1  0.25855  0.33523  0.00952  1
 Te  Te3  1  0.73013  0.20572  0.87757  1
 Te  Te4  1  0.15072  0.56973  0.83718  1
 Te  Te5  1  0.23013  0.29428  0.62243  1
 Te  Te6  1  0.84928  0.43027  0.16282  1
 Te  Te7  1  0.65072  0.93027  0.66282  1
 Te  Te8  1  0.24145  0.83523  0.50952  1
 Te  Te9  1  0.76987  0.70572  0.37757  1
 Te  Te10  1  0.26987  0.79428  0.12243  1
 Te  Te11  1  0.34928  0.06973  0.33718  1
 Te  Te12  1  0.74145  0.66477  0.99048  1
