CIF file written using JARVIS-Tools package.
data_Li3YNi2O6
_symmetry_space_group_name_H-M  'C2/m'
_cell_length_a       5.25809
_cell_length_b       5.25809
_cell_length_c       5.14486
_cell_angle_alpha    81.6339
_cell_angle_beta     98.3661
_cell_angle_gamma    59.1642

_symmetry_Int_Tables_number  12
_chemical_formula_structural  Li3YNi2O6
_chemical_formula_sum  Li3YNi2O6
_cell_volume  116.70977635905122
_cell_formula_units_Z  1
loop_
  _symmetry_equiv_pos_site_id
 _symmetry_equiv_pos_as_xyz
 1  'x, y, z'
loop_
 _atom_site_type_symbol
 _atom_site_label
 _atom_site_symmetry_multiplicity
 _atom_site_fract_x
 _atom_site_fract_y
 _atom_site_fract_z
 _atom_site_fract_occupancy
 Li  Li1  1  0.19513  0.19513  0.50000  1
 Li  Li2  1  0.50000  0.50000  0.50000  1
 Li  Li3  1  0.80487  0.80487  0.50000  1
 Ni  Ni1  1  0.33403  0.33403  0.00000  1
 Ni  Ni2  1  0.66597  0.66597  -0.00000  1
 O  O1  1  0.30211  0.69789  0.76675  1
 O  O2  1  0.06947  0.56333  0.23061  1
 O  O3  1  0.43667  0.93053  0.23061  1
 O  O4  1  0.93053  0.43667  0.76939  1
 O  O5  1  0.56333  0.06947  0.76939  1
 O  O6  1  0.69789  0.30211  0.23325  1
 Y  Y1  1  0.00000  0.00000  0.00000  1
