CIF file written using JARVIS-Tools package.
data_Ca4Al6SO12
_symmetry_space_group_name_H-M  'I-43m'
_cell_length_a       7.86122
_cell_length_b       7.86122
_cell_length_c       7.86122
_cell_angle_alpha    109.471
_cell_angle_beta     109.471
_cell_angle_gamma    109.471

_symmetry_Int_Tables_number  217
_chemical_formula_structural  Ca4Al6SO12
_chemical_formula_sum  Ca4Al6SO2
_cell_volume  373.9799633407727
_cell_formula_units_Z  1
loop_
  _symmetry_equiv_pos_site_id
 _symmetry_equiv_pos_as_xyz
 1  'x, y, z'
loop_
 _atom_site_type_symbol
 _atom_site_label
 _atom_site_symmetry_multiplicity
 _atom_site_fract_x
 _atom_site_fract_y
 _atom_site_fract_z
 _atom_site_fract_occupancy
 Al  Al1  1  0.25000  0.50000  0.75000  1
 Al  Al2  1  0.75000  0.50000  0.25000  1
 Al  Al3  1  0.75000  0.25000  0.50000  1
 Al  Al4  1  0.25000  0.75000  0.50000  1
 Al  Al5  1  0.50000  0.25000  0.75000  1
 Al  Al6  1  0.50000  0.75000  0.25000  1
 Ca  Ca1  1  0.64753  -0.00000  -0.00000  1
 Ca  Ca2  1  0.35247  0.35247  0.35247  1
 Ca  Ca3  1  -0.00000  0.64753  0.00000  1
 Ca  Ca4  1  0.00000  0.00000  0.64753  1
 O  O1  1  0.27783  0.27783  0.70934  1
 O  O2  1  0.72217  0.43151  0.00000  1
 O  O3  1  0.43151  0.72217  -0.00000  1
 O  O4  1  0.27783  0.70934  0.27783  1
 O  O5  1  0.56849  0.29066  0.56849  1
 O  O6  1  0.56849  0.56849  0.29066  1
 O  O7  1  0.43151  -0.00000  0.72217  1
 O  O8  1  0.00000  0.72217  0.43151  1
 O  O9  1  -0.00000  0.43151  0.72217  1
 O  O10  1  0.70934  0.27783  0.27783  1
 O  O11  1  0.72217  0.00000  0.43151  1
 O  O12  1  0.29066  0.56849  0.56849  1
 S  S1  1  0.00000  0.00000  0.00000  1
