CIF file written using JARVIS-Tools package.
data_Fe2OF3
_symmetry_space_group_name_H-M  'Imma'
_cell_length_a       5.53127
_cell_length_b       5.53127
_cell_length_c       5.53127
_cell_angle_alpha    70.6751
_cell_angle_beta     104.489
_cell_angle_gamma    65.2358

_symmetry_Int_Tables_number  74
_chemical_formula_structural  Fe2OF3
_chemical_formula_sum  Fe4O2F6
_cell_volume  129.22080653375835
_cell_formula_units_Z  2
loop_
  _symmetry_equiv_pos_site_id
 _symmetry_equiv_pos_as_xyz
 1  'x, y, z'
loop_
 _atom_site_type_symbol
 _atom_site_label
 _atom_site_symmetry_multiplicity
 _atom_site_fract_x
 _atom_site_fract_y
 _atom_site_fract_z
 _atom_site_fract_occupancy
 F  F1  1  0.56319  0.25000  0.81319  1
 F  F2  1  0.06319  0.75000  0.81319  1
 F  F3  1  -0.00000  0.27832  0.72168  1
 F  F4  1  0.50000  0.22168  0.27832  1
 F  F5  1  0.93681  0.25000  0.18681  1
 F  F6  1  0.43681  0.75000  0.18681  1
 Fe  Fe1  1  0.75000  0.75000  0.50000  1
 Fe  Fe2  1  0.25000  0.25000  0.50000  1
 Fe  Fe3  1  0.00000  0.97295  0.02705  1
 Fe  Fe4  1  0.50000  0.52705  0.97295  1
 O  O1  1  0.50000  0.80890  0.69110  1
 O  O2  1  -0.00000  0.69110  0.30890  1
