CIF file written using JARVIS-Tools package.
data_InClO
_symmetry_space_group_name_H-M  'Pmmn'
_cell_length_a       3.57671
_cell_length_b       4.11628
_cell_length_c       8.0915
_cell_angle_alpha    90
_cell_angle_beta     90
_cell_angle_gamma    90

_symmetry_Int_Tables_number  59
_chemical_formula_structural  InClO
_chemical_formula_sum  In2Cl2O2
_cell_volume  119.12922124145122
_cell_formula_units_Z  2
loop_
  _symmetry_equiv_pos_site_id
 _symmetry_equiv_pos_as_xyz
 1  'x, y, z'
loop_
 _atom_site_type_symbol
 _atom_site_label
 _atom_site_symmetry_multiplicity
 _atom_site_fract_x
 _atom_site_fract_y
 _atom_site_fract_z
 _atom_site_fract_occupancy
 Cl  Cl1  1  0.00000  0.50000  0.65054  1
 Cl  Cl2  1  0.50000  0.00000  0.34946  1
 In  In1  1  0.00000  0.00000  0.12539  1
 In  In2  1  0.50000  0.50000  0.87461  1
 O  O1  1  0.50000  0.00000  0.95402  1
 O  O2  1  0.00000  0.50000  0.04598  1
