CIF file written using JARVIS-Tools package.
data_SmCoC2
_symmetry_space_group_name_H-M  'Cc'
_cell_length_a       3.7464
_cell_length_b       3.7464
_cell_length_c       7.3809
_cell_angle_alpha    98.069
_cell_angle_beta     98.069
_cell_angle_gamma    90.0506

_symmetry_Int_Tables_number  9
_chemical_formula_structural  SmCoC2
_chemical_formula_sum  Sm2Co2C4
_cell_volume  101.53095725838891
_cell_formula_units_Z  2
loop_
  _symmetry_equiv_pos_site_id
 _symmetry_equiv_pos_as_xyz
 1  'x, y, z'
loop_
 _atom_site_type_symbol
 _atom_site_label
 _atom_site_symmetry_multiplicity
 _atom_site_fract_x
 _atom_site_fract_y
 _atom_site_fract_z
 _atom_site_fract_occupancy
 C  C1  1  0.95188  0.58919  0.08056  1
 C  C2  1  0.58919  0.95188  0.58056  1
 C  C3  1  0.99995  0.84838  0.23328  1
 C  C4  1  0.84838  0.99995  0.73328  1
 Co  Co1  1  0.07045  0.92857  0.49985  1
 Co  Co2  1  0.92857  0.07045  -0.00015  1
 Sm  Sm1  1  0.51404  0.36954  0.30732  1
 Sm  Sm2  1  0.36954  0.51404  0.80732  1
