CIF file written using JARVIS-Tools package.
data_TiGa2O5
_symmetry_space_group_name_H-M  'C2/c'
_cell_length_a       5.01897
_cell_length_b       5.63535
_cell_length_c       7.01818
_cell_angle_alpha    107.87
_cell_angle_beta     90.0013
_cell_angle_gamma    116.443

_symmetry_Int_Tables_number  15
_chemical_formula_structural  TiGa2O5
_chemical_formula_sum  Ti2Ga4O0
_cell_volume  166.9685987306564
_cell_formula_units_Z  2
loop_
  _symmetry_equiv_pos_site_id
 _symmetry_equiv_pos_as_xyz
 1  'x, y, z'
loop_
 _atom_site_type_symbol
 _atom_site_label
 _atom_site_symmetry_multiplicity
 _atom_site_fract_x
 _atom_site_fract_y
 _atom_site_fract_z
 _atom_site_fract_occupancy
 Ga  Ga1  1  0.63554  0.27412  0.72710  1
 Ga  Ga2  1  0.63618  0.27412  0.22710  1
 Ga  Ga3  1  0.35916  0.72139  0.76979  1
 Ga  Ga4  1  0.35982  0.72138  0.26979  1
 O  O1  1  0.41737  0.17104  0.94931  1
 O  O2  1  0.75129  0.17106  0.44932  1
 O  O3  1  0.33709  0.36558  0.64610  1
 O  O4  1  0.96926  0.62999  0.85079  1
 O  O5  1  0.02609  0.36556  0.14611  1
 O  O6  1  0.65834  0.62999  0.35079  1
 O  O7  1  0.24426  0.82463  0.54762  1
 O  O8  1  0.80009  -0.00219  0.74845  1
 O  O9  1  0.57798  0.82461  0.04762  1
 O  O10  1  0.19532  0.99779  0.24845  1
 Ti  Ti1  1  0.99771  0.99781  0.49838  1
 Ti  Ti2  1  0.99769  0.99780  0.99838  1
