CIF file written using JARVIS-Tools package.
data_KGe2BO6
_symmetry_space_group_name_H-M  'P2_12_12_1'
_cell_length_a       4.81799
_cell_length_b       10.2133
_cell_length_c       10.7764
_cell_angle_alpha    90
_cell_angle_beta     90
_cell_angle_gamma    90

_symmetry_Int_Tables_number  19
_chemical_formula_structural  KGe2BO6
_chemical_formula_sum  K4Ge8B4O24
_cell_volume  530.2828013288658
_cell_formula_units_Z  4
loop_
  _symmetry_equiv_pos_site_id
 _symmetry_equiv_pos_as_xyz
 1  'x, y, z'
loop_
 _atom_site_type_symbol
 _atom_site_label
 _atom_site_symmetry_multiplicity
 _atom_site_fract_x
 _atom_site_fract_y
 _atom_site_fract_z
 _atom_site_fract_occupancy
 B  B1  1  0.69274  0.23403  0.65801  1
 B  B2  1  0.19274  0.26597  0.34199  1
 B  B3  1  0.30726  0.73403  0.84199  1
 B  B4  1  0.80726  0.76597  0.15801  1
 Ge  Ge1  1  0.72958  0.30047  0.91905  1
 Ge  Ge2  1  0.22958  0.19953  0.08095  1
 Ge  Ge3  1  0.77042  0.69953  0.41905  1
 Ge  Ge4  1  0.80164  0.61455  0.93347  1
 Ge  Ge5  1  0.27042  0.80047  0.58095  1
 Ge  Ge6  1  0.69836  0.38545  0.43347  1
 Ge  Ge7  1  0.30164  0.88545  0.06653  1
 Ge  Ge8  1  0.19836  0.11455  0.56653  1
 K  K1  1  0.31089  0.52964  0.18570  1
 K  K2  1  0.68911  0.02964  0.31430  1
 K  K3  1  0.18911  0.47036  0.68570  1
 K  K4  1  0.81089  0.97036  0.81430  1
 O  O1  1  0.55980  0.12195  0.59470  1
 O  O2  1  0.06849  0.25507  0.21596  1
 O  O3  1  0.52780  0.82272  0.46461  1
 O  O4  1  0.36137  0.86102  0.90607  1
 O  O5  1  0.56849  0.24493  0.78404  1
 O  O6  1  0.94020  0.87805  0.09470  1
 O  O7  1  0.63863  0.36102  0.59393  1
 O  O8  1  0.99594  0.21005  0.66877  1
 O  O9  1  0.93151  0.75507  0.28404  1
 O  O10  1  0.43151  0.74493  0.71596  1
 O  O11  1  0.00406  0.71005  0.83123  1
 O  O12  1  0.91382  0.44940  0.90524  1
 O  O13  1  0.08618  0.94940  0.59476  1
 O  O14  1  0.44020  0.62195  0.90530  1
 O  O15  1  0.05980  0.37805  0.40530  1
 O  O16  1  0.13863  0.13898  0.40607  1
 O  O17  1  0.49594  0.28995  0.33123  1
 O  O18  1  0.97220  0.17728  0.96461  1
 O  O19  1  0.02780  0.67728  0.53539  1
 O  O20  1  0.86137  0.63898  0.09393  1
 O  O21  1  0.41382  0.05060  0.09476  1
 O  O22  1  0.58618  0.55060  0.40524  1
 O  O23  1  0.50406  0.78995  0.16877  1
 O  O24  1  0.47220  0.32272  0.03539  1
