CIF file written using JARVIS-Tools package.
data_Na4MgO3
_symmetry_space_group_name_H-M  'Cc'
_cell_length_a       6.28786
_cell_length_b       6.28786
_cell_length_c       8.0823
_cell_angle_alpha    70.4638
_cell_angle_beta     109.536
_cell_angle_gamma    124.274

_symmetry_Int_Tables_number  9
_chemical_formula_structural  Na4MgO3
_chemical_formula_sum  Na8Mg2O6
_cell_volume  244.44252133056972
_cell_formula_units_Z  2
loop_
  _symmetry_equiv_pos_site_id
 _symmetry_equiv_pos_as_xyz
 1  'x, y, z'
loop_
 _atom_site_type_symbol
 _atom_site_label
 _atom_site_symmetry_multiplicity
 _atom_site_fract_x
 _atom_site_fract_y
 _atom_site_fract_z
 _atom_site_fract_occupancy
 Mg  Mg1  1  0.33215  0.37680  0.75268  1
 Mg  Mg2  1  0.62320  0.66785  0.25268  1
 Na  Na1  1  0.52461  0.92210  0.83889  1
 Na  Na2  1  0.07790  0.47539  0.33889  1
 Na  Na3  1  0.73084  0.97369  0.53793  1
 Na  Na4  1  0.97276  0.73370  0.93207  1
 Na  Na5  1  0.02631  0.26916  0.03793  1
 Na  Na6  1  0.26630  0.02724  0.43207  1
 Na  Na7  1  0.87646  0.45099  0.63737  1
 Na  Na8  1  0.54901  0.12354  0.13737  1
 O  O1  1  0.31899  0.68160  0.59957  1
 O  O2  1  0.31840  0.68101  0.09957  1
 O  O3  1  0.63837  0.34511  0.84911  1
 O  O4  1  0.65489  0.36163  0.34911  1
 O  O5  1  0.98698  0.11206  0.80476  1
 O  O6  1  0.88794  0.01302  0.30476  1
