CIF file written using JARVIS-Tools package.
data_K2PtS6
_symmetry_space_group_name_H-M  'C2/m'
_cell_length_a       7.21009
_cell_length_b       7.27456
_cell_length_c       4.86114
_cell_angle_alpha    90
_cell_angle_beta     94.0275
_cell_angle_gamma    120.296

_symmetry_Int_Tables_number  12
_chemical_formula_structural  K2PtS6
_chemical_formula_sum  K2PtS6
_cell_volume  219.41714167960708
_cell_formula_units_Z  1
loop_
  _symmetry_equiv_pos_site_id
 _symmetry_equiv_pos_as_xyz
 1  'x, y, z'
loop_
 _atom_site_type_symbol
 _atom_site_label
 _atom_site_symmetry_multiplicity
 _atom_site_fract_x
 _atom_site_fract_y
 _atom_site_fract_z
 _atom_site_fract_occupancy
 K  K1  1  0.39239  0.69620  0.73204  1
 K  K2  1  0.60761  0.30380  0.26796  1
 Pt  Pt1  1  0.00000  0.00000  0.00000  1
 S  S1  1  0.70040  0.85020  0.26847  1
 S  S2  1  0.09107  0.74888  0.18736  1
 S  S3  1  0.09107  0.34219  0.18736  1
 S  S4  1  0.29960  0.14980  0.73153  1
 S  S5  1  0.90893  0.25112  0.81264  1
 S  S6  1  0.90893  0.65781  0.81264  1
