CIF file written using JARVIS-Tools package.
data_BaCoP2O7
_symmetry_space_group_name_H-M  'P-1'
_cell_length_a       5.33934
_cell_length_b       7.29767
_cell_length_c       7.62207
_cell_angle_alpha    102.764
_cell_angle_beta     92.1768
_cell_angle_gamma    93.6987

_symmetry_Int_Tables_number  2
_chemical_formula_structural  BaCoP2O7
_chemical_formula_sum  Ba2Co2P4O4
_cell_volume  288.63214209645736
_cell_formula_units_Z  2
loop_
  _symmetry_equiv_pos_site_id
 _symmetry_equiv_pos_as_xyz
 1  'x, y, z'
loop_
 _atom_site_type_symbol
 _atom_site_label
 _atom_site_symmetry_multiplicity
 _atom_site_fract_x
 _atom_site_fract_y
 _atom_site_fract_z
 _atom_site_fract_occupancy
 Ba  Ba1  1  0.79559  0.22720  0.07163  1
 Ba  Ba2  1  0.20441  0.77280  0.92837  1
 Co  Co1  1  0.20217  0.61334  0.39540  1
 Co  Co2  1  0.79783  0.38666  0.60461  1
 O  O1  1  0.43510  0.73216  0.60326  1
 O  O2  1  0.78862  0.98293  0.74490  1
 O  O3  1  0.21138  0.01707  0.25510  1
 O  O4  1  0.10716  0.34592  0.41093  1
 O  O5  1  0.89284  0.65408  0.58907  1
 O  O6  1  0.72905  0.87666  0.40720  1
 O  O7  1  0.27095  0.12334  0.59280  1
 O  O8  1  0.06022  0.38471  0.80069  1
 O  O9  1  0.70411  0.84752  0.06958  1
 O  O10  1  0.93978  0.61529  0.19931  1
 O  O11  1  0.29589  0.15248  0.93042  1
 O  O12  1  0.46189  0.60353  0.20192  1
 O  O13  1  0.56490  0.26784  0.39674  1
 O  O14  1  0.53810  0.39647  0.79808  1
 P  P1  1  0.70514  0.73065  0.21156  1
 P  P2  1  0.29486  0.26935  0.78844  1
 P  P3  1  0.29217  0.18568  0.40178  1
 P  P4  1  0.70783  0.81432  0.59821  1
