CIF file written using JARVIS-Tools package.
data_K2P2H2O7
_symmetry_space_group_name_H-M  'P-1'
_cell_length_a       8.04323
_cell_length_b       8.15454
_cell_length_c       11.1884
_cell_angle_alpha    97.566
_cell_angle_beta     95.7463
_cell_angle_gamma    88.8027

_symmetry_Int_Tables_number  2
_chemical_formula_structural  K2P2H2O7
_chemical_formula_sum  K8P8H8O28
_cell_volume  723.7667859807242
_cell_formula_units_Z  4
loop_
  _symmetry_equiv_pos_site_id
 _symmetry_equiv_pos_as_xyz
 1  'x, y, z'
loop_
 _atom_site_type_symbol
 _atom_site_label
 _atom_site_symmetry_multiplicity
 _atom_site_fract_x
 _atom_site_fract_y
 _atom_site_fract_z
 _atom_site_fract_occupancy
 H  H1  1  0.92314  0.88461  0.33390  1
 H  H2  1  0.90312  0.56016  0.13735  1
 H  H3  1  0.26676  0.48091  0.82121  1
 H  H4  1  0.73324  0.51909  0.17879  1
 H  H5  1  0.09688  0.43984  0.86265  1
 H  H6  1  0.07686  0.11539  0.66610  1
 H  H7  1  0.02479  0.29873  0.68118  1
 H  H8  1  0.97521  0.70127  0.31882  1
 K  K1  1  0.74781  0.29740  0.94586  1
 K  K2  1  0.38874  0.29763  0.56730  1
 K  K3  1  0.82468  0.21835  0.45158  1
 K  K4  1  0.17532  0.78165  0.54842  1
 K  K5  1  0.61126  0.70237  0.43270  1
 K  K6  1  0.25219  0.70260  0.05414  1
 K  K7  1  0.71257  0.87813  0.07078  1
 K  K8  1  0.28743  0.12187  0.92922  1
 O  O1  1  0.10328  0.57631  0.22223  1
 O  O2  1  0.30052  0.51861  0.40912  1
 O  O3  1  0.22734  0.02927  0.19170  1
 O  O4  1  0.11142  0.29396  0.30016  1
 O  O5  1  0.88858  0.70604  0.69984  1
 O  O6  1  0.01939  0.19321  0.07352  1
 O  O7  1  0.98061  0.80679  0.92648  1
 O  O8  1  0.08328  0.21662  0.62664  1
 O  O9  1  0.34646  0.59435  0.71634  1
 O  O10  1  0.92502  0.04844  0.24822  1
 O  O11  1  0.07498  0.95156  0.75178  1
 O  O12  1  0.47955  0.85823  0.23821  1
 O  O13  1  0.52045  0.14177  0.76179  1
 O  O14  1  0.31107  0.98310  0.41607  1
 O  O15  1  0.68893  0.01690  0.58393  1
 O  O16  1  0.77266  0.97073  0.80830  1
 O  O17  1  0.65354  0.40565  0.28366  1
 O  O18  1  0.78195  0.56552  0.11262  1
 O  O19  1  0.55346  0.18797  0.09969  1
 O  O20  1  0.44654  0.81203  0.90031  1
 O  O21  1  0.89672  0.42369  0.77777  1
 O  O22  1  0.69948  0.48139  0.59088  1
 O  O23  1  0.21805  0.43448  0.88738  1
 O  O24  1  0.91672  0.78338  0.37336  1
 O  O25  1  0.65157  0.61181  0.80798  1
 O  O26  1  0.47940  0.17011  0.31696  1
 O  O27  1  0.52060  0.82989  0.68304  1
 O  O28  1  0.34843  0.38819  0.19202  1
 P  P1  1  0.62418  0.00589  0.70281  1
 P  P2  1  0.94572  0.86063  0.80429  1
 P  P3  1  0.37582  0.99411  0.29719  1
 P  P4  1  0.78484  0.54056  0.71328  1
 P  P5  1  0.21516  0.45944  0.28672  1
 P  P6  1  0.47547  0.71217  0.78228  1
 P  P7  1  0.52453  0.28783  0.21772  1
 P  P8  1  0.05428  0.13937  0.19571  1
