CIF file written using JARVIS-Tools package.
data_Na5CoO4
_symmetry_space_group_name_H-M  'Pmn2_1'
_cell_length_a       5.8892
_cell_length_b       6.04914
_cell_length_c       7.60323
_cell_angle_alpha    90
_cell_angle_beta     90
_cell_angle_gamma    90

_symmetry_Int_Tables_number  31
_chemical_formula_structural  Na5CoO4
_chemical_formula_sum  Na0Co2O8
_cell_volume  270.86179930089463
_cell_formula_units_Z  2
loop_
  _symmetry_equiv_pos_site_id
 _symmetry_equiv_pos_as_xyz
 1  'x, y, z'
loop_
 _atom_site_type_symbol
 _atom_site_label
 _atom_site_symmetry_multiplicity
 _atom_site_fract_x
 _atom_site_fract_y
 _atom_site_fract_z
 _atom_site_fract_occupancy
 Co  Co1  1  0.49617  0.17646  0.50000  1
 Co  Co2  1  0.99617  0.82354  0.00000  1
 Na  Na1  1  0.92981  0.06549  0.31574  1
 Na  Na2  1  0.92981  0.06549  0.68426  1
 Na  Na3  1  0.74753  0.61371  0.69901  1
 Na  Na4  1  0.74753  0.61371  0.30099  1
 Na  Na5  1  0.74957  0.32966  0.00000  1
 Na  Na6  1  0.42981  0.93451  0.81574  1
 Na  Na7  1  0.42981  0.93451  0.18426  1
 Na  Na8  1  0.24753  0.38629  0.80099  1
 Na  Na9  1  0.24753  0.38629  0.19901  1
 Na  Na10  1  0.24957  0.67034  0.50000  1
 O  O1  1  0.09957  0.12827  0.00000  1
 O  O2  1  0.10298  0.72921  0.77680  1
 O  O3  1  0.68609  0.74590  0.00000  1
 O  O4  1  0.59957  0.87173  0.50000  1
 O  O5  1  0.60298  0.27079  0.27680  1
 O  O6  1  0.60298  0.27079  0.72320  1
 O  O7  1  0.18609  0.25410  0.50000  1
 O  O8  1  0.10298  0.72921  0.22320  1
