CIF file written using JARVIS-Tools package.
data_Dy2CuGe6
_symmetry_space_group_name_H-M  'Amm2'
_cell_length_a       4.11067
_cell_length_b       4.046
_cell_length_c       10.8931
_cell_angle_alpha    100.703
_cell_angle_beta     90
_cell_angle_gamma    90

_symmetry_Int_Tables_number  38
_chemical_formula_structural  Dy2CuGe6
_chemical_formula_sum  Dy2CuGe6
_cell_volume  178.02016445102984
_cell_formula_units_Z  1
loop_
  _symmetry_equiv_pos_site_id
 _symmetry_equiv_pos_as_xyz
 1  'x, y, z'
loop_
 _atom_site_type_symbol
 _atom_site_label
 _atom_site_symmetry_multiplicity
 _atom_site_fract_x
 _atom_site_fract_y
 _atom_site_fract_z
 _atom_site_fract_occupancy
 Cu  Cu1  1  0.50000  0.22434  0.44869  1
 Dy  Dy1  1  0.00000  0.00477  0.00954  1
 Dy  Dy2  1  0.00000  0.66836  0.33671  1
 Ge  Ge1  1  0.00000  0.28484  0.56967  1
 Ge  Ge2  1  0.00000  0.40172  0.80344  1
 Ge  Ge3  1  0.50000  0.54273  0.08546  1
 Ge  Ge4  1  0.50000  0.11586  0.23172  1
 Ge  Ge5  1  0.50000  0.90281  0.80561  1
 Ge  Ge6  1  0.50000  0.78557  0.57115  1
