CIF file written using JARVIS-Tools package.
data_Na2CaPO4F
_symmetry_space_group_name_H-M  'P2_1/c'
_cell_length_a       7.11189
_cell_length_b       10.6574
_cell_length_c       13.3516
_cell_angle_alpha    113.51
_cell_angle_beta     90
_cell_angle_gamma    90

_symmetry_Int_Tables_number  14
_chemical_formula_structural  Na2CaPO4F
_chemical_formula_sum  Na6Ca8P8O32F8
_cell_volume  927.9608632033885
_cell_formula_units_Z  8
loop_
  _symmetry_equiv_pos_site_id
 _symmetry_equiv_pos_as_xyz
 1  'x, y, z'
loop_
 _atom_site_type_symbol
 _atom_site_label
 _atom_site_symmetry_multiplicity
 _atom_site_fract_x
 _atom_site_fract_y
 _atom_site_fract_z
 _atom_site_fract_occupancy
 Ca  Ca1  1  0.51243  0.80243  0.33120  1
 Ca  Ca2  1  0.98757  0.30243  0.33120  1
 Ca  Ca3  1  0.50698  0.44994  0.17266  1
 Ca  Ca4  1  0.99302  0.94994  0.17266  1
 Ca  Ca5  1  0.48757  0.19757  0.66880  1
 Ca  Ca6  1  0.00698  0.05006  0.82734  1
 Ca  Ca7  1  0.01243  0.69757  0.66880  1
 Ca  Ca8  1  0.49302  0.55006  0.82734  1
 F  F1  1  0.22839  0.88021  0.75933  1
 F  F2  1  0.76992  0.88010  0.26459  1
 F  F3  1  0.27161  0.38021  0.75933  1
 F  F4  1  0.26992  0.61990  0.73541  1
 F  F5  1  0.23008  0.11990  0.73541  1
 F  F6  1  0.77161  0.11979  0.24067  1
 F  F7  1  0.73008  0.38010  0.26459  1
 F  F8  1  0.72839  0.61979  0.24067  1
 Na  Na1  1  0.74596  0.17744  0.09076  1
 Na  Na2  1  0.72621  0.58911  0.41178  1
 Na  Na3  1  0.52322  0.95399  0.16457  1
 Na  Na4  1  0.47678  0.04601  0.83543  1
 Na  Na5  1  0.48045  0.73832  0.66980  1
 Na  Na6  1  0.98045  0.76168  0.33020  1
 Na  Na7  1  0.02322  0.54601  0.83543  1
 Na  Na8  1  0.97678  0.45399  0.16457  1
 Na  Na9  1  0.22621  0.91089  0.58822  1
 Na  Na10  1  0.27379  0.41089  0.58822  1
 Na  Na11  1  0.24596  0.32256  0.90924  1
 Na  Na12  1  0.75404  0.67744  0.09076  1
 Na  Na13  1  0.51955  0.26168  0.33020  1
 Na  Na14  1  0.77379  0.08911  0.41178  1
 Na  Na15  1  0.01955  0.23832  0.66980  1
 Na  Na16  1  0.25404  0.82256  0.90924  1
 O  O1  1  0.04945  0.54901  0.35516  1
 O  O2  1  0.73359  0.83080  0.46794  1
 O  O3  1  0.54945  0.95099  0.64484  1
 O  O4  1  0.45055  0.04901  0.35516  1
 O  O5  1  0.77743  0.08517  0.58556  1
 O  O6  1  0.23359  0.66920  0.53206  1
 O  O7  1  0.22257  0.91483  0.41444  1
 O  O8  1  0.95055  0.45099  0.64484  1
 O  O9  1  0.40088  0.59630  0.34972  1
 O  O10  1  0.06692  0.22064  0.14745  1
 O  O11  1  0.76641  0.33080  0.46794  1
 O  O12  1  0.76485  0.86737  0.03551  1
 O  O13  1  0.56692  0.27936  0.85255  1
 O  O14  1  0.93308  0.77936  0.85255  1
 O  O15  1  0.57609  0.77633  0.85811  1
 O  O16  1  0.07609  0.72367  0.14189  1
 O  O17  1  0.75124  0.00210  0.91603  1
 O  O18  1  0.26641  0.16920  0.53206  1
 O  O19  1  0.24876  0.99790  0.08397  1
 O  O20  1  0.59912  0.40370  0.65028  1
 O  O21  1  0.72257  0.58517  0.58556  1
 O  O22  1  0.23515  0.13263  0.96449  1
 O  O23  1  0.09912  0.09630  0.34972  1
 O  O24  1  0.43308  0.72064  0.14745  1
 O  O25  1  0.92391  0.27633  0.85811  1
 O  O26  1  0.26485  0.63263  0.96449  1
 O  O27  1  0.27743  0.41483  0.41444  1
 O  O28  1  0.73515  0.36737  0.03551  1
 O  O29  1  0.74876  0.50210  0.91603  1
 O  O30  1  0.42391  0.22367  0.14189  1
 O  O31  1  0.25124  0.49790  0.08397  1
 O  O32  1  0.90088  0.90370  0.65028  1
 P  P1  1  0.24476  0.14484  0.08411  1
 P  P2  1  0.74166  0.94081  0.58632  1
 P  P3  1  0.24166  0.55919  0.41368  1
 P  P4  1  0.25524  0.64484  0.08411  1
 P  P5  1  0.75524  0.85516  0.91589  1
 P  P6  1  0.75834  0.44081  0.58632  1
 P  P7  1  0.74476  0.35516  0.91589  1
 P  P8  1  0.25834  0.05919  0.41368  1
