CIF file written using JARVIS-Tools package.
data_NaCoF3
_symmetry_space_group_name_H-M  'Pnma'
_cell_length_a       5.37007
_cell_length_b       5.61774
_cell_length_c       7.73898
_cell_angle_alpha    90
_cell_angle_beta     90
_cell_angle_gamma    90

_symmetry_Int_Tables_number  62
_chemical_formula_structural  NaCoF3
_chemical_formula_sum  Na4Co4F2
_cell_volume  233.46698400223357
_cell_formula_units_Z  4
loop_
  _symmetry_equiv_pos_site_id
 _symmetry_equiv_pos_as_xyz
 1  'x, y, z'
loop_
 _atom_site_type_symbol
 _atom_site_label
 _atom_site_symmetry_multiplicity
 _atom_site_fract_x
 _atom_site_fract_y
 _atom_site_fract_z
 _atom_site_fract_occupancy
 Co  Co1  1  0.50000  0.00000  0.50000  1
 Co  Co2  1  0.00000  0.50000  0.50000  1
 Co  Co3  1  0.00000  0.50000  0.00000  1
 Co  Co4  1  0.50000  0.00000  0.00000  1
 F  F1  1  0.11267  0.45920  0.25000  1
 F  F2  1  0.69306  0.30208  0.44210  1
 F  F3  1  0.38733  0.95920  0.25000  1
 F  F4  1  0.80694  0.80208  0.05790  1
 F  F5  1  0.30694  0.69792  0.94210  1
 F  F6  1  0.19306  0.19792  0.55790  1
 F  F7  1  0.80694  0.80208  0.44210  1
 F  F8  1  0.88733  0.54080  0.75000  1
 F  F9  1  0.69306  0.30208  0.05790  1
 F  F10  1  0.30694  0.69792  0.55790  1
 F  F11  1  0.61267  0.04080  0.75000  1
 F  F12  1  0.19306  0.19792  0.94210  1
 Na  Na1  1  0.98111  0.06345  0.25000  1
 Na  Na2  1  0.48111  0.43655  0.75000  1
 Na  Na3  1  0.51889  0.56345  0.25000  1
 Na  Na4  1  0.01889  0.93655  0.75000  1
