CIF file written using JARVIS-Tools package.
data_SrCuSn2
_symmetry_space_group_name_H-M  'Cmcm'
_cell_length_a       4.58991
_cell_length_b       4.63569
_cell_length_c       10.037
_cell_angle_alpha    103.352
_cell_angle_beta     90
_cell_angle_gamma    90

_symmetry_Int_Tables_number  63
_chemical_formula_structural  SrCuSn2
_chemical_formula_sum  Sr2Cu2Sn4
_cell_volume  207.7892760412651
_cell_formula_units_Z  2
loop_
  _symmetry_equiv_pos_site_id
 _symmetry_equiv_pos_as_xyz
 1  'x, y, z'
loop_
 _atom_site_type_symbol
 _atom_site_label
 _atom_site_symmetry_multiplicity
 _atom_site_fract_x
 _atom_site_fract_y
 _atom_site_fract_z
 _atom_site_fract_occupancy
 Cu  Cu1  1  0.75000  0.17543  0.35085  1
 Cu  Cu2  1  0.25000  0.82457  0.64915  1
 Sn  Sn1  1  0.25000  0.24961  0.49921  1
 Sn  Sn2  1  0.25000  0.95666  0.91332  1
 Sn  Sn3  1  0.75000  0.75039  0.50079  1
 Sn  Sn4  1  0.75000  0.04334  0.08668  1
 Sr  Sr1  1  0.75000  0.39221  0.78442  1
 Sr  Sr2  1  0.25000  0.60779  0.21558  1
