CIF file written using JARVIS-Tools package.
data_CaAgBi
_symmetry_space_group_name_H-M  'P6_3mc'
_cell_length_a       4.86788
_cell_length_b       4.86788
_cell_length_c       7.83125
_cell_angle_alpha    90
_cell_angle_beta     90
_cell_angle_gamma    120

_symmetry_Int_Tables_number  186
_chemical_formula_structural  CaAgBi
_chemical_formula_sum  Ca2Ag2Bi2
_cell_volume  160.70928848198488
_cell_formula_units_Z  2
loop_
  _symmetry_equiv_pos_site_id
 _symmetry_equiv_pos_as_xyz
 1  'x, y, z'
loop_
 _atom_site_type_symbol
 _atom_site_label
 _atom_site_symmetry_multiplicity
 _atom_site_fract_x
 _atom_site_fract_y
 _atom_site_fract_z
 _atom_site_fract_occupancy
 Ag  Ag1  1  0.33333  0.66667  0.34079  1
 Ag  Ag2  1  0.66667  0.33333  0.84079  1
 Bi  Bi1  1  0.66667  0.33333  0.23757  1
 Bi  Bi2  1  0.33333  0.66667  0.73757  1
 Ca  Ca1  1  0.00000  0.00000  0.02131  1
 Ca  Ca2  1  0.00000  0.00000  0.52131  1
