CIF file written using JARVIS-Tools package.
data_YMg6Cu
_symmetry_space_group_name_H-M  'Amm2'
_cell_length_a       6.68589
_cell_length_b       6.6859
_cell_length_c       4.87441
_cell_angle_alpha    90
_cell_angle_beta     90
_cell_angle_gamma    124.884

_symmetry_Int_Tables_number  38
_chemical_formula_structural  YMg6Cu
_chemical_formula_sum  YMg6Cu
_cell_volume  178.73949579937477
_cell_formula_units_Z  1
loop_
  _symmetry_equiv_pos_site_id
 _symmetry_equiv_pos_as_xyz
 1  'x, y, z'
loop_
 _atom_site_type_symbol
 _atom_site_label
 _atom_site_symmetry_multiplicity
 _atom_site_fract_x
 _atom_site_fract_y
 _atom_site_fract_z
 _atom_site_fract_occupancy
 Cu  Cu1  1  0.35426  0.14574  0.75000  1
 Mg  Mg1  1  0.17633  0.82352  0.25000  1
 Mg  Mg2  1  0.67648  0.32367  0.25000  1
 Mg  Mg3  1  0.65503  0.84497  0.25000  1
 Mg  Mg4  1  0.31411  0.68261  0.75000  1
 Mg  Mg5  1  0.81739  0.18589  0.75000  1
 Mg  Mg6  1  0.81046  0.68954  0.75000  1
 Y  Y1  1  0.19592  0.30408  0.25000  1
