CIF file written using JARVIS-Tools package.
data_H2C2S3N2O6F6
_symmetry_space_group_name_H-M  'C2/c'
_cell_length_a       5.24789
_cell_length_b       5.24789
_cell_length_c       20.7386
_cell_angle_alpha    85.6252
_cell_angle_beta     94.3748
_cell_angle_gamma    117.834

_symmetry_Int_Tables_number  15
_chemical_formula_structural  H2C2S3N2O6F6
_chemical_formula_sum  H4C4S6N4O2F2
_cell_volume  503.0634495122271
_cell_formula_units_Z  2
loop_
  _symmetry_equiv_pos_site_id
 _symmetry_equiv_pos_as_xyz
 1  'x, y, z'
loop_
 _atom_site_type_symbol
 _atom_site_label
 _atom_site_symmetry_multiplicity
 _atom_site_fract_x
 _atom_site_fract_y
 _atom_site_fract_z
 _atom_site_fract_occupancy
 C  C1  1  0.32060  0.22667  0.93168  1
 C  C2  1  0.22667  0.32060  0.56832  1
 C  C3  1  0.67940  0.77333  0.06832  1
 C  C4  1  0.77333  0.67940  0.43168  1
 F  F1  1  0.65398  0.39647  0.42125  1
 F  F2  1  0.39647  0.65398  0.07875  1
 F  F3  1  0.25267  0.43139  0.94784  1
 F  F4  1  0.43139  0.25267  0.55216  1
 F  F5  1  0.74733  0.56861  0.05216  1
 F  F6  1  0.56861  0.74733  0.44784  1
 F  F7  1  0.02183  0.25527  0.51999  1
 F  F8  1  0.74473  0.97817  0.01999  1
 F  F9  1  0.97817  0.74473  0.48001  1
 F  F10  1  0.60353  0.34602  0.92125  1
 F  F11  1  0.34602  0.60353  0.57875  1
 F  F12  1  0.25527  0.02183  0.98001  1
 H  H1  1  0.03678  0.40538  0.79866  1
 H  H2  1  0.40538  0.03678  0.70134  1
 H  H3  1  0.96322  0.59462  0.20134  1
 H  H4  1  0.59462  0.96322  0.29866  1
 N  N1  1  0.68356  0.82391  0.30394  1
 N  N2  1  0.31644  0.17609  0.69606  1
 N  N3  1  0.17609  0.31644  0.80394  1
 N  N4  1  0.82391  0.68356  0.19606  1
 O  O1  1  0.80312  0.94093  0.87316  1
 O  O2  1  0.94093  0.80312  0.62684  1
 O  O3  1  0.86574  0.21383  0.66201  1
 O  O4  1  0.21383  0.86574  0.83799  1
 O  O5  1  0.19688  0.05907  0.12684  1
 O  O6  1  0.78617  0.13426  0.16201  1
 O  O7  1  0.68164  0.42737  0.78045  1
 O  O8  1  0.42737  0.68164  0.71955  1
 O  O9  1  0.57263  0.31836  0.28045  1
 O  O10  1  0.13426  0.78617  0.33799  1
 O  O11  1  0.05907  0.19688  0.37316  1
 O  O12  1  0.31836  0.57263  0.21955  1
 S  S1  1  0.90287  0.95661  0.14201  1
 S  S2  1  0.09713  0.04339  0.85799  1
 S  S3  1  0.04339  0.09713  0.64201  1
 S  S4  1  0.95661  0.90287  0.35799  1
 S  S5  1  0.42975  0.42975  0.75000  1
 S  S6  1  0.57025  0.57025  0.25000  1
