CIF file written using JARVIS-Tools package.
data_GeBi12O20
_symmetry_space_group_name_H-M  'I23'
_cell_length_a       8.83385
_cell_length_b       8.83385
_cell_length_c       8.83385
_cell_angle_alpha    109.471
_cell_angle_beta     109.471
_cell_angle_gamma    109.471

_symmetry_Int_Tables_number  197
_chemical_formula_structural  GeBi12O20
_chemical_formula_sum  GeBi2O20
_cell_volume  530.6737772927304
_cell_formula_units_Z  1
loop_
  _symmetry_equiv_pos_site_id
 _symmetry_equiv_pos_as_xyz
 1  'x, y, z'
loop_
 _atom_site_type_symbol
 _atom_site_label
 _atom_site_symmetry_multiplicity
 _atom_site_fract_x
 _atom_site_fract_y
 _atom_site_fract_z
 _atom_site_fract_occupancy
 Bi  Bi1  1  0.30539  0.81017  0.14382  1
 Bi  Bi2  1  0.33365  0.18983  0.49522  1
 Bi  Bi3  1  0.14382  0.30539  0.81017  1
 Bi  Bi4  1  0.16157  0.85618  0.66635  1
 Bi  Bi5  1  0.50478  0.69461  0.83843  1
 Bi  Bi6  1  0.81017  0.14382  0.30539  1
 Bi  Bi7  1  0.85618  0.66635  0.16157  1
 Bi  Bi8  1  0.49522  0.33365  0.18983  1
 Bi  Bi9  1  0.18983  0.49522  0.33365  1
 Bi  Bi10  1  0.69461  0.83843  0.50478  1
 Bi  Bi11  1  0.83843  0.50478  0.69461  1
 Bi  Bi12  1  0.66635  0.16157  0.85618  1
 Ge  Ge1  1  0.00000  0.00000  0.00000  1
 O  O1  1  0.00000  0.00000  0.20301  1
 O  O2  1  0.00000  0.20301  -0.00000  1
 O  O3  1  0.79699  0.79699  0.79699  1
 O  O4  1  0.60775  0.00000  0.00000  1
 O  O5  1  0.00000  0.00000  0.60775  1
 O  O6  1  0.00000  0.60775  0.00000  1
 O  O7  1  0.39225  0.39225  0.39225  1
 O  O8  1  0.25486  0.64308  0.87541  1
 O  O9  1  0.76766  0.37944  0.12459  1
 O  O10  1  0.20301  0.00000  -0.00000  1
 O  O11  1  0.62056  0.38822  0.74514  1
 O  O12  1  0.38822  0.74514  0.62056  1
 O  O13  1  0.74514  0.62056  0.38822  1
 O  O14  1  0.35692  0.61178  0.23234  1
 O  O15  1  0.12459  0.76766  0.37944  1
 O  O16  1  0.61178  0.23234  0.35692  1
 O  O17  1  0.37944  0.12459  0.76766  1
 O  O18  1  0.87541  0.25486  0.64308  1
 O  O19  1  0.23234  0.35692  0.61178  1
 O  O20  1  0.64308  0.87541  0.25486  1
