CIF file written using JARVIS-Tools package.
data_SO3
_symmetry_space_group_name_H-M  'P2_1/c'
_cell_length_a       4.08153
_cell_length_b       6.09508
_cell_length_c       8.95595
_cell_angle_alpha    110.367
_cell_angle_beta     90
_cell_angle_gamma    90

_symmetry_Int_Tables_number  14
_chemical_formula_structural  SO3
_chemical_formula_sum  S4O2
_cell_volume  208.8705234742728
_cell_formula_units_Z  4
loop_
  _symmetry_equiv_pos_site_id
 _symmetry_equiv_pos_as_xyz
 1  'x, y, z'
loop_
 _atom_site_type_symbol
 _atom_site_label
 _atom_site_symmetry_multiplicity
 _atom_site_fract_x
 _atom_site_fract_y
 _atom_site_fract_z
 _atom_site_fract_occupancy
 O  O1  1  0.30708  0.65255  0.93889  1
 O  O2  1  0.14407  0.09307  0.79518  1
 O  O3  1  0.64407  0.40693  0.70482  1
 O  O4  1  0.19292  0.15255  0.43889  1
 O  O5  1  0.72723  0.83796  0.83503  1
 O  O6  1  0.80708  0.84745  0.56111  1
 O  O7  1  0.35593  0.59307  0.29518  1
 O  O8  1  0.27277  0.16204  0.16497  1
 O  O9  1  0.85593  0.90693  0.20482  1
 O  O10  1  0.77277  0.33796  0.33503  1
 O  O11  1  0.69292  0.34745  0.06111  1
 O  O12  1  0.22723  0.66204  0.66497  1
 S  S1  1  0.52391  0.38716  0.20549  1
 S  S2  1  0.47609  0.61284  0.79451  1
 S  S3  1  0.97609  0.88716  0.70549  1
 S  S4  1  0.02391  0.11284  0.29451  1
