CIF file written using JARVIS-Tools package.
data_SiO2
_symmetry_space_group_name_H-M  'P-1'
_cell_length_a       4.96696
_cell_length_b       12.5171
_cell_length_c       14.8764
_cell_angle_alpha    102.741
_cell_angle_beta     91.1414
_cell_angle_gamma    100.751

_symmetry_Int_Tables_number  2
_chemical_formula_structural  SiO2
_chemical_formula_sum  Si6O32
_cell_volume  884.486671813644
_cell_formula_units_Z  16
loop_
  _symmetry_equiv_pos_site_id
 _symmetry_equiv_pos_as_xyz
 1  'x, y, z'
loop_
 _atom_site_type_symbol
 _atom_site_label
 _atom_site_symmetry_multiplicity
 _atom_site_fract_x
 _atom_site_fract_y
 _atom_site_fract_z
 _atom_site_fract_occupancy
 O  O1  1  0.43720  0.10914  0.68309  1
 O  O2  1  0.27995  0.61085  0.48157  1
 O  O3  1  0.66296  0.31206  0.67048  1
 O  O4  1  0.72005  0.38915  0.51843  1
 O  O5  1  0.89830  0.87149  0.45390  1
 O  O6  1  0.35856  0.42294  0.89412  1
 O  O7  1  0.64195  0.26448  0.83624  1
 O  O8  1  0.96907  0.96476  0.63337  1
 O  O9  1  0.72276  0.38014  0.00910  1
 O  O10  1  0.97228  0.17630  0.71897  1
 O  O11  1  -0.02392  0.74915  0.57239  1
 O  O12  1  0.11807  0.45330  0.65228  1
 O  O13  1  0.02392  0.25085  0.42761  1
 O  O14  1  0.56280  0.89086  0.31691  1
 O  O15  1  0.67005  0.32943  0.33657  1
 O  O16  1  0.88193  0.54670  0.34772  1
 O  O17  1  0.66888  0.40878  0.18847  1
 O  O18  1  0.33704  0.68794  0.32952  1
 O  O19  1  0.65187  0.52611  0.67611  1
 O  O20  1  0.35805  0.73552  0.16376  1
 O  O21  1  0.11356  0.51905  0.12761  1
 O  O22  1  0.34813  0.47389  0.32389  1
 O  O23  1  0.64144  0.57706  0.10588  1
 O  O24  1  0.33112  0.59122  0.81153  1
 O  O25  1  0.02772  0.82370  0.28103  1
 O  O26  1  0.88644  0.48095  0.87239  1
 O  O27  1  0.49113  0.17858  0.43392  1
 O  O28  1  0.50887  0.82142  0.56608  1
 O  O29  1  0.32995  0.67057  0.66343  1
 O  O30  1  0.10170  0.12851  0.54610  1
 O  O31  1  0.03093  0.03524  0.36663  1
 O  O32  1  0.27724  0.61986  0.99090  1
 Si  Si1  1  0.32058  0.78401  0.27250  1
 Si  Si2  1  0.21285  0.58003  0.37024  1
 Si  Si3  1  0.16173  0.14773  0.44358  1
 Si  Si4  1  0.78715  0.41997  0.62976  1
 Si  Si5  1  0.83827  0.85227  0.55642  1
 Si  Si6  1  0.27443  0.71305  0.57079  1
 Si  Si7  1  0.67942  0.21599  0.72750  1
 Si  Si8  1  0.34604  0.61338  0.09683  1
 Si  Si9  1  0.12048  0.09381  0.64456  1
 Si  Si10  1  0.21579  0.52978  0.89193  1
 Si  Si11  1  0.65396  0.38662  0.90317  1
 Si  Si12  1  0.64283  0.43955  0.29966  1
 Si  Si13  1  0.72557  0.28695  0.42921  1
 Si  Si14  1  0.78421  0.47022  0.10807  1
 Si  Si15  1  0.35717  0.56045  0.70034  1
 Si  Si16  1  0.87952  0.90619  0.35544  1
