CIF file written using JARVIS-Tools package.
data_CaV4Ag2O12
_symmetry_space_group_name_H-M  'P4/nbm'
_cell_length_a       4.98791
_cell_length_b       10.3751
_cell_length_c       10.3751
_cell_angle_alpha    90
_cell_angle_beta     90
_cell_angle_gamma    90

_symmetry_Int_Tables_number  125
_chemical_formula_structural  CaV4Ag2O12
_chemical_formula_sum  Ca2V8Ag4O24
_cell_volume  536.9170742749794
_cell_formula_units_Z  2
loop_
  _symmetry_equiv_pos_site_id
 _symmetry_equiv_pos_as_xyz
 1  'x, y, z'
loop_
 _atom_site_type_symbol
 _atom_site_label
 _atom_site_symmetry_multiplicity
 _atom_site_fract_x
 _atom_site_fract_y
 _atom_site_fract_z
 _atom_site_fract_occupancy
 Ag  Ag1  1  0.50000  0.00000  0.00000  1
 Ag  Ag2  1  0.50000  0.50000  0.00000  1
 Ag  Ag3  1  0.50000  0.00000  0.50000  1
 Ag  Ag4  1  0.50000  0.50000  0.50000  1
 Ca  Ca1  1  0.50000  0.75000  0.75000  1
 Ca  Ca2  1  0.50000  0.25000  0.25000  1
 O  O1  1  0.24190  0.32159  0.43851  1
 O  O2  1  0.75810  0.17841  0.43851  1
 O  O3  1  0.75810  0.32159  0.06149  1
 O  O4  1  0.75810  0.06149  0.17841  1
 O  O5  1  0.75810  0.43851  0.32159  1
 O  O6  1  0.24190  0.67841  0.93851  1
 O  O7  1  0.15222  0.63049  0.36951  1
 O  O8  1  0.15222  0.13049  0.63049  1
 O  O9  1  0.75810  0.82159  0.93851  1
 O  O10  1  0.75810  0.56149  0.82159  1
 O  O11  1  0.75810  0.93851  0.67841  1
 O  O12  1  0.75810  0.67841  0.56149  1
 O  O13  1  0.24190  0.82159  0.56149  1
 O  O14  1  0.24190  0.06149  0.32159  1
 O  O15  1  0.24190  0.93851  0.82159  1
 O  O16  1  0.84778  0.86951  0.36951  1
 O  O17  1  0.24190  0.56149  0.67841  1
 O  O18  1  0.15222  0.86951  0.13049  1
 O  O19  1  0.84778  0.36951  0.63049  1
 O  O20  1  0.84778  0.13049  0.86951  1
 O  O21  1  0.24190  0.17841  0.06149  1
 O  O22  1  0.24190  0.43851  0.17841  1
 O  O23  1  0.15222  0.36951  0.86951  1
 O  O24  1  0.84778  0.63049  0.13049  1
 V  V1  1  0.00000  0.75000  0.47349  1
 V  V2  1  0.00000  0.97349  0.25000  1
 V  V3  1  0.00000  0.25000  0.97349  1
 V  V4  1  0.00000  0.25000  0.52651  1
 V  V5  1  0.00000  0.52651  0.25000  1
 V  V6  1  0.00000  0.02651  0.75000  1
 V  V7  1  0.00000  0.75000  0.02651  1
 V  V8  1  0.00000  0.47349  0.75000  1
