CIF file written using JARVIS-Tools package.
data_BaMgC2O4
_symmetry_space_group_name_H-M  'C2/m'
_cell_length_a       4.48225
_cell_length_b       4.48225
_cell_length_c       6.5038
_cell_angle_alpha    93.9664
_cell_angle_beta     113.399
_cell_angle_gamma    108.868

_symmetry_Int_Tables_number  12
_chemical_formula_structural  BaMgC2O4
_chemical_formula_sum  BaMgC2O4
_cell_volume  110.49922429316256
_cell_formula_units_Z  1
loop_
  _symmetry_equiv_pos_site_id
 _symmetry_equiv_pos_as_xyz
 1  'x, y, z'
loop_
 _atom_site_type_symbol
 _atom_site_label
 _atom_site_symmetry_multiplicity
 _atom_site_fract_x
 _atom_site_fract_y
 _atom_site_fract_z
 _atom_site_fract_occupancy
 Ba  Ba1  1  0.50000  0.50000  0.50000  1
 C  C1  1  0.08446  0.23018  0.81464  1
 C  C2  1  0.91554  0.76982  0.18536  1
 Mg  Mg1  1  0.50000  -0.00000  0.00000  1
 O  O1  1  0.24321  0.89532  0.21662  1
 O  O2  1  0.17870  0.52659  0.78338  1
 O  O3  1  0.75679  0.10468  0.78338  1
 O  O4  1  0.82130  0.47341  0.21662  1
