CIF file written using JARVIS-Tools package.
data_K3SbN3O9F3
_symmetry_space_group_name_H-M  'Cmc2_1'
_cell_length_a       7.16323
_cell_length_b       8.96716
_cell_length_c       8.96716
_cell_angle_alpha    101.08
_cell_angle_beta     90
_cell_angle_gamma    90

_symmetry_Int_Tables_number  36
_chemical_formula_structural  K3SbN3O9F3
_chemical_formula_sum  K6Sb2N6O8F6
_cell_volume  565.2579827372331
_cell_formula_units_Z  2
loop_
  _symmetry_equiv_pos_site_id
 _symmetry_equiv_pos_as_xyz
 1  'x, y, z'
loop_
 _atom_site_type_symbol
 _atom_site_label
 _atom_site_symmetry_multiplicity
 _atom_site_fract_x
 _atom_site_fract_y
 _atom_site_fract_z
 _atom_site_fract_occupancy
 F  F1  1  0.94579  0.11017  0.65833  1
 F  F2  1  0.94579  0.34167  0.88983  1
 F  F3  1  0.59865  0.92535  0.07465  1
 F  F4  1  0.09865  0.07465  0.92535  1
 F  F5  1  0.44579  0.65833  0.11017  1
 F  F6  1  0.44579  0.88983  0.34167  1
 K  K1  1  0.77707  0.02956  0.38343  1
 K  K2  1  0.27707  0.38343  0.02956  1
 K  K3  1  0.27707  0.97044  0.61657  1
 K  K4  1  -0.01119  0.39820  0.60180  1
 K  K5  1  0.48881  0.60180  0.39820  1
 K  K6  1  0.77707  0.61657  0.97044  1
 N  N1  1  0.97920  0.69445  0.30555  1
 N  N2  1  0.47920  0.30555  0.69445  1
 N  N3  1  0.75746  0.31698  0.20792  1
 N  N4  1  0.25746  0.68302  0.79208  1
 N  N5  1  0.75746  0.79208  0.68302  1
 N  N6  1  0.25746  0.20792  0.31698  1
 O  O1  1  0.25155  0.34967  0.36003  1
 O  O2  1  0.37191  0.79073  0.84832  1
 O  O3  1  0.56407  0.41292  0.77988  1
 O  O4  1  0.06407  0.58708  0.22012  1
 O  O5  1  0.15440  0.12082  0.37472  1
 O  O6  1  0.56407  0.22012  0.58708  1
 O  O7  1  0.37191  0.15168  0.20927  1
 O  O8  1  0.75155  0.36003  0.34967  1
 O  O9  1  0.65440  0.37472  0.12082  1
 O  O10  1  0.87191  0.20927  0.15168  1
 O  O11  1  0.87191  0.84832  0.79073  1
 O  O12  1  0.30816  0.28053  0.71947  1
 O  O13  1  0.25155  0.63997  0.65033  1
 O  O14  1  0.15440  0.62528  0.87918  1
 O  O15  1  0.06407  0.77988  0.41292  1
 O  O16  1  0.80816  0.71947  0.28053  1
 O  O17  1  0.75155  0.65033  0.63997  1
 O  O18  1  0.65440  0.87918  0.62528  1
 Sb  Sb1  1  0.84308  0.12905  0.87095  1
 Sb  Sb2  1  0.34308  0.87095  0.12905  1
