CIF file written using JARVIS-Tools package.
data_Pr5Ru2O12
_symmetry_space_group_name_H-M  'C2/m'
_cell_length_a       6.00931
_cell_length_b       7.11108
_cell_length_c       7.71857
_cell_angle_alpha    105.766
_cell_angle_beta     90
_cell_angle_gamma    114.995

_symmetry_Int_Tables_number  12
_chemical_formula_structural  Pr5Ru2O12
_chemical_formula_sum  Pr5Ru2O2
_cell_volume  285.1953957690058
_cell_formula_units_Z  1
loop_
  _symmetry_equiv_pos_site_id
 _symmetry_equiv_pos_as_xyz
 1  'x, y, z'
loop_
 _atom_site_type_symbol
 _atom_site_label
 _atom_site_symmetry_multiplicity
 _atom_site_fract_x
 _atom_site_fract_y
 _atom_site_fract_z
 _atom_site_fract_occupancy
 O  O1  1  0.59484  0.69087  0.42260  1
 O  O2  1  0.09603  0.69087  0.42260  1
 O  O3  1  0.99911  0.99822  0.81563  1
 O  O4  1  0.41278  0.31667  0.07798  1
 O  O5  1  0.49988  0.99975  0.83018  1
 O  O6  1  0.40516  0.30913  0.57740  1
 O  O7  1  0.90397  0.30913  0.57740  1
 O  O8  1  0.00089  0.00178  0.18437  1
 O  O9  1  0.09611  0.68333  0.92202  1
 O  O10  1  0.90389  0.31667  0.07798  1
 O  O11  1  0.58722  0.68333  0.92202  1
 O  O12  1  0.50012  0.00025  0.16982  1
 Pr  Pr1  1  0.00000  -0.00000  0.50000  1
 Pr  Pr2  1  0.30941  0.61882  0.16728  1
 Pr  Pr3  1  0.69059  0.38118  0.83272  1
 Pr  Pr4  1  0.69310  0.38621  0.35682  1
 Pr  Pr5  1  0.30690  0.61379  0.64318  1
 Ru  Ru1  1  0.23503  0.00000  0.00000  1
 Ru  Ru2  1  0.76497  0.00000  0.00000  1
