CIF file written using JARVIS-Tools package.
data_ZrCo3B2
_symmetry_space_group_name_H-M  'R-3m'
_cell_length_a       5.7189
_cell_length_b       5.71897
_cell_length_c       5.71893
_cell_angle_alpha    94.8044
_cell_angle_beta     94.805
_cell_angle_gamma    94.8045

_symmetry_Int_Tables_number  166
_chemical_formula_structural  ZrCo3B2
_chemical_formula_sum  Zr3Co9B6
_cell_volume  184.95495939161157
_cell_formula_units_Z  3
loop_
  _symmetry_equiv_pos_site_id
 _symmetry_equiv_pos_as_xyz
 1  'x, y, z'
loop_
 _atom_site_type_symbol
 _atom_site_label
 _atom_site_symmetry_multiplicity
 _atom_site_fract_x
 _atom_site_fract_y
 _atom_site_fract_z
 _atom_site_fract_occupancy
 B  B1  1  0.37624  0.00000  0.62376  1
 B  B2  1  0.00000  0.37624  0.62376  1
 B  B3  1  -0.00000  0.62375  0.37624  1
 B  B4  1  0.37624  0.62375  -0.00000  1
 B  B5  1  0.62376  -0.00000  0.37624  1
 B  B6  1  0.62376  0.37625  0.00001  1
 Co  Co1  1  0.19646  0.69458  0.69459  1
 Co  Co2  1  0.69458  0.69459  0.19646  1
 Co  Co3  1  0.30542  0.30541  0.80354  1
 Co  Co4  1  0.30541  0.80354  0.30542  1
 Co  Co5  1  0.69459  0.19646  0.69458  1
 Co  Co6  1  0.80354  0.30542  0.30541  1
 Co  Co7  1  -0.00000  0.50000  0.00000  1
 Co  Co8  1  0.50000  0.00000  0.00000  1
 Co  Co9  1  -0.00000  -0.00000  0.50000  1
 Zr  Zr1  1  0.00000  -0.00000  -0.00000  1
 Zr  Zr2  1  0.66970  0.66969  0.66969  1
 Zr  Zr3  1  0.33030  0.33031  0.33031  1
