CIF file written using JARVIS-Tools package.
data_Zr2P2O9
_symmetry_space_group_name_H-M  'C2/m'
_cell_length_a       6.67813
_cell_length_b       7.65052
_cell_length_c       8.26921
_cell_angle_alpha    78.4868
_cell_angle_beta     66.1844
_cell_angle_gamma    64.1224

_symmetry_Int_Tables_number  12
_chemical_formula_structural  Zr2P2O9
_chemical_formula_sum  Zr4P4O8
_cell_volume  347.6136679933607
_cell_formula_units_Z  2
loop_
  _symmetry_equiv_pos_site_id
 _symmetry_equiv_pos_as_xyz
 1  'x, y, z'
loop_
 _atom_site_type_symbol
 _atom_site_label
 _atom_site_symmetry_multiplicity
 _atom_site_fract_x
 _atom_site_fract_y
 _atom_site_fract_z
 _atom_site_fract_occupancy
 O  O1  1  0.96606  0.70735  0.36053  1
 O  O2  1  0.99631  0.27424  0.35420  1
 O  O3  1  0.75610  0.76178  0.10272  1
 O  O4  1  0.51556  0.60375  0.36512  1
 O  O5  1  0.24390  0.23822  0.89728  1
 O  O6  1  0.37941  0.76178  0.10272  1
 O  O7  1  0.00369  0.72576  0.64580  1
 O  O8  1  0.26747  0.55795  0.90712  1
 O  O9  1  0.37524  0.27424  0.35420  1
 O  O10  1  0.48444  0.39625  0.63488  1
 O  O11  1  0.72648  0.01992  0.52712  1
 O  O12  1  0.03394  0.29265  0.63947  1
 O  O13  1  0.11459  0.92810  0.84271  1
 O  O14  1  0.88541  0.07190  0.15729  1
 O  O15  1  0.62476  0.72576  0.64580  1
 O  O16  1  0.62059  0.23822  0.89728  1
 O  O17  1  0.27352  0.98008  0.47288  1
 O  O18  1  0.73253  0.44205  0.09288  1
 P  P1  1  0.82904  0.79517  0.54675  1
 P  P2  1  0.59155  0.65510  0.16181  1
 P  P3  1  0.17096  0.20483  0.45325  1
 P  P4  1  0.40845  0.34490  0.83820  1
 Zr  Zr1  1  0.68370  0.26824  0.36436  1
 Zr  Zr2  1  0.31630  0.73176  0.63564  1
 Zr  Zr3  1  0.05737  0.78673  0.09853  1
 Zr  Zr4  1  0.94263  0.21327  0.90147  1
