CIF file written using JARVIS-Tools package.
data_Nb2GeC
_symmetry_space_group_name_H-M  'P6_3/mmc'
_cell_length_a       3.28305
_cell_length_b       3.28305
_cell_length_c       12.5721
_cell_angle_alpha    90
_cell_angle_beta     90
_cell_angle_gamma    119.999

_symmetry_Int_Tables_number  194
_chemical_formula_structural  Nb2GeC
_chemical_formula_sum  Nb4Ge2C2
_cell_volume  117.3535451230944
_cell_formula_units_Z  2
loop_
  _symmetry_equiv_pos_site_id
 _symmetry_equiv_pos_as_xyz
 1  'x, y, z'
loop_
 _atom_site_type_symbol
 _atom_site_label
 _atom_site_symmetry_multiplicity
 _atom_site_fract_x
 _atom_site_fract_y
 _atom_site_fract_z
 _atom_site_fract_occupancy
 C  C1  1  0.00000  0.00000  0.50000  1
 C  C2  1  0.00000  0.00000  0.00000  1
 Ge  Ge1  1  0.33332  0.66668  0.75000  1
 Ge  Ge2  1  0.66668  0.33332  0.25000  1
 Nb  Nb1  1  0.66666  0.33334  0.59344  1
 Nb  Nb2  1  0.33334  0.66666  0.40656  1
 Nb  Nb3  1  0.33334  0.66666  0.09344  1
 Nb  Nb4  1  0.66666  0.33334  0.90656  1
