CIF file written using JARVIS-Tools package.
data_RbCr5S8
_symmetry_space_group_name_H-M  'C2/m'
_cell_length_a       3.48033
_cell_length_b       8.7141
_cell_length_c       8.94661
_cell_angle_alpha    103.923
_cell_angle_beta     101.216
_cell_angle_gamma    90

_symmetry_Int_Tables_number  12
_chemical_formula_structural  RbCr5S8
_chemical_formula_sum  RbCr5S8
_cell_volume  258.01841084476456
_cell_formula_units_Z  1
loop_
  _symmetry_equiv_pos_site_id
 _symmetry_equiv_pos_as_xyz
 1  'x, y, z'
loop_
 _atom_site_type_symbol
 _atom_site_label
 _atom_site_symmetry_multiplicity
 _atom_site_fract_x
 _atom_site_fract_y
 _atom_site_fract_z
 _atom_site_fract_occupancy
 Cr  Cr1  1  0.29581  0.66526  0.59163  1
 Cr  Cr2  1  0.70419  0.33474  0.40837  1
 Cr  Cr3  1  0.34510  0.02457  0.69019  1
 Cr  Cr4  1  0.65490  0.97543  0.30981  1
 Cr  Cr5  1  0.00000  0.00000  0.00000  1
 Rb  Rb1  1  0.50000  0.50000  -0.00000  1
 S  S1  1  0.23781  0.15426  0.47563  1
 S  S2  1  0.76219  0.84574  0.52437  1
 S  S3  1  0.17009  0.48841  0.34019  1
 S  S4  1  0.82991  0.51159  0.65981  1
 S  S5  1  0.08626  0.82422  0.17253  1
 S  S6  1  0.91374  0.17578  0.82747  1
 S  S7  1  0.42618  0.84510  0.85236  1
 S  S8  1  0.57382  0.15490  0.14764  1
