CIF file written using JARVIS-Tools package.
data_BaMoO4
_symmetry_space_group_name_H-M  'I4_1/a'
_cell_length_a       5.62614
_cell_length_b       5.62614
_cell_length_c       7.55561
_cell_angle_alpha    111.859
_cell_angle_beta     111.859
_cell_angle_gamma    90

_symmetry_Int_Tables_number  88
_chemical_formula_structural  BaMoO4
_chemical_formula_sum  Ba2Mo2O8
_cell_volume  203.32392288829845
_cell_formula_units_Z  2
loop_
  _symmetry_equiv_pos_site_id
 _symmetry_equiv_pos_as_xyz
 1  'x, y, z'
loop_
 _atom_site_type_symbol
 _atom_site_label
 _atom_site_symmetry_multiplicity
 _atom_site_fract_x
 _atom_site_fract_y
 _atom_site_fract_z
 _atom_site_fract_occupancy
 Ba  Ba1  1  0.12500  0.37500  0.25000  1
 Ba  Ba2  1  0.87500  0.62500  0.75000  1
 Mo  Mo1  1  0.62500  0.87500  0.25000  1
 Mo  Mo2  1  0.37500  0.12500  0.75000  1
 O  O1  1  0.78108  0.91805  0.09511  1
 O  O2  1  0.31403  0.67705  0.09511  1
 O  O3  1  0.41805  0.81403  0.59511  1
 O  O4  1  0.17705  0.28108  0.59511  1
 O  O5  1  0.21892  0.08195  0.90489  1
 O  O6  1  0.68597  0.32295  0.90489  1
 O  O7  1  0.58195  0.18597  0.40489  1
 O  O8  1  0.82295  0.71892  0.40489  1
