CIF file written using JARVIS-Tools package.
data_CeMgCu2
_symmetry_space_group_name_H-M  'P6_3/mmc'
_cell_length_a       4.58638
_cell_length_b       4.58638
_cell_length_c       8.49564
_cell_angle_alpha    90
_cell_angle_beta     90
_cell_angle_gamma    120

_symmetry_Int_Tables_number  194
_chemical_formula_structural  CeMgCu2
_chemical_formula_sum  Ce2Mg2Cu4
_cell_volume  154.76296270550415
_cell_formula_units_Z  2
loop_
  _symmetry_equiv_pos_site_id
 _symmetry_equiv_pos_as_xyz
 1  'x, y, z'
loop_
 _atom_site_type_symbol
 _atom_site_label
 _atom_site_symmetry_multiplicity
 _atom_site_fract_x
 _atom_site_fract_y
 _atom_site_fract_z
 _atom_site_fract_occupancy
 Ce  Ce1  1  0.66667  0.33333  0.75000  1
 Ce  Ce2  1  0.33333  0.66667  0.25000  1
 Cu  Cu1  1  0.33333  0.66667  0.58866  1
 Cu  Cu2  1  0.66667  0.33333  0.08866  1
 Cu  Cu3  1  0.66667  0.33333  0.41134  1
 Cu  Cu4  1  0.33333  0.66667  0.91134  1
 Mg  Mg1  1  0.00000  0.00000  0.50000  1
 Mg  Mg2  1  0.00000  0.00000  0.00000  1
