CIF file written using JARVIS-Tools package.
data_SrLi4P2
_symmetry_space_group_name_H-M  'R-3m'
_cell_length_a       8.19892
_cell_length_b       8.19892
_cell_length_c       8.19892
_cell_angle_alpha    30.188
_cell_angle_beta     30.188
_cell_angle_gamma    30.188

_symmetry_Int_Tables_number  166
_chemical_formula_structural  SrLi4P2
_chemical_formula_sum  SrLi4P2
_cell_volume  123.47394589633019
_cell_formula_units_Z  1
loop_
  _symmetry_equiv_pos_site_id
 _symmetry_equiv_pos_as_xyz
 1  'x, y, z'
loop_
 _atom_site_type_symbol
 _atom_site_label
 _atom_site_symmetry_multiplicity
 _atom_site_fract_x
 _atom_site_fract_y
 _atom_site_fract_z
 _atom_site_fract_occupancy
 Li  Li1  1  0.43029  0.43029  0.43029  1
 Li  Li2  1  0.13786  0.13786  0.13786  1
 Li  Li3  1  0.56971  0.56971  0.56971  1
 Li  Li4  1  0.86214  0.86214  0.86214  1
 P  P1  1  0.75426  0.75426  0.75426  1
 P  P2  1  0.24574  0.24574  0.24574  1
 Sr  Sr1  1  0.00000  0.00000  0.00000  1
