CIF file written using JARVIS-Tools package.
data_BeF2
_symmetry_space_group_name_H-M  'R-3m'
_cell_length_a       8.95136
_cell_length_b       8.95136
_cell_length_c       8.95136
_cell_angle_alpha    93.6671
_cell_angle_beta     93.6671
_cell_angle_gamma    93.6671

_symmetry_Int_Tables_number  166
_chemical_formula_structural  BeF2
_chemical_formula_sum  Be2F24
_cell_volume  712.640733386913
_cell_formula_units_Z  12
loop_
  _symmetry_equiv_pos_site_id
 _symmetry_equiv_pos_as_xyz
 1  'x, y, z'
loop_
 _atom_site_type_symbol
 _atom_site_label
 _atom_site_symmetry_multiplicity
 _atom_site_fract_x
 _atom_site_fract_y
 _atom_site_fract_z
 _atom_site_fract_occupancy
 Be  Be1  1  0.12368  0.67209  0.89808  1
 Be  Be2  1  0.32791  0.87632  0.10192  1
 Be  Be3  1  0.89808  0.12368  0.67209  1
 Be  Be4  1  0.32791  0.10192  0.87632  1
 Be  Be5  1  0.67209  0.12368  0.89808  1
 Be  Be6  1  0.10192  0.87632  0.32791  1
 Be  Be7  1  0.10192  0.32791  0.87632  1
 Be  Be8  1  0.87632  0.10192  0.32791  1
 Be  Be9  1  0.89808  0.67209  0.12368  1
 Be  Be10  1  0.87632  0.32791  0.10192  1
 Be  Be11  1  0.12368  0.89808  0.67209  1
 Be  Be12  1  0.67209  0.89808  0.12368  1
 F  F1  1  0.87096  0.12904  0.50000  1
 F  F2  1  0.02028  0.02028  0.28929  1
 F  F3  1  0.74518  0.74518  0.12097  1
 F  F4  1  0.87096  0.50000  0.12904  1
 F  F5  1  0.73491  0.00000  0.26509  1
 F  F6  1  0.12904  0.87096  0.50000  1
 F  F7  1  0.97972  0.71071  0.97972  1
 F  F8  1  0.25482  0.25482  0.87903  1
 F  F9  1  0.71071  0.97972  0.97972  1
 F  F10  1  0.25482  0.87903  0.25482  1
 F  F11  1  0.26509  -0.00000  0.73491  1
 F  F12  1  0.74518  0.12097  0.74518  1
 F  F13  1  0.26509  0.73491  0.00000  1
 F  F14  1  0.87903  0.25482  0.25482  1
 F  F15  1  0.28929  0.02028  0.02028  1
 F  F16  1  0.73491  0.26509  -0.00000  1
 F  F17  1  0.97972  0.97972  0.71071  1
 F  F18  1  -0.00000  0.26509  0.73491  1
 F  F19  1  0.50000  0.87096  0.12904  1
 F  F20  1  0.02028  0.28929  0.02028  1
 F  F21  1  0.12097  0.74518  0.74518  1
 F  F22  1  0.00000  0.73491  0.26509  1
 F  F23  1  0.50000  0.12904  0.87096  1
 F  F24  1  0.12904  0.50000  0.87096  1
