CIF file written using JARVIS-Tools package.
data_BaCu4S3
_symmetry_space_group_name_H-M  'Cmcm'
_cell_length_a       3.95559
_cell_length_b       7.48029
_cell_length_c       10.1771
_cell_angle_alpha    90
_cell_angle_beta     90
_cell_angle_gamma    105.331

_symmetry_Int_Tables_number  63
_chemical_formula_structural  BaCu4S3
_chemical_formula_sum  Ba2Cu8S6
_cell_volume  290.4148176516686
_cell_formula_units_Z  2
loop_
  _symmetry_equiv_pos_site_id
 _symmetry_equiv_pos_as_xyz
 1  'x, y, z'
loop_
 _atom_site_type_symbol
 _atom_site_label
 _atom_site_symmetry_multiplicity
 _atom_site_fract_x
 _atom_site_fract_y
 _atom_site_fract_z
 _atom_site_fract_occupancy
 Ba  Ba1  1  0.74407  0.48814  0.25000  1
 Ba  Ba2  1  0.25593  0.51186  0.75000  1
 Cu  Cu1  1  0.50541  0.01083  0.87280  1
 Cu  Cu2  1  0.49459  0.98917  0.12720  1
 Cu  Cu3  1  0.09362  0.18724  0.47918  1
 Cu  Cu4  1  0.90638  0.81276  0.52082  1
 Cu  Cu5  1  0.90638  0.81276  0.97918  1
 Cu  Cu6  1  0.09362  0.18724  0.02082  1
 Cu  Cu7  1  0.50541  0.01083  0.62720  1
 Cu  Cu8  1  0.49459  0.98917  0.37280  1
 S  S1  1  0.05822  0.11645  0.25000  1
 S  S2  1  0.94178  0.88355  0.75000  1
 S  S3  1  0.65342  0.30683  0.55146  1
 S  S4  1  0.34658  0.69317  0.44854  1
 S  S5  1  0.34658  0.69317  0.05146  1
 S  S6  1  0.65342  0.30683  0.94854  1
