CIF file written using JARVIS-Tools package.
data_K3BiSe3
_symmetry_space_group_name_H-M  'P2_13'
_cell_length_a       9.72507
_cell_length_b       9.72507
_cell_length_c       9.72507
_cell_angle_alpha    90
_cell_angle_beta     90
_cell_angle_gamma    90

_symmetry_Int_Tables_number  198
_chemical_formula_structural  K3BiSe3
_chemical_formula_sum  K2Bi4Se2
_cell_volume  919.7675051813148
_cell_formula_units_Z  4
loop_
  _symmetry_equiv_pos_site_id
 _symmetry_equiv_pos_as_xyz
 1  'x, y, z'
loop_
 _atom_site_type_symbol
 _atom_site_label
 _atom_site_symmetry_multiplicity
 _atom_site_fract_x
 _atom_site_fract_y
 _atom_site_fract_z
 _atom_site_fract_occupancy
 Bi  Bi1  1  0.96117  0.53883  0.46117  1
 Bi  Bi2  1  0.03883  0.03883  0.03883  1
 Bi  Bi3  1  0.53883  0.46117  0.96117  1
 Bi  Bi4  1  0.46117  0.96117  0.53883  1
 K  K1  1  0.18460  0.31540  0.68460  1
 K  K2  1  0.31540  0.68460  0.18460  1
 K  K3  1  0.68460  0.18460  0.31540  1
 K  K4  1  0.81540  0.81540  0.81540  1
 K  K5  1  0.32528  0.32528  0.32528  1
 K  K6  1  0.07161  0.92839  0.42839  1
 K  K7  1  0.92839  0.42839  0.07161  1
 K  K8  1  0.57161  0.57161  0.57161  1
 K  K9  1  0.67472  0.82528  0.17472  1
 K  K10  1  0.82528  0.17472  0.67472  1
 K  K11  1  0.17472  0.67472  0.82528  1
 K  K12  1  0.42839  0.07161  0.92839  1
 Se  Se1  1  0.77255  0.11601  -0.00053  1
 Se  Se2  1  0.49947  0.72745  0.88399  1
 Se  Se3  1  -0.00053  0.77255  0.11601  1
 Se  Se4  1  0.38399  0.00053  0.27255  1
 Se  Se5  1  0.00053  0.27255  0.38399  1
 Se  Se6  1  0.50053  0.22745  0.61601  1
 Se  Se7  1  0.61601  0.50053  0.22745  1
 Se  Se8  1  0.22745  0.61601  0.50053  1
 Se  Se9  1  0.11601  -0.00053  0.77255  1
 Se  Se10  1  0.27255  0.38399  0.00053  1
 Se  Se11  1  0.88399  0.49947  0.72745  1
 Se  Se12  1  0.72745  0.88399  0.49947  1
