CIF file written using JARVIS-Tools package.
data_LaCN2Cl
_symmetry_space_group_name_H-M  'P2_1/m'
_cell_length_a       4.01973
_cell_length_b       5.36268
_cell_length_c       7.56779
_cell_angle_alpha    100.733
_cell_angle_beta     90
_cell_angle_gamma    90

_symmetry_Int_Tables_number  11
_chemical_formula_structural  LaCN2Cl
_chemical_formula_sum  La2C2N4Cl2
_cell_volume  160.28139237774138
_cell_formula_units_Z  2
loop_
  _symmetry_equiv_pos_site_id
 _symmetry_equiv_pos_as_xyz
 1  'x, y, z'
loop_
 _atom_site_type_symbol
 _atom_site_label
 _atom_site_symmetry_multiplicity
 _atom_site_fract_x
 _atom_site_fract_y
 _atom_site_fract_z
 _atom_site_fract_occupancy
 C  C1  1  0.75000  0.34810  0.35892  1
 C  C2  1  0.25000  0.65190  0.64108  1
 Cl  Cl1  1  0.75000  0.74402  0.95620  1
 Cl  Cl2  1  0.25000  0.25598  0.04380  1
 La  La1  1  0.75000  0.17529  0.73706  1
 La  La2  1  0.25000  0.82471  0.26294  1
 N  N1  1  0.25000  0.43103  0.65935  1
 N  N2  1  0.25000  0.87626  0.61895  1
 N  N3  1  0.75000  0.12374  0.38105  1
 N  N4  1  0.75000  0.56897  0.34065  1
