CIF file written using JARVIS-Tools package.
data_Y3FeB7
_symmetry_space_group_name_H-M  'Cmcm'
_cell_length_a       3.42378
_cell_length_b       8.0239
_cell_length_c       9.29712
_cell_angle_alpha    90
_cell_angle_beta     90
_cell_angle_gamma    102.319

_symmetry_Int_Tables_number  63
_chemical_formula_structural  Y3FeB7
_chemical_formula_sum  Y6Fe2B4
_cell_volume  249.53060840138068
_cell_formula_units_Z  2
loop_
  _symmetry_equiv_pos_site_id
 _symmetry_equiv_pos_as_xyz
 1  'x, y, z'
loop_
 _atom_site_type_symbol
 _atom_site_label
 _atom_site_symmetry_multiplicity
 _atom_site_fract_x
 _atom_site_fract_y
 _atom_site_fract_z
 _atom_site_fract_occupancy
 B  B1  1  0.27253  0.54506  0.53348  1
 B  B2  1  0.54011  0.08021  0.75000  1
 B  B3  1  0.47819  0.95638  0.90069  1
 B  B4  1  0.52181  0.04362  0.09931  1
 B  B5  1  0.52181  0.04362  0.40069  1
 B  B6  1  0.47819  0.95638  0.59931  1
 B  B7  1  0.37019  0.74038  0.84668  1
 B  B8  1  0.62981  0.25962  0.15332  1
 B  B9  1  0.27253  0.54506  0.96652  1
 B  B10  1  0.45989  0.91979  0.25000  1
 B  B11  1  0.72747  0.45494  0.46652  1
 B  B12  1  0.37019  0.74038  0.65332  1
 B  B13  1  0.62981  0.25962  0.34668  1
 B  B14  1  0.72747  0.45494  0.03348  1
 Fe  Fe1  1  0.05430  0.10861  0.25000  1
 Fe  Fe2  1  0.94570  0.89139  0.75000  1
 Y  Y1  1  0.89525  0.79050  0.06057  1
 Y  Y2  1  0.24307  0.48613  0.25000  1
 Y  Y3  1  0.75693  0.51387  0.75000  1
 Y  Y4  1  0.10475  0.20950  0.56057  1
 Y  Y5  1  0.89525  0.79050  0.43943  1
 Y  Y6  1  0.10475  0.20950  0.93943  1
