CIF file written using JARVIS-Tools package.
data_HfAl
_symmetry_space_group_name_H-M  'Cmcm'
_cell_length_a       3.2466
_cell_length_b       4.29513
_cell_length_c       5.6883
_cell_angle_alpha    90
_cell_angle_beta     106.581
_cell_angle_gamma    90

_symmetry_Int_Tables_number  63
_chemical_formula_structural  HfAl
_chemical_formula_sum  Hf2Al2
_cell_volume  76.02249815199738
_cell_formula_units_Z  2
loop_
  _symmetry_equiv_pos_site_id
 _symmetry_equiv_pos_as_xyz
 1  'x, y, z'
loop_
 _atom_site_type_symbol
 _atom_site_label
 _atom_site_symmetry_multiplicity
 _atom_site_fract_x
 _atom_site_fract_y
 _atom_site_fract_z
 _atom_site_fract_occupancy
 Al  Al1  1  0.57038  0.25000  0.14075  1
 Al  Al2  1  0.42962  0.75000  0.85925  1
 Hf  Hf1  1  0.83535  0.25000  0.67070  1
 Hf  Hf2  1  0.16465  0.75000  0.32930  1
