CIF file written using JARVIS-Tools package.
data_Yb3KF10
_symmetry_space_group_name_H-M  'C2/m'
_cell_length_a       7.9613
_cell_length_b       8.09881
_cell_length_c       8.09953
_cell_angle_alpha    60.0639
_cell_angle_beta     60.5901
_cell_angle_gamma    60.6004

_symmetry_Int_Tables_number  12
_chemical_formula_structural  Yb3KF10
_chemical_formula_sum  Yb6K2F20
_cell_volume  372.74566579965705
_cell_formula_units_Z  2
loop_
  _symmetry_equiv_pos_site_id
 _symmetry_equiv_pos_as_xyz
 1  'x, y, z'
loop_
 _atom_site_type_symbol
 _atom_site_label
 _atom_site_symmetry_multiplicity
 _atom_site_fract_x
 _atom_site_fract_y
 _atom_site_fract_z
 _atom_site_fract_occupancy
 F  F1  1  0.64113  0.10935  0.10945  1
 F  F2  1  0.18726  0.83638  0.48742  1
 F  F3  1  0.18722  0.48763  0.83601  1
 F  F4  1  0.13075  0.49925  0.49918  1
 F  F5  1  0.50695  0.50666  0.86838  1
 F  F6  1  0.35888  0.89065  0.89054  1
 F  F7  1  0.10773  0.10782  0.66770  1
 F  F8  1  0.89227  0.89218  0.33230  1
 F  F9  1  0.50716  0.86821  0.50690  1
 F  F10  1  0.12852  0.11430  0.11420  1
 F  F11  1  0.87148  0.88570  0.88580  1
 F  F12  1  0.50008  0.31883  0.68105  1
 F  F13  1  0.10776  0.66771  0.10783  1
 F  F14  1  0.49284  0.13179  0.49310  1
 F  F15  1  0.86925  0.50075  0.50082  1
 F  F16  1  0.81278  0.51236  0.16400  1
 F  F17  1  0.49992  0.68118  0.31896  1
 F  F18  1  0.49306  0.49333  0.13162  1
 F  F19  1  0.81274  0.16362  0.51258  1
 F  F20  1  0.89224  0.33229  0.89217  1
 K  K1  1  0.22967  0.26421  0.26413  1
 K  K2  1  0.77033  0.73579  0.73587  1
 Yb  Yb1  1  0.22995  0.76890  0.22621  1
 Yb  Yb2  1  0.23153  0.77371  0.77370  1
 Yb  Yb3  1  0.22994  0.22629  0.76878  1
 Yb  Yb4  1  0.76847  0.22630  0.22630  1
 Yb  Yb5  1  0.77005  0.23109  0.77379  1
 Yb  Yb6  1  0.77006  0.77371  0.23122  1
