CIF file written using JARVIS-Tools package.
data_AlPO4
_symmetry_space_group_name_H-M  'P1'
_cell_length_a       4.78965
_cell_length_b       5.34653
_cell_length_c       7.04955
_cell_angle_alpha    91.9247
_cell_angle_beta     86.6337
_cell_angle_gamma    122.58

_symmetry_Int_Tables_number  1
_chemical_formula_structural  AlPO4
_chemical_formula_sum  Al2P2O8
_cell_volume  151.85446955820734
_cell_formula_units_Z  2
loop_
  _symmetry_equiv_pos_site_id
 _symmetry_equiv_pos_as_xyz
 1  'x, y, z'
loop_
 _atom_site_type_symbol
 _atom_site_label
 _atom_site_symmetry_multiplicity
 _atom_site_fract_x
 _atom_site_fract_y
 _atom_site_fract_z
 _atom_site_fract_occupancy
 Al  Al1  1  0.40265  0.92942  0.16673  1
 Al  Al2  1  -0.12740  0.42034  0.50006  1
 O  O1  1  0.78207  0.17847  0.01446  1
 O  O2  1  0.30474  0.53331  0.51594  1
 O  O3  1  0.30977  0.22089  0.20803  1
 O  O4  1  0.44384  -0.17259  0.58449  1
 O  O5  1  0.73170  0.43948  0.73150  1
 O  O6  1  -0.09186  0.64437  0.30559  1
 O  O7  1  0.20638  0.72933  0.94945  1
 O  O8  1  0.61294  0.04914  0.40896  1
 P  P1  1  0.84396  0.47137  0.93646  1
 P  P2  1  0.58123  0.55646  0.17194  1
