data_image0
_chemical_formula_structural       FeSc6Te2
_chemical_formula_sum              "Fe1 Sc6 Te2"
_cell_length_a       7.71417
_cell_length_b       7.71417
_cell_length_c       3.78758
_cell_angle_alpha    90
_cell_angle_beta     90
_cell_angle_gamma    119.999

_space_group_name_H-M_alt    "P 1"
_space_group_IT_number       1

loop_
  _space_group_symop_operation_xyz
  'x, y, z'

loop_
  _atom_site_type_symbol
  _atom_site_label
  _atom_site_symmetry_multiplicity
  _atom_site_fract_x
  _atom_site_fract_y
  _atom_site_fract_z
  _atom_site_occupancy
  Fe  Fe1       1.0  0.00000  0.00000  0.00000  1.0000
  Sc  Sc1       1.0  0.61400  0.00002  0.00000  1.0000
  Sc  Sc2       1.0  0.38600  0.38600  0.00000  1.0000
  Sc  Sc3       1.0  0.00001  0.61400  0.00000  1.0000
  Sc  Sc4       1.0  0.23300  0.00003  0.50000  1.0000
  Sc  Sc5       1.0  0.00003  0.23300  0.50000  1.0000
  Sc  Sc6       1.0  0.76700  0.76700  0.50000  1.0000
  Te  Te1       1.0  0.66700  0.33300  0.50000  1.0000
  Te  Te2       1.0  0.33300  0.66700  0.50000  1.0000
