CIF file written using JARVIS-Tools package.
data_DyCrO3
_symmetry_space_group_name_H-M  'Pnma'
_cell_length_a       5.24535
_cell_length_b       5.57756
_cell_length_c       7.55902
_cell_angle_alpha    90
_cell_angle_beta     90
_cell_angle_gamma    90

_symmetry_Int_Tables_number  62
_chemical_formula_structural  DyCrO3
_chemical_formula_sum  Dy4Cr4O2
_cell_volume  221.14888505543135
_cell_formula_units_Z  4
loop_
  _symmetry_equiv_pos_site_id
 _symmetry_equiv_pos_as_xyz
 1  'x, y, z'
loop_
 _atom_site_type_symbol
 _atom_site_label
 _atom_site_symmetry_multiplicity
 _atom_site_fract_x
 _atom_site_fract_y
 _atom_site_fract_z
 _atom_site_fract_occupancy
 Cr  Cr1  1  0.50000  0.00000  0.00000  1
 Cr  Cr2  1  0.00000  0.50000  0.00000  1
 Cr  Cr3  1  0.00000  0.50000  0.50000  1
 Cr  Cr4  1  0.50000  0.00000  0.50000  1
 Dy  Dy1  1  0.98046  0.07068  0.25000  1
 Dy  Dy2  1  0.51954  0.57068  0.25000  1
 Dy  Dy3  1  0.01954  0.92932  0.75000  1
 Dy  Dy4  1  0.48046  0.42932  0.75000  1
 O  O1  1  0.19147  0.19704  0.55515  1
 O  O2  1  0.80853  0.80296  0.05515  1
 O  O3  1  0.30853  0.69704  0.94485  1
 O  O4  1  0.30853  0.69704  0.55515  1
 O  O5  1  0.80853  0.80296  0.44485  1
 O  O6  1  0.39113  0.96392  0.25000  1
 O  O7  1  0.69147  0.30296  0.05515  1
 O  O8  1  0.69147  0.30296  0.44485  1
 O  O9  1  0.10887  0.46392  0.25000  1
 O  O10  1  0.89113  0.53608  0.75000  1
 O  O11  1  0.19147  0.19704  0.94485  1
 O  O12  1  0.60887  0.03608  0.75000  1
