CIF file written using JARVIS-Tools package.
data_Ti5FeSb2
_symmetry_space_group_name_H-M  'I4/mcm'
_cell_length_a       5.1208
_cell_length_b       7.82547
_cell_length_c       7.82547
_cell_angle_alpha    83.8546
_cell_angle_beta     70.9019
_cell_angle_gamma    70.9018

_symmetry_Int_Tables_number  140
_chemical_formula_structural  Ti5FeSb2
_chemical_formula_sum  Ti0Fe2Sb4
_cell_volume  280.01689609526886
_cell_formula_units_Z  2
loop_
  _symmetry_equiv_pos_site_id
 _symmetry_equiv_pos_as_xyz
 1  'x, y, z'
loop_
 _atom_site_type_symbol
 _atom_site_label
 _atom_site_symmetry_multiplicity
 _atom_site_fract_x
 _atom_site_fract_y
 _atom_site_fract_z
 _atom_site_fract_occupancy
 Fe  Fe1  1  0.25000  0.00000  0.00000  1
 Fe  Fe2  1  0.75000  0.00000  0.00000  1
 Sb  Sb1  1  0.33585  0.82829  0.50000  1
 Sb  Sb2  1  0.16415  0.50000  0.17171  1
 Sb  Sb3  1  0.66415  0.17171  0.50000  1
 Sb  Sb4  1  0.83585  0.50000  0.82829  1
 Ti  Ti1  1  0.56864  0.73386  0.12886  1
 Ti  Ti2  1  0.43136  0.26614  0.87114  1
 Ti  Ti3  1  0.25000  0.50000  0.50000  1
 Ti  Ti4  1  0.75000  0.50000  0.50000  1
 Ti  Ti5  1  0.69750  0.87114  0.73386  1
 Ti  Ti6  1  0.30250  0.12886  0.26614  1
 Ti  Ti7  1  0.93136  0.87114  0.26614  1
 Ti  Ti8  1  0.19750  0.73386  0.87114  1
 Ti  Ti9  1  0.06864  0.12886  0.73386  1
 Ti  Ti10  1  0.80250  0.26614  0.12886  1
