CIF file written using JARVIS-Tools package.
data_SrIn2Rh
_symmetry_space_group_name_H-M  'Cmcm'
_cell_length_a       4.34005
_cell_length_b       5.89465
_cell_length_c       8.15776
_cell_angle_alpha    90
_cell_angle_beta     90
_cell_angle_gamma    111.601

_symmetry_Int_Tables_number  63
_chemical_formula_structural  SrIn2Rh
_chemical_formula_sum  Sr2In4Rh2
_cell_volume  194.04422881568888
_cell_formula_units_Z  2
loop_
  _symmetry_equiv_pos_site_id
 _symmetry_equiv_pos_as_xyz
 1  'x, y, z'
loop_
 _atom_site_type_symbol
 _atom_site_label
 _atom_site_symmetry_multiplicity
 _atom_site_fract_x
 _atom_site_fract_y
 _atom_site_fract_z
 _atom_site_fract_occupancy
 In  In1  1  0.34770  0.69539  0.94769  1
 In  In2  1  0.65230  0.30461  0.05231  1
 In  In3  1  0.65230  0.30461  0.44769  1
 In  In4  1  0.34770  0.69539  0.55231  1
 Rh  Rh1  1  0.78167  0.56333  0.75000  1
 Rh  Rh2  1  0.21833  0.43667  0.25000  1
 Sr  Sr1  1  0.06114  0.12229  0.75000  1
 Sr  Sr2  1  0.93886  0.87771  0.25000  1
