CIF file written using JARVIS-Tools package.
data_Ba2ZnH6O6
_symmetry_space_group_name_H-M  'P2_1/c'
_cell_length_a       6.58476
_cell_length_b       5.73772
_cell_length_c       9.89161
_cell_angle_alpha    90
_cell_angle_beta     100.535
_cell_angle_gamma    90

_symmetry_Int_Tables_number  14
_chemical_formula_structural  Ba2ZnH6O6
_chemical_formula_sum  Ba4Zn2H2O2
_cell_volume  367.42102399672046
_cell_formula_units_Z  2
loop_
  _symmetry_equiv_pos_site_id
 _symmetry_equiv_pos_as_xyz
 1  'x, y, z'
loop_
 _atom_site_type_symbol
 _atom_site_label
 _atom_site_symmetry_multiplicity
 _atom_site_fract_x
 _atom_site_fract_y
 _atom_site_fract_z
 _atom_site_fract_occupancy
 Ba  Ba1  1  0.04370  0.50281  0.28071  1
 Ba  Ba2  1  0.54370  -0.00281  0.78071  1
 Ba  Ba3  1  -0.04370  0.49719  0.71929  1
 Ba  Ba4  1  0.45630  0.00281  0.21929  1
 H  H1  1  -0.03771  0.21612  0.01133  1
 H  H2  1  0.63509  0.78847  0.50244  1
 H  H3  1  0.13509  0.71153  0.00244  1
 H  H4  1  -0.13509  0.28847  -0.00244  1
 H  H5  1  0.46229  0.28388  0.51133  1
 H  H6  1  0.74565  0.31303  0.39392  1
 H  H7  1  0.36491  0.21153  0.49756  1
 H  H8  1  0.03771  0.78388  0.98867  1
 H  H9  1  0.24565  0.18697  0.89392  1
 H  H10  1  0.25435  0.68697  0.60608  1
 H  H11  1  0.75435  0.81303  0.10608  1
 H  H12  1  0.53771  0.71612  0.48867  1
 O  O1  1  0.65367  0.79002  0.02001  1
 O  O2  1  0.37007  0.58260  0.78306  1
 O  O3  1  0.87007  0.91740  0.28306  1
 O  O4  1  0.12993  0.08260  0.71694  1
 O  O5  1  0.62993  0.41740  0.21694  1
 O  O6  1  0.41827  0.51580  0.22541  1
 O  O7  1  0.58173  0.48420  0.77459  1
 O  O8  1  0.34633  0.20998  -0.02001  1
 O  O9  1  0.84633  0.29002  0.47999  1
 O  O10  1  -0.08173  -0.01580  0.72541  1
 O  O11  1  0.08173  0.01580  0.27459  1
 O  O12  1  0.15367  0.70998  0.52001  1
 Zn  Zn1  1  0.50000  0.50000  -0.00000  1
 Zn  Zn2  1  -0.00000  0.00000  0.50000  1
