CIF file written using JARVIS-Tools package.
data_ThAgPO
_symmetry_space_group_name_H-M  'P4/nmm'
_cell_length_a       3.99362
_cell_length_b       3.99362
_cell_length_c       8.80264
_cell_angle_alpha    90
_cell_angle_beta     90
_cell_angle_gamma    90

_symmetry_Int_Tables_number  129
_chemical_formula_structural  ThAgPO
_chemical_formula_sum  Th2Ag2P2O2
_cell_volume  140.39306736798886
_cell_formula_units_Z  2
loop_
  _symmetry_equiv_pos_site_id
 _symmetry_equiv_pos_as_xyz
 1  'x, y, z'
loop_
 _atom_site_type_symbol
 _atom_site_label
 _atom_site_symmetry_multiplicity
 _atom_site_fract_x
 _atom_site_fract_y
 _atom_site_fract_z
 _atom_site_fract_occupancy
 Ag  Ag1  1  0.75000  0.25000  0.50000  1
 Ag  Ag2  1  0.25000  0.75000  0.50000  1
 O  O1  1  0.75000  0.25000  0.00000  1
 O  O2  1  0.25000  0.75000  0.00000  1
 P  P1  1  0.75000  0.75000  0.29716  1
 P  P2  1  0.25000  0.25000  0.70284  1
 Th  Th1  1  0.75000  0.75000  0.84516  1
 Th  Th2  1  0.25000  0.25000  0.15484  1
