CIF file written using JARVIS-Tools package.
data_H3ClO5
_symmetry_space_group_name_H-M  'Pnma'
_cell_length_a       8.90588
_cell_length_b       5.69974
_cell_length_c       6.86172
_cell_angle_alpha    90
_cell_angle_beta     90
_cell_angle_gamma    90

_symmetry_Int_Tables_number  62
_chemical_formula_structural  H3ClO5
_chemical_formula_sum  H2Cl4O20
_cell_volume  348.309639229304
_cell_formula_units_Z  4
loop_
  _symmetry_equiv_pos_site_id
 _symmetry_equiv_pos_as_xyz
 1  'x, y, z'
loop_
 _atom_site_type_symbol
 _atom_site_label
 _atom_site_symmetry_multiplicity
 _atom_site_fract_x
 _atom_site_fract_y
 _atom_site_fract_z
 _atom_site_fract_occupancy
 Cl  Cl1  1  0.56242  0.75000  0.81354  1
 Cl  Cl2  1  0.43758  0.25000  0.18646  1
 Cl  Cl3  1  0.93758  0.25000  0.31354  1
 Cl  Cl4  1  0.06242  0.75000  0.68646  1
 H  H1  1  0.68098  0.75000  0.17244  1
 H  H2  1  0.60034  0.75000  0.40439  1
 H  H3  1  0.18098  0.75000  0.32756  1
 H  H4  1  0.10034  0.75000  0.09561  1
 H  H5  1  0.21168  0.25000  0.61335  1
 H  H6  1  0.31902  0.25000  0.82756  1
 H  H7  1  0.89966  0.25000  0.90439  1
 H  H8  1  0.81902  0.25000  0.67244  1
 H  H9  1  0.28832  0.75000  0.11335  1
 H  H10  1  0.78832  0.75000  0.38665  1
 H  H11  1  0.71168  0.25000  0.88665  1
 H  H12  1  0.39966  0.25000  0.59561  1
 O  O1  1  0.42107  0.75000  0.92069  1
 O  O2  1  0.80963  0.25000  0.45220  1
 O  O3  1  0.18957  0.75000  0.17838  1
 O  O4  1  0.19037  0.75000  0.54780  1
 O  O5  1  0.69037  0.75000  0.95220  1
 O  O6  1  0.07893  0.25000  0.42069  1
 O  O7  1  0.57893  0.25000  0.07931  1
 O  O8  1  0.92107  0.75000  0.57931  1
 O  O9  1  0.30963  0.25000  0.04780  1
 O  O10  1  0.31043  0.25000  0.67838  1
 O  O11  1  0.57309  0.95784  0.69082  1
 O  O12  1  0.07309  0.95784  0.80918  1
 O  O13  1  0.57309  0.54216  0.69082  1
 O  O14  1  0.92691  0.45784  0.19082  1
 O  O15  1  0.42691  0.04216  0.30918  1
 O  O16  1  0.81043  0.25000  0.82162  1
 O  O17  1  0.92691  0.04216  0.19082  1
 O  O18  1  0.07309  0.54216  0.80918  1
 O  O19  1  0.42691  0.45784  0.30918  1
 O  O20  1  0.68957  0.75000  0.32162  1
