CIF file written using JARVIS-Tools package.
data_V3O4F2
_symmetry_space_group_name_H-M  'P1'
_cell_length_a       4.62805
_cell_length_b       5.51001
_cell_length_c       7.55079
_cell_angle_alpha    84.6691
_cell_angle_beta     88.8019
_cell_angle_gamma    88.537

_symmetry_Int_Tables_number  1
_chemical_formula_structural  V3O4F2
_chemical_formula_sum  V6O8F4
_cell_volume  191.621385441547
_cell_formula_units_Z  2
loop_
  _symmetry_equiv_pos_site_id
 _symmetry_equiv_pos_as_xyz
 1  'x, y, z'
loop_
 _atom_site_type_symbol
 _atom_site_label
 _atom_site_symmetry_multiplicity
 _atom_site_fract_x
 _atom_site_fract_y
 _atom_site_fract_z
 _atom_site_fract_occupancy
 F  F1  1  0.20630  0.63624  0.55787  1
 F  F2  1  0.79803  0.03659  0.77109  1
 F  F3  1  0.20307  0.96359  0.24170  1
 F  F4  1  0.29818  0.46803  0.23455  1
 O  O1  1  0.70546  0.53414  0.76007  1
 O  O2  1  0.80648  0.36781  0.43280  1
 O  O3  1  0.79191  0.69755  0.09999  1
 O  O4  1  0.68892  0.20500  0.10509  1
 O  O5  1  0.70429  0.86423  0.43727  1
 O  O6  1  0.30433  0.13438  0.56604  1
 O  O7  1  0.19754  0.29671  0.89997  1
 O  O8  1  0.29224  0.79933  0.90114  1
 V  V1  1  0.00521  0.00700  0.00770  1
 V  V2  1  0.94579  0.65709  0.32073  1
 V  V3  1  0.01538  0.33543  0.66748  1
 V  V4  1  0.53905  0.16300  0.34624  1
 V  V5  1  0.50611  0.49723  0.97675  1
 V  V6  1  0.49170  0.83665  0.67351  1
