CIF file written using JARVIS-Tools package.
data_CrMoF6
_symmetry_space_group_name_H-M  'R-3'
_cell_length_a       5.04642
_cell_length_b       5.48106
_cell_length_c       5.04557
_cell_angle_alpha    62.5997
_cell_angle_beta     59.9961
_cell_angle_gamma    90.0017

_symmetry_Int_Tables_number  148
_chemical_formula_structural  CrMoF6
_chemical_formula_sum  CrMoF6
_cell_volume  102.37760871760909
_cell_formula_units_Z  1
loop_
  _symmetry_equiv_pos_site_id
 _symmetry_equiv_pos_as_xyz
 1  'x, y, z'
loop_
 _atom_site_type_symbol
 _atom_site_label
 _atom_site_symmetry_multiplicity
 _atom_site_fract_x
 _atom_site_fract_y
 _atom_site_fract_z
 _atom_site_fract_occupancy
 Cr  Cr1  1  0.00000  0.00000  0.00000  1
 F  F1  1  0.24476  0.75561  0.12522  1
 F  F2  1  0.75524  0.24439  0.87478  1
 F  F3  1  0.37004  0.24437  0.51081  1
 F  F4  1  0.62996  0.75563  0.48919  1
 F  F5  1  0.88083  0.75567  0.87428  1
 F  F6  1  0.11917  0.24433  0.12572  1
 Mo  Mo1  1  0.50000  0.50000  0.00000  1
