CIF file written using JARVIS-Tools package.
data_Ni3O4
_symmetry_space_group_name_H-M  'C2/m'
_cell_length_a       2.90019
_cell_length_b       4.99568
_cell_length_c       9.58536
_cell_angle_alpha    91.4154
_cell_angle_beta     98.7022
_cell_angle_gamma    89.9991

_symmetry_Int_Tables_number  12
_chemical_formula_structural  Ni3O4
_chemical_formula_sum  Ni6O8
_cell_volume  137.2352508710912
_cell_formula_units_Z  2
loop_
  _symmetry_equiv_pos_site_id
 _symmetry_equiv_pos_as_xyz
 1  'x, y, z'
loop_
 _atom_site_type_symbol
 _atom_site_label
 _atom_site_symmetry_multiplicity
 _atom_site_fract_x
 _atom_site_fract_y
 _atom_site_fract_z
 _atom_site_fract_occupancy
 Ni  Ni1  1  0.00000  0.00000  0.00000  1
 Ni  Ni2  1  0.37472  0.13628  0.74949  1
 Ni  Ni3  1  0.74252  0.25275  0.48509  1
 Ni  Ni4  1  0.50000  0.50000  -0.00000  1
 Ni  Ni5  1  0.25748  0.74725  0.51491  1
 Ni  Ni6  1  0.62528  0.86372  0.25051  1
 O  O1  1  0.19209  0.04732  0.38419  1
 O  O2  1  0.55315  0.15322  0.10630  1
 O  O3  1  0.94130  0.29904  0.88263  1
 O  O4  1  0.29986  0.39816  0.59976  1
 O  O5  1  0.70014  0.60184  0.40024  1
 O  O6  1  0.05870  0.70096  0.11737  1
 O  O7  1  0.44685  0.84678  0.89370  1
 O  O8  1  0.80791  0.95268  0.61581  1
