CIF file written using JARVIS-Tools package.
data_LiNdP4O12
_symmetry_space_group_name_H-M  'C2/c'
_cell_length_a       6.98827
_cell_length_b       9.04734
_cell_length_c       8.98162
_cell_angle_alpha    67.9987
_cell_angle_beta     67.1058
_cell_angle_gamma    67.2814

_symmetry_Int_Tables_number  15
_chemical_formula_structural  LiNdP4O12
_chemical_formula_sum  Li2Nd2P8O24
_cell_volume  465.41691001609524
_cell_formula_units_Z  2
loop_
  _symmetry_equiv_pos_site_id
 _symmetry_equiv_pos_as_xyz
 1  'x, y, z'
loop_
 _atom_site_type_symbol
 _atom_site_label
 _atom_site_symmetry_multiplicity
 _atom_site_fract_x
 _atom_site_fract_y
 _atom_site_fract_z
 _atom_site_fract_occupancy
 Li  Li1  1  0.00000  0.00000  0.00000  1
 Li  Li2  1  0.00000  0.50000  0.50000  1
 Nd  Nd1  1  0.21840  0.25000  0.75000  1
 Nd  Nd2  1  0.78160  0.75000  0.25000  1
 O  O1  1  0.00008  0.79603  0.95652  1
 O  O2  1  0.36746  0.34141  0.13452  1
 O  O3  1  0.43628  0.19678  0.92670  1
 O  O4  1  0.55976  0.30322  0.57330  1
 O  O5  1  0.56372  0.80322  0.07330  1
 O  O6  1  0.44024  0.69678  0.42670  1
 O  O7  1  0.75952  0.91454  0.76195  1
 O  O8  1  0.63254  0.65859  0.86548  1
 O  O9  1  0.17151  0.58208  0.26252  1
 O  O10  1  0.01611  0.91792  0.23748  1
 O  O11  1  0.82849  0.41792  0.73748  1
 O  O12  1  -0.01611  0.08208  0.76252  1
 O  O13  1  0.24736  0.29603  0.45652  1
 O  O14  1  0.43601  0.58546  0.73805  1
 O  O15  1  0.15661  0.84141  0.63452  1
 O  O16  1  0.84321  0.44873  0.34432  1
 O  O17  1  0.75264  0.70397  0.54348  1
 O  O18  1  0.36374  0.94873  0.84432  1
 O  O19  1  0.15679  0.55127  0.65568  1
 O  O20  1  0.56399  0.41454  0.26195  1
 O  O21  1  0.24048  0.08546  0.23805  1
 O  O22  1  0.99992  0.20397  0.04348  1
 O  O23  1  0.63626  0.05127  0.15568  1
 O  O24  1  0.84339  0.15859  0.36548  1
 P  P1  1  0.97707  0.91073  0.78668  1
 P  P2  1  0.67448  0.58927  0.71332  1
 P  P3  1  0.02293  0.08927  0.21332  1
 P  P4  1  0.32552  0.41073  0.28668  1
 P  P5  1  0.29967  0.66169  0.60235  1
 P  P6  1  0.56371  0.83831  0.89765  1
 P  P7  1  0.70033  0.33831  0.39765  1
 P  P8  1  0.43629  0.16169  0.10235  1
