CIF file written using JARVIS-Tools package.
data_CaCuH4C4O8
_symmetry_space_group_name_H-M  'P2/c'
_cell_length_a       6.45021
_cell_length_b       7.30495
_cell_length_c       8.33705
_cell_angle_alpha    90
_cell_angle_beta     90
_cell_angle_gamma    96.6151

_symmetry_Int_Tables_number  13
_chemical_formula_structural  CaCuH4C4O8
_chemical_formula_sum  Ca2Cu2H8C8O6
_cell_volume  390.21338955239867
_cell_formula_units_Z  2
loop_
  _symmetry_equiv_pos_site_id
 _symmetry_equiv_pos_as_xyz
 1  'x, y, z'
loop_
 _atom_site_type_symbol
 _atom_site_label
 _atom_site_symmetry_multiplicity
 _atom_site_fract_x
 _atom_site_fract_y
 _atom_site_fract_z
 _atom_site_fract_occupancy
 C  C1  1  0.00402  0.31813  0.85724  1
 C  C2  1  0.99598  0.68187  0.14276  1
 C  C3  1  0.12977  0.19106  0.39756  1
 C  C4  1  0.49598  0.68187  0.85724  1
 C  C5  1  0.37023  0.80894  0.39756  1
 C  C6  1  0.87023  0.80894  0.60244  1
 C  C7  1  0.62977  0.19106  0.60244  1
 C  C8  1  0.50402  0.31813  0.14276  1
 Ca  Ca1  1  0.75000  -0.00000  0.13646  1
 Ca  Ca2  1  0.25000  -0.00000  0.86354  1
 Cu  Cu1  1  0.25000  0.50000  0.59480  1
 Cu  Cu2  1  0.75000  0.50000  0.40520  1
 H  H1  1  0.09287  0.56690  0.15359  1
 H  H2  1  0.40713  0.43310  0.15359  1
 H  H3  1  0.59287  0.56690  0.84641  1
 H  H4  1  0.22282  0.84719  0.44731  1
 H  H5  1  0.90713  0.43310  0.84641  1
 H  H6  1  0.77718  0.15281  0.55269  1
 H  H7  1  0.72282  0.84719  0.55269  1
 H  H8  1  0.27718  0.15281  0.44731  1
 O  O1  1  0.34126  0.68519  0.76170  1
 O  O2  1  0.46250  0.19409  0.03892  1
 O  O3  1  0.51677  0.07585  0.68391  1
 O  O4  1  0.98323  0.92415  0.68391  1
 O  O5  1  0.84126  0.68519  0.23830  1
 O  O6  1  0.01677  0.07585  0.31609  1
 O  O7  1  0.65874  0.31481  0.23830  1
 O  O8  1  0.15874  0.31481  0.76170  1
 O  O9  1  0.53750  0.80591  0.96108  1
 O  O10  1  0.41390  0.64471  0.42868  1
 O  O11  1  0.08610  0.35529  0.42868  1
 O  O12  1  0.91390  0.64471  0.57132  1
 O  O13  1  0.03750  0.80591  0.03892  1
 O  O14  1  0.96250  0.19409  0.96108  1
 O  O15  1  0.58610  0.35529  0.57132  1
 O  O16  1  0.48323  0.92415  0.31609  1
