CIF file written using JARVIS-Tools package.
data_Nb3Au2
_symmetry_space_group_name_H-M  'P4_132'
_cell_length_a       7.12418
_cell_length_b       7.12418
_cell_length_c       7.12418
_cell_angle_alpha    90
_cell_angle_beta     90
_cell_angle_gamma    90

_symmetry_Int_Tables_number  213
_chemical_formula_structural  Nb3Au2
_chemical_formula_sum  Nb2Au8
_cell_volume  361.5800538769586
_cell_formula_units_Z  4
loop_
  _symmetry_equiv_pos_site_id
 _symmetry_equiv_pos_as_xyz
 1  'x, y, z'
loop_
 _atom_site_type_symbol
 _atom_site_label
 _atom_site_symmetry_multiplicity
 _atom_site_fract_x
 _atom_site_fract_y
 _atom_site_fract_z
 _atom_site_fract_occupancy
 Au  Au1  1  0.20016  0.79984  0.29984  1
 Au  Au2  1  0.79984  0.29984  0.20016  1
 Au  Au3  1  0.54984  0.45016  0.95016  1
 Au  Au4  1  0.95016  0.54984  0.45016  1
 Au  Au5  1  0.45016  0.95016  0.54984  1
 Au  Au6  1  0.04984  0.04984  0.04984  1
 Au  Au7  1  0.29984  0.20016  0.79984  1
 Au  Au8  1  0.70016  0.70016  0.70016  1
 Nb  Nb1  1  0.94079  0.37500  0.80921  1
 Nb  Nb2  1  0.37500  0.80921  0.94079  1
 Nb  Nb3  1  0.12500  0.19079  0.44079  1
 Nb  Nb4  1  0.44079  0.12500  0.19079  1
 Nb  Nb5  1  0.80921  0.94079  0.37500  1
 Nb  Nb6  1  0.05921  0.87500  0.69079  1
 Nb  Nb7  1  0.55921  0.62500  0.30921  1
 Nb  Nb8  1  0.19079  0.44079  0.12500  1
 Nb  Nb9  1  0.69079  0.05921  0.87500  1
 Nb  Nb10  1  0.30921  0.55921  0.62500  1
 Nb  Nb11  1  0.62500  0.30921  0.55921  1
 Nb  Nb12  1  0.87500  0.69079  0.05921  1
