CIF file written using JARVIS-Tools package.
data_Fe2O3F
_symmetry_space_group_name_H-M  'C2/m'
_cell_length_a       5.32857
_cell_length_b       5.32847
_cell_length_c       9.43292
_cell_angle_alpha    96.399
_cell_angle_beta     102.615
_cell_angle_gamma    114.588

_symmetry_Int_Tables_number  12
_chemical_formula_structural  Fe2O3F
_chemical_formula_sum  Fe8O2F4
_cell_volume  231.40327073291436
_cell_formula_units_Z  4
loop_
  _symmetry_equiv_pos_site_id
 _symmetry_equiv_pos_as_xyz
 1  'x, y, z'
loop_
 _atom_site_type_symbol
 _atom_site_label
 _atom_site_symmetry_multiplicity
 _atom_site_fract_x
 _atom_site_fract_y
 _atom_site_fract_z
 _atom_site_fract_occupancy
 F  F1  1  0.18520  0.42298  0.11224  1
 F  F2  1  0.94577  0.15807  0.60786  1
 F  F3  1  0.80091  0.58615  0.89114  1
 F  F4  1  0.56146  0.32126  0.38675  1
 Fe  Fe1  1  0.00437  0.00741  0.00085  1
 Fe  Fe2  1  0.37333  0.87212  0.74950  1
 Fe  Fe3  1  0.87334  0.37211  0.74949  1
 Fe  Fe4  1  0.48939  0.49246  0.00085  1
 Fe  Fe5  1  0.63162  0.09820  0.23385  1
 Fe  Fe6  1  0.74230  0.73683  0.49814  1
 Fe  Fe7  1  0.25728  0.25178  0.49814  1
 Fe  Fe8  1  0.11505  0.64603  0.26514  1
 O  O1  1  0.70056  0.88845  0.09305  1
 O  O2  1  0.76791  0.07433  0.84720  1
 O  O3  1  0.72306  0.42197  0.15271  1
 O  O4  1  0.97876  0.66989  0.65179  1
 O  O5  1  0.29331  0.10925  0.90660  1
 O  O6  1  0.45336  0.63498  0.59239  1
 O  O7  1  0.02361  0.32228  0.34628  1
 O  O8  1  0.26880  0.57524  0.84720  1
 O  O9  1  0.22673  0.92561  0.15271  1
 O  O10  1  0.04611  0.85579  0.40594  1
 O  O11  1  0.47787  0.16899  0.65179  1
 O  O12  1  0.51994  0.81863  0.34628  1
