CIF file written using JARVIS-Tools package.
data_GaAgSeS
_symmetry_space_group_name_H-M  'I2_12_12_1'
_cell_length_a       6.8454
_cell_length_b       6.8454
_cell_length_c       6.8454
_cell_angle_alpha    130.04
_cell_angle_beta     127.834
_cell_angle_gamma    75.126

_symmetry_Int_Tables_number  24
_chemical_formula_structural  GaAgSeS
_chemical_formula_sum  Ga2Ag2Se2S2
_cell_volume  188.84748849992826
_cell_formula_units_Z  2
loop_
  _symmetry_equiv_pos_site_id
 _symmetry_equiv_pos_as_xyz
 1  'x, y, z'
loop_
 _atom_site_type_symbol
 _atom_site_label
 _atom_site_symmetry_multiplicity
 _atom_site_fract_x
 _atom_site_fract_y
 _atom_site_fract_z
 _atom_site_fract_occupancy
 Ag  Ag1  1  0.64462  0.89462  0.75000  1
 Ag  Ag2  1  0.85538  0.60538  0.25000  1
 Ga  Ga1  1  0.12663  0.37663  0.75000  1
 Ga  Ga2  1  0.37337  0.12337  0.25000  1
 S  S1  1  0.45604  0.75000  0.20604  1
 S  S2  1  0.04396  0.25000  0.29396  1
 Se  Se1  1  0.25000  0.01879  0.76879  1
 Se  Se2  1  0.75000  0.48121  0.73121  1
