CIF file written using JARVIS-Tools package.
data_Be12W
_symmetry_space_group_name_H-M  'I4/mmm'
_cell_length_a       4.20805
_cell_length_b       5.51233
_cell_length_c       5.51233
_cell_angle_alpha    81.6227
_cell_angle_beta     67.5613
_cell_angle_gamma    67.5613

_symmetry_Int_Tables_number  139
_chemical_formula_structural  Be12W
_chemical_formula_sum  Be2W
_cell_volume  109.23592642321458
_cell_formula_units_Z  1
loop_
  _symmetry_equiv_pos_site_id
 _symmetry_equiv_pos_as_xyz
 1  'x, y, z'
loop_
 _atom_site_type_symbol
 _atom_site_label
 _atom_site_symmetry_multiplicity
 _atom_site_fract_x
 _atom_site_fract_y
 _atom_site_fract_z
 _atom_site_fract_occupancy
 Be  Be1  1  0.00000  0.64935  0.35065  1
 Be  Be2  1  -0.00000  0.50000  -0.00000  1
 Be  Be3  1  0.64935  0.35065  0.35065  1
 Be  Be4  1  0.50000  0.21134  0.78866  1
 Be  Be5  1  -0.00000  0.35065  0.64935  1
 Be  Be6  1  0.50000  0.00000  0.50000  1
 Be  Be7  1  0.35065  0.64935  0.64935  1
 Be  Be8  1  0.28866  0.21134  0.21134  1
 Be  Be9  1  0.50000  0.78866  0.21134  1
 Be  Be10  1  -0.00000  0.00000  0.50000  1
 Be  Be11  1  0.71134  0.78866  0.78866  1
 Be  Be12  1  0.50000  0.50000  0.00000  1
 W  W1  1  0.00000  0.00000  0.00000  1
