CIF file written using JARVIS-Tools package.
data_V2CoP2O10
_symmetry_space_group_name_H-M  'P2_1/c'
_cell_length_a       6.3479
_cell_length_b       7.26376
_cell_length_c       7.43051
_cell_angle_alpha    90
_cell_angle_beta     89.5643
_cell_angle_gamma    90

_symmetry_Int_Tables_number  14
_chemical_formula_structural  V2CoP2O10
_chemical_formula_sum  V4Co2P4O20
_cell_volume  342.60805877497404
_cell_formula_units_Z  2
loop_
  _symmetry_equiv_pos_site_id
 _symmetry_equiv_pos_as_xyz
 1  'x, y, z'
loop_
 _atom_site_type_symbol
 _atom_site_label
 _atom_site_symmetry_multiplicity
 _atom_site_fract_x
 _atom_site_fract_y
 _atom_site_fract_z
 _atom_site_fract_occupancy
 Co  Co1  1  0.00000  0.00000  0.00000  1
 Co  Co2  1  1.00000  0.50000  0.50000  1
 O  O1  1  0.74342  0.99061  0.45288  1
 O  O2  1  0.05955  0.24558  0.87509  1
 O  O3  1  0.05955  0.25442  0.37509  1
 O  O4  1  0.94045  0.75442  0.12491  1
 O  O5  1  0.44820  0.24701  0.35717  1
 O  O6  1  0.55180  0.74701  0.14284  1
 O  O7  1  0.55180  0.75298  0.64283  1
 O  O8  1  0.44820  0.25299  0.85716  1
 O  O9  1  0.25658  0.00939  0.54712  1
 O  O10  1  0.74342  0.50939  0.95288  1
 O  O11  1  0.77528  0.15382  0.11780  1
 O  O12  1  0.22472  0.65382  0.38220  1
 O  O13  1  0.22473  0.84618  0.88220  1
 O  O14  1  0.77142  0.00506  0.79281  1
 O  O15  1  0.77528  0.34618  0.61780  1
 O  O16  1  0.22858  0.99494  0.20719  1
 O  O17  1  0.77142  0.49494  0.29281  1
 O  O18  1  0.25658  0.49061  0.04712  1
 O  O19  1  0.22858  0.50506  0.70719  1
 O  O20  1  0.94045  0.74558  0.62491  1
 P  P1  1  0.25302  0.37658  0.87360  1
 P  P2  1  0.74698  0.87658  0.62640  1
 P  P3  1  0.74698  0.62342  0.12640  1
 P  P4  1  0.25302  0.12342  0.37360  1
 V  V1  1  0.74608  0.27671  0.83308  1
 V  V2  1  0.74608  0.22329  0.33308  1
 V  V3  1  0.25392  0.72330  0.16691  1
 V  V4  1  0.25392  0.77671  0.66692  1
