CIF file written using JARVIS-Tools package.
data_CeMg6Al
_symmetry_space_group_name_H-M  'Amm2'
_cell_length_a       7.06862
_cell_length_b       6.0985
_cell_length_c       4.9342
_cell_angle_alpha    90
_cell_angle_beta     90
_cell_angle_gamma    115.555

_symmetry_Int_Tables_number  38
_chemical_formula_structural  CeMg6Al
_chemical_formula_sum  CeMg6Al
_cell_volume  191.89507171345366
_cell_formula_units_Z  1
loop_
  _symmetry_equiv_pos_site_id
 _symmetry_equiv_pos_as_xyz
 1  'x, y, z'
loop_
 _atom_site_type_symbol
 _atom_site_label
 _atom_site_symmetry_multiplicity
 _atom_site_fract_x
 _atom_site_fract_y
 _atom_site_fract_z
 _atom_site_fract_occupancy
 Al  Al1  1  0.21938  0.35969  0.25000  1
 Ce  Ce1  1  0.11448  0.80724  0.25000  1
 Mg  Mg1  1  0.63177  0.30977  0.25000  1
 Mg  Mg2  1  0.63177  0.82200  0.25000  1
 Mg  Mg3  1  0.34888  0.16957  0.75000  1
 Mg  Mg4  1  0.34888  0.67932  0.75000  1
 Mg  Mg5  1  0.91300  0.20650  0.75000  1
 Mg  Mg6  1  0.79183  0.64592  0.75000  1
