CIF file written using JARVIS-Tools package.
data_ZnBi6P2O14F2
_symmetry_space_group_name_H-M  'C2/c'
_cell_length_a       5.57091
_cell_length_b       8.83141
_cell_length_c       16.0988
_cell_angle_alpha    76.9807
_cell_angle_beta     80.0385
_cell_angle_gamma    71.6158

_symmetry_Int_Tables_number  15
_chemical_formula_structural  ZnBi6P2O14F2
_chemical_formula_sum  Zn2Bi2P4O28F4
_cell_volume  727.8368861506942
_cell_formula_units_Z  2
loop_
  _symmetry_equiv_pos_site_id
 _symmetry_equiv_pos_as_xyz
 1  'x, y, z'
loop_
 _atom_site_type_symbol
 _atom_site_label
 _atom_site_symmetry_multiplicity
 _atom_site_fract_x
 _atom_site_fract_y
 _atom_site_fract_z
 _atom_site_fract_occupancy
 Bi  Bi1  1  0.50443  0.45776  0.67090  1
 Bi  Bi2  1  0.23925  0.76157  0.83101  1
 Bi  Bi3  1  0.83180  0.73843  0.66898  1
 Bi  Bi4  1  0.49557  0.54224  0.32910  1
 Bi  Bi5  1  0.76075  0.23843  0.16899  1
 Bi  Bi6  1  0.16820  0.26157  0.33102  1
 Bi  Bi7  1  0.94761  0.37669  0.83089  1
 Bi  Bi8  1  0.63314  0.04224  0.82910  1
 Bi  Bi9  1  0.36686  0.95776  0.17090  1
 Bi  Bi10  1  0.15520  0.12331  0.66910  1
 Bi  Bi11  1  0.05239  0.62331  0.16911  1
 Bi  Bi12  1  0.84480  0.87669  0.33090  1
 F  F1  1  0.25595  0.47264  0.96402  1
 F  F2  1  0.69253  0.02738  0.53599  1
 F  F3  1  0.30747  0.97262  0.46401  1
 F  F4  1  0.74405  0.52736  0.03598  1
 O  O1  1  0.45629  0.91635  0.74143  1
 O  O2  1  0.33597  0.74969  0.03135  1
 O  O3  1  0.88595  0.41634  0.24144  1
 O  O4  1  0.59794  0.69752  0.45349  1
 O  O5  1  0.68432  0.74008  0.90424  1
 O  O6  1  0.67122  0.24005  0.40423  1
 O  O7  1  0.40206  0.30248  0.54651  1
 O  O8  1  0.98005  0.00510  0.11603  1
 O  O9  1  0.25089  0.19757  0.95350  1
 O  O10  1  0.31568  0.25992  0.09576  1
 O  O11  1  0.61452  0.57679  0.76231  1
 O  O12  1  0.01995  0.99490  0.88397  1
 O  O13  1  0.78748  0.25000  0.74999  1
 O  O14  1  0.11405  0.58366  0.75856  1
 O  O15  1  0.54371  0.08365  0.25857  1
 O  O16  1  0.04639  0.07677  0.26232  1
 O  O17  1  0.95361  0.92323  0.73768  1
 O  O18  1  0.71284  0.75000  0.25000  1
 O  O19  1  0.32878  0.75995  0.59577  1
 O  O20  1  0.11687  0.75036  0.46871  1
 O  O21  1  0.21252  0.75000  0.25001  1
 O  O22  1  0.38548  0.42321  0.23769  1
 O  O23  1  0.28716  0.25000  0.75000  1
 O  O24  1  0.66403  0.25031  0.96865  1
 O  O25  1  0.88313  0.24964  0.53129  1
 O  O26  1  0.89880  0.50508  0.61603  1
 O  O27  1  0.74911  0.80243  0.04650  1
 O  O28  1  0.10120  0.49492  0.38397  1
 P  P1  1  0.38159  0.27999  0.99814  1
 P  P2  1  0.61841  0.72001  0.00186  1
 P  P3  1  0.65973  0.22001  0.50185  1
 P  P4  1  0.34027  0.77999  0.49815  1
 Zn  Zn1  1  0.00000  0.50000  0.50000  1
 Zn  Zn2  1  0.00000  0.00000  0.00000  1
