CIF file written using JARVIS-Tools package.
data_VO2
_symmetry_space_group_name_H-M  'Cmcm'
_cell_length_a       5.0392
_cell_length_b       5.0392
_cell_length_c       5.99767
_cell_angle_alpha    90
_cell_angle_beta     90
_cell_angle_gamma    68.61

_symmetry_Int_Tables_number  63
_chemical_formula_structural  VO2
_chemical_formula_sum  V4O8
_cell_volume  141.8114320903609
_cell_formula_units_Z  4
loop_
  _symmetry_equiv_pos_site_id
 _symmetry_equiv_pos_as_xyz
 1  'x, y, z'
loop_
 _atom_site_type_symbol
 _atom_site_label
 _atom_site_symmetry_multiplicity
 _atom_site_fract_x
 _atom_site_fract_y
 _atom_site_fract_z
 _atom_site_fract_occupancy
 O  O1  1  0.23375  0.23375  0.02623  1
 O  O2  1  0.23375  0.23375  0.47377  1
 O  O3  1  0.21404  0.74569  0.25000  1
 O  O4  1  0.25431  0.78596  0.75000  1
 O  O5  1  0.74569  0.21404  0.25000  1
 O  O6  1  0.78596  0.25431  0.75000  1
 O  O7  1  0.76625  0.76625  0.97377  1
 O  O8  1  0.76625  0.76625  0.52623  1
 V  V1  1  0.00000  0.00000  0.00000  1
 V  V2  1  0.00000  0.00000  0.50000  1
 V  V3  1  0.35751  0.35751  0.25000  1
 V  V4  1  0.64249  0.64249  0.75000  1
