CIF file written using JARVIS-Tools package.
data_Ce2ZnNi2
_symmetry_space_group_name_H-M  'Immm'
_cell_length_a       4.38758
_cell_length_b       5.23114
_cell_length_c       5.23113
_cell_angle_alpha    63.8695
_cell_angle_beta     65.2051
_cell_angle_gamma    65.2052

_symmetry_Int_Tables_number  71
_chemical_formula_structural  Ce2ZnNi2
_chemical_formula_sum  Ce2ZnNi2
_cell_volume  93.71246439945581
_cell_formula_units_Z  1
loop_
  _symmetry_equiv_pos_site_id
 _symmetry_equiv_pos_as_xyz
 1  'x, y, z'
loop_
 _atom_site_type_symbol
 _atom_site_label
 _atom_site_symmetry_multiplicity
 _atom_site_fract_x
 _atom_site_fract_y
 _atom_site_fract_z
 _atom_site_fract_occupancy
 Ce  Ce1  1  0.79917  0.70083  0.70083  1
 Ce  Ce2  1  0.20083  0.29917  0.29917  1
 Ni  Ni1  1  0.50000  0.73201  0.26799  1
 Ni  Ni2  1  0.50000  0.26799  0.73201  1
 Zn  Zn1  1  0.00000  0.00000  0.00000  1
