CIF file written using JARVIS-Tools package.
data_Y4AlSiNO8
_symmetry_space_group_name_H-M  'P2_1/c'
_cell_length_a       7.61106
_cell_length_b       10.4336
_cell_length_c       10.8945
_cell_angle_alpha    90
_cell_angle_beta     109.486
_cell_angle_gamma    90

_symmetry_Int_Tables_number  14
_chemical_formula_structural  Y4AlSiNO8
_chemical_formula_sum  Y6Al4Si4N4O32
_cell_volume  815.590091261911
_cell_formula_units_Z  4
loop_
  _symmetry_equiv_pos_site_id
 _symmetry_equiv_pos_as_xyz
 1  'x, y, z'
loop_
 _atom_site_type_symbol
 _atom_site_label
 _atom_site_symmetry_multiplicity
 _atom_site_fract_x
 _atom_site_fract_y
 _atom_site_fract_z
 _atom_site_fract_occupancy
 Al  Al1  1  0.73789  0.31376  0.63142  1
 Al  Al2  1  0.73789  0.18624  0.13142  1
 Al  Al3  1  0.26211  0.68624  0.36858  1
 Al  Al4  1  0.26211  0.81376  0.86858  1
 N  N1  1  0.95271  0.24487  0.11247  1
 N  N2  1  0.04729  0.74487  0.38753  1
 N  N3  1  0.04729  0.75513  0.88753  1
 N  N4  1  0.95271  0.25513  0.61247  1
 O  O1  1  0.57890  0.26796  0.48008  1
 O  O2  1  0.56653  0.99399  0.39324  1
 O  O3  1  0.43347  0.49399  0.10676  1
 O  O4  1  0.92439  0.97580  0.60147  1
 O  O5  1  0.07561  0.47580  0.89853  1
 O  O6  1  0.18041  0.20426  0.97006  1
 O  O7  1  0.31531  0.25866  0.23461  1
 O  O8  1  0.43347  0.00601  0.60676  1
 O  O9  1  0.42110  0.73204  0.51992  1
 O  O10  1  0.68469  0.74134  0.76539  1
 O  O11  1  0.31531  0.24134  0.73461  1
 O  O12  1  0.74720  0.27707  0.27278  1
 O  O13  1  0.25280  0.77707  0.22722  1
 O  O14  1  0.25280  0.72293  0.72722  1
 O  O15  1  0.74720  0.22293  0.77278  1
 O  O16  1  0.19425  0.02991  0.16072  1
 O  O17  1  0.80575  0.52991  0.33928  1
 O  O18  1  0.80575  0.97009  0.83928  1
 O  O19  1  0.19425  0.47009  0.66072  1
 O  O20  1  0.71763  0.02650  0.17826  1
 O  O21  1  0.28237  0.52650  0.32174  1
 O  O22  1  0.07561  0.02420  0.39853  1
 O  O23  1  0.71763  0.47350  0.67826  1
 O  O24  1  0.28237  0.97350  0.82174  1
 O  O25  1  0.56653  0.50601  0.89324  1
 O  O26  1  0.92439  0.52420  0.10147  1
 O  O27  1  0.81959  0.79574  0.02994  1
 O  O28  1  0.18041  0.29574  0.47006  1
 O  O29  1  0.57890  0.23204  0.98008  1
 O  O30  1  0.68469  0.75866  0.26539  1
 O  O31  1  0.42110  0.76796  0.01992  1
 O  O32  1  0.81959  0.70426  0.52994  1
 Si  Si1  1  0.84357  0.68262  0.38648  1
 Si  Si2  1  0.15643  0.18262  0.11352  1
 Si  Si3  1  0.15643  0.31738  0.61352  1
 Si  Si4  1  0.84357  0.81738  0.88648  1
 Y  Y1  1  0.46849  0.59074  0.69074  1
 Y  Y2  1  0.01910  0.40043  0.28047  1
 Y  Y3  1  0.98090  0.90043  0.21953  1
 Y  Y4  1  0.98090  0.59957  0.71953  1
 Y  Y5  1  0.01910  0.09957  0.78047  1
 Y  Y6  1  0.53151  0.40926  0.30926  1
 Y  Y7  1  0.53151  0.09074  0.80926  1
 Y  Y8  1  0.82471  0.11891  0.42927  1
 Y  Y9  1  0.65508  0.62743  0.08052  1
 Y  Y10  1  0.65508  0.87257  0.58052  1
 Y  Y11  1  0.34492  0.37257  0.91948  1
 Y  Y12  1  0.17529  0.61891  0.07073  1
 Y  Y13  1  0.17529  0.88109  0.57073  1
 Y  Y14  1  0.34492  0.12743  0.41948  1
 Y  Y15  1  0.46849  0.90926  0.19074  1
 Y  Y16  1  0.82471  0.38109  0.92927  1
