CIF file written using JARVIS-Tools package.
data_RbTaP2O8
_symmetry_space_group_name_H-M  'C2/m'
_cell_length_a       5.03466
_cell_length_b       5.03466
_cell_length_c       8.25458
_cell_angle_alpha    86.441
_cell_angle_beta     86.441
_cell_angle_gamma    63.2036

_symmetry_Int_Tables_number  12
_chemical_formula_structural  RbTaP2O8
_chemical_formula_sum  RbTaP2O8
_cell_volume  186.26963650750682
_cell_formula_units_Z  1
loop_
  _symmetry_equiv_pos_site_id
 _symmetry_equiv_pos_as_xyz
 1  'x, y, z'
loop_
 _atom_site_type_symbol
 _atom_site_label
 _atom_site_symmetry_multiplicity
 _atom_site_fract_x
 _atom_site_fract_y
 _atom_site_fract_z
 _atom_site_fract_occupancy
 O  O1  1  0.31915  0.31915  0.12187  1
 O  O2  1  0.77381  0.30045  0.66509  1
 O  O3  1  0.22619  0.69955  0.33491  1
 O  O4  1  0.30045  0.77381  0.66509  1
 O  O5  1  0.69955  0.22619  0.33491  1
 O  O6  1  0.68085  0.68085  0.87813  1
 O  O7  1  0.22078  0.22078  0.42373  1
 O  O8  1  0.77922  0.77922  0.57627  1
 P  P1  1  0.63711  0.63711  0.70746  1
 P  P2  1  0.36289  0.36289  0.29254  1
 Rb  Rb1  1  0.00000  0.00000  0.00000  1
 Ta  Ta1  1  -0.00000  -0.00000  0.50000  1
