CIF file written using JARVIS-Tools package.
data_C3N
_symmetry_space_group_name_H-M  'Cmcm'
_cell_length_a       2.43092
_cell_length_b       2.43092
_cell_length_c       12.834
_cell_angle_alpha    90
_cell_angle_beta     90
_cell_angle_gamma    120.001

_symmetry_Int_Tables_number  63
_chemical_formula_structural  C3N
_chemical_formula_sum  C6N2
_cell_volume  65.67891143015991
_cell_formula_units_Z  2
loop_
  _symmetry_equiv_pos_site_id
 _symmetry_equiv_pos_as_xyz
 1  'x, y, z'
loop_
 _atom_site_type_symbol
 _atom_site_label
 _atom_site_symmetry_multiplicity
 _atom_site_fract_x
 _atom_site_fract_y
 _atom_site_fract_z
 _atom_site_fract_occupancy
 C  C1  1  0.00620  0.99380  0.75000  1
 C  C2  1  0.99380  0.00620  0.25000  1
 C  C3  1  0.66666  0.33334  0.00014  1
 C  C4  1  0.33334  0.66666  0.99986  1
 C  C5  1  0.33334  0.66666  0.50014  1
 C  C6  1  0.66666  0.33334  0.49986  1
 N  N1  1  0.67286  0.32714  0.75000  1
 N  N2  1  0.32714  0.67286  0.25000  1
