CIF file written using JARVIS-Tools package.
data_Li2Co3TeO8
_symmetry_space_group_name_H-M  'R-3m'
_cell_length_a       5.93184
_cell_length_b       5.93184
_cell_length_c       5.93184
_cell_angle_alpha    58.4152
_cell_angle_beta     58.4152
_cell_angle_gamma    58.4152

_symmetry_Int_Tables_number  166
_chemical_formula_structural  Li2Co3TeO8
_chemical_formula_sum  Li2Co3TeO8
_cell_volume  142.23556480010507
_cell_formula_units_Z  1
loop_
  _symmetry_equiv_pos_site_id
 _symmetry_equiv_pos_as_xyz
 1  'x, y, z'
loop_
 _atom_site_type_symbol
 _atom_site_label
 _atom_site_symmetry_multiplicity
 _atom_site_fract_x
 _atom_site_fract_y
 _atom_site_fract_z
 _atom_site_fract_occupancy
 Co  Co1  1  -0.00000  0.50000  0.50000  1
 Co  Co2  1  0.50000  0.00000  0.50000  1
 Co  Co3  1  0.50000  0.50000  0.00000  1
 Li  Li1  1  0.13110  0.13110  0.13110  1
 Li  Li2  1  0.86890  0.86890  0.86890  1
 O  O1  1  0.26848  0.26848  0.26848  1
 O  O2  1  0.25910  0.25910  0.71796  1
 O  O3  1  0.25910  0.71796  0.25910  1
 O  O4  1  0.71796  0.25910  0.25910  1
 O  O5  1  0.28204  0.74090  0.74090  1
 O  O6  1  0.74090  0.28204  0.74090  1
 O  O7  1  0.74090  0.74090  0.28204  1
 O  O8  1  0.73152  0.73152  0.73152  1
 Te  Te1  1  0.50000  0.50000  0.50000  1
