CIF file written using JARVIS-Tools package.
data_Bi2O3
_symmetry_space_group_name_H-M  'P-4b2'
_cell_length_a       5.52759
_cell_length_b       8.23894
_cell_length_c       8.23894
_cell_angle_alpha    90
_cell_angle_beta     90
_cell_angle_gamma    90

_symmetry_Int_Tables_number  117
_chemical_formula_structural  Bi2O3
_chemical_formula_sum  Bi8O2
_cell_volume  375.21388662346806
_cell_formula_units_Z  4
loop_
  _symmetry_equiv_pos_site_id
 _symmetry_equiv_pos_as_xyz
 1  'x, y, z'
loop_
 _atom_site_type_symbol
 _atom_site_label
 _atom_site_symmetry_multiplicity
 _atom_site_fract_x
 _atom_site_fract_y
 _atom_site_fract_z
 _atom_site_fract_occupancy
 Bi  Bi1  1  0.21963  0.25098  0.51499  1
 Bi  Bi2  1  0.78037  0.51499  0.74902  1
 Bi  Bi3  1  0.21963  0.74902  0.48501  1
 Bi  Bi4  1  0.21963  0.75098  0.98501  1
 Bi  Bi5  1  0.21963  0.24902  0.01499  1
 Bi  Bi6  1  0.78037  0.01499  0.75098  1
 Bi  Bi7  1  0.78037  0.98501  0.24902  1
 Bi  Bi8  1  0.78037  0.48501  0.25098  1
 O  O1  1  0.00000  0.25207  0.24793  1
 O  O2  1  0.00000  0.00000  0.50000  1
 O  O3  1  0.00000  0.74793  0.75207  1
 O  O4  1  0.00000  0.50000  0.00000  1
 O  O5  1  0.50000  0.12572  0.62572  1
 O  O6  1  0.50000  0.37428  0.12572  1
 O  O7  1  0.50000  0.00000  0.00000  1
 O  O8  1  0.50000  0.62572  0.87428  1
 O  O9  1  0.50000  0.87428  0.37428  1
 O  O10  1  0.00000  0.75207  0.25207  1
 O  O11  1  0.00000  0.24793  0.74793  1
 O  O12  1  0.50000  0.50000  0.50000  1
