CIF file written using JARVIS-Tools package.
data_Zr6Al16Co7
_symmetry_space_group_name_H-M  'Fm-3m'
_cell_length_a       8.52914
_cell_length_b       8.52914
_cell_length_c       8.52914
_cell_angle_alpha    60
_cell_angle_beta     60
_cell_angle_gamma    60

_symmetry_Int_Tables_number  225
_chemical_formula_structural  Zr6Al16Co7
_chemical_formula_sum  Zr6Al6Co7
_cell_volume  438.7336576376738
_cell_formula_units_Z  1
loop_
  _symmetry_equiv_pos_site_id
 _symmetry_equiv_pos_as_xyz
 1  'x, y, z'
loop_
 _atom_site_type_symbol
 _atom_site_label
 _atom_site_symmetry_multiplicity
 _atom_site_fract_x
 _atom_site_fract_y
 _atom_site_fract_z
 _atom_site_fract_occupancy
 Al  Al1  1  0.64491  0.11836  0.11836  1
 Al  Al2  1  0.88164  0.35509  0.88164  1
 Al  Al3  1  0.66478  0.66478  0.00566  1
 Al  Al4  1  0.33522  0.33522  0.99434  1
 Al  Al5  1  0.88164  0.88164  0.88164  1
 Al  Al6  1  0.33522  0.99434  0.33522  1
 Al  Al7  1  0.11836  0.11836  0.64491  1
 Al  Al8  1  0.11836  0.11836  0.11836  1
 Al  Al9  1  0.33522  0.33522  0.33522  1
 Al  Al10  1  0.88164  0.88164  0.35509  1
 Al  Al11  1  0.11836  0.64491  0.11836  1
 Al  Al12  1  0.66478  0.66478  0.66478  1
 Al  Al13  1  0.66478  0.00566  0.66478  1
 Al  Al14  1  0.00566  0.66478  0.66478  1
 Al  Al15  1  0.99434  0.33522  0.33522  1
 Al  Al16  1  0.35509  0.88164  0.88164  1
 Co  Co1  1  0.00000  0.00000  0.50000  1
 Co  Co2  1  0.00000  0.00000  0.00000  1
 Co  Co3  1  0.50000  0.00000  -0.00000  1
 Co  Co4  1  0.00000  0.50000  -0.00000  1
 Co  Co5  1  0.50000  0.00000  0.50000  1
 Co  Co6  1  0.00000  0.50000  0.50000  1
 Co  Co7  1  0.50000  0.50000  -0.00000  1
 Zr  Zr1  1  0.30632  0.69368  0.30632  1
 Zr  Zr2  1  0.69368  0.69368  0.30632  1
 Zr  Zr3  1  0.30632  0.30632  0.69368  1
 Zr  Zr4  1  0.30632  0.69368  0.69368  1
 Zr  Zr5  1  0.69368  0.30632  0.30632  1
 Zr  Zr6  1  0.69368  0.30632  0.69368  1
