CIF file written using JARVIS-Tools package.
data_LiBeH8CNOF4
_symmetry_space_group_name_H-M  'P2_1/c'
_cell_length_a       4.74551
_cell_length_b       9.95678
_cell_length_c       12.2283
_cell_angle_alpha    98.6613
_cell_angle_beta     90
_cell_angle_gamma    90

_symmetry_Int_Tables_number  14
_chemical_formula_structural  LiBeH8CNOF4
_chemical_formula_sum  Li4Be4H32C4N4O4F6
_cell_volume  571.2001512089925
_cell_formula_units_Z  4
loop_
  _symmetry_equiv_pos_site_id
 _symmetry_equiv_pos_as_xyz
 1  'x, y, z'
loop_
 _atom_site_type_symbol
 _atom_site_label
 _atom_site_symmetry_multiplicity
 _atom_site_fract_x
 _atom_site_fract_y
 _atom_site_fract_z
 _atom_site_fract_occupancy
 Be  Be1  1  0.82653  0.88339  0.36937  1
 Be  Be2  1  0.32653  0.61661  0.63063  1
 Be  Be3  1  0.17347  0.11661  0.63063  1
 Be  Be4  1  0.67347  0.38339  0.36937  1
 C  C1  1  0.23454  0.01635  0.15469  1
 C  C2  1  0.76546  0.98365  0.84531  1
 C  C3  1  0.26546  0.51635  0.15469  1
 C  C4  1  0.73454  0.48365  0.84531  1
 F  F1  1  0.78579  0.52798  0.36702  1
 F  F2  1  0.20839  0.67572  0.52665  1
 F  F3  1  0.21421  0.47202  0.63298  1
 F  F4  1  0.70839  0.82428  0.47335  1
 F  F5  1  0.15538  0.88814  0.37838  1
 F  F6  1  0.84462  0.11186  0.62162  1
 F  F7  1  0.75153  0.28030  0.26296  1
 F  F8  1  0.71421  0.02798  0.36702  1
 F  F9  1  0.34462  0.38814  0.37838  1
 F  F10  1  0.79161  0.32428  0.47335  1
 F  F11  1  0.24847  0.71970  0.73704  1
 F  F12  1  0.29161  0.17572  0.52665  1
 F  F13  1  0.74847  0.78030  0.26296  1
 F  F14  1  0.25153  0.21970  0.73704  1
 F  F15  1  0.28579  0.97202  0.63298  1
 F  F16  1  0.65538  0.61186  0.62162  1
 H  H1  1  0.46459  0.46060  0.14778  1
 H  H2  1  0.08664  0.75939  0.98802  1
 H  H3  1  0.75714  0.42650  0.91435  1
 H  H4  1  0.26255  0.75192  0.87682  1
 H  H5  1  0.73291  0.44386  0.67375  1
 H  H6  1  0.56101  0.32417  0.73163  1
 H  H7  1  0.58880  0.05380  0.84420  1
 H  H8  1  0.08355  0.67061  0.26854  1
 H  H9  1  0.23291  0.05614  0.32625  1
 H  H10  1  0.23745  0.25192  0.87682  1
 H  H11  1  0.96459  0.03940  0.85222  1
 H  H12  1  0.58664  0.74061  0.01198  1
 H  H13  1  0.08880  0.44620  0.15580  1
 H  H14  1  0.91336  0.24061  0.01198  1
 H  H15  1  0.53541  0.53940  0.85222  1
 H  H16  1  0.24286  0.57350  0.08565  1
 H  H17  1  0.06101  0.17583  0.26837  1
 H  H18  1  0.41336  0.25939  0.98802  1
 H  H19  1  0.91645  0.32939  0.73146  1
 H  H20  1  0.93899  0.82417  0.73163  1
 H  H21  1  0.76255  0.74808  0.12318  1
 H  H22  1  0.41645  0.17061  0.26854  1
 H  H23  1  0.91120  0.55380  0.84420  1
 H  H24  1  0.76709  0.94386  0.67375  1
 H  H25  1  0.73745  0.24808  0.12318  1
 H  H26  1  0.26709  0.55614  0.32625  1
 H  H27  1  0.43899  0.67583  0.26837  1
 H  H28  1  0.25714  0.07350  0.08565  1
 H  H29  1  0.03541  0.96060  0.14778  1
 H  H30  1  0.74286  0.92650  0.91435  1
 H  H31  1  0.58355  0.82939  0.73146  1
 H  H32  1  0.41120  0.94620  0.15580  1
 Li  Li1  1  0.82552  0.64970  0.49478  1
 Li  Li2  1  0.32552  0.85030  0.50522  1
 Li  Li3  1  0.17448  0.35030  0.50522  1
 Li  Li4  1  0.67448  0.14970  0.49478  1
 N  N1  1  0.26436  0.61210  0.26141  1
 N  N2  1  0.73564  0.38790  0.73859  1
 N  N3  1  0.23564  0.11210  0.26141  1
 N  N4  1  0.76436  0.88790  0.73859  1
 O  O1  1  0.22577  0.28025  0.95742  1
 O  O2  1  0.27423  0.78025  0.95742  1
 O  O3  1  0.77423  0.71975  0.04258  1
 O  O4  1  0.72577  0.21975  0.04258  1
