CIF file written using JARVIS-Tools package.
data_PrHgPd
_symmetry_space_group_name_H-M  'P-62m'
_cell_length_a       3.9578
_cell_length_b       7.84756
_cell_length_c       7.84774
_cell_angle_alpha    119.999
_cell_angle_beta     90
_cell_angle_gamma    90

_symmetry_Int_Tables_number  189
_chemical_formula_structural  PrHgPd
_chemical_formula_sum  Pr3Hg3Pd3
_cell_volume  211.0896623384789
_cell_formula_units_Z  3
loop_
  _symmetry_equiv_pos_site_id
 _symmetry_equiv_pos_as_xyz
 1  'x, y, z'
loop_
 _atom_site_type_symbol
 _atom_site_label
 _atom_site_symmetry_multiplicity
 _atom_site_fract_x
 _atom_site_fract_y
 _atom_site_fract_z
 _atom_site_fract_occupancy
 Hg  Hg1  1  0.00000  0.26452  -0.00000  1
 Hg  Hg2  1  0.00000  0.73545  0.73546  1
 Hg  Hg3  1  0.00000  -0.00001  0.26454  1
 Pd  Pd1  1  0.00000  0.33332  0.66667  1
 Pd  Pd2  1  0.00000  0.66666  0.33333  1
 Pd  Pd3  1  0.50000  0.99999  0.00000  1
 Pr  Pr1  1  0.50000  0.60150  0.00000  1
 Pr  Pr2  1  0.50000  0.39848  0.39848  1
 Pr  Pr3  1  0.50000  0.99999  0.60152  1
