CIF file written using JARVIS-Tools package.
data_BeCrP
_symmetry_space_group_name_H-M  'I4mm'
_cell_length_a       4.20267
_cell_length_b       4.20267
_cell_length_c       4.20267
_cell_angle_alpha    139.305
_cell_angle_beta     139.305
_cell_angle_gamma    58.9095

_symmetry_Int_Tables_number  107
_chemical_formula_structural  BeCrP
_chemical_formula_sum  BeCrP
_cell_volume  31.258096825030897
_cell_formula_units_Z  1
loop_
  _symmetry_equiv_pos_site_id
 _symmetry_equiv_pos_as_xyz
 1  'x, y, z'
loop_
 _atom_site_type_symbol
 _atom_site_label
 _atom_site_symmetry_multiplicity
 _atom_site_fract_x
 _atom_site_fract_y
 _atom_site_fract_z
 _atom_site_fract_occupancy
 Be  Be1  1  0.00202  0.00202  0.00000  1
 Cr  Cr1  1  0.33030  0.33030  -0.00000  1
 P  P1  1  0.66768  0.66768  -0.00000  1
