CIF file written using JARVIS-Tools package.
data_RbVPO5
_symmetry_space_group_name_H-M  'P2_12_12_1'
_cell_length_a       7.58615
_cell_length_b       7.84084
_cell_length_c       8.40317
_cell_angle_alpha    90
_cell_angle_beta     90
_cell_angle_gamma    90

_symmetry_Int_Tables_number  19
_chemical_formula_structural  RbVPO5
_chemical_formula_sum  Rb4V4P4O20
_cell_volume  499.8354268701467
_cell_formula_units_Z  4
loop_
  _symmetry_equiv_pos_site_id
 _symmetry_equiv_pos_as_xyz
 1  'x, y, z'
loop_
 _atom_site_type_symbol
 _atom_site_label
 _atom_site_symmetry_multiplicity
 _atom_site_fract_x
 _atom_site_fract_y
 _atom_site_fract_z
 _atom_site_fract_occupancy
 O  O1  1  0.06260  0.85623  0.31674  1
 O  O2  1  0.77178  0.17883  0.42453  1
 O  O3  1  0.22822  0.32117  0.92453  1
 O  O4  1  0.17879  0.92987  0.73318  1
 O  O5  1  0.72822  0.67883  0.57547  1
 O  O6  1  0.56260  0.14377  0.18326  1
 O  O7  1  0.93740  0.64377  0.81674  1
 O  O8  1  0.43740  0.35623  0.68326  1
 O  O9  1  0.68720  0.88524  0.31155  1
 O  O10  1  0.47888  0.07911  0.47426  1
 O  O11  1  0.02112  0.57911  0.52574  1
 O  O12  1  0.27178  0.82117  0.07547  1
 O  O13  1  0.52112  0.42089  0.97426  1
 O  O14  1  0.18720  0.11476  0.18845  1
 O  O15  1  0.31280  0.61476  0.81155  1
 O  O16  1  0.81280  0.38524  0.68845  1
 O  O17  1  0.32121  0.42987  0.26682  1
 O  O18  1  0.67879  0.07013  0.76682  1
 O  O19  1  0.82121  0.57013  0.23318  1
 O  O20  1  0.97888  0.92089  0.02574  1
 P  P1  1  0.12498  0.93196  0.15636  1
 P  P2  1  0.87502  0.56804  0.65636  1
 P  P3  1  0.37502  0.43196  0.84364  1
 P  P4  1  0.62498  0.06804  0.34364  1
 Rb  Rb1  1  0.62902  0.79151  0.98098  1
 Rb  Rb2  1  0.87098  0.29151  0.01902  1
 Rb  Rb3  1  0.12902  0.20849  0.51902  1
 Rb  Rb4  1  0.37098  0.70849  0.48098  1
 V  V1  1  0.36300  0.29213  0.12774  1
 V  V2  1  0.86300  0.70787  0.37226  1
 V  V3  1  0.63700  0.20787  0.62774  1
 V  V4  1  0.13700  0.79213  0.87226  1
