CIF file written using JARVIS-Tools package.
data_Pd3N
_symmetry_space_group_name_H-M  'P6_322'
_cell_length_a       4.78324
_cell_length_b       5.11499
_cell_length_c       5.11498
_cell_angle_alpha    120
_cell_angle_beta     89.9965
_cell_angle_gamma    90

_symmetry_Int_Tables_number  182
_chemical_formula_structural  Pd3N
_chemical_formula_sum  Pd6N2
_cell_volume  108.37811006250121
_cell_formula_units_Z  2
loop_
  _symmetry_equiv_pos_site_id
 _symmetry_equiv_pos_as_xyz
 1  'x, y, z'
loop_
 _atom_site_type_symbol
 _atom_site_label
 _atom_site_symmetry_multiplicity
 _atom_site_fract_x
 _atom_site_fract_y
 _atom_site_fract_z
 _atom_site_fract_occupancy
 N  N1  1  0.75000  0.66671  0.33335  1
 N  N2  1  0.25000  0.33336  0.66665  1
 Pd  Pd1  1  0.50000  0.66909  -0.00000  1
 Pd  Pd2  1  0.50001  0.33091  0.33091  1
 Pd  Pd3  1  0.49999  0.00001  0.66909  1
 Pd  Pd4  1  0.00000  0.33091  0.00000  1
 Pd  Pd5  1  0.99999  0.66910  0.66908  1
 Pd  Pd6  1  0.00001  0.00001  0.33092  1
