CIF file written using JARVIS-Tools package.
data_MnOF
_symmetry_space_group_name_H-M  'P1'
_cell_length_a       4.50854
_cell_length_b       7.56185
_cell_length_c       7.61232
_cell_angle_alpha    95.2332
_cell_angle_beta     90.1937
_cell_angle_gamma    90.0426

_symmetry_Int_Tables_number  1
_chemical_formula_structural  MnOF
_chemical_formula_sum  Mn8O8F8
_cell_volume  258.44241677358184
_cell_formula_units_Z  8
loop_
  _symmetry_equiv_pos_site_id
 _symmetry_equiv_pos_as_xyz
 1  'x, y, z'
loop_
 _atom_site_type_symbol
 _atom_site_label
 _atom_site_symmetry_multiplicity
 _atom_site_fract_x
 _atom_site_fract_y
 _atom_site_fract_z
 _atom_site_fract_occupancy
 F  F1  1  0.75538  0.33145  0.21760  1
 F  F2  1  0.76241  0.83679  0.71724  1
 F  F3  1  0.78251  0.47685  0.58135  1
 F  F4  1  0.74350  0.11905  0.49888  1
 F  F5  1  0.24032  0.76979  0.15342  1
 F  F6  1  0.25668  0.41382  0.03744  1
 F  F7  1  0.26637  0.28637  0.66517  1
 F  F8  1  0.73475  0.96271  0.09589  1
 Mn  Mn1  1  0.48839  0.95197  0.31566  1
 Mn  Mn2  1  0.00382  0.78237  0.93607  1
 Mn  Mn3  1  0.03906  0.70316  0.53509  1
 Mn  Mn4  1  0.04410  0.30073  0.43170  1
 Mn  Mn5  1  -0.00021  0.18478  0.03708  1
 Mn  Mn6  1  0.52563  0.56343  0.21157  1
 Mn  Mn7  1  0.51822  0.46132  0.81109  1
 Mn  Mn8  1  0.48355  0.05100  0.71902  1
 O  O1  1  0.73325  0.74358  0.35472  1
 O  O2  1  0.71321  0.23173  0.85750  1
 O  O3  1  0.24516  0.51882  0.39299  1
 O  O4  1  0.23120  0.64682  0.76016  1
 O  O5  1  0.22461  0.14179  0.25789  1
 O  O6  1  0.20492  0.00403  0.89772  1
 O  O7  1  0.72875  0.60250  0.98784  1
 O  O8  1  0.27444  0.91517  0.52689  1
