CIF file written using JARVIS-Tools package.
data_SrCuO2
_symmetry_space_group_name_H-M  'Cmcm'
_cell_length_a       3.59488
_cell_length_b       3.9616
_cell_length_c       8.34602
_cell_angle_alpha    90
_cell_angle_beta     102.437
_cell_angle_gamma    90

_symmetry_Int_Tables_number  63
_chemical_formula_structural  SrCuO2
_chemical_formula_sum  Sr2Cu2O4
_cell_volume  116.07043829502342
_cell_formula_units_Z  2
loop_
  _symmetry_equiv_pos_site_id
 _symmetry_equiv_pos_as_xyz
 1  'x, y, z'
loop_
 _atom_site_type_symbol
 _atom_site_label
 _atom_site_symmetry_multiplicity
 _atom_site_fract_x
 _atom_site_fract_y
 _atom_site_fract_z
 _atom_site_fract_occupancy
 Cu  Cu1  1  0.93786  0.25000  0.87572  1
 Cu  Cu2  1  0.06214  0.75000  0.12428  1
 O  O1  1  0.17966  0.75000  0.35931  1
 O  O2  1  0.82034  0.25000  0.64069  1
 O  O3  1  0.05502  0.25000  0.11004  1
 O  O4  1  0.94498  0.75000  0.88996  1
 Sr  Sr1  1  0.33222  0.75000  0.66445  1
 Sr  Sr2  1  0.66778  0.25000  0.33555  1
