CIF file written using JARVIS-Tools package.
data_CuAgF3
_symmetry_space_group_name_H-M  'R-3c'
_cell_length_a       5.57928
_cell_length_b       5.57927
_cell_length_c       5.57927
_cell_angle_alpha    60.6922
_cell_angle_beta     60.6923
_cell_angle_gamma    60.6922

_symmetry_Int_Tables_number  167
_chemical_formula_structural  CuAgF3
_chemical_formula_sum  Cu2Ag2F6
_cell_volume  124.72434548421552
_cell_formula_units_Z  2
loop_
  _symmetry_equiv_pos_site_id
 _symmetry_equiv_pos_as_xyz
 1  'x, y, z'
loop_
 _atom_site_type_symbol
 _atom_site_label
 _atom_site_symmetry_multiplicity
 _atom_site_fract_x
 _atom_site_fract_y
 _atom_site_fract_z
 _atom_site_fract_occupancy
 Ag  Ag1  1  0.25569  0.25569  0.25569  1
 Ag  Ag2  1  0.75569  0.75569  0.75569  1
 Cu  Cu1  1  0.00570  0.00570  0.00570  1
 Cu  Cu2  1  0.50570  0.50570  0.50570  1
 F  F1  1  0.25572  0.82841  0.68299  1
 F  F2  1  0.82841  0.68299  0.25572  1
 F  F3  1  0.68299  0.25572  0.82841  1
 F  F4  1  0.18299  0.32841  0.75572  1
 F  F5  1  0.75572  0.18299  0.32841  1
 F  F6  1  0.32841  0.75572  0.18299  1
