CIF file written using JARVIS-Tools package.
data_H2SeNO4
_symmetry_space_group_name_H-M  'C2'
_cell_length_a       10.6027
_cell_length_b       4.08131
_cell_length_c       10.6027
_cell_angle_alpha    77.5122
_cell_angle_beta     137.254
_cell_angle_gamma    102.488

_symmetry_Int_Tables_number  5
_chemical_formula_structural  H2SeNO4
_chemical_formula_sum  H6Se3N3O2
_cell_volume  302.90974052846684
_cell_formula_units_Z  3
loop_
  _symmetry_equiv_pos_site_id
 _symmetry_equiv_pos_as_xyz
 1  'x, y, z'
loop_
 _atom_site_type_symbol
 _atom_site_label
 _atom_site_symmetry_multiplicity
 _atom_site_fract_x
 _atom_site_fract_y
 _atom_site_fract_z
 _atom_site_fract_occupancy
 H  H1  1  0.03529  0.62602  0.22786  1
 H  H2  1  0.22786  0.37398  0.03529  1
 H  H3  1  0.54432  0.43534  -0.09392  1
 H  H4  1  -0.09392  0.56466  0.54432  1
 H  H5  1  0.22679  0.64127  -0.20714  1
 H  H6  1  -0.20714  0.35873  0.22679  1
 N  N1  1  0.75144  0.00000  0.75144  1
 N  N2  1  0.09848  0.73506  0.70542  1
 N  N3  1  0.70542  0.26494  0.09848  1
 O  O1  1  0.64502  0.12474  0.73423  1
 O  O2  1  0.10190  0.52662  0.43135  1
 O  O3  1  0.00899  0.73634  0.11557  1
 O  O4  1  0.11557  0.26366  0.00899  1
 O  O5  1  0.27572  0.19115  0.37459  1
 O  O6  1  0.37459  0.80885  0.27572  1
 O  O7  1  0.41831  0.54038  0.77802  1
 O  O8  1  0.77802  0.45962  0.41831  1
 O  O9  1  0.10558  0.05881  0.65301  1
 O  O10  1  0.65301  -0.05881  0.10558  1
 O  O11  1  0.73423  0.87526  0.64502  1
 O  O12  1  0.43135  0.47338  0.10190  1
 Se  Se1  1  0.26138  0.26074  0.60058  1
 Se  Se2  1  0.21301  0.00000  0.21301  1
 Se  Se3  1  0.60058  0.73926  0.26138  1
