CIF file written using JARVIS-Tools package.
data_Ti4CdCu3O12
_symmetry_space_group_name_H-M  'Im-3'
_cell_length_a       6.44907
_cell_length_b       6.44907
_cell_length_c       6.44907
_cell_angle_alpha    109.471
_cell_angle_beta     109.471
_cell_angle_gamma    109.471

_symmetry_Int_Tables_number  204
_chemical_formula_structural  Ti4CdCu3O12
_chemical_formula_sum  Ti4CdCu3O2
_cell_volume  206.47556883348076
_cell_formula_units_Z  1
loop_
  _symmetry_equiv_pos_site_id
 _symmetry_equiv_pos_as_xyz
 1  'x, y, z'
loop_
 _atom_site_type_symbol
 _atom_site_label
 _atom_site_symmetry_multiplicity
 _atom_site_fract_x
 _atom_site_fract_y
 _atom_site_fract_z
 _atom_site_fract_occupancy
 Cd  Cd1  1  0.00000  0.00000  0.00000  1
 Cu  Cu1  1  -0.00000  0.50000  0.50000  1
 Cu  Cu2  1  0.50000  0.50000  0.00000  1
 Cu  Cu3  1  0.50000  0.00000  0.50000  1
 O  O1  1  0.17788  0.30492  0.48280  1
 O  O2  1  0.48280  0.17788  0.30492  1
 O  O3  1  0.12704  0.82212  0.30492  1
 O  O4  1  0.30492  0.12704  0.82212  1
 O  O5  1  0.82212  0.69508  0.51720  1
 O  O6  1  0.17788  0.69508  0.87296  1
 O  O7  1  0.82212  0.30492  0.12704  1
 O  O8  1  0.51720  0.82212  0.69508  1
 O  O9  1  0.30492  0.48280  0.17788  1
 O  O10  1  0.69508  0.87296  0.17788  1
 O  O11  1  0.87296  0.17788  0.69508  1
 O  O12  1  0.69508  0.51720  0.82212  1
 Ti  Ti1  1  0.50000  0.00000  -0.00000  1
 Ti  Ti2  1  0.00000  0.00000  0.50000  1
 Ti  Ti3  1  -0.00000  0.50000  0.00000  1
 Ti  Ti4  1  0.50000  0.50000  0.50000  1
