CIF file written using JARVIS-Tools package.
data_Ba3B2N4
_symmetry_space_group_name_H-M  'P2_12_12_1'
_cell_length_a       4.26209
_cell_length_b       11.1047
_cell_length_c       14.8328
_cell_angle_alpha    90
_cell_angle_beta     90
_cell_angle_gamma    90

_symmetry_Int_Tables_number  19
_chemical_formula_structural  Ba3B2N4
_chemical_formula_sum  Ba2B8N6
_cell_volume  702.0233578115583
_cell_formula_units_Z  4
loop_
  _symmetry_equiv_pos_site_id
 _symmetry_equiv_pos_as_xyz
 1  'x, y, z'
loop_
 _atom_site_type_symbol
 _atom_site_label
 _atom_site_symmetry_multiplicity
 _atom_site_fract_x
 _atom_site_fract_y
 _atom_site_fract_z
 _atom_site_fract_occupancy
 B  B1  1  0.73285  0.64136  0.26147  1
 B  B2  1  0.26715  0.14136  0.23853  1
 B  B3  1  0.76715  0.35864  0.76147  1
 B  B4  1  0.23285  0.85864  0.73853  1
 B  B5  1  0.40397  -0.00011  0.97904  1
 B  B6  1  0.90397  0.50011  0.02096  1
 B  B7  1  0.09603  0.00011  0.47904  1
 B  B8  1  0.59603  0.49989  0.52096  1
 Ba  Ba1  1  0.40329  0.18800  0.61389  1
 Ba  Ba2  1  0.84863  0.03786  0.82934  1
 Ba  Ba3  1  0.90329  0.31200  0.38611  1
 Ba  Ba4  1  0.15137  0.53786  0.67066  1
 Ba  Ba5  1  0.65137  0.96214  0.32934  1
 Ba  Ba6  1  0.72695  0.84507  0.59280  1
 Ba  Ba7  1  0.22695  0.65493  0.40720  1
 Ba  Ba8  1  0.27305  0.34507  0.90720  1
 Ba  Ba9  1  0.77305  0.15493  0.09280  1
 Ba  Ba10  1  0.59671  0.68800  0.88611  1
 Ba  Ba11  1  0.09671  0.81200  0.11389  1
 Ba  Ba12  1  0.34863  0.46214  0.17066  1
 N  N1  1  0.07020  0.60014  0.00467  1
 N  N2  1  0.57020  0.89986  0.99533  1
 N  N3  1  0.78447  0.38915  0.03676  1
 N  N4  1  0.15118  0.03302  0.21527  1
 N  N5  1  0.71553  0.61085  0.53676  1
 N  N6  1  0.21553  0.88915  0.46324  1
 N  N7  1  0.58986  0.74574  0.24164  1
 N  N8  1  0.92980  0.10014  0.49533  1
 N  N9  1  0.41014  0.24574  0.25836  1
 N  N10  1  0.65118  0.46698  0.78473  1
 N  N11  1  0.84882  0.53302  0.28473  1
 N  N12  1  0.34882  0.96698  0.71527  1
 N  N13  1  0.42980  0.39986  0.50467  1
 N  N14  1  0.91014  0.25426  0.74164  1
 N  N15  1  0.08986  0.75426  0.75836  1
 N  N16  1  0.28447  0.11085  0.96324  1
