CIF file written using JARVIS-Tools package.
data_Sr2Sc2B4O11
_symmetry_space_group_name_H-M  'P-1'
_cell_length_a       5.11431
_cell_length_b       6.32331
_cell_length_c       7.2904
_cell_angle_alpha    77.6457
_cell_angle_beta     89.4725
_cell_angle_gamma    75.1764

_symmetry_Int_Tables_number  2
_chemical_formula_structural  Sr2Sc2B4O11
_chemical_formula_sum  Sr2Sc2B4O
_cell_volume  222.38354545789824
_cell_formula_units_Z  1
loop_
  _symmetry_equiv_pos_site_id
 _symmetry_equiv_pos_as_xyz
 1  'x, y, z'
loop_
 _atom_site_type_symbol
 _atom_site_label
 _atom_site_symmetry_multiplicity
 _atom_site_fract_x
 _atom_site_fract_y
 _atom_site_fract_z
 _atom_site_fract_occupancy
 B  B1  1  0.27794  0.77957  0.60806  1
 B  B2  1  0.64797  0.34310  0.89887  1
 B  B3  1  0.35203  0.65690  0.10113  1
 B  B4  1  0.72206  0.22043  0.39194  1
 O  O1  1  0.17548  0.94686  0.70609  1
 O  O2  1  0.11019  0.64424  0.57950  1
 O  O3  1  0.82452  0.05314  0.29391  1
 O  O4  1  0.46161  0.25646  0.44445  1
 O  O5  1  0.53839  0.74354  0.55555  1
 O  O6  1  0.08931  0.65810  0.13279  1
 O  O7  1  0.48971  0.79620  0.15119  1
 O  O8  1  0.51029  0.20380  0.84881  1
 O  O9  1  0.50000  0.50000  -0.00000  1
 O  O10  1  0.91069  0.34190  0.86721  1
 O  O11  1  0.88981  0.35576  0.42050  1
 Sc  Sc1  1  0.18641  0.28179  0.64778  1
 Sc  Sc2  1  0.81359  0.71821  0.35222  1
 Sr  Sr1  1  0.22509  0.19424  0.16376  1
 Sr  Sr2  1  0.77491  0.80576  0.83624  1
