CIF file written using JARVIS-Tools package.
data_H8PtO6
_symmetry_space_group_name_H-M  'P1'
_cell_length_a       5.54453
_cell_length_b       5.54139
_cell_length_c       7.32987
_cell_angle_alpha    87.8138
_cell_angle_beta     92.8339
_cell_angle_gamma    97.8345

_symmetry_Int_Tables_number  1
_chemical_formula_structural  H8PtO6
_chemical_formula_sum  H6Pt2O2
_cell_volume  222.7192264131596
_cell_formula_units_Z  2
loop_
  _symmetry_equiv_pos_site_id
 _symmetry_equiv_pos_as_xyz
 1  'x, y, z'
loop_
 _atom_site_type_symbol
 _atom_site_label
 _atom_site_symmetry_multiplicity
 _atom_site_fract_x
 _atom_site_fract_y
 _atom_site_fract_z
 _atom_site_fract_occupancy
 H  H1  1  0.02884  0.02571  0.52579  1
 H  H2  1  0.38113  0.78254  0.41293  1
 H  H3  1  0.06357  0.05138  -0.02066  1
 H  H4  1  0.87094  0.83201  0.29741  1
 H  H5  1  0.83931  0.74808  0.00155  1
 H  H6  1  0.53551  0.47347  0.50214  1
 H  H7  1  0.45972  0.54735  0.00718  1
 H  H8  1  0.58397  0.22643  0.38904  1
 H  H9  1  0.15781  0.15685  0.72763  1
 H  H10  1  0.12104  0.59147  0.83044  1
 H  H11  1  0.49305  0.83214  0.67387  1
 H  H12  1  0.60834  0.11668  0.66466  1
 H  H13  1  0.17414  0.52780  0.16021  1
 H  H14  1  0.89510  0.37617  0.15263  1
 H  H15  1  0.27569  0.12193  0.25695  1
 H  H16  1  0.77753  0.40015  0.89727  1
 O  O1  1  0.05563  0.40501  0.23596  1
 O  O2  1  0.13740  0.17807  0.58161  1
 O  O3  1  0.88638  0.81539  0.43479  1
 O  O4  1  0.83341  0.88573  0.08062  1
 O  O5  1  0.20701  0.14690  0.91931  1
 O  O6  1  0.33439  0.66135  0.01144  1
 O  O7  1  0.96072  0.57399  0.76026  1
 O  O8  1  0.68447  0.35498  0.01180  1
 O  O9  1  0.60258  -0.03593  0.74340  1
 O  O10  1  0.65112  0.33830  0.49781  1
 O  O11  1  0.35968  0.65601  0.51486  1
 O  O12  1  0.42751  0.04622  0.26654  1
 Pt  Pt1  1  0.51077  0.00723  0.00585  1
 Pt  Pt2  1  0.00965  0.49936  0.50245  1
