CIF file written using JARVIS-Tools package.
data_VO2
_symmetry_space_group_name_H-M  'P-1'
_cell_length_a       4.92803
_cell_length_b       4.94592
_cell_length_c       7.48851
_cell_angle_alpha    92.5911
_cell_angle_beta     76.0903
_cell_angle_gamma    59.9396

_symmetry_Int_Tables_number  2
_chemical_formula_structural  VO2
_chemical_formula_sum  V4O8
_cell_volume  150.33096716919007
_cell_formula_units_Z  4
loop_
  _symmetry_equiv_pos_site_id
 _symmetry_equiv_pos_as_xyz
 1  'x, y, z'
loop_
 _atom_site_type_symbol
 _atom_site_label
 _atom_site_symmetry_multiplicity
 _atom_site_fract_x
 _atom_site_fract_y
 _atom_site_fract_z
 _atom_site_fract_occupancy
 O  O1  1  0.82615  0.83938  0.52559  1
 O  O2  1  0.17385  0.16062  0.47441  1
 O  O3  1  0.28502  0.94047  0.83006  1
 O  O4  1  0.71498  0.05953  0.16994  1
 O  O5  1  0.58763  0.31050  0.84710  1
 O  O6  1  0.41237  0.68950  0.15290  1
 O  O7  1  0.94797  0.58980  0.84892  1
 O  O8  1  0.05203  0.41020  0.15108  1
 V  V1  1  0.13791  0.72404  0.00070  1
 V  V2  1  0.86209  0.27596  -0.00070  1
 V  V3  1  0.31932  0.08299  0.24952  1
 V  V4  1  0.68068  0.91701  0.75048  1
