CIF file written using JARVIS-Tools package.
data_Na2CN2
_symmetry_space_group_name_H-M  'C2/m'
_cell_length_a       3.53063
_cell_length_b       3.53063
_cell_length_c       5.49536
_cell_angle_alpha    76.5264
_cell_angle_beta     76.5264
_cell_angle_gamma    89.3256

_symmetry_Int_Tables_number  12
_chemical_formula_structural  Na2CN2
_chemical_formula_sum  Na2CN2
_cell_volume  64.71736856841498
_cell_formula_units_Z  1
loop_
  _symmetry_equiv_pos_site_id
 _symmetry_equiv_pos_as_xyz
 1  'x, y, z'
loop_
 _atom_site_type_symbol
 _atom_site_label
 _atom_site_symmetry_multiplicity
 _atom_site_fract_x
 _atom_site_fract_y
 _atom_site_fract_z
 _atom_site_fract_occupancy
 C  C1  1  0.00000  0.00000  0.00000  1
 N  N1  1  0.16078  0.16078  0.77386  1
 N  N2  1  0.83922  0.83922  0.22614  1
 Na  Na1  1  0.32288  0.32288  0.30914  1
 Na  Na2  1  0.67712  0.67712  0.69086  1
