CIF file written using JARVIS-Tools package.
data_Li3GaB2O6
_symmetry_space_group_name_H-M  'P-1'
_cell_length_a       4.9614
_cell_length_b       6.20052
_cell_length_c       7.90516
_cell_angle_alpha    75.1499
_cell_angle_beta     89.3448
_cell_angle_gamma    89.696

_symmetry_Int_Tables_number  2
_chemical_formula_structural  Li3GaB2O6
_chemical_formula_sum  Li6Ga2B4O2
_cell_volume  235.0499557902354
_cell_formula_units_Z  2
loop_
  _symmetry_equiv_pos_site_id
 _symmetry_equiv_pos_as_xyz
 1  'x, y, z'
loop_
 _atom_site_type_symbol
 _atom_site_label
 _atom_site_symmetry_multiplicity
 _atom_site_fract_x
 _atom_site_fract_y
 _atom_site_fract_z
 _atom_site_fract_occupancy
 B  B1  1  0.83722  0.82502  0.41227  1
 B  B2  1  0.16278  0.17498  0.58773  1
 B  B3  1  0.33955  0.32717  0.92830  1
 B  B4  1  0.66045  0.67283  0.07170  1
 Ga  Ga1  1  0.35176  0.95048  0.23170  1
 Ga  Ga2  1  0.64824  0.04952  0.76830  1
 Li  Li1  1  0.67663  0.40064  0.42593  1
 Li  Li2  1  0.83307  0.24149  0.10930  1
 Li  Li3  1  0.82522  0.53191  0.76013  1
 Li  Li4  1  0.17478  0.46809  0.23987  1
 Li  Li5  1  0.32337  0.59936  0.57407  1
 Li  Li6  1  0.16693  0.75851  0.89070  1
 O  O1  1  0.38959  0.73138  0.10049  1
 O  O2  1  0.20594  0.48936  0.81433  1
 O  O3  1  0.79406  0.51064  0.18567  1
 O  O4  1  0.69884  0.66991  0.53278  1
 O  O5  1  0.30116  0.33009  0.46722  1
 O  O6  1  0.88012  0.17597  0.58874  1
 O  O7  1  0.21962  0.21821  0.08998  1
 O  O8  1  0.78038  0.78179  0.91002  1
 O  O9  1  0.28930  0.01367  0.72084  1
 O  O10  1  0.61041  0.26862  0.89951  1
 O  O11  1  0.11988  0.82403  0.41126  1
 O  O12  1  0.71070  -0.01367  0.27916  1
