CIF file written using JARVIS-Tools package.
data_MnH4C2O6
_symmetry_space_group_name_H-M  'C2/c'
_cell_length_a       5.70491
_cell_length_b       6.3474
_cell_length_c       8.26853
_cell_angle_alpha    79.3799
_cell_angle_beta     69.8198
_cell_angle_gamma    63.2924

_symmetry_Int_Tables_number  15
_chemical_formula_structural  MnH4C2O6
_chemical_formula_sum  Mn2H8C4O2
_cell_volume  250.89875180913282
_cell_formula_units_Z  2
loop_
  _symmetry_equiv_pos_site_id
 _symmetry_equiv_pos_as_xyz
 1  'x, y, z'
loop_
 _atom_site_type_symbol
 _atom_site_label
 _atom_site_symmetry_multiplicity
 _atom_site_fract_x
 _atom_site_fract_y
 _atom_site_fract_z
 _atom_site_fract_occupancy
 C  C1  1  0.48835  0.24807  0.64983  1
 C  C2  1  0.61376  0.74807  0.14983  1
 C  C3  1  0.51166  0.75193  0.35017  1
 C  C4  1  0.38624  0.25193  0.85017  1
 H  H1  1  0.01082  0.79891  0.85667  1
 H  H2  1  0.66642  0.70108  0.64332  1
 H  H3  1  0.15622  0.80205  0.64957  1
 H  H4  1  0.33358  0.29892  0.35668  1
 H  H5  1  0.84378  0.19795  0.35043  1
 H  H6  1  0.39217  0.30205  0.14957  1
 H  H7  1  0.98918  0.20109  0.14333  1
 H  H8  1  0.60782  0.69795  0.85043  1
 Mn  Mn1  1  0.93854  0.24999  0.75000  1
 Mn  Mn2  1  0.06146  0.75000  0.25000  1
 O  O1  1  0.67129  0.75579  0.42317  1
 O  O2  1  0.32871  0.24421  0.57683  1
 O  O3  1  0.27735  0.75087  0.42510  1
 O  O4  1  0.14976  0.25579  0.92318  1
 O  O5  1  0.72265  0.24913  0.57490  1
 O  O6  1  0.85025  0.74422  0.07682  1
 O  O7  1  0.25055  0.36482  0.26083  1
 O  O8  1  0.87619  0.13519  0.23917  1
 O  O9  1  0.12381  0.86481  0.76083  1
 O  O10  1  0.54668  0.25086  0.92510  1
 O  O11  1  0.45332  0.74914  0.07490  1
 O  O12  1  0.74945  0.63518  0.73917  1
