CIF file written using JARVIS-Tools package.
data_Eu2BrO2
_symmetry_space_group_name_H-M  'C2/m'
_cell_length_a       4.08388
_cell_length_b       6.65556
_cell_length_c       8.12667
_cell_angle_alpha    71.0355
_cell_angle_beta     75.4476
_cell_angle_gamma    72.1334

_symmetry_Int_Tables_number  12
_chemical_formula_structural  Eu2BrO2
_chemical_formula_sum  Eu4Br2O4
_cell_volume  195.98404622408677
_cell_formula_units_Z  2
loop_
  _symmetry_equiv_pos_site_id
 _symmetry_equiv_pos_as_xyz
 1  'x, y, z'
loop_
 _atom_site_type_symbol
 _atom_site_label
 _atom_site_symmetry_multiplicity
 _atom_site_fract_x
 _atom_site_fract_y
 _atom_site_fract_z
 _atom_site_fract_occupancy
 Br  Br1  1  0.29707  0.26956  0.13630  1
 Br  Br2  1  0.70293  0.73044  0.86370  1
 Eu  Eu1  1  0.65464  0.24517  0.44555  1
 Eu  Eu2  1  0.96343  0.26370  0.80944  1
 Eu  Eu3  1  0.03657  0.73630  0.19056  1
 Eu  Eu4  1  0.34536  0.75483  0.55445  1
 O  O1  1  0.84727  0.88527  0.42019  1
 O  O2  1  0.15273  0.11473  0.57981  1
 O  O3  1  0.46640  0.37228  0.69493  1
 O  O4  1  0.53360  0.62772  0.30507  1
