CIF file written using JARVIS-Tools package.
data_As
_symmetry_space_group_name_H-M  'Cmce'
_cell_length_a       3.73223
_cell_length_b       4.60779
_cell_length_c       5.90515
_cell_angle_alpha    90
_cell_angle_beta     108.422
_cell_angle_gamma    90

_symmetry_Int_Tables_number  64
_chemical_formula_structural  As
_chemical_formula_sum  As4
_cell_volume  96.34864967715917
_cell_formula_units_Z  4
loop_
  _symmetry_equiv_pos_site_id
 _symmetry_equiv_pos_as_xyz
 1  'x, y, z'
loop_
 _atom_site_type_symbol
 _atom_site_label
 _atom_site_symmetry_multiplicity
 _atom_site_fract_x
 _atom_site_fract_y
 _atom_site_fract_z
 _atom_site_fract_occupancy
 As  As1  1  0.89093  0.93450  0.78186  1
 As  As2  1  0.10907  0.06550  0.21814  1
 As  As3  1  0.60907  0.43450  0.21814  1
 As  As4  1  0.39093  0.56550  0.78186  1
