CIF file written using JARVIS-Tools package.
data_Ga3Cl7
_symmetry_space_group_name_H-M  'Pna2_1'
_cell_length_a       8.85119
_cell_length_b       10.3643
_cell_length_c       11.6615
_cell_angle_alpha    90
_cell_angle_beta     90
_cell_angle_gamma    90

_symmetry_Int_Tables_number  33
_chemical_formula_structural  Ga3Cl7
_chemical_formula_sum  Ga2Cl28
_cell_volume  1069.7805592444772
_cell_formula_units_Z  4
loop_
  _symmetry_equiv_pos_site_id
 _symmetry_equiv_pos_as_xyz
 1  'x, y, z'
loop_
 _atom_site_type_symbol
 _atom_site_label
 _atom_site_symmetry_multiplicity
 _atom_site_fract_x
 _atom_site_fract_y
 _atom_site_fract_z
 _atom_site_fract_occupancy
 Cl  Cl1  1  0.25176  0.13415  0.75720  1
 Cl  Cl2  1  0.37204  0.61673  0.84259  1
 Cl  Cl3  1  0.87204  0.11673  0.65741  1
 Cl  Cl4  1  0.05320  0.83530  0.79192  1
 Cl  Cl5  1  0.03933  0.63088  0.02884  1
 Cl  Cl6  1  0.53933  0.13088  0.47116  1
 Cl  Cl7  1  0.74824  0.63415  0.24280  1
 Cl  Cl8  1  0.48221  0.41387  0.28660  1
 Cl  Cl9  1  0.17628  0.93665  0.51235  1
 Cl  Cl10  1  0.80297  0.82084  0.49670  1
 Cl  Cl11  1  0.67628  0.43665  0.98765  1
 Cl  Cl12  1  0.82372  0.43665  0.48765  1
 Cl  Cl13  1  0.01779  0.41387  0.78660  1
 Cl  Cl14  1  0.75176  0.63415  0.74280  1
 Cl  Cl15  1  0.19703  0.32084  0.50330  1
 Cl  Cl16  1  0.12796  0.61673  0.34259  1
 Cl  Cl17  1  0.94680  0.33530  0.20808  1
 Cl  Cl18  1  0.30297  0.32084  0.00330  1
 Cl  Cl19  1  0.44680  0.83530  0.29192  1
 Cl  Cl20  1  0.55320  0.33530  0.70808  1
 Cl  Cl21  1  0.62796  0.11673  0.15741  1
 Cl  Cl22  1  0.46067  0.63088  0.52884  1
 Cl  Cl23  1  0.96067  0.13088  0.97116  1
 Cl  Cl24  1  0.98221  0.91387  0.21340  1
 Cl  Cl25  1  0.24824  0.13415  0.25720  1
 Cl  Cl26  1  0.69703  0.82084  -0.00330  1
 Cl  Cl27  1  0.32372  0.93665  0.01235  1
 Cl  Cl28  1  0.51779  0.91387  0.71340  1
 Ga  Ga1  1  0.12122  0.26310  0.88840  1
 Ga  Ga2  1  0.64928  0.13061  0.89350  1
 Ga  Ga3  1  0.14928  0.63061  0.60650  1
 Ga  Ga4  1  0.57584  0.49697  0.82590  1
 Ga  Ga5  1  0.87878  0.76310  0.11160  1
 Ga  Ga6  1  0.42416  -0.00303  0.17410  1
 Ga  Ga7  1  0.92416  0.49697  0.32590  1
 Ga  Ga8  1  0.62122  0.76310  0.61160  1
 Ga  Ga9  1  0.07584  -0.00303  0.67410  1
 Ga  Ga10  1  0.37878  0.26310  0.38840  1
 Ga  Ga11  1  0.35072  0.63061  0.10650  1
 Ga  Ga12  1  0.85072  0.13061  0.39350  1
