CIF file written using JARVIS-Tools package.
data_AgSbC6N4O2F6
_symmetry_space_group_name_H-M  'C2/c'
_cell_length_a       7.63901
_cell_length_b       7.63901
_cell_length_c       10.404
_cell_angle_alpha    88.3857
_cell_angle_beta     88.3857
_cell_angle_gamma    81.6151

_symmetry_Int_Tables_number  15
_chemical_formula_structural  AgSbC6N4O2F6
_chemical_formula_sum  Ag2Sb2C2N8O4F2
_cell_volume  600.2164854494602
_cell_formula_units_Z  2
loop_
  _symmetry_equiv_pos_site_id
 _symmetry_equiv_pos_as_xyz
 1  'x, y, z'
loop_
 _atom_site_type_symbol
 _atom_site_label
 _atom_site_symmetry_multiplicity
 _atom_site_fract_x
 _atom_site_fract_y
 _atom_site_fract_z
 _atom_site_fract_occupancy
 Ag  Ag1  1  0.72066  0.27934  0.25000  1
 Ag  Ag2  1  0.27934  0.72066  0.75000  1
 C  C1  1  0.78057  0.94525  0.04480  1
 C  C2  1  0.81654  0.77942  0.97663  1
 C  C3  1  0.20352  0.37399  0.94033  1
 C  C4  1  0.18346  0.22058  0.02337  1
 C  C5  1  0.94525  0.78057  0.54480  1
 C  C6  1  0.62601  0.79648  0.55967  1
 C  C7  1  0.77942  0.81654  0.47663  1
 C  C8  1  0.37399  0.20352  0.44033  1
 C  C9  1  0.05475  0.21943  0.45520  1
 C  C10  1  0.79648  0.62601  0.05967  1
 C  C11  1  0.21943  0.05475  0.95520  1
 C  C12  1  0.22058  0.18346  0.52337  1
 F  F1  1  0.61750  0.50305  0.85868  1
 F  F2  1  0.89394  0.23340  0.85832  1
 F  F3  1  0.10606  0.76660  0.14168  1
 F  F4  1  0.23340  0.89394  0.35832  1
 F  F5  1  0.76660  0.10606  0.64168  1
 F  F6  1  0.38250  0.49695  0.14132  1
 F  F7  1  0.50305  0.61750  0.35868  1
 F  F8  1  0.16237  0.55366  0.35269  1
 F  F9  1  0.83763  0.44634  0.64731  1
 F  F10  1  0.44634  0.83763  0.14731  1
 F  F11  1  0.55366  0.16237  0.85269  1
 F  F12  1  0.49695  0.38250  0.64132  1
 N  N1  1  0.75760  0.07635  0.09987  1
 N  N2  1  0.22102  0.48983  0.86930  1
 N  N3  1  0.48983  0.22102  0.36930  1
 N  N4  1  0.92365  0.24240  0.40013  1
 N  N5  1  0.24240  0.92365  0.90013  1
 N  N6  1  0.77898  0.51017  0.13070  1
 N  N7  1  0.51017  0.77898  0.63070  1
 N  N8  1  0.07635  0.75760  0.59987  1
 O  O1  1  0.86125  0.77116  0.86360  1
 O  O2  1  0.22884  0.13875  0.63640  1
 O  O3  1  0.13875  0.22884  0.13640  1
 O  O4  1  0.77116  0.86125  0.36360  1
 Sb  Sb1  1  0.69429  0.30571  0.75000  1
 Sb  Sb2  1  0.30571  0.69429  0.25000  1
