CIF file written using JARVIS-Tools package.
data_PrPt
_symmetry_space_group_name_H-M  'Pnma'
_cell_length_a       4.62149
_cell_length_b       5.78256
_cell_length_c       7.42168
_cell_angle_alpha    90
_cell_angle_beta     90
_cell_angle_gamma    90

_symmetry_Int_Tables_number  62
_chemical_formula_structural  PrPt
_chemical_formula_sum  Pr4Pt4
_cell_volume  198.33746401042046
_cell_formula_units_Z  4
loop_
  _symmetry_equiv_pos_site_id
 _symmetry_equiv_pos_as_xyz
 1  'x, y, z'
loop_
 _atom_site_type_symbol
 _atom_site_label
 _atom_site_symmetry_multiplicity
 _atom_site_fract_x
 _atom_site_fract_y
 _atom_site_fract_z
 _atom_site_fract_occupancy
 Pr  Pr1  1  0.25000  0.35825  0.68328  1
 Pr  Pr2  1  0.25000  0.14175  0.18328  1
 Pr  Pr3  1  0.75000  0.64175  0.31672  1
 Pr  Pr4  1  0.75000  0.85825  0.81672  1
 Pt  Pt1  1  0.25000  0.84324  0.54520  1
 Pt  Pt2  1  0.25000  0.65676  0.04520  1
 Pt  Pt3  1  0.75000  0.15676  0.45480  1
 Pt  Pt4  1  0.75000  0.34324  0.95480  1
