CIF file written using JARVIS-Tools package.
data_K4V5CuClO15
_symmetry_space_group_name_H-M  'P4'
_cell_length_a       5.29695
_cell_length_b       8.94224
_cell_length_c       8.94224
_cell_angle_alpha    90
_cell_angle_beta     90
_cell_angle_gamma    90

_symmetry_Int_Tables_number  75
_chemical_formula_structural  K4V5CuClO15
_chemical_formula_sum  K4V5CuClO5
_cell_volume  423.5635068428179
_cell_formula_units_Z  1
loop_
  _symmetry_equiv_pos_site_id
 _symmetry_equiv_pos_as_xyz
 1  'x, y, z'
loop_
 _atom_site_type_symbol
 _atom_site_label
 _atom_site_symmetry_multiplicity
 _atom_site_fract_x
 _atom_site_fract_y
 _atom_site_fract_z
 _atom_site_fract_occupancy
 Cl  Cl1  1  0.29718  0.00000  0.00000  1
 Cu  Cu1  1  0.83042  0.00000  0.00000  1
 K  K1  1  0.41963  0.68125  0.15575  1
 K  K2  1  0.41963  0.84425  0.68125  1
 K  K3  1  0.41963  0.15575  0.31875  1
 K  K4  1  0.41963  0.31875  0.84425  1
 O  O1  1  0.79097  0.80286  0.90371  1
 O  O2  1  0.20841  0.86047  0.37926  1
 O  O3  1  0.77168  0.00000  0.50000  1
 O  O4  1  0.76700  0.68517  0.41825  1
 O  O5  1  0.20841  0.13953  0.62074  1
 O  O6  1  0.76700  0.41825  0.31483  1
 O  O7  1  0.77168  0.50000  0.00000  1
 O  O8  1  0.79097  0.90371  0.19714  1
 O  O9  1  0.76700  0.58175  0.68517  1
 O  O10  1  0.16877  0.50000  0.50000  1
 O  O11  1  0.76700  0.31483  0.58175  1
 O  O12  1  0.20841  0.37926  0.13953  1
 O  O13  1  0.79097  0.19714  0.09629  1
 O  O14  1  0.20841  0.62074  0.86047  1
 O  O15  1  0.79097  0.09629  0.80286  1
 V  V1  1  0.89522  0.86135  0.37086  1
 V  V2  1  0.89522  0.62914  0.86135  1
 V  V3  1  0.89522  0.37086  0.13865  1
 V  V4  1  0.89522  0.13865  0.62914  1
 V  V5  1  0.86357  0.50000  0.50000  1
