CIF file written using JARVIS-Tools package.
data_LiLa4NiO8
_symmetry_space_group_name_H-M  'Cmmm'
_cell_length_a       5.3151
_cell_length_b       5.31542
_cell_length_c       6.97835
_cell_angle_alpha    90
_cell_angle_beta     112.385
_cell_angle_gamma    90

_symmetry_Int_Tables_number  65
_chemical_formula_structural  LiLa4NiO8
_chemical_formula_sum  LiLa4NiO8
_cell_volume  182.29611564184148
_cell_formula_units_Z  1
loop_
  _symmetry_equiv_pos_site_id
 _symmetry_equiv_pos_as_xyz
 1  'x, y, z'
loop_
 _atom_site_type_symbol
 _atom_site_label
 _atom_site_symmetry_multiplicity
 _atom_site_fract_x
 _atom_site_fract_y
 _atom_site_fract_z
 _atom_site_fract_occupancy
 La  La1  1  0.36411  0.50000  0.72821  1
 La  La2  1  0.63589  0.50000  0.27179  1
 La  La3  1  0.13718  0.00000  0.27435  1
 La  La4  1  0.86282  0.00000  0.72565  1
 Li  Li1  1  0.50000  0.00000  -0.00000  1
 Ni  Ni1  1  0.00000  0.50000  0.00000  1
 O  O1  1  0.17652  0.50000  0.35305  1
 O  O2  1  0.32025  0.00000  0.64050  1
 O  O3  1  0.67975  0.00000  0.35950  1
 O  O4  1  0.82348  0.50000  0.64695  1
 O  O5  1  0.75303  0.74463  -0.00000  1
 O  O6  1  0.24697  0.25537  -0.00000  1
 O  O7  1  0.24697  0.74463  -0.00000  1
 O  O8  1  0.75303  0.25537  -0.00000  1
