CIF file written using JARVIS-Tools package.
data_Ca2FeP2H8O12
_symmetry_space_group_name_H-M  'P-1'
_cell_length_a       5.90178
_cell_length_b       6.43837
_cell_length_c       6.86399
_cell_angle_alpha    69.9892
_cell_angle_beta     78.2018
_cell_angle_gamma    75.4438

_symmetry_Int_Tables_number  2
_chemical_formula_structural  Ca2FeP2H8O12
_chemical_formula_sum  Ca2FeP2H8O2
_cell_volume  235.1839459449507
_cell_formula_units_Z  1
loop_
  _symmetry_equiv_pos_site_id
 _symmetry_equiv_pos_as_xyz
 1  'x, y, z'
loop_
 _atom_site_type_symbol
 _atom_site_label
 _atom_site_symmetry_multiplicity
 _atom_site_fract_x
 _atom_site_fract_y
 _atom_site_fract_z
 _atom_site_fract_occupancy
 Ca  Ca1  1  0.70366  0.66452  0.79118  1
 Ca  Ca2  1  0.29634  0.33548  0.20882  1
 Fe  Fe1  1  0.00000  0.00000  0.00000  1
 H  H1  1  0.67753  0.93872  0.32701  1
 H  H2  1  0.22990  0.82874  0.70817  1
 H  H3  1  0.17836  0.85601  0.37644  1
 H  H4  1  0.32247  0.06128  0.67299  1
 H  H5  1  0.37510  0.83223  0.19001  1
 H  H6  1  0.82164  0.14399  0.62356  1
 H  H7  1  0.77010  0.17126  0.29183  1
 H  H8  1  0.62490  0.16777  0.80999  1
 O  O1  1  0.02006  0.33153  0.87246  1
 O  O2  1  0.88682  0.30929  0.37758  1
 O  O3  1  0.57406  0.59227  0.15403  1
 O  O4  1  0.42594  0.40773  0.84597  1
 O  O5  1  0.11318  0.69071  0.62242  1
 O  O6  1  0.97994  0.66847  0.12754  1
 O  O7  1  0.68095  0.68132  0.45251  1
 O  O8  1  0.30933  0.90586  0.77535  1
 O  O9  1  0.75985  0.05353  0.76865  1
 O  O10  1  0.31905  0.31868  0.54749  1
 O  O11  1  0.24015  0.94647  0.23135  1
 O  O12  1  0.69067  0.09414  0.22465  1
 P  P1  1  0.77418  0.56214  0.28456  1
 P  P2  1  0.22582  0.43786  0.71544  1
