CIF file written using JARVIS-Tools package.
data_LiV2O3F3
_symmetry_space_group_name_H-M  'P1'
_cell_length_a       4.99521
_cell_length_b       4.99945
_cell_length_c       5.22461
_cell_angle_alpha    92.3416
_cell_angle_beta     116.439
_cell_angle_gamma    117.745

_symmetry_Int_Tables_number  1
_chemical_formula_structural  LiV2O3F3
_chemical_formula_sum  LiV2O3F3
_cell_volume  98.19773779888298
_cell_formula_units_Z  1
loop_
  _symmetry_equiv_pos_site_id
 _symmetry_equiv_pos_as_xyz
 1  'x, y, z'
loop_
 _atom_site_type_symbol
 _atom_site_label
 _atom_site_symmetry_multiplicity
 _atom_site_fract_x
 _atom_site_fract_y
 _atom_site_fract_z
 _atom_site_fract_occupancy
 F  F1  1  0.15401  0.76490  0.26427  1
 F  F2  1  0.50150  0.38723  0.23791  1
 F  F3  1  0.50031  0.63676  0.75564  1
 Li  Li1  1  0.58299  0.80297  0.34341  1
 O  O1  1  0.06635  0.83276  0.73517  1
 O  O2  1  0.89873  0.25074  0.74990  1
 O  O3  1  0.89904  0.14599  0.25429  1
 V  V1  1  0.99459  0.48833  0.52307  1
 V  V2  1  -0.00856  0.01990  -0.01130  1
