CIF file written using JARVIS-Tools package.
data_CaB2H2
_symmetry_space_group_name_H-M  'Pnma'
_cell_length_a       3.19875
_cell_length_b       3.48949
_cell_length_c       17.1224
_cell_angle_alpha    90
_cell_angle_beta     90
_cell_angle_gamma    90

_symmetry_Int_Tables_number  62
_chemical_formula_structural  CaB2H2
_chemical_formula_sum  Ca4B8H8
_cell_volume  191.1196931370512
_cell_formula_units_Z  4
loop_
  _symmetry_equiv_pos_site_id
 _symmetry_equiv_pos_as_xyz
 1  'x, y, z'
loop_
 _atom_site_type_symbol
 _atom_site_label
 _atom_site_symmetry_multiplicity
 _atom_site_fract_x
 _atom_site_fract_y
 _atom_site_fract_z
 _atom_site_fract_occupancy
 B  B1  1  0.75000  0.94094  0.48908  1
 B  B2  1  0.25000  0.05906  0.51092  1
 B  B3  1  0.25000  0.44094  0.01092  1
 B  B4  1  0.75000  0.55906  0.98908  1
 B  B5  1  0.25000  0.87136  0.73732  1
 B  B6  1  0.75000  0.37136  0.76268  1
 B  B7  1  0.25000  0.62864  0.23732  1
 B  B8  1  0.75000  0.12864  0.26268  1
 Ca  Ca1  1  0.25000  0.95755  0.88571  1
 Ca  Ca2  1  0.75000  0.04245  0.11429  1
 Ca  Ca3  1  0.75000  0.45755  0.61429  1
 Ca  Ca4  1  0.25000  0.54245  0.38571  1
 H  H1  1  0.75000  0.61462  0.46257  1
 H  H2  1  0.75000  0.88538  0.96257  1
 H  H3  1  0.25000  0.89088  0.66427  1
 H  H4  1  0.75000  0.39088  0.83573  1
 H  H5  1  0.75000  0.10912  0.33573  1
 H  H6  1  0.25000  0.60912  0.16427  1
 H  H7  1  0.25000  0.11462  0.03743  1
 H  H8  1  0.25000  0.38538  0.53743  1
