CIF file written using JARVIS-Tools package.
data_BiS2
_symmetry_space_group_name_H-M  'C2'
_cell_length_a       7.56369
_cell_length_b       7.50602
_cell_length_c       5.64169
_cell_angle_alpha    124.001
_cell_angle_beta     132.093
_cell_angle_gamma    90

_symmetry_Int_Tables_number  5
_chemical_formula_structural  BiS2
_chemical_formula_sum  Bi2S4
_cell_volume  156.23629633897508
_cell_formula_units_Z  2
loop_
  _symmetry_equiv_pos_site_id
 _symmetry_equiv_pos_as_xyz
 1  'x, y, z'
loop_
 _atom_site_type_symbol
 _atom_site_label
 _atom_site_symmetry_multiplicity
 _atom_site_fract_x
 _atom_site_fract_y
 _atom_site_fract_z
 _atom_site_fract_occupancy
 Bi  Bi1  1  0.28501  0.73644  0.49219  1
 Bi  Bi2  1  0.04282  0.01356  0.00781  1
 S  S1  1  0.84889  0.87500  0.25000  1
 S  S2  1  0.60277  0.15002  0.77322  1
 S  S3  1  0.39096  0.37500  0.25000  1
 S  S4  1  0.07955  0.59998  0.72678  1
