CIF file written using JARVIS-Tools package.
data_Mn3O2F5
_symmetry_space_group_name_H-M  'Immm'
_cell_length_a       6.31422
_cell_length_b       7.02186
_cell_length_c       8.37557
_cell_angle_alpha    114.769
_cell_angle_beta     112.137
_cell_angle_gamma    90.0011

_symmetry_Int_Tables_number  71
_chemical_formula_structural  Mn3O2F5
_chemical_formula_sum  Mn6O4F0
_cell_volume  306.7798793031394
_cell_formula_units_Z  2
loop_
  _symmetry_equiv_pos_site_id
 _symmetry_equiv_pos_as_xyz
 1  'x, y, z'
loop_
 _atom_site_type_symbol
 _atom_site_label
 _atom_site_symmetry_multiplicity
 _atom_site_fract_x
 _atom_site_fract_y
 _atom_site_fract_z
 _atom_site_fract_occupancy
 F  F1  1  0.14915  0.84863  0.29404  1
 F  F2  1  0.67156  0.88328  0.33879  1
 F  F3  1  0.67161  0.45780  0.33882  1
 F  F4  1  0.33252  0.11864  0.66065  1
 F  F5  1  0.85488  0.15333  0.70539  1
 F  F6  1  0.14924  0.44774  0.29406  1
 F  F7  1  0.80720  0.00107  -0.00023  1
 F  F8  1  0.19688  0.00102  0.99970  1
 F  F9  1  0.85492  0.55425  0.70545  1
 F  F10  1  0.33252  0.54414  0.66067  1
 Mn  Mn1  1  0.11040  0.10940  0.21643  1
 Mn  Mn2  1  0.89368  0.89260  0.78304  1
 Mn  Mn3  1  0.00206  0.50099  0.49975  1
 Mn  Mn4  1  0.50207  0.50097  0.49975  1
 Mn  Mn5  1  0.00204  0.00098  0.49972  1
 Mn  Mn6  1  0.50202  0.00095  0.49971  1
 O  O1  1  0.42440  0.20081  0.39936  1
 O  O2  1  0.97934  0.20084  0.39940  1
 O  O3  1  0.02475  0.80113  0.60007  1
 O  O4  1  0.57969  0.80113  0.60010  1
