CIF file written using JARVIS-Tools package.
data_LiMn2F5
_symmetry_space_group_name_H-M  'C2/c'
_cell_length_a       5.10241
_cell_length_b       6.71607
_cell_length_c       5.40142
_cell_angle_alpha    86.3769
_cell_angle_beta     90
_cell_angle_gamma    67.6746

_symmetry_Int_Tables_number  15
_chemical_formula_structural  LiMn2F5
_chemical_formula_sum  Li2Mn4F0
_cell_volume  170.82191482538232
_cell_formula_units_Z  2
loop_
  _symmetry_equiv_pos_site_id
 _symmetry_equiv_pos_as_xyz
 1  'x, y, z'
loop_
 _atom_site_type_symbol
 _atom_site_label
 _atom_site_symmetry_multiplicity
 _atom_site_fract_x
 _atom_site_fract_y
 _atom_site_fract_z
 _atom_site_fract_occupancy
 F  F1  1  0.48678  0.80636  0.91065  1
 F  F2  1  0.70685  0.80636  0.41065  1
 F  F3  1  0.14453  0.57673  0.81223  1
 F  F4  1  0.27875  0.57673  0.31223  1
 F  F5  1  0.72125  0.42327  0.68777  1
 F  F6  1  0.85547  0.42327  0.18777  1
 F  F7  1  0.29315  0.19364  0.58935  1
 F  F8  1  0.51322  0.19364  0.08935  1
 F  F9  1  0.94396  -0.00000  0.75000  1
 F  F10  1  0.05604  0.00000  0.25000  1
 Li  Li1  1  -0.00000  0.50000  0.50000  1
 Li  Li2  1  0.50000  0.50000  -0.00000  1
 Mn  Mn1  1  0.33195  0.79564  0.55113  1
 Mn  Mn2  1  0.87241  0.79564  0.05113  1
 Mn  Mn3  1  0.12759  0.20436  0.94887  1
 Mn  Mn4  1  0.66805  0.20436  0.44887  1
