CIF file written using JARVIS-Tools package.
data_Ti3Bi4O12
_symmetry_space_group_name_H-M  'Aea2'
_cell_length_a       5.45084
_cell_length_b       5.48033
_cell_length_c       16.7344
_cell_angle_alpha    99.4244
_cell_angle_beta     90
_cell_angle_gamma    90

_symmetry_Int_Tables_number  41
_chemical_formula_structural  Ti3Bi4O12
_chemical_formula_sum  Ti6Bi8O24
_cell_volume  493.1484953505632
_cell_formula_units_Z  2
loop_
  _symmetry_equiv_pos_site_id
 _symmetry_equiv_pos_as_xyz
 1  'x, y, z'
loop_
 _atom_site_type_symbol
 _atom_site_label
 _atom_site_symmetry_multiplicity
 _atom_site_fract_x
 _atom_site_fract_y
 _atom_site_fract_z
 _atom_site_fract_occupancy
 Bi  Bi1  1  0.00320  0.06634  0.13225  1
 Bi  Bi2  1  0.50320  0.43409  0.86775  1
 Bi  Bi3  1  0.98042  0.79687  0.57784  1
 Bi  Bi4  1  0.48042  0.71903  0.42216  1
 Bi  Bi5  1  0.51958  0.29687  0.57784  1
 Bi  Bi6  1  0.99680  0.93409  0.86775  1
 Bi  Bi7  1  0.01958  0.21903  0.42216  1
 Bi  Bi8  1  0.49680  0.56634  0.13225  1
 O  O1  1  0.77893  0.60517  0.77961  1
 O  O2  1  0.27893  0.32556  0.22039  1
 O  O3  1  0.72107  0.10517  0.77961  1
 O  O4  1  0.44291  0.13539  0.36200  1
 O  O5  1  0.55709  0.77339  0.63800  1
 O  O6  1  0.05709  0.63539  0.36200  1
 O  O7  1  0.74582  -0.00790  0.49784  1
 O  O8  1  0.94291  0.27339  0.63800  1
 O  O9  1  0.57570  0.97580  0.11717  1
 O  O10  1  0.42430  0.85863  0.88283  1
 O  O11  1  0.75209  0.17571  0.97967  1
 O  O12  1  0.24791  0.19604  0.02033  1
 O  O13  1  0.22107  0.82556  0.22039  1
 O  O14  1  0.19856  0.01571  0.75023  1
 O  O15  1  0.75418  0.49210  0.49784  1
 O  O16  1  0.30144  0.51571  0.75023  1
 O  O17  1  0.74791  0.67571  0.97967  1
 O  O18  1  0.69856  0.76547  0.24977  1
 O  O19  1  0.25209  0.69604  0.02033  1
 O  O20  1  0.25418  0.49426  0.50216  1
 O  O21  1  0.07570  0.35863  0.88283  1
 O  O22  1  0.92430  0.47580  0.11717  1
 O  O23  1  0.24582  -0.00574  0.50216  1
 O  O24  1  0.80144  0.26547  0.24977  1
 Ti  Ti1  1  0.00000  0.46511  -0.00000  1
 Ti  Ti2  1  0.50000  0.96511  -0.00000  1
 Ti  Ti3  1  0.99632  0.58398  0.25643  1
 Ti  Ti4  1  0.49632  0.82755  0.74357  1
 Ti  Ti5  1  0.50368  0.08398  0.25643  1
 Ti  Ti6  1  0.00368  0.32755  0.74357  1
