CIF file written using JARVIS-Tools package.
data_V6H4O13
_symmetry_space_group_name_H-M  'Cm'
_cell_length_a       6.35961
_cell_length_b       6.35961
_cell_length_c       10.3572
_cell_angle_alpha    79.7098
_cell_angle_beta     100.29
_cell_angle_gamma    144.985

_symmetry_Int_Tables_number  8
_chemical_formula_structural  V6H4O13
_chemical_formula_sum  V6H4O3
_cell_volume  236.1041007593434
_cell_formula_units_Z  1
loop_
  _symmetry_equiv_pos_site_id
 _symmetry_equiv_pos_as_xyz
 1  'x, y, z'
loop_
 _atom_site_type_symbol
 _atom_site_label
 _atom_site_symmetry_multiplicity
 _atom_site_fract_x
 _atom_site_fract_y
 _atom_site_fract_z
 _atom_site_fract_occupancy
 H  H1  1  0.81963  0.18037  0.87688  1
 H  H2  1  0.92247  0.07753  0.49628  1
 H  H3  1  0.50742  0.49258  0.80462  1
 H  H4  1  0.58113  0.41887  0.19514  1
 O  O1  1  0.33370  0.66630  0.80274  1
 O  O2  1  0.81876  0.18124  0.97191  1
 O  O3  1  0.43358  0.56642  0.57922  1
 O  O4  1  0.12707  0.87293  0.61642  1
 O  O5  1  0.89415  0.10585  0.40013  1
 O  O6  1  0.76025  0.23975  0.59596  1
 O  O7  1  0.18591  0.81409  0.00119  1
 O  O8  1  0.50086  0.49914  0.00811  1
 O  O9  1  0.58865  0.41135  0.80440  1
 O  O10  1  0.56771  0.43229  0.41530  1
 O  O11  1  0.25127  0.74873  0.40368  1
 O  O12  1  0.66284  0.33716  0.19981  1
 O  O13  1  0.38236  0.61764  0.19435  1
 V  V1  1  0.71522  0.28478  0.38647  1
 V  V2  1  0.29182  0.70818  0.63701  1
 V  V3  1  0.41081  0.58919  0.36486  1
 V  V4  1  0.59155  0.40845  0.61547  1
 V  V5  1  0.35249  0.64751  0.01240  1
 V  V6  1  0.64442  0.35558  -0.00213  1
