CIF file written using JARVIS-Tools package.
data_Pr4Te3N2
_symmetry_space_group_name_H-M  'Pnma'
_cell_length_a       7.44686
_cell_length_b       11.476
_cell_length_c       11.8415
_cell_angle_alpha    90
_cell_angle_beta     90
_cell_angle_gamma    90

_symmetry_Int_Tables_number  62
_chemical_formula_structural  Pr4Te3N2
_chemical_formula_sum  Pr6Te2N8
_cell_volume  1011.9799245617182
_cell_formula_units_Z  4
loop_
  _symmetry_equiv_pos_site_id
 _symmetry_equiv_pos_as_xyz
 1  'x, y, z'
loop_
 _atom_site_type_symbol
 _atom_site_label
 _atom_site_symmetry_multiplicity
 _atom_site_fract_x
 _atom_site_fract_y
 _atom_site_fract_z
 _atom_site_fract_occupancy
 N  N1  1  0.05331  0.46661  0.87811  1
 N  N2  1  0.94669  0.53339  0.12189  1
 N  N3  1  0.94669  0.53339  0.37811  1
 N  N4  1  0.44669  0.96661  0.37811  1
 N  N5  1  0.55331  0.03339  0.87811  1
 N  N6  1  0.05331  0.46661  0.62189  1
 N  N7  1  0.55331  0.03339  0.62189  1
 N  N8  1  0.44669  0.96661  0.12189  1
 Pr  Pr1  1  0.77353  0.96975  0.75000  1
 Pr  Pr2  1  0.14729  0.38977  0.44959  1
 Pr  Pr3  1  0.09200  0.66055  0.25000  1
 Pr  Pr4  1  0.22647  0.03025  0.25000  1
 Pr  Pr5  1  0.85271  0.61023  0.55041  1
 Pr  Pr6  1  0.40800  0.16055  0.75000  1
 Pr  Pr7  1  0.14729  0.38977  0.05041  1
 Pr  Pr8  1  0.35271  0.88977  0.55041  1
 Pr  Pr9  1  0.64729  0.11023  0.44959  1
 Pr  Pr10  1  0.72647  0.46975  0.25000  1
 Pr  Pr11  1  0.85271  0.61023  0.94959  1
 Pr  Pr12  1  0.90800  0.33945  0.75000  1
 Pr  Pr13  1  0.35271  0.88977  0.94959  1
 Pr  Pr14  1  0.64729  0.11023  0.05041  1
 Pr  Pr15  1  0.59200  0.83945  0.25000  1
 Pr  Pr16  1  0.27353  0.53025  0.75000  1
 Te  Te1  1  0.58155  0.72709  0.75000  1
 Te  Te2  1  0.91845  0.22709  0.25000  1
 Te  Te3  1  0.06589  0.13515  0.92141  1
 Te  Te4  1  0.41845  0.27291  0.25000  1
 Te  Te5  1  0.08155  0.77291  0.75000  1
 Te  Te6  1  0.56589  0.36485  0.92141  1
 Te  Te7  1  0.93411  0.86485  0.07859  1
 Te  Te8  1  0.93411  0.86485  0.42141  1
 Te  Te9  1  0.06589  0.13515  0.57859  1
 Te  Te10  1  0.43411  0.63515  0.42141  1
 Te  Te11  1  0.56589  0.36485  0.57859  1
 Te  Te12  1  0.43411  0.63515  0.07859  1
