CIF file written using JARVIS-Tools package.
data_Zr3Co
_symmetry_space_group_name_H-M  'Cmcm'
_cell_length_a       3.26422
_cell_length_b       5.58831
_cell_length_c       9.04986
_cell_angle_alpha    90
_cell_angle_beta     90
_cell_angle_gamma    106.981

_symmetry_Int_Tables_number  63
_chemical_formula_structural  Zr3Co
_chemical_formula_sum  Zr6Co2
_cell_volume  157.88504345571184
_cell_formula_units_Z  2
loop_
  _symmetry_equiv_pos_site_id
 _symmetry_equiv_pos_as_xyz
 1  'x, y, z'
loop_
 _atom_site_type_symbol
 _atom_site_label
 _atom_site_symmetry_multiplicity
 _atom_site_fract_x
 _atom_site_fract_y
 _atom_site_fract_z
 _atom_site_fract_occupancy
 Co  Co1  1  0.72236  0.44473  0.75000  1
 Co  Co2  1  0.27764  0.55527  0.25000  1
 Zr  Zr1  1  0.41500  0.83000  0.75000  1
 Zr  Zr2  1  0.58500  0.17000  0.25000  1
 Zr  Zr3  1  0.13430  0.26859  0.94457  1
 Zr  Zr4  1  0.86570  0.73141  0.05543  1
 Zr  Zr5  1  0.86570  0.73141  0.44457  1
 Zr  Zr6  1  0.13430  0.26859  0.55543  1
