CIF file written using JARVIS-Tools package.
data_Er2SnAu2
_symmetry_space_group_name_H-M  'P4_2/mnm'
_cell_length_a       7.86891
_cell_length_b       7.86891
_cell_length_c       7.39178
_cell_angle_alpha    90
_cell_angle_beta     90
_cell_angle_gamma    90

_symmetry_Int_Tables_number  136
_chemical_formula_structural  Er2SnAu2
_chemical_formula_sum  Er8Sn4Au8
_cell_volume  457.69728703420435
_cell_formula_units_Z  4
loop_
  _symmetry_equiv_pos_site_id
 _symmetry_equiv_pos_as_xyz
 1  'x, y, z'
loop_
 _atom_site_type_symbol
 _atom_site_label
 _atom_site_symmetry_multiplicity
 _atom_site_fract_x
 _atom_site_fract_y
 _atom_site_fract_z
 _atom_site_fract_occupancy
 Au  Au1  1  0.87147  0.87147  0.77315  1
 Au  Au2  1  0.37147  0.62853  0.27315  1
 Au  Au3  1  0.62853  0.37147  0.27315  1
 Au  Au4  1  0.37147  0.62853  0.72685  1
 Au  Au5  1  0.62853  0.37147  0.72685  1
 Au  Au6  1  0.87147  0.87147  0.22685  1
 Au  Au7  1  0.12853  0.12853  0.22685  1
 Au  Au8  1  0.12853  0.12853  0.77315  1
 Er  Er1  1  0.34196  0.34196  0.00000  1
 Er  Er2  1  0.31950  0.31950  0.50000  1
 Er  Er3  1  0.68050  0.68050  0.50000  1
 Er  Er4  1  0.18050  0.81950  0.00000  1
 Er  Er5  1  0.81950  0.18050  0.00000  1
 Er  Er6  1  0.15804  0.84196  0.50000  1
 Er  Er7  1  0.84196  0.15804  0.50000  1
 Er  Er8  1  0.65804  0.65804  0.00000  1
 Sn  Sn1  1  0.50000  0.00000  0.75000  1
 Sn  Sn2  1  0.50000  0.00000  0.25000  1
 Sn  Sn3  1  0.00000  0.50000  0.75000  1
 Sn  Sn4  1  0.00000  0.50000  0.25000  1
