CIF file written using JARVIS-Tools package.
data_UCl5
_symmetry_space_group_name_H-M  'P-1'
_cell_length_a       6.29852
_cell_length_b       6.27799
_cell_length_c       9.9261
_cell_angle_alpha    95.7952
_cell_angle_beta     71.7552
_cell_angle_gamma    107.946

_symmetry_Int_Tables_number  2
_chemical_formula_structural  UCl5
_chemical_formula_sum  U2Cl0
_cell_volume  354.62736820633694
_cell_formula_units_Z  2
loop_
  _symmetry_equiv_pos_site_id
 _symmetry_equiv_pos_as_xyz
 1  'x, y, z'
loop_
 _atom_site_type_symbol
 _atom_site_label
 _atom_site_symmetry_multiplicity
 _atom_site_fract_x
 _atom_site_fract_y
 _atom_site_fract_z
 _atom_site_fract_occupancy
 Cl  Cl1  1  0.55591  0.74730  0.39376  1
 Cl  Cl2  1  0.44409  0.25270  0.60624  1
 Cl  Cl3  1  0.23434  0.23786  0.00103  1
 Cl  Cl4  1  0.76566  0.76214  -0.00103  1
 Cl  Cl5  1  0.34708  0.75838  0.79658  1
 Cl  Cl6  1  0.65292  0.24162  0.20342  1
 Cl  Cl7  1  0.85622  0.24136  0.79642  1
 Cl  Cl8  1  0.14378  0.75864  0.20358  1
 Cl  Cl9  1  0.94883  0.74569  0.60483  1
 Cl  Cl10  1  0.05117  0.25431  0.39517  1
 U  U1  1  0.88949  0.00016  0.22132  1
 U  U2  1  0.11051  -0.00016  0.77868  1
