CIF file written using JARVIS-Tools package.
data_SmCr2B6
_symmetry_space_group_name_H-M  'Immm'
_cell_length_a       3.09864
_cell_length_b       5.51068
_cell_length_c       5.51068
_cell_angle_alpha    73.0415
_cell_angle_beta     73.6712
_cell_angle_gamma    73.6712

_symmetry_Int_Tables_number  71
_chemical_formula_structural  SmCr2B6
_chemical_formula_sum  SmCr2B6
_cell_volume  84.31864960597878
_cell_formula_units_Z  1
loop_
  _symmetry_equiv_pos_site_id
 _symmetry_equiv_pos_as_xyz
 1  'x, y, z'
loop_
 _atom_site_type_symbol
 _atom_site_label
 _atom_site_symmetry_multiplicity
 _atom_site_fract_x
 _atom_site_fract_y
 _atom_site_fract_z
 _atom_site_fract_occupancy
 B  B1  1  0.50000  0.13926  0.86074  1
 B  B2  1  0.50000  0.86074  0.13926  1
 B  B3  1  0.69710  0.03920  0.56661  1
 B  B4  1  0.30290  0.43339  0.96080  1
 B  B5  1  0.69710  0.56661  0.03920  1
 B  B6  1  0.30290  0.96080  0.43339  1
 Cr  Cr1  1  0.84526  0.15474  0.15474  1
 Cr  Cr2  1  0.15474  0.84526  0.84526  1
 Sm  Sm1  1  -0.00000  0.50000  0.50000  1
