CIF file written using JARVIS-Tools package.
data_Ba3Er2Cu2PtO10
_symmetry_space_group_name_H-M  'C2/m'
_cell_length_a       5.8378
_cell_length_b       6.91375
_cell_length_c       7.43474
_cell_angle_alpha    104.461
_cell_angle_beta     90
_cell_angle_gamma    114.973

_symmetry_Int_Tables_number  12
_chemical_formula_structural  Ba3Er2Cu2PtO10
_chemical_formula_sum  Ba3Er2Cu2PtO0
_cell_volume  261.4951527897172
_cell_formula_units_Z  1
loop_
  _symmetry_equiv_pos_site_id
 _symmetry_equiv_pos_as_xyz
 1  'x, y, z'
loop_
 _atom_site_type_symbol
 _atom_site_label
 _atom_site_symmetry_multiplicity
 _atom_site_fract_x
 _atom_site_fract_y
 _atom_site_fract_z
 _atom_site_fract_occupancy
 Ba  Ba1  1  0.15340  0.30680  0.54284  1
 Ba  Ba2  1  0.84660  0.69320  0.45716  1
 Ba  Ba3  1  0.00000  0.00000  0.00000  1
 Cu  Cu1  1  0.41103  0.82207  0.80236  1
 Cu  Cu2  1  0.58897  0.17793  0.19764  1
 Er  Er1  1  0.68916  0.37831  0.87446  1
 Er  Er2  1  0.31084  0.62169  0.12554  1
 O  O1  1  0.33235  0.66469  0.44693  1
 O  O2  1  0.54398  0.63051  0.87466  1
 O  O3  1  0.91346  0.36949  0.12534  1
 O  O4  1  0.45602  0.36949  0.12534  1
 O  O5  1  0.29916  0.03879  0.72045  1
 O  O6  1  0.70084  0.96121  0.27955  1
 O  O7  1  0.66765  0.33531  0.55307  1
 O  O8  1  0.73963  0.03879  0.72045  1
 O  O9  1  0.08654  0.63051  0.87466  1
 O  O10  1  0.26037  0.96121  0.27955  1
 Pt  Pt1  1  0.50000  -0.00000  0.50000  1
