CIF file written using JARVIS-Tools package.
data_KVSO6
_symmetry_space_group_name_H-M  'P2_12_12_1'
_cell_length_a       5.41615
_cell_length_b       8.21948
_cell_length_c       11.1268
_cell_angle_alpha    90
_cell_angle_beta     90
_cell_angle_gamma    90

_symmetry_Int_Tables_number  19
_chemical_formula_structural  KVSO6
_chemical_formula_sum  K4V4S4O24
_cell_volume  495.3411738457504
_cell_formula_units_Z  4
loop_
  _symmetry_equiv_pos_site_id
 _symmetry_equiv_pos_as_xyz
 1  'x, y, z'
loop_
 _atom_site_type_symbol
 _atom_site_label
 _atom_site_symmetry_multiplicity
 _atom_site_fract_x
 _atom_site_fract_y
 _atom_site_fract_z
 _atom_site_fract_occupancy
 K  K1  1  0.27690  0.43917  0.88747  1
 K  K2  1  0.77690  0.56083  0.61253  1
 K  K3  1  0.72310  0.06083  0.38747  1
 K  K4  1  0.22310  0.93917  0.11253  1
 O  O1  1  0.24309  0.73460  0.75770  1
 O  O2  1  0.04841  0.30173  0.46755  1
 O  O3  1  0.45159  0.80173  0.53245  1
 O  O4  1  0.26534  0.40104  0.64701  1
 O  O5  1  0.95159  0.19827  0.96755  1
 O  O6  1  0.54841  0.69827  0.03245  1
 O  O7  1  0.62172  0.36418  0.06184  1
 O  O8  1  0.60443  0.95363  0.73713  1
 O  O9  1  0.39557  0.54637  0.23713  1
 O  O10  1  0.73466  0.09896  0.14701  1
 O  O11  1  0.03928  0.88016  0.55316  1
 O  O12  1  0.89557  0.45363  0.26287  1
 O  O13  1  0.96072  0.61984  0.05316  1
 O  O14  1  0.75691  0.76540  0.25770  1
 O  O15  1  0.10443  0.04637  0.76287  1
 O  O16  1  0.76534  0.59896  0.85299  1
 O  O17  1  0.23466  0.90104  0.35299  1
 O  O18  1  0.37828  0.13582  0.56184  1
 O  O19  1  0.74309  0.26540  0.74230  1
 O  O20  1  0.87828  0.86418  0.93816  1
 O  O21  1  0.53928  0.11984  0.94684  1
 O  O22  1  0.25691  0.23460  0.24230  1
 O  O23  1  0.12172  0.63582  0.43816  1
 O  O24  1  0.46072  0.38016  0.44684  1
 S  S1  1  0.71184  0.19936  0.04036  1
 S  S2  1  0.78816  0.69936  0.95964  1
 S  S3  1  0.28816  0.30064  0.54036  1
 S  S4  1  0.21184  0.80064  0.45964  1
 V  V1  1  0.70655  0.59582  0.18771  1
 V  V2  1  0.20655  0.40418  0.31229  1
 V  V3  1  0.79345  0.09582  0.81229  1
 V  V4  1  0.29345  0.90418  0.68771  1
