CIF file written using JARVIS-Tools package.
data_ZrBi2
_symmetry_space_group_name_H-M  'Pnnm'
_cell_length_a       4.05974
_cell_length_b       10.3798
_cell_length_c       15.6979
_cell_angle_alpha    90
_cell_angle_beta     90
_cell_angle_gamma    90

_symmetry_Int_Tables_number  58
_chemical_formula_structural  ZrBi2
_chemical_formula_sum  Zr8Bi6
_cell_volume  661.4993044325337
_cell_formula_units_Z  8
loop_
  _symmetry_equiv_pos_site_id
 _symmetry_equiv_pos_as_xyz
 1  'x, y, z'
loop_
 _atom_site_type_symbol
 _atom_site_label
 _atom_site_symmetry_multiplicity
 _atom_site_fract_x
 _atom_site_fract_y
 _atom_site_fract_z
 _atom_site_fract_occupancy
 Bi  Bi1  1  0.00000  0.26544  0.70023  1
 Bi  Bi2  1  0.00000  0.87686  0.94315  1
 Bi  Bi3  1  0.00000  0.12314  0.05685  1
 Bi  Bi4  1  0.50000  0.37686  0.55685  1
 Bi  Bi5  1  0.00000  0.48695  0.89390  1
 Bi  Bi6  1  0.00000  0.65411  0.65009  1
 Bi  Bi7  1  0.00000  0.34589  0.34991  1
 Bi  Bi8  1  0.50000  0.62314  0.44315  1
 Bi  Bi9  1  0.50000  0.84589  0.15009  1
 Bi  Bi10  1  0.50000  0.76544  0.79977  1
 Bi  Bi11  1  0.50000  0.23456  0.20023  1
 Bi  Bi12  1  0.00000  0.51305  0.10610  1
 Bi  Bi13  1  0.00000  0.73456  0.29977  1
 Bi  Bi14  1  0.50000  0.98695  0.60610  1
 Bi  Bi15  1  0.50000  0.01305  0.39390  1
 Bi  Bi16  1  0.50000  0.15411  0.84991  1
 Zr  Zr1  1  0.50000  0.52258  0.25152  1
 Zr  Zr2  1  0.50000  0.47742  0.74848  1
 Zr  Zr3  1  0.00000  0.02258  0.24848  1
 Zr  Zr4  1  0.00000  0.97742  0.75152  1
 Zr  Zr5  1  0.00000  0.83692  0.49415  1
 Zr  Zr6  1  0.00000  0.16308  0.50585  1
 Zr  Zr7  1  0.50000  0.33692  0.00585  1
 Zr  Zr8  1  0.50000  0.66308  0.99415  1
