CIF file written using JARVIS-Tools package.
data_BPb3O4F
_symmetry_space_group_name_H-M  'Pbcm'
_cell_length_a       6.50119
_cell_length_b       7.68316
_cell_length_c       12.1102
_cell_angle_alpha    90
_cell_angle_beta     90
_cell_angle_gamma    90

_symmetry_Int_Tables_number  57
_chemical_formula_structural  BPb3O4F
_chemical_formula_sum  B4Pb2O6F4
_cell_volume  604.9003592913438
_cell_formula_units_Z  4
loop_
  _symmetry_equiv_pos_site_id
 _symmetry_equiv_pos_as_xyz
 1  'x, y, z'
loop_
 _atom_site_type_symbol
 _atom_site_label
 _atom_site_symmetry_multiplicity
 _atom_site_fract_x
 _atom_site_fract_y
 _atom_site_fract_z
 _atom_site_fract_occupancy
 B  B1  1  0.25000  0.97832  0.50000  1
 B  B2  1  0.75000  0.02168  0.00000  1
 B  B3  1  0.75000  0.02168  0.50000  1
 B  B4  1  0.25000  0.97832  0.00000  1
 F  F1  1  0.30491  0.42189  0.25000  1
 F  F2  1  0.80491  0.57811  0.25000  1
 F  F3  1  0.69509  0.57811  0.75000  1
 F  F4  1  0.19509  0.42189  0.75000  1
 O  O1  1  0.70341  0.93219  0.40364  1
 O  O2  1  0.29659  0.06781  0.59636  1
 O  O3  1  0.90993  0.19364  0.25000  1
 O  O4  1  0.40993  0.80636  0.25000  1
 O  O5  1  0.59007  0.19364  0.75000  1
 O  O6  1  0.20341  0.06781  0.40364  1
 O  O7  1  0.79659  0.93219  0.90364  1
 O  O8  1  0.70341  0.93219  0.09636  1
 O  O9  1  0.09007  0.80636  0.75000  1
 O  O10  1  0.79659  0.93219  0.59636  1
 O  O11  1  0.29659  0.06781  0.90364  1
 O  O12  1  0.75000  0.20267  0.50000  1
 O  O13  1  0.75000  0.20267  0.00000  1
 O  O14  1  0.25000  0.79733  0.50000  1
 O  O15  1  0.20341  0.06781  0.09636  1
 O  O16  1  0.25000  0.79733  0.00000  1
 Pb  Pb1  1  0.04924  0.89165  0.25000  1
 Pb  Pb2  1  0.95076  0.10835  0.75000  1
 Pb  Pb3  1  0.02944  0.33307  0.10497  1
 Pb  Pb4  1  0.02944  0.33307  0.39503  1
 Pb  Pb5  1  0.97056  0.66693  0.89503  1
 Pb  Pb6  1  0.52944  0.66693  0.10497  1
 Pb  Pb7  1  0.47056  0.33307  0.60497  1
 Pb  Pb8  1  0.97056  0.66693  0.60497  1
 Pb  Pb9  1  0.52944  0.66693  0.39503  1
 Pb  Pb10  1  0.54924  0.10835  0.25000  1
 Pb  Pb11  1  0.45076  0.89165  0.75000  1
 Pb  Pb12  1  0.47056  0.33307  0.89503  1
