CIF file written using JARVIS-Tools package.
data_LiH5SN2O4
_symmetry_space_group_name_H-M  'Pna2_1'
_cell_length_a       9.9746
_cell_length_b       8.87164
_cell_length_c       5.09662
_cell_angle_alpha    90
_cell_angle_beta     90
_cell_angle_gamma    90

_symmetry_Int_Tables_number  33
_chemical_formula_structural  LiH5SN2O4
_chemical_formula_sum  Li4H20S4N8O6
_cell_volume  451.0050023942714
_cell_formula_units_Z  4
loop_
  _symmetry_equiv_pos_site_id
 _symmetry_equiv_pos_as_xyz
 1  'x, y, z'
loop_
 _atom_site_type_symbol
 _atom_site_label
 _atom_site_symmetry_multiplicity
 _atom_site_fract_x
 _atom_site_fract_y
 _atom_site_fract_z
 _atom_site_fract_occupancy
 H  H1  1  0.62106  0.11465  0.74997  1
 H  H2  1  0.48913  0.96892  0.05162  1
 H  H3  1  0.98913  0.53108  0.05162  1
 H  H4  1  0.01087  0.46892  0.55162  1
 H  H5  1  0.34209  0.18679  0.70443  1
 H  H6  1  0.15791  0.68679  0.20443  1
 H  H7  1  0.84209  0.31321  0.70443  1
 H  H8  1  0.45183  0.26666  0.92037  1
 H  H9  1  0.54817  0.73334  0.42037  1
 H  H10  1  0.04817  0.76666  0.42037  1
 H  H11  1  0.95183  0.23334  0.92037  1
 H  H12  1  0.46923  0.29075  0.59053  1
 H  H13  1  0.53077  0.70925  0.09053  1
 H  H14  1  0.03077  0.79075  0.09053  1
 H  H15  1  0.96923  0.20925  0.59053  1
 H  H16  1  0.12106  0.38535  0.74997  1
 H  H17  1  0.87894  0.61465  0.24997  1
 H  H18  1  0.65791  0.81321  0.20443  1
 H  H19  1  0.51087  0.03108  0.55162  1
 H  H20  1  0.37894  0.88535  0.24997  1
 Li  Li1  1  0.67112  0.56376  0.75204  1
 Li  Li2  1  0.17112  0.93624  0.75204  1
 Li  Li3  1  0.82888  0.06376  0.25204  1
 Li  Li4  1  0.32888  0.43624  0.25204  1
 N  N1  1  0.94167  0.28411  0.73723  1
 N  N2  1  0.05833  0.71589  0.23723  1
 N  N3  1  0.55833  0.78411  0.23723  1
 N  N4  1  0.44167  0.21589  0.73723  1
 N  N5  1  0.02315  0.41980  0.73559  1
 N  N6  1  0.97685  0.58020  0.23559  1
 N  N7  1  0.52315  0.08020  0.73559  1
 N  N8  1  0.47685  0.91980  0.23559  1
 O  O1  1  0.00779  0.15287  0.22988  1
 O  O2  1  0.80258  0.00656  0.60980  1
 O  O3  1  0.81063  0.88538  0.03855  1
 O  O4  1  0.31063  0.61462  0.03855  1
 O  O5  1  0.68937  0.38538  0.53855  1
 O  O6  1  0.50779  0.34713  0.22988  1
 O  O7  1  0.49221  0.65287  0.72988  1
 O  O8  1  0.18937  0.11462  0.53855  1
 O  O9  1  0.72509  0.23435  0.14361  1
 O  O10  1  0.19742  0.99344  0.10980  1
 O  O11  1  0.77491  0.73435  0.64361  1
 O  O12  1  0.22509  0.26565  0.14361  1
 O  O13  1  0.69742  0.50656  0.10980  1
 O  O14  1  0.30258  0.49344  0.60980  1
 O  O15  1  0.99221  0.84713  0.72988  1
 O  O16  1  0.27491  0.76565  0.64361  1
 S  S1  1  0.65705  0.36816  0.25297  1
 S  S2  1  0.34295  0.63184  0.75297  1
 S  S3  1  0.15705  0.13184  0.25297  1
 S  S4  1  0.84295  0.86816  0.75297  1
