CIF file written using JARVIS-Tools package.
data_Na3MgP2HO8
_symmetry_space_group_name_H-M  'P-1'
_cell_length_a       5.22206
_cell_length_b       6.83831
_cell_length_c       5.17425
_cell_angle_alpha    91.5827
_cell_angle_beta     117.06
_cell_angle_gamma    90.4671

_symmetry_Int_Tables_number  2
_chemical_formula_structural  Na3MgP2HO8
_chemical_formula_sum  Na3MgP2HO8
_cell_volume  164.43824470575524
_cell_formula_units_Z  1
loop_
  _symmetry_equiv_pos_site_id
 _symmetry_equiv_pos_as_xyz
 1  'x, y, z'
loop_
 _atom_site_type_symbol
 _atom_site_label
 _atom_site_symmetry_multiplicity
 _atom_site_fract_x
 _atom_site_fract_y
 _atom_site_fract_z
 _atom_site_fract_occupancy
 H  H1  1  0.50000  0.50000  -0.00000  1
 Mg  Mg1  1  0.00000  0.00000  0.00000  1
 Na  Na1  1  0.29501  0.78555  0.66164  1
 Na  Na2  1  0.70499  0.21445  0.33836  1
 Na  Na3  1  -0.00000  0.50000  -0.00000  1
 O  O1  1  0.21745  0.09785  0.78407  1
 O  O2  1  0.78255  0.90215  0.21593  1
 O  O3  1  0.68314  0.21157  0.78743  1
 O  O4  1  0.31686  0.78843  0.21257  1
 O  O5  1  0.31308  0.45654  0.75837  1
 O  O6  1  0.68692  0.54346  0.24163  1
 O  O7  1  0.79131  0.77209  0.67432  1
 O  O8  1  0.20869  0.22791  0.32568  1
 P  P1  1  0.35524  0.24270  0.66046  1
 P  P2  1  0.64476  0.75730  0.33954  1
