CIF file written using JARVIS-Tools package.
data_LiBPt3
_symmetry_space_group_name_H-M  'P-62m'
_cell_length_a       9.33674
_cell_length_b       9.33674
_cell_length_c       2.80851
_cell_angle_alpha    90
_cell_angle_beta     90
_cell_angle_gamma    120

_symmetry_Int_Tables_number  189
_chemical_formula_structural  LiBPt3
_chemical_formula_sum  Li3B3Pt9
_cell_volume  212.03011778297684
_cell_formula_units_Z  3
loop_
  _symmetry_equiv_pos_site_id
 _symmetry_equiv_pos_as_xyz
 1  'x, y, z'
loop_
 _atom_site_type_symbol
 _atom_site_label
 _atom_site_symmetry_multiplicity
 _atom_site_fract_x
 _atom_site_fract_y
 _atom_site_fract_z
 _atom_site_fract_occupancy
 B  B1  1  0.00000  0.00000  0.50000  1
 B  B2  1  0.66667  0.33333  0.00000  1
 B  B3  1  0.33333  0.66667  0.00000  1
 Li  Li1  1  0.00000  0.36220  0.00000  1
 Li  Li2  1  0.63780  0.63780  0.00000  1
 Li  Li3  1  0.36220  0.00000  0.00000  1
 Pt  Pt1  1  0.68180  0.16514  0.50000  1
 Pt  Pt2  1  0.48333  0.31820  0.50000  1
 Pt  Pt3  1  0.83486  0.51667  0.50000  1
 Pt  Pt4  1  0.16514  0.68180  0.50000  1
 Pt  Pt5  1  0.31820  0.48333  0.50000  1
 Pt  Pt6  1  0.51667  0.83486  0.50000  1
 Pt  Pt7  1  0.00000  0.82260  0.00000  1
 Pt  Pt8  1  0.17740  0.17740  0.00000  1
 Pt  Pt9  1  0.82260  -0.00000  0.00000  1
