CIF file written using JARVIS-Tools package.
data_Pb2O3
_symmetry_space_group_name_H-M  'P2_1/m'
_cell_length_a       5.81866
_cell_length_b       6.77781
_cell_length_c       8.22603
_cell_angle_alpha    90.0016
_cell_angle_beta     89.9987
_cell_angle_gamma    106.118

_symmetry_Int_Tables_number  11
_chemical_formula_structural  Pb2O3
_chemical_formula_sum  Pb8O2
_cell_volume  311.6641982771511
_cell_formula_units_Z  4
loop_
  _symmetry_equiv_pos_site_id
 _symmetry_equiv_pos_as_xyz
 1  'x, y, z'
loop_
 _atom_site_type_symbol
 _atom_site_label
 _atom_site_symmetry_multiplicity
 _atom_site_fract_x
 _atom_site_fract_y
 _atom_site_fract_z
 _atom_site_fract_occupancy
 O  O1  1  0.25646  0.31195  0.28895  1
 O  O2  1  0.84486  0.46167  0.50000  1
 O  O3  1  0.15516  0.53833  -0.00000  1
 O  O4  1  0.74353  0.18806  0.78895  1
 O  O5  1  -0.15515  0.96168  0.50000  1
 O  O6  1  0.25645  0.81194  0.71105  1
 O  O7  1  0.74355  0.68806  0.21106  1
 O  O8  1  0.25646  0.31193  0.71106  1
 O  O9  1  0.74354  0.68805  0.78895  1
 O  O10  1  0.15515  0.03833  0.00000  1
 O  O11  1  0.25646  0.81195  0.28894  1
 O  O12  1  0.74354  0.18805  0.21105  1
 Pb  Pb1  1  0.53764  0.64081  0.49999  1
 Pb  Pb2  1  -0.00000  0.50001  0.25000  1
 Pb  Pb3  1  -0.00002  -0.00001  0.75001  1
 Pb  Pb4  1  0.46235  0.35920  -0.00002  1
 Pb  Pb5  1  0.46236  0.85919  0.00001  1
 Pb  Pb6  1  0.00001  0.50000  0.74999  1
 Pb  Pb7  1  0.53765  0.14079  0.50001  1
 Pb  Pb8  1  -0.00000  0.00001  0.25000  1
