CIF file written using JARVIS-Tools package.
data_DyNiB4
_symmetry_space_group_name_H-M  'I4/mmm'
_cell_length_a       6.82235
_cell_length_b       6.82235
_cell_length_c       6.82235
_cell_angle_alpha    112.867
_cell_angle_beta     112.867
_cell_angle_gamma    102.875

_symmetry_Int_Tables_number  139
_chemical_formula_structural  DyNiB4
_chemical_formula_sum  Dy4Ni4B6
_cell_volume  242.0535364088474
_cell_formula_units_Z  4
loop_
  _symmetry_equiv_pos_site_id
 _symmetry_equiv_pos_as_xyz
 1  'x, y, z'
loop_
 _atom_site_type_symbol
 _atom_site_label
 _atom_site_symmetry_multiplicity
 _atom_site_fract_x
 _atom_site_fract_y
 _atom_site_fract_z
 _atom_site_fract_occupancy
 B  B1  1  0.88756  0.41826  0.00000  1
 B  B2  1  0.72509  0.88872  0.61381  1
 B  B3  1  0.88872  0.27491  0.16362  1
 B  B4  1  0.11128  0.72509  0.83638  1
 B  B5  1  0.72509  0.11128  0.83638  1
 B  B6  1  0.27491  0.88872  0.16362  1
 B  B7  1  0.11128  0.27491  0.38619  1
 B  B8  1  0.88872  0.72509  0.61381  1
 B  B9  1  0.11244  0.11244  0.53070  1
 B  B10  1  0.58174  0.58174  0.46930  1
 B  B11  1  0.27491  0.11128  0.38619  1
 B  B12  1  0.11244  0.58174  -0.00000  1
 B  B13  1  0.41826  0.88756  -0.00000  1
 B  B14  1  0.41826  0.41826  0.53070  1
 B  B15  1  0.88756  0.88756  0.46930  1
 B  B16  1  0.58174  0.11244  0.00000  1
 Dy  Dy1  1  0.79517  0.79517  0.00000  1
 Dy  Dy2  1  0.20483  0.20483  0.00000  1
 Dy  Dy3  1  0.75000  0.25000  0.50000  1
 Dy  Dy4  1  0.25000  0.75000  0.50000  1
 Ni  Ni1  1  0.50000  0.27141  0.77141  1
 Ni  Ni2  1  0.27141  0.50000  0.77141  1
 Ni  Ni3  1  0.72859  0.50000  0.22859  1
 Ni  Ni4  1  0.50000  0.72859  0.22859  1
