CIF file written using JARVIS-Tools package.
data_K4Sn3Se8
_symmetry_space_group_name_H-M  'Ccce'
_cell_length_a       8.18792
_cell_length_b       8.2226
_cell_length_c       14.6223
_cell_angle_alpha    106.33
_cell_angle_beta     90
_cell_angle_gamma    90

_symmetry_Int_Tables_number  68
_chemical_formula_structural  K4Sn3Se8
_chemical_formula_sum  K8Sn6Se6
_cell_volume  944.7510045203854
_cell_formula_units_Z  2
loop_
  _symmetry_equiv_pos_site_id
 _symmetry_equiv_pos_as_xyz
 1  'x, y, z'
loop_
 _atom_site_type_symbol
 _atom_site_label
 _atom_site_symmetry_multiplicity
 _atom_site_fract_x
 _atom_site_fract_y
 _atom_site_fract_z
 _atom_site_fract_occupancy
 K  K1  1  0.25000  0.64382  0.28765  1
 K  K2  1  0.25000  0.85618  0.71235  1
 K  K3  1  0.75000  0.35618  0.71235  1
 K  K4  1  0.75000  0.14382  0.28765  1
 K  K5  1  0.25000  0.98367  0.96735  1
 K  K6  1  0.25000  0.51633  0.03265  1
 K  K7  1  0.75000  0.01633  0.03265  1
 K  K8  1  0.75000  0.48367  0.96735  1
 Se  Se1  1  0.43548  0.26060  0.15143  1
 Se  Se2  1  0.43548  0.23940  0.84857  1
 Se  Se3  1  0.08381  0.35519  0.37766  1
 Se  Se4  1  0.91619  0.85519  0.37766  1
 Se  Se5  1  0.91619  0.64481  0.62234  1
 Se  Se6  1  0.08381  0.14481  0.62234  1
 Se  Se7  1  0.58381  0.52247  0.37766  1
 Se  Se8  1  0.06452  0.89083  0.15143  1
 Se  Se9  1  0.58381  0.97753  0.62234  1
 Se  Se10  1  0.06452  0.60917  0.84857  1
 Se  Se11  1  0.41619  0.02247  0.37766  1
 Se  Se12  1  0.56452  0.73940  0.84857  1
 Se  Se13  1  0.93548  0.10917  0.84857  1
 Se  Se14  1  0.41619  0.47753  0.62234  1
 Se  Se15  1  0.56452  0.76060  0.15143  1
 Se  Se16  1  0.93548  0.39083  0.15143  1
 Sn  Sn1  1  0.75000  0.75000  0.50000  1
 Sn  Sn2  1  0.25000  0.25000  0.50000  1
 Sn  Sn3  1  0.25000  0.12297  0.24594  1
 Sn  Sn4  1  0.25000  0.37703  0.75406  1
 Sn  Sn5  1  0.75000  0.87703  0.75406  1
 Sn  Sn6  1  0.75000  0.62297  0.24594  1
