CIF file written using JARVIS-Tools package.
data_RbMg6C
_symmetry_space_group_name_H-M  'Amm2'
_cell_length_a       11.5901
_cell_length_b       5.79808
_cell_length_c       3.47401
_cell_angle_alpha    90
_cell_angle_beta     90
_cell_angle_gamma    104.485

_symmetry_Int_Tables_number  38
_chemical_formula_structural  RbMg6C
_chemical_formula_sum  RbMg6C
_cell_volume  226.03348027044473
_cell_formula_units_Z  1
loop_
  _symmetry_equiv_pos_site_id
 _symmetry_equiv_pos_as_xyz
 1  'x, y, z'
loop_
 _atom_site_type_symbol
 _atom_site_label
 _atom_site_symmetry_multiplicity
 _atom_site_fract_x
 _atom_site_fract_y
 _atom_site_fract_z
 _atom_site_fract_occupancy
 C  C1  1  0.42487  0.96243  0.25000  1
 Mg  Mg1  1  0.58460  0.28713  0.25000  1
 Mg  Mg2  1  0.58460  0.79747  0.25000  1
 Mg  Mg3  1  0.37201  0.16736  0.75000  1
 Mg  Mg4  1  0.37201  0.70465  0.75000  1
 Mg  Mg5  1  0.78097  0.14049  0.75000  1
 Mg  Mg6  1  0.80120  0.65060  0.75000  1
 Rb  Rb1  1  0.07975  0.28987  0.25000  1
