CIF file written using JARVIS-Tools package.
data_BiS4N3Cl4
_symmetry_space_group_name_H-M  'P-1'
_cell_length_a       7.40321
_cell_length_b       9.39631
_cell_length_c       9.25535
_cell_angle_alpha    66.9953
_cell_angle_beta     85.939
_cell_angle_gamma    75.2437

_symmetry_Int_Tables_number  2
_chemical_formula_structural  BiS4N3Cl4
_chemical_formula_sum  Bi2S8N6Cl8
_cell_volume  572.7816040650771
_cell_formula_units_Z  2
loop_
  _symmetry_equiv_pos_site_id
 _symmetry_equiv_pos_as_xyz
 1  'x, y, z'
loop_
 _atom_site_type_symbol
 _atom_site_label
 _atom_site_symmetry_multiplicity
 _atom_site_fract_x
 _atom_site_fract_y
 _atom_site_fract_z
 _atom_site_fract_occupancy
 Bi  Bi1  1  0.74667  0.03872  0.88070  1
 Bi  Bi2  1  0.25333  0.96128  0.11930  1
 Cl  Cl1  1  0.89103  0.11725  0.12641  1
 Cl  Cl2  1  0.37712  0.21871  0.88522  1
 Cl  Cl3  1  0.34465  0.04931  0.32660  1
 Cl  Cl4  1  0.62288  0.78129  0.11478  1
 Cl  Cl5  1  0.10897  0.88275  0.87359  1
 Cl  Cl6  1  0.65535  0.95069  0.67340  1
 Cl  Cl7  1  0.19897  0.69136  0.33731  1
 Cl  Cl8  1  0.80103  0.30864  0.66269  1
 N  N1  1  0.08238  0.43546  0.18613  1
 N  N2  1  0.61026  0.69827  0.51746  1
 N  N3  1  0.91762  0.56454  0.81387  1
 N  N4  1  0.55006  0.58001  0.82552  1
 N  N5  1  0.38974  0.30173  0.48254  1
 N  N6  1  0.44994  0.41999  0.17448  1
 S  S1  1  0.00697  0.62770  0.64886  1
 S  S2  1  0.19170  0.28491  0.54373  1
 S  S3  1  -0.00697  0.37230  0.35114  1
 S  S4  1  0.74441  0.53295  0.91456  1
 S  S5  1  0.80830  0.71509  0.45627  1
 S  S6  1  0.52935  0.34502  0.35005  1
 S  S7  1  0.25559  0.46705  0.08544  1
 S  S8  1  0.47065  0.65498  0.64995  1
