CIF file written using JARVIS-Tools package.
data_LiMnSiO4
_symmetry_space_group_name_H-M  'P2_12_12_1'
_cell_length_a       4.78262
_cell_length_b       9.93568
_cell_length_c       5.95496
_cell_angle_alpha    90
_cell_angle_beta     90.0009
_cell_angle_gamma    90

_symmetry_Int_Tables_number  19
_chemical_formula_structural  LiMnSiO4
_chemical_formula_sum  Li4Mn4Si4O6
_cell_volume  282.97183141576755
_cell_formula_units_Z  4
loop_
  _symmetry_equiv_pos_site_id
 _symmetry_equiv_pos_as_xyz
 1  'x, y, z'
loop_
 _atom_site_type_symbol
 _atom_site_label
 _atom_site_symmetry_multiplicity
 _atom_site_fract_x
 _atom_site_fract_y
 _atom_site_fract_z
 _atom_site_fract_occupancy
 Li  Li1  1  0.75004  0.29468  0.72743  1
 Li  Li2  1  0.25002  0.79947  0.77258  1
 Li  Li3  1  0.74998  0.29947  0.22742  1
 Li  Li4  1  0.24996  0.79468  0.27257  1
 Mn  Mn1  1  0.73173  0.02325  0.00470  1
 Mn  Mn2  1  0.23174  0.07088  0.49530  1
 Mn  Mn3  1  0.76826  0.57088  0.50470  1
 Mn  Mn4  1  0.26827  0.52325  0.99530  1
 O  O1  1  0.52715  0.19418  0.98701  1
 O  O2  1  0.43623  0.23512  0.48440  1
 O  O3  1  0.53356  0.95849  0.74548  1
 O  O4  1  0.06379  0.35900  0.98441  1
 O  O5  1  0.97931  0.62448  0.81394  1
 O  O6  1  0.47285  0.69418  0.01299  1
 O  O7  1  0.47931  0.46965  0.68607  1
 O  O8  1  0.03357  0.13564  0.75452  1
 O  O9  1  0.52069  0.96965  0.31393  1
 O  O10  1  0.96643  0.63564  0.24548  1
 O  O11  1  0.56377  0.73512  0.51560  1
 O  O12  1  0.46644  0.45849  0.25452  1
 O  O13  1  0.02715  0.89995  0.51298  1
 O  O14  1  0.02069  0.12448  0.18606  1
 O  O15  1  0.97285  0.39995  0.48702  1
 O  O16  1  0.93621  0.85900  0.01559  1
 Si  Si1  1  0.18697  0.20382  0.97843  1
 Si  Si2  1  0.68696  0.89031  0.52157  1
 Si  Si3  1  0.31304  0.39031  0.47843  1
 Si  Si4  1  0.81303  0.70382  0.02157  1
