CIF file written using JARVIS-Tools package.
data_Ag2NClO3
_symmetry_space_group_name_H-M  'Pnma'
_cell_length_a       5.09444
_cell_length_b       6.44911
_cell_length_c       12.721
_cell_angle_alpha    90
_cell_angle_beta     90
_cell_angle_gamma    90

_symmetry_Int_Tables_number  62
_chemical_formula_structural  Ag2NClO3
_chemical_formula_sum  Ag8N4Cl4O2
_cell_volume  417.9427350838903
_cell_formula_units_Z  4
loop_
  _symmetry_equiv_pos_site_id
 _symmetry_equiv_pos_as_xyz
 1  'x, y, z'
loop_
 _atom_site_type_symbol
 _atom_site_label
 _atom_site_symmetry_multiplicity
 _atom_site_fract_x
 _atom_site_fract_y
 _atom_site_fract_z
 _atom_site_fract_occupancy
 Ag  Ag1  1  0.25000  0.25912  0.03414  1
 Ag  Ag2  1  0.75000  0.74088  0.96586  1
 Ag  Ag3  1  0.25000  0.86614  0.75214  1
 Ag  Ag4  1  0.75000  0.24088  0.53414  1
 Ag  Ag5  1  0.75000  0.63386  0.25214  1
 Ag  Ag6  1  0.25000  0.36614  0.74786  1
 Ag  Ag7  1  0.25000  0.75912  0.46586  1
 Ag  Ag8  1  0.75000  0.13386  0.24786  1
 Cl  Cl1  1  0.75000  0.89164  0.41148  1
 Cl  Cl2  1  0.75000  0.39164  0.08852  1
 Cl  Cl3  1  0.25000  0.10836  0.58852  1
 Cl  Cl4  1  0.25000  0.60836  0.91148  1
 N  N1  1  0.75000  0.15577  0.85421  1
 N  N2  1  0.25000  0.34423  0.35421  1
 N  N3  1  0.75000  0.65577  0.64579  1
 N  N4  1  0.25000  0.84423  0.14579  1
 O  O1  1  0.75000  0.81042  0.70753  1
 O  O2  1  0.75000  0.31042  0.79247  1
 O  O3  1  0.03397  0.42410  0.38526  1
 O  O4  1  0.46603  0.92410  0.11474  1
 O  O5  1  0.25000  0.18958  0.29247  1
 O  O6  1  0.96603  0.07590  0.88526  1
 O  O7  1  0.53397  0.57590  0.61474  1
 O  O8  1  0.46603  0.42410  0.38526  1
 O  O9  1  0.25000  0.68958  0.20753  1
 O  O10  1  0.96603  0.57590  0.61474  1
 O  O11  1  0.03397  0.92410  0.11474  1
 O  O12  1  0.53397  0.07590  0.88526  1
