CIF file written using JARVIS-Tools package.
data_CaH8Cl2O4
_symmetry_space_group_name_H-M  'P-1'
_cell_length_a       6.56167
_cell_length_b       6.27925
_cell_length_c       8.31266
_cell_angle_alpha    96.1602
_cell_angle_beta     93.6695
_cell_angle_gamma    110.822

_symmetry_Int_Tables_number  2
_chemical_formula_structural  CaH8Cl2O4
_chemical_formula_sum  Ca2H6Cl4O8
_cell_volume  316.35567039716267
_cell_formula_units_Z  2
loop_
  _symmetry_equiv_pos_site_id
 _symmetry_equiv_pos_as_xyz
 1  'x, y, z'
loop_
 _atom_site_type_symbol
 _atom_site_label
 _atom_site_symmetry_multiplicity
 _atom_site_fract_x
 _atom_site_fract_y
 _atom_site_fract_z
 _atom_site_fract_occupancy
 Ca  Ca1  1  0.88163  0.00404  0.74458  1
 Ca  Ca2  1  0.11837  0.99596  0.25542  1
 Cl  Cl1  1  0.70836  0.28149  0.95168  1
 Cl  Cl2  1  0.29164  0.71851  0.04832  1
 Cl  Cl3  1  0.26165  0.23503  0.59300  1
 Cl  Cl4  1  0.73835  0.76497  0.40700  1
 H  H1  1  0.90391  0.31580  0.18107  1
 H  H2  1  0.32723  0.18962  0.93288  1
 H  H3  1  0.67277  0.81038  0.06712  1
 H  H4  1  0.78881  0.64720  -0.00144  1
 H  H5  1  0.91882  0.53957  0.66835  1
 H  H6  1  0.21119  0.35280  0.00144  1
 H  H7  1  0.09609  0.68420  0.81893  1
 H  H8  1  0.20428  0.75453  0.53317  1
 H  H9  1  0.08118  0.46043  0.33165  1
 H  H10  1  0.39163  0.76174  0.41820  1
 H  H11  1  0.55439  0.24232  0.16974  1
 H  H12  1  0.79572  0.24547  0.46683  1
 H  H13  1  0.54986  0.40835  0.32436  1
 H  H14  1  0.45014  0.59165  0.67564  1
 H  H15  1  0.60837  0.23826  0.58180  1
 H  H16  1  0.44561  0.75768  0.83026  1
 O  O1  1  0.48515  0.24584  0.27173  1
 O  O2  1  0.76580  0.26011  0.58220  1
 O  O3  1  0.18601  0.18724  0.96946  1
 O  O4  1  0.81399  0.81276  0.03054  1
 O  O5  1  0.01924  0.69884  0.71655  1
 O  O6  1  0.98076  0.30116  0.28345  1
 O  O7  1  0.51485  0.75416  0.72827  1
 O  O8  1  0.23420  0.73989  0.41780  1
