CIF file written using JARVIS-Tools package.
data_Mg3Mn2Al18
_symmetry_space_group_name_H-M  'Fd-3m'
_cell_length_a       10.2409
_cell_length_b       10.2409
_cell_length_c       10.2409
_cell_angle_alpha    60
_cell_angle_beta     60
_cell_angle_gamma    60

_symmetry_Int_Tables_number  227
_chemical_formula_structural  Mg3Mn2Al18
_chemical_formula_sum  Mg6Mn4Al36
_cell_volume  759.4456074264549
_cell_formula_units_Z  2
loop_
  _symmetry_equiv_pos_site_id
 _symmetry_equiv_pos_as_xyz
 1  'x, y, z'
loop_
 _atom_site_type_symbol
 _atom_site_label
 _atom_site_symmetry_multiplicity
 _atom_site_fract_x
 _atom_site_fract_y
 _atom_site_fract_z
 _atom_site_fract_occupancy
 Al  Al1  1  0.67447  0.17447  0.94168  1
 Al  Al2  1  0.48757  0.98757  0.76243  1
 Al  Al3  1  0.48757  0.26243  0.76243  1
 Al  Al4  1  0.76243  0.98757  0.48757  1
 Al  Al5  1  0.48757  0.26243  0.48757  1
 Al  Al6  1  0.76243  0.98757  0.76243  1
 Al  Al7  1  0.23757  0.01243  0.51243  1
 Al  Al8  1  0.51243  0.73757  0.23757  1
 Al  Al9  1  0.51243  0.01243  0.23757  1
 Al  Al10  1  0.23757  0.73757  0.51243  1
 Al  Al11  1  0.51243  0.73757  0.51243  1
 Al  Al12  1  0.23757  0.01243  0.23757  1
 Al  Al13  1  0.32553  0.55832  0.32553  1
 Al  Al14  1  0.32553  0.29062  0.32553  1
 Al  Al15  1  0.79062  0.82553  0.05832  1
 Al  Al16  1  0.05832  0.82553  0.79062  1
 Al  Al17  1  0.79062  0.55832  0.32553  1
 Al  Al18  1  0.05832  0.29062  0.32553  1
 Al  Al19  1  0.32553  0.82553  0.79062  1
 Al  Al20  1  0.32553  0.82553  0.05832  1
 Al  Al21  1  0.32553  0.55832  0.79062  1
 Al  Al22  1  0.76243  0.26243  0.48757  1
 Al  Al23  1  0.05832  0.82553  0.32553  1
 Al  Al24  1  0.67447  0.70938  0.67447  1
 Al  Al25  1  0.32553  0.29062  0.05832  1
 Al  Al26  1  0.94168  0.70938  0.67447  1
 Al  Al27  1  0.79062  0.82553  0.32553  1
 Al  Al28  1  0.67447  0.17447  0.20938  1
 Al  Al29  1  0.67447  0.70938  0.94168  1
 Al  Al30  1  0.20938  0.44168  0.67447  1
 Al  Al31  1  0.94168  0.17447  0.67447  1
 Al  Al32  1  0.20938  0.17447  0.67447  1
 Al  Al33  1  0.94168  0.17447  0.20938  1
 Al  Al34  1  0.20938  0.17447  0.94168  1
 Al  Al35  1  0.67447  0.44168  0.67447  1
 Al  Al36  1  0.67447  0.44168  0.20938  1
 Mg  Mg1  1  0.00000  0.50000  0.50000  1
 Mg  Mg2  1  0.50000  0.50000  -0.00000  1
 Mg  Mg3  1  0.12500  0.62500  0.12500  1
 Mg  Mg4  1  0.87500  0.37500  0.87500  1
 Mg  Mg5  1  0.00000  0.50000  -0.00000  1
 Mg  Mg6  1  0.00000  0.00000  0.00000  1
 Mn  Mn1  1  0.50000  0.50000  0.50000  1
 Mn  Mn2  1  0.50000  0.00000  0.50000  1
 Mn  Mn3  1  0.50000  0.00000  -0.00000  1
 Mn  Mn4  1  0.00000  -0.00000  0.50000  1
