CIF file written using JARVIS-Tools package.
data_AlAu2
_symmetry_space_group_name_H-M  'Pnma'
_cell_length_a       3.31832
_cell_length_b       6.88157
_cell_length_c       8.95366
_cell_angle_alpha    90
_cell_angle_beta     90
_cell_angle_gamma    90

_symmetry_Int_Tables_number  62
_chemical_formula_structural  AlAu2
_chemical_formula_sum  Al4Au8
_cell_volume  204.4592057722743
_cell_formula_units_Z  4
loop_
  _symmetry_equiv_pos_site_id
 _symmetry_equiv_pos_as_xyz
 1  'x, y, z'
loop_
 _atom_site_type_symbol
 _atom_site_label
 _atom_site_symmetry_multiplicity
 _atom_site_fract_x
 _atom_site_fract_y
 _atom_site_fract_z
 _atom_site_fract_occupancy
 Al  Al1  1  0.25000  0.14051  0.22432  1
 Al  Al2  1  0.75000  0.35949  0.72432  1
 Al  Al3  1  0.75000  0.85949  0.77568  1
 Al  Al4  1  0.25000  0.64051  0.27568  1
 Au  Au1  1  0.25000  0.65017  0.57091  1
 Au  Au2  1  0.75000  0.84983  0.07091  1
 Au  Au3  1  0.75000  0.34983  0.42909  1
 Au  Au4  1  0.25000  0.15017  0.92909  1
 Au  Au5  1  0.25000  0.07835  0.61970  1
 Au  Au6  1  0.75000  0.42165  0.11970  1
 Au  Au7  1  0.75000  0.92165  0.38030  1
 Au  Au8  1  0.25000  0.57835  0.88030  1
