CIF file written using JARVIS-Tools package.
data_SiO2
_symmetry_space_group_name_H-M  'I-42m'
_cell_length_a       7.56362
_cell_length_b       7.56362
_cell_length_c       7.56362
_cell_angle_alpha    105.302
_cell_angle_beta     105.302
_cell_angle_gamma    118.177

_symmetry_Int_Tables_number  121
_chemical_formula_structural  SiO2
_chemical_formula_sum  Si8O6
_cell_volume  327.24641180494217
_cell_formula_units_Z  8
loop_
  _symmetry_equiv_pos_site_id
 _symmetry_equiv_pos_as_xyz
 1  'x, y, z'
loop_
 _atom_site_type_symbol
 _atom_site_label
 _atom_site_symmetry_multiplicity
 _atom_site_fract_x
 _atom_site_fract_y
 _atom_site_fract_z
 _atom_site_fract_occupancy
 O  O1  1  0.00925  0.60504  0.25100  1
 O  O2  1  -0.00000  0.25109  0.25109  1
 O  O3  1  0.12317  0.40926  -0.00000  1
 O  O4  1  0.60504  0.00925  0.25100  1
 O  O5  1  0.87683  0.87683  0.28608  1
 O  O6  1  0.40926  0.12317  0.00000  1
 O  O7  1  0.99075  0.24175  0.59579  1
 O  O8  1  0.00000  0.74891  0.74891  1
 O  O9  1  0.59074  0.59074  0.71392  1
 O  O10  1  0.75825  0.35404  0.74900  1
 O  O11  1  0.74891  -0.00000  0.74891  1
 O  O12  1  0.35404  0.75825  0.74900  1
 O  O13  1  0.39496  0.64596  0.40421  1
 O  O14  1  0.25109  0.00000  0.25109  1
 O  O15  1  0.64596  0.39496  0.40421  1
 O  O16  1  0.24175  0.99075  0.59579  1
 Si  Si1  1  0.52170  0.74908  0.65524  1
 Si  Si2  1  0.09384  0.86646  0.34476  1
 Si  Si3  1  0.25092  0.90616  0.77262  1
 Si  Si4  1  0.74908  0.52170  0.65524  1
 Si  Si5  1  0.86646  0.09384  0.34476  1
 Si  Si6  1  0.13354  0.47830  0.22738  1
 Si  Si7  1  0.90616  0.25092  0.77262  1
 Si  Si8  1  0.47830  0.13354  0.22738  1
