CIF file written using JARVIS-Tools package.
data_Ca2MnAlO5
_symmetry_space_group_name_H-M  'Ima2'
_cell_length_a       5.30723
_cell_length_b       5.59262
_cell_length_c       8.25552
_cell_angle_alpha    109.799
_cell_angle_beta     108.75
_cell_angle_gamma    90

_symmetry_Int_Tables_number  46
_chemical_formula_structural  Ca2MnAlO5
_chemical_formula_sum  Ca4Mn2Al2O0
_cell_volume  216.67892404703025
_cell_formula_units_Z  2
loop_
  _symmetry_equiv_pos_site_id
 _symmetry_equiv_pos_as_xyz
 1  'x, y, z'
loop_
 _atom_site_type_symbol
 _atom_site_label
 _atom_site_symmetry_multiplicity
 _atom_site_fract_x
 _atom_site_fract_y
 _atom_site_fract_z
 _atom_site_fract_occupancy
 Al  Al1  1  0.78871  0.67595  0.50000  1
 Al  Al2  1  0.28872  0.32405  0.50000  1
 Ca  Ca1  1  0.61840  0.07967  0.21983  1
 Ca  Ca2  1  0.89857  0.35984  0.78017  1
 Ca  Ca3  1  0.39857  0.92033  0.78017  1
 Ca  Ca4  1  0.11839  0.64016  0.21983  1
 Mn  Mn1  1  0.99797  0.00000  0.00000  1
 Mn  Mn2  1  0.49797  0.50000  0.00000  1
 O  O1  1  0.12302  0.60658  0.50000  1
 O  O2  1  0.61375  0.71840  0.29364  1
 O  O3  1  0.32011  0.28160  0.70636  1
 O  O4  1  0.11376  0.07524  0.29366  1
 O  O5  1  0.73572  0.73171  0.97187  1
 O  O6  1  0.23572  0.74015  0.97187  1
 O  O7  1  0.62302  0.39342  0.50000  1
 O  O8  1  0.26385  0.25985  0.02813  1
 O  O9  1  0.82010  0.92476  0.70634  1
 O  O10  1  0.76385  0.26829  0.02813  1
