CIF file written using JARVIS-Tools package.
data_TeO3
_symmetry_space_group_name_H-M  'Pnna'
_cell_length_a       5.20247
_cell_length_b       4.82047
_cell_length_c       8.48518
_cell_angle_alpha    90
_cell_angle_beta     90
_cell_angle_gamma    90

_symmetry_Int_Tables_number  52
_chemical_formula_structural  TeO3
_chemical_formula_sum  Te4O2
_cell_volume  212.79413121467857
_cell_formula_units_Z  4
loop_
  _symmetry_equiv_pos_site_id
 _symmetry_equiv_pos_as_xyz
 1  'x, y, z'
loop_
 _atom_site_type_symbol
 _atom_site_label
 _atom_site_symmetry_multiplicity
 _atom_site_fract_x
 _atom_site_fract_y
 _atom_site_fract_z
 _atom_site_fract_occupancy
 O  O1  1  0.14284  0.25000  0.25703  1
 O  O2  1  0.18488  0.28228  0.58087  1
 O  O3  1  0.18488  0.21772  0.93319  1
 O  O4  1  0.31512  0.71772  0.43319  1
 O  O5  1  0.31512  0.78228  0.08087  1
 O  O6  1  0.35716  0.75000  0.75703  1
 O  O7  1  0.64284  0.25000  0.75703  1
 O  O8  1  0.68488  0.21772  0.08087  1
 O  O9  1  0.68488  0.28228  0.43319  1
 O  O10  1  0.81512  0.78228  0.93319  1
 O  O11  1  0.81512  0.71772  0.58087  1
 O  O12  1  0.85716  0.75000  0.25703  1
 Te  Te1  1  0.00000  0.00000  0.09943  1
 Te  Te2  1  0.00000  0.50000  0.41463  1
 Te  Te3  1  0.50000  0.00000  0.91463  1
 Te  Te4  1  0.50000  0.50000  0.59943  1
