CIF file written using JARVIS-Tools package.
data_Mn2GeO4
_symmetry_space_group_name_H-M  'Pnma'
_cell_length_a       5.09677
_cell_length_b       6.31537
_cell_length_c       10.7096
_cell_angle_alpha    90
_cell_angle_beta     90
_cell_angle_gamma    90

_symmetry_Int_Tables_number  62
_chemical_formula_structural  Mn2GeO4
_chemical_formula_sum  Mn8Ge4O6
_cell_volume  344.7200208132145
_cell_formula_units_Z  4
loop_
  _symmetry_equiv_pos_site_id
 _symmetry_equiv_pos_as_xyz
 1  'x, y, z'
loop_
 _atom_site_type_symbol
 _atom_site_label
 _atom_site_symmetry_multiplicity
 _atom_site_fract_x
 _atom_site_fract_y
 _atom_site_fract_z
 _atom_site_fract_occupancy
 Ge  Ge1  1  0.06334  0.25000  0.59777  1
 Ge  Ge2  1  0.43666  0.25000  0.09777  1
 Ge  Ge3  1  0.56334  0.75000  0.90223  1
 Ge  Ge4  1  0.93666  0.75000  0.40223  1
 Mn  Mn1  1  0.00000  0.00000  0.00000  1
 Mn  Mn2  1  0.50000  0.00000  0.50000  1
 Mn  Mn3  1  0.01278  0.75000  0.71975  1
 Mn  Mn4  1  0.50000  0.50000  0.50000  1
 Mn  Mn5  1  0.48722  0.75000  0.21975  1
 Mn  Mn6  1  0.98722  0.25000  0.28025  1
 Mn  Mn7  1  0.51278  0.25000  0.78025  1
 Mn  Mn8  1  0.00000  0.50000  0.00000  1
 O  O1  1  0.22702  0.02666  0.66599  1
 O  O2  1  0.72702  0.52666  0.83401  1
 O  O3  1  0.77298  0.97334  0.33401  1
 O  O4  1  0.27298  0.02666  0.16599  1
 O  O5  1  0.77298  0.52666  0.33401  1
 O  O6  1  0.27298  0.47334  0.16599  1
 O  O7  1  0.72702  0.97334  0.83401  1
 O  O8  1  0.78347  0.25000  0.09326  1
 O  O9  1  0.27870  0.25000  0.94528  1
 O  O10  1  0.22130  0.25000  0.44528  1
 O  O11  1  0.72130  0.75000  0.05472  1
 O  O12  1  0.22702  0.47334  0.66599  1
 O  O13  1  0.21653  0.75000  0.90674  1
 O  O14  1  0.28347  0.75000  0.40674  1
 O  O15  1  0.77870  0.75000  0.55472  1
 O  O16  1  0.71653  0.25000  0.59326  1
