CIF file written using JARVIS-Tools package.
data_LiScP2O7
_symmetry_space_group_name_H-M  'P2_1'
_cell_length_a       4.93315
_cell_length_b       7.10021
_cell_length_c       8.37382
_cell_angle_alpha    90
_cell_angle_beta     90
_cell_angle_gamma    110.498

_symmetry_Int_Tables_number  4
_chemical_formula_structural  LiScP2O7
_chemical_formula_sum  Li2Sc2P4O4
_cell_volume  274.7351186038567
_cell_formula_units_Z  2
loop_
  _symmetry_equiv_pos_site_id
 _symmetry_equiv_pos_as_xyz
 1  'x, y, z'
loop_
 _atom_site_type_symbol
 _atom_site_label
 _atom_site_symmetry_multiplicity
 _atom_site_fract_x
 _atom_site_fract_y
 _atom_site_fract_z
 _atom_site_fract_occupancy
 Li  Li1  1  0.81337  0.33411  0.35817  1
 Li  Li2  1  0.18663  0.66589  0.85817  1
 O  O1  1  0.79608  0.50871  0.53481  1
 O  O2  1  0.20392  0.49129  0.03481  1
 O  O3  1  0.39765  0.59484  0.68094  1
 O  O4  1  0.87165  0.12731  0.20171  1
 O  O5  1  0.12835  0.87269  0.70171  1
 O  O6  1  0.07447  0.87445  0.32144  1
 O  O7  1  0.75774  0.48567  0.83725  1
 O  O8  1  0.62649  0.91799  0.43608  1
 O  O9  1  0.24226  0.51433  0.33725  1
 O  O10  1  0.37351  0.08201  0.93608  1
 O  O11  1  0.92553  0.12555  0.82144  1
 O  O12  1  0.38804  0.23614  0.65651  1
 O  O13  1  0.61196  0.76386  0.15651  1
 O  O14  1  0.60235  0.40516  0.18094  1
 P  P1  1  0.40650  0.53082  0.17926  1
 P  P2  1  0.80693  0.92536  0.28621  1
 P  P3  1  0.19307  0.07464  0.78621  1
 P  P4  1  0.59350  0.46918  0.67926  1
 Sc  Sc1  1  0.22072  0.73442  0.50063  1
 Sc  Sc2  1  0.77928  0.26558  0.00063  1
