CIF file written using JARVIS-Tools package.
data_B5Pb2ClO9
_symmetry_space_group_name_H-M  'Pnn2'
_cell_length_a       6.60553
_cell_length_b       11.4039
_cell_length_c       11.4282
_cell_angle_alpha    90
_cell_angle_beta     90
_cell_angle_gamma    90

_symmetry_Int_Tables_number  34
_chemical_formula_structural  B5Pb2ClO9
_chemical_formula_sum  B20Pb8Cl4O36
_cell_volume  860.8759413122867
_cell_formula_units_Z  4
loop_
  _symmetry_equiv_pos_site_id
 _symmetry_equiv_pos_as_xyz
 1  'x, y, z'
loop_
 _atom_site_type_symbol
 _atom_site_label
 _atom_site_symmetry_multiplicity
 _atom_site_fract_x
 _atom_site_fract_y
 _atom_site_fract_z
 _atom_site_fract_occupancy
 B  B1  1  0.81121  0.27265  0.95931  1
 B  B2  1  0.53663  0.77840  0.71303  1
 B  B3  1  0.35247  0.80529  0.31693  1
 B  B4  1  0.53663  0.22160  0.28697  1
 B  B5  1  0.70193  0.82463  0.22729  1
 B  B6  1  0.31121  0.22735  0.45931  1
 B  B7  1  0.85247  0.30529  0.18307  1
 B  B8  1  0.03663  0.27840  0.78697  1
 B  B9  1  0.47989  0.00135  0.24223  1
 B  B10  1  0.35247  0.19471  0.68307  1
 B  B11  1  0.81121  0.72735  0.04069  1
 B  B12  1  0.70193  0.17537  0.77271  1
 B  B13  1  0.03663  0.72160  0.21303  1
 B  B14  1  0.31121  0.77265  0.54069  1
 B  B15  1  0.20193  0.67537  0.72729  1
 B  B16  1  0.47989  -0.00135  0.75777  1
 B  B17  1  0.85247  0.69471  0.81693  1
 B  B18  1  0.97989  0.49865  0.74223  1
 B  B19  1  0.20193  0.32463  0.27271  1
 B  B20  1  0.97989  0.50135  0.25777  1
 Cl  Cl1  1  0.61934  0.50000  0.50000  1
 Cl  Cl2  1  0.37342  0.50000  0.00000  1
 Cl  Cl3  1  0.87342  0.00000  0.50000  1
 Cl  Cl4  1  0.11934  0.00000  0.00000  1
 O  O1  1  0.07192  0.27772  0.17892  1
 O  O2  1  0.91823  0.17832  0.74178  1
 O  O3  1  0.44458  0.11854  0.22496  1
 O  O4  1  0.44458  0.88146  0.77504  1
 O  O5  1  0.25422  0.73372  0.22541  1
 O  O6  1  0.25422  0.26628  0.77459  1
 O  O7  1  0.00290  0.70729  0.08293  1
 O  O8  1  0.65953  0.95184  0.20800  1
 O  O9  1  0.75422  0.76628  0.72541  1
 O  O10  1  0.15946  0.74131  0.61862  1
 O  O11  1  0.82817  0.56639  0.78920  1
 O  O12  1  0.75185  0.71884  0.92763  1
 O  O13  1  0.50290  0.20729  0.41707  1
 O  O14  1  0.25185  0.21884  0.57237  1
 O  O15  1  0.82817  0.43361  0.21080  1
 O  O16  1  0.65946  0.75869  0.11862  1
 O  O17  1  0.41823  0.32168  0.24178  1
 O  O18  1  0.75422  0.23372  0.27459  1
 O  O19  1  0.25185  0.78116  0.42763  1
 O  O20  1  0.65953  0.04816  0.79200  1
 O  O21  1  0.57192  0.22228  0.67892  1
 O  O22  1  0.32817  0.93361  0.28920  1
 O  O23  1  0.91823  0.82168  0.25822  1
 O  O24  1  0.15953  0.54816  0.70800  1
 O  O25  1  0.41823  0.67832  0.75822  1
 O  O26  1  0.57192  0.77772  0.32108  1
 O  O27  1  0.07192  0.72228  0.82108  1
 O  O28  1  0.50290  0.79271  0.58293  1
 O  O29  1  0.75185  0.28116  0.07237  1
 O  O30  1  0.15946  0.25869  0.38138  1
 O  O31  1  0.94458  0.38146  0.72496  1
 O  O32  1  0.65946  0.24131  0.88138  1
 O  O33  1  0.00290  0.29271  0.91707  1
 O  O34  1  0.94458  0.61854  0.27504  1
 O  O35  1  0.32817  0.06639  0.71080  1
 O  O36  1  0.15953  0.45184  0.29200  1
 Pb  Pb1  1  0.50060  0.45686  0.75326  1
 Pb  Pb2  1  0.33245  0.76056  0.97877  1
 Pb  Pb3  1  0.50060  0.54314  0.24674  1
 Pb  Pb4  1  0.33245  0.23944  0.02123  1
 Pb  Pb5  1  0.83245  0.26056  0.52123  1
 Pb  Pb6  1  0.00060  0.04314  0.25326  1
 Pb  Pb7  1  0.00060  0.95686  0.74674  1
 Pb  Pb8  1  0.83245  0.73944  0.47877  1
