CIF file written using JARVIS-Tools package.
data_TeI
_symmetry_space_group_name_H-M  'C2/m'
_cell_length_a       4.23923
_cell_length_b       8.11327
_cell_length_c       9.74
_cell_angle_alpha    85.78
_cell_angle_beta     77.4336
_cell_angle_gamma    74.8552

_symmetry_Int_Tables_number  12
_chemical_formula_structural  TeI
_chemical_formula_sum  Te4I4
_cell_volume  315.5661706658145
_cell_formula_units_Z  4
loop_
  _symmetry_equiv_pos_site_id
 _symmetry_equiv_pos_as_xyz
 1  'x, y, z'
loop_
 _atom_site_type_symbol
 _atom_site_label
 _atom_site_symmetry_multiplicity
 _atom_site_fract_x
 _atom_site_fract_y
 _atom_site_fract_z
 _atom_site_fract_occupancy
 I  I1  1  0.65409  0.88054  0.81128  1
 I  I2  1  0.10695  0.23076  0.55538  1
 I  I3  1  0.89305  0.76924  0.44462  1
 I  I4  1  0.34591  0.11946  0.18872  1
 Te  Te1  1  0.69980  0.41669  0.18373  1
 Te  Te2  1  0.08058  0.67971  0.15912  1
 Te  Te3  1  0.91942  0.32029  0.84088  1
 Te  Te4  1  0.30020  0.58331  0.81627  1
