CIF file written using JARVIS-Tools package.
data_FeCoB
_symmetry_space_group_name_H-M  'Fmmm'
_cell_length_a       5.01681
_cell_length_b       4.15598
_cell_length_c       4.08198
_cell_angle_alpha    75.0266
_cell_angle_beta     53.1573
_cell_angle_gamma    51.8162

_symmetry_Int_Tables_number  69
_chemical_formula_structural  FeCoB
_chemical_formula_sum  Fe2Co2B2
_cell_volume  52.67706185695569
_cell_formula_units_Z  2
loop_
  _symmetry_equiv_pos_site_id
 _symmetry_equiv_pos_as_xyz
 1  'x, y, z'
loop_
 _atom_site_type_symbol
 _atom_site_label
 _atom_site_symmetry_multiplicity
 _atom_site_fract_x
 _atom_site_fract_y
 _atom_site_fract_z
 _atom_site_fract_occupancy
 B  B1  1  0.25000  0.25000  0.25000  1
 B  B2  1  0.75000  0.75000  0.75000  1
 Co  Co1  1  0.66517  0.66517  0.33483  1
 Co  Co2  1  0.33483  0.33483  0.66517  1
 Fe  Fe1  1  0.83410  0.16590  0.83410  1
 Fe  Fe2  1  0.16590  0.83410  0.16590  1
