CIF file written using JARVIS-Tools package.
data_AuCS2Cl3
_symmetry_space_group_name_H-M  'C2/c'
_cell_length_a       9.08162
_cell_length_b       9.08162
_cell_length_c       10.7042
_cell_angle_alpha    63.7613
_cell_angle_beta     63.7613
_cell_angle_gamma    68.3116

_symmetry_Int_Tables_number  15
_chemical_formula_structural  AuCS2Cl3
_chemical_formula_sum  Au4C4S8Cl2
_cell_volume  693.449882062855
_cell_formula_units_Z  4
loop_
  _symmetry_equiv_pos_site_id
 _symmetry_equiv_pos_as_xyz
 1  'x, y, z'
loop_
 _atom_site_type_symbol
 _atom_site_label
 _atom_site_symmetry_multiplicity
 _atom_site_fract_x
 _atom_site_fract_y
 _atom_site_fract_z
 _atom_site_fract_occupancy
 Au  Au1  1  0.94537  0.71054  0.53931  1
 Au  Au2  1  0.28946  0.05463  0.96069  1
 Au  Au3  1  0.05463  0.28946  0.46069  1
 Au  Au4  1  0.71054  0.94537  0.03931  1
 C  C1  1  0.25165  0.69741  0.55041  1
 C  C2  1  0.30259  0.74835  0.94959  1
 C  C3  1  0.74835  0.30259  0.44959  1
 C  C4  1  0.69741  0.25165  0.05041  1
 Cl  Cl1  1  0.56417  0.30720  0.44530  1
 Cl  Cl2  1  0.69280  0.43583  0.05470  1
 Cl  Cl3  1  0.78745  0.89688  0.38549  1
 Cl  Cl4  1  0.75009  0.53902  0.67699  1
 Cl  Cl5  1  0.24991  0.46098  0.32301  1
 Cl  Cl6  1  0.46098  0.24991  0.82301  1
 Cl  Cl7  1  0.30720  0.56417  0.94530  1
 Cl  Cl8  1  0.53902  0.75009  0.17699  1
 Cl  Cl9  1  0.43583  0.69280  0.55470  1
 Cl  Cl10  1  0.10312  0.21255  0.11451  1
 Cl  Cl11  1  0.21255  0.10312  0.61451  1
 Cl  Cl12  1  0.89688  0.78745  0.88549  1
 S  S1  1  0.83515  0.14741  0.57455  1
 S  S2  1  0.85259  0.16485  0.92545  1
 S  S3  1  0.45154  0.86142  0.83173  1
 S  S4  1  0.86142  0.45154  0.33173  1
 S  S5  1  0.54846  0.13858  0.16827  1
 S  S6  1  0.16485  0.85259  0.42545  1
 S  S7  1  0.14741  0.83515  0.07455  1
 S  S8  1  0.13858  0.54846  0.66827  1
