CIF file written using JARVIS-Tools package.
data_Ho2H4CO7
_symmetry_space_group_name_H-M  'P2_1/c'
_cell_length_a       6.22819
_cell_length_b       5.97124
_cell_length_c       15.3908
_cell_angle_alpha    90
_cell_angle_beta     97.0484
_cell_angle_gamma    90

_symmetry_Int_Tables_number  14
_chemical_formula_structural  Ho2H4CO7
_chemical_formula_sum  Ho8H6C4O28
_cell_volume  568.0590207474617
_cell_formula_units_Z  4
loop_
  _symmetry_equiv_pos_site_id
 _symmetry_equiv_pos_as_xyz
 1  'x, y, z'
loop_
 _atom_site_type_symbol
 _atom_site_label
 _atom_site_symmetry_multiplicity
 _atom_site_fract_x
 _atom_site_fract_y
 _atom_site_fract_z
 _atom_site_fract_occupancy
 C  C1  1  0.89980  0.57328  0.88317  1
 C  C2  1  0.10020  0.07328  0.61683  1
 C  C3  1  0.10020  0.42672  0.11683  1
 C  C4  1  0.89980  0.92672  0.38317  1
 H  H1  1  0.18345  0.46936  0.55474  1
 H  H2  1  0.18345  0.03064  0.05474  1
 H  H3  1  0.81655  0.96936  0.94526  1
 H  H4  1  0.83351  0.94914  0.71456  1
 H  H5  1  0.16649  0.44914  0.78544  1
 H  H6  1  0.16649  0.05086  0.28544  1
 H  H7  1  0.83351  0.55086  0.21456  1
 H  H8  1  0.82724  0.49656  0.69748  1
 H  H9  1  0.17276  0.50344  0.30252  1
 H  H10  1  0.82724  0.00344  0.19748  1
 H  H11  1  0.77533  0.67107  0.07786  1
 H  H12  1  0.77533  0.82893  0.57786  1
 H  H13  1  0.22467  0.32893  0.92214  1
 H  H14  1  0.81655  0.53064  0.44526  1
 H  H15  1  0.17276  -0.00344  0.80252  1
 H  H16  1  0.22467  0.17107  0.42214  1
 Ho  Ho1  1  0.59157  0.25186  0.56381  1
 Ho  Ho2  1  0.42172  0.74366  0.18268  1
 Ho  Ho3  1  0.42172  0.75634  0.68268  1
 Ho  Ho4  1  0.57828  0.25634  0.81732  1
 Ho  Ho5  1  0.59157  0.24814  0.06381  1
 Ho  Ho6  1  0.40843  0.74814  0.43619  1
 Ho  Ho7  1  0.40843  0.75186  0.93619  1
 Ho  Ho8  1  0.57828  0.24366  0.31732  1
 O  O1  1  0.62246  0.86745  0.55995  1
 O  O2  1  0.37754  0.36745  0.94005  1
 O  O3  1  0.95777  0.12155  0.35568  1
 O  O4  1  0.04223  0.62155  0.14432  1
 O  O5  1  0.04223  0.87845  0.64432  1
 O  O6  1  0.30884  0.39158  0.12555  1
 O  O7  1  0.69116  0.89158  0.37445  1
 O  O8  1  0.62246  0.63255  0.05995  1
 O  O9  1  0.30884  0.10842  0.62555  1
 O  O10  1  0.69116  0.60842  0.87445  1
 O  O11  1  0.32758  0.53529  0.31057  1
 O  O12  1  0.95777  0.37845  0.85568  1
 O  O13  1  0.67683  0.04512  0.94686  1
 O  O14  1  0.67683  0.45488  0.44686  1
 O  O15  1  0.32317  0.95488  0.05314  1
 O  O16  1  0.69723  -0.01700  0.73769  1
 O  O17  1  0.30277  0.48300  0.76231  1
 O  O18  1  0.30277  0.01700  0.26231  1
 O  O19  1  0.69723  0.51700  0.23769  1
 O  O20  1  0.96742  0.22300  0.58372  1
 O  O21  1  0.03258  0.72300  0.91628  1
 O  O22  1  0.03258  0.77700  0.41628  1
 O  O23  1  0.96742  0.27700  0.08372  1
 O  O24  1  0.67242  0.46471  0.68943  1
 O  O25  1  0.32758  0.96471  0.81057  1
 O  O26  1  0.37754  0.13255  0.44005  1
 O  O27  1  0.32317  0.54512  0.55314  1
 O  O28  1  0.67242  0.03529  0.18943  1
