CIF file written using JARVIS-Tools package.
data_NbSe2
_symmetry_space_group_name_H-M  'C2'
_cell_length_a       3.50159
_cell_length_b       3.48378
_cell_length_c       6.7444
_cell_angle_alpha    82.3326
_cell_angle_beta     74.5999
_cell_angle_gamma    59.83

_symmetry_Int_Tables_number  5
_chemical_formula_structural  NbSe2
_chemical_formula_sum  NbSe2
_cell_volume  68.57461091778396
_cell_formula_units_Z  1
loop_
  _symmetry_equiv_pos_site_id
 _symmetry_equiv_pos_as_xyz
 1  'x, y, z'
loop_
 _atom_site_type_symbol
 _atom_site_label
 _atom_site_symmetry_multiplicity
 _atom_site_fract_x
 _atom_site_fract_y
 _atom_site_fract_z
 _atom_site_fract_occupancy
 Nb  Nb1  1  0.07584  0.84832  0.00000  1
 Se  Se1  1  0.87350  0.51681  0.74125  1
 Se  Se2  1  0.60966  0.51687  0.25875  1
