CIF file written using JARVIS-Tools package.
data_BaSc2Cu
_symmetry_space_group_name_H-M  'Cmmm'
_cell_length_a       5.12184
_cell_length_b       5.12184
_cell_length_c       3.76348
_cell_angle_alpha    90
_cell_angle_beta     90
_cell_angle_gamma    97.6652

_symmetry_Int_Tables_number  65
_chemical_formula_structural  BaSc2Cu
_chemical_formula_sum  BaSc2Cu
_cell_volume  97.84613125657131
_cell_formula_units_Z  1
loop_
  _symmetry_equiv_pos_site_id
 _symmetry_equiv_pos_as_xyz
 1  'x, y, z'
loop_
 _atom_site_type_symbol
 _atom_site_label
 _atom_site_symmetry_multiplicity
 _atom_site_fract_x
 _atom_site_fract_y
 _atom_site_fract_z
 _atom_site_fract_occupancy
 Ba  Ba1  1  0.50000  0.00000  0.50000  1
 Cu  Cu1  1  0.00000  0.50000  0.50000  1
 Sc  Sc1  1  0.00000  0.00000  0.00000  1
 Sc  Sc2  1  0.50000  0.50000  0.00000  1
