CIF file written using JARVIS-Tools package.
data_Sr2TiO4
_symmetry_space_group_name_H-M  'I4/mmm'
_cell_length_a       3.90837
_cell_length_b       3.90837
_cell_length_c       6.90334
_cell_angle_alpha    106.444
_cell_angle_beta     106.444
_cell_angle_gamma    90.0001

_symmetry_Int_Tables_number  139
_chemical_formula_structural  Sr2TiO4
_chemical_formula_sum  Sr2TiO4
_cell_volume  96.63220813269514
_cell_formula_units_Z  1
loop_
  _symmetry_equiv_pos_site_id
 _symmetry_equiv_pos_as_xyz
 1  'x, y, z'
loop_
 _atom_site_type_symbol
 _atom_site_label
 _atom_site_symmetry_multiplicity
 _atom_site_fract_x
 _atom_site_fract_y
 _atom_site_fract_z
 _atom_site_fract_occupancy
 O  O1  1  0.84144  0.84144  0.68288  1
 O  O2  1  0.15856  0.15856  0.31712  1
 O  O3  1  -0.00000  0.50000  -0.00000  1
 O  O4  1  0.50000  -0.00000  -0.00000  1
 Sr  Sr1  1  0.64534  0.64534  0.29069  1
 Sr  Sr2  1  0.35466  0.35466  0.70931  1
 Ti  Ti1  1  0.00000  0.00000  0.00000  1
