CIF file written using JARVIS-Tools package.
data_SiO2
_symmetry_space_group_name_H-M  'Imma'
_cell_length_a       8.2668
_cell_length_b       13.1937
_cell_length_c       13.1937
_cell_angle_alpha    67.1366
_cell_angle_beta     71.7426
_cell_angle_gamma    71.7426

_symmetry_Int_Tables_number  74
_chemical_formula_structural  SiO2
_chemical_formula_sum  Si24O48
_cell_volume  1228.6798874625779
_cell_formula_units_Z  24
loop_
  _symmetry_equiv_pos_site_id
 _symmetry_equiv_pos_as_xyz
 1  'x, y, z'
loop_
 _atom_site_type_symbol
 _atom_site_label
 _atom_site_symmetry_multiplicity
 _atom_site_fract_x
 _atom_site_fract_y
 _atom_site_fract_z
 _atom_site_fract_occupancy
 O  O1  1  0.33195  0.19806  0.13804  1
 O  O2  1  0.50000  0.28568  0.21432  1
 O  O3  1  0.22863  0.72029  0.40004  1
 O  O4  1  0.77137  0.27971  0.59996  1
 O  O5  1  0.65104  0.72029  0.40004  1
 O  O6  1  0.66805  0.80194  0.86196  1
 O  O7  1  0.26108  0.50000  0.50000  1
 O  O8  1  0.07702  0.64080  0.61588  1
 O  O9  1  0.33195  0.63804  0.69806  1
 O  O10  1  0.43724  0.68252  0.00421  1
 O  O11  1  0.85472  0.70215  0.20215  1
 O  O12  1  0.00000  0.71432  0.78568  1
 O  O13  1  0.07702  0.11588  0.14080  1
 O  O14  1  0.66631  0.11588  0.14080  1
 O  O15  1  0.92298  0.35920  0.38412  1
 O  O16  1  0.65104  0.90004  0.22029  1
 O  O17  1  0.48571  0.26429  0.76429  1
 O  O18  1  0.51429  0.73571  0.23571  1
 O  O19  1  0.87604  0.50421  0.18252  1
 O  O20  1  0.56276  0.49579  0.81748  1
 O  O21  1  0.92298  0.88412  0.85920  1
 O  O22  1  -0.00000  0.28568  0.21432  1
 O  O23  1  0.50000  0.71432  0.78568  1
 O  O24  1  0.77137  0.09996  0.77971  1
 O  O25  1  0.95576  0.95741  0.13107  1
 O  O26  1  0.15109  0.59891  0.09891  1
 O  O27  1  0.33369  0.88412  0.85920  1
 O  O28  1  0.95576  0.63107  0.45741  1
 O  O29  1  0.43724  0.50421  0.18252  1
 O  O30  1  0.12396  0.49579  0.81748  1
 O  O31  1  0.33369  0.35920  0.38412  1
 O  O32  1  0.66805  0.36196  0.30194  1
 O  O33  1  0.34896  0.09996  0.77971  1
 O  O34  1  0.34896  0.27971  0.59996  1
 O  O35  1  0.04424  0.04259  0.86893  1
 O  O36  1  0.56276  0.31748  0.99579  1
 O  O37  1  0.12396  0.31748  0.99579  1
 O  O38  1  0.73892  0.50000  0.50000  1
 O  O39  1  0.24097  0.70215  0.20215  1
 O  O40  1  0.87604  0.68252  0.00421  1
 O  O41  1  0.84891  0.40109  0.90109  1
 O  O42  1  0.73892  -0.00000  -0.00000  1
 O  O43  1  0.26108  0.00000  0.00000  1
 O  O44  1  0.04424  0.36893  0.54259  1
 O  O45  1  0.14528  0.29785  0.79785  1
 O  O46  1  0.22863  0.90004  0.22029  1
 O  O47  1  0.66631  0.64080  0.61588  1
 O  O48  1  0.75903  0.29785  0.79785  1
 Si  Si1  1  0.86950  0.37690  0.50586  1
 Si  Si2  1  0.13382  0.23011  0.12157  1
 Si  Si3  1  0.48551  0.37843  0.26989  1
 Si  Si4  1  0.06066  0.37787  0.87787  1
 Si  Si5  1  0.86618  0.37843  0.26989  1
 Si  Si6  1  0.75227  0.99414  0.12310  1
 Si  Si7  1  0.69803  0.23550  0.73550  1
 Si  Si8  1  0.48551  0.76989  0.87843  1
 Si  Si9  1  0.31640  0.62213  0.12213  1
 Si  Si10  1  0.13050  0.99414  0.12310  1
 Si  Si11  1  0.86618  0.76989  0.87843  1
 Si  Si12  1  0.33097  0.23550  0.73550  1
 Si  Si13  1  0.66903  0.76450  0.26450  1
 Si  Si14  1  0.13382  0.62157  0.73011  1
 Si  Si15  1  0.51449  0.62157  0.73011  1
 Si  Si16  1  0.93934  0.62213  0.12213  1
 Si  Si17  1  0.13050  0.62310  0.49414  1
 Si  Si18  1  0.24773  0.00586  0.87690  1
 Si  Si19  1  0.68360  0.37787  0.87787  1
 Si  Si20  1  0.30197  0.76450  0.26450  1
 Si  Si21  1  0.51449  0.23011  0.12157  1
 Si  Si22  1  0.24773  0.37690  0.50586  1
 Si  Si23  1  0.86950  0.00586  0.87690  1
 Si  Si24  1  0.75227  0.62310  0.49414  1
