CIF file written using JARVIS-Tools package.
data_K2MgMo2H4O10
_symmetry_space_group_name_H-M  'P-1'
_cell_length_a       5.29656
_cell_length_b       7.60602
_cell_length_c       7.22682
_cell_angle_alpha    73.7646
_cell_angle_beta     123.828
_cell_angle_gamma    111.433

_symmetry_Int_Tables_number  2
_chemical_formula_structural  K2MgMo2H4O10
_chemical_formula_sum  K2MgMo2H4O0
_cell_volume  224.03291280539034
_cell_formula_units_Z  1
loop_
  _symmetry_equiv_pos_site_id
 _symmetry_equiv_pos_as_xyz
 1  'x, y, z'
loop_
 _atom_site_type_symbol
 _atom_site_label
 _atom_site_symmetry_multiplicity
 _atom_site_fract_x
 _atom_site_fract_y
 _atom_site_fract_z
 _atom_site_fract_occupancy
 H  H1  1  0.16883  0.37984  0.08022  1
 H  H2  1  0.83117  0.62016  0.91978  1
 H  H3  1  0.88831  0.67817  0.27283  1
 H  H4  1  0.11169  0.32183  0.72717  1
 K  K1  1  0.54079  0.74906  0.43785  1
 K  K2  1  0.45921  0.25094  0.56215  1
 Mg  Mg1  1  0.00000  0.00000  0.00000  1
 Mo  Mo1  1  0.35494  0.70404  0.88702  1
 Mo  Mo2  1  0.64506  0.29596  0.11298  1
 O  O1  1  0.02086  0.56620  0.67730  1
 O  O2  1  0.46984  0.10626  0.25345  1
 O  O3  1  0.61667  0.53335  0.87222  1
 O  O4  1  0.53016  0.89374  0.74655  1
 O  O5  1  0.82996  0.19224  0.04067  1
 O  O6  1  0.18448  0.21050  0.82503  1
 O  O7  1  0.17004  0.80776  0.95933  1
 O  O8  1  0.38333  0.46665  0.12778  1
 O  O9  1  0.81552  0.78950  0.17497  1
 O  O10  1  -0.02086  0.43380  0.32270  1
