CIF file written using JARVIS-Tools package.
data_Ho2Au
_symmetry_space_group_name_H-M  'Pnma'
_cell_length_a       4.89188
_cell_length_b       7.0061
_cell_length_c       8.86958
_cell_angle_alpha    90
_cell_angle_beta     90
_cell_angle_gamma    90

_symmetry_Int_Tables_number  62
_chemical_formula_structural  Ho2Au
_chemical_formula_sum  Ho8Au4
_cell_volume  303.9869558996814
_cell_formula_units_Z  4
loop_
  _symmetry_equiv_pos_site_id
 _symmetry_equiv_pos_as_xyz
 1  'x, y, z'
loop_
 _atom_site_type_symbol
 _atom_site_label
 _atom_site_symmetry_multiplicity
 _atom_site_fract_x
 _atom_site_fract_y
 _atom_site_fract_z
 _atom_site_fract_occupancy
 Au  Au1  1  0.25000  0.25860  0.09823  1
 Au  Au2  1  0.75000  0.24140  0.59823  1
 Au  Au3  1  0.75000  0.74140  0.90177  1
 Au  Au4  1  0.25000  0.75860  0.40177  1
 Ho  Ho1  1  0.25000  0.84830  0.08099  1
 Ho  Ho2  1  0.75000  0.65170  0.58099  1
 Ho  Ho3  1  0.75000  0.15170  0.91901  1
 Ho  Ho4  1  0.25000  0.34830  0.41901  1
 Ho  Ho5  1  0.25000  0.48843  0.82254  1
 Ho  Ho6  1  0.75000  0.01157  0.32254  1
 Ho  Ho7  1  0.75000  0.51157  0.17746  1
 Ho  Ho8  1  0.25000  0.98843  0.67746  1
