CIF file written using JARVIS-Tools package.
data_NaGaSi2O6
_symmetry_space_group_name_H-M  'C2/c'
_cell_length_a       5.32529
_cell_length_b       6.5195
_cell_length_c       6.5195
_cell_angle_alpha    84.4704
_cell_angle_beta     77.1017
_cell_angle_gamma    77.1017

_symmetry_Int_Tables_number  15
_chemical_formula_structural  NaGaSi2O6
_chemical_formula_sum  Na2Ga2Si4O2
_cell_volume  214.8096633898766
_cell_formula_units_Z  2
loop_
  _symmetry_equiv_pos_site_id
 _symmetry_equiv_pos_as_xyz
 1  'x, y, z'
loop_
 _atom_site_type_symbol
 _atom_site_label
 _atom_site_symmetry_multiplicity
 _atom_site_fract_x
 _atom_site_fract_y
 _atom_site_fract_z
 _atom_site_fract_occupancy
 Ga  Ga1  1  0.25000  0.09752  0.90248  1
 Ga  Ga2  1  0.75000  0.90248  0.09752  1
 Na  Na1  1  0.25000  0.70002  0.29998  1
 Na  Na2  1  0.75000  0.29998  0.70002  1
 O  O1  1  0.00754  0.63595  0.65780  1
 O  O2  1  0.50754  0.65780  0.63595  1
 O  O3  1  0.99246  0.36405  0.34220  1
 O  O4  1  0.19415  0.09885  0.61863  1
 O  O5  1  0.30585  0.38137  0.90115  1
 O  O6  1  0.80585  0.90115  0.38137  1
 O  O7  1  0.69415  0.61863  0.09885  1
 O  O8  1  0.13488  0.80860  0.96708  1
 O  O9  1  0.86512  0.19140  0.03292  1
 O  O10  1  0.36512  0.03292  0.19140  1
 O  O11  1  0.49246  0.34220  0.36405  1
 O  O12  1  0.63488  0.96708  0.80860  1
 Si  Si1  1  0.23341  0.61699  0.80009  1
 Si  Si2  1  0.76659  0.38301  0.19991  1
 Si  Si3  1  0.26659  0.19991  0.38301  1
 Si  Si4  1  0.73341  0.80009  0.61699  1
