CIF file written using JARVIS-Tools package.
data_Sr2Cu2NiS2O2
_symmetry_space_group_name_H-M  'I4/mmm'
_cell_length_a       3.87441
_cell_length_b       3.87441
_cell_length_c       9.74927
_cell_angle_alpha    101.461
_cell_angle_beta     101.461
_cell_angle_gamma    90

_symmetry_Int_Tables_number  139
_chemical_formula_structural  Sr2Cu2NiS2O2
_chemical_formula_sum  Sr2Cu2NiS2O2
_cell_volume  140.4499926035952
_cell_formula_units_Z  1
loop_
  _symmetry_equiv_pos_site_id
 _symmetry_equiv_pos_as_xyz
 1  'x, y, z'
loop_
 _atom_site_type_symbol
 _atom_site_label
 _atom_site_symmetry_multiplicity
 _atom_site_fract_x
 _atom_site_fract_y
 _atom_site_fract_z
 _atom_site_fract_occupancy
 Cu  Cu1  1  0.25000  0.75000  0.50000  1
 Cu  Cu2  1  0.75000  0.25000  0.50000  1
 Ni  Ni1  1  0.00000  0.00000  0.00000  1
 O  O1  1  0.50000  0.00000  -0.00000  1
 O  O2  1  1.00000  0.50000  -0.00000  1
 S  S1  1  0.82743  0.82743  0.65485  1
 S  S2  1  0.17257  0.17257  0.34515  1
 Sr  Sr1  1  0.59110  0.59110  0.18221  1
 Sr  Sr2  1  0.40890  0.40890  0.81779  1
