CIF file written using JARVIS-Tools package.
data_Na4BeAlSi4ClO12
_symmetry_space_group_name_H-M  'I-4'
_cell_length_a       7.58798
_cell_length_b       7.58798
_cell_length_c       7.58798
_cell_angle_alpha    110.305
_cell_angle_beta     110.305
_cell_angle_gamma    107.817

_symmetry_Int_Tables_number  82
_chemical_formula_structural  Na4BeAlSi4ClO12
_chemical_formula_sum  Na4BeAlSi4ClO2
_cell_volume  336.11345185900404
_cell_formula_units_Z  1
loop_
  _symmetry_equiv_pos_site_id
 _symmetry_equiv_pos_as_xyz
 1  'x, y, z'
loop_
 _atom_site_type_symbol
 _atom_site_label
 _atom_site_symmetry_multiplicity
 _atom_site_fract_x
 _atom_site_fract_y
 _atom_site_fract_z
 _atom_site_fract_occupancy
 Al  Al1  1  0.25000  0.75000  0.50000  1
 Be  Be1  1  0.75000  0.25000  0.50000  1
 Cl  Cl1  1  0.00000  0.00000  0.00000  1
 Na  Na1  1  0.97197  0.01482  0.34907  1
 Na  Na2  1  0.66575  0.62290  0.65093  1
 Na  Na3  1  0.37710  0.02803  0.04285  1
 Na  Na4  1  0.98518  0.33425  0.95715  1
 O  O1  1  0.71163  0.69382  0.28307  1
 O  O2  1  0.99008  0.55663  0.27292  1
 O  O3  1  0.28371  0.71716  0.72708  1
 O  O4  1  0.44337  0.71629  0.43345  1
 O  O5  1  0.28284  0.00992  0.56655  1
 O  O6  1  0.60775  0.99692  0.30662  1
 O  O7  1  0.69030  0.30113  0.69338  1
 O  O8  1  0.30618  0.58925  0.01780  1
 O  O9  1  0.41075  0.42855  0.71693  1
 O  O10  1  0.57145  0.28837  0.98220  1
 O  O11  1  0.00308  0.30970  0.61083  1
 O  O12  1  0.69887  0.39225  0.38917  1
 Si  Si1  1  0.24160  0.50956  0.75988  1
 Si  Si2  1  0.74968  0.48171  0.24012  1
 Si  Si3  1  0.51829  0.75840  0.26797  1
 Si  Si4  1  0.49044  0.25032  0.73203  1
