CIF file written using JARVIS-Tools package.
data_CaMnSi2O6
_symmetry_space_group_name_H-M  'C2/c'
_cell_length_a       5.29134
_cell_length_b       6.75514
_cell_length_c       6.75513
_cell_angle_alpha    84.7193
_cell_angle_beta     79.3216
_cell_angle_gamma    79.3216

_symmetry_Int_Tables_number  15
_chemical_formula_structural  CaMnSi2O6
_chemical_formula_sum  Ca2Mn2Si4O2
_cell_volume  232.74649713004177
_cell_formula_units_Z  2
loop_
  _symmetry_equiv_pos_site_id
 _symmetry_equiv_pos_as_xyz
 1  'x, y, z'
loop_
 _atom_site_type_symbol
 _atom_site_label
 _atom_site_symmetry_multiplicity
 _atom_site_fract_x
 _atom_site_fract_y
 _atom_site_fract_z
 _atom_site_fract_occupancy
 Ca  Ca1  1  0.75000  0.30259  0.69741  1
 Ca  Ca2  1  0.25000  0.69741  0.30259  1
 Mn  Mn1  1  0.25000  0.09570  0.90430  1
 Mn  Mn2  1  0.75000  0.90430  0.09570  1
 O  O1  1  -0.00960  0.62755  0.67351  1
 O  O2  1  0.49040  0.67351  0.62755  1
 O  O3  1  0.00960  0.37245  0.32649  1
 O  O4  1  0.16856  0.11780  0.60862  1
 O  O5  1  0.33144  0.39138  0.88220  1
 O  O6  1  0.83144  0.88220  0.39138  1
 O  O7  1  0.66856  0.60862  0.11780  1
 O  O8  1  0.34760  0.02646  0.21346  1
 O  O9  1  0.84760  0.21346  0.02646  1
 O  O10  1  0.15240  0.78654  0.97354  1
 O  O11  1  0.50960  0.32649  0.37245  1
 O  O12  1  0.65240  0.97354  0.78654  1
 Si  Si1  1  0.26589  0.19437  0.38025  1
 Si  Si2  1  0.23411  0.61975  0.80563  1
 Si  Si3  1  0.76590  0.38025  0.19437  1
 Si  Si4  1  0.73410  0.80563  0.61975  1
