CIF file written using JARVIS-Tools package.
data_Mg2GeO4
_symmetry_space_group_name_H-M  'Pnma'
_cell_length_a       4.96332
_cell_length_b       6.06435
_cell_length_c       10.3553
_cell_angle_alpha    90
_cell_angle_beta     90
_cell_angle_gamma    90

_symmetry_Int_Tables_number  62
_chemical_formula_structural  Mg2GeO4
_chemical_formula_sum  Mg8Ge4O6
_cell_volume  311.6869404934714
_cell_formula_units_Z  4
loop_
  _symmetry_equiv_pos_site_id
 _symmetry_equiv_pos_as_xyz
 1  'x, y, z'
loop_
 _atom_site_type_symbol
 _atom_site_label
 _atom_site_symmetry_multiplicity
 _atom_site_fract_x
 _atom_site_fract_y
 _atom_site_fract_z
 _atom_site_fract_occupancy
 Ge  Ge1  1  0.06285  0.25000  0.59509  1
 Ge  Ge2  1  0.43715  0.25000  0.09509  1
 Ge  Ge3  1  0.56285  0.75000  0.90491  1
 Ge  Ge4  1  0.93715  0.75000  0.40491  1
 Mg  Mg1  1  0.00000  0.00000  0.00000  1
 Mg  Mg2  1  0.50000  0.00000  0.50000  1
 Mg  Mg3  1  0.00731  0.75000  0.72424  1
 Mg  Mg4  1  0.50000  0.50000  0.50000  1
 Mg  Mg5  1  0.49269  0.75000  0.22424  1
 Mg  Mg6  1  0.99269  0.25000  0.27576  1
 Mg  Mg7  1  0.50731  0.25000  0.77576  1
 Mg  Mg8  1  0.00000  0.50000  0.00000  1
 O  O1  1  0.23544  0.01955  0.66497  1
 O  O2  1  0.73544  0.51955  0.83503  1
 O  O3  1  0.76456  0.98045  0.33503  1
 O  O4  1  0.26456  0.01955  0.16497  1
 O  O5  1  0.76456  0.51955  0.33503  1
 O  O6  1  0.26456  0.48045  0.16497  1
 O  O7  1  0.73544  0.98045  0.83503  1
 O  O8  1  0.79129  0.25000  0.09189  1
 O  O9  1  0.23018  0.25000  0.43925  1
 O  O10  1  0.26982  0.25000  0.93925  1
 O  O11  1  0.76982  0.75000  0.56075  1
 O  O12  1  0.23544  0.48045  0.66497  1
 O  O13  1  0.20871  0.75000  0.90811  1
 O  O14  1  0.29129  0.75000  0.40811  1
 O  O15  1  0.73018  0.75000  0.06075  1
 O  O16  1  0.70871  0.25000  0.59189  1
