CIF file written using JARVIS-Tools package.
data_ErMnB4
_symmetry_space_group_name_H-M  'Pbam'
_cell_length_a       3.39959
_cell_length_b       5.87271
_cell_length_c       11.3506
_cell_angle_alpha    90
_cell_angle_beta     90
_cell_angle_gamma    90

_symmetry_Int_Tables_number  55
_chemical_formula_structural  ErMnB4
_chemical_formula_sum  Er4Mn4B6
_cell_volume  226.61215446808512
_cell_formula_units_Z  4
loop_
  _symmetry_equiv_pos_site_id
 _symmetry_equiv_pos_as_xyz
 1  'x, y, z'
loop_
 _atom_site_type_symbol
 _atom_site_label
 _atom_site_symmetry_multiplicity
 _atom_site_fract_x
 _atom_site_fract_y
 _atom_site_fract_z
 _atom_site_fract_occupancy
 B  B1  1  0.50000  0.11253  0.45338  1
 B  B2  1  0.50000  0.28206  0.68396  1
 B  B3  1  0.50000  0.71794  0.31604  1
 B  B4  1  0.50000  0.21794  0.18396  1
 B  B5  1  0.50000  0.02485  0.30857  1
 B  B6  1  0.50000  0.36241  0.53200  1
 B  B7  1  0.50000  0.63759  0.46800  1
 B  B8  1  0.50000  0.78206  0.81604  1
 B  B9  1  0.50000  0.86241  0.96800  1
 B  B10  1  0.50000  0.38747  0.95338  1
 B  B11  1  0.50000  0.61253  0.04662  1
 B  B12  1  0.50000  0.97515  0.69143  1
 B  B13  1  0.50000  0.88747  0.54662  1
 B  B14  1  0.50000  0.47515  0.80857  1
 B  B15  1  0.50000  0.52485  0.19143  1
 B  B16  1  0.50000  0.13759  0.03200  1
 Er  Er1  1  0.00000  0.62613  0.65040  1
 Er  Er2  1  0.00000  0.37387  0.34960  1
 Er  Er3  1  0.00000  0.87387  0.15040  1
 Er  Er4  1  0.00000  0.12613  0.84960  1
 Mn  Mn1  1  0.00000  0.62778  0.91617  1
 Mn  Mn2  1  0.00000  0.37222  0.08383  1
 Mn  Mn3  1  0.00000  0.87222  0.41617  1
 Mn  Mn4  1  0.00000  0.12778  0.58383  1
