CIF file written using JARVIS-Tools package.
data_SCl2O
_symmetry_space_group_name_H-M  'P2_1/c'
_cell_length_a       7.45765
_cell_length_b       5.76505
_cell_length_c       8.73162
_cell_angle_alpha    90
_cell_angle_beta     99.9139
_cell_angle_gamma    90

_symmetry_Int_Tables_number  14
_chemical_formula_structural  SCl2O
_chemical_formula_sum  S4Cl8O4
_cell_volume  369.7989483111846
_cell_formula_units_Z  4
loop_
  _symmetry_equiv_pos_site_id
 _symmetry_equiv_pos_as_xyz
 1  'x, y, z'
loop_
 _atom_site_type_symbol
 _atom_site_label
 _atom_site_symmetry_multiplicity
 _atom_site_fract_x
 _atom_site_fract_y
 _atom_site_fract_z
 _atom_site_fract_occupancy
 Cl  Cl1  1  0.26296  0.21420  0.62328  1
 Cl  Cl2  1  0.23704  0.71420  0.37672  1
 Cl  Cl3  1  0.73704  0.78580  0.37672  1
 Cl  Cl4  1  0.76296  0.28580  0.62328  1
 Cl  Cl5  1  0.08398  0.76605  0.74478  1
 Cl  Cl6  1  0.41602  0.26605  0.25522  1
 Cl  Cl7  1  0.91602  0.23395  0.25522  1
 Cl  Cl8  1  0.58398  0.73395  0.74478  1
 O  O1  1  0.11873  0.20488  0.91151  1
 O  O2  1  0.38127  0.70488  0.08849  1
 O  O3  1  0.88127  0.79512  0.08849  1
 O  O4  1  0.61873  0.29512  0.91151  1
 S  S1  1  0.23813  0.05967  0.83814  1
 S  S2  1  0.26187  0.55967  0.16186  1
 S  S3  1  0.76187  0.94033  0.16186  1
 S  S4  1  0.73813  0.44033  0.83814  1
