CIF file written using JARVIS-Tools package.
data_LiMnSiO4
_symmetry_space_group_name_H-M  'Imma'
_cell_length_a       5.90503
_cell_length_b       5.6372
_cell_length_c       5.6672
_cell_angle_alpha    59.8238
_cell_angle_beta     90
_cell_angle_gamma    121.585

_symmetry_Int_Tables_number  74
_chemical_formula_structural  LiMnSiO4
_chemical_formula_sum  Li2Mn2Si2O8
_cell_volume  129.74478939610904
_cell_formula_units_Z  2
loop_
  _symmetry_equiv_pos_site_id
 _symmetry_equiv_pos_as_xyz
 1  'x, y, z'
loop_
 _atom_site_type_symbol
 _atom_site_label
 _atom_site_symmetry_multiplicity
 _atom_site_fract_x
 _atom_site_fract_y
 _atom_site_fract_z
 _atom_site_fract_occupancy
 Li  Li1  1  0.00000  0.50000  -0.00000  1
 Li  Li2  1  0.00000  0.50000  0.50000  1
 Mn  Mn1  1  0.00000  0.00000  0.00000  1
 Mn  Mn2  1  0.50000  0.00000  0.00000  1
 O  O1  1  0.25595  0.01190  0.25435  1
 O  O2  1  0.74405  0.98810  0.26626  1
 O  O3  1  0.27022  0.50735  0.24633  1
 O  O4  1  0.73713  0.50735  0.24633  1
 O  O5  1  0.25595  0.01190  0.73374  1
 O  O6  1  0.74405  0.98810  0.74565  1
 O  O7  1  0.26287  0.49265  0.75367  1
 O  O8  1  0.72978  0.49265  0.75367  1
 Si  Si1  1  0.38284  0.26568  0.36716  1
 Si  Si2  1  0.61716  0.73432  0.63284  1
