CIF file written using JARVIS-Tools package.
data_CaAl2O4
_symmetry_space_group_name_H-M  'P2_1/c'
_cell_length_a       7.92471
_cell_length_b       8.65006
_cell_length_c       10.3516
_cell_angle_alpha    90
_cell_angle_beta     94.9782
_cell_angle_gamma    90

_symmetry_Int_Tables_number  14
_chemical_formula_structural  CaAl2O4
_chemical_formula_sum  Ca8Al6O32
_cell_volume  706.9142648143087
_cell_formula_units_Z  8
loop_
  _symmetry_equiv_pos_site_id
 _symmetry_equiv_pos_as_xyz
 1  'x, y, z'
loop_
 _atom_site_type_symbol
 _atom_site_label
 _atom_site_symmetry_multiplicity
 _atom_site_fract_x
 _atom_site_fract_y
 _atom_site_fract_z
 _atom_site_fract_occupancy
 Al  Al1  1  0.70732  0.60800  0.88379  1
 Al  Al2  1  0.30249  0.59756  0.89037  1
 Al  Al3  1  0.69751  0.09756  0.60963  1
 Al  Al4  1  0.29268  0.39200  0.11621  1
 Al  Al5  1  0.70732  0.89200  0.38379  1
 Al  Al6  1  0.29268  0.10800  0.61621  1
 Al  Al7  1  0.69751  0.40244  0.10963  1
 Al  Al8  1  0.30249  0.90244  0.39037  1
 Al  Al9  1  0.22800  0.94137  0.86885  1
 Al  Al10  1  0.77200  0.44137  0.63115  1
 Al  Al11  1  0.77200  0.05863  0.13115  1
 Al  Al12  1  0.22800  0.55863  0.36885  1
 Al  Al13  1  0.82169  0.94461  0.86163  1
 Al  Al14  1  0.17831  0.44461  0.63837  1
 Al  Al15  1  0.82169  0.55539  0.36163  1
 Al  Al16  1  0.17831  0.05539  0.13837  1
 Ca  Ca1  1  0.53512  0.24048  0.35390  1
 Ca  Ca2  1  0.46488  0.75952  0.64610  1
 Ca  Ca3  1  0.53512  0.25952  0.85390  1
 Ca  Ca4  1  0.46488  0.74048  0.14610  1
 Ca  Ca5  1  -0.00191  0.71261  0.12860  1
 Ca  Ca6  1  -0.00191  0.78739  0.62860  1
 Ca  Ca7  1  0.00191  0.28739  0.87140  1
 Ca  Ca8  1  0.00191  0.21261  0.37140  1
 O  O1  1  0.64697  0.56570  0.71826  1
 O  O2  1  0.21216  0.93433  0.53959  1
 O  O3  1  0.78784  0.06567  0.46041  1
 O  O4  1  0.21216  0.56567  0.03959  1
 O  O5  1  0.48854  0.15777  0.55968  1
 O  O6  1  0.51146  0.65777  0.94032  1
 O  O7  1  0.85130  0.75748  0.92682  1
 O  O8  1  0.48854  0.34223  0.05968  1
 O  O9  1  0.14870  0.25748  0.57318  1
 O  O10  1  0.85130  0.74252  0.42682  1
 O  O11  1  0.14870  0.24252  0.07318  1
 O  O12  1  0.35303  0.43430  0.28174  1
 O  O13  1  0.71863  0.57633  0.20173  1
 O  O14  1  0.51146  0.84223  0.44032  1
 O  O15  1  0.28137  0.07633  0.29827  1
 O  O16  1  0.27502  0.92310  0.03799  1
 O  O17  1  0.71863  0.92367  0.70173  1
 O  O18  1  0.77021  0.24389  0.20814  1
 O  O19  1  0.22979  0.74389  0.29186  1
 O  O20  1  0.22979  0.75611  0.79186  1
 O  O21  1  0.77021  0.25611  0.70814  1
 O  O22  1  0.02278  0.48145  0.33167  1
 O  O23  1  0.97722  0.98145  0.16833  1
 O  O24  1  0.97722  0.51855  0.66833  1
 O  O25  1  0.64697  0.93430  0.21826  1
 O  O26  1  0.02278  0.01855  0.83167  1
 O  O27  1  0.78784  0.43433  0.96041  1
 O  O28  1  0.27502  0.57690  0.53799  1
 O  O29  1  0.72498  0.07690  0.96201  1
 O  O30  1  0.72498  0.42310  0.46201  1
 O  O31  1  0.28137  0.42367  0.79827  1
 O  O32  1  0.35303  0.06570  0.78174  1
