CIF file written using JARVIS-Tools package.
data_InBrO
_symmetry_space_group_name_H-M  'Pmmn'
_cell_length_a       3.67665
_cell_length_b       4.09282
_cell_length_c       8.70663
_cell_angle_alpha    90
_cell_angle_beta     90
_cell_angle_gamma    90

_symmetry_Int_Tables_number  59
_chemical_formula_structural  InBrO
_chemical_formula_sum  In2Br2O2
_cell_volume  131.01603970083616
_cell_formula_units_Z  2
loop_
  _symmetry_equiv_pos_site_id
 _symmetry_equiv_pos_as_xyz
 1  'x, y, z'
loop_
 _atom_site_type_symbol
 _atom_site_label
 _atom_site_symmetry_multiplicity
 _atom_site_fract_x
 _atom_site_fract_y
 _atom_site_fract_z
 _atom_site_fract_occupancy
 Br  Br1  1  0.00000  0.50000  0.65790  1
 Br  Br2  1  0.50000  0.00000  0.34210  1
 In  In1  1  0.50000  0.50000  0.88368  1
 In  In2  1  0.00000  0.00000  0.11632  1
 O  O1  1  0.00000  0.50000  0.03781  1
 O  O2  1  0.50000  0.00000  0.96219  1
