CIF file written using JARVIS-Tools package.
data_Mn2SiP4O14
_symmetry_space_group_name_H-M  'C2/c'
_cell_length_a       5.02984
_cell_length_b       8.91489
_cell_length_c       12.4298
_cell_angle_alpha    103.088
_cell_angle_beta     89.9999
_cell_angle_gamma    106.386

_symmetry_Int_Tables_number  15
_chemical_formula_structural  Mn2SiP4O14
_chemical_formula_sum  Mn4Si2P8O28
_cell_volume  519.6115802127013
_cell_formula_units_Z  2
loop_
  _symmetry_equiv_pos_site_id
 _symmetry_equiv_pos_as_xyz
 1  'x, y, z'
loop_
 _atom_site_type_symbol
 _atom_site_label
 _atom_site_symmetry_multiplicity
 _atom_site_fract_x
 _atom_site_fract_y
 _atom_site_fract_z
 _atom_site_fract_occupancy
 Mn  Mn1  1  0.09184  0.49138  0.63127  1
 Mn  Mn2  1  0.40100  0.49139  0.13127  1
 Mn  Mn3  1  0.59975  0.50727  0.86788  1
 Mn  Mn4  1  0.90891  0.50727  0.36789  1
 O  O1  1  0.96784  0.86752  0.17332  1
 O  O2  1  0.09970  0.13111  0.32583  1
 O  O3  1  0.77976  0.59086  0.04643  1
 O  O4  1  0.18823  0.40777  0.45272  1
 O  O5  1  0.22098  0.40778  0.95272  1
 O  O6  1  0.81252  0.59086  0.54644  1
 O  O7  1  0.28442  0.69552  0.13266  1
 O  O8  1  0.58825  0.30312  0.36650  1
 O  O9  1  0.41251  0.69552  0.63266  1
 O  O10  1  0.90109  0.86752  0.67333  1
 O  O11  1  0.87075  0.17868  0.01155  1
 O  O12  1  0.69143  0.81999  0.48762  1
 O  O13  1  0.38764  0.08046  0.67181  1
 O  O14  1  0.30653  0.91820  0.82735  1
 O  O15  1  0.61310  0.91821  0.32736  1
 O  O16  1  0.69423  0.08047  0.17182  1
 O  O17  1  0.71630  0.30313  0.86650  1
 O  O18  1  0.79198  0.27456  0.61379  1
 O  O19  1  0.01290  0.62195  0.79973  1
 O  O20  1  0.51674  0.72409  0.88538  1
 O  O21  1  0.03283  0.13111  0.82583  1
 O  O22  1  0.48400  0.27457  0.11379  1
 O  O23  1  0.12999  0.81998  0.98761  1
 O  O24  1  0.20878  0.72408  0.38538  1
 O  O25  1  0.61049  0.62195  0.29973  1
 O  O26  1  -0.01215  0.37673  0.19943  1
 O  O27  1  0.39029  0.37671  0.69942  1
 O  O28  1  0.30935  0.17867  0.51155  1
 P  P1  1  0.96151  0.26833  0.91247  1
 P  P2  1  0.30824  0.26832  0.41246  1
 P  P3  1  0.51332  0.75845  0.36992  1
 P  P4  1  0.75418  0.24022  0.12925  1
 P  P5  1  0.48745  0.24021  0.62925  1
 P  P6  1  0.03921  0.73032  0.08669  1
 P  P7  1  0.69253  0.73032  0.58669  1
 P  P8  1  0.24657  0.75845  0.86991  1
 Si  Si1  1  0.84295  0.99933  0.24958  1
 Si  Si2  1  0.15779  0.99933  0.74959  1
