CIF file written using JARVIS-Tools package.
data_Tl5Se3
_symmetry_space_group_name_H-M  'P4/ncc'
_cell_length_a       8.55349
_cell_length_b       8.55349
_cell_length_c       12.8753
_cell_angle_alpha    90
_cell_angle_beta     90
_cell_angle_gamma    90

_symmetry_Int_Tables_number  130
_chemical_formula_structural  Tl5Se3
_chemical_formula_sum  Tl20Se2
_cell_volume  941.9837920777469
_cell_formula_units_Z  4
loop_
  _symmetry_equiv_pos_site_id
 _symmetry_equiv_pos_as_xyz
 1  'x, y, z'
loop_
 _atom_site_type_symbol
 _atom_site_label
 _atom_site_symmetry_multiplicity
 _atom_site_fract_x
 _atom_site_fract_y
 _atom_site_fract_z
 _atom_site_fract_occupancy
 Se  Se1  1  0.90985  0.40982  0.25000  1
 Se  Se2  1  0.90982  0.09015  0.75000  1
 Se  Se3  1  0.09015  0.59018  0.75000  1
 Se  Se4  1  0.75000  0.75000  0.01766  1
 Se  Se5  1  0.40985  0.90982  0.75000  1
 Se  Se6  1  0.75000  0.75000  0.51767  1
 Se  Se7  1  0.59015  0.09018  0.25000  1
 Se  Se8  1  0.25000  0.25000  0.48233  1
 Se  Se9  1  0.25000  0.25000  0.98234  1
 Se  Se10  1  0.09018  0.90985  0.25000  1
 Se  Se11  1  0.59018  0.40985  0.75000  1
 Se  Se12  1  0.40982  0.59015  0.25000  1
 Tl  Tl1  1  0.87893  0.08037  0.09731  1
 Tl  Tl2  1  0.12105  0.58034  0.40268  1
 Tl  Tl3  1  0.37893  0.58037  0.90269  1
 Tl  Tl4  1  0.41966  0.62105  0.59732  1
 Tl  Tl5  1  0.41963  0.87893  0.09731  1
 Tl  Tl6  1  0.87895  0.41966  0.59732  1
 Tl  Tl7  1  0.58034  0.37895  0.40268  1
 Tl  Tl8  1  0.62105  0.08034  0.59732  1
 Tl  Tl9  1  0.08034  0.87895  0.59732  1
 Tl  Tl10  1  0.25000  0.25000  0.21820  1
 Tl  Tl11  1  0.25000  0.25000  0.71824  1
 Tl  Tl12  1  0.37895  0.91966  0.40268  1
 Tl  Tl13  1  0.58037  0.12107  0.90269  1
 Tl  Tl14  1  0.75000  0.75000  0.78180  1
 Tl  Tl15  1  0.91963  0.37893  0.90269  1
 Tl  Tl16  1  0.08037  0.62107  0.09731  1
 Tl  Tl17  1  0.62107  0.41963  0.09731  1
 Tl  Tl18  1  0.75000  0.75000  0.28176  1
 Tl  Tl19  1  0.12107  0.91963  0.90269  1
 Tl  Tl20  1  0.91966  0.12105  0.40268  1
