CIF file written using JARVIS-Tools package.
data_Na2Te2O5
_symmetry_space_group_name_H-M  'C2/c'
_cell_length_a       4.84968
_cell_length_b       9.67771
_cell_length_c       12.0932
_cell_angle_alpha    101.955
_cell_angle_beta     101.567
_cell_angle_gamma    90

_symmetry_Int_Tables_number  15
_chemical_formula_structural  Na2Te2O5
_chemical_formula_sum  Na8Te8O20
_cell_volume  543.4823000329598
_cell_formula_units_Z  4
loop_
  _symmetry_equiv_pos_site_id
 _symmetry_equiv_pos_as_xyz
 1  'x, y, z'
loop_
 _atom_site_type_symbol
 _atom_site_label
 _atom_site_symmetry_multiplicity
 _atom_site_fract_x
 _atom_site_fract_y
 _atom_site_fract_z
 _atom_site_fract_occupancy
 Na  Na1  1  0.93309  0.59029  0.89702  1
 Na  Na2  1  0.16397  0.20679  0.34113  1
 Na  Na3  1  0.82284  0.29321  0.65887  1
 Na  Na4  1  0.83603  0.79321  0.65887  1
 Na  Na5  1  0.17716  0.70679  0.34113  1
 Na  Na6  1  0.06691  0.40971  0.10298  1
 Na  Na7  1  0.96393  0.09029  0.89702  1
 Na  Na8  1  0.03607  0.90971  0.10298  1
 O  O1  1  0.64497  0.24178  0.29293  1
 O  O2  1  0.35204  0.25822  0.70707  1
 O  O3  1  0.35503  0.75822  0.70707  1
 O  O4  1  0.05934  0.95957  0.29632  1
 O  O5  1  0.64796  0.74178  0.29293  1
 O  O6  1  0.16015  0.15409  0.10515  1
 O  O7  1  0.42646  0.63626  0.90689  1
 O  O8  1  0.51957  0.86374  0.09311  1
 O  O9  1  0.99554  0.86314  0.49513  1
 O  O10  1  0.05500  0.34591  0.89485  1
 O  O11  1  0.83985  0.84591  0.89485  1
 O  O12  1  0.48043  0.13626  0.90689  1
 O  O13  1  0.50040  0.63686  0.50487  1
 O  O14  1  0.94066  0.04043  0.70368  1
 O  O15  1  0.94500  0.65409  0.10515  1
 O  O16  1  0.49960  0.36314  0.49513  1
 O  O17  1  0.57354  0.36374  0.09311  1
 O  O18  1  0.23698  0.45957  0.29632  1
 O  O19  1  0.00446  0.13686  0.50487  1
 O  O20  1  0.76302  0.54043  0.70368  1
 Te  Te1  1  0.39710  0.54533  0.62081  1
 Te  Te2  1  0.22371  0.04533  0.62081  1
 Te  Te3  1  0.60290  0.45467  0.37919  1
 Te  Te4  1  0.56596  0.67506  0.11997  1
 Te  Te5  1  0.44599  0.82494  0.88003  1
 Te  Te6  1  0.43404  0.32494  0.88003  1
 Te  Te7  1  0.55401  0.17506  0.11997  1
 Te  Te8  1  0.77629  0.95467  0.37919  1
