CIF file written using JARVIS-Tools package.
data_Mn6O7F5
_symmetry_space_group_name_H-M  'P1'
_cell_length_a       4.53058
_cell_length_b       5.50692
_cell_length_c       7.57721
_cell_angle_alpha    87.0283
_cell_angle_beta     89.0464
_cell_angle_gamma    89.4191

_symmetry_Int_Tables_number  1
_chemical_formula_structural  Mn6O7F5
_chemical_formula_sum  Mn6O7F5
_cell_volume  188.7594184394865
_cell_formula_units_Z  1
loop_
  _symmetry_equiv_pos_site_id
 _symmetry_equiv_pos_as_xyz
 1  'x, y, z'
loop_
 _atom_site_type_symbol
 _atom_site_label
 _atom_site_symmetry_multiplicity
 _atom_site_fract_x
 _atom_site_fract_y
 _atom_site_fract_z
 _atom_site_fract_occupancy
 F  F1  1  0.21877  0.02404  0.78239  1
 F  F2  1  0.70061  0.48072  0.21677  1
 F  F3  1  0.72774  0.79494  0.91253  1
 F  F4  1  0.20269  0.37308  0.42936  1
 F  F5  1  0.27394  0.87227  0.43626  1
 Mn  Mn1  1  0.46259  0.48044  0.98632  1
 Mn  Mn2  1  0.96029  0.34736  0.67388  1
 Mn  Mn3  1  0.99092  0.67858  0.32313  1
 Mn  Mn4  1  0.52261  0.81983  0.66370  1
 Mn  Mn5  1  0.51839  0.16037  0.33316  1
 Mn  Mn6  1  0.01273  0.00967  0.01913  1
 O  O1  1  0.20619  0.70972  0.10436  1
 O  O2  1  0.30428  0.19905  0.11508  1
 O  O3  1  0.80368  0.28571  0.90484  1
 O  O4  1  0.80762  0.97099  0.23095  1
 O  O5  1  0.79230  0.63147  0.54407  1
 O  O6  1  0.69226  0.12338  0.56488  1
 O  O7  1  0.30237  0.53838  0.75921  1
