CIF file written using JARVIS-Tools package.
data_V4O7F5
_symmetry_space_group_name_H-M  'P1'
_cell_length_a       5.07981
_cell_length_b       5.27538
_cell_length_c       7.22301
_cell_angle_alpha    93.5793
_cell_angle_beta     90.2373
_cell_angle_gamma    90.0378

_symmetry_Int_Tables_number  1
_chemical_formula_structural  V4O7F5
_chemical_formula_sum  V4O7F5
_cell_volume  193.1826804821074
_cell_formula_units_Z  1
loop_
  _symmetry_equiv_pos_site_id
 _symmetry_equiv_pos_as_xyz
 1  'x, y, z'
loop_
 _atom_site_type_symbol
 _atom_site_label
 _atom_site_symmetry_multiplicity
 _atom_site_fract_x
 _atom_site_fract_y
 _atom_site_fract_z
 _atom_site_fract_occupancy
 F  F1  1  0.10911  0.00346  0.24606  1
 F  F2  1  0.20603  0.31341  0.54296  1
 F  F3  1  0.19897  0.69968  0.93973  1
 F  F4  1  0.30659  0.81411  0.54359  1
 F  F5  1  0.80572  0.31605  0.05380  1
 O  O1  1  0.30357  0.20557  0.95217  1
 O  O2  1  0.40395  0.50527  0.24551  1
 O  O3  1  0.59948  0.50111  0.74558  1
 O  O4  1  0.71297  0.20957  0.44984  1
 O  O5  1  0.70564  0.81072  0.04246  1
 O  O6  1  0.79868  0.71084  0.44813  1
 O  O7  1  0.91595  0.00324  0.74523  1
 V  V1  1  0.53617  0.47521  0.51956  1
 V  V2  1  0.46106  0.47087  0.01982  1
 V  V3  1  0.97518  0.97548  0.50920  1
 V  V4  1  0.96094  0.98540  -0.00367  1
