CIF file written using JARVIS-Tools package.
data_Li8CoO5F
_symmetry_space_group_name_H-M  'P1'
_cell_length_a       5.24348
_cell_length_b       5.27024
_cell_length_c       5.72571
_cell_angle_alpha    90.9909
_cell_angle_beta     115.773
_cell_angle_gamma    113.906

_symmetry_Int_Tables_number  1
_chemical_formula_structural  Li8CoO5F
_chemical_formula_sum  Li8CoO5F
_cell_volume  126.61391204289286
_cell_formula_units_Z  1
loop_
  _symmetry_equiv_pos_site_id
 _symmetry_equiv_pos_as_xyz
 1  'x, y, z'
loop_
 _atom_site_type_symbol
 _atom_site_label
 _atom_site_symmetry_multiplicity
 _atom_site_fract_x
 _atom_site_fract_y
 _atom_site_fract_z
 _atom_site_fract_occupancy
 Co  Co1  1  0.94974  0.96192  0.97445  1
 F  F1  1  0.54633  0.44420  0.27476  1
 Li  Li1  1  0.24160  0.46637  0.35553  1
 Li  Li2  1  0.12500  0.22955  0.66202  1
 Li  Li3  1  0.40986  0.88832  0.64718  1
 Li  Li4  1  0.71912  0.36537  0.01150  1
 Li  Li5  1  0.32527  0.68211  0.98102  1
 Li  Li6  1  0.57091  0.09641  0.34271  1
 Li  Li7  1  0.90001  0.79515  0.36437  1
 Li  Li8  1  0.76283  0.52329  0.65694  1
 O  O1  1  0.49551  0.58112  0.76114  1
 O  O2  1  0.86530  0.10441  0.23150  1
 O  O3  1  0.16179  0.77120  0.22883  1
 O  O4  1  0.81169  0.20311  0.75171  1
 O  O5  1  0.11503  0.88746  0.75633  1
