CIF file written using JARVIS-Tools package.
data_Ti2Cd
_symmetry_space_group_name_H-M  'I4/mmm'
_cell_length_a       2.85431
_cell_length_b       2.85431
_cell_length_c       6.99295
_cell_angle_alpha    101.776
_cell_angle_beta     101.776
_cell_angle_gamma    89.9999

_symmetry_Int_Tables_number  139
_chemical_formula_structural  Ti2Cd
_chemical_formula_sum  Ti2Cd
_cell_volume  54.54763645988186
_cell_formula_units_Z  1
loop_
  _symmetry_equiv_pos_site_id
 _symmetry_equiv_pos_as_xyz
 1  'x, y, z'
loop_
 _atom_site_type_symbol
 _atom_site_label
 _atom_site_symmetry_multiplicity
 _atom_site_fract_x
 _atom_site_fract_y
 _atom_site_fract_z
 _atom_site_fract_occupancy
 Cd  Cd1  1  0.00000  0.00000  0.00000  1
 Ti  Ti1  1  0.67685  0.67685  0.35370  1
 Ti  Ti2  1  0.32315  0.32315  0.64630  1
