CIF file written using JARVIS-Tools package.
data_BH10C2N5O3
_symmetry_space_group_name_H-M  'P2_12_12_1'
_cell_length_a       6.63329
_cell_length_b       9.53168
_cell_length_c       10.7133
_cell_angle_alpha    90
_cell_angle_beta     90
_cell_angle_gamma    90

_symmetry_Int_Tables_number  19
_chemical_formula_structural  BH10C2N5O3
_chemical_formula_sum  B4H40C8N20O2
_cell_volume  677.3601383075313
_cell_formula_units_Z  4
loop_
  _symmetry_equiv_pos_site_id
 _symmetry_equiv_pos_as_xyz
 1  'x, y, z'
loop_
 _atom_site_type_symbol
 _atom_site_label
 _atom_site_symmetry_multiplicity
 _atom_site_fract_x
 _atom_site_fract_y
 _atom_site_fract_z
 _atom_site_fract_occupancy
 B  B1  1  0.85682  0.05972  0.93812  1
 B  B2  1  0.64318  0.94028  0.43812  1
 B  B3  1  0.35682  0.44028  0.06188  1
 B  B4  1  0.14318  0.55972  0.56188  1
 C  C1  1  0.14640  0.73801  0.38254  1
 C  C2  1  0.35360  0.26199  0.88254  1
 C  C3  1  0.64640  0.76199  0.61746  1
 C  C4  1  0.85360  0.23801  0.11746  1
 C  C5  1  0.63788  0.67394  0.41390  1
 C  C6  1  0.86212  0.32606  0.91390  1
 C  C7  1  0.13788  0.82606  0.58610  1
 C  C8  1  0.36212  0.17394  0.08610  1
 H  H1  1  0.63344  0.80628  0.26803  1
 H  H2  1  0.66059  0.96930  0.64477  1
 H  H3  1  0.33941  0.46930  0.85523  1
 H  H4  1  0.16059  0.53070  0.35523  1
 H  H5  1  0.16026  0.02467  0.93482  1
 H  H6  1  0.66026  0.47533  0.06518  1
 H  H7  1  0.89974  0.43248  0.74794  1
 H  H8  1  0.55707  0.02775  0.91215  1
 H  H9  1  0.94293  0.97225  0.41215  1
 H  H10  1  0.05707  0.47225  0.08785  1
 H  H11  1  0.44293  0.52775  0.58785  1
 H  H12  1  0.83941  0.03070  0.14477  1
 H  H13  1  0.33974  0.97533  0.43482  1
 H  H14  1  0.83974  0.52467  0.56518  1
 H  H15  1  0.13344  0.69372  0.73197  1
 H  H16  1  0.60026  0.56752  0.24794  1
 H  H17  1  0.86656  0.19372  0.76803  1
 H  H18  1  0.36656  0.30628  0.23197  1
 H  H19  1  0.40640  0.96579  0.11993  1
 H  H20  1  0.09360  0.03421  0.61993  1
 H  H21  1  0.84549  0.36649  0.26944  1
 H  H22  1  0.65451  0.63351  0.76944  1
 H  H23  1  0.34549  0.13351  0.73056  1
 H  H24  1  0.15451  0.86649  0.23056  1
 H  H25  1  0.83861  0.18536  0.30367  1
 H  H26  1  0.16139  0.68536  0.19633  1
 H  H27  1  0.59360  0.46579  0.38007  1
 H  H28  1  0.44583  0.20464  0.42435  1
 H  H29  1  0.66139  0.81464  0.80367  1
 H  H30  1  0.39974  0.06752  0.25206  1
 H  H31  1  0.94583  0.29536  0.57565  1
 H  H32  1  0.55417  0.70464  0.07565  1
 H  H33  1  0.36687  0.35090  0.48197  1
 H  H34  1  0.86687  0.14910  0.51803  1
 H  H35  1  0.63313  0.85090  0.01803  1
 H  H36  1  0.33861  0.31464  0.69633  1
 H  H37  1  0.90640  0.53421  0.88007  1
 H  H38  1  0.13313  0.64910  0.98197  1
 H  H39  1  0.05417  0.79536  0.92435  1
 H  H40  1  0.10026  0.93248  0.75206  1
 N  N1  1  0.13997  0.85006  0.46083  1
 N  N2  1  0.36003  0.14994  0.96083  1
 N  N3  1  0.63997  0.64994  0.53917  1
 N  N4  1  0.86003  0.35006  0.03917  1
 N  N5  1  0.65615  0.89433  0.57683  1
 N  N6  1  0.36322  0.30165  0.13587  1
 N  N7  1  0.86322  0.19835  0.86413  1
 N  N8  1  0.84385  0.10567  0.07683  1
 N  N9  1  0.13678  0.69835  0.63587  1
 N  N10  1  0.63678  0.80165  0.36413  1
 N  N11  1  0.64063  0.73451  0.74068  1
 N  N12  1  0.85894  0.44187  0.84031  1
 N  N13  1  0.64106  0.55813  0.34031  1
 N  N14  1  0.35894  0.05813  0.15969  1
 N  N15  1  0.14106  0.94187  0.65969  1
 N  N16  1  0.85937  0.26549  0.24068  1
 N  N17  1  0.14063  0.76549  0.25932  1
 N  N18  1  0.35937  0.23451  0.75932  1
 N  N19  1  0.15615  0.60567  0.42317  1
 N  N20  1  0.34385  0.39433  0.92317  1
 O  O1  1  0.92618  0.19350  0.59337  1
 O  O2  1  0.03469  0.97132  0.91631  1
 O  O3  1  0.53469  0.52868  0.08369  1
 O  O4  1  0.96531  0.47132  0.58369  1
 O  O5  1  0.46531  0.02868  0.41631  1
 O  O6  1  0.42618  0.30650  0.40663  1
 O  O7  1  0.18349  0.52695  0.10075  1
 O  O8  1  0.31651  0.47305  0.60075  1
 O  O9  1  0.07382  0.69350  0.90663  1
 O  O10  1  0.68349  0.97305  0.89925  1
 O  O11  1  0.81651  0.02695  0.39925  1
 O  O12  1  0.57382  0.80650  0.09337  1
