CIF file written using JARVIS-Tools package.
data_Sc2Se3O9
_symmetry_space_group_name_H-M  'P6_3/m'
_cell_length_a       8.06642
_cell_length_b       8.06643
_cell_length_c       7.69222
_cell_angle_alpha    90
_cell_angle_beta     90
_cell_angle_gamma    120

_symmetry_Int_Tables_number  176
_chemical_formula_structural  Sc2Se3O9
_chemical_formula_sum  Sc4Se6O8
_cell_volume  433.45539489599054
_cell_formula_units_Z  2
loop_
  _symmetry_equiv_pos_site_id
 _symmetry_equiv_pos_as_xyz
 1  'x, y, z'
loop_
 _atom_site_type_symbol
 _atom_site_label
 _atom_site_symmetry_multiplicity
 _atom_site_fract_x
 _atom_site_fract_y
 _atom_site_fract_z
 _atom_site_fract_occupancy
 O  O1  1  0.38901  0.87844  0.25000  1
 O  O2  1  0.23259  0.41014  0.92352  1
 O  O3  1  0.17755  0.76741  0.92352  1
 O  O4  1  0.82245  0.23259  0.42352  1
 O  O5  1  0.76741  0.58986  0.42352  1
 O  O6  1  0.58986  0.82245  0.92352  1
 O  O7  1  0.58986  0.82245  0.57648  1
 O  O8  1  0.76741  0.58986  0.07648  1
 O  O9  1  0.82245  0.23259  0.07648  1
 O  O10  1  0.17755  0.76741  0.57648  1
 O  O11  1  0.12156  0.51058  0.25000  1
 O  O12  1  0.61099  0.12156  0.75000  1
 O  O13  1  0.41014  0.17755  0.42352  1
 O  O14  1  0.48942  0.61099  0.25000  1
 O  O15  1  0.87844  0.48942  0.75000  1
 O  O16  1  0.41014  0.17755  0.07648  1
 O  O17  1  0.23259  0.41014  0.57648  1
 O  O18  1  0.51058  0.38901  0.75000  1
 Sc  Sc1  1  0.33333  0.66667  0.04531  1
 Sc  Sc2  1  0.66667  0.33333  0.54531  1
 Sc  Sc3  1  0.66667  0.33333  0.95469  1
 Sc  Sc4  1  0.33333  0.66667  0.45469  1
 Se  Se1  1  0.73912  0.70614  0.25000  1
 Se  Se2  1  0.26088  0.29386  0.75000  1
 Se  Se3  1  0.29386  0.03297  0.25000  1
 Se  Se4  1  0.03297  0.73912  0.75000  1
 Se  Se5  1  0.96703  0.26088  0.25000  1
 Se  Se6  1  0.70614  0.96703  0.75000  1
