CIF file written using JARVIS-Tools package.
data_Th2Ga
_symmetry_space_group_name_H-M  'I4/mcm'
_cell_length_a       5.95964
_cell_length_b       6.08695
_cell_length_c       6.08695
_cell_angle_alpha    76.1341
_cell_angle_beta     60.6895
_cell_angle_gamma    60.6896

_symmetry_Int_Tables_number  140
_chemical_formula_structural  Th2Ga
_chemical_formula_sum  Th4Ga2
_cell_volume  167.8931109166855
_cell_formula_units_Z  2
loop_
  _symmetry_equiv_pos_site_id
 _symmetry_equiv_pos_as_xyz
 1  'x, y, z'
loop_
 _atom_site_type_symbol
 _atom_site_label
 _atom_site_symmetry_multiplicity
 _atom_site_fract_x
 _atom_site_fract_y
 _atom_site_fract_z
 _atom_site_fract_occupancy
 Ga  Ga1  1  0.25000  0.00000  0.00000  1
 Ga  Ga2  1  0.75000  0.00000  0.00000  1
 Th  Th1  1  0.15909  0.50000  0.18182  1
 Th  Th2  1  0.84091  0.50000  0.81818  1
 Th  Th3  1  0.34091  0.81818  0.50000  1
 Th  Th4  1  0.65909  0.18182  0.50000  1
