CIF file written using JARVIS-Tools package.
data_Li7Pb2
_symmetry_space_group_name_H-M  'P-3m1'
_cell_length_a       4.70342
_cell_length_b       4.70342
_cell_length_c       8.53507
_cell_angle_alpha    90
_cell_angle_beta     90
_cell_angle_gamma    120

_symmetry_Int_Tables_number  164
_chemical_formula_structural  Li7Pb2
_chemical_formula_sum  Li7Pb2
_cell_volume  163.51814491101652
_cell_formula_units_Z  1
loop_
  _symmetry_equiv_pos_site_id
 _symmetry_equiv_pos_as_xyz
 1  'x, y, z'
loop_
 _atom_site_type_symbol
 _atom_site_label
 _atom_site_symmetry_multiplicity
 _atom_site_fract_x
 _atom_site_fract_y
 _atom_site_fract_z
 _atom_site_fract_occupancy
 Li  Li1  1  0.00000  0.00000  0.00000  1
 Li  Li2  1  0.00000  0.00000  0.67877  1
 Li  Li3  1  0.00000  0.00000  0.32123  1
 Li  Li4  1  0.33333  0.66667  0.42444  1
 Li  Li5  1  0.66667  0.33333  0.57556  1
 Li  Li6  1  0.33333  0.66667  0.10249  1
 Li  Li7  1  0.66667  0.33333  0.89751  1
 Pb  Pb1  1  0.33333  0.66667  0.76291  1
 Pb  Pb2  1  0.66667  0.33333  0.23709  1
