CIF file written using JARVIS-Tools package.
data_Dy3S3N
_symmetry_space_group_name_H-M  'Pnma'
_cell_length_a       3.81567
_cell_length_b       11.9097
_cell_length_c       12.8552
_cell_angle_alpha    90
_cell_angle_beta     90
_cell_angle_gamma    90

_symmetry_Int_Tables_number  62
_chemical_formula_structural  Dy3S3N
_chemical_formula_sum  Dy2S2N4
_cell_volume  584.1832572058469
_cell_formula_units_Z  4
loop_
  _symmetry_equiv_pos_site_id
 _symmetry_equiv_pos_as_xyz
 1  'x, y, z'
loop_
 _atom_site_type_symbol
 _atom_site_label
 _atom_site_symmetry_multiplicity
 _atom_site_fract_x
 _atom_site_fract_y
 _atom_site_fract_z
 _atom_site_fract_occupancy
 Dy  Dy1  1  0.25000  0.21263  0.85947  1
 Dy  Dy2  1  0.25000  0.06645  0.63157  1
 Dy  Dy3  1  0.25000  0.54801  0.35783  1
 Dy  Dy4  1  0.25000  0.04801  0.14217  1
 Dy  Dy5  1  0.25000  0.56645  0.86843  1
 Dy  Dy6  1  0.75000  0.95199  0.85783  1
 Dy  Dy7  1  0.75000  0.78737  0.14053  1
 Dy  Dy8  1  0.75000  0.45199  0.64217  1
 Dy  Dy9  1  0.75000  0.93355  0.36843  1
 Dy  Dy10  1  0.75000  0.28737  0.35947  1
 Dy  Dy11  1  0.75000  0.43355  0.13157  1
 Dy  Dy12  1  0.25000  0.71263  0.64053  1
 N  N1  1  0.25000  0.03444  0.79819  1
 N  N2  1  0.25000  0.53444  0.70181  1
 N  N3  1  0.75000  0.96556  0.20181  1
 N  N4  1  0.75000  0.46556  0.29819  1
 S  S1  1  0.25000  0.36631  0.49093  1
 S  S2  1  0.25000  0.77535  0.30859  1
 S  S3  1  0.75000  0.90596  0.59873  1
 S  S4  1  0.75000  0.63369  0.50907  1
 S  S5  1  0.75000  0.40596  0.90127  1
 S  S6  1  0.75000  0.22465  0.69141  1
 S  S7  1  0.25000  0.09404  0.40127  1
 S  S8  1  0.75000  0.13369  0.99093  1
 S  S9  1  0.25000  0.27535  0.19141  1
 S  S10  1  0.25000  0.59404  0.09873  1
 S  S11  1  0.25000  0.86631  0.00907  1
 S  S12  1  0.75000  0.72465  0.80859  1
