CIF file written using JARVIS-Tools package.
data_LiFe2OF5
_symmetry_space_group_name_H-M  'P1'
_cell_length_a       4.39738
_cell_length_b       8.37393
_cell_length_c       8.41897
_cell_angle_alpha    61.0999
_cell_angle_beta     89.309
_cell_angle_gamma    88.9752

_symmetry_Int_Tables_number  1
_chemical_formula_structural  LiFe2OF5
_chemical_formula_sum  Li3Fe6O3F5
_cell_volume  271.361424327562
_cell_formula_units_Z  3
loop_
  _symmetry_equiv_pos_site_id
 _symmetry_equiv_pos_as_xyz
 1  'x, y, z'
loop_
 _atom_site_type_symbol
 _atom_site_label
 _atom_site_symmetry_multiplicity
 _atom_site_fract_x
 _atom_site_fract_y
 _atom_site_fract_z
 _atom_site_fract_occupancy
 F  F1  1  0.75980  0.55362  0.88757  1
 F  F2  1  0.23097  0.77490  0.09958  1
 F  F3  1  0.26289  0.43387  0.77288  1
 F  F4  1  0.25280  0.45109  0.43411  1
 F  F5  1  0.74638  0.21225  0.23381  1
 F  F6  1  0.23841  0.10241  0.12956  1
 F  F7  1  0.76920  0.90052  0.22908  1
 F  F8  1  0.74616  0.57043  0.20300  1
 F  F9  1  0.25245  0.10301  0.78217  1
 F  F10  1  0.74022  0.56274  0.54209  1
 F  F11  1  0.26252  0.77810  0.77961  1
 F  F12  1  0.75738  0.88173  0.88964  1
 F  F13  1  0.25931  0.10312  0.45963  1
 F  F14  1  0.76335  0.22598  0.89124  1
 F  F15  1  0.75508  0.88895  0.56331  1
 Fe  Fe1  1  0.01480  0.99210  0.35159  1
 Fe  Fe2  1  0.01341  0.65349  -0.00388  1
 Fe  Fe3  1  0.48035  0.33222  0.00840  1
 Fe  Fe4  1  0.97610  0.32906  0.64873  1
 Fe  Fe5  1  0.47578  0.69253  0.32303  1
 Fe  Fe6  1  0.51676  0.00234  0.67414  1
 Li  Li1  1  0.49296  0.66205  0.66646  1
 Li  Li2  1  0.99261  0.00213  0.00081  1
 Li  Li3  1  0.51358  0.33586  0.33625  1
 O  O1  1  0.24696  0.79660  0.43001  1
 O  O2  1  0.73411  0.20184  0.57701  1
 O  O3  1  0.24565  0.45717  0.09006  1
