CIF file written using JARVIS-Tools package.
data_CuSeO3
_symmetry_space_group_name_H-M  'P2_1/c'
_cell_length_a       7.69559
_cell_length_b       8.35304
_cell_length_c       8.56804
_cell_angle_alpha    90
_cell_angle_beta     98.3765
_cell_angle_gamma    90

_symmetry_Int_Tables_number  14
_chemical_formula_structural  CuSeO3
_chemical_formula_sum  Cu8Se8O24
_cell_volume  544.8916826006133
_cell_formula_units_Z  8
loop_
  _symmetry_equiv_pos_site_id
 _symmetry_equiv_pos_as_xyz
 1  'x, y, z'
loop_
 _atom_site_type_symbol
 _atom_site_label
 _atom_site_symmetry_multiplicity
 _atom_site_fract_x
 _atom_site_fract_y
 _atom_site_fract_z
 _atom_site_fract_occupancy
 Cu  Cu1  1  0.47040  0.79754  0.03099  1
 Cu  Cu2  1  0.41141  0.39165  0.61335  1
 Cu  Cu3  1  0.58859  0.60835  0.38665  1
 Cu  Cu4  1  0.08859  0.89165  0.88665  1
 Cu  Cu5  1  0.52960  0.20246  0.96901  1
 Cu  Cu6  1  0.91141  0.10835  0.11335  1
 Cu  Cu7  1  0.02960  0.29754  0.46901  1
 Cu  Cu8  1  0.97040  0.70246  0.53099  1
 O  O1  1  0.88188  0.71051  0.73901  1
 O  O2  1  0.06777  0.92435  0.11075  1
 O  O3  1  0.75485  0.29021  0.07491  1
 O  O4  1  0.11812  0.28949  0.26099  1
 O  O5  1  0.87996  0.06913  0.34021  1
 O  O6  1  0.33763  0.06812  0.87093  1
 O  O7  1  0.25485  0.20979  0.57491  1
 O  O8  1  0.08198  0.69471  0.33564  1
 O  O9  1  0.91802  0.30529  0.66436  1
 O  O10  1  0.83763  0.43188  0.37093  1
 O  O11  1  0.16237  0.56812  0.62907  1
 O  O12  1  0.37996  0.43087  0.84021  1
 O  O13  1  0.41802  0.19471  0.16436  1
 O  O14  1  0.24515  0.70979  0.92509  1
 O  O15  1  0.62004  0.56913  0.15979  1
 O  O16  1  0.56777  0.57565  0.61075  1
 O  O17  1  0.12004  0.93087  0.65979  1
 O  O18  1  0.74515  0.79021  0.42509  1
 O  O19  1  0.58198  0.80529  0.83564  1
 O  O20  1  0.38188  0.78949  0.23901  1
 O  O21  1  0.43223  0.42435  0.38925  1
 O  O22  1  0.66237  0.93188  0.12907  1
 O  O23  1  0.61812  0.21051  0.76099  1
 O  O24  1  0.93223  0.07565  0.88925  1
 Se  Se1  1  0.82293  0.47529  0.17058  1
 Se  Se2  1  0.31014  0.36665  0.20430  1
 Se  Se3  1  0.17707  0.52471  0.82942  1
 Se  Se4  1  0.81014  0.13335  0.70430  1
 Se  Se5  1  0.32293  0.02471  0.67058  1
 Se  Se6  1  0.68986  0.63335  0.79570  1
 Se  Se7  1  0.67707  0.97529  0.32942  1
 Se  Se8  1  0.18986  0.86665  0.29570  1
