CIF file written using JARVIS-Tools package.
data_V6O11F
_symmetry_space_group_name_H-M  'C2'
_cell_length_a       7.04321
_cell_length_b       5.42179
_cell_length_c       5.42179
_cell_angle_alpha    74.3692
_cell_angle_beta     71.2025
_cell_angle_gamma    71.2025

_symmetry_Int_Tables_number  5
_chemical_formula_structural  V6O11F
_chemical_formula_sum  V6OF
_cell_volume  182.34836650294002
_cell_formula_units_Z  1
loop_
  _symmetry_equiv_pos_site_id
 _symmetry_equiv_pos_as_xyz
 1  'x, y, z'
loop_
 _atom_site_type_symbol
 _atom_site_label
 _atom_site_symmetry_multiplicity
 _atom_site_fract_x
 _atom_site_fract_y
 _atom_site_fract_z
 _atom_site_fract_occupancy
 F  F1  1  0.33333  0.36631  0.96702  1
 O  O1  1  0.66637  0.03492  0.63451  1
 O  O2  1  0.96954  0.23184  0.23539  1
 O  O3  1  0.00029  0.69882  0.29842  1
 O  O4  1  0.30182  0.89869  0.89688  1
 O  O5  1  0.62943  0.57015  0.56825  1
 O  O6  1  0.03724  0.76508  0.76318  1
 O  O7  1  0.36485  0.43646  0.43464  1
 O  O8  1  -0.00162  0.29578  0.70470  1
 O  O9  1  0.66829  0.62863  0.03755  1
 O  O10  1  0.33333  0.97818  0.35516  1
 O  O11  1  0.69712  0.09795  0.10149  1
 V  V1  1  -0.00057  0.99670  0.00911  1
 V  V2  1  0.51616  0.97240  -0.00530  1
 V  V3  1  0.15051  0.33863  0.36093  1
 V  V4  1  0.33333  0.69661  0.63672  1
 V  V5  1  0.66724  0.32422  0.33663  1
 V  V6  1  0.83333  0.66862  0.66472  1
