CIF file written using JARVIS-Tools package.
data_Ca2MnGaO5
_symmetry_space_group_name_H-M  'Pnma'
_cell_length_a       5.3499
_cell_length_b       5.58095
_cell_length_c       14.9178
_cell_angle_alpha    90
_cell_angle_beta     90
_cell_angle_gamma    90

_symmetry_Int_Tables_number  62
_chemical_formula_structural  Ca2MnGaO5
_chemical_formula_sum  Ca8Mn4Ga4O20
_cell_volume  445.40816122311685
_cell_formula_units_Z  4
loop_
  _symmetry_equiv_pos_site_id
 _symmetry_equiv_pos_as_xyz
 1  'x, y, z'
loop_
 _atom_site_type_symbol
 _atom_site_label
 _atom_site_symmetry_multiplicity
 _atom_site_fract_x
 _atom_site_fract_y
 _atom_site_fract_z
 _atom_site_fract_occupancy
 Ca  Ca1  1  0.01851  0.52528  0.60855  1
 Ca  Ca2  1  0.98149  0.47472  0.10856  1
 Ca  Ca3  1  0.51851  0.97472  0.60855  1
 Ca  Ca4  1  0.48149  0.02528  0.10856  1
 Ca  Ca5  1  0.51851  0.97472  0.89144  1
 Ca  Ca6  1  0.01851  0.52528  0.89145  1
 Ca  Ca7  1  0.98149  0.47472  0.39144  1
 Ca  Ca8  1  0.48149  0.02528  0.39145  1
 Ga  Ga1  1  0.45298  0.56566  0.25000  1
 Ga  Ga2  1  0.54703  0.43434  0.75000  1
 Ga  Ga3  1  0.95298  0.93434  0.25000  1
 Ga  Ga4  1  0.04703  0.06566  0.75000  1
 Mn  Mn1  1  0.50000  0.50000  -0.00000  1
 Mn  Mn2  1  0.50000  0.50000  0.50000  1
 Mn  Mn3  1  0.00000  -0.00000  0.50000  1
 Mn  Mn4  1  -0.00000  0.00000  0.00000  1
 O  O1  1  0.23802  0.73654  0.01506  1
 O  O2  1  0.46533  0.57405  0.85787  1
 O  O3  1  0.03468  0.07405  0.14213  1
 O  O4  1  0.40191  0.12098  0.75000  1
 O  O5  1  0.26198  0.23655  0.51506  1
 O  O6  1  0.53468  0.42595  0.35787  1
 O  O7  1  0.59809  0.87902  0.25000  1
 O  O8  1  0.73802  0.76345  0.48494  1
 O  O9  1  0.96532  0.92595  0.85787  1
 O  O10  1  0.90191  0.37902  0.75000  1
 O  O11  1  0.76198  0.26345  0.98494  1
 O  O12  1  0.03468  0.07405  0.35788  1
 O  O13  1  0.26198  0.23654  0.98494  1
 O  O14  1  0.09809  0.62098  0.25000  1
 O  O15  1  0.46532  0.57405  0.64213  1
 O  O16  1  0.96532  0.92595  0.64212  1
 O  O17  1  0.76198  0.26345  0.51506  1
 O  O18  1  0.73802  0.76345  0.01506  1
 O  O19  1  0.23802  0.73655  0.48494  1
 O  O20  1  0.53468  0.42595  0.14213  1
