CIF file written using JARVIS-Tools package.
data_MnI2O6
_symmetry_space_group_name_H-M  'P2_1'
_cell_length_a       4.89613
_cell_length_b       11.1984
_cell_length_c       11.1787
_cell_angle_alpha    120.246
_cell_angle_beta     90
_cell_angle_gamma    90

_symmetry_Int_Tables_number  4
_chemical_formula_structural  MnI2O6
_chemical_formula_sum  Mn4I8O24
_cell_volume  529.4802875145064
_cell_formula_units_Z  4
loop_
  _symmetry_equiv_pos_site_id
 _symmetry_equiv_pos_as_xyz
 1  'x, y, z'
loop_
 _atom_site_type_symbol
 _atom_site_label
 _atom_site_symmetry_multiplicity
 _atom_site_fract_x
 _atom_site_fract_y
 _atom_site_fract_z
 _atom_site_fract_occupancy
 I  I1  1  0.74561  0.83212  0.90062  1
 I  I2  1  0.75541  0.33563  0.43147  1
 I  I3  1  0.75535  0.83565  0.43145  1
 I  I4  1  0.74557  0.33212  0.90064  1
 I  I5  1  0.24557  0.66788  0.09936  1
 I  I6  1  0.24561  0.16788  0.09938  1
 I  I7  1  0.25541  0.66437  0.56853  1
 I  I8  1  0.25535  0.16435  0.56855  1
 Mn  Mn1  1  0.31052  0.50966  0.75541  1
 Mn  Mn2  1  0.81045  0.99033  0.24457  1
 Mn  Mn3  1  0.81052  0.49034  0.24459  1
 Mn  Mn4  1  0.31045  0.00967  0.75543  1
 O  O1  1  0.53321  0.68186  0.77554  1
 O  O2  1  0.59363  0.85610  0.06416  1
 O  O3  1  0.03377  0.13235  0.41965  1
 O  O4  1  0.57173  0.45060  0.38230  1
 O  O5  1  0.59366  0.35610  0.06419  1
 O  O6  1  0.54981  0.97101  0.89276  1
 O  O7  1  0.08173  0.32761  0.69770  1
 O  O8  1  0.53385  0.36761  0.58036  1
 O  O9  1  0.07173  0.54940  0.61770  1
 O  O10  1  0.57159  0.95057  0.38224  1
 O  O11  1  0.53309  0.18189  0.77558  1
 O  O12  1  0.08173  0.82759  0.69770  1
 O  O13  1  0.53377  0.86765  0.58035  1
 O  O14  1  0.58173  0.67239  0.30230  1
 O  O15  1  0.54980  0.47102  0.89279  1
 O  O16  1  0.03385  0.63239  0.41964  1
 O  O17  1  0.58173  0.17241  0.30230  1
 O  O18  1  0.04980  0.52898  0.10721  1
 O  O19  1  0.07159  0.04943  0.61776  1
 O  O20  1  0.04981  0.02899  0.10724  1
 O  O21  1  0.03321  0.31814  0.22446  1
 O  O22  1  0.09366  0.64390  0.93581  1
 O  O23  1  0.09363  0.14390  0.93584  1
 O  O24  1  0.03309  0.81811  0.22442  1
