CIF file written using JARVIS-Tools package.
data_VO2
_symmetry_space_group_name_H-M  'Pnma'
_cell_length_a       2.85956
_cell_length_b       4.82464
_cell_length_c       9.28102
_cell_angle_alpha    89.9979
_cell_angle_beta     89.9986
_cell_angle_gamma    89.998

_symmetry_Int_Tables_number  62
_chemical_formula_structural  VO2
_chemical_formula_sum  V4O8
_cell_volume  128.04435551312827
_cell_formula_units_Z  4
loop_
  _symmetry_equiv_pos_site_id
 _symmetry_equiv_pos_as_xyz
 1  'x, y, z'
loop_
 _atom_site_type_symbol
 _atom_site_label
 _atom_site_symmetry_multiplicity
 _atom_site_fract_x
 _atom_site_fract_y
 _atom_site_fract_z
 _atom_site_fract_occupancy
 O  O1  1  0.75005  0.28347  0.51705  1
 O  O2  1  0.25004  0.78348  0.98296  1
 O  O3  1  0.74996  0.21652  0.01705  1
 O  O4  1  0.24995  0.71650  0.48295  1
 O  O5  1  0.74998  0.89477  0.23589  1
 O  O6  1  0.75002  0.60526  0.73588  1
 O  O7  1  0.25002  0.10526  0.76412  1
 O  O8  1  0.24996  0.39476  0.26410  1
 V  V1  1  0.25009  0.39744  0.63590  1
 V  V2  1  0.24994  0.10257  0.13590  1
 V  V3  1  0.74992  0.60256  0.36409  1
 V  V4  1  0.75007  0.89743  0.86410  1
