CIF file written using JARVIS-Tools package.
data_SrF3
_symmetry_space_group_name_H-M  'P2_1/m'
_cell_length_a       4.21912
_cell_length_b       4.50391
_cell_length_c       5.98552
_cell_angle_alpha    90.8529
_cell_angle_beta     90
_cell_angle_gamma    90

_symmetry_Int_Tables_number  11
_chemical_formula_structural  SrF3
_chemical_formula_sum  Sr2F6
_cell_volume  113.72738538056944
_cell_formula_units_Z  2
loop_
  _symmetry_equiv_pos_site_id
 _symmetry_equiv_pos_as_xyz
 1  'x, y, z'
loop_
 _atom_site_type_symbol
 _atom_site_label
 _atom_site_symmetry_multiplicity
 _atom_site_fract_x
 _atom_site_fract_y
 _atom_site_fract_z
 _atom_site_fract_occupancy
 F  F1  1  0.75000  0.75009  0.45987  1
 F  F2  1  0.25000  0.24991  0.54013  1
 F  F3  1  0.75000  0.04173  0.86501  1
 F  F4  1  0.25000  0.95827  0.13499  1
 F  F5  1  0.75000  0.48117  0.86408  1
 F  F6  1  0.25000  0.51883  0.13592  1
 Sr  Sr1  1  0.75000  0.24684  0.28232  1
 Sr  Sr2  1  0.25000  0.75316  0.71768  1
