CIF file written using JARVIS-Tools package.
data_Na3CoO3
_symmetry_space_group_name_H-M  'P2_1/c'
_cell_length_a       6.22398
_cell_length_b       9.77659
_cell_length_c       6.80838
_cell_angle_alpha    90
_cell_angle_beta     115.176
_cell_angle_gamma    90

_symmetry_Int_Tables_number  14
_chemical_formula_structural  Na3CoO3
_chemical_formula_sum  Na2Co4O2
_cell_volume  374.9296112779456
_cell_formula_units_Z  4
loop_
  _symmetry_equiv_pos_site_id
 _symmetry_equiv_pos_as_xyz
 1  'x, y, z'
loop_
 _atom_site_type_symbol
 _atom_site_label
 _atom_site_symmetry_multiplicity
 _atom_site_fract_x
 _atom_site_fract_y
 _atom_site_fract_z
 _atom_site_fract_occupancy
 Co  Co1  1  0.28713  0.99042  0.26632  1
 Co  Co2  1  0.21287  0.49042  0.73368  1
 Co  Co3  1  0.71287  0.00958  0.73368  1
 Co  Co4  1  0.78713  0.50958  0.26632  1
 Na  Na1  1  0.93197  0.77253  0.99006  1
 Na  Na2  1  0.43197  0.72747  0.99006  1
 Na  Na3  1  0.74495  0.94396  0.24525  1
 Na  Na4  1  0.83086  0.22093  0.45943  1
 Na  Na5  1  0.06803  0.22747  0.00994  1
 Na  Na6  1  0.66914  0.72093  0.54057  1
 Na  Na7  1  0.33086  0.27907  0.45943  1
 Na  Na8  1  0.75505  0.44396  0.75475  1
 Na  Na9  1  0.16914  0.77907  0.54057  1
 Na  Na10  1  0.25505  0.05604  0.75475  1
 Na  Na11  1  0.56803  0.27253  0.00994  1
 Na  Na12  1  0.24495  0.55604  0.24525  1
 O  O1  1  0.44120  0.10537  0.16608  1
 O  O2  1  0.58547  0.42296  0.34659  1
 O  O3  1  0.31651  0.80833  0.26086  1
 O  O4  1  0.91453  0.92296  0.65341  1
 O  O5  1  0.08547  0.07704  0.34659  1
 O  O6  1  0.55880  0.89463  0.83392  1
 O  O7  1  0.41453  0.57704  0.65341  1
 O  O8  1  0.18349  0.30833  0.73914  1
 O  O9  1  0.05880  0.60537  0.83392  1
 O  O10  1  0.81651  0.69167  0.26086  1
 O  O11  1  0.68349  0.19167  0.73914  1
 O  O12  1  0.94120  0.39463  0.16608  1
