CIF file written using JARVIS-Tools package.
data_RbAuC2S2N2
_symmetry_space_group_name_H-M  'C2/c'
_cell_length_a       6.237
_cell_length_b       7.0847
_cell_length_c       17.207
_cell_angle_alpha    81.7702
_cell_angle_beta     79.5583
_cell_angle_gamma    63.885

_symmetry_Int_Tables_number  15
_chemical_formula_structural  RbAuC2S2N2
_chemical_formula_sum  Rb4Au4C8S8N8
_cell_volume  669.6721460341686
_cell_formula_units_Z  4
loop_
  _symmetry_equiv_pos_site_id
 _symmetry_equiv_pos_as_xyz
 1  'x, y, z'
loop_
 _atom_site_type_symbol
 _atom_site_label
 _atom_site_symmetry_multiplicity
 _atom_site_fract_x
 _atom_site_fract_y
 _atom_site_fract_z
 _atom_site_fract_occupancy
 Au  Au1  1  0.66520  0.25000  0.75000  1
 Au  Au2  1  0.33480  0.75000  0.25000  1
 Au  Au3  1  0.16328  0.25000  0.75000  1
 Au  Au4  1  0.83672  0.75000  0.25000  1
 C  C1  1  0.54435  0.63328  0.41390  1
 C  C2  1  0.59154  0.86672  0.08610  1
 C  C3  1  0.82184  0.60938  0.85620  1
 C  C4  1  0.17816  0.39062  0.14380  1
 C  C5  1  0.45565  0.36672  0.58610  1
 C  C6  1  0.40846  0.13328  0.91390  1
 C  C7  1  0.71259  0.10938  0.35620  1
 C  C8  1  0.28741  0.89062  0.64380  1
 N  N1  1  0.77010  0.88835  0.06462  1
 N  N2  1  0.72307  0.61165  0.43538  1
 N  N3  1  0.75643  0.11472  0.41937  1
 N  N4  1  0.24357  0.88528  0.58063  1
 N  N5  1  0.29052  0.38528  0.08063  1
 N  N6  1  0.70948  0.61472  0.91937  1
 N  N7  1  0.22990  0.11165  0.93538  1
 N  N8  1  0.27693  0.38835  0.56462  1
 Rb  Rb1  1  0.80926  0.29735  0.06105  1
 Rb  Rb2  1  0.16766  0.20265  0.43895  1
 Rb  Rb3  1  0.83234  0.79735  0.56105  1
 Rb  Rb4  1  0.19074  0.70265  0.93895  1
 S  S1  1  0.37064  0.89012  0.73029  1
 S  S2  1  0.34021  0.83270  0.11288  1
 S  S3  1  0.00894  0.39012  0.23029  1
 S  S4  1  0.71421  0.33270  0.61288  1
 S  S5  1  0.28579  0.66730  0.38712  1
 S  S6  1  0.65979  0.16730  0.88712  1
 S  S7  1  0.99106  0.60988  0.76971  1
 S  S8  1  0.62936  0.10988  0.26971  1
