CIF file written using JARVIS-Tools package.
data_NbSe2SN2ClF6
_symmetry_space_group_name_H-M  'P2_1/c'
_cell_length_a       7.90784
_cell_length_b       10.4649
_cell_length_c       12.1166
_cell_angle_alpha    109.54
_cell_angle_beta     90
_cell_angle_gamma    90

_symmetry_Int_Tables_number  14
_chemical_formula_structural  NbSe2SN2ClF6
_chemical_formula_sum  Nb4Se8S4N8Cl4F24
_cell_volume  944.963055649896
_cell_formula_units_Z  4
loop_
  _symmetry_equiv_pos_site_id
 _symmetry_equiv_pos_as_xyz
 1  'x, y, z'
loop_
 _atom_site_type_symbol
 _atom_site_label
 _atom_site_symmetry_multiplicity
 _atom_site_fract_x
 _atom_site_fract_y
 _atom_site_fract_z
 _atom_site_fract_occupancy
 Cl  Cl1  1  0.69843  0.86190  0.33423  1
 Cl  Cl2  1  0.19843  0.63810  0.16577  1
 Cl  Cl3  1  0.80157  0.36190  0.83423  1
 Cl  Cl4  1  0.30157  0.13810  0.66577  1
 F  F1  1  0.94532  0.06551  0.26901  1
 F  F2  1  0.35659  0.45269  0.89569  1
 F  F3  1  0.72354  0.27994  0.25766  1
 F  F4  1  0.09047  0.60172  0.87440  1
 F  F5  1  0.11090  0.23406  0.45856  1
 F  F6  1  0.44532  0.43449  0.23099  1
 F  F7  1  0.14341  0.95269  0.39569  1
 F  F8  1  0.77646  0.77994  0.75766  1
 F  F9  1  0.25943  0.44401  0.67487  1
 F  F10  1  0.90953  0.39828  0.12560  1
 F  F11  1  0.05468  0.93449  0.73099  1
 F  F12  1  0.64341  0.54731  0.10431  1
 F  F13  1  0.22354  0.22006  0.24234  1
 F  F14  1  0.27646  0.72006  0.74234  1
 F  F15  1  0.85659  0.04731  0.60431  1
 F  F16  1  0.59047  0.89828  0.62560  1
 F  F17  1  0.88910  0.76594  0.54144  1
 F  F18  1  0.24057  0.94401  0.17487  1
 F  F19  1  0.38910  0.73406  0.95856  1
 F  F20  1  0.75943  0.05599  0.82513  1
 F  F21  1  0.55468  0.56551  0.76901  1
 F  F22  1  0.61090  0.26594  0.04144  1
 F  F23  1  0.74057  0.55599  0.32513  1
 F  F24  1  0.40953  0.10172  0.37440  1
 N  N1  1  0.87776  0.87688  0.00477  1
 N  N2  1  0.62224  0.37688  0.50477  1
 N  N3  1  0.39341  0.01936  0.87525  1
 N  N4  1  0.12224  0.12312  -0.00477  1
 N  N5  1  0.60659  0.98064  0.12475  1
 N  N6  1  0.10659  0.51936  0.37525  1
 N  N7  1  0.37776  0.62312  0.49523  1
 N  N8  1  0.89341  0.48064  0.62475  1
 Nb  Nb1  1  0.17865  0.08841  0.31656  1
 Nb  Nb2  1  0.32135  0.58841  0.81656  1
 Nb  Nb3  1  0.67865  0.41159  0.18344  1
 Nb  Nb4  1  0.82135  0.91159  0.68344  1
 S  S1  1  0.73180  0.50685  0.55669  1
 S  S2  1  0.76820  0.00685  0.05669  1
 S  S3  1  0.26820  0.49315  0.44331  1
 S  S4  1  0.23180  -0.00685  0.94331  1
 Se  Se1  1  0.58294  0.82359  0.15010  1
 Se  Se2  1  0.08294  0.67641  0.34990  1
 Se  Se3  1  0.67838  0.21953  0.52335  1
 Se  Se4  1  0.32162  0.78047  0.47665  1
 Se  Se5  1  0.41706  0.17641  0.84990  1
 Se  Se6  1  0.91706  0.32359  0.65010  1
 Se  Se7  1  0.82162  0.71953  0.02335  1
 Se  Se8  1  0.17838  0.28047  0.97665  1
