CIF file written using JARVIS-Tools package.
data_CuRh2O4
_symmetry_space_group_name_H-M  'Fd-3m'
_cell_length_a       6.06596
_cell_length_b       6.06596
_cell_length_c       6.06596
_cell_angle_alpha    90.0117
_cell_angle_beta     119.993
_cell_angle_gamma    119.993

_symmetry_Int_Tables_number  227
_chemical_formula_structural  CuRh2O4
_chemical_formula_sum  Cu2Rh4O8
_cell_volume  157.8435232754055
_cell_formula_units_Z  2
loop_
  _symmetry_equiv_pos_site_id
 _symmetry_equiv_pos_as_xyz
 1  'x, y, z'
loop_
 _atom_site_type_symbol
 _atom_site_label
 _atom_site_symmetry_multiplicity
 _atom_site_fract_x
 _atom_site_fract_y
 _atom_site_fract_z
 _atom_site_fract_occupancy
 Cu  Cu1  1  0.00000  0.00000  0.00000  1
 Cu  Cu2  1  0.50000  0.75000  0.25000  1
 O  O1  1  0.22689  0.61341  0.38652  1
 O  O2  1  0.77311  0.15964  0.38652  1
 O  O3  1  0.72689  0.13652  0.86341  1
 O  O4  1  0.77311  0.61348  0.38659  1
 O  O5  1  0.22689  0.61348  0.84036  1
 O  O6  1  0.27311  0.13659  0.86348  1
 O  O7  1  0.27311  0.13652  0.40964  1
 O  O8  1  0.72689  0.59036  0.86348  1
 Rh  Rh1  1  0.75000  0.37500  0.12500  1
 Rh  Rh2  1  0.75000  0.37500  0.62500  1
 Rh  Rh3  1  0.25000  0.37500  0.62500  1
 Rh  Rh4  1  0.25000  0.87500  0.62500  1
