CIF file written using JARVIS-Tools package.
data_LaCdB5O10
_symmetry_space_group_name_H-M  'P2_1/c'
_cell_length_a       7.94955
_cell_length_b       8.79356
_cell_length_c       9.69046
_cell_angle_alpha    91.533
_cell_angle_beta     90
_cell_angle_gamma    90

_symmetry_Int_Tables_number  14
_chemical_formula_structural  LaCdB5O10
_chemical_formula_sum  La4Cd4B20O40
_cell_volume  677.1670517414914
_cell_formula_units_Z  4
loop_
  _symmetry_equiv_pos_site_id
 _symmetry_equiv_pos_as_xyz
 1  'x, y, z'
loop_
 _atom_site_type_symbol
 _atom_site_label
 _atom_site_symmetry_multiplicity
 _atom_site_fract_x
 _atom_site_fract_y
 _atom_site_fract_z
 _atom_site_fract_occupancy
 B  B1  1  0.92236  0.41710  0.75505  1
 B  B2  1  0.10251  0.64836  0.50289  1
 B  B3  1  0.32489  0.93244  0.40805  1
 B  B4  1  0.17511  0.43244  0.90805  1
 B  B5  1  0.67511  0.06756  0.59195  1
 B  B6  1  0.60251  0.85164  0.99711  1
 B  B7  1  0.17434  0.98189  0.90009  1
 B  B8  1  0.67434  0.51811  0.59991  1
 B  B9  1  0.42236  0.08290  0.74495  1
 B  B10  1  0.32566  0.48189  0.40009  1
 B  B11  1  0.82566  0.01811  0.09991  1
 B  B12  1  0.46893  0.28203  0.55720  1
 B  B13  1  0.96893  0.21797  0.94280  1
 B  B14  1  0.53107  0.71797  0.44280  1
 B  B15  1  0.03107  0.78203  0.05720  1
 B  B16  1  0.07764  0.58290  0.24495  1
 B  B17  1  0.82489  0.56756  0.09195  1
 B  B18  1  0.89749  0.35164  0.49711  1
 B  B19  1  0.39749  0.14836  0.00289  1
 B  B20  1  0.57764  0.91710  0.25505  1
 Cd  Cd1  1  0.59136  0.39181  0.87444  1
 Cd  Cd2  1  0.09136  0.10819  0.62556  1
 Cd  Cd3  1  0.40864  0.60819  0.12556  1
 Cd  Cd4  1  0.90864  0.89181  0.37444  1
 La  La1  1  0.67553  0.31058  0.26564  1
 La  La2  1  0.17553  0.18942  0.23436  1
 La  La3  1  0.82447  0.81058  0.76564  1
 La  La4  1  0.32447  0.68942  0.73436  1
 O  O1  1  0.66902  0.50005  0.07736  1
 O  O2  1  0.16902  -0.00005  0.42264  1
 O  O3  1  0.55465  0.76320  0.88710  1
 O  O4  1  0.05465  0.73680  0.61290  1
 O  O5  1  0.44535  0.23680  0.11290  1
 O  O6  1  0.28724  0.97015  0.77420  1
 O  O7  1  0.14050  0.69157  0.14391  1
 O  O8  1  0.94535  0.26320  0.38710  1
 O  O9  1  0.46708  0.16629  0.87474  1
 O  O10  1  0.83098  0.00005  0.57736  1
 O  O11  1  0.53292  0.83371  0.12526  1
 O  O12  1  0.03292  0.66629  0.37474  1
 O  O13  1  0.57619  0.00649  0.69417  1
 O  O14  1  0.07619  0.49351  0.80583  1
 O  O15  1  0.42381  0.99351  0.30583  1
 O  O16  1  0.92381  0.50649  0.19417  1
 O  O17  1  0.35950  0.19157  0.64391  1
 O  O18  1  0.21276  0.47015  0.27420  1
 O  O19  1  0.33098  0.49995  0.92264  1
 O  O20  1  0.38781  0.32559  0.42362  1
 O  O21  1  0.64050  0.80843  0.35609  1
 O  O22  1  0.87999  0.68641  0.01444  1
 O  O23  1  0.47040  0.58062  0.36246  1
 O  O24  1  0.97040  0.91938  0.13754  1
 O  O25  1  0.61219  0.67441  0.57638  1
 O  O26  1  0.11219  0.82559  0.92362  1
 O  O27  1  0.71276  0.02985  0.22580  1
 O  O28  1  0.62001  0.18641  0.51444  1
 O  O29  1  0.27007  0.04174  0.01928  1
 O  O30  1  0.22993  0.54174  0.51928  1
 O  O31  1  0.72993  0.95826  0.98072  1
 O  O32  1  0.02960  0.08062  0.86246  1
 O  O33  1  0.12001  0.31359  0.98556  1
 O  O34  1  0.37999  0.81359  0.48556  1
 O  O35  1  0.88781  0.17441  0.07638  1
 O  O36  1  0.77007  0.45826  0.48072  1
 O  O37  1  0.52960  0.41938  0.63754  1
 O  O38  1  0.85950  0.30843  0.85609  1
 O  O39  1  0.78724  0.52985  0.72580  1
 O  O40  1  0.96708  0.33371  0.62526  1
