CIF file written using JARVIS-Tools package.
data_LiFeF4
_symmetry_space_group_name_H-M  'C2/m'
_cell_length_a       6.80838
_cell_length_b       6.80838
_cell_length_c       7.20098
_cell_angle_alpha    74.7798
_cell_angle_beta     105.22
_cell_angle_gamma    97.7303

_symmetry_Int_Tables_number  12
_chemical_formula_structural  LiFeF4
_chemical_formula_sum  Li4Fe4F6
_cell_volume  310.01673828185073
_cell_formula_units_Z  4
loop_
  _symmetry_equiv_pos_site_id
 _symmetry_equiv_pos_as_xyz
 1  'x, y, z'
loop_
 _atom_site_type_symbol
 _atom_site_label
 _atom_site_symmetry_multiplicity
 _atom_site_fract_x
 _atom_site_fract_y
 _atom_site_fract_z
 _atom_site_fract_occupancy
 F  F1  1  0.50990  0.18283  0.60842  1
 F  F2  1  0.18622  0.81378  0.61781  1
 F  F3  1  0.13680  0.86320  0.05004  1
 F  F4  1  0.53050  0.81098  0.97628  1
 F  F5  1  0.86320  0.13680  0.94996  1
 F  F6  1  0.49010  0.81717  0.39158  1
 F  F7  1  0.18283  0.50990  0.39158  1
 F  F8  1  0.18902  0.46950  0.97628  1
 F  F9  1  0.80400  0.89245  0.71891  1
 F  F10  1  0.19600  0.10755  0.28109  1
 F  F11  1  0.89245  0.80400  0.28109  1
 F  F12  1  0.81378  0.18622  0.38219  1
 F  F13  1  0.81717  0.49010  0.60842  1
 F  F14  1  0.81098  0.53050  0.02372  1
 F  F15  1  0.46950  0.18902  0.02372  1
 F  F16  1  0.10755  0.19600  0.71891  1
 Fe  Fe1  1  0.78732  0.21268  0.62577  1
 Fe  Fe2  1  0.80379  0.80379  0.00000  1
 Fe  Fe3  1  0.19621  0.19621  0.00000  1
 Fe  Fe4  1  0.21268  0.78732  0.37423  1
 Li  Li1  1  0.74204  0.25796  0.10853  1
 Li  Li2  1  0.76251  0.76251  0.50000  1
 Li  Li3  1  0.23749  0.23749  0.50000  1
 Li  Li4  1  0.25796  0.74204  0.89147  1
