CIF file written using JARVIS-Tools package.
data_K2NaAlP2
_symmetry_space_group_name_H-M  'Ibam'
_cell_length_a       8.59299
_cell_length_b       8.59299
_cell_length_c       8.59299
_cell_angle_alpha    136.982
_cell_angle_beta     135.019
_cell_angle_gamma    63.9924

_symmetry_Int_Tables_number  72
_chemical_formula_structural  K2NaAlP2
_chemical_formula_sum  K4Na2Al2P4
_cell_volume  301.8825413291763
_cell_formula_units_Z  2
loop_
  _symmetry_equiv_pos_site_id
 _symmetry_equiv_pos_as_xyz
 1  'x, y, z'
loop_
 _atom_site_type_symbol
 _atom_site_label
 _atom_site_symmetry_multiplicity
 _atom_site_fract_x
 _atom_site_fract_y
 _atom_site_fract_z
 _atom_site_fract_occupancy
 Al  Al1  1  0.00000  0.75000  0.75000  1
 Al  Al2  1  0.00000  0.25000  0.25000  1
 K  K1  1  0.44206  0.67701  0.76506  1
 K  K2  1  0.55794  0.32299  0.23494  1
 K  K3  1  0.08805  0.82299  0.26506  1
 K  K4  1  0.91195  0.17701  0.73494  1
 Na  Na1  1  0.50000  0.25000  0.75000  1
 Na  Na2  1  0.50000  0.75000  0.25000  1
 P  P1  1  0.29230  0.09309  0.19922  1
 P  P2  1  0.70770  0.90691  0.80078  1
 P  P3  1  0.10613  0.40691  0.69922  1
 P  P4  1  0.89387  0.59309  0.30078  1
