CIF file written using JARVIS-Tools package.
data_Ba3GeO5
_symmetry_space_group_name_H-M  'I4/mcm'
_cell_length_a       7.85105
_cell_length_b       7.85105
_cell_length_c       7.85105
_cell_angle_alpha    124.015
_cell_angle_beta     124.015
_cell_angle_gamma    83.1766

_symmetry_Int_Tables_number  140
_chemical_formula_structural  Ba3GeO5
_chemical_formula_sum  Ba6Ge2O0
_cell_volume  318.94550320771435
_cell_formula_units_Z  2
loop_
  _symmetry_equiv_pos_site_id
 _symmetry_equiv_pos_as_xyz
 1  'x, y, z'
loop_
 _atom_site_type_symbol
 _atom_site_label
 _atom_site_symmetry_multiplicity
 _atom_site_fract_x
 _atom_site_fract_y
 _atom_site_fract_z
 _atom_site_fract_occupancy
 Ba  Ba1  1  0.81988  0.31988  0.13977  1
 Ba  Ba2  1  0.25000  0.25000  0.00000  1
 Ba  Ba3  1  0.75000  0.75000  0.00000  1
 Ba  Ba4  1  0.31988  0.18012  0.50000  1
 Ba  Ba5  1  0.68012  0.81988  0.50000  1
 Ba  Ba6  1  0.18012  0.68012  0.86023  1
 Ge  Ge1  1  0.75000  0.25000  0.50000  1
 Ge  Ge2  1  0.25000  0.75000  0.50000  1
 O  O1  1  0.02128  0.79258  0.50000  1
 O  O2  1  0.97872  0.20742  0.50000  1
 O  O3  1  0.00000  0.00000  0.00000  1
 O  O4  1  0.52128  0.02128  0.22871  1
 O  O5  1  0.20742  0.70742  0.22871  1
 O  O6  1  0.79258  0.29258  0.77129  1
 O  O7  1  0.29258  0.52128  0.50000  1
 O  O8  1  0.50000  0.50000  0.00000  1
 O  O9  1  0.70742  0.47872  0.50000  1
 O  O10  1  0.47872  0.97872  0.77129  1
