CIF file written using JARVIS-Tools package.
data_LiAuF6
_symmetry_space_group_name_H-M  'R-3'
_cell_length_a       4.95272
_cell_length_b       4.95272
_cell_length_c       5.40098
_cell_angle_alpha    62.7096
_cell_angle_beta     62.7096
_cell_angle_gamma    60

_symmetry_Int_Tables_number  148
_chemical_formula_structural  LiAuF6
_chemical_formula_sum  LiAuF6
_cell_volume  97.33454959689378
_cell_formula_units_Z  1
loop_
  _symmetry_equiv_pos_site_id
 _symmetry_equiv_pos_as_xyz
 1  'x, y, z'
loop_
 _atom_site_type_symbol
 _atom_site_label
 _atom_site_symmetry_multiplicity
 _atom_site_fract_x
 _atom_site_fract_y
 _atom_site_fract_z
 _atom_site_fract_occupancy
 Au  Au1  1  0.00000  0.00000  0.00000  1
 F  F1  1  0.90900  0.60424  0.24597  1
 F  F2  1  0.60424  0.24079  0.24597  1
 F  F3  1  0.24079  0.90900  0.24597  1
 F  F4  1  0.09100  0.39576  0.75403  1
 F  F5  1  0.39576  0.75921  0.75403  1
 F  F6  1  0.75921  0.09100  0.75403  1
 Li  Li1  1  0.50000  0.50000  0.50000  1
