CIF file written using JARVIS-Tools package.
data_Na4CoO4
_symmetry_space_group_name_H-M  'P-1'
_cell_length_a       5.67533
_cell_length_b       5.69786
_cell_length_c       8.64832
_cell_angle_alpha    71.1999
_cell_angle_beta     80.587
_cell_angle_gamma    68.3869

_symmetry_Int_Tables_number  2
_chemical_formula_structural  Na4CoO4
_chemical_formula_sum  Na8Co2O8
_cell_volume  245.80909147184892
_cell_formula_units_Z  2
loop_
  _symmetry_equiv_pos_site_id
 _symmetry_equiv_pos_as_xyz
 1  'x, y, z'
loop_
 _atom_site_type_symbol
 _atom_site_label
 _atom_site_symmetry_multiplicity
 _atom_site_fract_x
 _atom_site_fract_y
 _atom_site_fract_z
 _atom_site_fract_occupancy
 Co  Co1  1  0.44152  0.68428  0.50157  1
 Co  Co2  1  0.00338  0.99774  0.99337  1
 Na  Na1  1  0.47144  0.44024  0.92802  1
 Na  Na2  1  0.45378  0.31870  0.31919  1
 Na  Na3  1  0.46859  0.07824  0.73383  1
 Na  Na4  1  0.96396  0.78964  0.35072  1
 Na  Na5  1  0.48094  0.89240  0.14424  1
 Na  Na6  1  0.99113  0.36339  0.17572  1
 Na  Na7  1  0.97628  0.60381  0.76108  1
 Na  Na8  1  0.97350  0.24173  0.56692  1
 O  O1  1  0.69912  0.54705  0.36284  1
 O  O2  1  0.20410  0.67264  0.10912  1
 O  O3  1  0.86597  0.99581  0.81973  1
 O  O4  1  0.19806  0.21020  0.94325  1
 O  O5  1  0.57888  0.68622  0.67523  1
 O  O6  1  0.24681  0.47185  0.55166  1
 O  O7  1  0.24084  0.00939  0.38581  1
 O  O8  1  0.74581  0.13497  0.13211  1
