CIF file written using JARVIS-Tools package.
data_LiB13C2
_symmetry_space_group_name_H-M  'Ima2'
_cell_length_a       5.67253
_cell_length_b       7.31421
_cell_length_c       7.31427
_cell_angle_alpha    66.6568
_cell_angle_beta     67.1838
_cell_angle_gamma    67.1836

_symmetry_Int_Tables_number  46
_chemical_formula_structural  LiB13C2
_chemical_formula_sum  Li2B26C4
_cell_volume  246.80479810303194
_cell_formula_units_Z  2
loop_
  _symmetry_equiv_pos_site_id
 _symmetry_equiv_pos_as_xyz
 1  'x, y, z'
loop_
 _atom_site_type_symbol
 _atom_site_label
 _atom_site_symmetry_multiplicity
 _atom_site_fract_x
 _atom_site_fract_y
 _atom_site_fract_z
 _atom_site_fract_occupancy
 B  B1  1  0.90688  0.09228  0.77076  1
 B  B2  1  0.17922  0.12526  0.02017  1
 B  B3  1  0.17322  0.52261  0.62282  1
 B  B4  1  0.81675  0.87907  0.97930  1
 B  B5  1  0.26801  0.73115  0.40962  1
 B  B6  1  0.67922  0.52260  0.62283  1
 B  B7  1  0.67322  0.12526  0.02017  1
 B  B8  1  0.40687  0.27320  0.58985  1
 B  B9  1  0.33082  0.68165  0.65458  1
 B  B10  1  0.42423  0.39897  0.75042  1
 B  B11  1  0.58911  0.73112  0.40962  1
 B  B12  1  0.83083  0.15701  0.17921  1
 B  B13  1  0.82275  0.48174  0.37664  1
 B  B14  1  0.31675  0.48173  0.37664  1
 B  B15  1  0.76801  0.91205  0.22871  1
 B  B16  1  0.16515  0.84732  0.82026  1
 B  B17  1  0.92424  0.25286  0.89653  1
 B  B18  1  0.72795  0.27322  0.58985  1
 B  B19  1  0.22795  0.09228  0.77079  1
 B  B20  1  0.07172  0.75148  0.10294  1
 B  B21  1  0.32275  0.87907  0.97931  1
 B  B22  1  0.57172  0.60537  0.24905  1
 B  B23  1  0.24796  0.38803  0.11386  1
 B  B24  1  0.08911  0.91205  0.22869  1
 B  B25  1  0.74796  0.61629  0.88560  1
 B  B26  1  0.66515  0.32269  0.34490  1
 C  C1  1  0.37857  0.25118  0.98954  1
 C  C2  1  0.61740  0.75315  0.00993  1
 C  C3  1  0.87857  0.49198  0.74874  1
 C  C4  1  0.11740  0.51235  0.25072  1
 Li  Li1  1  0.24882  0.05885  0.44314  1
 Li  Li2  1  0.74881  0.94555  0.55639  1
