CIF file written using JARVIS-Tools package.
data_SrB2Rh2
_symmetry_space_group_name_H-M  'Fddd'
_cell_length_a       5.61139
_cell_length_b       5.6114
_cell_length_c       6.14097
_cell_angle_alpha    105.454
_cell_angle_beta     105.454
_cell_angle_gamma    114.631

_symmetry_Int_Tables_number  70
_chemical_formula_structural  SrB2Rh2
_chemical_formula_sum  Sr2B4Rh4
_cell_volume  152.88159403053245
_cell_formula_units_Z  2
loop_
  _symmetry_equiv_pos_site_id
 _symmetry_equiv_pos_as_xyz
 1  'x, y, z'
loop_
 _atom_site_type_symbol
 _atom_site_label
 _atom_site_symmetry_multiplicity
 _atom_site_fract_x
 _atom_site_fract_y
 _atom_site_fract_z
 _atom_site_fract_occupancy
 B  B1  1  0.54747  0.45253  0.25000  1
 B  B2  1  0.79747  0.20253  0.75000  1
 B  B3  1  0.20253  0.79747  0.25000  1
 B  B4  1  0.45253  0.54747  0.75000  1
 Rh  Rh1  1  0.50596  0.75596  0.51191  1
 Rh  Rh2  1  0.75596  0.50596  0.01191  1
 Rh  Rh3  1  0.49404  0.24404  0.48809  1
 Rh  Rh4  1  0.24404  0.49404  0.98809  1
 Sr  Sr1  1  0.87500  0.12500  0.25000  1
 Sr  Sr2  1  0.12500  0.87500  0.75000  1
