CIF file written using JARVIS-Tools package.
data_LiBH2OF4
_symmetry_space_group_name_H-M  'Pnna'
_cell_length_a       5.045
_cell_length_b       10.1287
_cell_length_c       13.1258
_cell_angle_alpha    90
_cell_angle_beta     90
_cell_angle_gamma    90

_symmetry_Int_Tables_number  52
_chemical_formula_structural  LiBH2OF4
_chemical_formula_sum  Li8B8H6O8F32
_cell_volume  670.7201465465714
_cell_formula_units_Z  8
loop_
  _symmetry_equiv_pos_site_id
 _symmetry_equiv_pos_as_xyz
 1  'x, y, z'
loop_
 _atom_site_type_symbol
 _atom_site_label
 _atom_site_symmetry_multiplicity
 _atom_site_fract_x
 _atom_site_fract_y
 _atom_site_fract_z
 _atom_site_fract_occupancy
 B  B1  1  0.52367  0.62489  0.12466  1
 B  B2  1  0.52367  0.87511  0.87534  1
 B  B3  1  0.97633  0.62489  0.37534  1
 B  B4  1  0.97633  0.87511  0.62466  1
 B  B5  1  0.47633  0.37511  0.87534  1
 B  B6  1  0.47633  0.12489  0.12466  1
 B  B7  1  0.02367  0.37511  0.62466  1
 B  B8  1  0.02367  0.12489  0.37534  1
 F  F1  1  0.72715  0.87384  0.57391  1
 F  F2  1  0.49370  0.01016  0.18546  1
 F  F3  1  0.49370  0.48984  0.81454  1
 F  F4  1  0.99370  0.98984  0.68546  1
 F  F5  1  0.99370  0.51016  0.31454  1
 F  F6  1  0.00505  0.26123  0.68681  1
 F  F7  1  0.50630  0.98984  0.81454  1
 F  F8  1  0.72715  0.62616  0.42609  1
 F  F9  1  0.77285  0.87384  0.92609  1
 F  F10  1  0.22715  0.37384  0.92609  1
 F  F11  1  0.00505  0.23877  0.31319  1
 F  F12  1  0.27285  0.37384  0.57391  1
 F  F13  1  0.50505  0.73877  0.18681  1
 F  F14  1  0.50630  0.51016  0.18546  1
 F  F15  1  0.77285  0.62616  0.07391  1
 F  F16  1  0.50505  0.76123  0.81319  1
 F  F17  1  0.99495  0.73877  0.31319  1
 F  F18  1  0.99495  0.76123  0.68681  1
 F  F19  1  0.49495  0.26123  0.81319  1
 F  F20  1  0.49495  0.23877  0.18681  1
 F  F21  1  0.27285  0.12616  0.42609  1
 F  F22  1  0.22715  0.12616  0.07391  1
 F  F23  1  0.81765  0.12471  0.44798  1
 F  F24  1  0.00630  0.48984  0.68546  1
 F  F25  1  0.31765  0.62471  0.05202  1
 F  F26  1  0.31765  0.87529  0.94798  1
 F  F27  1  0.00630  0.01016  0.31454  1
 F  F28  1  0.18235  0.62471  0.44798  1
 F  F29  1  0.18235  0.87529  0.55202  1
 F  F30  1  0.68235  0.37529  0.94798  1
 F  F31  1  0.68235  0.12471  0.05202  1
 F  F32  1  0.81765  0.37529  0.55202  1
 H  H1  1  0.81829  0.62588  0.85278  1
 H  H2  1  0.53036  0.03282  0.60000  1
 H  H3  1  0.53036  0.46718  0.40000  1
 H  H4  1  0.96964  0.03282  0.90000  1
 H  H5  1  0.96964  0.46718  0.10000  1
 H  H6  1  0.46964  0.96718  0.40000  1
 H  H7  1  0.46964  0.53282  0.60000  1
 H  H8  1  0.03036  0.96718  0.10000  1
 H  H9  1  0.03036  0.53282  0.90000  1
 H  H10  1  0.81829  0.87412  0.14722  1
 H  H11  1  0.31829  0.37412  0.35278  1
 H  H12  1  0.18171  0.12588  0.85278  1
 H  H13  1  0.68171  0.87412  0.35278  1
 H  H14  1  0.68171  0.62588  0.64722  1
 H  H15  1  0.31829  0.12588  0.64722  1
 H  H16  1  0.18171  0.37412  0.14722  1
 Li  Li1  1  0.04127  0.75000  0.00000  1
 Li  Li2  1  0.75000  0.36450  0.25000  1
 Li  Li3  1  0.75000  0.13550  0.75000  1
 Li  Li4  1  0.25000  0.63550  0.75000  1
 Li  Li5  1  0.25000  0.86450  0.25000  1
 Li  Li6  1  0.54127  0.25000  0.50000  1
 Li  Li7  1  0.95873  0.25000  0.00000  1
 Li  Li8  1  0.45873  0.75000  0.50000  1
 O  O1  1  0.00261  0.87652  0.12400  1
 O  O2  1  0.49739  0.62348  0.62400  1
 O  O3  1  0.49739  0.87652  0.37600  1
 O  O4  1  0.50261  0.37652  0.37600  1
 O  O5  1  0.50261  0.12348  0.62400  1
 O  O6  1  0.99739  0.12348  0.87600  1
 O  O7  1  0.00261  0.62348  0.87600  1
 O  O8  1  0.99739  0.37652  0.12400  1
