CIF file written using JARVIS-Tools package.
data_DyAlAu
_symmetry_space_group_name_H-M  'Pnma'
_cell_length_a       4.4496
_cell_length_b       7.19947
_cell_length_c       7.78081
_cell_angle_alpha    90
_cell_angle_beta     90
_cell_angle_gamma    90

_symmetry_Int_Tables_number  62
_chemical_formula_structural  DyAlAu
_chemical_formula_sum  Dy4Al4Au4
_cell_volume  249.25645593530467
_cell_formula_units_Z  4
loop_
  _symmetry_equiv_pos_site_id
 _symmetry_equiv_pos_as_xyz
 1  'x, y, z'
loop_
 _atom_site_type_symbol
 _atom_site_label
 _atom_site_symmetry_multiplicity
 _atom_site_fract_x
 _atom_site_fract_y
 _atom_site_fract_z
 _atom_site_fract_occupancy
 Al  Al1  1  0.25000  0.17244  0.07849  1
 Al  Al2  1  0.75000  0.32756  0.57849  1
 Al  Al3  1  0.75000  0.82756  0.92151  1
 Al  Al4  1  0.25000  0.67244  0.42151  1
 Au  Au1  1  0.25000  0.28643  0.40456  1
 Au  Au2  1  0.75000  0.21357  0.90456  1
 Au  Au3  1  0.75000  0.71357  0.59544  1
 Au  Au4  1  0.25000  0.78643  0.09544  1
 Dy  Dy1  1  0.25000  0.00932  0.69532  1
 Dy  Dy2  1  0.75000  0.49068  0.19532  1
 Dy  Dy3  1  0.75000  0.99068  0.30468  1
 Dy  Dy4  1  0.25000  0.50932  0.80468  1
