CIF file written using JARVIS-Tools package.
data_La2Ga12Pd
_symmetry_space_group_name_H-M  'P4/nbm'
_cell_length_a       6.20758
_cell_length_b       6.20758
_cell_length_c       15.6232
_cell_angle_alpha    90
_cell_angle_beta     90
_cell_angle_gamma    90

_symmetry_Int_Tables_number  125
_chemical_formula_structural  La2Ga12Pd
_chemical_formula_sum  La4Ga24Pd2
_cell_volume  602.0255588910362
_cell_formula_units_Z  2
loop_
  _symmetry_equiv_pos_site_id
 _symmetry_equiv_pos_as_xyz
 1  'x, y, z'
loop_
 _atom_site_type_symbol
 _atom_site_label
 _atom_site_symmetry_multiplicity
 _atom_site_fract_x
 _atom_site_fract_y
 _atom_site_fract_z
 _atom_site_fract_occupancy
 Ga  Ga1  1  0.25000  0.25000  0.18330  1
 Ga  Ga2  1  0.07213  0.92787  0.42871  1
 Ga  Ga3  1  0.25000  0.25000  0.65763  1
 Ga  Ga4  1  0.92787  0.42787  0.42871  1
 Ga  Ga5  1  0.57213  0.42787  0.57129  1
 Ga  Ga6  1  0.25000  0.25000  0.81670  1
 Ga  Ga7  1  0.75000  0.75000  0.34237  1
 Ga  Ga8  1  0.92787  0.07213  0.57129  1
 Ga  Ga9  1  0.57213  0.07213  0.42871  1
 Ga  Ga10  1  0.99973  0.00027  0.08773  1
 Ga  Ga11  1  0.75000  0.75000  0.65763  1
 Ga  Ga12  1  0.99973  0.49973  0.91227  1
 Ga  Ga13  1  0.50027  0.49973  0.08773  1
 Ga  Ga14  1  0.49973  0.99973  0.08773  1
 Ga  Ga15  1  0.75000  0.75000  0.18330  1
 Ga  Ga16  1  0.42787  0.57213  0.42871  1
 Ga  Ga17  1  0.75000  0.75000  0.81670  1
 Ga  Ga18  1  0.00027  0.50027  0.08773  1
 Ga  Ga19  1  0.25000  0.25000  0.34237  1
 Ga  Ga20  1  0.00027  0.99973  0.91227  1
 Ga  Ga21  1  0.49973  0.50027  0.91227  1
 Ga  Ga22  1  0.07213  0.57213  0.57129  1
 Ga  Ga23  1  0.50027  0.00027  0.91227  1
 Ga  Ga24  1  0.42787  0.92787  0.57129  1
 La  La1  1  0.25000  0.75000  0.75521  1
 La  La2  1  0.75000  0.25000  0.24479  1
 La  La3  1  0.75000  0.25000  0.75521  1
 La  La4  1  0.25000  0.75000  0.24479  1
 Pd  Pd1  1  0.25000  0.75000  0.00000  1
 Pd  Pd2  1  0.75000  0.25000  0.00000  1
