CIF file written using JARVIS-Tools package.
data_S
_symmetry_space_group_name_H-M  'P2_1/c'
_cell_length_a       7.2921
_cell_length_b       10.5672
_cell_length_c       11.8801
_cell_angle_alpha    93.7845
_cell_angle_beta     90
_cell_angle_gamma    90

_symmetry_Int_Tables_number  14
_chemical_formula_structural  S
_chemical_formula_sum  S36
_cell_volume  913.4459968356642
_cell_formula_units_Z  36
loop_
  _symmetry_equiv_pos_site_id
 _symmetry_equiv_pos_as_xyz
 1  'x, y, z'
loop_
 _atom_site_type_symbol
 _atom_site_label
 _atom_site_symmetry_multiplicity
 _atom_site_fract_x
 _atom_site_fract_y
 _atom_site_fract_z
 _atom_site_fract_occupancy
 S  S1  1  0.47761  0.70580  0.57102  1
 S  S2  1  0.50352  0.99109  0.34070  1
 S  S3  1  0.02239  0.20580  0.07102  1
 S  S4  1  0.99648  0.49109  0.84070  1
 S  S5  1  0.08003  0.30411  0.81047  1
 S  S6  1  0.92200  0.81536  0.64238  1
 S  S7  1  0.26629  0.98691  0.75956  1
 S  S8  1  0.41832  0.30950  0.59274  1
 S  S9  1  0.42200  0.68464  0.85762  1
 S  S10  1  0.58168  0.69050  0.40726  1
 S  S11  1  0.91832  0.19050  0.90726  1
 S  S12  1  0.04006  0.99427  0.64977  1
 S  S13  1  0.58003  0.19589  0.68953  1
 S  S14  1  0.53380  0.79483  0.99290  1
 S  S15  1  0.45994  0.49427  0.14977  1
 S  S16  1  0.25847  0.09556  0.07155  1
 S  S17  1  0.08168  0.80950  0.09274  1
 S  S18  1  0.74153  0.90444  0.92845  1
 S  S19  1  0.57800  0.31536  0.14238  1
 S  S20  1  0.00352  0.50891  0.15930  1
 S  S21  1  0.41997  0.80411  0.31047  1
 S  S22  1  0.52239  0.29420  0.42898  1
 S  S23  1  0.46620  0.20517  0.00710  1
 S  S24  1  0.49648  0.00891  0.65930  1
 S  S25  1  0.07800  0.18464  0.35762  1
 S  S26  1  0.75847  0.40444  0.42845  1
 S  S27  1  0.95994  0.00573  0.35023  1
 S  S28  1  0.23371  0.48691  0.25956  1
 S  S29  1  0.91997  0.69589  0.18953  1
 S  S30  1  0.24153  0.59556  0.57155  1
 S  S31  1  0.76629  0.51309  0.74044  1
 S  S32  1  0.03380  0.70517  0.50710  1
 S  S33  1  0.97761  0.79420  0.92898  1
 S  S34  1  0.73371  0.01309  0.24044  1
 S  S35  1  0.54006  0.50573  0.85023  1
 S  S36  1  0.96620  0.29483  0.49290  1
