CIF file written using JARVIS-Tools package.
data_NdAlCu
_symmetry_space_group_name_H-M  'P-62m'
_cell_length_a       7.21276
_cell_length_b       7.21276
_cell_length_c       4.14134
_cell_angle_alpha    90
_cell_angle_beta     90
_cell_angle_gamma    120

_symmetry_Int_Tables_number  189
_chemical_formula_structural  NdAlCu
_chemical_formula_sum  Nd3Al3Cu3
_cell_volume  186.58408078585882
_cell_formula_units_Z  3
loop_
  _symmetry_equiv_pos_site_id
 _symmetry_equiv_pos_as_xyz
 1  'x, y, z'
loop_
 _atom_site_type_symbol
 _atom_site_label
 _atom_site_symmetry_multiplicity
 _atom_site_fract_x
 _atom_site_fract_y
 _atom_site_fract_z
 _atom_site_fract_occupancy
 Al  Al1  1  0.22964  -0.00000  0.00000  1
 Al  Al2  1  -0.00000  0.22964  0.00000  1
 Al  Al3  1  0.77036  0.77036  0.00000  1
 Cu  Cu1  1  0.33333  0.66667  0.00000  1
 Cu  Cu2  1  0.66667  0.33333  0.00000  1
 Cu  Cu3  1  0.00000  0.00000  0.50000  1
 Nd  Nd1  1  0.58367  -0.00000  0.50000  1
 Nd  Nd2  1  -0.00000  0.58367  0.50000  1
 Nd  Nd3  1  0.41633  0.41633  0.50000  1
