CIF file written using JARVIS-Tools package.
data_NbS2
_symmetry_space_group_name_H-M  'Fmm2'
_cell_length_a       3.36436
_cell_length_b       3.36438
_cell_length_c       11.2778
_cell_angle_alpha    85.7244
_cell_angle_beta     81.425
_cell_angle_gamma    60.0001

_symmetry_Int_Tables_number  42
_chemical_formula_structural  NbS2
_chemical_formula_sum  NbS2
_cell_volume  109.31545999285915
_cell_formula_units_Z  1
loop_
  _symmetry_equiv_pos_site_id
 _symmetry_equiv_pos_as_xyz
 1  'x, y, z'
loop_
 _atom_site_type_symbol
 _atom_site_label
 _atom_site_symmetry_multiplicity
 _atom_site_fract_x
 _atom_site_fract_y
 _atom_site_fract_z
 _atom_site_fract_occupancy
 Nb  Nb1  1  0.07757  0.84486  0.00000  1
 S  S1  1  0.81455  0.51152  0.85933  1
 S  S2  1  0.67393  0.51152  0.14067  1
