CIF file written using JARVIS-Tools package.
data_La3Nb2N6
_symmetry_space_group_name_H-M  'I4/mmm'
_cell_length_a       4.1016
_cell_length_b       4.1016
_cell_length_c       10.4811
_cell_angle_alpha    101.284
_cell_angle_beta     101.284
_cell_angle_gamma    90

_symmetry_Int_Tables_number  139
_chemical_formula_structural  La3Nb2N6
_chemical_formula_sum  La3Nb2N6
_cell_volume  169.44022977594892
_cell_formula_units_Z  1
loop_
  _symmetry_equiv_pos_site_id
 _symmetry_equiv_pos_as_xyz
 1  'x, y, z'
loop_
 _atom_site_type_symbol
 _atom_site_label
 _atom_site_symmetry_multiplicity
 _atom_site_fract_x
 _atom_site_fract_y
 _atom_site_fract_z
 _atom_site_fract_occupancy
 La  La1  1  0.00000  0.00000  0.00000  1
 La  La2  1  0.82007  0.82007  0.64015  1
 La  La3  1  0.17993  0.17993  0.35985  1
 N  N1  1  0.58412  0.08412  0.16825  1
 N  N2  1  0.08412  0.58412  0.16825  1
 N  N3  1  0.41588  0.91588  0.83175  1
 N  N4  1  0.91588  0.41588  0.83175  1
 N  N5  1  0.69876  0.69876  0.39751  1
 N  N6  1  0.30124  0.30124  0.60249  1
 Nb  Nb1  1  0.39893  0.39893  0.79786  1
 Nb  Nb2  1  0.60107  0.60107  0.20214  1
