CIF file written using JARVIS-Tools package.
data_AlCu
_symmetry_space_group_name_H-M  'C2/m'
_cell_length_a       4.10427
_cell_length_b       6.4167
_cell_length_c       6.40701
_cell_angle_alpha    65.8843
_cell_angle_beta     71.3191
_cell_angle_gamma    71.3484

_symmetry_Int_Tables_number  12
_chemical_formula_structural  AlCu
_chemical_formula_sum  Al5Cu5
_cell_volume  142.3679170626337
_cell_formula_units_Z  5
loop_
  _symmetry_equiv_pos_site_id
 _symmetry_equiv_pos_as_xyz
 1  'x, y, z'
loop_
 _atom_site_type_symbol
 _atom_site_label
 _atom_site_symmetry_multiplicity
 _atom_site_fract_x
 _atom_site_fract_y
 _atom_site_fract_z
 _atom_site_fract_occupancy
 Al  Al1  1  0.50000  0.50000  0.50000  1
 Al  Al2  1  0.84459  0.46147  0.84934  1
 Al  Al3  1  0.15541  0.53853  0.15066  1
 Al  Al4  1  0.62201  0.99589  0.76009  1
 Al  Al5  1  0.37799  0.00411  0.23991  1
 Cu  Cu1  1  0.00000  0.00000  0.00000  1
 Cu  Cu2  1  0.74194  0.24408  0.27204  1
 Cu  Cu3  1  0.25806  0.75592  0.72796  1
 Cu  Cu4  1  0.89103  0.77266  0.44528  1
 Cu  Cu5  1  0.10897  0.22734  0.55472  1
