CIF file written using JARVIS-Tools package.
data_CeGeAu
_symmetry_space_group_name_H-M  'Pnma'
_cell_length_a       4.53492
_cell_length_b       7.4364
_cell_length_c       7.90682
_cell_angle_alpha    90
_cell_angle_beta     90
_cell_angle_gamma    90

_symmetry_Int_Tables_number  62
_chemical_formula_structural  CeGeAu
_chemical_formula_sum  Ce4Ge4Au4
_cell_volume  266.6457070499579
_cell_formula_units_Z  4
loop_
  _symmetry_equiv_pos_site_id
 _symmetry_equiv_pos_as_xyz
 1  'x, y, z'
loop_
 _atom_site_type_symbol
 _atom_site_label
 _atom_site_symmetry_multiplicity
 _atom_site_fract_x
 _atom_site_fract_y
 _atom_site_fract_z
 _atom_site_fract_occupancy
 Au  Au1  1  0.25000  0.80148  0.07881  1
 Au  Au2  1  0.25000  0.30148  0.42119  1
 Au  Au3  1  0.75000  0.69852  0.57881  1
 Au  Au4  1  0.75000  0.19852  0.92119  1
 Ce  Ce1  1  0.75000  0.50292  0.21106  1
 Ce  Ce2  1  0.25000  0.99708  0.71106  1
 Ce  Ce3  1  0.75000  0.00292  0.28894  1
 Ce  Ce4  1  0.25000  0.49708  0.78894  1
 Ge  Ge1  1  0.25000  0.71865  0.40690  1
 Ge  Ge2  1  0.25000  0.21865  0.09310  1
 Ge  Ge3  1  0.75000  0.28135  0.59310  1
 Ge  Ge4  1  0.75000  0.78135  0.90690  1
