CIF file written using JARVIS-Tools package.
data_Sr2CoMoO6
_symmetry_space_group_name_H-M  'Fm-3m'
_cell_length_a       5.5171
_cell_length_b       5.51697
_cell_length_c       5.52121
_cell_angle_alpha    59.9782
_cell_angle_beta     59.9762
_cell_angle_gamma    60.0508

_symmetry_Int_Tables_number  225
_chemical_formula_structural  Sr2CoMoO6
_chemical_formula_sum  Sr2CoMoO6
_cell_volume  118.83601674355363
_cell_formula_units_Z  1
loop_
  _symmetry_equiv_pos_site_id
 _symmetry_equiv_pos_as_xyz
 1  'x, y, z'
loop_
 _atom_site_type_symbol
 _atom_site_label
 _atom_site_symmetry_multiplicity
 _atom_site_fract_x
 _atom_site_fract_y
 _atom_site_fract_z
 _atom_site_fract_occupancy
 Co  Co1  1  0.00000  0.00000  0.00000  1
 Mo  Mo1  1  0.50000  0.50000  0.50000  1
 O  O1  1  0.74810  0.74810  0.25188  1
 O  O2  1  0.74787  0.25210  0.25212  1
 O  O3  1  0.25213  0.74790  0.74788  1
 O  O4  1  0.25190  0.25190  0.74812  1
 O  O5  1  0.74791  0.25211  0.74786  1
 O  O6  1  0.25209  0.74789  0.25214  1
 Sr  Sr1  1  0.75000  0.75000  0.75000  1
 Sr  Sr2  1  0.25000  0.25000  0.25000  1
