CIF file written using JARVIS-Tools package.
data_Tb2Sb5
_symmetry_space_group_name_H-M  'P2_1/m'
_cell_length_a       4.22802
_cell_length_b       13.2528
_cell_length_c       14.7373
_cell_angle_alpha    102.084
_cell_angle_beta     90
_cell_angle_gamma    90

_symmetry_Int_Tables_number  11
_chemical_formula_structural  Tb2Sb5
_chemical_formula_sum  Tb8Sb20
_cell_volume  807.4721769146015
_cell_formula_units_Z  4
loop_
  _symmetry_equiv_pos_site_id
 _symmetry_equiv_pos_as_xyz
 1  'x, y, z'
loop_
 _atom_site_type_symbol
 _atom_site_label
 _atom_site_symmetry_multiplicity
 _atom_site_fract_x
 _atom_site_fract_y
 _atom_site_fract_z
 _atom_site_fract_occupancy
 Sb  Sb1  1  0.25000  0.27774  0.06172  1
 Sb  Sb2  1  0.75000  0.15248  0.82938  1
 Sb  Sb3  1  0.25000  0.13909  0.67880  1
 Sb  Sb4  1  0.25000  0.85617  0.48194  1
 Sb  Sb5  1  0.75000  0.72226  0.93828  1
 Sb  Sb6  1  0.25000  0.85971  0.77868  1
 Sb  Sb7  1  0.25000  0.84752  0.17062  1
 Sb  Sb8  1  0.75000  0.86091  0.32120  1
 Sb  Sb9  1  0.25000  0.28380  0.34700  1
 Sb  Sb10  1  0.75000  0.42565  0.44894  1
 Sb  Sb11  1  0.75000  0.14029  0.22132  1
 Sb  Sb12  1  0.75000  0.14383  0.51806  1
 Sb  Sb13  1  0.25000  0.58057  0.97532  1
 Sb  Sb14  1  0.75000  0.41943  0.02468  1
 Sb  Sb15  1  0.75000  0.97074  0.90928  1
 Sb  Sb16  1  0.25000  0.02926  0.09072  1
 Sb  Sb17  1  0.25000  0.57450  0.26541  1
 Sb  Sb18  1  0.75000  0.42550  0.73459  1
 Sb  Sb19  1  0.25000  0.57435  0.55106  1
 Sb  Sb20  1  0.75000  0.71620  0.65300  1
 Tb  Tb1  1  0.75000  0.39175  0.22934  1
 Tb  Tb2  1  0.25000  0.60825  0.77066  1
 Tb  Tb3  1  0.75000  0.66870  0.42230  1
 Tb  Tb4  1  0.75000  0.95310  0.63778  1
 Tb  Tb5  1  0.25000  0.33130  0.57770  1
 Tb  Tb6  1  0.25000  0.33850  0.85526  1
 Tb  Tb7  1  0.25000  0.04690  0.36222  1
 Tb  Tb8  1  0.75000  0.66150  0.14474  1
