CIF file written using JARVIS-Tools package.
data_Ti4MnP6O24
_symmetry_space_group_name_H-M  'R-3'
_cell_length_a       8.57916
_cell_length_b       8.57916
_cell_length_c       8.57916
_cell_angle_alpha    60.4098
_cell_angle_beta     60.4098
_cell_angle_gamma    60.4098

_symmetry_Int_Tables_number  148
_chemical_formula_structural  Ti4MnP6O24
_chemical_formula_sum  Ti4MnP6O24
_cell_volume  450.63467831001265
_cell_formula_units_Z  1
loop_
  _symmetry_equiv_pos_site_id
 _symmetry_equiv_pos_as_xyz
 1  'x, y, z'
loop_
 _atom_site_type_symbol
 _atom_site_label
 _atom_site_symmetry_multiplicity
 _atom_site_fract_x
 _atom_site_fract_y
 _atom_site_fract_z
 _atom_site_fract_occupancy
 Mn  Mn1  1  0.50000  0.50000  0.50000  1
 O  O1  1  0.91247  0.28122  0.05383  1
 O  O2  1  0.05383  0.91247  0.28122  1
 O  O3  1  0.08753  0.71878  0.94617  1
 O  O4  1  0.71878  0.94617  0.08753  1
 O  O5  1  0.94617  0.08753  0.71878  1
 O  O6  1  0.68254  0.51105  0.88281  1
 O  O7  1  0.79649  0.63496  0.00602  1
 O  O8  1  0.51105  0.88281  0.68254  1
 O  O9  1  0.31746  0.48895  0.11719  1
 O  O10  1  0.48895  0.11719  0.31746  1
 O  O11  1  0.99398  0.20351  0.36504  1
 O  O12  1  0.36504  0.99398  0.20351  1
 O  O13  1  0.20351  0.36504  0.99398  1
 O  O14  1  0.00602  0.79649  0.63496  1
 O  O15  1  0.28122  0.05383  0.91247  1
 O  O16  1  0.63496  0.00602  0.79649  1
 O  O17  1  0.23764  0.58259  0.44433  1
 O  O18  1  0.58259  0.44433  0.23764  1
 O  O19  1  0.76236  0.41741  0.55567  1
 O  O20  1  0.55567  0.76236  0.41741  1
 O  O21  1  0.41741  0.55567  0.76236  1
 O  O22  1  0.11719  0.31746  0.48895  1
 O  O23  1  0.44433  0.23764  0.58259  1
 O  O24  1  0.88281  0.68254  0.51105  1
 P  P1  1  0.95604  0.25312  0.53075  1
 P  P2  1  0.04396  0.74688  0.46925  1
 P  P3  1  0.53075  0.95604  0.25312  1
 P  P4  1  0.25312  0.53075  0.95604  1
 P  P5  1  0.74688  0.46925  0.04396  1
 P  P6  1  0.46925  0.04396  0.74688  1
 Ti  Ti1  1  0.64598  0.64598  0.64598  1
 Ti  Ti2  1  0.13252  0.13252  0.13252  1
 Ti  Ti3  1  0.35402  0.35402  0.35402  1
 Ti  Ti4  1  0.86748  0.86748  0.86748  1
