CIF file written using JARVIS-Tools package.
data_B5Mo2
_symmetry_space_group_name_H-M  'R-3m'
_cell_length_a       7.41866
_cell_length_b       7.41866
_cell_length_c       7.41866
_cell_angle_alpha    23.9634
_cell_angle_beta     23.9634
_cell_angle_gamma    23.9634

_symmetry_Int_Tables_number  166
_chemical_formula_structural  B5Mo2
_chemical_formula_sum  B5Mo2
_cell_volume  59.1794652945502
_cell_formula_units_Z  1
loop_
  _symmetry_equiv_pos_site_id
 _symmetry_equiv_pos_as_xyz
 1  'x, y, z'
loop_
 _atom_site_type_symbol
 _atom_site_label
 _atom_site_symmetry_multiplicity
 _atom_site_fract_x
 _atom_site_fract_y
 _atom_site_fract_z
 _atom_site_fract_occupancy
 B  B1  1  0.66868  0.66868  0.66868  1
 B  B2  1  0.33132  0.33132  0.33132  1
 B  B3  1  0.81537  0.81537  0.81537  1
 B  B4  1  0.18463  0.18463  0.18463  1
 B  B5  1  0.50000  0.50000  0.50000  1
 Mo  Mo1  1  0.92414  0.92414  0.92414  1
 Mo  Mo2  1  0.07586  0.07586  0.07586  1
