CIF file written using JARVIS-Tools package.
data_La2NiO4
_symmetry_space_group_name_H-M  'P4_2/ncm'
_cell_length_a       5.36389
_cell_length_b       5.36389
_cell_length_c       13.0237
_cell_angle_alpha    90
_cell_angle_beta     90
_cell_angle_gamma    90

_symmetry_Int_Tables_number  138
_chemical_formula_structural  La2NiO4
_chemical_formula_sum  La8Ni4O6
_cell_volume  374.7104311026202
_cell_formula_units_Z  4
loop_
  _symmetry_equiv_pos_site_id
 _symmetry_equiv_pos_as_xyz
 1  'x, y, z'
loop_
 _atom_site_type_symbol
 _atom_site_label
 _atom_site_symmetry_multiplicity
 _atom_site_fract_x
 _atom_site_fract_y
 _atom_site_fract_z
 _atom_site_fract_occupancy
 La  La1  1  0.99521  0.99521  0.36247  1
 La  La2  1  0.99521  0.50479  0.86247  1
 La  La3  1  0.49521  0.00479  0.13753  1
 La  La4  1  0.00479  0.49521  0.13753  1
 La  La5  1  0.00479  0.00479  0.63753  1
 La  La6  1  0.49521  0.49521  0.63753  1
 La  La7  1  0.50479  0.50479  0.36247  1
 La  La8  1  0.50479  0.99521  0.86247  1
 Ni  Ni1  1  0.50000  0.50000  0.00000  1
 Ni  Ni2  1  0.00000  0.50000  0.50000  1
 Ni  Ni3  1  0.50000  0.00000  0.50000  1
 Ni  Ni4  1  0.00000  0.00000  0.00000  1
 O  O1  1  0.52066  0.52066  0.81806  1
 O  O2  1  0.47934  0.47934  0.18194  1
 O  O3  1  0.97934  0.52066  0.31806  1
 O  O4  1  0.52066  0.97934  0.31806  1
 O  O5  1  0.02066  0.47934  0.68194  1
 O  O6  1  0.47934  0.02066  0.68194  1
 O  O7  1  0.02066  0.02066  0.18194  1
 O  O8  1  0.75000  0.75000  0.00927  1
 O  O9  1  0.25000  0.75000  0.00000  1
 O  O10  1  0.25000  0.75000  0.50000  1
 O  O11  1  0.75000  0.25000  0.00000  1
 O  O12  1  0.97934  0.97934  0.81806  1
 O  O13  1  0.25000  0.25000  0.99073  1
 O  O14  1  0.75000  0.75000  0.50927  1
 O  O15  1  0.75000  0.25000  0.50000  1
 O  O16  1  0.25000  0.25000  0.49073  1
