CIF file written using JARVIS-Tools package.
data_Ca3Zn
_symmetry_space_group_name_H-M  'P6_3/mmc'
_cell_length_a       7.11495
_cell_length_b       7.11496
_cell_length_c       5.62856
_cell_angle_alpha    90
_cell_angle_beta     90
_cell_angle_gamma    120

_symmetry_Int_Tables_number  194
_chemical_formula_structural  Ca3Zn
_chemical_formula_sum  Ca6Zn2
_cell_volume  246.7582219070996
_cell_formula_units_Z  2
loop_
  _symmetry_equiv_pos_site_id
 _symmetry_equiv_pos_as_xyz
 1  'x, y, z'
loop_
 _atom_site_type_symbol
 _atom_site_label
 _atom_site_symmetry_multiplicity
 _atom_site_fract_x
 _atom_site_fract_y
 _atom_site_fract_z
 _atom_site_fract_occupancy
 Ca  Ca1  1  0.65381  0.82691  0.75000  1
 Ca  Ca2  1  0.17309  0.34619  0.75000  1
 Ca  Ca3  1  0.17309  0.82691  0.75000  1
 Ca  Ca4  1  0.82691  0.65381  0.25000  1
 Ca  Ca5  1  0.82691  0.17309  0.25000  1
 Ca  Ca6  1  0.34619  0.17309  0.25000  1
 Zn  Zn1  1  0.66667  0.33333  0.75000  1
 Zn  Zn2  1  0.33333  0.66667  0.25000  1
