CIF file written using JARVIS-Tools package.
data_SbPt3
_symmetry_space_group_name_H-M  'I4/mmm'
_cell_length_a       3.98709
_cell_length_b       3.98709
_cell_length_c       9.2088
_cell_angle_alpha    102.502
_cell_angle_beta     102.502
_cell_angle_gamma    90

_symmetry_Int_Tables_number  139
_chemical_formula_structural  SbPt3
_chemical_formula_sum  Sb2Pt6
_cell_volume  139.36157014796848
_cell_formula_units_Z  2
loop_
  _symmetry_equiv_pos_site_id
 _symmetry_equiv_pos_as_xyz
 1  'x, y, z'
loop_
 _atom_site_type_symbol
 _atom_site_label
 _atom_site_symmetry_multiplicity
 _atom_site_fract_x
 _atom_site_fract_y
 _atom_site_fract_z
 _atom_site_fract_occupancy
 Pt  Pt1  1  0.50000  0.00000  0.00000  1
 Pt  Pt2  1  0.00000  0.50000  0.00000  1
 Pt  Pt3  1  0.25000  0.75000  0.50000  1
 Pt  Pt4  1  0.75000  0.25000  0.50000  1
 Pt  Pt5  1  0.61255  0.61255  0.22511  1
 Pt  Pt6  1  0.38745  0.38745  0.77489  1
 Sb  Sb1  1  0.86358  0.86358  0.72716  1
 Sb  Sb2  1  0.13642  0.13642  0.27284  1
