CIF file written using JARVIS-Tools package.
data_NaP5
_symmetry_space_group_name_H-M  'Pnma'
_cell_length_a       6.56608
_cell_length_b       6.98488
_cell_length_c       11.033
_cell_angle_alpha    90
_cell_angle_beta     90
_cell_angle_gamma    90

_symmetry_Int_Tables_number  62
_chemical_formula_structural  NaP5
_chemical_formula_sum  Na4P20
_cell_volume  506.00785632298556
_cell_formula_units_Z  4
loop_
  _symmetry_equiv_pos_site_id
 _symmetry_equiv_pos_as_xyz
 1  'x, y, z'
loop_
 _atom_site_type_symbol
 _atom_site_label
 _atom_site_symmetry_multiplicity
 _atom_site_fract_x
 _atom_site_fract_y
 _atom_site_fract_z
 _atom_site_fract_occupancy
 Na  Na1  1  0.25000  0.09109  0.42492  1
 Na  Na2  1  0.75000  0.90891  0.57508  1
 Na  Na3  1  0.75000  0.59109  0.07508  1
 Na  Na4  1  0.25000  0.40891  0.92492  1
 P  P1  1  0.01180  0.09590  0.08244  1
 P  P2  1  0.51180  0.90410  0.91756  1
 P  P3  1  0.98820  0.59590  0.41756  1
 P  P4  1  0.48820  0.40410  0.58244  1
 P  P5  1  0.98820  0.90410  0.91756  1
 P  P6  1  0.48820  0.09590  0.08244  1
 P  P7  1  0.01180  0.40410  0.58244  1
 P  P8  1  0.75000  0.06462  0.81206  1
 P  P9  1  0.51180  0.59590  0.41756  1
 P  P10  1  0.75000  0.13069  0.36159  1
 P  P11  1  0.25000  0.63069  0.13841  1
 P  P12  1  0.25000  0.86931  0.63841  1
 P  P13  1  0.25000  0.47517  0.31023  1
 P  P14  1  0.75000  0.52483  0.68977  1
 P  P15  1  0.75000  0.97517  0.18977  1
 P  P16  1  0.25000  0.02483  0.81023  1
 P  P17  1  0.25000  0.56462  0.68794  1
 P  P18  1  0.75000  0.43538  0.31206  1
 P  P19  1  0.75000  0.36931  0.86159  1
 P  P20  1  0.25000  0.93538  0.18794  1
