CIF file written using JARVIS-Tools package.
data_YRe4B4
_symmetry_space_group_name_H-M  'P4_2/nmc'
_cell_length_a       5.36341
_cell_length_b       5.36341
_cell_length_c       7.74123
_cell_angle_alpha    90
_cell_angle_beta     90
_cell_angle_gamma    90

_symmetry_Int_Tables_number  137
_chemical_formula_structural  YRe4B4
_chemical_formula_sum  Y2Re8B8
_cell_volume  222.68511840901215
_cell_formula_units_Z  2
loop_
  _symmetry_equiv_pos_site_id
 _symmetry_equiv_pos_as_xyz
 1  'x, y, z'
loop_
 _atom_site_type_symbol
 _atom_site_label
 _atom_site_symmetry_multiplicity
 _atom_site_fract_x
 _atom_site_fract_y
 _atom_site_fract_z
 _atom_site_fract_occupancy
 B  B1  1  0.16814  0.50000  0.64052  1
 B  B2  1  0.00000  0.33186  0.14052  1
 B  B3  1  0.33186  0.00000  0.85948  1
 B  B4  1  0.66814  0.00000  0.85948  1
 B  B5  1  0.50000  0.16814  0.35948  1
 B  B6  1  0.50000  0.83186  0.35948  1
 B  B7  1  0.83186  0.50000  0.64052  1
 B  B8  1  0.00000  0.66814  0.14052  1
 Re  Re1  1  0.75070  0.00000  0.14123  1
 Re  Re2  1  0.50000  0.25070  0.64123  1
 Re  Re3  1  0.24930  0.00000  0.14123  1
 Re  Re4  1  0.25070  0.50000  0.35877  1
 Re  Re5  1  0.00000  0.75070  0.85877  1
 Re  Re6  1  0.00000  0.24930  0.85877  1
 Re  Re7  1  0.74930  0.50000  0.35877  1
 Re  Re8  1  0.50000  0.74930  0.64123  1
 Y  Y1  1  0.50000  0.50000  0.00000  1
 Y  Y2  1  0.00000  0.00000  0.50000  1
