CIF file written using JARVIS-Tools package.
data_Nd2NCl3
_symmetry_space_group_name_H-M  'Pbcn'
_cell_length_a       6.2511
_cell_length_b       6.85446
_cell_length_c       13.4636
_cell_angle_alpha    90
_cell_angle_beta     90
_cell_angle_gamma    90

_symmetry_Int_Tables_number  60
_chemical_formula_structural  Nd2NCl3
_chemical_formula_sum  Nd8N4Cl2
_cell_volume  576.8860881839902
_cell_formula_units_Z  4
loop_
  _symmetry_equiv_pos_site_id
 _symmetry_equiv_pos_as_xyz
 1  'x, y, z'
loop_
 _atom_site_type_symbol
 _atom_site_label
 _atom_site_symmetry_multiplicity
 _atom_site_fract_x
 _atom_site_fract_y
 _atom_site_fract_z
 _atom_site_fract_occupancy
 Cl  Cl1  1  0.75000  0.00243  0.50000  1
 Cl  Cl2  1  0.08870  0.34876  0.28635  1
 Cl  Cl3  1  0.58870  0.15124  0.21365  1
 Cl  Cl4  1  0.41130  0.34876  0.71365  1
 Cl  Cl5  1  0.91130  0.65124  0.71365  1
 Cl  Cl6  1  0.41130  0.84876  0.78635  1
 Cl  Cl7  1  0.58870  0.65124  0.28635  1
 Cl  Cl8  1  0.08870  0.84876  0.21365  1
 Cl  Cl9  1  0.91130  0.15124  0.78635  1
 Cl  Cl10  1  0.25000  0.49757  0.00000  1
 Cl  Cl11  1  0.25000  0.99757  0.50000  1
 Cl  Cl12  1  0.75000  0.50243  0.00000  1
 N  N1  1  0.25000  0.00748  0.00000  1
 N  N2  1  0.75000  0.99252  0.00000  1
 N  N3  1  0.75000  0.49252  0.50000  1
 N  N4  1  0.25000  0.50748  0.50000  1
 Nd  Nd1  1  0.50602  0.67685  0.59246  1
 Nd  Nd2  1  0.00602  0.32315  0.59246  1
 Nd  Nd3  1  0.50602  0.17685  0.90754  1
 Nd  Nd4  1  0.49398  0.32315  0.40754  1
 Nd  Nd5  1  0.99398  0.17685  0.09246  1
 Nd  Nd6  1  0.99398  0.67685  0.40754  1
 Nd  Nd7  1  0.49398  0.82315  0.09246  1
 Nd  Nd8  1  0.00602  0.82315  0.90754  1
