CIF file written using JARVIS-Tools package.
data_TiH8C4NO10
_symmetry_space_group_name_H-M  'P6_422'
_cell_length_a       8.93982
_cell_length_b       8.93982
_cell_length_c       10.6979
_cell_angle_alpha    90
_cell_angle_beta     90
_cell_angle_gamma    120

_symmetry_Int_Tables_number  181
_chemical_formula_structural  TiH8C4NO10
_chemical_formula_sum  Ti3H24C2N3O30
_cell_volume  740.432871436584
_cell_formula_units_Z  3
loop_
  _symmetry_equiv_pos_site_id
 _symmetry_equiv_pos_as_xyz
 1  'x, y, z'
loop_
 _atom_site_type_symbol
 _atom_site_label
 _atom_site_symmetry_multiplicity
 _atom_site_fract_x
 _atom_site_fract_y
 _atom_site_fract_z
 _atom_site_fract_occupancy
 C  C1  1  0.57204  0.78602  0.33333  1
 C  C2  1  0.21398  0.42796  0.00000  1
 C  C3  1  0.31008  0.68992  0.66667  1
 C  C4  1  0.68992  0.37984  0.00000  1
 C  C5  1  0.21398  0.78602  0.66667  1
 C  C6  1  0.62016  0.31008  0.33333  1
 C  C7  1  0.78602  0.57204  0.00000  1
 C  C8  1  0.78602  0.21398  0.66667  1
 C  C9  1  0.31008  0.62016  0.00000  1
 C  C10  1  0.42796  0.21398  0.33333  1
 C  C11  1  0.68992  0.31008  0.66667  1
 C  C12  1  0.37984  0.68992  0.33333  1
 H  H1  1  0.97456  0.07990  0.44443  1
 H  H2  1  0.89781  0.63451  0.32014  1
 H  H3  1  0.10533  0.07990  0.55557  1
 H  H4  1  0.36549  0.26330  0.65348  1
 H  H5  1  0.36549  0.10219  0.01319  1
 H  H6  1  0.92010  0.02544  0.88890  1
 H  H7  1  0.10533  0.02544  0.11110  1
 H  H8  1  0.89467  0.97456  0.11110  1
 H  H9  1  0.10219  0.36549  0.32014  1
 H  H10  1  0.89467  0.92010  0.55557  1
 H  H11  1  0.89781  0.26330  0.34652  1
 H  H12  1  0.73670  0.63451  0.67986  1
 H  H13  1  0.92010  0.89467  0.77776  1
 H  H14  1  0.26330  0.89781  0.98681  1
 H  H15  1  0.26330  0.36549  0.67986  1
 H  H16  1  0.97456  0.89467  0.22224  1
 H  H17  1  0.07990  0.97456  0.88890  1
 H  H18  1  0.07990  0.10533  0.77776  1
 H  H19  1  0.02544  0.92010  0.44443  1
 H  H20  1  0.63451  0.73670  0.65348  1
 H  H21  1  0.73670  0.10219  0.98681  1
 H  H22  1  0.63451  0.89781  0.01319  1
 H  H23  1  0.10219  0.73670  0.34652  1
 H  H24  1  0.02544  0.10533  0.22224  1
 N  N1  1  0.00000  0.00000  0.16667  1
 N  N2  1  0.00000  0.00000  0.83333  1
 N  N3  1  0.00000  0.00000  0.50000  1
 O  O1  1  0.69162  0.23831  0.39192  1
 O  O2  1  0.54669  0.23831  0.60808  1
 O  O3  1  0.76169  0.45331  0.72526  1
 O  O4  1  0.07236  0.71912  0.72651  1
 O  O5  1  -0.00000  0.74946  0.33333  1
 O  O6  1  0.30838  0.54669  0.27474  1
 O  O7  1  0.76169  0.30838  0.94141  1
 O  O8  1  0.71912  0.64676  0.05984  1
 O  O9  1  0.45331  0.69162  0.05859  1
 O  O10  1  0.74946  0.00000  0.00000  1
 O  O11  1  0.92764  0.64676  0.94016  1
 O  O12  1  0.64676  0.71912  0.27349  1
 O  O13  1  0.28088  0.92764  0.60682  1
 O  O14  1  0.30838  0.76169  0.39192  1
 O  O15  1  0.35324  0.07236  0.39318  1
 O  O16  1  0.64676  0.92764  0.39318  1
 O  O17  1  0.54669  0.30838  0.05859  1
 O  O18  1  0.28088  0.35324  0.05984  1
 O  O19  1  0.74946  0.74946  0.66667  1
 O  O20  1  0.45331  0.76169  0.60808  1
 O  O21  1  0.00000  0.25054  0.33333  1
 O  O22  1  0.35324  0.28088  0.27349  1
 O  O23  1  0.92764  0.28088  0.72651  1
 O  O24  1  0.25054  0.00000  0.00000  1
 O  O25  1  0.71912  0.07236  0.60682  1
 O  O26  1  0.23831  0.69162  0.94141  1
 O  O27  1  0.69162  0.45331  0.27474  1
 O  O28  1  0.25054  0.25054  0.66667  1
 O  O29  1  0.07236  0.35324  0.94016  1
 O  O30  1  0.23831  0.54669  0.72526  1
 Ti  Ti1  1  0.50000  0.00000  0.50000  1
 Ti  Ti2  1  0.50000  0.50000  0.16667  1
 Ti  Ti3  1  -0.00000  0.50000  0.83333  1
