CIF file written using JARVIS-Tools package.
data_LiMn2OF3
_symmetry_space_group_name_H-M  'R3m'
_cell_length_a       6.23859
_cell_length_b       6.24667
_cell_length_c       6.24667
_cell_angle_alpha    59.9145
_cell_angle_beta     90
_cell_angle_gamma    119.957

_symmetry_Int_Tables_number  160
_chemical_formula_structural  LiMn2OF3
_chemical_formula_sum  Li2Mn4O2F6
_cell_volume  172.0231988123978
_cell_formula_units_Z  2
loop_
  _symmetry_equiv_pos_site_id
 _symmetry_equiv_pos_as_xyz
 1  'x, y, z'
loop_
 _atom_site_type_symbol
 _atom_site_label
 _atom_site_symmetry_multiplicity
 _atom_site_fract_x
 _atom_site_fract_y
 _atom_site_fract_z
 _atom_site_fract_occupancy
 F  F1  1  0.73686  0.47371  0.25098  1
 F  F2  1  0.73686  0.98784  0.73686  1
 F  F3  1  0.25098  0.98784  0.73686  1
 F  F4  1  0.74176  0.00653  0.26477  1
 F  F5  1  0.26477  0.00653  0.26477  1
 F  F6  1  0.26477  0.52955  0.74176  1
 Li  Li1  1  0.50161  0.00321  0.50161  1
 Li  Li2  1  0.85804  0.71608  0.85804  1
 Mn  Mn1  1  0.50311  0.00621  0.99034  1
 Mn  Mn2  1  0.14492  0.28985  0.14492  1
 Mn  Mn3  1  0.50311  0.49345  0.50311  1
 Mn  Mn4  1  0.99034  0.49345  0.50311  1
 O  O1  1  0.72926  0.45851  0.72926  1
 O  O2  1  0.27362  0.54724  0.27362  1
