CIF file written using JARVIS-Tools package.
data_UInPd
_symmetry_space_group_name_H-M  'P-62m'
_cell_length_a       4.2318
_cell_length_b       7.33145
_cell_length_c       7.33185
_cell_angle_alpha    119.998
_cell_angle_beta     90
_cell_angle_gamma    90

_symmetry_Int_Tables_number  189
_chemical_formula_structural  UInPd
_chemical_formula_sum  U3In3Pd3
_cell_volume  197.00030188338184
_cell_formula_units_Z  3
loop_
  _symmetry_equiv_pos_site_id
 _symmetry_equiv_pos_as_xyz
 1  'x, y, z'
loop_
 _atom_site_type_symbol
 _atom_site_label
 _atom_site_symmetry_multiplicity
 _atom_site_fract_x
 _atom_site_fract_y
 _atom_site_fract_z
 _atom_site_fract_occupancy
 In  In1  1  0.00000  0.24707  -0.00000  1
 In  In2  1  0.00000  0.75290  0.75289  1
 In  In3  1  0.00000  0.00001  0.24711  1
 Pd  Pd1  1  0.00000  0.33332  0.66667  1
 Pd  Pd2  1  0.00000  0.66665  0.33333  1
 Pd  Pd3  1  0.50000  -0.00006  -0.00000  1
 U  U1  1  0.50000  0.57778  0.00000  1
 U  U2  1  0.50000  0.42221  0.42220  1
 U  U3  1  0.50000  0.00002  0.57780  1
