CIF file written using JARVIS-Tools package.
data_Li2VF6
_symmetry_space_group_name_H-M  'C2/m'
_cell_length_a       5.33973
_cell_length_b       5.33973
_cell_length_c       4.99431
_cell_angle_alpha    69.7441
_cell_angle_beta     69.7441
_cell_angle_gamma    62.607

_symmetry_Int_Tables_number  12
_chemical_formula_structural  Li2VF6
_chemical_formula_sum  Li2VF6
_cell_volume  115.5897196417908
_cell_formula_units_Z  1
loop_
  _symmetry_equiv_pos_site_id
 _symmetry_equiv_pos_as_xyz
 1  'x, y, z'
loop_
 _atom_site_type_symbol
 _atom_site_label
 _atom_site_symmetry_multiplicity
 _atom_site_fract_x
 _atom_site_fract_y
 _atom_site_fract_z
 _atom_site_fract_occupancy
 F  F1  1  0.33324  0.87219  0.70567  1
 F  F2  1  0.12781  0.66676  0.29433  1
 F  F3  1  0.17338  0.17338  0.09480  1
 F  F4  1  0.82662  0.82662  0.90520  1
 F  F5  1  0.87220  0.33321  0.70567  1
 F  F6  1  0.66679  0.12780  0.29433  1
 Li  Li1  1  0.74333  0.74328  0.61966  1
 Li  Li2  1  0.25672  0.25667  0.38034  1
 V  V1  1  0.00001  -0.00001  -0.00000  1
