CIF file written using JARVIS-Tools package.
data_KEuSiS4
_symmetry_space_group_name_H-M  'P2_1'
_cell_length_a       6.44919
_cell_length_b       6.61301
_cell_length_c       8.53509
_cell_angle_alpha    90
_cell_angle_beta     107.917
_cell_angle_gamma    90

_symmetry_Int_Tables_number  4
_chemical_formula_structural  KEuSiS4
_chemical_formula_sum  K2Eu2Si2S8
_cell_volume  346.3565393403588
_cell_formula_units_Z  2
loop_
  _symmetry_equiv_pos_site_id
 _symmetry_equiv_pos_as_xyz
 1  'x, y, z'
loop_
 _atom_site_type_symbol
 _atom_site_label
 _atom_site_symmetry_multiplicity
 _atom_site_fract_x
 _atom_site_fract_y
 _atom_site_fract_z
 _atom_site_fract_occupancy
 Eu  Eu1  1  0.27064  0.21063  0.44885  1
 Eu  Eu2  1  0.72936  0.71063  0.55115  1
 K  K1  1  0.77243  0.69372  0.06583  1
 K  K2  1  0.22757  0.19372  0.93417  1
 S  S1  1  0.91435  0.12931  0.56765  1
 S  S2  1  0.08726  0.67776  0.83935  1
 S  S3  1  0.47756  0.94254  0.27204  1
 S  S4  1  0.51873  0.44373  0.28853  1
 S  S5  1  0.08565  0.62931  0.43235  1
 S  S6  1  0.48127  0.94373  0.71147  1
 S  S7  1  0.91274  0.17776  0.16065  1
 S  S8  1  0.52244  0.44254  0.72796  1
 Si  Si1  1  0.28291  0.67788  0.68172  1
 Si  Si2  1  0.71709  0.17788  0.31828  1
