CIF file written using JARVIS-Tools package.
data_HgO2
_symmetry_space_group_name_H-M  'Pbca'
_cell_length_a       4.90949
_cell_length_b       6.08576
_cell_length_c       6.14823
_cell_angle_alpha    90
_cell_angle_beta     90
_cell_angle_gamma    90

_symmetry_Int_Tables_number  61
_chemical_formula_structural  HgO2
_chemical_formula_sum  Hg4O8
_cell_volume  183.6966294850553
_cell_formula_units_Z  4
loop_
  _symmetry_equiv_pos_site_id
 _symmetry_equiv_pos_as_xyz
 1  'x, y, z'
loop_
 _atom_site_type_symbol
 _atom_site_label
 _atom_site_symmetry_multiplicity
 _atom_site_fract_x
 _atom_site_fract_y
 _atom_site_fract_z
 _atom_site_fract_occupancy
 Hg  Hg1  1  0.50000  0.00000  0.50000  1
 Hg  Hg2  1  0.00000  0.00000  0.00000  1
 Hg  Hg3  1  0.00000  0.50000  0.50000  1
 Hg  Hg4  1  0.50000  0.50000  0.00000  1
 O  O1  1  0.41505  0.56932  0.42747  1
 O  O2  1  0.08495  0.06932  0.57253  1
 O  O3  1  0.08495  0.56932  0.92747  1
 O  O4  1  0.41505  0.06932  0.07253  1
 O  O5  1  0.58495  0.43068  0.57253  1
 O  O6  1  0.58495  0.93068  0.92747  1
 O  O7  1  0.91505  0.43068  0.07253  1
 O  O8  1  0.91505  0.93068  0.42747  1
