CIF file written using JARVIS-Tools package.
data_Mo3S3Br
_symmetry_space_group_name_H-M  'R-3'
_cell_length_a       6.54724
_cell_length_b       6.54724
_cell_length_c       6.54724
_cell_angle_alpha    94.449
_cell_angle_beta     94.449
_cell_angle_gamma    94.449

_symmetry_Int_Tables_number  148
_chemical_formula_structural  Mo3S3Br
_chemical_formula_sum  Mo6S6Br2
_cell_volume  277.979648266103
_cell_formula_units_Z  2
loop_
  _symmetry_equiv_pos_site_id
 _symmetry_equiv_pos_as_xyz
 1  'x, y, z'
loop_
 _atom_site_type_symbol
 _atom_site_label
 _atom_site_symmetry_multiplicity
 _atom_site_fract_x
 _atom_site_fract_y
 _atom_site_fract_z
 _atom_site_fract_occupancy
 Br  Br1  1  0.18705  0.18705  0.18705  1
 Br  Br2  1  0.81295  0.81295  0.81295  1
 Mo  Mo1  1  0.40825  0.54862  0.22237  1
 Mo  Mo2  1  0.22237  0.40825  0.54862  1
 Mo  Mo3  1  0.54862  0.22237  0.40825  1
 Mo  Mo4  1  0.59175  0.45138  0.77763  1
 Mo  Mo5  1  0.77763  0.59175  0.45138  1
 Mo  Mo6  1  0.45138  0.77763  0.59175  1
 S  S1  1  0.13248  0.71923  0.37590  1
 S  S2  1  0.37590  0.13248  0.71923  1
 S  S3  1  0.71923  0.37590  0.13248  1
 S  S4  1  0.86752  0.28077  0.62410  1
 S  S5  1  0.62410  0.86752  0.28077  1
 S  S6  1  0.28077  0.62410  0.86752  1
