CIF file written using JARVIS-Tools package.
data_Ba14Na14CaN6
_symmetry_space_group_name_H-M  'Fm-3m'
_cell_length_a       12.4284
_cell_length_b       12.4284
_cell_length_c       12.4284
_cell_angle_alpha    60
_cell_angle_beta     60
_cell_angle_gamma    60

_symmetry_Int_Tables_number  225
_chemical_formula_structural  Ba14Na14CaN6
_chemical_formula_sum  Ba4Na4CaN6
_cell_volume  1357.482625998025
_cell_formula_units_Z  1
loop_
  _symmetry_equiv_pos_site_id
 _symmetry_equiv_pos_as_xyz
 1  'x, y, z'
loop_
 _atom_site_type_symbol
 _atom_site_label
 _atom_site_symmetry_multiplicity
 _atom_site_fract_x
 _atom_site_fract_y
 _atom_site_fract_z
 _atom_site_fract_occupancy
 Ba  Ba1  1  0.29057  0.70943  0.70943  1
 Ba  Ba2  1  0.29057  0.29057  0.70943  1
 Ba  Ba3  1  0.89161  0.89161  0.89161  1
 Ba  Ba4  1  0.10839  0.10839  0.67484  1
 Ba  Ba5  1  0.10839  0.67484  0.10839  1
 Ba  Ba6  1  0.89161  0.32516  0.89161  1
 Ba  Ba7  1  0.32516  0.89161  0.89161  1
 Ba  Ba8  1  0.67484  0.10839  0.10839  1
 Ba  Ba9  1  0.10839  0.10839  0.10839  1
 Ba  Ba10  1  0.70943  0.29057  0.29057  1
 Ba  Ba11  1  0.70943  0.29057  0.70943  1
 Ba  Ba12  1  0.29057  0.70943  0.29057  1
 Ba  Ba13  1  0.70943  0.70943  0.29057  1
 Ba  Ba14  1  0.89161  0.89161  0.32516  1
 Ca  Ca1  1  0.00000  0.00000  0.00000  1
 N  N1  1  0.14604  0.85396  0.85396  1
 N  N2  1  0.14604  0.85396  0.14604  1
 N  N3  1  0.85396  0.85396  0.14604  1
 N  N4  1  0.14604  0.14604  0.85396  1
 N  N5  1  0.85396  0.14604  0.14604  1
 N  N6  1  0.85396  0.14604  0.85396  1
 Na  Na1  1  0.50000  0.00000  0.00000  1
 Na  Na2  1  0.01061  0.32980  0.32980  1
 Na  Na3  1  0.67020  0.98939  0.67020  1
 Na  Na4  1  0.32980  0.01061  0.32980  1
 Na  Na5  1  0.67020  0.67020  0.98939  1
 Na  Na6  1  0.32980  0.32980  0.32980  1
 Na  Na7  1  0.00000  0.00000  0.50000  1
 Na  Na8  1  0.98939  0.67020  0.67020  1
 Na  Na9  1  0.67020  0.67020  0.67020  1
 Na  Na10  1  -0.00000  0.50000  0.50000  1
 Na  Na11  1  0.50000  0.00000  0.50000  1
 Na  Na12  1  -0.00000  0.50000  0.00000  1
 Na  Na13  1  0.32980  0.32980  0.01061  1
 Na  Na14  1  0.50000  0.50000  0.00000  1
