CIF file written using JARVIS-Tools package.
data_CdGeBi2O6
_symmetry_space_group_name_H-M  'Pbcn'
_cell_length_a       5.68378
_cell_length_b       10.1257
_cell_length_c       10.6103
_cell_angle_alpha    89.9988
_cell_angle_beta     90
_cell_angle_gamma    90

_symmetry_Int_Tables_number  60
_chemical_formula_structural  CdGeBi2O6
_chemical_formula_sum  Cd4Ge4Bi8O24
_cell_volume  610.6484218565392
_cell_formula_units_Z  4
loop_
  _symmetry_equiv_pos_site_id
 _symmetry_equiv_pos_as_xyz
 1  'x, y, z'
loop_
 _atom_site_type_symbol
 _atom_site_label
 _atom_site_symmetry_multiplicity
 _atom_site_fract_x
 _atom_site_fract_y
 _atom_site_fract_z
 _atom_site_fract_occupancy
 Bi  Bi1  1  0.21529  0.61224  0.75911  1
 Bi  Bi2  1  0.71529  0.38774  0.75907  1
 Bi  Bi3  1  0.28471  0.11224  0.25911  1
 Bi  Bi4  1  0.78471  0.38776  0.24089  1
 Bi  Bi5  1  0.21529  0.11226  0.74093  1
 Bi  Bi6  1  0.28471  0.61226  0.24093  1
 Bi  Bi7  1  0.71529  0.88776  0.74089  1
 Bi  Bi8  1  0.78471  0.88774  0.25907  1
 Cd  Cd1  1  0.74998  0.61145  0.50000  1
 Cd  Cd2  1  0.25002  0.38855  0.50000  1
 Cd  Cd3  1  0.75002  0.11145  -0.00000  1
 Cd  Cd4  1  0.24998  0.88855  0.00000  1
 Ge  Ge1  1  0.75006  0.15180  0.49999  1
 Ge  Ge2  1  0.24994  0.84820  0.50001  1
 Ge  Ge3  1  0.74994  0.65180  0.99999  1
 Ge  Ge4  1  0.25006  0.34820  0.00001  1
 O  O1  1  0.62163  0.05363  0.37857  1
 O  O2  1  0.98541  0.53168  0.35209  1
 O  O3  1  0.12163  0.44637  0.12143  1
 O  O4  1  0.98541  0.03167  0.14791  1
 O  O5  1  0.51459  0.03168  0.85209  1
 O  O6  1  0.51459  0.53167  0.64791  1
 O  O7  1  0.96531  0.75004  0.07900  1
 O  O8  1  0.48541  0.96832  0.14791  1
 O  O9  1  0.37838  0.44638  0.87856  1
 O  O10  1  0.87838  0.05362  0.62144  1
 O  O11  1  0.12162  0.94638  0.37856  1
 O  O12  1  0.96556  0.24995  0.42097  1
 O  O13  1  0.46531  0.74996  0.42100  1
 O  O14  1  0.01459  0.96833  0.85209  1
 O  O15  1  0.03444  0.75005  0.57903  1
 O  O16  1  0.03469  0.24996  0.92100  1
 O  O17  1  0.87837  0.55363  0.87857  1
 O  O18  1  0.01459  0.46832  0.64791  1
 O  O19  1  0.46556  0.25005  0.07903  1
 O  O20  1  0.53469  0.25004  0.57900  1
 O  O21  1  0.53444  0.74995  0.92097  1
 O  O22  1  0.62162  0.55362  0.12144  1
 O  O23  1  0.37837  0.94637  0.62143  1
 O  O24  1  0.48541  0.46833  0.35209  1
