CIF file written using JARVIS-Tools package.
data_Rb2Cd5As4
_symmetry_space_group_name_H-M  'Cmcm'
_cell_length_a       7.3815
_cell_length_b       7.3815
_cell_length_c       12.6303
_cell_angle_alpha    90
_cell_angle_beta     90
_cell_angle_gamma    116.829

_symmetry_Int_Tables_number  63
_chemical_formula_structural  Rb2Cd5As4
_chemical_formula_sum  Rb4Cd0As8
_cell_volume  614.1042430505454
_cell_formula_units_Z  2
loop_
  _symmetry_equiv_pos_site_id
 _symmetry_equiv_pos_as_xyz
 1  'x, y, z'
loop_
 _atom_site_type_symbol
 _atom_site_label
 _atom_site_symmetry_multiplicity
 _atom_site_fract_x
 _atom_site_fract_y
 _atom_site_fract_z
 _atom_site_fract_occupancy
 As  As1  1  0.90760  0.59578  0.75000  1
 As  As2  1  0.59578  0.90760  0.75000  1
 As  As3  1  0.40422  0.09240  0.25000  1
 As  As4  1  0.27548  0.27548  0.89890  1
 As  As5  1  0.72452  0.72452  0.39890  1
 As  As6  1  0.27548  0.27548  0.60110  1
 As  As7  1  0.72452  0.72452  0.10110  1
 As  As8  1  0.09240  0.40422  0.25000  1
 Cd  Cd1  1  0.76599  0.46968  0.25000  1
 Cd  Cd2  1  0.23401  0.53032  0.75000  1
 Cd  Cd3  1  0.53032  0.23401  0.75000  1
 Cd  Cd4  1  0.46968  0.76599  0.25000  1
 Cd  Cd5  1  0.34774  0.34774  0.39546  1
 Cd  Cd6  1  0.65226  0.65226  0.60454  1
 Cd  Cd7  1  0.34774  0.34774  0.10454  1
 Cd  Cd8  1  0.00599  0.00599  0.75000  1
 Cd  Cd9  1  0.99401  0.99401  0.25000  1
 Cd  Cd10  1  0.65226  0.65226  0.89546  1
 Rb  Rb1  1  0.20710  0.79290  0.00000  1
 Rb  Rb2  1  0.79290  0.20710  0.00000  1
 Rb  Rb3  1  0.20710  0.79290  0.50000  1
 Rb  Rb4  1  0.79290  0.20710  0.50000  1
