CIF file written using JARVIS-Tools package.
data_Ba6Mn5O16
_symmetry_space_group_name_H-M  'Cmce'
_cell_length_a       5.7388
_cell_length_b       7.2321
_cell_length_c       20.0995
_cell_angle_alpha    90
_cell_angle_beta     90
_cell_angle_gamma    113.376

_symmetry_Int_Tables_number  64
_chemical_formula_structural  Ba6Mn5O16
_chemical_formula_sum  Ba2Mn0O32
_cell_volume  765.7337999598287
_cell_formula_units_Z  2
loop_
  _symmetry_equiv_pos_site_id
 _symmetry_equiv_pos_as_xyz
 1  'x, y, z'
loop_
 _atom_site_type_symbol
 _atom_site_label
 _atom_site_symmetry_multiplicity
 _atom_site_fract_x
 _atom_site_fract_y
 _atom_site_fract_z
 _atom_site_fract_occupancy
 Ba  Ba1  1  0.12141  0.24282  0.83936  1
 Ba  Ba2  1  0.64568  0.29137  0.98127  1
 Ba  Ba3  1  0.35432  0.70863  0.01873  1
 Ba  Ba4  1  0.85432  0.70863  0.48127  1
 Ba  Ba5  1  0.14568  0.29137  0.51873  1
 Ba  Ba6  1  0.91417  0.82835  0.67851  1
 Ba  Ba7  1  0.87859  0.75718  0.16064  1
 Ba  Ba8  1  0.58583  0.17165  0.17851  1
 Ba  Ba9  1  0.41417  0.82835  0.82149  1
 Ba  Ba10  1  0.62141  0.24282  0.66064  1
 Ba  Ba11  1  0.37859  0.75718  0.33936  1
 Ba  Ba12  1  0.08583  0.17165  0.32149  1
 Mn  Mn1  1  0.25012  0.50024  0.18887  1
 Mn  Mn2  1  0.50000  0.00000  0.50000  1
 Mn  Mn3  1  0.24988  0.49976  0.68887  1
 Mn  Mn4  1  0.74988  0.49976  0.81113  1
 Mn  Mn5  1  0.75012  0.50024  0.31113  1
 Mn  Mn6  1  0.37720  0.75440  0.59371  1
 Mn  Mn7  1  0.62280  0.24560  0.40629  1
 Mn  Mn8  1  0.12280  0.24560  0.09371  1
 Mn  Mn9  1  0.87720  0.75440  0.90629  1
 Mn  Mn10  1  0.00000  0.00000  0.00000  1
 O  O1  1  0.74326  0.03759  0.43073  1
 O  O2  1  0.20568  0.96241  0.93073  1
 O  O3  1  0.24326  0.03759  0.06927  1
 O  O4  1  0.29432  0.03759  0.43073  1
 O  O5  1  0.25674  0.96241  0.56927  1
 O  O6  1  0.85510  0.71019  0.00252  1
 O  O7  1  0.35510  0.71019  0.49748  1
 O  O8  1  0.64490  0.28981  0.50252  1
 O  O9  1  0.91191  0.82382  0.81602  1
 O  O10  1  0.08809  0.17618  0.18398  1
 O  O11  1  0.01231  0.52462  0.75000  1
 O  O12  1  0.48769  0.47538  0.25000  1
 O  O13  1  0.70568  0.96241  0.56927  1
 O  O14  1  0.14490  0.28981  -0.00252  1
 O  O15  1  0.75674  0.96241  0.93073  1
 O  O16  1  0.38497  0.76995  0.18585  1
 O  O17  1  0.99201  0.54900  0.88533  1
 O  O18  1  0.44301  0.45100  0.11467  1
 O  O19  1  0.50799  0.45100  0.38533  1
 O  O20  1  0.05699  0.54900  0.61467  1
 O  O21  1  0.00799  0.45100  0.11467  1
 O  O22  1  0.55699  0.54900  0.88533  1
 O  O23  1  0.49201  0.54900  0.61467  1
 O  O24  1  0.98769  0.47538  0.25000  1
 O  O25  1  0.94301  0.45100  0.38533  1
 O  O26  1  0.51231  0.52462  0.75000  1
 O  O27  1  0.61503  0.23005  0.81415  1
 O  O28  1  0.41191  0.82382  0.68398  1
 O  O29  1  0.58809  0.17618  0.31602  1
 O  O30  1  0.88497  0.76995  0.31415  1
 O  O31  1  0.79432  0.03759  0.06927  1
 O  O32  1  0.11503  0.23005  0.68585  1
