CIF file written using JARVIS-Tools package.
data_Th7Rh3
_symmetry_space_group_name_H-M  'P6_3mc'
_cell_length_a       10.0303
_cell_length_b       10.0303
_cell_length_c       6.30111
_cell_angle_alpha    90
_cell_angle_beta     90
_cell_angle_gamma    120

_symmetry_Int_Tables_number  186
_chemical_formula_structural  Th7Rh3
_chemical_formula_sum  Th4Rh6
_cell_volume  549.0032861696684
_cell_formula_units_Z  2
loop_
  _symmetry_equiv_pos_site_id
 _symmetry_equiv_pos_as_xyz
 1  'x, y, z'
loop_
 _atom_site_type_symbol
 _atom_site_label
 _atom_site_symmetry_multiplicity
 _atom_site_fract_x
 _atom_site_fract_y
 _atom_site_fract_z
 _atom_site_fract_occupancy
 Rh  Rh1  1  0.18630  0.81370  0.55231  1
 Rh  Rh2  1  0.81370  0.62740  0.05231  1
 Rh  Rh3  1  0.18630  0.37260  0.55231  1
 Rh  Rh4  1  0.62740  0.81370  0.55231  1
 Rh  Rh5  1  0.81370  0.18630  0.05231  1
 Rh  Rh6  1  0.37260  0.18630  0.05231  1
 Th  Th1  1  0.66667  0.33333  0.32149  1
 Th  Th2  1  0.74520  0.87260  0.99701  1
 Th  Th3  1  0.87260  0.12740  0.49701  1
 Th  Th4  1  0.54293  0.45707  0.79085  1
 Th  Th5  1  0.08587  0.54293  0.29085  1
 Th  Th6  1  0.54293  0.08587  0.79085  1
 Th  Th7  1  0.91413  0.45707  0.79085  1
 Th  Th8  1  0.45707  0.54293  0.29085  1
 Th  Th9  1  0.12740  0.25480  0.99701  1
 Th  Th10  1  0.87260  0.74520  0.49701  1
 Th  Th11  1  0.25480  0.12740  0.49701  1
 Th  Th12  1  0.12740  0.87260  0.99701  1
 Th  Th13  1  0.45707  0.91413  0.29085  1
 Th  Th14  1  0.33333  0.66667  0.82149  1
