CIF file written using JARVIS-Tools package.
data_Yb5Si4
_symmetry_space_group_name_H-M  'Pnma'
_cell_length_a       7.43464
_cell_length_b       7.79742
_cell_length_c       15.3352
_cell_angle_alpha    90
_cell_angle_beta     90
_cell_angle_gamma    90

_symmetry_Int_Tables_number  62
_chemical_formula_structural  Yb5Si4
_chemical_formula_sum  Yb20Si6
_cell_volume  888.9989477928949
_cell_formula_units_Z  4
loop_
  _symmetry_equiv_pos_site_id
 _symmetry_equiv_pos_as_xyz
 1  'x, y, z'
loop_
 _atom_site_type_symbol
 _atom_site_label
 _atom_site_symmetry_multiplicity
 _atom_site_fract_x
 _atom_site_fract_y
 _atom_site_fract_z
 _atom_site_fract_occupancy
 Si  Si1  1  0.86030  0.52551  0.46294  1
 Si  Si2  1  0.36030  0.97449  0.03706  1
 Si  Si3  1  0.63970  0.02551  0.53706  1
 Si  Si4  1  0.13970  0.47449  0.96294  1
 Si  Si5  1  0.13970  0.47449  0.53706  1
 Si  Si6  1  0.63970  0.02551  0.96294  1
 Si  Si7  1  0.36030  0.97449  0.46294  1
 Si  Si8  1  0.86030  0.52551  0.03706  1
 Si  Si9  1  0.52644  0.40448  0.75000  1
 Si  Si10  1  0.02644  0.09552  0.75000  1
 Si  Si11  1  0.25115  0.37810  0.25000  1
 Si  Si12  1  0.75115  0.12190  0.25000  1
 Si  Si13  1  0.24885  0.87810  0.75000  1
 Si  Si14  1  0.74885  0.62190  0.75000  1
 Si  Si15  1  0.97356  0.90448  0.25000  1
 Si  Si16  1  0.47356  0.59552  0.25000  1
 Yb  Yb1  1  0.31721  0.18112  0.87732  1
 Yb  Yb2  1  0.14058  0.50869  0.75000  1
 Yb  Yb3  1  0.81721  0.31888  0.62268  1
 Yb  Yb4  1  0.02990  0.17920  0.09741  1
 Yb  Yb5  1  0.31721  0.18112  0.62268  1
 Yb  Yb6  1  0.81721  0.31888  0.87732  1
 Yb  Yb7  1  0.18279  0.68112  0.37732  1
 Yb  Yb8  1  0.68279  0.81888  0.12268  1
 Yb  Yb9  1  0.97010  0.82080  0.59741  1
 Yb  Yb10  1  0.47010  0.67920  0.90259  1
 Yb  Yb11  1  0.18279  0.68112  0.12268  1
 Yb  Yb12  1  0.68279  0.81888  0.37732  1
 Yb  Yb13  1  0.02990  0.17920  0.40259  1
 Yb  Yb14  1  0.52990  0.32080  0.09741  1
 Yb  Yb15  1  0.47010  0.67920  0.59741  1
 Yb  Yb16  1  0.97010  0.82080  0.90259  1
 Yb  Yb17  1  0.35942  0.00869  0.25000  1
 Yb  Yb18  1  0.85942  0.49131  0.25000  1
 Yb  Yb19  1  0.52990  0.32080  0.40259  1
 Yb  Yb20  1  0.64058  0.99131  0.75000  1
