CIF file written using JARVIS-Tools package.
data_Fe2C9O9
_symmetry_space_group_name_H-M  'P6_3/m'
_cell_length_a       6.2181
_cell_length_b       6.2181
_cell_length_c       15.9423
_cell_angle_alpha    90
_cell_angle_beta     90
_cell_angle_gamma    120

_symmetry_Int_Tables_number  176
_chemical_formula_structural  Fe2C9O9
_chemical_formula_sum  Fe4C8O8
_cell_volume  533.8230683639423
_cell_formula_units_Z  2
loop_
  _symmetry_equiv_pos_site_id
 _symmetry_equiv_pos_as_xyz
 1  'x, y, z'
loop_
 _atom_site_type_symbol
 _atom_site_label
 _atom_site_symmetry_multiplicity
 _atom_site_fract_x
 _atom_site_fract_y
 _atom_site_fract_z
 _atom_site_fract_occupancy
 C  C1  1  0.08047  0.66077  0.38763  1
 C  C2  1  0.66077  0.58031  0.61237  1
 C  C3  1  0.66850  0.08566  0.75000  1
 C  C4  1  0.58285  0.66850  0.25000  1
 C  C5  1  0.41969  0.08047  0.88763  1
 C  C6  1  0.58031  0.91953  0.38763  1
 C  C7  1  0.58031  0.91953  0.11237  1
 C  C8  1  0.91434  0.58285  0.75000  1
 C  C9  1  0.91953  0.33923  0.88763  1
 C  C10  1  0.33923  0.41969  0.11237  1
 C  C11  1  0.41969  0.08047  0.61237  1
 C  C12  1  0.08566  0.41715  0.25000  1
 C  C13  1  0.41715  0.33150  0.75000  1
 C  C14  1  0.08047  0.66077  0.11237  1
 C  C15  1  0.33150  0.91434  0.25000  1
 C  C16  1  0.91953  0.33923  0.61237  1
 C  C17  1  0.33923  0.41969  0.38763  1
 C  C18  1  0.66077  0.58031  0.88763  1
 Fe  Fe1  1  0.66667  0.33333  0.82886  1
 Fe  Fe2  1  0.33333  0.66667  0.17114  1
 Fe  Fe3  1  0.33333  0.66667  0.32886  1
 Fe  Fe4  1  0.66667  0.33333  0.67114  1
 O  O1  1  0.73102  0.07664  0.42804  1
 O  O2  1  0.33134  0.10355  0.25000  1
 O  O3  1  0.34562  0.26898  0.07196  1
 O  O4  1  0.22779  0.33134  0.75000  1
 O  O5  1  0.07664  0.34562  0.57196  1
 O  O6  1  0.10355  0.77221  0.75000  1
 O  O7  1  0.92336  0.65438  0.07196  1
 O  O8  1  0.65438  0.73102  0.92804  1
 O  O9  1  0.26898  0.92336  0.57196  1
 O  O10  1  0.66866  0.89645  0.75000  1
 O  O11  1  0.26898  0.92336  0.92804  1
 O  O12  1  0.65438  0.73102  0.57196  1
 O  O13  1  0.92336  0.65438  0.42804  1
 O  O14  1  0.73102  0.07664  0.07196  1
 O  O15  1  0.34562  0.26898  0.42804  1
 O  O16  1  0.07664  0.34562  0.92804  1
 O  O17  1  0.89645  0.22779  0.25000  1
 O  O18  1  0.77221  0.66866  0.25000  1
