CIF file written using JARVIS-Tools package.
data_ZrCu
_symmetry_space_group_name_H-M  'Cm'
_cell_length_a       5.25756
_cell_length_b       5.25756
_cell_length_c       5.4449
_cell_angle_alpha    99.8899
_cell_angle_beta     99.8899
_cell_angle_gamma    103.38

_symmetry_Int_Tables_number  8
_chemical_formula_structural  ZrCu
_chemical_formula_sum  Zr4Cu4
_cell_volume  140.69046744409448
_cell_formula_units_Z  4
loop_
  _symmetry_equiv_pos_site_id
 _symmetry_equiv_pos_as_xyz
 1  'x, y, z'
loop_
 _atom_site_type_symbol
 _atom_site_label
 _atom_site_symmetry_multiplicity
 _atom_site_fract_x
 _atom_site_fract_y
 _atom_site_fract_z
 _atom_site_fract_occupancy
 Cu  Cu1  1  0.27794  0.27794  0.55256  1
 Cu  Cu2  1  0.69637  0.69637  0.56232  1
 Cu  Cu3  1  0.05597  0.55628  0.84809  1
 Cu  Cu4  1  0.55628  0.05597  0.84809  1
 Zr  Zr1  1  0.09730  0.09730  0.00233  1
 Zr  Zr2  1  0.59471  0.59471  0.02173  1
 Zr  Zr3  1  0.72577  0.17218  0.40467  1
 Zr  Zr4  1  0.17218  0.72577  0.40467  1
