CIF file written using JARVIS-Tools package.
data_BeMoW
_symmetry_space_group_name_H-M  'I4mm'
_cell_length_a       6.11773
_cell_length_b       6.11773
_cell_length_c       6.11773
_cell_angle_alpha    154.93
_cell_angle_beta     154.93
_cell_angle_gamma    35.7493

_symmetry_Int_Tables_number  107
_chemical_formula_structural  BeMoW
_chemical_formula_sum  BeMoW
_cell_volume  41.05910751728341
_cell_formula_units_Z  1
loop_
  _symmetry_equiv_pos_site_id
 _symmetry_equiv_pos_as_xyz
 1  'x, y, z'
loop_
 _atom_site_type_symbol
 _atom_site_label
 _atom_site_symmetry_multiplicity
 _atom_site_fract_x
 _atom_site_fract_y
 _atom_site_fract_z
 _atom_site_fract_occupancy
 Be  Be1  1  0.00039  0.00039  -0.00000  1
 Mo  Mo1  1  0.34978  0.34978  0.00000  1
 W  W1  1  0.64983  0.64983  -0.00000  1
