CIF file written using JARVIS-Tools package.
data_Na4BeAlSi4ClO12
_symmetry_space_group_name_H-M  'I-4'
_cell_length_a       7.58788
_cell_length_b       7.58788
_cell_length_c       7.58788
_cell_angle_alpha    110.304
_cell_angle_beta     110.304
_cell_angle_gamma    107.818

_symmetry_Int_Tables_number  82
_chemical_formula_structural  Na4BeAlSi4ClO12
_chemical_formula_sum  Na4BeAlSi4ClO2
_cell_volume  336.10022905791544
_cell_formula_units_Z  1
loop_
  _symmetry_equiv_pos_site_id
 _symmetry_equiv_pos_as_xyz
 1  'x, y, z'
loop_
 _atom_site_type_symbol
 _atom_site_label
 _atom_site_symmetry_multiplicity
 _atom_site_fract_x
 _atom_site_fract_y
 _atom_site_fract_z
 _atom_site_fract_occupancy
 Al  Al1  1  0.25000  0.75000  0.50000  1
 Be  Be1  1  0.75000  0.25000  0.50000  1
 Cl  Cl1  1  0.00000  0.00000  0.00000  1
 Na  Na1  1  0.98518  0.02805  0.65094  1
 Na  Na2  1  0.37711  0.33424  0.34906  1
 Na  Na3  1  0.97195  0.62289  0.95713  1
 Na  Na4  1  0.66576  0.01482  0.04287  1
 O  O1  1  0.30618  0.28837  0.71693  1
 O  O2  1  0.44339  0.00992  0.72709  1
 O  O3  1  0.28282  0.71629  0.27291  1
 O  O4  1  0.28371  0.55661  0.56653  1
 O  O5  1  0.99008  0.71718  0.43347  1
 O  O6  1  0.00307  0.39224  0.69337  1
 O  O7  1  0.69888  0.30971  0.30663  1
 O  O8  1  0.41075  0.69382  0.98219  1
 O  O9  1  0.57143  0.58925  0.28307  1
 O  O10  1  0.71163  0.42857  0.01781  1
 O  O11  1  0.69029  0.99693  0.38917  1
 O  O12  1  0.60776  0.30112  0.61083  1
 Si  Si1  1  0.49043  0.75841  0.24011  1
 Si  Si2  1  0.51830  0.25032  0.75989  1
 Si  Si3  1  0.24159  0.48170  0.73202  1
 Si  Si4  1  0.74968  0.50957  0.26798  1
