CIF file written using JARVIS-Tools package.
data_VFeAs
_symmetry_space_group_name_H-M  'P-62m'
_cell_length_a       3.69108
_cell_length_b       6.04407
_cell_length_c       6.0439
_cell_angle_alpha    120.001
_cell_angle_beta     90
_cell_angle_gamma    90

_symmetry_Int_Tables_number  189
_chemical_formula_structural  VFeAs
_chemical_formula_sum  V3Fe3As3
_cell_volume  116.76880540617361
_cell_formula_units_Z  3
loop_
  _symmetry_equiv_pos_site_id
 _symmetry_equiv_pos_as_xyz
 1  'x, y, z'
loop_
 _atom_site_type_symbol
 _atom_site_label
 _atom_site_symmetry_multiplicity
 _atom_site_fract_x
 _atom_site_fract_y
 _atom_site_fract_z
 _atom_site_fract_occupancy
 As  As1  1  0.00000  0.33330  0.66667  1
 As  As2  1  0.00000  0.66664  0.33333  1
 As  As3  1  0.50000  0.00002  -0.00000  1
 Fe  Fe1  1  0.00000  0.24664  0.00000  1
 Fe  Fe2  1  0.00000  0.75333  0.75336  1
 Fe  Fe3  1  0.00000  0.99997  0.24664  1
 V  V1  1  0.50000  0.58145  0.00000  1
 V  V2  1  0.50000  0.41859  0.41862  1
 V  V3  1  0.50000  0.99997  0.58138  1
