CIF file written using JARVIS-Tools package.
data_BaP2O6
_symmetry_space_group_name_H-M  'P2_12_12_1'
_cell_length_a       4.5253
_cell_length_b       8.34155
_cell_length_c       13.4089
_cell_angle_alpha    90
_cell_angle_beta     90
_cell_angle_gamma    90

_symmetry_Int_Tables_number  19
_chemical_formula_structural  BaP2O6
_chemical_formula_sum  Ba4P8O24
_cell_volume  506.1596175643987
_cell_formula_units_Z  4
loop_
  _symmetry_equiv_pos_site_id
 _symmetry_equiv_pos_as_xyz
 1  'x, y, z'
loop_
 _atom_site_type_symbol
 _atom_site_label
 _atom_site_symmetry_multiplicity
 _atom_site_fract_x
 _atom_site_fract_y
 _atom_site_fract_z
 _atom_site_fract_occupancy
 Ba  Ba1  1  0.73801  0.80532  0.87188  1
 Ba  Ba2  1  0.26199  0.69468  0.37188  1
 Ba  Ba3  1  0.23801  0.19468  0.62812  1
 Ba  Ba4  1  0.76199  0.30532  0.12812  1
 O  O1  1  0.71942  0.40816  0.63460  1
 O  O2  1  0.21942  0.59184  0.86540  1
 O  O3  1  0.75168  0.61490  0.48865  1
 O  O4  1  0.25168  0.38510  0.01135  1
 O  O5  1  0.74832  0.11490  0.51135  1
 O  O6  1  0.12137  0.60927  0.63474  1
 O  O7  1  0.28708  0.37194  0.26316  1
 O  O8  1  0.28058  0.09184  0.13460  1
 O  O9  1  0.71292  0.12806  0.76316  1
 O  O10  1  0.21292  0.87194  0.73684  1
 O  O11  1  0.61908  0.70770  0.66499  1
 O  O12  1  0.11908  0.29230  0.83501  1
 O  O13  1  0.88092  0.20770  0.33501  1
 O  O14  1  0.24832  0.88510  0.98865  1
 O  O15  1  0.38092  0.79230  0.16499  1
 O  O16  1  0.87863  0.89073  0.13474  1
 O  O17  1  0.78708  0.62806  0.23684  1
 O  O18  1  0.27283  0.86874  0.54740  1
 O  O19  1  0.77283  0.13126  0.95260  1
 O  O20  1  0.22717  0.36874  0.45260  1
 O  O21  1  0.72717  0.63126  0.04740  1
 O  O22  1  0.37863  0.10927  0.36526  1
 O  O23  1  0.78058  0.90816  0.36540  1
 O  O24  1  0.62137  0.39073  0.86526  1
 P  P1  1  0.28822  0.42850  0.90401  1
 P  P2  1  0.21178  0.92850  0.09599  1
 P  P3  1  0.71178  0.07150  0.40401  1
 P  P4  1  0.78822  0.57150  0.59599  1
 P  P5  1  0.70814  0.71978  0.14427  1
 P  P6  1  0.20814  0.28022  0.35573  1
 P  P7  1  0.79186  0.21978  0.85573  1
 P  P8  1  0.29186  0.78022  0.64427  1
