CIF file written using JARVIS-Tools package.
data_Li2Fe2CoO6
_symmetry_space_group_name_H-M  'C2/m'
_cell_length_a       2.81407
_cell_length_b       5.73911
_cell_length_c       6.5061
_cell_angle_alpha    105.566
_cell_angle_beta     102.495
_cell_angle_gamma    89.9856

_symmetry_Int_Tables_number  12
_chemical_formula_structural  Li2Fe2CoO6
_chemical_formula_sum  Li2Fe2CoO6
_cell_volume  98.63652322846349
_cell_formula_units_Z  1
loop_
  _symmetry_equiv_pos_site_id
 _symmetry_equiv_pos_as_xyz
 1  'x, y, z'
loop_
 _atom_site_type_symbol
 _atom_site_label
 _atom_site_symmetry_multiplicity
 _atom_site_fract_x
 _atom_site_fract_y
 _atom_site_fract_z
 _atom_site_fract_occupancy
 Co  Co1  1  0.00000  0.50000  0.00000  1
 Fe  Fe1  1  0.66521  0.83743  0.33045  1
 Fe  Fe2  1  0.33479  0.16257  0.66955  1
 Li  Li1  1  0.64607  0.30248  0.29266  1
 Li  Li2  1  0.35393  0.69752  0.70734  1
 O  O1  1  0.51190  0.72736  0.02399  1
 O  O2  1  0.15778  0.60148  0.31537  1
 O  O3  1  0.82321  0.92794  0.64622  1
 O  O4  1  0.17679  0.07206  0.35378  1
 O  O5  1  0.84222  0.39852  0.68463  1
 O  O6  1  0.48810  0.27264  0.97601  1
