CIF file written using JARVIS-Tools package.
data_Rb3MnH5
_symmetry_space_group_name_H-M  'I4/mcm'
_cell_length_a       8.16885
_cell_length_b       8.16885
_cell_length_c       8.16885
_cell_angle_alpha    122.549
_cell_angle_beta     122.549
_cell_angle_gamma    85.6389

_symmetry_Int_Tables_number  140
_chemical_formula_structural  Rb3MnH5
_chemical_formula_sum  Rb6Mn2H0
_cell_volume  369.431009592167
_cell_formula_units_Z  2
loop_
  _symmetry_equiv_pos_site_id
 _symmetry_equiv_pos_as_xyz
 1  'x, y, z'
loop_
 _atom_site_type_symbol
 _atom_site_label
 _atom_site_symmetry_multiplicity
 _atom_site_fract_x
 _atom_site_fract_y
 _atom_site_fract_z
 _atom_site_fract_occupancy
 H  H1  1  0.28690  0.53463  0.50000  1
 H  H2  1  0.50000  0.50000  0.00000  1
 H  H3  1  0.21310  0.71310  0.24773  1
 H  H4  1  0.96537  0.21310  0.50000  1
 H  H5  1  0.46537  0.96537  0.75227  1
 H  H6  1  0.53463  0.03463  0.24773  1
 H  H7  1  0.78690  0.28690  0.75227  1
 H  H8  1  0.03463  0.78690  0.50000  1
 H  H9  1  0.00000  0.00000  0.00000  1
 H  H10  1  0.71310  0.46537  0.50000  1
 Mn  Mn1  1  0.75000  0.25000  0.50000  1
 Mn  Mn2  1  0.25000  0.75000  0.50000  1
 Rb  Rb1  1  0.31885  0.18115  0.50000  1
 Rb  Rb2  1  0.68115  0.81885  0.50000  1
 Rb  Rb3  1  0.81885  0.31885  0.13771  1
 Rb  Rb4  1  0.18115  0.68115  0.86229  1
 Rb  Rb5  1  0.75000  0.75000  0.00000  1
 Rb  Rb6  1  0.25000  0.25000  0.00000  1
