CIF file written using JARVIS-Tools package.
data_Dy7InCo4Ge12
_symmetry_space_group_name_H-M  'P4/m'
_cell_length_a       4.18697
_cell_length_b       10.378
_cell_length_c       10.378
_cell_angle_alpha    90
_cell_angle_beta     90
_cell_angle_gamma    90

_symmetry_Int_Tables_number  83
_chemical_formula_structural  Dy7InCo4Ge12
_chemical_formula_sum  Dy7InCo4Ge2
_cell_volume  450.9502185402116
_cell_formula_units_Z  1
loop_
  _symmetry_equiv_pos_site_id
 _symmetry_equiv_pos_as_xyz
 1  'x, y, z'
loop_
 _atom_site_type_symbol
 _atom_site_label
 _atom_site_symmetry_multiplicity
 _atom_site_fract_x
 _atom_site_fract_y
 _atom_site_fract_z
 _atom_site_fract_occupancy
 Co  Co1  1  0.00000  0.88223  0.27687  1
 Co  Co2  1  0.00000  0.11777  0.72313  1
 Co  Co3  1  0.00000  0.27687  0.11777  1
 Co  Co4  1  0.00000  0.72313  0.88223  1
 Dy  Dy1  1  0.00000  0.00000  0.00000  1
 Dy  Dy2  1  0.50000  0.32147  0.32674  1
 Dy  Dy3  1  0.50000  0.32674  0.67853  1
 Dy  Dy4  1  0.50000  0.67853  0.67326  1
 Dy  Dy5  1  0.50000  0.00000  0.50000  1
 Dy  Dy6  1  0.50000  0.67326  0.32147  1
 Dy  Dy7  1  0.50000  0.50000  0.00000  1
 Ge  Ge1  1  0.00000  0.21245  0.51586  1
 Ge  Ge2  1  0.50000  0.80473  0.93436  1
 Ge  Ge3  1  0.00000  0.51586  0.78755  1
 Ge  Ge4  1  0.50000  0.93436  0.19527  1
 Ge  Ge5  1  0.50000  0.06564  0.80473  1
 Ge  Ge6  1  0.00000  0.48414  0.21245  1
 Ge  Ge7  1  0.00000  0.71244  0.11257  1
 Ge  Ge8  1  0.00000  0.28756  0.88743  1
 Ge  Ge9  1  0.00000  0.88743  0.71244  1
 Ge  Ge10  1  0.00000  0.11257  0.28756  1
 Ge  Ge11  1  0.50000  0.19527  0.06564  1
 Ge  Ge12  1  0.00000  0.78755  0.48414  1
 In  In1  1  0.00000  0.50000  0.50000  1
