CIF file written using JARVIS-Tools package.
data_Cu2S
_symmetry_space_group_name_H-M  'P4_32_12'
_cell_length_a       4.1001
_cell_length_b       4.1002
_cell_length_c       10.7603
_cell_angle_alpha    90
_cell_angle_beta     89.9997
_cell_angle_gamma    90

_symmetry_Int_Tables_number  96
_chemical_formula_structural  Cu2S
_chemical_formula_sum  Cu8S4
_cell_volume  180.8941174265708
_cell_formula_units_Z  4
loop_
  _symmetry_equiv_pos_site_id
 _symmetry_equiv_pos_as_xyz
 1  'x, y, z'
loop_
 _atom_site_type_symbol
 _atom_site_label
 _atom_site_symmetry_multiplicity
 _atom_site_fract_x
 _atom_site_fract_y
 _atom_site_fract_z
 _atom_site_fract_occupancy
 Cu  Cu1  1  0.08395  0.57892  0.33109  1
 Cu  Cu2  1  0.41605  0.07892  0.41891  1
 Cu  Cu3  1  0.92111  0.58394  0.08109  1
 Cu  Cu4  1  -0.08394  0.42108  0.83109  1
 Cu  Cu5  1  0.42112  -0.08394  0.16891  1
 Cu  Cu6  1  0.58394  0.92108  0.91891  1
 Cu  Cu7  1  0.07888  0.41606  0.58109  1
 Cu  Cu8  1  0.57889  0.08393  0.66891  1
 S  S1  1  0.42103  0.57895  0.75000  1
 S  S2  1  0.07897  0.07895  0.00000  1
 S  S3  1  0.92103  0.92105  0.50000  1
 S  S4  1  0.57897  0.42105  0.25000  1
