CIF file written using JARVIS-Tools package.
data_Li3Mn2Cr2O8
_symmetry_space_group_name_H-M  'C2/m'
_cell_length_a       5.73755
_cell_length_b       5.79837
_cell_length_c       5.79853
_cell_angle_alpha    120.794
_cell_angle_beta     119.716
_cell_angle_gamma    89.8543

_symmetry_Int_Tables_number  12
_chemical_formula_structural  Li3Mn2Cr2O8
_chemical_formula_sum  Li3Mn2Cr2O8
_cell_volume  135.5129646958753
_cell_formula_units_Z  1
loop_
  _symmetry_equiv_pos_site_id
 _symmetry_equiv_pos_as_xyz
 1  'x, y, z'
loop_
 _atom_site_type_symbol
 _atom_site_label
 _atom_site_symmetry_multiplicity
 _atom_site_fract_x
 _atom_site_fract_y
 _atom_site_fract_z
 _atom_site_fract_occupancy
 Cr  Cr1  1  0.00000  0.50000  0.00000  1
 Cr  Cr2  1  0.50000  0.50000  0.50000  1
 Li  Li1  1  0.50000  0.00000  0.50000  1
 Li  Li2  1  0.50000  0.50000  -0.00000  1
 Li  Li3  1  0.00000  0.00000  0.50000  1
 Mn  Mn1  1  0.00000  0.00000  0.00000  1
 Mn  Mn2  1  0.00000  0.50000  0.50000  1
 O  O1  1  0.78008  0.26076  0.01933  1
 O  O2  1  0.76567  0.27796  0.51847  1
 O  O3  1  0.23435  0.25280  0.01231  1
 O  O4  1  0.75808  0.74434  0.51374  1
 O  O5  1  0.24192  0.25566  0.48626  1
 O  O6  1  0.76565  0.74720  0.98769  1
 O  O7  1  0.23433  0.72204  0.48153  1
 O  O8  1  0.21992  0.73924  0.98067  1
