CIF file written using JARVIS-Tools package.
data_Yb2C3N6
_symmetry_space_group_name_H-M  'R-3c'
_cell_length_a       11.111
_cell_length_b       11.111
_cell_length_c       11.111
_cell_angle_alpha    32.1916
_cell_angle_beta     32.1916
_cell_angle_gamma    32.1916

_symmetry_Int_Tables_number  167
_chemical_formula_structural  Yb2C3N6
_chemical_formula_sum  Yb4C6N2
_cell_volume  346.01526891387897
_cell_formula_units_Z  2
loop_
  _symmetry_equiv_pos_site_id
 _symmetry_equiv_pos_as_xyz
 1  'x, y, z'
loop_
 _atom_site_type_symbol
 _atom_site_label
 _atom_site_symmetry_multiplicity
 _atom_site_fract_x
 _atom_site_fract_y
 _atom_site_fract_z
 _atom_site_fract_occupancy
 C  C1  1  0.05784  0.75000  0.44216  1
 C  C2  1  0.75000  0.44216  0.05784  1
 C  C3  1  0.55784  0.94216  0.25000  1
 C  C4  1  0.94216  0.25000  0.55784  1
 C  C5  1  0.25000  0.55784  0.94216  1
 C  C6  1  0.44216  0.05784  0.75000  1
 N  N1  1  0.33504  0.57001  0.95913  1
 N  N2  1  0.45913  0.07001  0.83504  1
 N  N3  1  0.66496  0.42999  0.04087  1
 N  N4  1  0.04087  0.66496  0.42999  1
 N  N5  1  0.54087  0.92999  0.16496  1
 N  N6  1  0.83504  0.45913  0.07001  1
 N  N7  1  0.57001  0.95913  0.33504  1
 N  N8  1  0.07001  0.83504  0.45913  1
 N  N9  1  0.16496  0.54087  0.92999  1
 N  N10  1  0.92999  0.16496  0.54087  1
 N  N11  1  0.42999  0.04087  0.66496  1
 N  N12  1  0.95913  0.33504  0.57001  1
 Yb  Yb1  1  0.33475  0.33475  0.33475  1
 Yb  Yb2  1  0.83475  0.83475  0.83475  1
 Yb  Yb3  1  0.66525  0.66525  0.66525  1
 Yb  Yb4  1  0.16525  0.16525  0.16525  1
