CIF file written using JARVIS-Tools package.
data_DyP3O9
_symmetry_space_group_name_H-M  'Cc'
_cell_length_a       6.72846
_cell_length_b       7.84148
_cell_length_c       8.6156
_cell_angle_alpha    75.146
_cell_angle_beta     67.0156
_cell_angle_gamma    64.594

_symmetry_Int_Tables_number  9
_chemical_formula_structural  DyP3O9
_chemical_formula_sum  Dy2P6O8
_cell_volume  375.8467426988805
_cell_formula_units_Z  2
loop_
  _symmetry_equiv_pos_site_id
 _symmetry_equiv_pos_as_xyz
 1  'x, y, z'
loop_
 _atom_site_type_symbol
 _atom_site_label
 _atom_site_symmetry_multiplicity
 _atom_site_fract_x
 _atom_site_fract_y
 _atom_site_fract_z
 _atom_site_fract_occupancy
 Dy  Dy1  1  0.21281  0.35506  0.75857  1
 Dy  Dy2  1  0.67356  0.85506  0.25857  1
 O  O1  1  0.25605  0.37222  0.28508  1
 O  O2  1  0.34911  0.91945  0.48357  1
 O  O3  1  0.95002  0.91403  0.54668  1
 O  O4  1  0.44159  0.73056  0.87414  1
 O  O5  1  0.95371  0.23056  0.37414  1
 O  O6  1  0.24788  0.41945  0.98357  1
 O  O7  1  0.85749  0.57596  0.85948  1
 O  O8  1  0.52621  0.11175  0.09116  1
 O  O9  1  0.27088  0.61175  0.59116  1
 O  O10  1  0.03765  0.82084  0.09280  1
 O  O11  1  0.55036  0.71568  0.13274  1
 O  O12  1  0.70707  0.07596  0.35948  1
 O  O13  1  0.18873  0.07888  0.90031  1
 O  O14  1  0.60122  0.21568  0.63274  1
 O  O15  1  0.08665  0.87222  0.78508  1
 O  O16  1  0.04871  0.32084  0.59280  1
 O  O17  1  0.83208  0.57888  0.40031  1
 O  O18  1  0.58927  0.41403  0.04668  1
 P  P1  1  0.00952  0.38612  0.42454  1
 P  P2  1  0.78352  0.11616  0.48222  1
 P  P3  1  0.40002  0.32162  0.09362  1
 P  P4  1  0.17982  0.88612  0.92454  1
 P  P5  1  0.61811  0.61616  0.98222  1
 P  P6  1  0.18474  0.82162  0.59362  1
