CIF file written using JARVIS-Tools package.
data_Na3Sc2B3O9
_symmetry_space_group_name_H-M  'R-3c'
_cell_length_a       8.33701
_cell_length_b       8.33733
_cell_length_c       8.33722
_cell_angle_alpha    62.4007
_cell_angle_beta     62.4017
_cell_angle_gamma    62.4023

_symmetry_Int_Tables_number  167
_chemical_formula_structural  Na3Sc2B3O9
_chemical_formula_sum  Na6Sc4B6O8
_cell_volume  431.7199099860873
_cell_formula_units_Z  2
loop_
  _symmetry_equiv_pos_site_id
 _symmetry_equiv_pos_as_xyz
 1  'x, y, z'
loop_
 _atom_site_type_symbol
 _atom_site_label
 _atom_site_symmetry_multiplicity
 _atom_site_fract_x
 _atom_site_fract_y
 _atom_site_fract_z
 _atom_site_fract_occupancy
 B  B1  1  0.24989  0.90965  0.59046  1
 B  B2  1  0.40957  0.74996  0.09047  1
 B  B3  1  0.74987  0.09028  0.40984  1
 B  B4  1  0.59020  0.24997  0.90983  1
 B  B5  1  0.90957  0.59029  0.25015  1
 B  B6  1  0.09019  0.40965  0.75015  1
 Na  Na1  1  0.41768  0.08212  0.75018  1
 Na  Na2  1  0.08205  0.74999  0.41797  1
 Na  Na3  1  0.58208  0.91782  0.25012  1
 Na  Na4  1  0.24986  0.58214  0.91798  1
 Na  Na5  1  0.91772  0.24994  0.58233  1
 Na  Na6  1  0.74991  0.41779  0.08232  1
 O  O1  1  0.59509  0.18501  0.34456  1
 O  O2  1  0.18492  0.34437  0.59536  1
 O  O3  1  0.90469  0.15552  0.31512  1
 O  O4  1  0.68493  0.09515  0.84461  1
 O  O5  1  0.15543  0.31493  0.90496  1
 O  O6  1  0.65547  0.40477  0.81509  1
 O  O7  1  0.40468  0.81492  0.65574  1
 O  O8  1  0.81484  0.65556  0.40494  1
 O  O9  1  0.34430  0.59517  0.18521  1
 O  O10  1  0.84434  0.68501  0.09534  1
 O  O11  1  0.57028  0.74994  0.92979  1
 O  O12  1  0.07025  0.42958  0.25018  1
 O  O13  1  0.42949  0.25000  0.07051  1
 O  O14  1  0.74985  0.92960  0.57055  1
 O  O15  1  0.92952  0.57036  0.75012  1
 O  O16  1  0.09508  0.84441  0.68518  1
 O  O17  1  0.24991  0.07033  0.42975  1
 O  O18  1  0.31484  0.90478  0.15569  1
 Sc  Sc1  1  0.67240  0.67248  0.67266  1
 Sc  Sc2  1  0.32737  0.32745  0.32764  1
 Sc  Sc3  1  0.17240  0.17248  0.17266  1
 Sc  Sc4  1  0.82737  0.82745  0.82764  1
