CIF file written using JARVIS-Tools package.
data_CaP2O6
_symmetry_space_group_name_H-M  'P2_1/c'
_cell_length_a       7.00527
_cell_length_b       7.72259
_cell_length_c       16.9603
_cell_angle_alpha    90
_cell_angle_beta     90.3346
_cell_angle_gamma    90

_symmetry_Int_Tables_number  14
_chemical_formula_structural  CaP2O6
_chemical_formula_sum  Ca8P6O48
_cell_volume  917.5175700709925
_cell_formula_units_Z  8
loop_
  _symmetry_equiv_pos_site_id
 _symmetry_equiv_pos_as_xyz
 1  'x, y, z'
loop_
 _atom_site_type_symbol
 _atom_site_label
 _atom_site_symmetry_multiplicity
 _atom_site_fract_x
 _atom_site_fract_y
 _atom_site_fract_z
 _atom_site_fract_occupancy
 Ca  Ca1  1  0.52497  0.89094  0.89583  1
 Ca  Ca2  1  0.98063  0.13090  0.17256  1
 Ca  Ca3  1  0.01937  0.63090  0.32744  1
 Ca  Ca4  1  0.01937  0.86910  0.82744  1
 Ca  Ca5  1  0.47503  0.39094  0.60417  1
 Ca  Ca6  1  0.52497  0.60906  0.39583  1
 Ca  Ca7  1  0.47503  0.10906  0.10417  1
 Ca  Ca8  1  0.98063  0.36910  0.67256  1
 O  O1  1  0.24112  0.09923  0.84305  1
 O  O2  1  0.42750  0.33600  0.46703  1
 O  O3  1  0.42750  0.16400  0.96703  1
 O  O4  1  0.57250  0.66400  0.53297  1
 O  O5  1  0.24112  0.40077  0.34305  1
 O  O6  1  0.75888  0.90077  0.15695  1
 O  O7  1  0.17966  0.94080  0.09397  1
 O  O8  1  0.82034  0.44080  0.40603  1
 O  O9  1  0.94433  0.06505  0.30627  1
 O  O10  1  0.19615  0.67638  0.45157  1
 O  O11  1  0.17966  0.55920  0.59397  1
 O  O12  1  0.82034  0.05920  0.90603  1
 O  O13  1  0.75888  0.59923  0.65695  1
 O  O14  1  0.59230  0.44930  0.80836  1
 O  O15  1  0.91771  0.74560  0.53546  1
 O  O16  1  0.80385  0.32362  0.54843  1
 O  O17  1  0.08229  0.24560  0.96454  1
 O  O18  1  0.94433  0.43495  0.80627  1
 O  O19  1  0.29814  0.08435  0.38550  1
 O  O20  1  0.08229  0.25440  0.46454  1
 O  O21  1  0.76487  0.11763  0.43575  1
 O  O22  1  0.40770  0.94930  0.69164  1
 O  O23  1  0.23513  0.61763  0.06425  1
 O  O24  1  0.76487  0.38237  0.93575  1
 O  O25  1  0.77861  0.81823  0.38156  1
 O  O26  1  0.22139  0.31823  0.11844  1
 O  O27  1  0.22139  0.18177  0.61844  1
 O  O28  1  0.77861  0.68177  0.88156  1
 O  O29  1  0.59230  0.05070  0.30836  1
 O  O30  1  0.91771  0.75440  0.03546  1
 O  O31  1  0.05567  0.93495  0.69373  1
 O  O32  1  0.70186  0.91565  0.61450  1
 O  O33  1  0.19615  0.82362  0.95157  1
 O  O34  1  0.05567  0.56505  0.19373  1
 O  O35  1  0.34198  0.69562  0.81636  1
 O  O36  1  0.40770  0.55070  0.19164  1
 O  O37  1  0.70186  0.58435  0.11450  1
 O  O38  1  0.29814  0.41565  0.88550  1
 O  O39  1  0.29836  0.07876  0.23138  1
 O  O40  1  0.70164  0.57876  0.26862  1
 O  O41  1  0.80385  0.17638  0.04843  1
 O  O42  1  0.29836  0.42124  0.73138  1
 O  O43  1  0.34198  0.80438  0.31636  1
 O  O44  1  0.65802  0.30438  0.18364  1
 O  O45  1  0.65802  0.19562  0.68364  1
 O  O46  1  0.23513  0.88237  0.56425  1
 O  O47  1  0.57250  0.83600  0.03297  1
 O  O48  1  0.70164  0.92124  0.76862  1
 P  P1  1  0.85886  0.29777  0.46418  1
 P  P2  1  0.14114  0.79777  0.03582  1
 P  P3  1  0.85886  0.20223  0.96418  1
 P  P4  1  0.37115  -0.00473  0.30502  1
 P  P5  1  0.62885  0.00473  0.69498  1
 P  P6  1  0.37115  0.50473  0.80502  1
 P  P7  1  0.14114  0.70223  0.53582  1
 P  P8  1  0.26827  0.28097  0.41236  1
 P  P9  1  0.78228  0.00457  0.35607  1
 P  P10  1  0.73173  0.78097  0.08764  1
 P  P11  1  0.73173  0.71903  0.58764  1
 P  P12  1  0.62885  0.49527  0.19498  1
 P  P13  1  0.78228  0.49543  0.85607  1
 P  P14  1  0.26827  0.21903  0.91236  1
 P  P15  1  0.21772  0.50457  0.14393  1
 P  P16  1  0.21772  0.99543  0.64393  1
