CIF file written using JARVIS-Tools package.
data_GaH12N3O3F6
_symmetry_space_group_name_H-M  'P-1'
_cell_length_a       5.99295
_cell_length_b       7.48383
_cell_length_c       10.372
_cell_angle_alpha    86.2941
_cell_angle_beta     74.0975
_cell_angle_gamma    69.138

_symmetry_Int_Tables_number  2
_chemical_formula_structural  GaH12N3O3F6
_chemical_formula_sum  Ga2H24N6O6F2
_cell_volume  417.77233114254835
_cell_formula_units_Z  2
loop_
  _symmetry_equiv_pos_site_id
 _symmetry_equiv_pos_as_xyz
 1  'x, y, z'
loop_
 _atom_site_type_symbol
 _atom_site_label
 _atom_site_symmetry_multiplicity
 _atom_site_fract_x
 _atom_site_fract_y
 _atom_site_fract_z
 _atom_site_fract_occupancy
 F  F1  1  0.43814  0.64480  0.65961  1
 F  F2  1  0.56186  0.35520  0.34039  1
 F  F3  1  0.85453  0.02390  0.84572  1
 F  F4  1  0.68536  0.05000  0.12228  1
 F  F5  1  0.31464  -0.05000  0.87772  1
 F  F6  1  0.14547  0.97610  0.15428  1
 F  F7  1  0.03542  0.73232  0.99426  1
 F  F8  1  0.55852  0.70797  0.39904  1
 F  F9  1  0.44148  0.29203  0.60096  1
 F  F10  1  0.85070  0.39123  0.48791  1
 F  F11  1  0.14930  0.60877  0.51209  1
 F  F12  1  0.96458  0.26768  0.00574  1
 Ga  Ga1  1  0.00000  0.00000  0.00000  1
 Ga  Ga2  1  0.50000  0.50000  0.50000  1
 H  H1  1  0.94544  0.80327  0.50318  1
 H  H2  1  0.05456  0.19673  0.49682  1
 H  H3  1  0.32642  0.87905  0.61655  1
 H  H4  1  0.67358  0.12095  0.38345  1
 H  H5  1  0.05626  0.05143  0.69003  1
 H  H6  1  0.94374  0.94857  0.30997  1
 H  H7  1  0.32242  0.10528  0.63844  1
 H  H8  1  0.67758  0.89472  0.36156  1
 H  H9  1  0.96866  0.46567  0.34347  1
 H  H10  1  0.03134  0.53433  0.65653  1
 H  H11  1  0.66314  0.63534  0.89769  1
 H  H12  1  0.21240  0.20994  0.19372  1
 H  H13  1  0.78760  0.79006  0.80628  1
 H  H14  1  0.37966  0.31594  0.25707  1
 H  H15  1  0.62034  0.68406  0.74293  1
 H  H16  1  0.73963  0.45136  0.06316  1
 H  H17  1  0.33686  0.36466  0.10231  1
 H  H18  1  0.26037  0.54864  0.93684  1
 H  H19  1  0.43986  0.83501  0.13907  1
 H  H20  1  0.56014  0.16499  0.86093  1
 H  H21  1  0.58739  0.68239  0.24324  1
 H  H22  1  0.41261  0.31761  0.75676  1
 H  H23  1  0.23866  0.25734  0.90306  1
 H  H24  1  0.76134  0.74266  0.09694  1
 N  N1  1  0.77460  0.97436  0.38291  1
 N  N2  1  0.74423  0.66848  0.80086  1
 N  N3  1  0.40228  0.28279  0.85716  1
 N  N4  1  0.59772  0.71721  0.14284  1
 N  N5  1  0.22540  0.02564  0.61709  1
 N  N6  1  0.25577  0.33152  0.19914  1
 O  O1  1  0.03663  0.49443  0.24791  1
 O  O2  1  -0.03663  0.50557  0.75209  1
 O  O3  1  0.58447  0.56850  0.06952  1
 O  O4  1  0.41553  0.43150  -0.06952  1
 O  O5  1  0.80131  0.92810  0.51492  1
 O  O6  1  0.19869  0.07190  0.48508  1
