CIF file written using JARVIS-Tools package.
data_YBr3
_symmetry_space_group_name_H-M  'C2/m'
_cell_length_a       7.07222
_cell_length_b       7.07222
_cell_length_c       6.77949
_cell_angle_alpha    79.9152
_cell_angle_beta     100.085
_cell_angle_gamma    60.1374

_symmetry_Int_Tables_number  12
_chemical_formula_structural  YBr3
_chemical_formula_sum  Y2Br6
_cell_volume  275.518776992591
_cell_formula_units_Z  2
loop_
  _symmetry_equiv_pos_site_id
 _symmetry_equiv_pos_as_xyz
 1  'x, y, z'
loop_
 _atom_site_type_symbol
 _atom_site_label
 _atom_site_symmetry_multiplicity
 _atom_site_fract_x
 _atom_site_fract_y
 _atom_site_fract_z
 _atom_site_fract_occupancy
 Br  Br1  1  0.07076  0.58285  0.75218  1
 Br  Br2  1  0.41715  0.92924  0.75218  1
 Br  Br3  1  0.23286  0.76714  0.25453  1
 Br  Br4  1  0.76714  0.23286  0.74547  1
 Br  Br5  1  0.58285  0.07076  0.24782  1
 Br  Br6  1  0.92924  0.41715  0.24782  1
 Y  Y1  1  0.16639  0.16639  0.00000  1
 Y  Y2  1  0.83361  0.83361  0.00000  1
