CIF file written using JARVIS-Tools package.
data_Mn3NiO4
_symmetry_space_group_name_H-M  'Cmmm'
_cell_length_a       3.07225
_cell_length_b       5.37416
_cell_length_c       5.37416
_cell_angle_alpha    68.5811
_cell_angle_beta     90
_cell_angle_gamma    90

_symmetry_Int_Tables_number  65
_chemical_formula_structural  Mn3NiO4
_chemical_formula_sum  Mn3NiO4
_cell_volume  82.60324663580242
_cell_formula_units_Z  1
loop_
  _symmetry_equiv_pos_site_id
 _symmetry_equiv_pos_as_xyz
 1  'x, y, z'
loop_
 _atom_site_type_symbol
 _atom_site_label
 _atom_site_symmetry_multiplicity
 _atom_site_fract_x
 _atom_site_fract_y
 _atom_site_fract_z
 _atom_site_fract_occupancy
 Mn  Mn1  1  0.00000  0.50000  0.50000  1
 Mn  Mn2  1  0.50000  0.00000  0.50000  1
 Mn  Mn3  1  0.50000  0.50000  0.00000  1
 Ni  Ni1  1  0.00000  0.00000  0.00000  1
 O  O1  1  0.00000  0.73682  0.73682  1
 O  O2  1  0.50000  0.24554  0.75446  1
 O  O3  1  0.50000  0.75446  0.24554  1
 O  O4  1  -0.00000  0.26318  0.26318  1
