CIF file written using JARVIS-Tools package.
data_BaPt2
_symmetry_space_group_name_H-M  'Fd-3m'
_cell_length_a       5.70634
_cell_length_b       5.70634
_cell_length_c       5.70633
_cell_angle_alpha    60
_cell_angle_beta     60
_cell_angle_gamma    59.9999

_symmetry_Int_Tables_number  227
_chemical_formula_structural  BaPt2
_chemical_formula_sum  Ba2Pt4
_cell_volume  131.3880311397624
_cell_formula_units_Z  2
loop_
  _symmetry_equiv_pos_site_id
 _symmetry_equiv_pos_as_xyz
 1  'x, y, z'
loop_
 _atom_site_type_symbol
 _atom_site_label
 _atom_site_symmetry_multiplicity
 _atom_site_fract_x
 _atom_site_fract_y
 _atom_site_fract_z
 _atom_site_fract_occupancy
 Ba  Ba1  1  0.87500  0.87500  0.87500  1
 Ba  Ba2  1  0.12500  0.12500  0.12500  1
 Pt  Pt1  1  0.50000  0.50000  0.50000  1
 Pt  Pt2  1  0.50000  0.50000  0.00000  1
 Pt  Pt3  1  0.00000  0.50000  0.50000  1
 Pt  Pt4  1  0.50000  0.00000  0.50000  1
