CIF file written using JARVIS-Tools package.
data_NiBiO3
_symmetry_space_group_name_H-M  'Pnma'
_cell_length_a       5.37162
_cell_length_b       5.55558
_cell_length_c       7.60625
_cell_angle_alpha    90.0003
_cell_angle_beta     89.9997
_cell_angle_gamma    89.9998

_symmetry_Int_Tables_number  62
_chemical_formula_structural  NiBiO3
_chemical_formula_sum  Ni4Bi4O2
_cell_volume  226.98850685405736
_cell_formula_units_Z  4
loop_
  _symmetry_equiv_pos_site_id
 _symmetry_equiv_pos_as_xyz
 1  'x, y, z'
loop_
 _atom_site_type_symbol
 _atom_site_label
 _atom_site_symmetry_multiplicity
 _atom_site_fract_x
 _atom_site_fract_y
 _atom_site_fract_z
 _atom_site_fract_occupancy
 Bi  Bi1  1  0.99108  0.05659  0.75001  1
 Bi  Bi2  1  0.49108  0.44341  0.25001  1
 Bi  Bi3  1  0.50892  0.55659  0.74999  1
 Bi  Bi4  1  0.00892  0.94341  0.24999  1
 Ni  Ni1  1  0.50000  0.00000  -0.00000  1
 Ni  Ni2  1  -0.00000  0.50000  0.00000  1
 Ni  Ni3  1  0.50000  0.00000  0.50000  1
 Ni  Ni4  1  0.00000  0.50000  0.50000  1
 O  O1  1  0.29736  0.70599  0.46065  1
 O  O2  1  0.20266  0.20600  0.46063  1
 O  O3  1  0.79734  0.79400  0.53937  1
 O  O4  1  0.29734  0.70600  0.03937  1
 O  O5  1  0.70266  0.29400  0.96063  1
 O  O6  1  0.58238  0.02261  0.25000  1
 O  O7  1  0.20265  0.20599  0.03935  1
 O  O8  1  0.70264  0.29401  0.53935  1
 O  O9  1  0.08238  0.47739  0.75000  1
 O  O10  1  0.41762  0.97739  0.75000  1
 O  O11  1  0.79735  0.79401  0.96065  1
 O  O12  1  0.91762  0.52261  0.25000  1
