CIF file written using JARVIS-Tools package.
data_FeF3
_symmetry_space_group_name_H-M  'R-3c'
_cell_length_a       5.37338
_cell_length_b       5.37338
_cell_length_c       5.37338
_cell_angle_alpha    55.4206
_cell_angle_beta     55.4206
_cell_angle_gamma    55.4205

_symmetry_Int_Tables_number  167
_chemical_formula_structural  FeF3
_chemical_formula_sum  Fe2F6
_cell_volume  98.03712824784695
_cell_formula_units_Z  2
loop_
  _symmetry_equiv_pos_site_id
 _symmetry_equiv_pos_as_xyz
 1  'x, y, z'
loop_
 _atom_site_type_symbol
 _atom_site_label
 _atom_site_symmetry_multiplicity
 _atom_site_fract_x
 _atom_site_fract_y
 _atom_site_fract_z
 _atom_site_fract_occupancy
 F  F1  1  0.88525  0.25000  0.61475  1
 F  F2  1  0.25000  0.61475  0.88525  1
 F  F3  1  0.38525  0.11475  0.75000  1
 F  F4  1  0.75000  0.38525  0.11475  1
 F  F5  1  0.11475  0.75000  0.38525  1
 F  F6  1  0.61475  0.88525  0.25000  1
 Fe  Fe1  1  0.50000  0.50000  0.50000  1
 Fe  Fe2  1  0.00000  0.00000  0.00000  1
