CIF file written using JARVIS-Tools package.
data_Fe4O3F5
_symmetry_space_group_name_H-M  'P1'
_cell_length_a       4.77537
_cell_length_b       5.95741
_cell_length_c       9.9614
_cell_angle_alpha    107.236
_cell_angle_beta     93.2236
_cell_angle_gamma    89.8329

_symmetry_Int_Tables_number  1
_chemical_formula_structural  Fe4O3F5
_chemical_formula_sum  Fe8O6F0
_cell_volume  270.2085108213414
_cell_formula_units_Z  2
loop_
  _symmetry_equiv_pos_site_id
 _symmetry_equiv_pos_as_xyz
 1  'x, y, z'
loop_
 _atom_site_type_symbol
 _atom_site_label
 _atom_site_symmetry_multiplicity
 _atom_site_fract_x
 _atom_site_fract_y
 _atom_site_fract_z
 _atom_site_fract_occupancy
 F  F1  1  0.16902  0.70096  0.90921  1
 F  F2  1  0.21037  0.95210  0.40203  1
 F  F3  1  0.27574  0.06129  0.13909  1
 F  F4  1  0.72237  0.68659  0.35835  1
 F  F5  1  0.68848  0.43368  0.85481  1
 F  F6  1  0.79831  0.79753  0.10352  1
 F  F7  1  0.81232  0.05078  0.59821  1
 F  F8  1  0.79814  0.55173  0.60374  1
 F  F9  1  0.23239  0.44207  0.38691  1
 F  F10  1  0.18644  0.19955  0.89352  1
 Fe  Fe1  1  0.47934  0.63178  0.75174  1
 Fe  Fe2  1  0.00545  0.26233  0.49657  1
 Fe  Fe3  1  0.95027  0.01013  0.98926  1
 Fe  Fe4  1  0.02595  0.73734  0.50562  1
 Fe  Fe5  1  0.01895  0.49344  0.02431  1
 Fe  Fe6  1  0.48543  0.11708  0.73798  1
 Fe  Fe7  1  0.52969  0.36299  0.23837  1
 Fe  Fe8  1  0.50424  0.88602  0.25163  1
 O  O1  1  0.30464  0.81436  0.65042  1
 O  O2  1  0.78861  0.29691  0.10194  1
 O  O3  1  0.66859  0.91759  0.84623  1
 O  O4  1  0.30875  0.33915  0.65301  1
 O  O5  1  0.32747  0.57100  0.15960  1
 O  O6  1  0.70903  0.18359  0.34392  1
