CIF file written using JARVIS-Tools package.
data_Er2AlFe3
_symmetry_space_group_name_H-M  'R-3m'
_cell_length_a       5.15932
_cell_length_b       5.15932
_cell_length_c       5.12761
_cell_angle_alpha    90
_cell_angle_beta     59.7952
_cell_angle_gamma    120

_symmetry_Int_Tables_number  166
_chemical_formula_structural  Er2AlFe3
_chemical_formula_sum  Er2AlFe3
_cell_volume  96.21339005003657
_cell_formula_units_Z  1
loop_
  _symmetry_equiv_pos_site_id
 _symmetry_equiv_pos_as_xyz
 1  'x, y, z'
loop_
 _atom_site_type_symbol
 _atom_site_label
 _atom_site_symmetry_multiplicity
 _atom_site_fract_x
 _atom_site_fract_y
 _atom_site_fract_z
 _atom_site_fract_occupancy
 Al  Al1  1  0.75000  0.37500  0.87500  1
 Er  Er1  1  0.50500  0.75250  0.74250  1
 Er  Er2  1  0.99500  0.99750  0.00750  1
 Fe  Fe1  1  0.25000  0.37500  0.37500  1
 Fe  Fe2  1  0.25000  0.87500  0.37500  1
 Fe  Fe3  1  0.75000  0.37500  0.37500  1
