CIF file written using JARVIS-Tools package.
data_Sr2LiInGe2
_symmetry_space_group_name_H-M  'Pnma'
_cell_length_a       4.63196
_cell_length_b       7.49542
_cell_length_c       17.4985
_cell_angle_alpha    90
_cell_angle_beta     90
_cell_angle_gamma    90

_symmetry_Int_Tables_number  62
_chemical_formula_structural  Sr2LiInGe2
_chemical_formula_sum  Sr8Li4In4Ge8
_cell_volume  607.5235473021895
_cell_formula_units_Z  4
loop_
  _symmetry_equiv_pos_site_id
 _symmetry_equiv_pos_as_xyz
 1  'x, y, z'
loop_
 _atom_site_type_symbol
 _atom_site_label
 _atom_site_symmetry_multiplicity
 _atom_site_fract_x
 _atom_site_fract_y
 _atom_site_fract_z
 _atom_site_fract_occupancy
 Ge  Ge1  1  0.75000  0.21930  0.93589  1
 Ge  Ge2  1  0.25000  0.78070  0.06411  1
 Ge  Ge3  1  0.25000  0.21658  0.68523  1
 Ge  Ge4  1  0.25000  0.71658  0.81477  1
 Ge  Ge5  1  0.75000  0.28342  0.18523  1
 Ge  Ge6  1  0.75000  0.71930  0.56411  1
 Ge  Ge7  1  0.25000  0.28070  0.43589  1
 Ge  Ge8  1  0.75000  0.78342  0.31477  1
 In  In1  1  0.25000  0.83280  0.65299  1
 In  In2  1  0.75000  0.16720  0.34701  1
 In  In3  1  0.25000  0.33280  0.84701  1
 In  In4  1  0.75000  0.66720  0.15299  1
 Li  Li1  1  0.75000  0.01462  0.06768  1
 Li  Li2  1  0.25000  0.98538  0.93232  1
 Li  Li3  1  0.75000  0.51462  0.43232  1
 Li  Li4  1  0.25000  0.48538  0.56768  1
 Sr  Sr1  1  0.25000  0.49752  0.27798  1
 Sr  Sr2  1  0.25000  -0.00248  0.22202  1
 Sr  Sr3  1  0.75000  0.15604  0.56063  1
 Sr  Sr4  1  0.75000  0.50248  0.72202  1
 Sr  Sr5  1  0.75000  0.00248  0.77798  1
 Sr  Sr6  1  0.75000  0.65604  0.93937  1
 Sr  Sr7  1  0.25000  0.34396  0.06063  1
 Sr  Sr8  1  0.25000  0.84396  0.43937  1
