CIF file written using JARVIS-Tools package.
data_VIr
_symmetry_space_group_name_H-M  'Cmmm'
_cell_length_a       3.95593
_cell_length_b       5.31769
_cell_length_c       5.31769
_cell_angle_alpha    94.083
_cell_angle_beta     90
_cell_angle_gamma    90

_symmetry_Int_Tables_number  65
_chemical_formula_structural  VIr
_chemical_formula_sum  V4Ir4
_cell_volume  111.58117780645193
_cell_formula_units_Z  4
loop_
  _symmetry_equiv_pos_site_id
 _symmetry_equiv_pos_as_xyz
 1  'x, y, z'
loop_
 _atom_site_type_symbol
 _atom_site_label
 _atom_site_symmetry_multiplicity
 _atom_site_fract_x
 _atom_site_fract_y
 _atom_site_fract_z
 _atom_site_fract_occupancy
 Ir  Ir1  1  0.00000  -0.00000  0.50000  1
 Ir  Ir2  1  0.00000  0.50000  -0.00000  1
 Ir  Ir3  1  0.50000  0.72778  0.72778  1
 Ir  Ir4  1  0.50000  0.27222  0.27222  1
 V  V1  1  0.00000  0.00000  0.00000  1
 V  V2  1  0.00000  0.50000  0.50000  1
 V  V3  1  0.50000  0.21925  0.78075  1
 V  V4  1  0.50000  0.78075  0.21925  1
