CIF file written using JARVIS-Tools package.
data_MnAs
_symmetry_space_group_name_H-M  'Pnma'
_cell_length_a       3.43943
_cell_length_b       5.57687
_cell_length_c       6.03149
_cell_angle_alpha    90.001
_cell_angle_beta     90.0001
_cell_angle_gamma    90.0001

_symmetry_Int_Tables_number  62
_chemical_formula_structural  MnAs
_chemical_formula_sum  Mn4As4
_cell_volume  115.69159920791502
_cell_formula_units_Z  4
loop_
  _symmetry_equiv_pos_site_id
 _symmetry_equiv_pos_as_xyz
 1  'x, y, z'
loop_
 _atom_site_type_symbol
 _atom_site_label
 _atom_site_symmetry_multiplicity
 _atom_site_fract_x
 _atom_site_fract_y
 _atom_site_fract_z
 _atom_site_fract_occupancy
 As  As1  1  0.25000  0.79995  0.58268  1
 As  As2  1  0.75000  0.70005  0.08268  1
 As  As3  1  0.25000  0.29996  0.91732  1
 As  As4  1  0.75000  0.20004  0.41732  1
 Mn  Mn1  1  0.75000  0.00317  0.80884  1
 Mn  Mn2  1  0.25000  0.99683  0.19117  1
 Mn  Mn3  1  0.25000  0.49684  0.30884  1
 Mn  Mn4  1  0.75000  0.50316  0.69116  1
