CIF file written using JARVIS-Tools package.
data_MnAs2O6
_symmetry_space_group_name_H-M  'P-31m'
_cell_length_a       4.88459
_cell_length_b       4.88459
_cell_length_c       4.66503
_cell_angle_alpha    90
_cell_angle_beta     90
_cell_angle_gamma    120

_symmetry_Int_Tables_number  162
_chemical_formula_structural  MnAs2O6
_chemical_formula_sum  MnAs2O6
_cell_volume  96.39230031671018
_cell_formula_units_Z  1
loop_
  _symmetry_equiv_pos_site_id
 _symmetry_equiv_pos_as_xyz
 1  'x, y, z'
loop_
 _atom_site_type_symbol
 _atom_site_label
 _atom_site_symmetry_multiplicity
 _atom_site_fract_x
 _atom_site_fract_y
 _atom_site_fract_z
 _atom_site_fract_occupancy
 As  As1  1  0.33333  0.66667  0.50000  1
 As  As2  1  0.66667  0.33333  0.50000  1
 Mn  Mn1  1  0.00000  0.00000  0.00000  1
 O  O1  1  0.36568  0.00000  0.27835  1
 O  O2  1  0.00000  0.36568  0.27835  1
 O  O3  1  0.63432  0.63432  0.27835  1
 O  O4  1  -0.00000  0.63432  0.72165  1
 O  O5  1  0.63432  -0.00000  0.72165  1
 O  O6  1  0.36568  0.36568  0.72165  1
