CIF file written using JARVIS-Tools package.
data_BaSc2Ta
_symmetry_space_group_name_H-M  'Pmm2'
_cell_length_a       3.3332
_cell_length_b       4.23727
_cell_length_c       8.04571
_cell_angle_alpha    90
_cell_angle_beta     90
_cell_angle_gamma    90

_symmetry_Int_Tables_number  25
_chemical_formula_structural  BaSc2Ta
_chemical_formula_sum  BaSc2Ta
_cell_volume  113.63488633526222
_cell_formula_units_Z  1
loop_
  _symmetry_equiv_pos_site_id
 _symmetry_equiv_pos_as_xyz
 1  'x, y, z'
loop_
 _atom_site_type_symbol
 _atom_site_label
 _atom_site_symmetry_multiplicity
 _atom_site_fract_x
 _atom_site_fract_y
 _atom_site_fract_z
 _atom_site_fract_occupancy
 Ba  Ba1  1  0.50000  0.50000  0.72240  1
 Sc  Sc1  1  0.00000  0.00000  0.07427  1
 Sc  Sc2  1  0.50000  0.50000  0.27777  1
 Ta  Ta1  1  0.00000  0.00000  0.42556  1
