CIF file written using JARVIS-Tools package.
data_SrHfMg6
_symmetry_space_group_name_H-M  'P4/mmm'
_cell_length_a       6.58307
_cell_length_b       9.30811
_cell_length_c       4.66433
_cell_angle_alpha    90
_cell_angle_beta     90
_cell_angle_gamma    134.989

_symmetry_Int_Tables_number  123
_chemical_formula_structural  SrHfMg6
_chemical_formula_sum  SrHfMg6
_cell_volume  202.1370001996612
_cell_formula_units_Z  1
loop_
  _symmetry_equiv_pos_site_id
 _symmetry_equiv_pos_as_xyz
 1  'x, y, z'
loop_
 _atom_site_type_symbol
 _atom_site_label
 _atom_site_symmetry_multiplicity
 _atom_site_fract_x
 _atom_site_fract_y
 _atom_site_fract_z
 _atom_site_fract_occupancy
 Hf  Hf1  1  0.25002  0.87501  0.25000  1
 Mg  Mg1  1  0.75003  0.37503  0.25000  1
 Mg  Mg2  1  0.75003  0.87499  0.25000  1
 Mg  Mg3  1  0.25000  0.10397  0.75000  1
 Mg  Mg4  1  0.25000  0.64603  0.75000  1
 Mg  Mg5  1  0.70795  0.10397  0.75000  1
 Mg  Mg6  1  0.79200  0.64600  0.75000  1
 Sr  Sr1  1  0.24998  0.37499  0.25000  1
