CIF file written using JARVIS-Tools package.
data_P2H16N4O7
_symmetry_space_group_name_H-M  'C2/c'
_cell_length_a       6.71406
_cell_length_b       6.71406
_cell_length_c       13.6188
_cell_angle_alpha    77.1121
_cell_angle_beta     102.888
_cell_angle_gamma    121.989

_symmetry_Int_Tables_number  15
_chemical_formula_structural  P2H16N4O7
_chemical_formula_sum  P4H32N8O4
_cell_volume  503.4716183304096
_cell_formula_units_Z  2
loop_
  _symmetry_equiv_pos_site_id
 _symmetry_equiv_pos_as_xyz
 1  'x, y, z'
loop_
 _atom_site_type_symbol
 _atom_site_label
 _atom_site_symmetry_multiplicity
 _atom_site_fract_x
 _atom_site_fract_y
 _atom_site_fract_z
 _atom_site_fract_occupancy
 H  H1  1  0.49511  0.86859  0.32692  1
 H  H2  1  0.42152  0.77816  0.44993  1
 H  H3  1  0.53608  0.95644  0.61291  1
 H  H4  1  0.95644  0.53608  0.88709  1
 H  H5  1  0.04356  0.46392  0.11291  1
 H  H6  1  0.50489  0.13141  0.67308  1
 H  H7  1  0.13141  0.50489  0.82692  1
 H  H8  1  0.86815  0.74934  0.52521  1
 H  H9  1  0.77816  0.42152  0.05007  1
 H  H10  1  0.77871  0.22175  0.65014  1
 H  H11  1  0.22175  0.77871  0.84986  1
 H  H12  1  0.22129  0.77825  0.34986  1
 H  H13  1  0.77825  0.22129  0.15014  1
 H  H14  1  0.57848  0.22184  0.55007  1
 H  H15  1  0.22184  0.57848  0.94993  1
 H  H16  1  0.86859  0.49511  0.17308  1
 H  H17  1  0.96308  0.64355  0.64154  1
 H  H18  1  0.46392  0.04356  0.38709  1
 H  H19  1  0.30850  0.27271  0.12381  1
 H  H20  1  0.74934  0.86815  0.97479  1
 H  H21  1  0.35645  0.03692  0.14154  1
 H  H22  1  0.00604  0.92760  0.61882  1
 H  H23  1  0.92760  0.00604  0.88118  1
 H  H24  1  0.99396  0.07240  0.38118  1
 H  H25  1  0.07240  0.99396  0.11882  1
 H  H26  1  0.03692  0.35645  0.35846  1
 H  H27  1  0.64355  0.96308  0.85846  1
 H  H28  1  0.25066  0.13185  0.02521  1
 H  H29  1  0.72729  0.69150  0.62381  1
 H  H30  1  0.69150  0.72729  0.87619  1
 H  H31  1  0.27271  0.30850  0.37619  1
 H  H32  1  0.13185  0.25066  0.47479  1
 N  N1  1  0.86688  0.40119  0.12146  1
 N  N2  1  0.59881  0.13312  0.62146  1
 N  N3  1  0.13312  0.59881  0.87854  1
 N  N4  1  0.40119  0.86688  0.37854  1
 N  N5  1  0.89202  0.75099  0.60438  1
 N  N6  1  0.24901  0.10798  0.10438  1
 N  N7  1  0.10798  0.24901  0.39562  1
 N  N8  1  0.75099  0.89202  0.89562  1
 O  O1  1  0.93255  0.55300  0.30838  1
 O  O2  1  0.46260  0.46260  0.75000  1
 O  O3  1  0.53740  0.53740  0.25000  1
 O  O4  1  0.17804  0.22577  0.60448  1
 O  O5  1  0.41236  0.67612  0.58334  1
 O  O6  1  0.22577  0.17804  0.89552  1
 O  O7  1  0.77423  0.82196  0.10448  1
 O  O8  1  0.67612  0.41236  0.91666  1
 O  O9  1  0.55300  0.93255  0.19162  1
 O  O10  1  0.32388  0.58764  0.08334  1
 O  O11  1  0.06745  0.44700  0.69162  1
 O  O12  1  0.44700  0.06745  0.80838  1
 O  O13  1  0.82196  0.77423  0.39552  1
 O  O14  1  0.58764  0.32388  0.41666  1
 P  P1  1  0.55107  0.73574  0.15127  1
 P  P2  1  0.73574  0.55107  0.34873  1
 P  P3  1  0.44893  0.26426  0.84873  1
 P  P4  1  0.26426  0.44893  0.65127  1
