CIF file written using JARVIS-Tools package.
data_Li2MnO2F
_symmetry_space_group_name_H-M  'C2/c'
_cell_length_a       5.04355
_cell_length_b       5.04355
_cell_length_c       9.66991
_cell_angle_alpha    86.983
_cell_angle_beta     93.017
_cell_angle_gamma    63.7133

_symmetry_Int_Tables_number  15
_chemical_formula_structural  Li2MnO2F
_chemical_formula_sum  Li8Mn4O8F4
_cell_volume  219.44178336149773
_cell_formula_units_Z  4
loop_
  _symmetry_equiv_pos_site_id
 _symmetry_equiv_pos_as_xyz
 1  'x, y, z'
loop_
 _atom_site_type_symbol
 _atom_site_label
 _atom_site_symmetry_multiplicity
 _atom_site_fract_x
 _atom_site_fract_y
 _atom_site_fract_z
 _atom_site_fract_occupancy
 F  F1  1  0.72333  0.43772  0.12627  1
 F  F2  1  0.27667  0.56228  0.87373  1
 F  F3  1  0.56228  0.27667  0.62627  1
 F  F4  1  0.43772  0.72333  0.37373  1
 Li  Li1  1  0.50000  -0.00000  0.50000  1
 Li  Li2  1  0.77337  0.77337  0.25000  1
 Li  Li3  1  0.59216  0.59216  0.75000  1
 Li  Li4  1  0.09021  0.09021  0.25000  1
 Li  Li5  1  0.90979  0.90979  0.75000  1
 Li  Li6  1  0.22663  0.22663  0.75000  1
 Li  Li7  1  0.40784  0.40784  0.25000  1
 Li  Li8  1  0.00000  0.50000  -0.00000  1
 Mn  Mn1  1  0.31315  0.86306  -0.00003  1
 Mn  Mn2  1  0.13694  0.68685  0.49997  1
 Mn  Mn3  1  0.68685  0.13694  0.00003  1
 Mn  Mn4  1  0.86306  0.31315  0.50003  1
 O  O1  1  0.59371  0.89494  0.88084  1
 O  O2  1  0.06461  0.79553  0.11791  1
 O  O3  1  0.89494  0.59371  0.61916  1
 O  O4  1  0.93539  0.20447  0.88209  1
 O  O5  1  0.40629  0.10506  0.11916  1
 O  O6  1  0.79553  0.06461  0.38209  1
 O  O7  1  0.20447  0.93539  0.61791  1
 O  O8  1  0.10506  0.40629  0.38084  1
