CIF file written using JARVIS-Tools package.
data_Pr3RuCl3
_symmetry_space_group_name_H-M  'Pnma'
_cell_length_a       4.11778
_cell_length_b       12.3223
_cell_length_c       14.2687
_cell_angle_alpha    90
_cell_angle_beta     90
_cell_angle_gamma    90

_symmetry_Int_Tables_number  62
_chemical_formula_structural  Pr3RuCl3
_chemical_formula_sum  Pr2Ru4Cl2
_cell_volume  724.0052492924979
_cell_formula_units_Z  4
loop_
  _symmetry_equiv_pos_site_id
 _symmetry_equiv_pos_as_xyz
 1  'x, y, z'
loop_
 _atom_site_type_symbol
 _atom_site_label
 _atom_site_symmetry_multiplicity
 _atom_site_fract_x
 _atom_site_fract_y
 _atom_site_fract_z
 _atom_site_fract_occupancy
 Cl  Cl1  1  0.25000  0.78490  0.76469  1
 Cl  Cl2  1  0.75000  0.56321  0.70961  1
 Cl  Cl3  1  0.75000  0.28490  0.73531  1
 Cl  Cl4  1  0.25000  0.71510  0.26469  1
 Cl  Cl5  1  0.25000  0.06321  0.79039  1
 Cl  Cl6  1  0.75000  0.21510  0.23531  1
 Cl  Cl7  1  0.75000  0.59766  0.45286  1
 Cl  Cl8  1  0.75000  0.93679  0.20961  1
 Cl  Cl9  1  0.25000  0.40234  0.54714  1
 Cl  Cl10  1  0.25000  0.09766  0.04714  1
 Cl  Cl11  1  0.75000  0.90234  0.95286  1
 Cl  Cl12  1  0.25000  0.43679  0.29039  1
 Pr  Pr1  1  0.25000  0.83450  0.08674  1
 Pr  Pr2  1  0.25000  0.32543  0.10361  1
 Pr  Pr3  1  0.75000  0.67457  0.89639  1
 Pr  Pr4  1  0.75000  0.33450  0.41326  1
 Pr  Pr5  1  0.25000  0.17457  0.60361  1
 Pr  Pr6  1  0.25000  0.66550  0.58674  1
 Pr  Pr7  1  0.75000  0.57900  0.14276  1
 Pr  Pr8  1  0.75000  0.82543  0.39639  1
 Pr  Pr9  1  0.75000  0.16550  0.91326  1
 Pr  Pr10  1  0.75000  0.92100  0.64276  1
 Pr  Pr11  1  0.25000  0.07900  0.35724  1
 Pr  Pr12  1  0.25000  0.42100  0.85724  1
 Ru  Ru1  1  0.75000  0.40122  0.98713  1
 Ru  Ru2  1  0.25000  0.90122  0.51287  1
 Ru  Ru3  1  0.75000  0.09878  0.48713  1
 Ru  Ru4  1  0.25000  0.59878  0.01287  1
