CIF file written using JARVIS-Tools package.
data_CuPb2Cl2O4
_symmetry_space_group_name_H-M  'P4mm'
_cell_length_a       5.58633
_cell_length_b       5.55053
_cell_length_c       5.55053
_cell_angle_alpha    90
_cell_angle_beta     90
_cell_angle_gamma    90

_symmetry_Int_Tables_number  99
_chemical_formula_structural  CuPb2Cl2O4
_chemical_formula_sum  CuPb2Cl2O4
_cell_volume  172.1060617445279
_cell_formula_units_Z  1
loop_
  _symmetry_equiv_pos_site_id
 _symmetry_equiv_pos_as_xyz
 1  'x, y, z'
loop_
 _atom_site_type_symbol
 _atom_site_label
 _atom_site_symmetry_multiplicity
 _atom_site_fract_x
 _atom_site_fract_y
 _atom_site_fract_z
 _atom_site_fract_occupancy
 Cl  Cl1  1  0.76228  0.00000  0.00000  1
 Cl  Cl2  1  0.79848  0.50000  0.50000  1
 Cu  Cu1  1  0.30627  0.00000  0.00000  1
 O  O1  1  0.26266  0.23243  0.76757  1
 O  O2  1  0.26266  0.76757  0.23243  1
 O  O3  1  0.26266  0.76757  0.76757  1
 O  O4  1  0.26266  0.23243  0.23243  1
 Pb  Pb1  1  0.06267  0.00000  0.50000  1
 Pb  Pb2  1  0.06267  0.50000  0.00000  1
