CIF file written using JARVIS-Tools package.
data_BaAlH5
_symmetry_space_group_name_H-M  'Pna2_1'
_cell_length_a       9.20735
_cell_length_b       7.04298
_cell_length_c       5.09418
_cell_angle_alpha    90
_cell_angle_beta     90
_cell_angle_gamma    90

_symmetry_Int_Tables_number  33
_chemical_formula_structural  BaAlH5
_chemical_formula_sum  Ba4Al4H20
_cell_volume  330.34355120210813
_cell_formula_units_Z  4
loop_
  _symmetry_equiv_pos_site_id
 _symmetry_equiv_pos_as_xyz
 1  'x, y, z'
loop_
 _atom_site_type_symbol
 _atom_site_label
 _atom_site_symmetry_multiplicity
 _atom_site_fract_x
 _atom_site_fract_y
 _atom_site_fract_z
 _atom_site_fract_occupancy
 Al  Al1  1  0.54095  0.65421  0.22898  1
 Al  Al2  1  0.45905  0.34579  0.72898  1
 Al  Al3  1  0.95905  0.15421  0.72898  1
 Al  Al4  1  0.04095  0.84579  0.22898  1
 Ba  Ba1  1  0.18601  0.34545  0.25400  1
 Ba  Ba2  1  0.81399  0.65455  0.75400  1
 Ba  Ba3  1  0.31399  0.84545  0.75400  1
 Ba  Ba4  1  0.68601  0.15455  0.25400  1
 H  H1  1  0.41627  0.15639  0.52383  1
 H  H2  1  0.29370  0.45603  0.71450  1
 H  H3  1  0.08373  0.65639  0.02383  1
 H  H4  1  0.50716  0.55131  0.90932  1
 H  H5  1  0.99284  0.05131  0.40932  1
 H  H6  1  0.49284  0.44869  0.40932  1
 H  H7  1  0.58373  0.84361  0.02383  1
 H  H8  1  0.00716  0.94869  0.90932  1
 H  H9  1  0.91627  0.34361  0.52383  1
 H  H10  1  0.20630  0.95603  0.21450  1
 H  H11  1  0.64065  0.30388  0.73446  1
 H  H12  1  0.42169  0.21192  0.00191  1
 H  H13  1  0.07831  0.71192  0.50191  1
 H  H14  1  0.35935  0.69612  0.23446  1
 H  H15  1  0.79370  0.04397  0.71450  1
 H  H16  1  0.14065  0.19612  0.73446  1
 H  H17  1  0.85935  0.80388  0.23446  1
 H  H18  1  0.57831  0.78808  0.50191  1
 H  H19  1  0.92169  0.28808  0.00191  1
 H  H20  1  0.70630  0.54397  0.21450  1
