CIF file written using JARVIS-Tools package.
data_C3N
_symmetry_space_group_name_H-M  'Cmmm'
_cell_length_a       3.35854
_cell_length_b       3.35854
_cell_length_c       4.73943
_cell_angle_alpha    90
_cell_angle_beta     90
_cell_angle_gamma    139.048

_symmetry_Int_Tables_number  65
_chemical_formula_structural  C3N
_chemical_formula_sum  C3N
_cell_volume  35.03876103175137
_cell_formula_units_Z  1
loop_
  _symmetry_equiv_pos_site_id
 _symmetry_equiv_pos_as_xyz
 1  'x, y, z'
loop_
 _atom_site_type_symbol
 _atom_site_label
 _atom_site_symmetry_multiplicity
 _atom_site_fract_x
 _atom_site_fract_y
 _atom_site_fract_z
 _atom_site_fract_occupancy
 C  C1  1  0.62501  0.37499  0.50000  1
 C  C2  1  0.62500  0.37500  0.22383  1
 C  C3  1  0.62500  0.37500  0.77617  1
 N  N1  1  0.12500  0.87500  0.00000  1
