CIF file written using JARVIS-Tools package.
data_ErNiGe2
_symmetry_space_group_name_H-M  'Cmcm'
_cell_length_a       4.19449
_cell_length_b       4.02736
_cell_length_c       8.61707
_cell_angle_alpha    103.514
_cell_angle_beta     90
_cell_angle_gamma    90

_symmetry_Int_Tables_number  63
_chemical_formula_structural  ErNiGe2
_chemical_formula_sum  Er2Ni2Ge4
_cell_volume  141.53548222151446
_cell_formula_units_Z  2
loop_
  _symmetry_equiv_pos_site_id
 _symmetry_equiv_pos_as_xyz
 1  'x, y, z'
loop_
 _atom_site_type_symbol
 _atom_site_label
 _atom_site_symmetry_multiplicity
 _atom_site_fract_x
 _atom_site_fract_y
 _atom_site_fract_z
 _atom_site_fract_occupancy
 Er  Er1  1  0.75000  0.10801  0.21602  1
 Er  Er2  1  0.25000  0.89199  0.78398  1
 Ge  Ge1  1  0.75000  0.45974  0.91949  1
 Ge  Ge2  1  0.25000  0.54026  0.08051  1
 Ge  Ge3  1  0.75000  0.74729  0.49458  1
 Ge  Ge4  1  0.25000  0.25271  0.50542  1
 Ni  Ni1  1  0.75000  0.32344  0.64688  1
 Ni  Ni2  1  0.25000  0.67656  0.35312  1
