CIF file written using JARVIS-Tools package.
data_Mn2Cd3O5
_symmetry_space_group_name_H-M  'C2/m'
_cell_length_a       4.67494
_cell_length_b       5.64169
_cell_length_c       5.72086
_cell_angle_alpha    80.0878
_cell_angle_beta     114.116
_cell_angle_gamma    114.475

_symmetry_Int_Tables_number  12
_chemical_formula_structural  Mn2Cd3O5
_chemical_formula_sum  Mn2Cd3O5
_cell_volume  125.33995097510427
_cell_formula_units_Z  1
loop_
  _symmetry_equiv_pos_site_id
 _symmetry_equiv_pos_as_xyz
 1  'x, y, z'
loop_
 _atom_site_type_symbol
 _atom_site_label
 _atom_site_symmetry_multiplicity
 _atom_site_fract_x
 _atom_site_fract_y
 _atom_site_fract_z
 _atom_site_fract_occupancy
 Cd  Cd1  1  0.80112  0.20145  0.40202  1
 Cd  Cd2  1  0.40389  0.60921  0.19978  1
 Cd  Cd3  1  0.19838  0.79371  0.60427  1
 Mn  Mn1  1  0.00208  0.00486  -0.00001  1
 Mn  Mn2  1  0.60077  0.39806  0.80409  1
 O  O1  1  0.30092  0.20141  0.40193  1
 O  O2  1  0.89810  0.62666  0.17103  1
 O  O3  1  0.50984  0.03089  0.99147  1
 O  O4  1  0.70387  0.77621  0.63301  1
 O  O5  1  0.09090  0.37203  0.81253  1
