CIF file written using JARVIS-Tools package.
data_Ce2Ge3O9
_symmetry_space_group_name_H-M  'P-1'
_cell_length_a       7.7508
_cell_length_b       8.77828
_cell_length_c       8.84478
_cell_angle_alpha    38.1794
_cell_angle_beta     108.583
_cell_angle_gamma    107.805

_symmetry_Int_Tables_number  2
_chemical_formula_structural  Ce2Ge3O9
_chemical_formula_sum  Ce4Ge6O8
_cell_volume  351.01410170582824
_cell_formula_units_Z  2
loop_
  _symmetry_equiv_pos_site_id
 _symmetry_equiv_pos_as_xyz
 1  'x, y, z'
loop_
 _atom_site_type_symbol
 _atom_site_label
 _atom_site_symmetry_multiplicity
 _atom_site_fract_x
 _atom_site_fract_y
 _atom_site_fract_z
 _atom_site_fract_occupancy
 Ce  Ce1  1  0.80308  0.91373  0.87063  1
 Ce  Ce2  1  0.19692  0.08627  0.12937  1
 Ce  Ce3  1  0.81529  0.22692  0.18738  1
 Ce  Ce4  1  0.18471  0.77308  0.81262  1
 Ge  Ge1  1  0.92652  0.57603  0.57267  1
 Ge  Ge2  1  0.51442  0.76465  0.23865  1
 Ge  Ge3  1  0.48558  0.23535  0.76135  1
 Ge  Ge4  1  0.07348  0.42397  0.42733  1
 Ge  Ge5  1  0.49055  0.32313  0.33517  1
 Ge  Ge6  1  0.50945  0.67687  0.66483  1
 O  O1  1  0.47684  0.35028  0.87219  1
 O  O2  1  0.00831  0.28910  0.71256  1
 O  O3  1  0.99169  0.71090  0.28744  1
 O  O4  1  0.67831  0.03822  0.01018  1
 O  O5  1  0.70731  0.66774  0.83462  1
 O  O6  1  0.67237  0.51236  0.53455  1
 O  O7  1  0.32763  0.48764  0.46545  1
 O  O8  1  0.32169  0.96178  0.98982  1
 O  O9  1  0.46247  0.11388  0.64793  1
 O  O10  1  0.98879  0.42646  0.88147  1
 O  O11  1  0.01121  0.57354  0.11853  1
 O  O12  1  0.53753  0.88612  0.35207  1
 O  O13  1  0.52316  0.64972  0.12781  1
 O  O14  1  0.03089  0.11021  0.58085  1
 O  O15  1  0.96911  0.88979  0.41915  1
 O  O16  1  0.68902  0.21326  0.40656  1
 O  O17  1  0.31098  0.78674  0.59344  1
 O  O18  1  0.29269  0.33226  0.16538  1
