CIF file written using JARVIS-Tools package.
data_BeNb4W
_symmetry_space_group_name_H-M  'F-43m'
_cell_length_a       5.33348
_cell_length_b       5.33348
_cell_length_c       5.33348
_cell_angle_alpha    60
_cell_angle_beta     60
_cell_angle_gamma    60

_symmetry_Int_Tables_number  216
_chemical_formula_structural  BeNb4W
_chemical_formula_sum  BeNb4W
_cell_volume  107.27927300732851
_cell_formula_units_Z  1
loop_
  _symmetry_equiv_pos_site_id
 _symmetry_equiv_pos_as_xyz
 1  'x, y, z'
loop_
 _atom_site_type_symbol
 _atom_site_label
 _atom_site_symmetry_multiplicity
 _atom_site_fract_x
 _atom_site_fract_y
 _atom_site_fract_z
 _atom_site_fract_occupancy
 Be  Be1  1  0.00000  0.00000  0.00000  1
 Nb  Nb1  1  0.12693  0.62436  0.62436  1
 Nb  Nb2  1  0.62436  0.62436  0.62436  1
 Nb  Nb3  1  0.62436  0.12693  0.62436  1
 Nb  Nb4  1  0.62436  0.62436  0.12693  1
 W  W1  1  0.25000  0.25000  0.25000  1
