CIF file written using JARVIS-Tools package.
data_FeNiP
_symmetry_space_group_name_H-M  'P-62m'
_cell_length_a       3.42292
_cell_length_b       5.80011
_cell_length_c       5.80022
_cell_angle_alpha    119.999
_cell_angle_beta     90
_cell_angle_gamma    90

_symmetry_Int_Tables_number  189
_chemical_formula_structural  FeNiP
_chemical_formula_sum  Fe3Ni3P3
_cell_volume  99.72667948365302
_cell_formula_units_Z  3
loop_
  _symmetry_equiv_pos_site_id
 _symmetry_equiv_pos_as_xyz
 1  'x, y, z'
loop_
 _atom_site_type_symbol
 _atom_site_label
 _atom_site_symmetry_multiplicity
 _atom_site_fract_x
 _atom_site_fract_y
 _atom_site_fract_z
 _atom_site_fract_occupancy
 Fe  Fe1  1  0.50000  0.60051  -0.00000  1
 Fe  Fe2  1  0.50000  0.39948  0.39945  1
 Fe  Fe3  1  0.50000  0.00003  0.60055  1
 Ni  Ni1  1  0.00000  0.25836  -0.00000  1
 Ni  Ni2  1  0.00000  0.74159  0.74160  1
 Ni  Ni3  1  0.00000  -0.00001  0.25840  1
 P  P1  1  0.00000  0.33331  0.66667  1
 P  P2  1  0.00000  0.66664  0.33333  1
 P  P3  1  0.50000  -0.00002  -0.00000  1
