CIF file written using JARVIS-Tools package.
data_YZnPO
_symmetry_space_group_name_H-M  'R-3m'
_cell_length_a       10.4016
_cell_length_b       10.4016
_cell_length_c       10.4016
_cell_angle_alpha    21.5873
_cell_angle_beta     21.5873
_cell_angle_gamma    21.5874

_symmetry_Int_Tables_number  166
_chemical_formula_structural  YZnPO
_chemical_formula_sum  Y2Zn2P2O2
_cell_volume  133.48717635530193
_cell_formula_units_Z  2
loop_
  _symmetry_equiv_pos_site_id
 _symmetry_equiv_pos_as_xyz
 1  'x, y, z'
loop_
 _atom_site_type_symbol
 _atom_site_label
 _atom_site_symmetry_multiplicity
 _atom_site_fract_x
 _atom_site_fract_y
 _atom_site_fract_z
 _atom_site_fract_occupancy
 O  O1  1  0.69461  0.69461  0.69461  1
 O  O2  1  0.30539  0.30539  0.30539  1
 P  P1  1  0.11140  0.11140  0.11140  1
 P  P2  1  0.88860  0.88860  0.88860  1
 Y  Y1  1  0.62042  0.62042  0.62042  1
 Y  Y2  1  0.37958  0.37958  0.37958  1
 Zn  Zn1  1  0.80351  0.80351  0.80351  1
 Zn  Zn2  1  0.19649  0.19649  0.19649  1
