CIF file written using JARVIS-Tools package.
data_CaSiPd
_symmetry_space_group_name_H-M  'P2_1/c'
_cell_length_a       5.74514
_cell_length_b       5.88621
_cell_length_c       7.42697
_cell_angle_alpha    109.15
_cell_angle_beta     90
_cell_angle_gamma    90

_symmetry_Int_Tables_number  14
_chemical_formula_structural  CaSiPd
_chemical_formula_sum  Ca4Si4Pd4
_cell_volume  237.25937429959615
_cell_formula_units_Z  4
loop_
  _symmetry_equiv_pos_site_id
 _symmetry_equiv_pos_as_xyz
 1  'x, y, z'
loop_
 _atom_site_type_symbol
 _atom_site_label
 _atom_site_symmetry_multiplicity
 _atom_site_fract_x
 _atom_site_fract_y
 _atom_site_fract_z
 _atom_site_fract_occupancy
 Ca  Ca1  1  0.12772  0.32132  0.11610  1
 Ca  Ca2  1  0.37228  0.82132  0.61610  1
 Ca  Ca3  1  0.87228  0.67868  0.88390  1
 Ca  Ca4  1  0.62772  0.17868  0.38390  1
 Pd  Pd1  1  0.61106  0.57780  0.19119  1
 Pd  Pd2  1  0.38894  0.42220  0.80881  1
 Pd  Pd3  1  0.88894  0.07780  0.69119  1
 Pd  Pd4  1  0.11106  0.92220  0.30881  1
 Si  Si1  1  0.62037  0.17082  0.95730  1
 Si  Si2  1  0.37963  0.82918  0.04270  1
 Si  Si3  1  0.12037  0.32918  0.54270  1
 Si  Si4  1  0.87963  0.67082  0.45730  1
