CIF file written using JARVIS-Tools package.
data_ZrCl3
_symmetry_space_group_name_H-M  'P-1'
_cell_length_a       10.899
_cell_length_b       6.1874
_cell_length_c       6.96256
_cell_angle_alpha    64.1124
_cell_angle_beta     60.3552
_cell_angle_gamma    30.0978

_symmetry_Int_Tables_number  2
_chemical_formula_structural  ZrCl3
_chemical_formula_sum  Zr2Cl6
_cell_volume  204.59807160883966
_cell_formula_units_Z  2
loop_
  _symmetry_equiv_pos_site_id
 _symmetry_equiv_pos_as_xyz
 1  'x, y, z'
loop_
 _atom_site_type_symbol
 _atom_site_label
 _atom_site_symmetry_multiplicity
 _atom_site_fract_x
 _atom_site_fract_y
 _atom_site_fract_z
 _atom_site_fract_occupancy
 Cl  Cl1  1  0.07635  0.34613  0.76502  1
 Cl  Cl2  1  0.24722  0.66003  0.27343  1
 Cl  Cl3  1  0.42500  0.30825  0.76280  1
 Cl  Cl4  1  0.57500  0.69175  0.23720  1
 Cl  Cl5  1  0.75278  0.33997  0.72657  1
 Cl  Cl6  1  0.92365  0.65387  0.23498  1
 Zr  Zr1  1  0.35577  0.93207  -0.00057  1
 Zr  Zr2  1  0.64423  0.06793  0.00057  1
