CIF file written using JARVIS-Tools package.
data_KTlO
_symmetry_space_group_name_H-M  'C2/m'
_cell_length_a       3.65728
_cell_length_b       6.27744
_cell_length_c       6.67815
_cell_angle_alpha    106.576
_cell_angle_beta     105.892
_cell_angle_gamma    90

_symmetry_Int_Tables_number  12
_chemical_formula_structural  KTlO
_chemical_formula_sum  K2Tl2O2
_cell_volume  140.82295838706682
_cell_formula_units_Z  2
loop_
  _symmetry_equiv_pos_site_id
 _symmetry_equiv_pos_as_xyz
 1  'x, y, z'
loop_
 _atom_site_type_symbol
 _atom_site_label
 _atom_site_symmetry_multiplicity
 _atom_site_fract_x
 _atom_site_fract_y
 _atom_site_fract_z
 _atom_site_fract_occupancy
 K  K1  1  0.13022  0.34579  0.26044  1
 K  K2  1  0.86978  0.65421  0.73956  1
 O  O1  1  0.75068  0.22081  0.50135  1
 O  O2  1  0.24932  0.77919  0.49865  1
 Tl  Tl1  1  0.63425  0.84628  0.26849  1
 Tl  Tl2  1  0.36575  0.15372  0.73151  1
