CIF file written using JARVIS-Tools package.
data_La2MgCu2
_symmetry_space_group_name_H-M  'P4/mbm'
_cell_length_a       3.89896
_cell_length_b       7.90769
_cell_length_c       7.90769
_cell_angle_alpha    90
_cell_angle_beta     90
_cell_angle_gamma    90

_symmetry_Int_Tables_number  127
_chemical_formula_structural  La2MgCu2
_chemical_formula_sum  La4Mg2Cu4
_cell_volume  243.80838288699042
_cell_formula_units_Z  2
loop_
  _symmetry_equiv_pos_site_id
 _symmetry_equiv_pos_as_xyz
 1  'x, y, z'
loop_
 _atom_site_type_symbol
 _atom_site_label
 _atom_site_symmetry_multiplicity
 _atom_site_fract_x
 _atom_site_fract_y
 _atom_site_fract_z
 _atom_site_fract_occupancy
 Cu  Cu1  1  0.00000  0.62047  0.12047  1
 Cu  Cu2  1  0.00000  0.87953  0.62047  1
 Cu  Cu3  1  0.00000  0.37953  0.87953  1
 Cu  Cu4  1  0.00000  0.12047  0.37953  1
 La  La1  1  0.50000  0.82639  0.32639  1
 La  La2  1  0.50000  0.67361  0.82639  1
 La  La3  1  0.50000  0.32639  0.17361  1
 La  La4  1  0.50000  0.17361  0.67361  1
 Mg  Mg1  1  0.00000  0.50000  0.50000  1
 Mg  Mg2  1  0.00000  0.00000  0.00000  1
