CIF file written using JARVIS-Tools package.
data_KMnF4
_symmetry_space_group_name_H-M  'P2_1/c'
_cell_length_a       5.70864
_cell_length_b       7.69702
_cell_length_c       7.75494
_cell_angle_alpha    90
_cell_angle_beta     90.4263
_cell_angle_gamma    90

_symmetry_Int_Tables_number  14
_chemical_formula_structural  KMnF4
_chemical_formula_sum  K4Mn4F6
_cell_volume  340.73903217360055
_cell_formula_units_Z  4
loop_
  _symmetry_equiv_pos_site_id
 _symmetry_equiv_pos_as_xyz
 1  'x, y, z'
loop_
 _atom_site_type_symbol
 _atom_site_label
 _atom_site_symmetry_multiplicity
 _atom_site_fract_x
 _atom_site_fract_y
 _atom_site_fract_z
 _atom_site_fract_occupancy
 F  F1  1  0.90190  0.01983  0.26623  1
 F  F2  1  0.70653  0.07863  0.94381  1
 F  F3  1  0.29439  0.56485  0.93339  1
 F  F4  1  0.29439  0.93515  0.43339  1
 F  F5  1  0.29347  0.92137  0.05619  1
 F  F6  1  0.87773  0.76892  0.99913  1
 F  F7  1  0.12227  0.26892  0.50087  1
 F  F8  1  0.70561  0.43515  0.06661  1
 F  F9  1  0.87773  0.73108  0.49913  1
 F  F10  1  0.09810  0.98017  0.73377  1
 F  F11  1  0.70653  0.42137  0.44381  1
 F  F12  1  0.70561  0.06485  0.56661  1
 F  F13  1  0.09810  0.51983  0.23377  1
 F  F14  1  0.90190  0.48017  0.76623  1
 F  F15  1  0.29347  0.57863  0.55619  1
 F  F16  1  0.12227  0.23108  0.00087  1
 K  K1  1  0.51756  0.80534  0.75251  1
 K  K2  1  0.48244  0.30534  0.74749  1
 K  K3  1  0.48244  0.19466  0.24749  1
 K  K4  1  0.51756  0.69466  0.25251  1
 Mn  Mn1  1  0.00000  0.00000  0.00000  1
 Mn  Mn2  1  -0.00000  0.50000  0.50000  1
 Mn  Mn3  1  0.00000  0.50000  0.00000  1
 Mn  Mn4  1  -0.00000  0.00000  0.50000  1
