CIF file written using JARVIS-Tools package.
data_CeMn2Ge2
_symmetry_space_group_name_H-M  'I4/mmm'
_cell_length_a       4.07183
_cell_length_b       4.07183
_cell_length_c       5.85428
_cell_angle_alpha    110.351
_cell_angle_beta     110.351
_cell_angle_gamma    90

_symmetry_Int_Tables_number  139
_chemical_formula_structural  CeMn2Ge2
_chemical_formula_sum  CeMn2Ge2
_cell_volume  84.51256115329932
_cell_formula_units_Z  1
loop_
  _symmetry_equiv_pos_site_id
 _symmetry_equiv_pos_as_xyz
 1  'x, y, z'
loop_
 _atom_site_type_symbol
 _atom_site_label
 _atom_site_symmetry_multiplicity
 _atom_site_fract_x
 _atom_site_fract_y
 _atom_site_fract_z
 _atom_site_fract_occupancy
 Ce  Ce1  1  0.00000  0.00000  0.00000  1
 Ge  Ge1  1  0.63053  0.63053  0.26106  1
 Ge  Ge2  1  0.36947  0.36947  0.73894  1
 Mn  Mn1  1  0.25000  0.75000  0.50000  1
 Mn  Mn2  1  0.75000  0.25000  0.50000  1
