CIF file written using JARVIS-Tools package.
data_V4O7F5
_symmetry_space_group_name_H-M  'P2'
_cell_length_a       5.34932
_cell_length_b       5.17345
_cell_length_c       7.01435
_cell_angle_alpha    90
_cell_angle_beta     93.3198
_cell_angle_gamma    90

_symmetry_Int_Tables_number  3
_chemical_formula_structural  V4O7F5
_chemical_formula_sum  V4O7F5
_cell_volume  193.7925346758776
_cell_formula_units_Z  1
loop_
  _symmetry_equiv_pos_site_id
 _symmetry_equiv_pos_as_xyz
 1  'x, y, z'
loop_
 _atom_site_type_symbol
 _atom_site_label
 _atom_site_symmetry_multiplicity
 _atom_site_fract_x
 _atom_site_fract_y
 _atom_site_fract_z
 _atom_site_fract_occupancy
 F  F1  1  0.20337  0.31346  0.19761  1
 F  F2  1  0.79663  0.31346  0.80239  1
 F  F3  1  0.50000  0.62046  0.00000  1
 F  F4  1  0.18545  0.69633  0.70004  1
 F  F5  1  0.81455  0.69633  0.29996  1
 O  O1  1  -0.00000  0.08560  0.50000  1
 O  O2  1  0.30721  0.20843  0.80237  1
 O  O3  1  0.69279  0.20843  0.19763  1
 O  O4  1  0.50000  0.40937  0.50000  1
 O  O5  1  0.30584  0.81111  0.29810  1
 O  O6  1  0.69416  0.81111  0.70190  1
 O  O7  1  0.00000  0.93168  0.00000  1
 V  V1  1  0.46300  0.46516  0.74533  1
 V  V2  1  0.53700  0.46516  0.25467  1
 V  V3  1  0.94863  0.98196  0.74418  1
 V  V4  1  0.05137  0.98196  0.25582  1
