CIF file written using JARVIS-Tools package.
data_K4CO4
_symmetry_space_group_name_H-M  'Cm'
_cell_length_a       5.36766
_cell_length_b       5.36766
_cell_length_c       6.26999
_cell_angle_alpha    115.387
_cell_angle_beta     115.387
_cell_angle_gamma    89.9999

_symmetry_Int_Tables_number  8
_chemical_formula_structural  K4CO4
_chemical_formula_sum  K4CO4
_cell_volume  143.6582710112668
_cell_formula_units_Z  1
loop_
  _symmetry_equiv_pos_site_id
 _symmetry_equiv_pos_as_xyz
 1  'x, y, z'
loop_
 _atom_site_type_symbol
 _atom_site_label
 _atom_site_symmetry_multiplicity
 _atom_site_fract_x
 _atom_site_fract_y
 _atom_site_fract_z
 _atom_site_fract_occupancy
 C  C1  1  0.74501  0.74501  0.60479  1
 K  K1  1  0.29861  0.90430  0.31611  1
 K  K2  1  0.19245  0.19245  0.89320  1
 K  K3  1  0.58703  0.58703  0.89371  1
 K  K4  1  0.90430  0.29861  0.31611  1
 O  O1  1  0.67748  0.98437  0.77624  1
 O  O2  1  0.98437  0.67748  0.77624  1
 O  O3  1  0.81257  0.81257  0.43326  1
 O  O4  1  0.50574  0.50574  0.43338  1
