CIF file written using JARVIS-Tools package.
data_CuAs2O4
_symmetry_space_group_name_H-M  'P4_2/mbc'
_cell_length_a       8.67136
_cell_length_b       8.67136
_cell_length_c       5.63032
_cell_angle_alpha    90
_cell_angle_beta     90
_cell_angle_gamma    90

_symmetry_Int_Tables_number  135
_chemical_formula_structural  CuAs2O4
_chemical_formula_sum  Cu4As8O6
_cell_volume  423.35725358964976
_cell_formula_units_Z  4
loop_
  _symmetry_equiv_pos_site_id
 _symmetry_equiv_pos_as_xyz
 1  'x, y, z'
loop_
 _atom_site_type_symbol
 _atom_site_label
 _atom_site_symmetry_multiplicity
 _atom_site_fract_x
 _atom_site_fract_y
 _atom_site_fract_z
 _atom_site_fract_occupancy
 As  As1  1  0.84115  0.80004  0.00000  1
 As  As2  1  0.80004  0.15885  0.50000  1
 As  As3  1  0.15885  0.19996  0.00000  1
 As  As4  1  0.19996  0.84115  0.50000  1
 As  As5  1  0.30004  0.34115  0.50000  1
 As  As6  1  0.69996  0.65885  0.50000  1
 As  As7  1  0.65885  0.30004  0.00000  1
 As  As8  1  0.34115  0.69996  0.00000  1
 Cu  Cu1  1  0.50000  0.00000  0.25000  1
 Cu  Cu2  1  0.50000  0.00000  0.75000  1
 Cu  Cu3  1  0.00000  0.50000  0.75000  1
 Cu  Cu4  1  0.00000  0.50000  0.25000  1
 O  O1  1  0.20144  0.70144  0.75000  1
 O  O2  1  0.20144  0.70144  0.25000  1
 O  O3  1  0.59503  0.12567  0.50000  1
 O  O4  1  0.70144  0.79856  0.75000  1
 O  O5  1  0.29856  0.20144  0.75000  1
 O  O6  1  0.79856  0.29856  0.75000  1
 O  O7  1  0.79856  0.29856  0.25000  1
 O  O8  1  0.87433  0.59503  0.00000  1
 O  O9  1  0.37433  0.90497  0.00000  1
 O  O10  1  0.09503  0.37433  0.50000  1
 O  O11  1  0.90497  0.62567  0.50000  1
 O  O12  1  0.12567  0.40497  0.00000  1
 O  O13  1  0.29856  0.20144  0.25000  1
 O  O14  1  0.62567  0.09503  0.00000  1
 O  O15  1  0.70144  0.79856  0.25000  1
 O  O16  1  0.40497  0.87433  0.50000  1
