CIF file written using JARVIS-Tools package.
data_Ca3Au
_symmetry_space_group_name_H-M  'Pnma'
_cell_length_a       6.73889
_cell_length_b       7.80532
_cell_length_c       9.70004
_cell_angle_alpha    90
_cell_angle_beta     90
_cell_angle_gamma    90

_symmetry_Int_Tables_number  62
_chemical_formula_structural  Ca3Au
_chemical_formula_sum  Ca2Au4
_cell_volume  510.2146281578494
_cell_formula_units_Z  4
loop_
  _symmetry_equiv_pos_site_id
 _symmetry_equiv_pos_as_xyz
 1  'x, y, z'
loop_
 _atom_site_type_symbol
 _atom_site_label
 _atom_site_symmetry_multiplicity
 _atom_site_fract_x
 _atom_site_fract_y
 _atom_site_fract_z
 _atom_site_fract_occupancy
 Au  Au1  1  0.04754  0.37844  0.75000  1
 Au  Au2  1  0.54754  0.12156  0.25000  1
 Au  Au3  1  0.95246  0.62156  0.25000  1
 Au  Au4  1  0.45246  0.87844  0.75000  1
 Ca  Ca1  1  0.86293  0.03339  0.75000  1
 Ca  Ca2  1  0.36293  0.46661  0.25000  1
 Ca  Ca3  1  0.13707  0.96661  0.25000  1
 Ca  Ca4  1  0.63707  0.53339  0.75000  1
 Ca  Ca5  1  0.33822  0.17549  0.93781  1
 Ca  Ca6  1  0.83822  0.32451  0.06219  1
 Ca  Ca7  1  0.66178  0.82451  0.43781  1
 Ca  Ca8  1  0.16178  0.67549  0.56219  1
 Ca  Ca9  1  0.66178  0.82451  0.06219  1
 Ca  Ca10  1  0.16178  0.67549  0.93781  1
 Ca  Ca11  1  0.33822  0.17549  0.56219  1
 Ca  Ca12  1  0.83822  0.32451  0.43781  1
