CIF file written using JARVIS-Tools package.
data_KTlBr4
_symmetry_space_group_name_H-M  'Pnna'
_cell_length_a       7.9729
_cell_length_b       10.2685
_cell_length_c       10.4448
_cell_angle_alpha    90
_cell_angle_beta     90
_cell_angle_gamma    90

_symmetry_Int_Tables_number  52
_chemical_formula_structural  KTlBr4
_chemical_formula_sum  K4Tl4Br6
_cell_volume  855.1074660429283
_cell_formula_units_Z  4
loop_
  _symmetry_equiv_pos_site_id
 _symmetry_equiv_pos_as_xyz
 1  'x, y, z'
loop_
 _atom_site_type_symbol
 _atom_site_label
 _atom_site_symmetry_multiplicity
 _atom_site_fract_x
 _atom_site_fract_y
 _atom_site_fract_z
 _atom_site_fract_occupancy
 Br  Br1  1  0.13936  0.69845  0.46112  1
 Br  Br2  1  0.36064  0.19845  0.03888  1
 Br  Br3  1  0.36064  0.30155  0.46112  1
 Br  Br4  1  0.48980  0.04594  0.67487  1
 Br  Br5  1  0.48980  0.45406  0.82513  1
 Br  Br6  1  0.01020  0.54594  0.82513  1
 Br  Br7  1  0.01020  0.95406  0.67487  1
 Br  Br8  1  0.51020  0.95406  0.32513  1
 Br  Br9  1  0.51020  0.54594  0.17487  1
 Br  Br10  1  0.98980  0.45406  0.17487  1
 Br  Br11  1  0.98980  0.04594  0.32513  1
 Br  Br12  1  0.86064  0.19845  0.96112  1
 Br  Br13  1  0.86064  0.30155  0.53888  1
 Br  Br14  1  0.63936  0.69845  0.53888  1
 Br  Br15  1  0.63936  0.80155  0.96112  1
 Br  Br16  1  0.13936  0.80155  0.03888  1
 K  K1  1  0.67733  0.25000  0.25000  1
 K  K2  1  0.82267  0.75000  0.25000  1
 K  K3  1  0.32267  0.75000  0.75000  1
 K  K4  1  0.17733  0.25000  0.75000  1
 Tl  Tl1  1  0.25000  0.00000  0.17443  1
 Tl  Tl2  1  0.25000  0.50000  0.32557  1
 Tl  Tl3  1  0.75000  0.50000  0.67443  1
 Tl  Tl4  1  0.75000  0.00000  0.82557  1
