CIF file written using JARVIS-Tools package.
data_Co2O3F
_symmetry_space_group_name_H-M  'Amm2'
_cell_length_a       4.36866
_cell_length_b       4.36866
_cell_length_c       8.71447
_cell_angle_alpha    90
_cell_angle_beta     90
_cell_angle_gamma    92.8507

_symmetry_Int_Tables_number  38
_chemical_formula_structural  Co2O3F
_chemical_formula_sum  Co6O9F3
_cell_volume  166.11139915770025
_cell_formula_units_Z  3
loop_
  _symmetry_equiv_pos_site_id
 _symmetry_equiv_pos_as_xyz
 1  'x, y, z'
loop_
 _atom_site_type_symbol
 _atom_site_label
 _atom_site_symmetry_multiplicity
 _atom_site_fract_x
 _atom_site_fract_y
 _atom_site_fract_z
 _atom_site_fract_occupancy
 Co  Co1  1  0.00165  0.99835  -0.00065  1
 Co  Co2  1  0.00165  0.99835  0.33398  1
 Co  Co3  1  0.01467  0.98533  0.66667  1
 Co  Co4  1  0.52863  0.47137  0.16667  1
 Co  Co5  1  0.47757  0.52243  0.83288  1
 Co  Co6  1  0.47757  0.52243  0.50045  1
 F  F1  1  0.79090  0.20910  0.82756  1
 F  F2  1  0.21975  0.78025  0.16667  1
 F  F3  1  0.79090  0.20910  0.50578  1
 O  O1  1  0.68476  0.70808  0.66667  1
 O  O2  1  0.30985  0.29886  0.33422  1
 O  O3  1  0.30985  0.29886  -0.00089  1
 O  O4  1  0.19021  0.80979  0.50039  1
 O  O5  1  0.19021  0.80979  0.83294  1
 O  O6  1  0.29192  0.31524  0.66667  1
 O  O7  1  0.81762  0.18238  0.16667  1
 O  O8  1  0.70114  0.69015  0.33422  1
 O  O9  1  0.70114  0.69015  -0.00089  1
