CIF file written using JARVIS-Tools package.
data_BeTlRe4
_symmetry_space_group_name_H-M  'F-43m'
_cell_length_a       5.24543
_cell_length_b       5.24543
_cell_length_c       5.24543
_cell_angle_alpha    60
_cell_angle_beta     60
_cell_angle_gamma    60

_symmetry_Int_Tables_number  216
_chemical_formula_structural  BeTlRe4
_chemical_formula_sum  BeTlRe4
_cell_volume  102.0536667630302
_cell_formula_units_Z  1
loop_
  _symmetry_equiv_pos_site_id
 _symmetry_equiv_pos_as_xyz
 1  'x, y, z'
loop_
 _atom_site_type_symbol
 _atom_site_label
 _atom_site_symmetry_multiplicity
 _atom_site_fract_x
 _atom_site_fract_y
 _atom_site_fract_z
 _atom_site_fract_occupancy
 Be  Be1  1  0.00000  0.00000  0.00000  1
 Re  Re1  1  0.37443  0.37443  0.37443  1
 Re  Re2  1  0.37443  0.87672  0.37443  1
 Re  Re3  1  0.37443  0.37443  0.87672  1
 Re  Re4  1  0.87672  0.37443  0.37443  1
 Tl  Tl1  1  0.75000  0.75000  0.75000  1
