CIF file written using JARVIS-Tools package.
data_OsN2
_symmetry_space_group_name_H-M  'P2_1/c'
_cell_length_a       4.93439
_cell_length_b       4.94954
_cell_length_c       4.98571
_cell_angle_alpha    112.129
_cell_angle_beta     90
_cell_angle_gamma    90

_symmetry_Int_Tables_number  14
_chemical_formula_structural  OsN2
_chemical_formula_sum  Os4N8
_cell_volume  112.79575716310265
_cell_formula_units_Z  4
loop_
  _symmetry_equiv_pos_site_id
 _symmetry_equiv_pos_as_xyz
 1  'x, y, z'
loop_
 _atom_site_type_symbol
 _atom_site_label
 _atom_site_symmetry_multiplicity
 _atom_site_fract_x
 _atom_site_fract_y
 _atom_site_fract_z
 _atom_site_fract_occupancy
 N  N1  1  0.40161  0.80633  0.69410  1
 N  N2  1  0.09839  0.80633  0.19410  1
 N  N3  1  0.08993  0.32334  0.67308  1
 N  N4  1  0.41007  0.32334  0.17308  1
 N  N5  1  0.91007  0.67666  0.32692  1
 N  N6  1  0.58993  0.67666  0.82692  1
 N  N7  1  0.90161  0.19367  0.80590  1
 N  N8  1  0.59839  0.19367  0.30590  1
 Os  Os1  1  0.49725  0.23163  0.72047  1
 Os  Os2  1  0.50275  0.76837  0.27953  1
 Os  Os3  1  0.99725  0.76837  0.77953  1
 Os  Os4  1  0.00275  0.23163  0.22047  1
