CIF file written using JARVIS-Tools package.
data_K2BC3N3
_symmetry_space_group_name_H-M  'Fdd2'
_cell_length_a       8.50272
_cell_length_b       8.00047
_cell_length_c       6.97098
_cell_angle_alpha    68.8168
_cell_angle_beta     61.3246
_cell_angle_gamma    49.8586

_symmetry_Int_Tables_number  43
_chemical_formula_structural  K2BC3N3
_chemical_formula_sum  K4B2C6N6
_cell_volume  317.0903846899083
_cell_formula_units_Z  2
loop_
  _symmetry_equiv_pos_site_id
 _symmetry_equiv_pos_as_xyz
 1  'x, y, z'
loop_
 _atom_site_type_symbol
 _atom_site_label
 _atom_site_symmetry_multiplicity
 _atom_site_fract_x
 _atom_site_fract_y
 _atom_site_fract_z
 _atom_site_fract_occupancy
 B  B1  1  0.78812  0.21188  0.21188  1
 B  B2  1  0.53812  0.96188  0.96188  1
 C  C1  1  0.46293  0.92506  0.83391  1
 C  C2  1  0.82494  0.28707  0.97190  1
 C  C3  1  0.62074  0.37926  0.37926  1
 C  C4  1  0.37074  0.12926  0.12926  1
 C  C5  1  0.91609  0.97190  0.28707  1
 C  C6  1  0.77810  0.83391  0.92506  1
 K  K1  1  0.20422  0.38461  0.62482  1
 K  K2  1  0.78635  0.62482  0.38461  1
 K  K3  1  0.12518  0.96365  0.54578  1
 K  K4  1  0.36539  0.54578  0.96365  1
 N  N1  1  0.96494  0.73152  0.90439  1
 N  N2  1  0.48861  0.51139  0.51139  1
 N  N3  1  0.23861  0.26139  0.26139  1
 N  N4  1  0.84561  0.35085  0.78506  1
 N  N5  1  0.01848  0.78506  0.35085  1
 N  N6  1  0.39915  0.90439  0.73152  1
