CIF file written using JARVIS-Tools package.
data_YBePt4
_symmetry_space_group_name_H-M  'F-43m'
_cell_length_a       5.31247
_cell_length_b       5.31247
_cell_length_c       5.31247
_cell_angle_alpha    60
_cell_angle_beta     60
_cell_angle_gamma    60

_symmetry_Int_Tables_number  216
_chemical_formula_structural  YBePt4
_chemical_formula_sum  YBePt4
_cell_volume  106.01628342922514
_cell_formula_units_Z  1
loop_
  _symmetry_equiv_pos_site_id
 _symmetry_equiv_pos_as_xyz
 1  'x, y, z'
loop_
 _atom_site_type_symbol
 _atom_site_label
 _atom_site_symmetry_multiplicity
 _atom_site_fract_x
 _atom_site_fract_y
 _atom_site_fract_z
 _atom_site_fract_occupancy
 Be  Be1  1  0.00000  0.00000  0.00000  1
 Pt  Pt1  1  0.12268  0.62577  0.62577  1
 Pt  Pt2  1  0.62577  0.62577  0.62577  1
 Pt  Pt3  1  0.62577  0.12268  0.62577  1
 Pt  Pt4  1  0.62577  0.62577  0.12268  1
 Y  Y1  1  0.25000  0.25000  0.25000  1
