CIF file written using JARVIS-Tools package.
data_BeCr4Se
_symmetry_space_group_name_H-M  'F-43m'
_cell_length_a       4.75847
_cell_length_b       4.75847
_cell_length_c       4.75847
_cell_angle_alpha    60
_cell_angle_beta     60
_cell_angle_gamma    60

_symmetry_Int_Tables_number  216
_chemical_formula_structural  BeCr4Se
_chemical_formula_sum  BeCr4Se
_cell_volume  76.18833992609991
_cell_formula_units_Z  1
loop_
  _symmetry_equiv_pos_site_id
 _symmetry_equiv_pos_as_xyz
 1  'x, y, z'
loop_
 _atom_site_type_symbol
 _atom_site_label
 _atom_site_symmetry_multiplicity
 _atom_site_fract_x
 _atom_site_fract_y
 _atom_site_fract_z
 _atom_site_fract_occupancy
 Be  Be1  1  0.00000  0.00000  0.00000  1
 Cr  Cr1  1  0.12020  0.62660  0.62660  1
 Cr  Cr2  1  0.62660  0.62660  0.62660  1
 Cr  Cr3  1  0.62660  0.12020  0.62660  1
 Cr  Cr4  1  0.62660  0.62660  0.12020  1
 Se  Se1  1  0.25000  0.25000  0.25000  1
