CIF file written using JARVIS-Tools package.
data_LiV3O8
_symmetry_space_group_name_H-M  'C2'
_cell_length_a       5.05925
_cell_length_b       5.05925
_cell_length_c       6.11642
_cell_angle_alpha    88.4976
_cell_angle_beta     88.4976
_cell_angle_gamma    67.506

_symmetry_Int_Tables_number  5
_chemical_formula_structural  LiV3O8
_chemical_formula_sum  LiV3O8
_cell_volume  144.5731317862868
_cell_formula_units_Z  1
loop_
  _symmetry_equiv_pos_site_id
 _symmetry_equiv_pos_as_xyz
 1  'x, y, z'
loop_
 _atom_site_type_symbol
 _atom_site_label
 _atom_site_symmetry_multiplicity
 _atom_site_fract_x
 _atom_site_fract_y
 _atom_site_fract_z
 _atom_site_fract_occupancy
 Li  Li1  1  -0.01821  0.01821  -0.00000  1
 O  O1  1  0.21213  0.74455  0.72042  1
 O  O2  1  0.25545  0.78787  0.27958  1
 O  O3  1  0.26260  0.25537  -0.02013  1
 O  O4  1  0.74463  0.73740  0.02013  1
 O  O5  1  0.77780  0.78574  0.46004  1
 O  O6  1  0.21426  0.22220  0.53996  1
 O  O7  1  0.73640  0.20974  0.72303  1
 O  O8  1  0.79026  0.26360  0.27697  1
 V  V1  1  0.36111  0.35355  0.74553  1
 V  V2  1  0.64645  0.63889  0.25447  1
 V  V3  1  0.01710  -0.01710  0.50000  1
