CIF file written using JARVIS-Tools package.
data_FeWClO4
_symmetry_space_group_name_H-M  'P4/nmm'
_cell_length_a       5.34951
_cell_length_b       6.73041
_cell_length_c       6.73041
_cell_angle_alpha    90
_cell_angle_beta     90
_cell_angle_gamma    90

_symmetry_Int_Tables_number  129
_chemical_formula_structural  FeWClO4
_chemical_formula_sum  Fe2W2Cl2O8
_cell_volume  242.3243419046046
_cell_formula_units_Z  2
loop_
  _symmetry_equiv_pos_site_id
 _symmetry_equiv_pos_as_xyz
 1  'x, y, z'
loop_
 _atom_site_type_symbol
 _atom_site_label
 _atom_site_symmetry_multiplicity
 _atom_site_fract_x
 _atom_site_fract_y
 _atom_site_fract_z
 _atom_site_fract_occupancy
 Cl  Cl1  1  0.30508  0.75000  0.75000  1
 Cl  Cl2  1  0.69492  0.25000  0.25000  1
 Fe  Fe1  1  0.28197  0.25000  0.25000  1
 Fe  Fe2  1  0.71803  0.75000  0.75000  1
 O  O1  1  0.19851  0.25000  0.53462  1
 O  O2  1  0.19851  0.96538  0.25000  1
 O  O3  1  0.80149  0.03462  0.75000  1
 O  O4  1  0.80149  0.46538  0.75000  1
 O  O5  1  0.80149  0.75000  0.46538  1
 O  O6  1  0.19851  0.53462  0.25000  1
 O  O7  1  0.19851  0.25000  0.96538  1
 O  O8  1  0.80149  0.75000  0.03462  1
 W  W1  1  0.00000  0.25000  0.75000  1
 W  W2  1  0.00000  0.75000  0.25000  1
