CIF file written using JARVIS-Tools package.
data_CaBHO3
_symmetry_space_group_name_H-M  'P2_1/c'
_cell_length_a       3.55218
_cell_length_b       9.59795
_cell_length_c       8.02857
_cell_angle_alpha    89.9999
_cell_angle_beta     110.554
_cell_angle_gamma    90.0001

_symmetry_Int_Tables_number  14
_chemical_formula_structural  CaBHO3
_chemical_formula_sum  Ca4B4H4O2
_cell_volume  256.29832990050005
_cell_formula_units_Z  4
loop_
  _symmetry_equiv_pos_site_id
 _symmetry_equiv_pos_as_xyz
 1  'x, y, z'
loop_
 _atom_site_type_symbol
 _atom_site_label
 _atom_site_symmetry_multiplicity
 _atom_site_fract_x
 _atom_site_fract_y
 _atom_site_fract_z
 _atom_site_fract_occupancy
 B  B1  1  0.28833  0.23699  0.57398  1
 B  B2  1  0.71167  0.73699  0.92602  1
 B  B3  1  0.71167  0.76301  0.42602  1
 B  B4  1  0.28833  0.26301  0.07398  1
 Ca  Ca1  1  0.07899  0.49312  0.28753  1
 Ca  Ca2  1  0.92100  0.99312  0.21247  1
 Ca  Ca3  1  0.92101  0.50688  0.71247  1
 Ca  Ca4  1  0.07900  0.00688  0.78753  1
 H  H1  1  0.79230  0.23905  0.34999  1
 H  H2  1  0.20770  0.73905  0.15001  1
 H  H3  1  0.20770  0.76095  0.65001  1
 H  H4  1  0.79230  0.26095  0.84999  1
 O  O1  1  0.01009  0.66849  0.06844  1
 O  O2  1  0.01009  0.83151  0.56844  1
 O  O3  1  0.31068  0.37965  0.57332  1
 O  O4  1  0.68933  0.87965  0.92668  1
 O  O5  1  0.68932  0.62035  0.42668  1
 O  O6  1  0.31067  0.12035  0.07332  1
 O  O7  1  0.52209  0.15393  0.70947  1
 O  O8  1  0.47791  0.65393  0.79053  1
 O  O9  1  0.47791  0.84607  0.29053  1
 O  O10  1  0.52209  0.34607  0.20947  1
 O  O11  1  -0.01009  0.16849  0.43156  1
 O  O12  1  -0.01009  0.33151  0.93156  1
