CIF file written using JARVIS-Tools package.
data_H4CSN2
_symmetry_space_group_name_H-M  'Pnma'
_cell_length_a       5.57258
_cell_length_b       7.11552
_cell_length_c       25.0318
_cell_angle_alpha    90
_cell_angle_beta     90
_cell_angle_gamma    90

_symmetry_Int_Tables_number  62
_chemical_formula_structural  H4CSN2
_chemical_formula_sum  H48C2S2N24
_cell_volume  992.5570748600354
_cell_formula_units_Z  12
loop_
  _symmetry_equiv_pos_site_id
 _symmetry_equiv_pos_as_xyz
 1  'x, y, z'
loop_
 _atom_site_type_symbol
 _atom_site_label
 _atom_site_symmetry_multiplicity
 _atom_site_fract_x
 _atom_site_fract_y
 _atom_site_fract_z
 _atom_site_fract_occupancy
 C  C1  1  0.12470  0.86700  0.58512  1
 C  C2  1  0.87530  0.13300  0.41488  1
 C  C3  1  0.24965  0.49198  0.25000  1
 C  C4  1  0.25035  0.99198  0.25000  1
 C  C5  1  0.75035  0.50802  0.75000  1
 C  C6  1  0.62470  0.63300  0.08512  1
 C  C7  1  0.74965  0.00802  0.75000  1
 C  C8  1  0.37530  0.36700  0.58512  1
 C  C9  1  0.37530  0.36700  0.91488  1
 C  C10  1  0.62470  0.63300  0.41488  1
 C  C11  1  0.87530  0.13300  0.08512  1
 C  C12  1  0.12470  0.86700  0.91488  1
 H  H1  1  0.05432  0.48106  0.70416  1
 H  H2  1  0.78566  0.50206  0.66808  1
 H  H3  1  0.28566  0.99794  0.33192  1
 H  H4  1  0.94568  0.51894  0.20416  1
 H  H5  1  0.55432  0.01894  0.20416  1
 H  H6  1  0.78566  0.50206  0.83192  1
 H  H7  1  0.21434  0.49794  0.16808  1
 H  H8  1  0.71434  0.00206  0.83192  1
 H  H9  1  0.21434  0.49794  0.33192  1
 H  H10  1  0.41805  0.76659  0.95515  1
 H  H11  1  0.08195  0.26659  0.54485  1
 H  H12  1  0.41805  0.76659  0.54485  1
 H  H13  1  0.91805  0.73341  0.04485  1
 H  H14  1  0.28566  0.99794  0.16808  1
 H  H15  1  0.94568  0.51894  0.29584  1
 H  H16  1  0.71434  0.00206  0.66808  1
 H  H17  1  0.08195  0.26659  0.95515  1
 H  H18  1  0.44568  0.98106  0.70416  1
 H  H19  1  0.58195  0.23341  0.45515  1
 H  H20  1  0.44568  0.98106  0.79584  1
 H  H21  1  0.05432  0.48106  0.79584  1
 H  H22  1  0.28405  0.40232  0.50616  1
 H  H23  1  0.21595  0.90232  0.99384  1
 H  H24  1  0.28405  0.40232  0.99384  1
 H  H25  1  0.21595  0.90232  0.50616  1
 H  H26  1  0.71595  0.59768  0.49384  1
 H  H27  1  0.78405  0.09768  0.00616  1
 H  H28  1  0.64602  0.28553  0.36691  1
 H  H29  1  0.14602  0.21447  0.63309  1
 H  H30  1  0.35398  0.71447  0.86691  1
 H  H31  1  0.14602  0.21447  0.86691  1
 H  H32  1  0.35398  0.71447  0.63309  1
 H  H33  1  0.85398  0.78553  0.36691  1
 H  H34  1  0.85398  0.78553  0.13309  1
 H  H35  1  0.60943  0.68042  0.16594  1
 H  H36  1  0.55432  0.01894  0.29584  1
 H  H37  1  0.64602  0.28553  0.13309  1
 H  H38  1  0.58195  0.23341  0.04485  1
 H  H39  1  0.91805  0.73341  0.45515  1
 H  H40  1  0.89057  0.18042  0.16594  1
 H  H41  1  0.78405  0.09768  0.49384  1
 H  H42  1  0.60943  0.68042  0.33406  1
 H  H43  1  0.71595  0.59768  0.00616  1
 H  H44  1  0.10943  0.81958  0.66594  1
 H  H45  1  0.39057  0.31958  0.83406  1
 H  H46  1  0.10943  0.81958  0.83406  1
 H  H47  1  0.39057  0.31958  0.66594  1
 H  H48  1  0.89057  0.18042  0.33406  1
 N  N1  1  0.76275  0.65704  0.04196  1
 N  N2  1  0.23725  0.34296  0.95804  1
 N  N3  1  0.26275  0.84296  0.95804  1
 N  N4  1  0.76275  0.65704  0.45804  1
 N  N5  1  0.73725  0.15704  0.45804  1
 N  N6  1  0.26275  0.84296  0.54196  1
 N  N7  1  0.37338  0.99839  0.20411  1
 N  N8  1  0.37338  0.99839  0.29589  1
 N  N9  1  0.62662  0.00161  0.70411  1
 N  N10  1  0.87338  0.50161  0.79589  1
 N  N11  1  0.62662  0.00161  0.79589  1
 N  N12  1  0.87338  0.50161  0.70411  1
 N  N13  1  0.12662  0.49839  0.20411  1
 N  N14  1  0.73725  0.15704  0.04196  1
 N  N15  1  0.69601  0.71246  0.36881  1
 N  N16  1  0.12662  0.49839  0.29589  1
 N  N17  1  0.69601  0.71246  0.13119  1
 N  N18  1  0.80399  0.21246  0.13119  1
 N  N19  1  0.30399  0.28754  0.63119  1
 N  N20  1  0.19601  0.78754  0.86881  1
 N  N21  1  0.30399  0.28754  0.86881  1
 N  N22  1  0.19601  0.78754  0.63119  1
 N  N23  1  0.23725  0.34296  0.54196  1
 N  N24  1  0.80399  0.21246  0.36881  1
 S  S1  1  0.13504  0.00315  0.08228  1
 S  S2  1  0.86496  0.99685  0.91772  1
 S  S3  1  0.36496  0.50315  0.41772  1
 S  S4  1  0.63504  0.49685  0.91772  1
 S  S5  1  0.36496  0.50315  0.08228  1
 S  S6  1  0.55622  0.47096  0.25000  1
 S  S7  1  0.05622  0.02904  0.75000  1
 S  S8  1  0.44378  0.52904  0.75000  1
 S  S9  1  0.94378  0.97096  0.25000  1
 S  S10  1  0.13504  0.00315  0.41772  1
 S  S11  1  0.63504  0.49685  0.58228  1
 S  S12  1  0.86496  0.99685  0.58228  1
