CIF file written using JARVIS-Tools package.
data_CaB2H8
_symmetry_space_group_name_H-M  'I-42d'
_cell_length_a       7.59078
_cell_length_b       7.59078
_cell_length_c       7.59078
_cell_angle_alpha    134.677
_cell_angle_beta     134.677
_cell_angle_gamma    66.0332

_symmetry_Int_Tables_number  122
_chemical_formula_structural  CaB2H8
_chemical_formula_sum  Ca2B4H6
_cell_volume  217.77284182769722
_cell_formula_units_Z  2
loop_
  _symmetry_equiv_pos_site_id
 _symmetry_equiv_pos_as_xyz
 1  'x, y, z'
loop_
 _atom_site_type_symbol
 _atom_site_label
 _atom_site_symmetry_multiplicity
 _atom_site_fract_x
 _atom_site_fract_y
 _atom_site_fract_z
 _atom_site_fract_occupancy
 B  B1  1  0.22819  0.22819  0.00000  1
 B  B2  1  0.77181  0.77181  -0.00000  1
 B  B3  1  0.52181  0.02181  0.50000  1
 B  B4  1  0.97819  0.47819  0.50000  1
 Ca  Ca1  1  0.00000  0.00000  0.00000  1
 Ca  Ca2  1  0.75000  0.25000  0.50000  1
 H  H1  1  0.07056  0.03541  0.75836  1
 H  H2  1  0.27705  0.31220  0.24164  1
 H  H3  1  0.96459  0.72295  0.03515  1
 H  H4  1  0.68780  0.92944  0.96485  1
 H  H5  1  0.92273  0.66105  0.51461  1
 H  H6  1  0.67944  0.93780  0.46485  1
 H  H7  1  0.47295  0.21459  0.53515  1
 H  H8  1  0.41105  0.17273  0.01461  1
 H  H9  1  0.15812  0.39644  0.98539  1
 H  H10  1  0.06220  0.52705  0.74164  1
 H  H11  1  0.60356  0.58895  0.76168  1
 H  H12  1  0.82727  0.84188  0.23832  1
 H  H13  1  0.33895  0.85356  0.26168  1
 H  H14  1  0.59188  0.07727  0.73832  1
 H  H15  1  0.78541  0.32056  0.25836  1
 H  H16  1  0.14644  0.40812  0.48539  1
