CIF file written using JARVIS-Tools package.
data_MgAlSi
_symmetry_space_group_name_H-M  'Pnma'
_cell_length_a       4.0398
_cell_length_b       6.60976
_cell_length_c       8.14023
_cell_angle_alpha    90
_cell_angle_beta     90
_cell_angle_gamma    90

_symmetry_Int_Tables_number  62
_chemical_formula_structural  MgAlSi
_chemical_formula_sum  Mg4Al4Si4
_cell_volume  217.3615420491982
_cell_formula_units_Z  4
loop_
  _symmetry_equiv_pos_site_id
 _symmetry_equiv_pos_as_xyz
 1  'x, y, z'
loop_
 _atom_site_type_symbol
 _atom_site_label
 _atom_site_symmetry_multiplicity
 _atom_site_fract_x
 _atom_site_fract_y
 _atom_site_fract_z
 _atom_site_fract_occupancy
 Al  Al1  1  0.75000  0.85705  0.92867  1
 Al  Al2  1  0.25000  0.14295  0.07133  1
 Al  Al3  1  0.75000  0.35705  0.57133  1
 Al  Al4  1  0.25000  0.64295  0.42867  1
 Mg  Mg1  1  0.75000  0.96489  0.32812  1
 Mg  Mg2  1  0.25000  0.03511  0.67188  1
 Mg  Mg3  1  0.75000  0.46489  0.17188  1
 Mg  Mg4  1  0.25000  0.53511  0.82812  1
 Si  Si1  1  0.75000  0.74012  0.61931  1
 Si  Si2  1  0.25000  0.25988  0.38069  1
 Si  Si3  1  0.75000  0.24012  0.88069  1
 Si  Si4  1  0.25000  0.75988  0.11931  1
