CIF file written using JARVIS-Tools package.
data_Rb4Tc6S13
_symmetry_space_group_name_H-M  'C2/c'
_cell_length_a       9.69382
_cell_length_b       9.69383
_cell_length_c       14.0117
_cell_angle_alpha    94.8034
_cell_angle_beta     94.8034
_cell_angle_gamma    120.004

_symmetry_Int_Tables_number  15
_chemical_formula_structural  Rb4Tc6S13
_chemical_formula_sum  Rb8Tc2S26
_cell_volume  1124.1299558992484
_cell_formula_units_Z  2
loop_
  _symmetry_equiv_pos_site_id
 _symmetry_equiv_pos_as_xyz
 1  'x, y, z'
loop_
 _atom_site_type_symbol
 _atom_site_label
 _atom_site_symmetry_multiplicity
 _atom_site_fract_x
 _atom_site_fract_y
 _atom_site_fract_z
 _atom_site_fract_occupancy
 Rb  Rb1  1  0.69617  0.75441  0.33693  1
 Rb  Rb2  1  0.62693  0.90207  0.61721  1
 Rb  Rb3  1  0.09793  0.37307  0.88279  1
 Rb  Rb4  1  0.37307  0.09793  0.38279  1
 Rb  Rb5  1  0.90207  0.62693  0.11721  1
 Rb  Rb6  1  0.75441  0.69617  0.83693  1
 Rb  Rb7  1  0.30383  0.24559  0.66307  1
 Rb  Rb8  1  0.24559  0.30383  0.16307  1
 S  S1  1  0.74567  0.36082  0.82240  1
 S  S2  1  0.63918  0.25433  0.67760  1
 S  S3  1  0.92338  0.95595  0.05431  1
 S  S4  1  0.04405  0.07662  0.44569  1
 S  S5  1  0.07662  0.04405  0.94569  1
 S  S6  1  0.95595  0.92338  0.55431  1
 S  S7  1  0.64527  0.98472  0.18876  1
 S  S8  1  0.01528  0.35473  0.31124  1
 S  S9  1  0.72512  0.16608  0.44984  1
 S  S10  1  0.98472  0.64527  0.68876  1
 S  S11  1  0.83392  0.27488  0.05016  1
 S  S12  1  0.36082  0.74567  0.32240  1
 S  S13  1  0.16608  0.72512  0.94984  1
 S  S14  1  0.27488  0.83392  0.55016  1
 S  S15  1  0.49698  0.30503  0.00858  1
 S  S16  1  0.69497  0.50302  0.49142  1
 S  S17  1  0.35473  0.01528  0.81124  1
 S  S18  1  0.25433  0.63918  0.17760  1
 S  S19  1  0.30503  0.49698  0.50858  1
 S  S20  1  0.00409  0.30313  0.64806  1
 S  S21  1  0.36054  0.63946  0.75000  1
 S  S22  1  0.30313  0.00409  0.14806  1
 S  S23  1  0.99591  0.69687  0.35194  1
 S  S24  1  0.69687  0.99591  0.85194  1
 S  S25  1  0.63946  0.36054  0.25000  1
 S  S26  1  0.50302  0.69497  0.99142  1
 Tc  Tc1  1  0.15753  0.60105  0.42445  1
 Tc  Tc2  1  0.98549  0.68269  0.52155  1
 Tc  Tc3  1  0.60105  0.15753  0.92445  1
 Tc  Tc4  1  0.84247  0.39895  0.57555  1
 Tc  Tc5  1  0.57396  0.15521  0.10873  1
 Tc  Tc6  1  0.15521  0.57396  0.60873  1
 Tc  Tc7  1  0.42604  0.84479  0.89127  1
 Tc  Tc8  1  0.01451  0.31731  0.47845  1
 Tc  Tc9  1  0.68269  0.98549  0.02155  1
 Tc  Tc10  1  0.39895  0.84247  0.07555  1
 Tc  Tc11  1  0.31731  0.01451  0.97845  1
 Tc  Tc12  1  0.84479  0.42604  0.39127  1
