CIF file written using JARVIS-Tools package.
data_LaS
_symmetry_space_group_name_H-M  'Cmce'
_cell_length_a       4.15691
_cell_length_b       4.15691
_cell_length_c       11.769
_cell_angle_alpha    90
_cell_angle_beta     90
_cell_angle_gamma    89.9992

_symmetry_Int_Tables_number  64
_chemical_formula_structural  LaS
_chemical_formula_sum  La4S4
_cell_volume  203.36747202648667
_cell_formula_units_Z  4
loop_
  _symmetry_equiv_pos_site_id
 _symmetry_equiv_pos_as_xyz
 1  'x, y, z'
loop_
 _atom_site_type_symbol
 _atom_site_label
 _atom_site_symmetry_multiplicity
 _atom_site_fract_x
 _atom_site_fract_y
 _atom_site_fract_z
 _atom_site_fract_occupancy
 La  La1  1  0.25202  0.74798  0.37500  1
 La  La2  1  0.74798  0.25202  0.62500  1
 La  La3  1  0.24798  0.75202  0.87500  1
 La  La4  1  0.75202  0.24798  0.12500  1
 S  S1  1  0.75187  0.24813  0.37500  1
 S  S2  1  0.24813  0.75187  0.62500  1
 S  S3  1  0.74813  0.25187  0.87500  1
 S  S4  1  0.25187  0.74813  0.12500  1
