CIF file written using JARVIS-Tools package.
data_LiIn2CuSe4
_symmetry_space_group_name_H-M  'I-4'
_cell_length_a       5.89513
_cell_length_b       5.89513
_cell_length_c       7.2429
_cell_angle_alpha    114.014
_cell_angle_beta     114.014
_cell_angle_gamma    90

_symmetry_Int_Tables_number  82
_chemical_formula_structural  LiIn2CuSe4
_chemical_formula_sum  LiIn2CuSe4
_cell_volume  205.84338174389
_cell_formula_units_Z  1
loop_
  _symmetry_equiv_pos_site_id
 _symmetry_equiv_pos_as_xyz
 1  'x, y, z'
loop_
 _atom_site_type_symbol
 _atom_site_label
 _atom_site_symmetry_multiplicity
 _atom_site_fract_x
 _atom_site_fract_y
 _atom_site_fract_z
 _atom_site_fract_occupancy
 Cu  Cu1  1  0.00000  0.00000  0.00000  1
 In  In1  1  0.50000  0.50000  0.00000  1
 In  In2  1  0.75000  0.25000  0.50000  1
 Li  Li1  1  0.25000  0.75000  0.50000  1
 Se  Se1  1  0.63249  0.10473  0.75454  1
 Se  Se2  1  0.12205  0.64980  0.75454  1
 Se  Se3  1  0.89527  0.87795  0.24546  1
 Se  Se4  1  0.35020  0.36751  0.24546  1
