CIF file written using JARVIS-Tools package.
data_Sc3Co
_symmetry_space_group_name_H-M  'Pnma'
_cell_length_a       5.75606
_cell_length_b       8.53541
_cell_length_c       12.9124
_cell_angle_alpha    90
_cell_angle_beta     90
_cell_angle_gamma    90

_symmetry_Int_Tables_number  62
_chemical_formula_structural  Sc3Co
_chemical_formula_sum  Sc24Co8
_cell_volume  634.3928618320247
_cell_formula_units_Z  8
loop_
  _symmetry_equiv_pos_site_id
 _symmetry_equiv_pos_as_xyz
 1  'x, y, z'
loop_
 _atom_site_type_symbol
 _atom_site_label
 _atom_site_symmetry_multiplicity
 _atom_site_fract_x
 _atom_site_fract_y
 _atom_site_fract_z
 _atom_site_fract_occupancy
 Co  Co1  1  0.12854  0.75000  0.31950  1
 Co  Co2  1  0.37146  0.75000  0.81950  1
 Co  Co3  1  0.55028  0.75000  0.06044  1
 Co  Co4  1  0.05028  0.25000  0.43956  1
 Co  Co5  1  0.44972  0.25000  0.93956  1
 Co  Co6  1  0.94972  0.75000  0.56044  1
 Co  Co7  1  0.62854  0.25000  0.18050  1
 Co  Co8  1  0.87146  0.25000  0.68050  1
 Sc  Sc1  1  0.21447  0.25000  0.10850  1
 Sc  Sc2  1  0.90758  0.06711  0.28703  1
 Sc  Sc3  1  0.40758  0.93289  0.21297  1
 Sc  Sc4  1  0.71447  0.75000  0.39150  1
 Sc  Sc5  1  0.45044  0.25000  0.35467  1
 Sc  Sc6  1  0.28553  0.25000  0.60850  1
 Sc  Sc7  1  0.78553  0.75000  0.89150  1
 Sc  Sc8  1  0.95044  0.75000  0.14533  1
 Sc  Sc9  1  0.54956  0.75000  0.64533  1
 Sc  Sc10  1  0.59242  0.43289  0.78703  1
 Sc  Sc11  1  0.90758  0.43289  0.28703  1
 Sc  Sc12  1  0.59242  0.06711  0.78703  1
 Sc  Sc13  1  0.09242  0.93289  0.71297  1
 Sc  Sc14  1  0.40758  0.56711  0.21297  1
 Sc  Sc15  1  0.24560  0.93547  0.46446  1
 Sc  Sc16  1  0.74560  0.06453  0.03554  1
 Sc  Sc17  1  0.75440  0.43547  0.53554  1
 Sc  Sc18  1  0.25440  0.56453  0.96446  1
 Sc  Sc19  1  0.75440  0.06453  0.53554  1
 Sc  Sc20  1  0.25440  0.93547  0.96446  1
 Sc  Sc21  1  0.24560  0.56453  0.46446  1
 Sc  Sc22  1  0.74560  0.43547  0.03554  1
 Sc  Sc23  1  0.04956  0.25000  0.85467  1
 Sc  Sc24  1  0.09242  0.56711  0.71297  1
