CIF file written using JARVIS-Tools package.
data_MgTi3
_symmetry_space_group_name_H-M  'Imm2'
_cell_length_a       2.88215
_cell_length_b       9.53272
_cell_length_c       5.19467
_cell_angle_alpha    90
_cell_angle_beta     90
_cell_angle_gamma    90

_symmetry_Int_Tables_number  44
_chemical_formula_structural  MgTi3
_chemical_formula_sum  Mg2Ti6
_cell_volume  142.72218674897093
_cell_formula_units_Z  2
loop_
  _symmetry_equiv_pos_site_id
 _symmetry_equiv_pos_as_xyz
 1  'x, y, z'
loop_
 _atom_site_type_symbol
 _atom_site_label
 _atom_site_symmetry_multiplicity
 _atom_site_fract_x
 _atom_site_fract_y
 _atom_site_fract_z
 _atom_site_fract_occupancy
 Mg  Mg1  1  0.00000  0.00000  0.32764  1
 Mg  Mg2  1  0.50000  0.50000  0.82764  1
 Ti  Ti1  1  0.50000  0.00000  0.83913  1
 Ti  Ti2  1  0.00000  0.24780  0.99995  1
 Ti  Ti3  1  0.50000  0.25220  0.49995  1
 Ti  Ti4  1  0.00000  0.50000  0.33913  1
 Ti  Ti5  1  0.50000  0.74780  0.49995  1
 Ti  Ti6  1  0.00000  0.75220  0.99995  1
