CIF file written using JARVIS-Tools package.
data_SiBHC3NCl2
_symmetry_space_group_name_H-M  'P2_1/c'
_cell_length_a       8.08488
_cell_length_b       10.477
_cell_length_c       6.33786
_cell_angle_alpha    90
_cell_angle_beta     72.1951
_cell_angle_gamma    90

_symmetry_Int_Tables_number  14
_chemical_formula_structural  SiBHC3NCl2
_chemical_formula_sum  Si4B4H4C2N4Cl8
_cell_volume  511.13727738004167
_cell_formula_units_Z  4
loop_
  _symmetry_equiv_pos_site_id
 _symmetry_equiv_pos_as_xyz
 1  'x, y, z'
loop_
 _atom_site_type_symbol
 _atom_site_label
 _atom_site_symmetry_multiplicity
 _atom_site_fract_x
 _atom_site_fract_y
 _atom_site_fract_z
 _atom_site_fract_occupancy
 B  B1  1  0.89886  0.93602  0.59883  1
 B  B2  1  0.10114  0.43602  0.90117  1
 B  B3  1  0.10114  0.06398  0.40117  1
 B  B4  1  0.89886  0.56398  0.09883  1
 C  C1  1  0.55997  0.13715  0.27592  1
 C  C2  1  0.44003  -0.13715  0.72408  1
 C  C3  1  0.55997  0.36285  0.77592  1
 C  C4  1  0.54209  0.44548  0.96220  1
 C  C5  1  0.31324  -0.22615  0.77191  1
 C  C6  1  0.68676  0.27385  0.72809  1
 C  C7  1  0.68676  0.22615  0.22809  1
 C  C8  1  0.31324  0.72615  0.27191  1
 C  C9  1  0.54209  0.05452  0.46220  1
 C  C10  1  0.45791  -0.05452  0.53780  1
 C  C11  1  0.45791  0.55452  0.03780  1
 C  C12  1  0.44003  0.63715  0.22408  1
 Cl  Cl1  1  0.75608  0.98806  0.87154  1
 Cl  Cl2  1  0.24392  0.48806  0.62846  1
 Cl  Cl3  1  0.24392  0.01194  0.12846  1
 Cl  Cl4  1  0.75608  0.51194  0.37154  1
 Cl  Cl5  1  -0.14826  0.78037  0.51107  1
 Cl  Cl6  1  0.14826  0.21963  0.48893  1
 Cl  Cl7  1  -0.14826  0.71963  0.01107  1
 Cl  Cl8  1  0.14826  0.28037  0.98893  1
 H  H1  1  0.89431  0.49692  0.77470  1
 H  H2  1  0.10569  -0.00308  0.72530  1
 H  H3  1  0.89431  0.00308  0.27470  1
 H  H4  1  0.10569  0.50308  0.22530  1
 N  N1  1  0.90271  0.04534  0.41804  1
 N  N2  1  0.09729  0.54534  0.08196  1
 N  N3  1  0.09729  -0.04534  0.58196  1
 N  N4  1  0.90271  0.45466  0.91804  1
 Si  Si1  1  0.27528  0.66187  0.01204  1
 Si  Si2  1  0.72472  0.16187  0.48796  1
 Si  Si3  1  0.72472  0.33813  0.98796  1
 Si  Si4  1  0.27528  0.83813  0.51204  1
