CIF file written using JARVIS-Tools package.
data_Ba6Nb2IrCl2O12
_symmetry_space_group_name_H-M  'P-3m1'
_cell_length_a       5.98389
_cell_length_b       5.98389
_cell_length_c       15.0154
_cell_angle_alpha    90
_cell_angle_beta     90
_cell_angle_gamma    120

_symmetry_Int_Tables_number  164
_chemical_formula_structural  Ba6Nb2IrCl2O12
_chemical_formula_sum  Ba6Nb2IrCl2O2
_cell_volume  465.6213176005654
_cell_formula_units_Z  1
loop_
  _symmetry_equiv_pos_site_id
 _symmetry_equiv_pos_as_xyz
 1  'x, y, z'
loop_
 _atom_site_type_symbol
 _atom_site_label
 _atom_site_symmetry_multiplicity
 _atom_site_fract_x
 _atom_site_fract_y
 _atom_site_fract_z
 _atom_site_fract_occupancy
 Ba  Ba1  1  0.33333  0.66667  0.36638  1
 Ba  Ba2  1  0.33333  0.66667  0.79065  1
 Ba  Ba3  1  0.66667  0.33333  0.63362  1
 Ba  Ba4  1  0.66667  0.33333  0.92852  1
 Ba  Ba5  1  0.33333  0.66667  0.07148  1
 Ba  Ba6  1  0.66667  0.33333  0.20935  1
 Cl  Cl1  1  0.66667  0.33333  0.41967  1
 Cl  Cl2  1  0.33333  0.66667  0.58033  1
 Ir  Ir1  1  0.00000  0.00000  0.00000  1
 Nb  Nb1  1  0.00000  0.00000  0.81391  1
 Nb  Nb2  1  0.00000  0.00000  0.18609  1
 O  O1  1  0.67206  0.83603  0.24241  1
 O  O2  1  0.32794  0.16397  0.75759  1
 O  O3  1  0.16397  0.32794  0.24241  1
 O  O4  1  0.83603  0.67206  0.75759  1
 O  O5  1  0.15540  0.31079  0.91713  1
 O  O6  1  0.68921  0.84460  0.91713  1
 O  O7  1  0.16397  0.83603  0.24241  1
 O  O8  1  0.31079  0.15540  0.08287  1
 O  O9  1  0.84460  0.15540  0.08287  1
 O  O10  1  0.83603  0.16397  0.75759  1
 O  O11  1  0.84460  0.68921  0.08287  1
 O  O12  1  0.15540  0.84460  0.91713  1
