CIF file written using JARVIS-Tools package.
data_KC4N3
_symmetry_space_group_name_H-M  'P-1'
_cell_length_a       3.78094
_cell_length_b       8.70072
_cell_length_c       8.70312
_cell_angle_alpha    74.6396
_cell_angle_beta     88.389
_cell_angle_gamma    89.7118

_symmetry_Int_Tables_number  2
_chemical_formula_structural  KC4N3
_chemical_formula_sum  K2C8N6
_cell_volume  275.9685771612757
_cell_formula_units_Z  2
loop_
  _symmetry_equiv_pos_site_id
 _symmetry_equiv_pos_as_xyz
 1  'x, y, z'
loop_
 _atom_site_type_symbol
 _atom_site_label
 _atom_site_symmetry_multiplicity
 _atom_site_fract_x
 _atom_site_fract_y
 _atom_site_fract_z
 _atom_site_fract_occupancy
 C  C1  1  0.58940  0.72220  0.58260  1
 C  C2  1  0.41060  0.27780  0.41740  1
 C  C3  1  0.57779  0.31250  0.26615  1
 C  C4  1  0.67326  0.47040  0.18975  1
 C  C5  1  0.33290  0.81229  0.80110  1
 C  C6  1  0.42221  0.68750  0.73385  1
 C  C7  1  0.66710  0.18771  0.19890  1
 C  C8  1  0.32674  0.52960  0.81025  1
 K  K1  1  0.76694  0.17662  0.80188  1
 K  K2  1  0.23306  0.82338  0.19812  1
 N  N1  1  0.72900  0.75128  0.45622  1
 N  N2  1  0.74980  0.60371  0.13065  1
 N  N3  1  0.27100  0.24872  0.54378  1
 N  N4  1  0.74094  0.08072  0.14588  1
 N  N5  1  0.25020  0.39629  0.86935  1
 N  N6  1  0.25906  0.91928  0.85412  1
