CIF file written using JARVIS-Tools package.
data_Ca4Al2H22CO20
_symmetry_space_group_name_H-M  'P1'
_cell_length_a       5.755
_cell_length_b       8.39528
_cell_length_c       9.70125
_cell_angle_alpha    66.0865
_cell_angle_beta     82.1695
_cell_angle_gamma    80.9622

_symmetry_Int_Tables_number  1
_chemical_formula_structural  Ca4Al2H22CO20
_chemical_formula_sum  Ca4Al2H22CO20
_cell_volume  421.7900119656955
_cell_formula_units_Z  1
loop_
  _symmetry_equiv_pos_site_id
 _symmetry_equiv_pos_as_xyz
 1  'x, y, z'
loop_
 _atom_site_type_symbol
 _atom_site_label
 _atom_site_symmetry_multiplicity
 _atom_site_fract_x
 _atom_site_fract_y
 _atom_site_fract_z
 _atom_site_fract_occupancy
 Al  Al1  1  0.00395  0.99727  0.00070  1
 Al  Al2  1  0.49580  0.50273  0.50493  1
 C  C1  1  0.87964  0.32395  0.20221  1
 Ca  Ca1  1  0.52347  0.11713  0.80299  1
 Ca  Ca2  1  0.48122  0.88398  0.19606  1
 Ca  Ca3  1  0.01652  0.61971  0.31057  1
 Ca  Ca4  1  0.97868  0.37871  0.69846  1
 H  H1  1  0.82683  0.73524  0.00711  1
 H  H2  1  0.32442  0.77443  0.96552  1
 H  H3  1  0.68515  0.21782  0.04214  1
 H  H4  1  0.18765  0.25777  0.99719  1
 H  H5  1  0.97930  0.00155  0.25945  1
 H  H6  1  0.16854  0.72213  0.54202  1
 H  H7  1  0.52065  0.51200  0.23520  1
 H  H8  1  0.34143  0.23776  0.50199  1
 H  H9  1  0.65782  0.77162  0.49920  1
 H  H10  1  0.03201  0.01189  0.73129  1
 H  H11  1  0.81709  0.28880  0.45694  1
 H  H12  1  0.46560  0.48285  0.77706  1
 H  H13  1  0.48768  0.50657  0.99453  1
 H  H14  1  0.23457  0.99743  0.47687  1
 H  H15  1  0.21958  0.50254  0.03702  1
 H  H16  1  0.85694  0.52628  0.93100  1
 H  H17  1  0.96996  0.97379  0.53777  1
 H  H18  1  0.55721  0.14047  0.31899  1
 H  H19  1  0.28739  0.21327  0.27192  1
 H  H20  1  0.44780  0.86361  0.67722  1
 H  H21  1  0.70175  0.78479  0.73529  1
 H  H22  1  0.06220  0.63231  0.82086  1
 O  O1  1  0.07915  0.38370  0.19591  1
 O  O2  1  0.18532  0.61011  0.52995  1
 O  O3  1  0.15457  0.21103  0.92616  1
 O  O4  1  0.85311  0.78454  0.07783  1
 O  O5  1  0.31523  0.88741  0.97503  1
 O  O6  1  0.34886  0.28773  0.57567  1
 O  O7  1  0.64426  0.71734  0.42933  1
 O  O8  1  0.80600  0.39076  0.48331  1
 O  O9  1  0.69207  0.11174  0.02223  1
 O  O10  1  0.90387  0.60234  0.82163  1
 O  O11  1  0.56316  0.43183  0.71137  1
 O  O12  1  0.60577  0.89499  0.67432  1
 O  O13  1  0.39645  0.10406  0.32055  1
 O  O14  1  0.33616  0.56025  0.94955  1
 O  O15  1  0.13118  0.92985  0.56820  1
 O  O16  1  0.43057  0.57139  0.29679  1
 O  O17  1  0.73996  0.40702  0.09389  1
 O  O18  1  0.06725  0.92971  0.20719  1
 O  O19  1  0.93618  0.06586  0.79561  1
 O  O20  1  0.82199  0.18483  0.31596  1
