CIF file written using JARVIS-Tools package.
data_Ti2HPd
_symmetry_space_group_name_H-M  'P4/mmm'
_cell_length_a       2.87934
_cell_length_b       2.87934
_cell_length_c       11.9786
_cell_angle_alpha    90
_cell_angle_beta     90
_cell_angle_gamma    90

_symmetry_Int_Tables_number  123
_chemical_formula_structural  Ti2HPd
_chemical_formula_sum  Ti4H2Pd2
_cell_volume  99.31024047766051
_cell_formula_units_Z  2
loop_
  _symmetry_equiv_pos_site_id
 _symmetry_equiv_pos_as_xyz
 1  'x, y, z'
loop_
 _atom_site_type_symbol
 _atom_site_label
 _atom_site_symmetry_multiplicity
 _atom_site_fract_x
 _atom_site_fract_y
 _atom_site_fract_z
 _atom_site_fract_occupancy
 H  H1  1  0.50000  0.50000  0.31678  1
 H  H2  1  0.50000  0.50000  0.68322  1
 Pd  Pd1  1  0.00000  0.00000  0.00000  1
 Pd  Pd2  1  0.50000  0.50000  0.50000  1
 Ti  Ti1  1  0.00000  0.00000  0.33286  1
 Ti  Ti2  1  0.00000  0.00000  0.66714  1
 Ti  Ti3  1  0.50000  0.50000  0.84150  1
 Ti  Ti4  1  0.50000  0.50000  0.15850  1
