CIF file written using JARVIS-Tools package.
data_TiO2
_symmetry_space_group_name_H-M  'P-62m'
_cell_length_a       3.11277
_cell_length_b       5.32224
_cell_length_c       5.32242
_cell_angle_alpha    119.999
_cell_angle_beta     90
_cell_angle_gamma    90

_symmetry_Int_Tables_number  189
_chemical_formula_structural  TiO2
_chemical_formula_sum  Ti3O6
_cell_volume  76.36363034030143
_cell_formula_units_Z  3
loop_
  _symmetry_equiv_pos_site_id
 _symmetry_equiv_pos_as_xyz
 1  'x, y, z'
loop_
 _atom_site_type_symbol
 _atom_site_label
 _atom_site_symmetry_multiplicity
 _atom_site_fract_x
 _atom_site_fract_y
 _atom_site_fract_z
 _atom_site_fract_occupancy
 O  O1  1  0.50000  0.26231  -0.00000  1
 O  O2  1  0.50000  0.73766  0.73767  1
 O  O3  1  0.50000  0.99999  0.26233  1
 O  O4  1  0.00000  0.60048  0.00000  1
 O  O5  1  0.00000  0.39951  0.39949  1
 O  O6  1  0.00000  0.00002  0.60051  1
 Ti  Ti1  1  0.50000  0.33331  0.66667  1
 Ti  Ti2  1  0.50000  0.66664  0.33333  1
 Ti  Ti3  1  0.00000  0.99999  -0.00000  1
