CIF file written using JARVIS-Tools package.
data_K2OsNCl5
_symmetry_space_group_name_H-M  'Cmc2_1'
_cell_length_a       8.20473
_cell_length_b       7.75801
_cell_length_c       7.758
_cell_angle_alpha    102.138
_cell_angle_beta     90
_cell_angle_gamma    90

_symmetry_Int_Tables_number  36
_chemical_formula_structural  K2OsNCl5
_chemical_formula_sum  K4Os2N2Cl0
_cell_volume  482.77591783490084
_cell_formula_units_Z  2
loop_
  _symmetry_equiv_pos_site_id
 _symmetry_equiv_pos_as_xyz
 1  'x, y, z'
loop_
 _atom_site_type_symbol
 _atom_site_label
 _atom_site_symmetry_multiplicity
 _atom_site_fract_x
 _atom_site_fract_y
 _atom_site_fract_z
 _atom_site_fract_occupancy
 Cl  Cl1  1  0.91504  0.94546  0.72148  1
 Cl  Cl2  1  0.04888  0.20490  0.45514  1
 Cl  Cl3  1  0.41504  0.05454  0.27852  1
 Cl  Cl4  1  0.54888  0.79510  0.54486  1
 Cl  Cl5  1  0.71396  0.32040  0.67960  1
 Cl  Cl6  1  0.41504  0.72148  0.94546  1
 Cl  Cl7  1  0.21396  0.67960  0.32040  1
 Cl  Cl8  1  0.54888  0.45514  0.20490  1
 Cl  Cl9  1  0.91504  0.27852  0.05454  1
 Cl  Cl10  1  0.04888  0.54486  0.79510  1
 K  K1  1  0.06155  0.90450  0.09550  1
 K  K2  1  0.37454  0.43750  0.56250  1
 K  K3  1  0.56155  0.09550  0.90450  1
 K  K4  1  0.87454  0.56250  0.43750  1
 N  N1  1  0.71463  0.80777  0.19223  1
 N  N2  1  0.21463  0.19223  0.80777  1
 Os  Os1  1  0.02147  0.23492  0.76508  1
 Os  Os2  1  0.52147  0.76508  0.23492  1
