CIF file written using JARVIS-Tools package.
data_RbCrF6
_symmetry_space_group_name_H-M  'R-3'
_cell_length_a       4.95759
_cell_length_b       4.95758
_cell_length_c       4.95758
_cell_angle_alpha    97.2076
_cell_angle_beta     97.2077
_cell_angle_gamma    97.2076

_symmetry_Int_Tables_number  148
_chemical_formula_structural  RbCrF6
_chemical_formula_sum  RbCrF6
_cell_volume  118.68719310169287
_cell_formula_units_Z  1
loop_
  _symmetry_equiv_pos_site_id
 _symmetry_equiv_pos_as_xyz
 1  'x, y, z'
loop_
 _atom_site_type_symbol
 _atom_site_label
 _atom_site_symmetry_multiplicity
 _atom_site_fract_x
 _atom_site_fract_y
 _atom_site_fract_z
 _atom_site_fract_occupancy
 Cr  Cr1  1  0.50000  0.50000  0.50000  1
 F  F1  1  0.19737  0.30378  0.57685  1
 F  F2  1  0.30378  0.57685  0.19737  1
 F  F3  1  0.42315  0.80263  0.69622  1
 F  F4  1  0.69622  0.42315  0.80263  1
 F  F5  1  0.80263  0.69622  0.42315  1
 F  F6  1  0.57685  0.19737  0.30378  1
 Rb  Rb1  1  0.00000  0.00000  0.00000  1
