CIF file written using JARVIS-Tools package.
data_Li4ZrF8
_symmetry_space_group_name_H-M  'Pnma'
_cell_length_a       5.65377
_cell_length_b       9.57484
_cell_length_c       9.63634
_cell_angle_alpha    90
_cell_angle_beta     90
_cell_angle_gamma    90

_symmetry_Int_Tables_number  62
_chemical_formula_structural  Li4ZrF8
_chemical_formula_sum  Li6Zr4F32
_cell_volume  521.6534087600667
_cell_formula_units_Z  4
loop_
  _symmetry_equiv_pos_site_id
 _symmetry_equiv_pos_as_xyz
 1  'x, y, z'
loop_
 _atom_site_type_symbol
 _atom_site_label
 _atom_site_symmetry_multiplicity
 _atom_site_fract_x
 _atom_site_fract_y
 _atom_site_fract_z
 _atom_site_fract_occupancy
 F  F1  1  0.61906  0.21064  0.75000  1
 F  F2  1  0.87323  0.26378  0.96425  1
 F  F3  1  0.12677  0.73622  0.46425  1
 F  F4  1  0.62677  0.76378  0.53575  1
 F  F5  1  0.62677  0.76378  0.96425  1
 F  F6  1  0.12677  0.73622  0.03575  1
 F  F7  1  0.87323  0.26378  0.53575  1
 F  F8  1  0.37323  0.23622  0.46425  1
 F  F9  1  0.60516  0.02270  0.37973  1
 F  F10  1  0.88094  0.71064  0.75000  1
 F  F11  1  0.89484  0.52270  0.12027  1
 F  F12  1  0.37323  0.23622  0.03575  1
 F  F13  1  0.39484  0.97730  0.87973  1
 F  F14  1  0.89484  0.52270  0.37973  1
 F  F15  1  0.10516  0.47730  0.87973  1
 F  F16  1  0.60516  0.02270  0.12027  1
 F  F17  1  0.14430  0.02024  0.38384  1
 F  F18  1  0.10516  0.47730  0.62027  1
 F  F19  1  0.87696  0.79043  0.25000  1
 F  F20  1  0.85570  0.97976  0.88384  1
 F  F21  1  0.64430  0.47976  0.61616  1
 F  F22  1  0.35570  0.52024  0.38384  1
 F  F23  1  0.64430  0.47976  0.88384  1
 F  F24  1  0.39484  0.97730  0.62027  1
 F  F25  1  0.11906  0.28936  0.25000  1
 F  F26  1  0.35570  0.52024  0.11616  1
 F  F27  1  0.38094  0.78936  0.25000  1
 F  F28  1  0.62304  0.29043  0.25000  1
 F  F29  1  0.37696  0.70957  0.75000  1
 F  F30  1  0.85570  0.97976  0.61616  1
 F  F31  1  0.14430  0.02024  0.11616  1
 F  F32  1  0.12304  0.20957  0.75000  1
 Li  Li1  1  0.62934  0.39814  0.41843  1
 Li  Li2  1  0.12934  0.10186  0.58157  1
 Li  Li3  1  0.87066  0.89814  0.08157  1
 Li  Li4  1  0.37066  0.60186  0.91843  1
 Li  Li5  1  0.37066  0.60186  0.58157  1
 Li  Li6  1  0.87066  0.89814  0.41843  1
 Li  Li7  1  0.62934  0.39814  0.08157  1
 Li  Li8  1  0.12934  0.10186  0.91843  1
 Li  Li9  1  0.61835  0.13088  0.55804  1
 Li  Li10  1  0.88165  0.63088  0.55804  1
 Li  Li11  1  0.88165  0.63088  0.94196  1
 Li  Li12  1  0.38165  0.86912  0.44196  1
 Li  Li13  1  0.61835  0.13088  0.94196  1
 Li  Li14  1  0.11835  0.36912  0.44196  1
 Li  Li15  1  0.38165  0.86912  0.05804  1
 Li  Li16  1  0.11835  0.36912  0.05804  1
 Zr  Zr1  1  0.37098  0.13535  0.25000  1
 Zr  Zr2  1  0.62902  0.86465  0.75000  1
 Zr  Zr3  1  0.12902  0.63535  0.25000  1
 Zr  Zr4  1  0.87098  0.36465  0.75000  1
