CIF file written using JARVIS-Tools package.
data_EuZn2Sn2
_symmetry_space_group_name_H-M  'P2_1/m'
_cell_length_a       4.25636
_cell_length_b       4.67413
_cell_length_c       11.8996
_cell_angle_alpha    99.4985
_cell_angle_beta     90
_cell_angle_gamma    90

_symmetry_Int_Tables_number  11
_chemical_formula_structural  EuZn2Sn2
_chemical_formula_sum  Eu2Zn4Sn4
_cell_volume  233.49419773012804
_cell_formula_units_Z  2
loop_
  _symmetry_equiv_pos_site_id
 _symmetry_equiv_pos_as_xyz
 1  'x, y, z'
loop_
 _atom_site_type_symbol
 _atom_site_label
 _atom_site_symmetry_multiplicity
 _atom_site_fract_x
 _atom_site_fract_y
 _atom_site_fract_z
 _atom_site_fract_occupancy
 Eu  Eu1  1  0.74829  0.70362  0.25672  1
 Eu  Eu2  1  0.24829  0.29638  0.74328  1
 Sn  Sn1  1  0.24830  0.19151  0.13700  1
 Sn  Sn2  1  0.74830  0.80849  0.86300  1
 Sn  Sn3  1  0.74827  0.25558  0.50888  1
 Sn  Sn4  1  0.24827  0.74442  0.49112  1
 Zn  Zn1  1  0.24826  0.19373  0.35441  1
 Zn  Zn2  1  0.74829  0.33664  -0.00705  1
 Zn  Zn3  1  0.74826  0.80627  0.64559  1
 Zn  Zn4  1  0.24829  0.66336  0.00705  1
