CIF file written using JARVIS-Tools package.
data_Na3ThP3O11
_symmetry_space_group_name_H-M  'P-1'
_cell_length_a       6.53197
_cell_length_b       8.68791
_cell_length_c       8.87419
_cell_angle_alpha    109.617
_cell_angle_beta     93.2788
_cell_angle_gamma    103.702

_symmetry_Int_Tables_number  2
_chemical_formula_structural  Na3ThP3O11
_chemical_formula_sum  Na6Th2P6O22
_cell_volume  455.6986272297092
_cell_formula_units_Z  2
loop_
  _symmetry_equiv_pos_site_id
 _symmetry_equiv_pos_as_xyz
 1  'x, y, z'
loop_
 _atom_site_type_symbol
 _atom_site_label
 _atom_site_symmetry_multiplicity
 _atom_site_fract_x
 _atom_site_fract_y
 _atom_site_fract_z
 _atom_site_fract_occupancy
 Na  Na1  1  0.40651  0.18181  0.56444  1
 Na  Na2  1  0.36081  0.99266  0.13117  1
 Na  Na3  1  0.63919  0.00734  0.86883  1
 Na  Na4  1  0.59349  0.81819  0.43556  1
 Na  Na5  1  0.30561  0.58675  0.04094  1
 Na  Na6  1  0.69439  0.41325  0.95906  1
 O  O1  1  0.40685  0.26251  0.33202  1
 O  O2  1  0.93494  0.20044  0.46339  1
 O  O3  1  0.98801  0.96625  0.83967  1
 O  O4  1  0.62091  0.85948  0.10909  1
 O  O5  1  0.01199  0.03375  0.16033  1
 O  O6  1  0.30022  0.90474  0.35344  1
 O  O7  1  0.08841  0.59768  0.25394  1
 O  O8  1  0.09129  0.28237  0.00274  1
 O  O9  1  0.91159  0.40232  0.74606  1
 O  O10  1  0.29073  0.72080  0.83776  1
 O  O11  1  0.59315  0.73749  0.66798  1
 O  O12  1  0.22655  0.52618  0.55636  1
 O  O13  1  0.37909  0.14052  0.89091  1
 O  O14  1  0.11084  0.17827  0.70378  1
 O  O15  1  0.49876  0.49286  0.76090  1
 O  O16  1  0.70927  0.27920  0.16224  1
 O  O17  1  0.06506  0.79956  0.53661  1
 O  O18  1  0.88916  0.82173  0.29622  1
 O  O19  1  0.50124  0.50714  0.23910  1
 O  O20  1  0.90871  0.71763  0.99726  1
 O  O21  1  0.69978  0.09526  0.64656  1
 O  O22  1  0.77345  0.47382  0.44364  1
 P  P1  1  0.40476  0.61549  0.70697  1
 P  P2  1  0.89997  0.21905  0.63617  1
 P  P3  1  0.59524  0.38451  0.29303  1
 P  P4  1  0.85215  0.86236  0.13091  1
 P  P5  1  0.10003  0.78095  0.36383  1
 P  P6  1  0.14785  0.13764  0.86909  1
 Th  Th1  1  0.07392  0.33454  0.28803  1
 Th  Th2  1  0.92608  0.66546  0.71197  1
