CIF file written using JARVIS-Tools package.
data_UMo5O16
_symmetry_space_group_name_H-M  'P2'
_cell_length_a       4.12999
_cell_length_b       7.2124
_cell_length_c       9.93046
_cell_angle_alpha    90.4269
_cell_angle_beta     90
_cell_angle_gamma    90

_symmetry_Int_Tables_number  3
_chemical_formula_structural  UMo5O16
_chemical_formula_sum  UMo5O6
_cell_volume  295.7912408881567
_cell_formula_units_Z  1
loop_
  _symmetry_equiv_pos_site_id
 _symmetry_equiv_pos_as_xyz
 1  'x, y, z'
loop_
 _atom_site_type_symbol
 _atom_site_label
 _atom_site_symmetry_multiplicity
 _atom_site_fract_x
 _atom_site_fract_y
 _atom_site_fract_z
 _atom_site_fract_occupancy
 Mo  Mo1  1  0.89199  0.50000  -0.00000  1
 Mo  Mo2  1  0.89764  0.24838  0.31912  1
 Mo  Mo3  1  0.09099  0.74978  0.31896  1
 Mo  Mo4  1  0.09099  0.25022  0.68104  1
 Mo  Mo5  1  0.89764  0.75162  0.68088  1
 O  O1  1  0.99485  0.49913  0.34956  1
 O  O2  1  0.99404  0.80557  0.50019  1
 O  O3  1  0.50510  0.24984  0.68242  1
 O  O4  1  0.50510  0.75016  0.31758  1
 O  O5  1  0.48335  0.24836  0.31723  1
 O  O6  1  0.48335  0.75164  0.68277  1
 O  O7  1  0.49745  0.00000  0.00000  1
 O  O8  1  0.47784  0.50000  -0.00000  1
 O  O9  1  0.99554  0.70398  0.12443  1
 O  O10  1  0.99404  0.19443  0.49981  1
 O  O11  1  0.98025  0.28950  0.12159  1
 O  O12  1  0.99693  0.00115  0.75223  1
 O  O13  1  0.99693  -0.00115  0.24777  1
 O  O14  1  0.99485  0.50087  0.65044  1
 O  O15  1  0.99554  0.29602  0.87557  1
 O  O16  1  0.98025  0.71050  0.87842  1
 U  U1  1  0.99747  0.00000  0.00000  1
