CIF file written using JARVIS-Tools package.
data_Mg7TiH16
_symmetry_space_group_name_H-M  'Fm-3m'
_cell_length_a       6.61094
_cell_length_b       6.61097
_cell_length_c       6.61095
_cell_angle_alpha    59.9985
_cell_angle_beta     59.9984
_cell_angle_gamma    59.9984

_symmetry_Int_Tables_number  225
_chemical_formula_structural  Mg7TiH16
_chemical_formula_sum  Mg7TiH6
_cell_volume  204.29722246170172
_cell_formula_units_Z  1
loop_
  _symmetry_equiv_pos_site_id
 _symmetry_equiv_pos_as_xyz
 1  'x, y, z'
loop_
 _atom_site_type_symbol
 _atom_site_label
 _atom_site_symmetry_multiplicity
 _atom_site_fract_x
 _atom_site_fract_y
 _atom_site_fract_z
 _atom_site_fract_occupancy
 H  H1  1  0.62680  0.11961  0.62680  1
 H  H2  1  0.36205  0.87932  0.87932  1
 H  H3  1  0.87931  0.87932  0.36205  1
 H  H4  1  0.87932  0.36205  0.87932  1
 H  H5  1  0.37320  0.88040  0.37320  1
 H  H6  1  0.63795  0.12068  0.12068  1
 H  H7  1  0.12068  0.12069  0.63795  1
 H  H8  1  0.87932  0.87932  0.87932  1
 H  H9  1  0.12068  0.12068  0.12068  1
 H  H10  1  0.11960  0.62680  0.62680  1
 H  H11  1  0.62680  0.62680  0.11960  1
 H  H12  1  0.37321  0.37320  0.37320  1
 H  H13  1  0.62680  0.62680  0.62680  1
 H  H14  1  0.88040  0.37320  0.37320  1
 H  H15  1  0.37320  0.37320  0.88040  1
 H  H16  1  0.12068  0.63795  0.12068  1
 Mg  Mg1  1  -0.00000  0.50000  0.00000  1
 Mg  Mg2  1  -0.00000  0.00000  0.50000  1
 Mg  Mg3  1  0.00000  0.50000  0.50000  1
 Mg  Mg4  1  0.50000  0.00000  0.50001  1
 Mg  Mg5  1  0.50000  0.50000  0.00000  1
 Mg  Mg6  1  0.50000  -0.00000  -0.00000  1
 Mg  Mg7  1  0.50000  0.50000  0.50000  1
 Ti  Ti1  1  0.00001  -0.00001  -0.00000  1
