CIF file written using JARVIS-Tools package.
data_TeRhCl
_symmetry_space_group_name_H-M  'C2/m'
_cell_length_a       3.71495
_cell_length_b       6.71477
_cell_length_c       6.78384
_cell_angle_alpha    118.058
_cell_angle_beta     105.891
_cell_angle_gamma    90.0001

_symmetry_Int_Tables_number  12
_chemical_formula_structural  TeRhCl
_chemical_formula_sum  Te2Rh2Cl2
_cell_volume  141.96423633030858
_cell_formula_units_Z  2
loop_
  _symmetry_equiv_pos_site_id
 _symmetry_equiv_pos_as_xyz
 1  'x, y, z'
loop_
 _atom_site_type_symbol
 _atom_site_label
 _atom_site_symmetry_multiplicity
 _atom_site_fract_x
 _atom_site_fract_y
 _atom_site_fract_z
 _atom_site_fract_occupancy
 Cl  Cl1  1  0.36901  0.03765  0.73801  1
 Cl  Cl2  1  0.63099  0.96235  0.26199  1
 Rh  Rh1  1  0.25138  0.24708  0.50277  1
 Rh  Rh2  1  0.74862  0.75292  0.49723  1
 Te  Te1  1  0.86828  0.53707  0.73656  1
 Te  Te2  1  0.13172  0.46293  0.26344  1
