CIF file written using JARVIS-Tools package.
data_K3Co
_symmetry_space_group_name_H-M  'P4/mbm'
_cell_length_a       5.73222
_cell_length_b       7.90795
_cell_length_c       7.91215
_cell_angle_alpha    90
_cell_angle_beta     90
_cell_angle_gamma    90.0548

_symmetry_Int_Tables_number  127
_chemical_formula_structural  K3Co
_chemical_formula_sum  K6Co2
_cell_volume  358.6585749600788
_cell_formula_units_Z  2
loop_
  _symmetry_equiv_pos_site_id
 _symmetry_equiv_pos_as_xyz
 1  'x, y, z'
loop_
 _atom_site_type_symbol
 _atom_site_label
 _atom_site_symmetry_multiplicity
 _atom_site_fract_x
 _atom_site_fract_y
 _atom_site_fract_z
 _atom_site_fract_occupancy
 Co  Co1  1  -0.00000  0.50000  0.50000  1
 Co  Co2  1  0.00000  0.00000  0.00000  1
 K  K1  1  0.00000  0.00000  0.50000  1
 K  K2  1  -0.00000  0.50000  0.00000  1
 K  K3  1  0.50005  0.31818  0.68190  1
 K  K4  1  0.49995  0.18182  0.18190  1
 K  K5  1  0.49995  0.68182  0.31810  1
 K  K6  1  0.50005  0.81818  0.81810  1
