CIF file written using JARVIS-Tools package.
data_La2MgGeO6
_symmetry_space_group_name_H-M  'R-3'
_cell_length_a       5.49774
_cell_length_b       5.49774
_cell_length_c       5.49773
_cell_angle_alpha    60.7867
_cell_angle_beta     60.7867
_cell_angle_gamma    60.7868

_symmetry_Int_Tables_number  148
_chemical_formula_structural  La2MgGeO6
_chemical_formula_sum  La2MgGeO6
_cell_volume  119.584862583851
_cell_formula_units_Z  1
loop_
  _symmetry_equiv_pos_site_id
 _symmetry_equiv_pos_as_xyz
 1  'x, y, z'
loop_
 _atom_site_type_symbol
 _atom_site_label
 _atom_site_symmetry_multiplicity
 _atom_site_fract_x
 _atom_site_fract_y
 _atom_site_fract_z
 _atom_site_fract_occupancy
 Ge  Ge1  1  0.50040  0.50040  0.50040  1
 La  La1  1  0.74985  0.74985  0.74985  1
 La  La2  1  0.25094  0.25094  0.25094  1
 Mg  Mg1  1  0.00040  0.00040  0.00040  1
 O  O1  1  0.26203  0.80369  0.67988  1
 O  O2  1  0.80369  0.67988  0.26203  1
 O  O3  1  0.67988  0.26203  0.80369  1
 O  O4  1  0.32092  0.73878  0.19711  1
 O  O5  1  0.19711  0.32092  0.73878  1
 O  O6  1  0.73878  0.19711  0.32092  1
