CIF file written using JARVIS-Tools package.
data_LaF3
_symmetry_space_group_name_H-M  'P-3c1'
_cell_length_a       7.19858
_cell_length_b       7.19859
_cell_length_c       7.35463
_cell_angle_alpha    90
_cell_angle_beta     90
_cell_angle_gamma    120

_symmetry_Int_Tables_number  165
_chemical_formula_structural  LaF3
_chemical_formula_sum  La6F8
_cell_volume  330.054346055789
_cell_formula_units_Z  6
loop_
  _symmetry_equiv_pos_site_id
 _symmetry_equiv_pos_as_xyz
 1  'x, y, z'
loop_
 _atom_site_type_symbol
 _atom_site_label
 _atom_site_symmetry_multiplicity
 _atom_site_fract_x
 _atom_site_fract_y
 _atom_site_fract_z
 _atom_site_fract_occupancy
 F  F1  1  0.68907  0.05755  0.41903  1
 F  F2  1  0.00000  0.00000  0.25000  1
 F  F3  1  0.33333  0.66667  0.81880  1
 F  F4  1  0.66667  0.33333  0.68120  1
 F  F5  1  0.66667  0.33333  0.18120  1
 F  F6  1  0.33333  0.66667  0.31880  1
 F  F7  1  0.31093  0.94245  0.58097  1
 F  F8  1  0.05755  0.36848  0.58097  1
 F  F9  1  0.63152  0.68907  0.58097  1
 F  F10  1  0.36848  0.05755  0.91903  1
 F  F11  1  0.00000  0.00000  0.75000  1
 F  F12  1  0.94245  0.31093  0.91903  1
 F  F13  1  0.94245  0.63152  0.41903  1
 F  F14  1  0.36848  0.31093  0.41903  1
 F  F15  1  0.63152  0.94245  0.08097  1
 F  F16  1  0.31093  0.36848  0.08097  1
 F  F17  1  0.05755  0.68907  0.08097  1
 F  F18  1  0.68907  0.63152  0.91903  1
 La  La1  1  0.00000  0.34219  0.25000  1
 La  La2  1  0.34219  0.34219  0.75000  1
 La  La3  1  -0.00000  0.65781  0.75000  1
 La  La4  1  0.65781  -0.00000  0.75000  1
 La  La5  1  0.65781  0.65781  0.25000  1
 La  La6  1  0.34219  0.00000  0.25000  1
