CIF file written using JARVIS-Tools package.
data_Ho3TaO7
_symmetry_space_group_name_H-M  'C222_1'
_cell_length_a       6.44342
_cell_length_b       6.44343
_cell_length_c       7.42886
_cell_angle_alpha    90
_cell_angle_beta     90
_cell_angle_gamma    108.83

_symmetry_Int_Tables_number  20
_chemical_formula_structural  Ho3TaO7
_chemical_formula_sum  Ho6Ta2O4
_cell_volume  291.92184902668146
_cell_formula_units_Z  2
loop_
  _symmetry_equiv_pos_site_id
 _symmetry_equiv_pos_as_xyz
 1  'x, y, z'
loop_
 _atom_site_type_symbol
 _atom_site_label
 _atom_site_symmetry_multiplicity
 _atom_site_fract_x
 _atom_site_fract_y
 _atom_site_fract_z
 _atom_site_fract_occupancy
 Ho  Ho1  1  0.46432  0.00013  0.00852  1
 Ho  Ho2  1  0.53568  -0.00013  0.50852  1
 Ho  Ho3  1  0.00013  0.46432  0.49148  1
 Ho  Ho4  1  -0.00013  0.53568  0.99148  1
 Ho  Ho5  1  0.46754  0.46754  0.75000  1
 Ho  Ho6  1  0.53246  0.53246  0.25000  1
 O  O1  1  0.07011  0.92989  0.00000  1
 O  O2  1  0.36101  0.63899  0.00000  1
 O  O3  1  0.63899  0.36101  0.50000  1
 O  O4  1  0.37059  0.62941  0.50000  1
 O  O5  1  0.62941  0.37059  0.00000  1
 O  O6  1  0.32941  0.08298  0.72490  1
 O  O7  1  0.67059  0.91702  0.22490  1
 O  O8  1  0.94664  0.68902  0.70575  1
 O  O9  1  0.92989  0.07011  0.50000  1
 O  O10  1  0.68902  0.94664  0.79425  1
 O  O11  1  0.91702  0.67059  0.27510  1
 O  O12  1  0.08298  0.32941  0.77510  1
 O  O13  1  0.31098  0.05336  0.29425  1
 O  O14  1  0.05336  0.31098  0.20575  1
 Ta  Ta1  1  0.00183  0.00183  0.25000  1
 Ta  Ta2  1  0.99817  0.99817  0.75000  1
