CIF file written using JARVIS-Tools package.
data_Cr3GeN
_symmetry_space_group_name_H-M  'P-42_1m'
_cell_length_a       4.00381
_cell_length_b       5.2892
_cell_length_c       5.28916
_cell_angle_alpha    89.9988
_cell_angle_beta     90.0012
_cell_angle_gamma    89.9999

_symmetry_Int_Tables_number  113
_chemical_formula_structural  Cr3GeN
_chemical_formula_sum  Cr6Ge2N2
_cell_volume  112.008025810267
_cell_formula_units_Z  2
loop_
  _symmetry_equiv_pos_site_id
 _symmetry_equiv_pos_as_xyz
 1  'x, y, z'
loop_
 _atom_site_type_symbol
 _atom_site_label
 _atom_site_symmetry_multiplicity
 _atom_site_fract_x
 _atom_site_fract_y
 _atom_site_fract_z
 _atom_site_fract_occupancy
 Cr  Cr1  1  0.91571  0.70491  0.79508  1
 Cr  Cr2  1  0.91571  0.29509  0.20492  1
 Cr  Cr3  1  0.49999  0.00000  0.00000  1
 Cr  Cr4  1  0.08430  0.79508  0.29509  1
 Cr  Cr5  1  0.08430  0.20491  0.70492  1
 Cr  Cr6  1  0.50000  0.50000  0.50000  1
 Ge  Ge1  1  0.43904  0.50001  0.00000  1
 Ge  Ge2  1  0.56096  -0.00000  0.50000  1
 N  N1  1  0.00001  0.50000  0.50000  1
 N  N2  1  -0.00001  0.00000  -0.00000  1
