CIF file written using JARVIS-Tools package.
data_K3Ge4Au
_symmetry_space_group_name_H-M  'Pmmn'
_cell_length_a       6.16835
_cell_length_b       6.63081
_cell_length_c       11.8454
_cell_angle_alpha    90
_cell_angle_beta     90
_cell_angle_gamma    90

_symmetry_Int_Tables_number  59
_chemical_formula_structural  K3Ge4Au
_chemical_formula_sum  K6Ge8Au2
_cell_volume  484.4910116762261
_cell_formula_units_Z  2
loop_
  _symmetry_equiv_pos_site_id
 _symmetry_equiv_pos_as_xyz
 1  'x, y, z'
loop_
 _atom_site_type_symbol
 _atom_site_label
 _atom_site_symmetry_multiplicity
 _atom_site_fract_x
 _atom_site_fract_y
 _atom_site_fract_z
 _atom_site_fract_occupancy
 Au  Au1  1  0.68636  0.00000  0.00000  1
 Au  Au2  1  0.31364  0.50000  0.50000  1
 Ge  Ge1  1  0.94472  0.28986  0.50000  1
 Ge  Ge2  1  0.94472  0.71014  0.50000  1
 Ge  Ge3  1  0.05528  0.21014  0.00000  1
 Ge  Ge4  1  0.05528  0.78986  0.00000  1
 Ge  Ge5  1  0.32429  0.00000  0.11913  1
 Ge  Ge6  1  0.32429  0.00000  0.88087  1
 Ge  Ge7  1  0.67571  0.50000  0.61913  1
 Ge  Ge8  1  0.67571  0.50000  0.38087  1
 K  K1  1  0.83026  0.00000  0.73657  1
 K  K2  1  0.83026  0.00000  0.26343  1
 K  K3  1  0.16974  0.50000  0.23657  1
 K  K4  1  0.16974  0.50000  0.76343  1
 K  K5  1  0.42417  0.00000  0.50000  1
 K  K6  1  0.57583  0.50000  0.00000  1
