CIF file written using JARVIS-Tools package.
data_MgGa3
_symmetry_space_group_name_H-M  'P6_3/mmc'
_cell_length_a       5.90569
_cell_length_b       5.90568
_cell_length_c       5.02218
_cell_angle_alpha    90
_cell_angle_beta     90
_cell_angle_gamma    120

_symmetry_Int_Tables_number  194
_chemical_formula_structural  MgGa3
_chemical_formula_sum  Mg2Ga6
_cell_volume  151.69230843806955
_cell_formula_units_Z  2
loop_
  _symmetry_equiv_pos_site_id
 _symmetry_equiv_pos_as_xyz
 1  'x, y, z'
loop_
 _atom_site_type_symbol
 _atom_site_label
 _atom_site_symmetry_multiplicity
 _atom_site_fract_x
 _atom_site_fract_y
 _atom_site_fract_z
 _atom_site_fract_occupancy
 Ga  Ga1  1  0.16403  0.83597  0.75000  1
 Ga  Ga2  1  0.67194  0.83597  0.75000  1
 Ga  Ga3  1  0.16403  0.32806  0.75000  1
 Ga  Ga4  1  0.83597  0.16403  0.25000  1
 Ga  Ga5  1  0.83597  0.67194  0.25000  1
 Ga  Ga6  1  0.32806  0.16403  0.25000  1
 Mg  Mg1  1  0.66667  0.33333  0.75000  1
 Mg  Mg2  1  0.33333  0.66667  0.25000  1
