CIF file written using JARVIS-Tools package.
data_ThC2
_symmetry_space_group_name_H-M  'P4_2/mmc'
_cell_length_a       4.30881
_cell_length_b       4.30881
_cell_length_c       5.24905
_cell_angle_alpha    90
_cell_angle_beta     90
_cell_angle_gamma    90

_symmetry_Int_Tables_number  131
_chemical_formula_structural  ThC2
_chemical_formula_sum  Th2C4
_cell_volume  97.45318051921475
_cell_formula_units_Z  2
loop_
  _symmetry_equiv_pos_site_id
 _symmetry_equiv_pos_as_xyz
 1  'x, y, z'
loop_
 _atom_site_type_symbol
 _atom_site_label
 _atom_site_symmetry_multiplicity
 _atom_site_fract_x
 _atom_site_fract_y
 _atom_site_fract_z
 _atom_site_fract_occupancy
 C  C1  1  0.00000  0.34787  0.50000  1
 C  C2  1  0.00000  0.65213  0.50000  1
 C  C3  1  0.65213  0.00000  0.00000  1
 C  C4  1  0.34787  0.00000  0.00000  1
 Th  Th1  1  0.50000  0.00000  0.50000  1
 Th  Th2  1  0.00000  0.50000  0.00000  1
