CIF file written using JARVIS-Tools package.
data_Ba4Tl2Cu2HgO10
_symmetry_space_group_name_H-M  'I4/mmm'
_cell_length_a       3.89358
_cell_length_b       3.89357
_cell_length_c       21.7675
_cell_angle_alpha    95.1311
_cell_angle_beta     95.1311
_cell_angle_gamma    90

_symmetry_Int_Tables_number  139
_chemical_formula_structural  Ba4Tl2Cu2HgO10
_chemical_formula_sum  Ba4Tl2Cu2HgO0
_cell_volume  327.34325207670116
_cell_formula_units_Z  1
loop_
  _symmetry_equiv_pos_site_id
 _symmetry_equiv_pos_as_xyz
 1  'x, y, z'
loop_
 _atom_site_type_symbol
 _atom_site_label
 _atom_site_symmetry_multiplicity
 _atom_site_fract_x
 _atom_site_fract_y
 _atom_site_fract_z
 _atom_site_fract_occupancy
 Ba  Ba1  1  0.34183  0.34183  0.68365  1
 Ba  Ba2  1  0.56838  0.56838  0.13676  1
 Ba  Ba3  1  0.43162  0.43162  0.86324  1
 Ba  Ba4  1  0.65817  0.65817  0.31635  1
 Cu  Cu1  1  0.11362  0.11362  0.22724  1
 Cu  Cu2  1  0.88638  0.88638  0.77276  1
 Hg  Hg1  1  0.00000  0.00000  0.00000  1
 O  O1  1  0.17619  0.17619  0.35238  1
 O  O2  1  0.95331  0.95331  0.90663  1
 O  O3  1  0.72790  0.72790  0.45580  1
 O  O4  1  0.88727  0.38727  0.77454  1
 O  O5  1  0.82381  0.82381  0.64762  1
 O  O6  1  0.27210  0.27210  0.54420  1
 O  O7  1  0.38727  0.88727  0.77454  1
 O  O8  1  0.04669  0.04669  0.09337  1
 O  O9  1  0.11273  0.61273  0.22546  1
 O  O10  1  0.61273  0.11273  0.22546  1
 Tl  Tl1  1  0.77643  0.77643  0.55287  1
 Tl  Tl2  1  0.22357  0.22357  0.44713  1
