CIF file written using JARVIS-Tools package.
data_Mg6FeSi
_symmetry_space_group_name_H-M  'Amm2'
_cell_length_a       6.03806
_cell_length_b       6.07854
_cell_length_c       4.80477
_cell_angle_alpha    90
_cell_angle_beta     90
_cell_angle_gamma    120.222

_symmetry_Int_Tables_number  38
_chemical_formula_structural  Mg6FeSi
_chemical_formula_sum  Mg6FeSi
_cell_volume  152.3784990257692
_cell_formula_units_Z  1
loop_
  _symmetry_equiv_pos_site_id
 _symmetry_equiv_pos_as_xyz
 1  'x, y, z'
loop_
 _atom_site_type_symbol
 _atom_site_label
 _atom_site_symmetry_multiplicity
 _atom_site_fract_x
 _atom_site_fract_y
 _atom_site_fract_z
 _atom_site_fract_occupancy
 Fe  Fe1  1  0.16513  0.33257  0.25000  1
 Mg  Mg1  1  0.66753  0.33223  0.25000  1
 Mg  Mg2  1  0.66753  0.83531  0.25000  1
 Mg  Mg3  1  0.32543  0.17000  0.75000  1
 Mg  Mg4  1  0.32543  0.65542  0.75000  1
 Mg  Mg5  1  0.84789  0.17395  0.75000  1
 Mg  Mg6  1  0.83961  0.66981  0.75000  1
 Si  Si1  1  0.16145  0.83072  0.25000  1
