CIF file written using JARVIS-Tools package.
data_BH3O3
_symmetry_space_group_name_H-M  'P-1'
_cell_length_a       6.9644
_cell_length_b       6.94499
_cell_length_c       6.1736
_cell_angle_alpha    88.206
_cell_angle_beta     104.456
_cell_angle_gamma    120.219

_symmetry_Int_Tables_number  2
_chemical_formula_structural  BH3O3
_chemical_formula_sum  B4H2O2
_cell_volume  248.2621464886943
_cell_formula_units_Z  4
loop_
  _symmetry_equiv_pos_site_id
 _symmetry_equiv_pos_as_xyz
 1  'x, y, z'
loop_
 _atom_site_type_symbol
 _atom_site_label
 _atom_site_symmetry_multiplicity
 _atom_site_fract_x
 _atom_site_fract_y
 _atom_site_fract_z
 _atom_site_fract_occupancy
 B  B1  1  0.31365  0.54899  0.73450  1
 B  B2  1  0.68635  0.45101  0.26550  1
 B  B3  1  0.65656  0.22190  0.76530  1
 B  B4  1  0.34344  0.77810  0.23470  1
 H  H1  1  0.95293  0.40825  0.25763  1
 H  H2  1  0.69288  0.53084  0.75160  1
 H  H3  1  0.63032  0.82217  0.75983  1
 H  H4  1  0.36968  0.17783  0.24017  1
 H  H5  1  0.04707  0.59175  0.74237  1
 H  H6  1  0.30712  0.46916  0.24840  1
 H  H7  1  0.34349  0.95069  0.75542  1
 H  H8  1  0.65651  0.04931  0.24458  1
 H  H9  1  0.92261  0.17983  0.75595  1
 H  H10  1  0.27239  0.23895  0.73355  1
 H  H11  1  0.72761  0.76105  0.26645  1
 H  H12  1  0.07739  0.82017  0.24405  1
 O  O1  1  0.42759  0.11890  0.76167  1
 O  O2  1  0.54482  0.65338  0.74607  1
 O  O3  1  0.45518  0.34662  0.25393  1
 O  O4  1  0.78631  0.32395  0.26041  1
 O  O5  1  0.21369  0.67605  0.73959  1
 O  O6  1  0.21971  0.54988  0.24248  1
 O  O7  1  0.78029  0.45012  0.75752  1
 O  O8  1  0.76068  0.09722  0.77251  1
 O  O9  1  0.23932  0.90278  0.22749  1
 O  O10  1  0.18406  0.31917  0.72162  1
 O  O11  1  0.81594  0.68083  0.27838  1
 O  O12  1  0.57241  0.88110  0.23833  1
