CIF file written using JARVIS-Tools package.
data_Hg2CN2Cl2
_symmetry_space_group_name_H-M  'P2_1/c'
_cell_length_a       7.8208
_cell_length_b       8.30161
_cell_length_c       9.03694
_cell_angle_alpha    90
_cell_angle_beta     90
_cell_angle_gamma    106.277

_symmetry_Int_Tables_number  14
_chemical_formula_structural  Hg2CN2Cl2
_chemical_formula_sum  Hg8C4N8Cl8
_cell_volume  563.2074928682794
_cell_formula_units_Z  4
loop_
  _symmetry_equiv_pos_site_id
 _symmetry_equiv_pos_as_xyz
 1  'x, y, z'
loop_
 _atom_site_type_symbol
 _atom_site_label
 _atom_site_symmetry_multiplicity
 _atom_site_fract_x
 _atom_site_fract_y
 _atom_site_fract_z
 _atom_site_fract_occupancy
 C  C1  1  0.93138  0.13746  0.40886  1
 C  C2  1  0.06862  0.86254  0.59114  1
 C  C3  1  0.43138  0.13746  0.09114  1
 C  C4  1  0.56862  0.86254  0.90886  1
 Cl  Cl1  1  0.75185  0.48824  0.74783  1
 Cl  Cl2  1  0.42022  0.19674  0.51886  1
 Cl  Cl3  1  0.24815  0.51176  0.25217  1
 Cl  Cl4  1  0.57978  0.80326  0.48114  1
 Cl  Cl5  1  0.07978  0.80326  0.01886  1
 Cl  Cl6  1  0.74815  0.51176  0.24783  1
 Cl  Cl7  1  0.92022  0.19674  0.98114  1
 Cl  Cl8  1  0.25185  0.48824  0.75217  1
 Hg  Hg1  1  0.50000  0.50000  0.50000  1
 Hg  Hg2  1  0.00000  0.50000  0.50000  1
 Hg  Hg3  1  0.50000  0.50000  0.00000  1
 Hg  Hg4  1  0.73099  0.10816  0.68022  1
 Hg  Hg5  1  0.26901  0.89184  0.31978  1
 Hg  Hg6  1  0.00000  0.50000  0.00000  1
 Hg  Hg7  1  0.23099  0.10816  0.81978  1
 Hg  Hg8  1  0.76901  0.89184  0.18022  1
 N  N1  1  0.46506  0.03853  0.17684  1
 N  N2  1  0.53494  0.96147  0.82316  1
 N  N3  1  0.96506  0.03853  0.32316  1
 N  N4  1  0.03494  0.96147  0.67684  1
 N  N5  1  0.90196  0.23341  0.50656  1
 N  N6  1  0.59804  0.76659  0.00656  1
 N  N7  1  0.40196  0.23341  0.99344  1
 N  N8  1  0.09804  0.76659  0.49344  1
