CIF file written using JARVIS-Tools package.
data_RbMgF3
_symmetry_space_group_name_H-M  'P6_3/mmc'
_cell_length_a       6.85462
_cell_length_b       6.85462
_cell_length_c       14.1914
_cell_angle_alpha    90
_cell_angle_beta     90
_cell_angle_gamma    120

_symmetry_Int_Tables_number  194
_chemical_formula_structural  RbMgF3
_chemical_formula_sum  Rb6Mg6F8
_cell_volume  577.4599324299875
_cell_formula_units_Z  6
loop_
  _symmetry_equiv_pos_site_id
 _symmetry_equiv_pos_as_xyz
 1  'x, y, z'
loop_
 _atom_site_type_symbol
 _atom_site_label
 _atom_site_symmetry_multiplicity
 _atom_site_fract_x
 _atom_site_fract_y
 _atom_site_fract_z
 _atom_site_fract_occupancy
 F  F1  1  0.45627  0.54373  0.75000  1
 F  F2  1  0.54373  0.45627  0.25000  1
 F  F3  1  0.73100  0.86550  0.08490  1
 F  F4  1  0.86550  0.73100  0.91510  1
 F  F5  1  0.26900  0.13450  0.91510  1
 F  F6  1  0.13450  0.86550  0.08490  1
 F  F7  1  0.86550  0.13450  0.58490  1
 F  F8  1  0.45627  0.91253  0.75000  1
 F  F9  1  0.73100  0.86550  0.41510  1
 F  F10  1  0.13450  0.26900  0.41510  1
 F  F11  1  0.26900  0.13450  0.58490  1
 F  F12  1  0.13450  0.26900  0.08490  1
 F  F13  1  0.86550  0.13450  0.91510  1
 F  F14  1  0.08747  0.54373  0.75000  1
 F  F15  1  0.86550  0.73100  0.58490  1
 F  F16  1  0.91253  0.45627  0.25000  1
 F  F17  1  0.54373  0.08747  0.25000  1
 F  F18  1  0.13450  0.86550  0.41510  1
 Mg  Mg1  1  0.66667  0.33333  0.34211  1
 Mg  Mg2  1  0.33333  0.66667  0.65789  1
 Mg  Mg3  1  0.66667  0.33333  0.15789  1
 Mg  Mg4  1  0.00000  0.00000  0.50000  1
 Mg  Mg5  1  0.33333  0.66667  0.84211  1
 Mg  Mg6  1  0.00000  0.00000  0.00000  1
 Rb  Rb1  1  0.00000  0.00000  0.75000  1
 Rb  Rb2  1  0.00000  0.00000  0.25000  1
 Rb  Rb3  1  0.66667  0.33333  0.63945  1
 Rb  Rb4  1  0.66667  0.33333  0.86055  1
 Rb  Rb5  1  0.33333  0.66667  0.36055  1
 Rb  Rb6  1  0.33333  0.66667  0.13945  1
