CIF file written using JARVIS-Tools package.
data_SrAgSF
_symmetry_space_group_name_H-M  'P4/nmm'
_cell_length_a       4.08282
_cell_length_b       4.08282
_cell_length_c       9.07611
_cell_angle_alpha    90
_cell_angle_beta     90
_cell_angle_gamma    90

_symmetry_Int_Tables_number  129
_chemical_formula_structural  SrAgSF
_chemical_formula_sum  Sr2Ag2S2F2
_cell_volume  151.2938434763432
_cell_formula_units_Z  2
loop_
  _symmetry_equiv_pos_site_id
 _symmetry_equiv_pos_as_xyz
 1  'x, y, z'
loop_
 _atom_site_type_symbol
 _atom_site_label
 _atom_site_symmetry_multiplicity
 _atom_site_fract_x
 _atom_site_fract_y
 _atom_site_fract_z
 _atom_site_fract_occupancy
 Ag  Ag1  1  0.25000  0.75000  0.50000  1
 Ag  Ag2  1  0.75000  0.25000  0.50000  1
 F  F1  1  0.25000  0.75000  0.00000  1
 F  F2  1  0.75000  0.25000  0.00000  1
 S  S1  1  0.75000  0.75000  0.30428  1
 S  S2  1  0.25000  0.25000  0.69572  1
 Sr  Sr1  1  0.75000  0.75000  0.84301  1
 Sr  Sr2  1  0.25000  0.25000  0.15699  1
