CIF file written using JARVIS-Tools package.
data_Li3CrO4
_symmetry_space_group_name_H-M  'I-42m'
_cell_length_a       4.43684
_cell_length_b       4.4368
_cell_length_c       8.53322
_cell_angle_alpha    89.9992
_cell_angle_beta     90.0001
_cell_angle_gamma    90.0125

_symmetry_Int_Tables_number  121
_chemical_formula_structural  Li3CrO4
_chemical_formula_sum  Li6Cr2O8
_cell_volume  167.97946908143402
_cell_formula_units_Z  2
loop_
  _symmetry_equiv_pos_site_id
 _symmetry_equiv_pos_as_xyz
 1  'x, y, z'
loop_
 _atom_site_type_symbol
 _atom_site_label
 _atom_site_symmetry_multiplicity
 _atom_site_fract_x
 _atom_site_fract_y
 _atom_site_fract_z
 _atom_site_fract_occupancy
 Cr  Cr1  1  -0.00002  0.00001  0.93750  1
 Cr  Cr2  1  0.50002  0.49998  0.43750  1
 Li  Li1  1  0.00001  0.50000  0.18751  1
 Li  Li2  1  0.00000  0.50002  0.68751  1
 Li  Li3  1  0.49998  0.50002  0.93751  1
 Li  Li4  1  0.49999  -0.00001  0.18751  1
 Li  Li5  1  0.49998  -0.00001  0.68751  1
 Li  Li6  1  0.00001  -0.00002  0.43751  1
 O  O1  1  0.72482  0.72479  0.32226  1
 O  O2  1  0.77521  0.22479  0.05271  1
 O  O3  1  0.22479  0.22482  0.82226  1
 O  O4  1  0.72480  0.27520  0.55272  1
 O  O5  1  0.27523  0.72476  0.55271  1
 O  O6  1  0.77518  0.77521  0.82227  1
 O  O7  1  0.22477  0.77522  0.05271  1
 O  O8  1  0.27521  0.27518  0.32227  1
