CIF file written using JARVIS-Tools package.
data_Li7V5O12
_symmetry_space_group_name_H-M  'C2'
_cell_length_a       4.98397
_cell_length_b       4.98397
_cell_length_c       9.50154
_cell_angle_alpha    85.6268
_cell_angle_beta     94.3732
_cell_angle_gamma    61.5952

_symmetry_Int_Tables_number  5
_chemical_formula_structural  Li7V5O12
_chemical_formula_sum  Li7V5O2
_cell_volume  205.28793601667556
_cell_formula_units_Z  1
loop_
  _symmetry_equiv_pos_site_id
 _symmetry_equiv_pos_as_xyz
 1  'x, y, z'
loop_
 _atom_site_type_symbol
 _atom_site_label
 _atom_site_symmetry_multiplicity
 _atom_site_fract_x
 _atom_site_fract_y
 _atom_site_fract_z
 _atom_site_fract_occupancy
 Li  Li1  1  0.24413  0.24413  0.75000  1
 Li  Li2  1  0.15798  0.66075  0.50834  1
 Li  Li3  1  0.32175  0.85374  0.99068  1
 Li  Li4  1  0.66075  0.15798  0.99166  1
 Li  Li5  1  0.85374  0.32175  0.50932  1
 Li  Li6  1  0.75204  0.75204  0.25000  1
 Li  Li7  1  0.92153  0.92153  0.75000  1
 O  O1  1  0.63819  0.84290  0.87776  1
 O  O2  1  0.73335  0.44392  0.12961  1
 O  O3  1  0.44392  0.73335  0.37039  1
 O  O4  1  0.53956  0.28688  0.62587  1
 O  O5  1  0.28688  0.53956  0.87413  1
 O  O6  1  0.35209  0.15216  0.12540  1
 O  O7  1  0.15216  0.35209  0.37460  1
 O  O8  1  0.05896  0.77597  0.12802  1
 O  O9  1  0.94008  0.23343  0.87284  1
 O  O10  1  0.77597  0.05896  0.37198  1
 O  O11  1  0.84290  0.63819  0.62224  1
 O  O12  1  0.23343  0.94008  0.62716  1
 V  V1  1  0.07863  0.07863  0.25000  1
 V  V2  1  0.57474  0.57474  0.75000  1
 V  V3  1  0.50847  0.00124  0.51336  1
 V  V4  1  0.42749  0.42749  0.25000  1
 V  V5  1  0.00124  0.50847  0.98664  1
