CIF file written using JARVIS-Tools package.
data_LiScO2
_symmetry_space_group_name_H-M  'I4_1/amd'
_cell_length_a       4.20366
_cell_length_b       4.20366
_cell_length_c       5.50501
_cell_angle_alpha    112.445
_cell_angle_beta     112.445
_cell_angle_gamma    90

_symmetry_Int_Tables_number  141
_chemical_formula_structural  LiScO2
_chemical_formula_sum  Li2Sc2O4
_cell_volume  81.87835340563427
_cell_formula_units_Z  2
loop_
  _symmetry_equiv_pos_site_id
 _symmetry_equiv_pos_as_xyz
 1  'x, y, z'
loop_
 _atom_site_type_symbol
 _atom_site_label
 _atom_site_symmetry_multiplicity
 _atom_site_fract_x
 _atom_site_fract_y
 _atom_site_fract_z
 _atom_site_fract_occupancy
 Li  Li1  1  0.87500  0.12500  0.75000  1
 Li  Li2  1  0.12500  0.87500  0.25000  1
 O  O1  1  0.14476  0.39476  0.28952  1
 O  O2  1  0.39476  0.14476  0.78952  1
 O  O3  1  0.60524  0.85524  0.21048  1
 O  O4  1  0.85524  0.60524  0.71048  1
 Sc  Sc1  1  0.62500  0.37500  0.25000  1
 Sc  Sc2  1  0.37500  0.62500  0.75000  1
