CIF file written using JARVIS-Tools package.
data_Tl2SnO3
_symmetry_space_group_name_H-M  'Pnma'
_cell_length_a       3.29155
_cell_length_b       10.3218
_cell_length_c       12.5397
_cell_angle_alpha    90
_cell_angle_beta     90
_cell_angle_gamma    90

_symmetry_Int_Tables_number  62
_chemical_formula_structural  Tl2SnO3
_chemical_formula_sum  Tl8Sn4O2
_cell_volume  426.0331580834127
_cell_formula_units_Z  4
loop_
  _symmetry_equiv_pos_site_id
 _symmetry_equiv_pos_as_xyz
 1  'x, y, z'
loop_
 _atom_site_type_symbol
 _atom_site_label
 _atom_site_symmetry_multiplicity
 _atom_site_fract_x
 _atom_site_fract_y
 _atom_site_fract_z
 _atom_site_fract_occupancy
 O  O1  1  0.75000  0.21260  0.30847  1
 O  O2  1  0.25000  0.28740  0.80847  1
 O  O3  1  0.25000  0.45775  0.19214  1
 O  O4  1  0.75000  0.54225  0.80786  1
 O  O5  1  0.25000  0.95775  0.30786  1
 O  O6  1  0.75000  0.04225  0.69214  1
 O  O7  1  0.25000  0.10750  0.49122  1
 O  O8  1  0.75000  0.89250  0.50878  1
 O  O9  1  0.25000  0.60750  0.00878  1
 O  O10  1  0.75000  0.39250  0.99122  1
 O  O11  1  0.25000  0.78740  0.69153  1
 O  O12  1  0.75000  0.71260  0.19153  1
 Sn  Sn1  1  0.75000  0.54049  0.11090  1
 Sn  Sn2  1  0.75000  0.04049  0.38910  1
 Sn  Sn3  1  0.25000  0.95951  0.61090  1
 Sn  Sn4  1  0.25000  0.45951  0.88910  1
 Tl  Tl1  1  0.25000  0.20874  0.14992  1
 Tl  Tl2  1  0.75000  0.79126  0.85008  1
 Tl  Tl3  1  0.25000  0.70874  0.35008  1
 Tl  Tl4  1  0.75000  0.29126  0.64992  1
 Tl  Tl5  1  0.25000  0.36731  0.39362  1
 Tl  Tl6  1  0.75000  0.63269  0.60638  1
 Tl  Tl7  1  0.25000  0.86731  0.10638  1
 Tl  Tl8  1  0.75000  0.13269  0.89362  1
