CIF file written using JARVIS-Tools package.
data_YCuW2O8
_symmetry_space_group_name_H-M  'P-1'
_cell_length_a       5.03895
_cell_length_b       6.05025
_cell_length_c       6.06441
_cell_angle_alpha    109.734
_cell_angle_beta     113.319
_cell_angle_gamma    91.6078

_symmetry_Int_Tables_number  2
_chemical_formula_structural  YCuW2O8
_chemical_formula_sum  YCuW2O8
_cell_volume  156.99033816807076
_cell_formula_units_Z  1
loop_
  _symmetry_equiv_pos_site_id
 _symmetry_equiv_pos_as_xyz
 1  'x, y, z'
loop_
 _atom_site_type_symbol
 _atom_site_label
 _atom_site_symmetry_multiplicity
 _atom_site_fract_x
 _atom_site_fract_y
 _atom_site_fract_z
 _atom_site_fract_occupancy
 Cu  Cu1  1  0.12494  0.22346  0.09985  1
 O  O1  1  0.13494  0.65614  0.83623  1
 O  O2  1  0.63048  0.51164  0.35388  1
 O  O3  1  0.16565  0.19935  0.80318  1
 O  O4  1  0.59319  0.05377  0.40564  1
 O  O5  1  0.61872  0.93466  0.84539  1
 O  O6  1  0.11430  0.79027  0.36309  1
 O  O7  1  0.65613  0.39258  0.79369  1
 O  O8  1  0.08369  0.24708  0.39617  1
 W  W1  1  0.86911  0.39611  0.58167  1
 W  W2  1  0.38021  0.05026  0.61766  1
 Y  Y1  1  0.62464  0.72318  0.09965  1
