CIF file written using JARVIS-Tools package.
data_YSn3
_symmetry_space_group_name_H-M  'Amm2'
_cell_length_a       4.42304
_cell_length_b       4.45469
_cell_length_c       11.3286
_cell_angle_alpha    101.339
_cell_angle_beta     90
_cell_angle_gamma    90

_symmetry_Int_Tables_number  38
_chemical_formula_structural  YSn3
_chemical_formula_sum  Y2Sn6
_cell_volume  218.85371156892478
_cell_formula_units_Z  2
loop_
  _symmetry_equiv_pos_site_id
 _symmetry_equiv_pos_as_xyz
 1  'x, y, z'
loop_
 _atom_site_type_symbol
 _atom_site_label
 _atom_site_symmetry_multiplicity
 _atom_site_fract_x
 _atom_site_fract_y
 _atom_site_fract_z
 _atom_site_fract_occupancy
 Sn  Sn1  1  0.50000  0.09819  0.19639  1
 Sn  Sn2  1  0.50000  0.73489  0.46978  1
 Sn  Sn3  1  0.50000  0.86875  0.73751  1
 Sn  Sn4  1  0.00000  0.97539  0.95079  1
 Sn  Sn5  1  0.00000  0.35864  0.71729  1
 Sn  Sn6  1  0.00000  0.59823  0.19646  1
 Y  Y1  1  0.50000  0.48234  0.96468  1
 Y  Y2  1  0.00000  0.20956  0.41912  1
