CIF file written using JARVIS-Tools package.
data_La2CuSnO6
_symmetry_space_group_name_H-M  'P2_1/m'
_cell_length_a       7.83344
_cell_length_b       7.83929
_cell_length_c       8.64546
_cell_angle_alpha    91.7138
_cell_angle_beta     90
_cell_angle_gamma    90

_symmetry_Int_Tables_number  11
_chemical_formula_structural  La2CuSnO6
_chemical_formula_sum  La8Cu4Sn4O24
_cell_volume  530.6685738133419
_cell_formula_units_Z  4
loop_
  _symmetry_equiv_pos_site_id
 _symmetry_equiv_pos_as_xyz
 1  'x, y, z'
loop_
 _atom_site_type_symbol
 _atom_site_label
 _atom_site_symmetry_multiplicity
 _atom_site_fract_x
 _atom_site_fract_y
 _atom_site_fract_z
 _atom_site_fract_occupancy
 Cu  Cu1  1  0.50000  0.50000  0.00000  1
 Cu  Cu2  1  0.00000  0.00000  0.00000  1
 Cu  Cu3  1  0.50000  0.00000  0.00000  1
 Cu  Cu4  1  0.00000  0.50000  0.00000  1
 La  La1  1  0.25000  0.79363  0.75568  1
 La  La2  1  0.25000  0.77150  0.19385  1
 La  La3  1  0.25000  0.28463  0.20989  1
 La  La4  1  0.75000  0.71537  0.79011  1
 La  La5  1  0.75000  0.20637  0.24432  1
 La  La6  1  0.25000  0.28249  0.77427  1
 La  La7  1  0.75000  0.71751  0.22573  1
 La  La8  1  0.75000  0.22850  0.80615  1
 O  O1  1  0.45596  0.24778  0.42042  1
 O  O2  1  0.75000  0.96510  0.97345  1
 O  O3  1  0.25000  0.03490  0.02655  1
 O  O4  1  0.03304  0.75087  0.96112  1
 O  O5  1  0.54404  0.75222  0.57958  1
 O  O6  1  0.96696  0.24913  0.03888  1
 O  O7  1  0.44679  0.56054  0.27481  1
 O  O8  1  0.94679  0.43946  0.72519  1
 O  O9  1  0.55321  0.43946  0.72519  1
 O  O10  1  0.05321  0.56054  0.27481  1
 O  O11  1  0.25000  0.91791  0.45824  1
 O  O12  1  0.04404  0.24778  0.42042  1
 O  O13  1  0.75000  0.08209  0.54176  1
 O  O14  1  0.44641  0.05438  0.72927  1
 O  O15  1  0.75000  0.47631  0.41163  1
 O  O16  1  0.25000  0.47397  0.99077  1
 O  O17  1  0.46696  0.75087  0.96112  1
 O  O18  1  0.75000  0.52603  0.00923  1
 O  O19  1  0.95596  0.75222  0.57958  1
 O  O20  1  0.05359  0.05438  0.72927  1
 O  O21  1  0.55359  0.94562  0.27073  1
 O  O22  1  0.94641  0.94562  0.27073  1
 O  O23  1  0.25000  0.52369  0.58837  1
 O  O24  1  0.53304  0.24913  0.03888  1
 Sn  Sn1  1  0.50000  -0.00000  0.50000  1
 Sn  Sn2  1  0.00000  -0.00000  0.50000  1
 Sn  Sn3  1  0.00000  0.50000  0.50000  1
 Sn  Sn4  1  0.50000  0.50000  0.50000  1
