CIF file written using JARVIS-Tools package.
data_Na3GaP2H2O9
_symmetry_space_group_name_H-M  'C2/m'
_cell_length_a       8.51959
_cell_length_b       8.51959
_cell_length_c       7.03661
_cell_angle_alpha    84.3034
_cell_angle_beta     95.6966
_cell_angle_gamma    130.156

_symmetry_Int_Tables_number  12
_chemical_formula_structural  Na3GaP2H2O9
_chemical_formula_sum  Na6Ga2P4H4O8
_cell_volume  388.0095956226327
_cell_formula_units_Z  2
loop_
  _symmetry_equiv_pos_site_id
 _symmetry_equiv_pos_as_xyz
 1  'x, y, z'
loop_
 _atom_site_type_symbol
 _atom_site_label
 _atom_site_symmetry_multiplicity
 _atom_site_fract_x
 _atom_site_fract_y
 _atom_site_fract_z
 _atom_site_fract_occupancy
 Ga  Ga1  1  -0.00000  0.50000  -0.00000  1
 Ga  Ga2  1  0.50000  -0.00000  0.00000  1
 H  H1  1  0.94233  0.05767  0.61193  1
 H  H2  1  0.05767  0.94233  0.38807  1
 H  H3  1  0.81225  0.18775  0.81379  1
 H  H4  1  0.18775  0.81225  0.18621  1
 Na  Na1  1  0.23425  0.23425  -0.00000  1
 Na  Na2  1  0.76575  0.76575  0.00000  1
 Na  Na3  1  0.38668  0.61332  0.28846  1
 Na  Na4  1  0.61332  0.38668  0.71154  1
 Na  Na5  1  -0.00000  0.50000  0.50000  1
 Na  Na6  1  0.50000  0.00000  0.50000  1
 O  O1  1  0.52047  0.47953  0.21980  1
 O  O2  1  0.17638  0.46760  0.88606  1
 O  O3  1  0.46760  0.17638  0.11394  1
 O  O4  1  0.82362  0.53240  0.11394  1
 O  O5  1  0.66707  0.33293  0.42877  1
 O  O6  1  0.00875  0.34831  0.23788  1
 O  O7  1  0.47953  0.52047  0.78020  1
 O  O8  1  0.75947  0.24053  0.87897  1
 O  O9  1  0.33293  0.66707  0.57123  1
 O  O10  1  0.99125  0.65169  0.76212  1
 O  O11  1  0.65169  0.99125  0.23788  1
 O  O12  1  0.97344  0.02656  0.23904  1
 O  O13  1  0.02656  0.97344  0.76096  1
 O  O14  1  0.88346  0.11654  0.52969  1
 O  O15  1  0.11654  0.88346  0.47031  1
 O  O16  1  0.53240  0.82362  0.88606  1
 O  O17  1  0.34831  0.00875  0.76212  1
 O  O18  1  0.24053  0.75947  0.12103  1
 P  P1  1  0.38073  0.61927  0.77326  1
 P  P2  1  0.61927  0.38073  0.22674  1
 P  P3  1  0.11853  0.88147  0.69923  1
 P  P4  1  0.88147  0.11853  0.30077  1
