CIF file written using JARVIS-Tools package.
data_SN
_symmetry_space_group_name_H-M  'Pnma'
_cell_length_a       3.06759
_cell_length_b       4.68195
_cell_length_c       9.60311
_cell_angle_alpha    90
_cell_angle_beta     71.3421
_cell_angle_gamma    90

_symmetry_Int_Tables_number  62
_chemical_formula_structural  SN
_chemical_formula_sum  S4N4
_cell_volume  130.6743569489168
_cell_formula_units_Z  4
loop_
  _symmetry_equiv_pos_site_id
 _symmetry_equiv_pos_as_xyz
 1  'x, y, z'
loop_
 _atom_site_type_symbol
 _atom_site_label
 _atom_site_symmetry_multiplicity
 _atom_site_fract_x
 _atom_site_fract_y
 _atom_site_fract_z
 _atom_site_fract_occupancy
 N  N1  1  0.60078  0.90853  0.64887  1
 N  N2  1  0.39922  0.09147  0.35113  1
 N  N3  1  0.10078  0.59147  0.14887  1
 N  N4  1  0.89922  0.40853  0.85113  1
 S  S1  1  0.62571  0.22182  0.62394  1
 S  S2  1  0.37429  0.77818  0.37606  1
 S  S3  1  0.12571  0.27818  0.12394  1
 S  S4  1  0.87429  0.72182  0.87606  1
