CIF file written using JARVIS-Tools package.
data_NaSiBO4
_symmetry_space_group_name_H-M  'P6_3'
_cell_length_a       8.06843
_cell_length_b       8.06844
_cell_length_c       7.70252
_cell_angle_alpha    90
_cell_angle_beta     90
_cell_angle_gamma    120

_symmetry_Int_Tables_number  173
_chemical_formula_structural  NaSiBO4
_chemical_formula_sum  Na6Si6B6O24
_cell_volume  434.2519021910102
_cell_formula_units_Z  6
loop_
  _symmetry_equiv_pos_site_id
 _symmetry_equiv_pos_as_xyz
 1  'x, y, z'
loop_
 _atom_site_type_symbol
 _atom_site_label
 _atom_site_symmetry_multiplicity
 _atom_site_fract_x
 _atom_site_fract_y
 _atom_site_fract_z
 _atom_site_fract_occupancy
 B  B1  1  0.66167  0.98117  0.39287  1
 B  B2  1  0.01883  0.68051  0.39287  1
 B  B3  1  0.33833  0.01883  0.89287  1
 B  B4  1  0.31949  0.33833  0.39287  1
 B  B5  1  0.68051  0.66167  0.89287  1
 B  B6  1  0.98117  0.31949  0.89287  1
 Na  Na1  1  0.00000  0.00000  0.23110  1
 Na  Na2  1  0.66667  0.33333  0.76642  1
 Na  Na3  1  0.33333  0.66667  0.69739  1
 Na  Na4  1  0.00000  0.00000  0.73110  1
 Na  Na5  1  0.66667  0.33333  0.19739  1
 Na  Na6  1  0.33333  0.66667  0.26642  1
 O  O1  1  0.25077  0.11154  0.99274  1
 O  O2  1  0.13923  0.25077  0.49274  1
 O  O3  1  0.21042  0.80972  0.88920  1
 O  O4  1  0.47035  0.92594  0.46832  1
 O  O5  1  0.11154  0.86077  0.49274  1
 O  O6  1  0.40070  0.21042  0.38920  1
 O  O7  1  0.09655  0.72818  0.21331  1
 O  O8  1  0.92594  0.45559  0.96832  1
 O  O9  1  0.63162  0.90345  0.21331  1
 O  O10  1  0.88846  0.13923  0.99274  1
 O  O11  1  0.36838  0.09655  0.71331  1
 O  O12  1  0.59930  0.78958  0.88920  1
 O  O13  1  0.19028  0.40070  0.88920  1
 O  O14  1  0.90345  0.27182  0.71331  1
 O  O15  1  0.72818  0.63162  0.71331  1
 O  O16  1  0.86077  0.74923  0.99274  1
 O  O17  1  0.45559  0.52965  0.46832  1
 O  O18  1  0.54441  0.47035  0.96832  1
 O  O19  1  0.80972  0.59930  0.38920  1
 O  O20  1  0.07406  0.54441  0.46832  1
 O  O21  1  0.74923  0.88846  0.49274  1
 O  O22  1  0.52965  0.07406  0.96832  1
 O  O23  1  0.27182  0.36838  0.21331  1
 O  O24  1  0.78958  0.19028  0.38920  1
 Si  Si1  1  0.66093  0.97735  0.01239  1
 Si  Si2  1  0.97735  0.31642  0.51239  1
 Si  Si3  1  0.02265  0.68358  0.01239  1
 Si  Si4  1  0.31642  0.33907  0.01239  1
 Si  Si5  1  0.33907  0.02265  0.51239  1
 Si  Si6  1  0.68358  0.66093  0.51239  1
