CIF file written using JARVIS-Tools package.
data_Pb5I2F8
_symmetry_space_group_name_H-M  'R3m'
_cell_length_a       19.2175
_cell_length_b       19.2175
_cell_length_c       19.2175
_cell_angle_alpha    12.8801
_cell_angle_beta     12.8801
_cell_angle_gamma    12.8801

_symmetry_Int_Tables_number  160
_chemical_formula_structural  Pb5I2F8
_chemical_formula_sum  Pb5I2F8
_cell_volume  306.70028131680965
_cell_formula_units_Z  1
loop_
  _symmetry_equiv_pos_site_id
 _symmetry_equiv_pos_as_xyz
 1  'x, y, z'
loop_
 _atom_site_type_symbol
 _atom_site_label
 _atom_site_symmetry_multiplicity
 _atom_site_fract_x
 _atom_site_fract_y
 _atom_site_fract_z
 _atom_site_fract_occupancy
 F  F1  1  0.14671  0.14671  0.14671  1
 F  F2  1  0.24244  0.24244  0.24244  1
 F  F3  1  0.34234  0.34234  0.34234  1
 F  F4  1  0.51773  0.51773  0.51773  1
 F  F5  1  0.87907  0.87907  0.87907  1
 F  F6  1  0.04799  0.04799  0.04799  1
 F  F7  1  0.69407  0.69407  0.69407  1
 F  F8  1  0.82821  0.82821  0.82821  1
 I  I1  1  0.76186  0.76186  0.76186  1
 I  I2  1  0.62604  0.62604  0.62604  1
 Pb  Pb1  1  0.00565  0.00565  0.00565  1
 Pb  Pb2  1  0.38851  0.38851  0.38851  1
 Pb  Pb3  1  0.47507  0.47507  0.47507  1
 Pb  Pb4  1  0.19125  0.19125  0.19125  1
 Pb  Pb5  1  0.91926  0.91926  0.91926  1
