CIF file written using JARVIS-Tools package.
data_PH8IN4
_symmetry_space_group_name_H-M  'Cmme'
_cell_length_a       8.48987
_cell_length_b       8.48986
_cell_length_c       4.6304
_cell_angle_alpha    90.0002
_cell_angle_beta     89.9999
_cell_angle_gamma    90.0916

_symmetry_Int_Tables_number  67
_chemical_formula_structural  PH8IN4
_chemical_formula_sum  P2H6I2N8
_cell_volume  333.7487401995533
_cell_formula_units_Z  2
loop_
  _symmetry_equiv_pos_site_id
 _symmetry_equiv_pos_as_xyz
 1  'x, y, z'
loop_
 _atom_site_type_symbol
 _atom_site_label
 _atom_site_symmetry_multiplicity
 _atom_site_fract_x
 _atom_site_fract_y
 _atom_site_fract_z
 _atom_site_fract_occupancy
 H  H1  1  0.02404  0.83201  0.26153  1
 H  H2  1  0.97596  0.16799  0.73847  1
 H  H3  1  0.47596  0.66799  0.26153  1
 H  H4  1  0.97608  0.33232  0.25897  1
 H  H5  1  0.52392  0.16768  0.25897  1
 H  H6  1  0.52404  0.33201  0.73847  1
 H  H7  1  0.02392  0.66768  0.74103  1
 H  H8  1  0.83201  0.02404  0.73847  1
 H  H9  1  0.47608  0.83232  0.74103  1
 H  H10  1  0.33232  0.97608  0.74103  1
 H  H11  1  0.16768  0.52392  0.74103  1
 H  H12  1  0.33201  0.52404  0.26153  1
 H  H13  1  0.66768  0.02392  0.25897  1
 H  H14  1  0.83232  0.47608  0.25897  1
 H  H15  1  0.16799  0.97596  0.26153  1
 H  H16  1  0.66799  0.47596  0.73847  1
 I  I1  1  0.25000  0.25000  0.00000  1
 I  I2  1  0.75000  0.75000  0.00000  1
 N  N1  1  0.37125  0.87125  0.65969  1
 N  N2  1  0.87125  0.37125  0.34030  1
 N  N3  1  0.37108  0.62892  0.34294  1
 N  N4  1  0.87108  0.12892  0.65706  1
 N  N5  1  0.62875  0.12875  0.34030  1
 N  N6  1  0.12875  0.62875  0.65969  1
 N  N7  1  0.12892  0.87108  0.34294  1
 N  N8  1  0.62892  0.37108  0.65707  1
 P  P1  1  0.25000  0.75000  0.50128  1
 P  P2  1  0.75000  0.25000  0.49871  1
