CIF file written using JARVIS-Tools package.
data_Hg4P2O7
_symmetry_space_group_name_H-M  'P2/c'
_cell_length_a       4.8702
_cell_length_b       9.22539
_cell_length_c       9.81506
_cell_angle_alpha    99.9201
_cell_angle_beta     90
_cell_angle_gamma    90

_symmetry_Int_Tables_number  13
_chemical_formula_structural  Hg4P2O7
_chemical_formula_sum  Hg8P4O4
_cell_volume  434.3928097032462
_cell_formula_units_Z  2
loop_
  _symmetry_equiv_pos_site_id
 _symmetry_equiv_pos_as_xyz
 1  'x, y, z'
loop_
 _atom_site_type_symbol
 _atom_site_label
 _atom_site_symmetry_multiplicity
 _atom_site_fract_x
 _atom_site_fract_y
 _atom_site_fract_z
 _atom_site_fract_occupancy
 Hg  Hg1  1  0.67529  0.51626  0.10017  1
 Hg  Hg2  1  0.32471  0.48374  0.89983  1
 Hg  Hg3  1  0.32471  0.01626  0.60017  1
 Hg  Hg4  1  0.43785  0.31543  0.37774  1
 Hg  Hg5  1  0.43785  0.18457  0.12226  1
 Hg  Hg6  1  0.56215  0.68457  0.62226  1
 Hg  Hg7  1  0.56215  0.81543  0.87774  1
 Hg  Hg8  1  0.67529  0.98374  0.39983  1
 O  O1  1  0.63879  0.41119  0.58085  1
 O  O2  1  0.36121  0.91119  0.08085  1
 O  O3  1  0.36121  0.58881  0.41915  1
 O  O4  1  0.75770  0.25000  0.75000  1
 O  O5  1  0.24230  0.75000  0.25000  1
 O  O6  1  0.06379  0.24395  0.53931  1
 O  O7  1  0.06379  0.25605  0.96069  1
 O  O8  1  0.93621  0.75605  0.46069  1
 O  O9  1  0.95394  0.52049  0.27154  1
 O  O10  1  0.04606  0.47951  0.72846  1
 O  O11  1  0.63879  0.08881  0.91915  1
 O  O12  1  0.04606  0.02049  0.77154  1
 O  O13  1  0.93621  0.74395  0.03931  1
 O  O14  1  0.95394  0.97951  0.22846  1
 P  P1  1  0.89337  0.34846  0.64301  1
 P  P2  1  0.89337  0.15154  0.85699  1
 P  P3  1  0.10663  0.65154  0.35699  1
 P  P4  1  0.10663  0.84846  0.14301  1
