CIF file written using JARVIS-Tools package.
data_ErCdGa
_symmetry_space_group_name_H-M  'P-62m'
_cell_length_a       4.33445
_cell_length_b       7.19166
_cell_length_c       7.19165
_cell_angle_alpha    120
_cell_angle_beta     90
_cell_angle_gamma    90

_symmetry_Int_Tables_number  189
_chemical_formula_structural  ErCdGa
_chemical_formula_sum  Er3Cd3Ga3
_cell_volume  194.1428217240633
_cell_formula_units_Z  3
loop_
  _symmetry_equiv_pos_site_id
 _symmetry_equiv_pos_as_xyz
 1  'x, y, z'
loop_
 _atom_site_type_symbol
 _atom_site_label
 _atom_site_symmetry_multiplicity
 _atom_site_fract_x
 _atom_site_fract_y
 _atom_site_fract_z
 _atom_site_fract_occupancy
 Cd  Cd1  1  0.00000  0.25110  -0.00000  1
 Cd  Cd2  1  0.00000  0.74888  0.74889  1
 Cd  Cd3  1  0.00000  0.99999  0.25111  1
 Er  Er1  1  0.50000  0.57757  0.00000  1
 Er  Er2  1  0.50000  0.42240  0.42241  1
 Er  Er3  1  0.50000  0.99999  0.57759  1
 Ga  Ga1  1  0.00000  0.33332  0.66667  1
 Ga  Ga2  1  0.00000  0.66666  0.33333  1
 Ga  Ga3  1  0.50000  0.99999  -0.00000  1
