CIF file written using JARVIS-Tools package.
data_K2Al2B2O7
_symmetry_space_group_name_H-M  'P321'
_cell_length_a       8.62962
_cell_length_b       8.62962
_cell_length_c       8.42553
_cell_angle_alpha    90
_cell_angle_beta     90
_cell_angle_gamma    120

_symmetry_Int_Tables_number  150
_chemical_formula_structural  K2Al2B2O7
_chemical_formula_sum  K6Al6B6O2
_cell_volume  543.3888098011981
_cell_formula_units_Z  3
loop_
  _symmetry_equiv_pos_site_id
 _symmetry_equiv_pos_as_xyz
 1  'x, y, z'
loop_
 _atom_site_type_symbol
 _atom_site_label
 _atom_site_symmetry_multiplicity
 _atom_site_fract_x
 _atom_site_fract_y
 _atom_site_fract_z
 _atom_site_fract_occupancy
 Al  Al1  1  0.00000  0.00000  0.70487  1
 Al  Al2  1  0.00000  0.00000  0.29513  1
 Al  Al3  1  0.66667  0.33333  0.81318  1
 Al  Al4  1  0.33333  0.66667  0.18682  1
 Al  Al5  1  0.33333  0.66667  0.77514  1
 Al  Al6  1  0.66667  0.33333  0.22486  1
 B  B1  1  0.66602  0.00116  0.25797  1
 B  B2  1  0.66486  0.99884  0.74203  1
 B  B3  1  0.33398  0.33514  0.74203  1
 B  B4  1  0.00116  0.66602  0.74203  1
 B  B5  1  0.33514  0.33398  0.25797  1
 B  B6  1  0.99884  0.66486  0.25797  1
 K  K1  1  -0.00000  0.31465  0.00000  1
 K  K2  1  0.35432  -0.00000  0.50000  1
 K  K3  1  -0.00000  0.35432  0.50000  1
 K  K4  1  0.68535  0.68535  0.00000  1
 K  K5  1  0.31465  -0.00000  0.00000  1
 K  K6  1  0.64568  0.64568  0.50000  1
 O  O1  1  0.88446  0.48402  0.74344  1
 O  O2  1  0.21573  0.15784  0.77726  1
 O  O3  1  0.33333  0.66667  0.98097  1
 O  O4  1  0.84216  0.05790  0.77726  1
 O  O5  1  0.15784  0.21573  0.22274  1
 O  O6  1  0.78427  0.94210  0.22274  1
 O  O7  1  0.05790  0.84216  0.22274  1
 O  O8  1  0.51598  0.40044  0.74344  1
 O  O9  1  0.59956  0.11554  0.74344  1
 O  O10  1  0.00000  0.00000  0.50000  1
 O  O11  1  0.48402  0.88446  0.25656  1
 O  O12  1  0.27074  0.44960  0.70464  1
 O  O13  1  0.17886  0.72926  0.70464  1
 O  O14  1  0.55040  0.82114  0.70464  1
 O  O15  1  0.44960  0.27074  0.29536  1
 O  O16  1  0.72926  0.17886  0.29536  1
 O  O17  1  0.82114  0.55040  0.29536  1
 O  O18  1  0.40044  0.51598  0.25656  1
 O  O19  1  0.11554  0.59956  0.25656  1
 O  O20  1  0.94210  0.78427  0.77726  1
 O  O21  1  0.66667  0.33333  0.01903  1
