CIF file written using JARVIS-Tools package.
data_NaAgC2N2
_symmetry_space_group_name_H-M  'C2/c'
_cell_length_a       3.60118
_cell_length_b       3.5981
_cell_length_c       18.3314
_cell_angle_alpha    84.8947
_cell_angle_beta     90
_cell_angle_gamma    120.028

_symmetry_Int_Tables_number  15
_chemical_formula_structural  NaAgC2N2
_chemical_formula_sum  Na2Ag2C4N4
_cell_volume  204.55756267582416
_cell_formula_units_Z  2
loop_
  _symmetry_equiv_pos_site_id
 _symmetry_equiv_pos_as_xyz
 1  'x, y, z'
loop_
 _atom_site_type_symbol
 _atom_site_label
 _atom_site_symmetry_multiplicity
 _atom_site_fract_x
 _atom_site_fract_y
 _atom_site_fract_z
 _atom_site_fract_occupancy
 Ag  Ag1  1  -0.00000  0.50000  0.50000  1
 Ag  Ag2  1  0.50000  0.50000  -0.00000  1
 C  C1  1  0.53773  0.42276  0.11069  1
 C  C2  1  0.11497  0.57724  0.38931  1
 C  C3  1  0.46227  0.57724  0.88931  1
 C  C4  1  0.88503  0.42276  0.61069  1
 N  N1  1  0.55572  0.37863  0.17433  1
 N  N2  1  0.44428  0.62137  0.82567  1
 N  N3  1  0.82292  0.37863  0.67433  1
 N  N4  1  0.17708  0.62137  0.32567  1
 Na  Na1  1  0.86231  0.00000  0.25000  1
 Na  Na2  1  0.13769  1.00000  0.75000  1
