CIF file written using JARVIS-Tools package.
data_LiMnSbO4
_symmetry_space_group_name_H-M  'Imma'
_cell_length_a       6.12031
_cell_length_b       6.27494
_cell_length_c       6.27494
_cell_angle_alpha    59.8244
_cell_angle_beta     60.8119
_cell_angle_gamma    60.8119

_symmetry_Int_Tables_number  74
_chemical_formula_structural  LiMnSbO4
_chemical_formula_sum  Li2Mn2Sb2O8
_cell_volume  172.2291656370171
_cell_formula_units_Z  2
loop_
  _symmetry_equiv_pos_site_id
 _symmetry_equiv_pos_as_xyz
 1  'x, y, z'
loop_
 _atom_site_type_symbol
 _atom_site_label
 _atom_site_symmetry_multiplicity
 _atom_site_fract_x
 _atom_site_fract_y
 _atom_site_fract_z
 _atom_site_fract_occupancy
 Li  Li1  1  0.14768  0.10232  0.10232  1
 Li  Li2  1  0.85232  0.89768  0.89768  1
 Mn  Mn1  1  0.00000  0.50000  0.50000  1
 Mn  Mn2  1  0.50000  0.50000  0.50000  1
 O  O1  1  0.27597  0.24878  0.24878  1
 O  O2  1  0.27726  0.24251  0.70297  1
 O  O3  1  0.27726  0.70297  0.24251  1
 O  O4  1  0.72647  0.24878  0.24878  1
 O  O5  1  0.27353  0.75122  0.75122  1
 O  O6  1  0.72274  0.75749  0.29703  1
 O  O7  1  0.72274  0.29703  0.75749  1
 O  O8  1  0.72403  0.75122  0.75122  1
 Sb  Sb1  1  0.50000  0.00000  0.50000  1
 Sb  Sb2  1  0.50000  0.50000  0.00000  1
