CIF file written using JARVIS-Tools package.
data_CoSnO3
_symmetry_space_group_name_H-M  'R-3'
_cell_length_a       5.31645
_cell_length_b       5.63618
_cell_length_c       5.31645
_cell_angle_alpha    118.141
_cell_angle_beta     60
_cell_angle_gamma    118.14

_symmetry_Int_Tables_number  148
_chemical_formula_structural  CoSnO3
_chemical_formula_sum  Co2Sn2O6
_cell_volume  115.70801447984697
_cell_formula_units_Z  2
loop_
  _symmetry_equiv_pos_site_id
 _symmetry_equiv_pos_as_xyz
 1  'x, y, z'
loop_
 _atom_site_type_symbol
 _atom_site_label
 _atom_site_symmetry_multiplicity
 _atom_site_fract_x
 _atom_site_fract_y
 _atom_site_fract_z
 _atom_site_fract_occupancy
 Co  Co1  1  0.35575  0.06724  0.35575  1
 Co  Co2  1  0.64425  0.93276  0.64425  1
 O  O1  1  0.05190  0.25159  0.44915  1
 O  O2  1  0.44915  0.25159  0.75053  1
 O  O3  1  0.24947  0.74841  0.94810  1
 O  O4  1  0.75053  0.25159  0.05190  1
 O  O5  1  0.55085  0.74841  0.24947  1
 O  O6  1  0.94810  0.74841  0.55085  1
 Sn  Sn1  1  0.14614  0.43841  0.14614  1
 Sn  Sn2  1  0.85386  0.56159  0.85386  1
