CIF file written using JARVIS-Tools package.
data_YbAu3
_symmetry_space_group_name_H-M  'Pmmn'
_cell_length_a       5.06686
_cell_length_b       5.2988
_cell_length_c       5.76361
_cell_angle_alpha    90
_cell_angle_beta     90
_cell_angle_gamma    90

_symmetry_Int_Tables_number  59
_chemical_formula_structural  YbAu3
_chemical_formula_sum  Yb2Au6
_cell_volume  154.74316202638195
_cell_formula_units_Z  2
loop_
  _symmetry_equiv_pos_site_id
 _symmetry_equiv_pos_as_xyz
 1  'x, y, z'
loop_
 _atom_site_type_symbol
 _atom_site_label
 _atom_site_symmetry_multiplicity
 _atom_site_fract_x
 _atom_site_fract_y
 _atom_site_fract_z
 _atom_site_fract_occupancy
 Au  Au1  1  0.50000  0.16834  0.25164  1
 Au  Au2  1  0.50000  0.16834  0.74836  1
 Au  Au3  1  0.00000  0.83166  0.24836  1
 Au  Au4  1  0.00000  0.83166  0.75164  1
 Au  Au5  1  0.00000  0.32936  0.00000  1
 Au  Au6  1  0.50000  0.67064  0.50000  1
 Yb  Yb1  1  0.50000  0.66120  0.00000  1
 Yb  Yb2  1  0.00000  0.33880  0.50000  1
