CIF file written using JARVIS-Tools package.
data_Hf2NiP
_symmetry_space_group_name_H-M  'P2_1/m'
_cell_length_a       3.5976
_cell_length_b       5.18353
_cell_length_c       7.47325
_cell_angle_alpha    110.954
_cell_angle_beta     90
_cell_angle_gamma    90

_symmetry_Int_Tables_number  11
_chemical_formula_structural  Hf2NiP
_chemical_formula_sum  Hf4Ni2P2
_cell_volume  130.14678533139787
_cell_formula_units_Z  2
loop_
  _symmetry_equiv_pos_site_id
 _symmetry_equiv_pos_as_xyz
 1  'x, y, z'
loop_
 _atom_site_type_symbol
 _atom_site_label
 _atom_site_symmetry_multiplicity
 _atom_site_fract_x
 _atom_site_fract_y
 _atom_site_fract_z
 _atom_site_fract_occupancy
 Hf  Hf1  1  0.75000  0.20620  0.42930  1
 Hf  Hf2  1  0.25000  0.79380  0.57070  1
 Hf  Hf3  1  0.25000  0.79067  0.07608  1
 Hf  Hf4  1  0.75000  0.20933  0.92392  1
 Ni  Ni1  1  0.75000  0.65035  0.29253  1
 Ni  Ni2  1  0.25000  0.34965  0.70747  1
 P  P1  1  0.25000  0.34597  0.20874  1
 P  P2  1  0.75000  0.65403  0.79126  1
