CIF file written using JARVIS-Tools package.
data_Ge2N2O
_symmetry_space_group_name_H-M  'Cc'
_cell_length_a       5.37462
_cell_length_b       5.58336
_cell_length_c       5.58336
_cell_angle_alpha    57.7903
_cell_angle_beta     98.8955
_cell_angle_gamma    81.1045

_symmetry_Int_Tables_number  9
_chemical_formula_structural  Ge2N2O
_chemical_formula_sum  Ge4N4O2
_cell_volume  134.3084132867618
_cell_formula_units_Z  2
loop_
  _symmetry_equiv_pos_site_id
 _symmetry_equiv_pos_as_xyz
 1  'x, y, z'
loop_
 _atom_site_type_symbol
 _atom_site_label
 _atom_site_symmetry_multiplicity
 _atom_site_fract_x
 _atom_site_fract_y
 _atom_site_fract_z
 _atom_site_fract_occupancy
 Ge  Ge1  1  0.49326  0.83343  0.82171  1
 Ge  Ge2  1  0.49730  0.49869  0.50268  1
 Ge  Ge3  1  0.99326  0.34495  0.33323  1
 Ge  Ge4  1  0.99730  0.66399  0.66798  1
 N  N1  1  0.63637  0.73689  0.58857  1
 N  N2  1  0.62820  0.50315  0.21154  1
 N  N3  1  0.13637  0.57810  0.42978  1
 N  N4  1  0.12820  0.95513  0.66352  1
 O  O1  1  0.11986  0.35398  0.05165  1
 O  O2  1  0.61986  0.11502  0.81269  1
