CIF file written using JARVIS-Tools package.
data_K4TiO4
_symmetry_space_group_name_H-M  'Cmcm'
_cell_length_a       6.94861
_cell_length_b       6.94861
_cell_length_c       7.06163
_cell_angle_alpha    90
_cell_angle_beta     90
_cell_angle_gamma    89.0781

_symmetry_Int_Tables_number  63
_chemical_formula_structural  K4TiO4
_chemical_formula_sum  K8Ti2O8
_cell_volume  340.91384663434616
_cell_formula_units_Z  2
loop_
  _symmetry_equiv_pos_site_id
 _symmetry_equiv_pos_as_xyz
 1  'x, y, z'
loop_
 _atom_site_type_symbol
 _atom_site_label
 _atom_site_symmetry_multiplicity
 _atom_site_fract_x
 _atom_site_fract_y
 _atom_site_fract_z
 _atom_site_fract_occupancy
 K  K1  1  0.16467  0.83533  0.50000  1
 K  K2  1  0.16467  0.83533  0.00000  1
 K  K3  1  0.54090  0.85386  0.25000  1
 K  K4  1  0.14614  0.45910  0.75000  1
 K  K5  1  0.45910  0.14614  0.75000  1
 K  K6  1  0.85386  0.54090  0.25000  1
 K  K7  1  0.83533  0.16467  0.00000  1
 K  K8  1  0.83533  0.16467  0.50000  1
 O  O1  1  0.79158  0.79158  0.53657  1
 O  O2  1  0.79158  0.79158  0.96343  1
 O  O3  1  0.20842  0.20842  0.46343  1
 O  O4  1  0.20842  0.20842  0.03657  1
 O  O5  1  0.57846  0.25739  0.25000  1
 O  O6  1  0.25739  0.57846  0.25000  1
 O  O7  1  0.74261  0.42154  0.75000  1
 O  O8  1  0.42154  0.74261  0.75000  1
 Ti  Ti1  1  0.31884  0.31884  0.25000  1
 Ti  Ti2  1  0.68116  0.68116  0.75000  1
