data_image0
_chemical_formula_structural       FeSb2Tb6
_chemical_formula_sum              "Fe1 Sb2 Tb6"
_cell_length_a       8.25486
_cell_length_b       8.25486
_cell_length_c       4.12434
_cell_angle_alpha    90
_cell_angle_beta     90
_cell_angle_gamma    119.999

_space_group_name_H-M_alt    "P 1"
_space_group_IT_number       1

loop_
  _space_group_symop_operation_xyz
  'x, y, z'

loop_
  _atom_site_type_symbol
  _atom_site_label
  _atom_site_symmetry_multiplicity
  _atom_site_fract_x
  _atom_site_fract_y
  _atom_site_fract_z
  _atom_site_occupancy
  Fe  Fe1       1.0  0.00000  0.00000  0.50000  1.0000
  Sb  Sb1       1.0  0.66700  0.33300  0.00000  1.0000
  Sb  Sb2       1.0  0.33300  0.66700  0.00000  1.0000
  Tb  Tb1       1.0  0.23300  0.00001  0.00000  1.0000
  Tb  Tb2       1.0  0.00001  0.23300  0.00000  1.0000
  Tb  Tb3       1.0  0.76700  0.76700  0.00000  1.0000
  Tb  Tb4       1.0  0.59900  0.00002  0.50000  1.0000
  Tb  Tb5       1.0  0.40100  0.40100  0.50000  1.0000
  Tb  Tb6       1.0  0.00002  0.59900  0.50000  1.0000
