CIF file written using JARVIS-Tools package.
data_KAlH2CO5
_symmetry_space_group_name_H-M  'Cmcm'
_cell_length_a       6.75108
_cell_length_b       6.75108
_cell_length_c       5.66811
_cell_angle_alpha    90
_cell_angle_beta     90
_cell_angle_gamma    54.6687

_symmetry_Int_Tables_number  63
_chemical_formula_structural  KAlH2CO5
_chemical_formula_sum  K2Al2H4C2O0
_cell_volume  210.75613066915597
_cell_formula_units_Z  2
loop_
  _symmetry_equiv_pos_site_id
 _symmetry_equiv_pos_as_xyz
 1  'x, y, z'
loop_
 _atom_site_type_symbol
 _atom_site_label
 _atom_site_symmetry_multiplicity
 _atom_site_fract_x
 _atom_site_fract_y
 _atom_site_fract_z
 _atom_site_fract_occupancy
 Al  Al1  1  0.00000  0.00000  0.50000  1
 Al  Al2  1  0.00000  0.00000  0.00000  1
 C  C1  1  0.21314  0.21314  0.25000  1
 C  C2  1  0.78686  0.78686  0.75000  1
 H  H1  1  0.21388  0.62558  0.25000  1
 H  H2  1  0.37442  0.78612  0.75000  1
 H  H3  1  0.78612  0.37442  0.75000  1
 H  H4  1  0.62558  0.21388  0.25000  1
 K  K1  1  0.34149  0.34149  0.75000  1
 K  K2  1  0.65851  0.65851  0.25000  1
 O  O1  1  0.84051  0.84051  0.95055  1
 O  O2  1  0.32013  0.32013  0.25000  1
 O  O3  1  0.78416  0.19032  0.25000  1
 O  O4  1  0.80968  0.21584  0.75000  1
 O  O5  1  0.21584  0.80968  0.75000  1
 O  O6  1  0.19032  0.78416  0.25000  1
 O  O7  1  0.15949  0.15949  0.45055  1
 O  O8  1  0.84051  0.84051  0.54945  1
 O  O9  1  0.15949  0.15949  0.04945  1
 O  O10  1  0.67987  0.67987  0.75000  1
