CIF file written using JARVIS-Tools package.
data_Ba3Al3Ga2
_symmetry_space_group_name_H-M  'P6_3/mmc'
_cell_length_a       5.97024
_cell_length_b       5.97024
_cell_length_c       14.7287
_cell_angle_alpha    90
_cell_angle_beta     90
_cell_angle_gamma    120

_symmetry_Int_Tables_number  194
_chemical_formula_structural  Ba3Al3Ga2
_chemical_formula_sum  Ba6Al6Ga4
_cell_volume  454.6503492597891
_cell_formula_units_Z  2
loop_
  _symmetry_equiv_pos_site_id
 _symmetry_equiv_pos_as_xyz
 1  'x, y, z'
loop_
 _atom_site_type_symbol
 _atom_site_label
 _atom_site_symmetry_multiplicity
 _atom_site_fract_x
 _atom_site_fract_y
 _atom_site_fract_z
 _atom_site_fract_occupancy
 Al  Al1  1  0.84161  0.68323  0.75000  1
 Al  Al2  1  0.68323  0.84161  0.25000  1
 Al  Al3  1  0.84161  0.15839  0.75000  1
 Al  Al4  1  0.15839  0.84161  0.25000  1
 Al  Al5  1  0.31677  0.15839  0.75000  1
 Al  Al6  1  0.15839  0.31677  0.25000  1
 Ba  Ba1  1  0.33333  0.66667  0.87778  1
 Ba  Ba2  1  0.66667  0.33333  0.37778  1
 Ba  Ba3  1  0.66667  0.33333  0.12222  1
 Ba  Ba4  1  0.00000  0.00000  0.00000  1
 Ba  Ba5  1  0.33333  0.66667  0.62222  1
 Ba  Ba6  1  0.00000  0.00000  0.50000  1
 Ga  Ga1  1  0.66667  0.33333  0.88822  1
 Ga  Ga2  1  0.33333  0.66667  0.11178  1
 Ga  Ga3  1  0.33333  0.66667  0.38822  1
 Ga  Ga4  1  0.66667  0.33333  0.61178  1
