CIF file written using JARVIS-Tools package.
data_PBr2N
_symmetry_space_group_name_H-M  'P-1'
_cell_length_a       9.33039
_cell_length_b       10.3561
_cell_length_c       11.8205
_cell_angle_alpha    101.26
_cell_angle_beta     112.853
_cell_angle_gamma    93.0477

_symmetry_Int_Tables_number  2
_chemical_formula_structural  PBr2N
_chemical_formula_sum  P0Br20N0
_cell_volume  1021.6913074597388
_cell_formula_units_Z  10
loop_
  _symmetry_equiv_pos_site_id
 _symmetry_equiv_pos_as_xyz
 1  'x, y, z'
loop_
 _atom_site_type_symbol
 _atom_site_label
 _atom_site_symmetry_multiplicity
 _atom_site_fract_x
 _atom_site_fract_y
 _atom_site_fract_z
 _atom_site_fract_occupancy
 Br  Br1  1  0.26221  0.64569  0.38435  1
 Br  Br2  1  0.63695  0.72177  0.62761  1
 Br  Br3  1  0.79918  0.67124  0.29832  1
 Br  Br4  1  0.46243  0.90505  0.25487  1
 Br  Br5  1  0.73779  0.35431  0.61565  1
 Br  Br6  1  0.19306  0.99183  0.47157  1
 Br  Br7  1  0.20082  0.32876  0.70168  1
 Br  Br8  1  0.02684  0.61524  0.92070  1
 Br  Br9  1  0.36305  0.27823  0.37239  1
 Br  Br10  1  0.36490  0.14700  0.02115  1
 Br  Br11  1  0.80694  0.00817  0.52843  1
 Br  Br12  1  0.63510  0.85300  0.97885  1
 Br  Br13  1  0.00771  0.33098  0.36995  1
 Br  Br14  1  0.97316  0.38476  0.07930  1
 Br  Br15  1  0.41078  0.52050  0.12668  1
 Br  Br16  1  0.53757  0.09495  0.74513  1
 Br  Br17  1  0.03942  0.94721  0.15294  1
 Br  Br18  1  0.99229  0.66902  0.63005  1
 Br  Br19  1  0.58922  0.47950  0.87332  1
 Br  Br20  1  0.96058  0.05279  0.84706  1
 N  N1  1  0.33797  0.81095  0.66237  1
 N  N2  1  0.20147  0.01183  0.73350  1
 N  N3  1  0.35073  0.54987  0.62700  1
 N  N4  1  0.31319  0.63083  0.84724  1
 N  N5  1  0.78620  0.14161  0.09821  1
 N  N6  1  0.21380  0.85839  0.90179  1
 N  N7  1  0.64927  0.45013  0.37300  1
 N  N8  1  0.66203  0.18905  0.33763  1
 N  N9  1  0.68681  0.36917  0.15276  1
 N  N10  1  0.79853  0.98817  0.26650  1
 P  P1  1  0.64586  0.47877  0.24530  1
 P  P2  1  0.80716  0.00486  0.13895  1
 P  P3  1  0.30883  0.95976  0.66333  1
 P  P4  1  0.19284  0.99514  0.86105  1
 P  P5  1  0.69117  0.04024  0.33667  1
 P  P6  1  0.38544  0.68546  0.59243  1
 P  P7  1  0.83323  0.29341  0.16807  1
 P  P8  1  0.16677  0.70659  0.83193  1
 P  P9  1  0.35414  0.52123  0.75470  1
 P  P10  1  0.61456  0.31454  0.40757  1
