CIF file written using JARVIS-Tools package.
data_K4Co7O14
_symmetry_space_group_name_H-M  'P6_3/m'
_cell_length_a       7.54417
_cell_length_b       7.54416
_cell_length_c       12.3066
_cell_angle_alpha    90
_cell_angle_beta     90
_cell_angle_gamma    120

_symmetry_Int_Tables_number  176
_chemical_formula_structural  K4Co7O14
_chemical_formula_sum  K8Co4O28
_cell_volume  606.583340698933
_cell_formula_units_Z  2
loop_
  _symmetry_equiv_pos_site_id
 _symmetry_equiv_pos_as_xyz
 1  'x, y, z'
loop_
 _atom_site_type_symbol
 _atom_site_label
 _atom_site_symmetry_multiplicity
 _atom_site_fract_x
 _atom_site_fract_y
 _atom_site_fract_z
 _atom_site_fract_occupancy
 Co  Co1  1  0.14270  0.71385  0.50185  1
 Co  Co2  1  0.14270  0.71385  0.99815  1
 Co  Co3  1  0.28615  0.42885  0.50185  1
 Co  Co4  1  0.71385  0.57115  0.00185  1
 Co  Co5  1  0.57115  0.85730  0.50185  1
 Co  Co6  1  0.42885  0.14270  0.00185  1
 Co  Co7  1  0.85730  0.28615  0.49815  1
 Co  Co8  1  0.71385  0.57115  0.49815  1
 Co  Co9  1  0.42885  0.14270  0.49815  1
 Co  Co10  1  0.00000  0.00000  0.50000  1
 Co  Co11  1  0.85730  0.28615  0.00185  1
 Co  Co12  1  0.28615  0.42885  0.99815  1
 Co  Co13  1  0.57115  0.85730  0.99815  1
 Co  Co14  1  0.00000  0.00000  0.00000  1
 K  K1  1  0.42009  0.96629  0.75000  1
 K  K2  1  0.96629  0.54620  0.25000  1
 K  K3  1  0.00000  0.00000  0.75000  1
 K  K4  1  0.45380  0.42009  0.25000  1
 K  K5  1  0.54620  0.57991  0.75000  1
 K  K6  1  0.57991  0.03371  0.25000  1
 K  K7  1  0.03371  0.45380  0.75000  1
 K  K8  1  0.00000  0.00000  0.25000  1
 O  O1  1  0.19123  0.95419  0.92113  1
 O  O2  1  0.76296  0.80877  0.92113  1
 O  O3  1  0.52312  0.62267  0.42442  1
 O  O4  1  0.37733  0.90045  0.42442  1
 O  O5  1  0.04581  0.23704  0.92113  1
 O  O6  1  0.33333  0.66667  0.58436  1
 O  O7  1  0.90045  0.52312  0.57558  1
 O  O8  1  0.33333  0.66667  0.91564  1
 O  O9  1  0.37733  0.90045  0.07558  1
 O  O10  1  0.66667  0.33333  0.08436  1
 O  O11  1  0.23704  0.19123  0.07887  1
 O  O12  1  0.66667  0.33333  0.41564  1
 O  O13  1  0.62267  0.09955  0.92442  1
 O  O14  1  0.19123  0.95419  0.57887  1
 O  O15  1  0.09955  0.47688  0.07558  1
 O  O16  1  0.09955  0.47688  0.42442  1
 O  O17  1  0.62267  0.09955  0.57558  1
 O  O18  1  0.80877  0.04581  0.42113  1
 O  O19  1  0.95419  0.76296  0.07887  1
 O  O20  1  0.95419  0.76296  0.42113  1
 O  O21  1  0.04581  0.23704  0.57887  1
 O  O22  1  0.76296  0.80877  0.57887  1
 O  O23  1  0.80877  0.04581  0.07887  1
 O  O24  1  0.47688  0.37733  0.57558  1
 O  O25  1  0.23704  0.19123  0.42113  1
 O  O26  1  0.52312  0.62267  0.07558  1
 O  O27  1  0.47688  0.37733  0.92442  1
 O  O28  1  0.90045  0.52312  0.92442  1
