CIF file written using JARVIS-Tools package.
data_CaTi4P6O24
_symmetry_space_group_name_H-M  'R-3'
_cell_length_a       8.83432
_cell_length_b       8.83432
_cell_length_c       8.83432
_cell_angle_alpha    56.6663
_cell_angle_beta     56.6663
_cell_angle_gamma    56.6663

_symmetry_Int_Tables_number  148
_chemical_formula_structural  CaTi4P6O24
_chemical_formula_sum  CaTi4P6O24
_cell_volume  449.9977657693218
_cell_formula_units_Z  1
loop_
  _symmetry_equiv_pos_site_id
 _symmetry_equiv_pos_as_xyz
 1  'x, y, z'
loop_
 _atom_site_type_symbol
 _atom_site_label
 _atom_site_symmetry_multiplicity
 _atom_site_fract_x
 _atom_site_fract_y
 _atom_site_fract_z
 _atom_site_fract_occupancy
 Ca  Ca1  1  0.00000  0.00000  0.00000  1
 O  O1  1  0.47949  0.18382  0.54868  1
 O  O2  1  0.18382  0.54868  0.47949  1
 O  O3  1  0.45132  0.52051  0.81618  1
 O  O4  1  0.52051  0.81618  0.45132  1
 O  O5  1  0.81618  0.45132  0.52051  1
 O  O6  1  0.89685  0.10177  0.74343  1
 O  O7  1  0.80829  0.61709  0.99738  1
 O  O8  1  0.99738  0.80829  0.61709  1
 O  O9  1  0.10315  0.89823  0.25657  1
 O  O10  1  0.89823  0.25657  0.10315  1
 O  O11  1  0.38291  0.00262  0.19171  1
 O  O12  1  0.19171  0.38291  0.00262  1
 O  O13  1  0.00262  0.19171  0.38291  1
 O  O14  1  0.61709  0.99738  0.80829  1
 O  O15  1  0.10177  0.74343  0.89685  1
 O  O16  1  0.74343  0.89685  0.10177  1
 O  O17  1  0.54868  0.47949  0.18382  1
 O  O18  1  0.23079  0.52086  0.16185  1
 O  O19  1  0.47914  0.83815  0.76921  1
 O  O20  1  0.83815  0.76921  0.47914  1
 O  O21  1  0.76921  0.47914  0.83815  1
 O  O22  1  0.52086  0.16185  0.23079  1
 O  O23  1  0.16185  0.23079  0.52086  1
 O  O24  1  0.25657  0.10315  0.89823  1
 P  P1  1  0.75321  0.46041  0.02945  1
 P  P2  1  0.02945  0.75321  0.46041  1
 P  P3  1  0.46041  0.02945  0.75321  1
 P  P4  1  0.24679  0.53959  0.97055  1
 P  P5  1  0.53959  0.97055  0.24679  1
 P  P6  1  0.97055  0.24679  0.53959  1
 Ti  Ti1  1  0.64213  0.64213  0.64213  1
 Ti  Ti2  1  0.85273  0.85273  0.85273  1
 Ti  Ti3  1  0.14727  0.14727  0.14727  1
 Ti  Ti4  1  0.35787  0.35787  0.35787  1
