CIF file written using JARVIS-Tools package.
data_Li2Ni3BiO8
_symmetry_space_group_name_H-M  'R-3m'
_cell_length_a       5.85922
_cell_length_b       5.85922
_cell_length_c       6.1677
_cell_angle_alpha    61.6412
_cell_angle_beta     118.359
_cell_angle_gamma    120

_symmetry_Int_Tables_number  166
_chemical_formula_structural  Li2Ni3BiO8
_chemical_formula_sum  Li2Ni3BiO8
_cell_volume  153.32989202124435
_cell_formula_units_Z  1
loop_
  _symmetry_equiv_pos_site_id
 _symmetry_equiv_pos_as_xyz
 1  'x, y, z'
loop_
 _atom_site_type_symbol
 _atom_site_label
 _atom_site_symmetry_multiplicity
 _atom_site_fract_x
 _atom_site_fract_y
 _atom_site_fract_z
 _atom_site_fract_occupancy
 Bi  Bi1  1  0.50000  0.50000  0.50000  1
 Li  Li1  1  0.88284  0.11716  0.64852  1
 Li  Li2  1  0.11716  0.88284  0.35148  1
 Ni  Ni1  1  0.50000  0.50000  0.00000  1
 Ni  Ni2  1  0.50000  -0.00000  0.00000  1
 Ni  Ni3  1  -0.00000  0.50000  0.00000  1
 O  O1  1  0.75292  0.71974  0.78610  1
 O  O2  1  0.75292  0.24708  0.78610  1
 O  O3  1  0.27024  0.72976  0.81071  1
 O  O4  1  0.28026  0.24708  0.78610  1
 O  O5  1  0.71974  0.75292  0.21390  1
 O  O6  1  0.72976  0.27024  0.18929  1
 O  O7  1  0.24708  0.75292  0.21390  1
 O  O8  1  0.24708  0.28026  0.21390  1
