CIF file written using JARVIS-Tools package.
data_LaSnPd
_symmetry_space_group_name_H-M  'P-62m'
_cell_length_a       7.73128
_cell_length_b       7.73128
_cell_length_c       4.2122
_cell_angle_alpha    90
_cell_angle_beta     90
_cell_angle_gamma    120

_symmetry_Int_Tables_number  189
_chemical_formula_structural  LaSnPd
_chemical_formula_sum  La3Sn3Pd3
_cell_volume  218.04329727520036
_cell_formula_units_Z  3
loop_
  _symmetry_equiv_pos_site_id
 _symmetry_equiv_pos_as_xyz
 1  'x, y, z'
loop_
 _atom_site_type_symbol
 _atom_site_label
 _atom_site_symmetry_multiplicity
 _atom_site_fract_x
 _atom_site_fract_y
 _atom_site_fract_z
 _atom_site_fract_occupancy
 La  La1  1  -0.00000  0.58647  0.00000  1
 La  La2  1  0.41353  0.41353  0.00000  1
 La  La3  1  0.58647  -0.00000  0.00000  1
 Pd  Pd1  1  0.66667  0.33333  0.50000  1
 Pd  Pd2  1  0.00000  0.00000  0.00000  1
 Pd  Pd3  1  0.33333  0.66667  0.50000  1
 Sn  Sn1  1  0.75101  0.75101  0.50000  1
 Sn  Sn2  1  -0.00000  0.24899  0.50000  1
 Sn  Sn3  1  0.24899  -0.00000  0.50000  1
