CIF file written using JARVIS-Tools package.
data_Zn2SiH2O5
_symmetry_space_group_name_H-M  'Imm2'
_cell_length_a       7.32818
_cell_length_b       7.32818
_cell_length_c       7.32818
_cell_angle_alpha    109.38
_cell_angle_beta     85.0005
_cell_angle_gamma    139.053

_symmetry_Int_Tables_number  44
_chemical_formula_structural  Zn2SiH2O5
_chemical_formula_sum  Zn4Si2H4O0
_cell_volume  234.6339594749805
_cell_formula_units_Z  2
loop_
  _symmetry_equiv_pos_site_id
 _symmetry_equiv_pos_as_xyz
 1  'x, y, z'
loop_
 _atom_site_type_symbol
 _atom_site_label
 _atom_site_symmetry_multiplicity
 _atom_site_fract_x
 _atom_site_fract_y
 _atom_site_fract_z
 _atom_site_fract_occupancy
 H  H1  1  0.17988  0.79979  0.61991  1
 H  H2  1  0.65174  0.06208  0.41034  1
 H  H3  1  0.65174  0.24140  0.58966  1
 H  H4  1  0.17988  0.55997  0.38009  1
 O  O1  1  0.03030  0.33830  0.30800  1
 O  O2  1  0.35706  0.19262  0.16444  1
 O  O3  1  0.02817  0.19262  0.83556  1
 O  O4  1  0.84109  0.79656  0.36589  1
 O  O5  1  0.43068  0.47520  0.63411  1
 O  O6  1  0.84109  0.47520  0.04453  1
 O  O7  1  0.43068  0.79656  0.95547  1
 O  O8  1  0.52993  0.02993  0.50000  1
 O  O9  1  0.03030  0.72230  0.69200  1
 O  O10  1  0.59780  0.59780  -0.00000  1
 Si  Si1  1  0.65489  0.50883  0.14606  1
 Si  Si2  1  0.36278  0.50883  0.85394  1
 Zn  Zn1  1  0.16362  0.20605  0.36551  1
 Zn  Zn2  1  0.84053  0.79810  0.63449  1
 Zn  Zn3  1  0.16362  0.79810  0.95757  1
 Zn  Zn4  1  0.84053  0.20605  0.04243  1
