CIF file written using JARVIS-Tools package.
data_LiNbTe3O12
_symmetry_space_group_name_H-M  'P2'
_cell_length_a       4.89527
_cell_length_b       8.55224
_cell_length_c       5.27841
_cell_angle_alpha    90
_cell_angle_beta     92.0471
_cell_angle_gamma    90

_symmetry_Int_Tables_number  3
_chemical_formula_structural  LiNbTe3O12
_chemical_formula_sum  LiNbTe3O2
_cell_volume  220.84288491391726
_cell_formula_units_Z  1
loop_
  _symmetry_equiv_pos_site_id
 _symmetry_equiv_pos_as_xyz
 1  'x, y, z'
loop_
 _atom_site_type_symbol
 _atom_site_label
 _atom_site_symmetry_multiplicity
 _atom_site_fract_x
 _atom_site_fract_y
 _atom_site_fract_z
 _atom_site_fract_occupancy
 Li  Li1  1  0.50000  0.80404  0.50000  1
 Nb  Nb1  1  0.00000  0.89922  0.00000  1
 O  O1  1  0.26759  0.73892  0.12382  1
 O  O2  1  0.28469  0.41521  0.17926  1
 O  O3  1  0.20490  0.06671  0.20019  1
 O  O4  1  0.71531  0.41521  0.82074  1
 O  O5  1  0.70644  0.56839  0.32743  1
 O  O6  1  0.75055  0.24809  0.35715  1
 O  O7  1  0.24945  0.24809  0.64285  1
 O  O8  1  0.21973  0.92459  0.67930  1
 O  O9  1  0.29356  0.56839  0.67257  1
 O  O10  1  0.79510  0.06671  0.79981  1
 O  O11  1  0.78027  0.92459  0.32070  1
 O  O12  1  0.73241  0.73892  0.87618  1
 Te  Te1  1  -0.00000  0.08690  0.50000  1
 Te  Te2  1  0.50000  0.39524  0.50000  1
 Te  Te3  1  0.50000  0.57647  0.00000  1
