CIF file written using JARVIS-Tools package.
data_NaPH2O4
_symmetry_space_group_name_H-M  'P-1'
_cell_length_a       6.66096
_cell_length_b       9.49312
_cell_length_c       6.31153
_cell_angle_alpha    103.717
_cell_angle_beta     107.789
_cell_angle_gamma    92.7867

_symmetry_Int_Tables_number  2
_chemical_formula_structural  NaPH2O4
_chemical_formula_sum  Na4P4H8O6
_cell_volume  366.0019464642037
_cell_formula_units_Z  4
loop_
  _symmetry_equiv_pos_site_id
 _symmetry_equiv_pos_as_xyz
 1  'x, y, z'
loop_
 _atom_site_type_symbol
 _atom_site_label
 _atom_site_symmetry_multiplicity
 _atom_site_fract_x
 _atom_site_fract_y
 _atom_site_fract_z
 _atom_site_fract_occupancy
 H  H1  1  0.19132  0.34858  0.83042  1
 H  H2  1  0.66260  0.73254  0.29089  1
 H  H3  1  0.33740  0.26746  0.70911  1
 H  H4  1  0.80868  0.65142  0.16958  1
 H  H5  1  0.12620  0.43083  0.33276  1
 H  H6  1  0.21203  0.57458  0.29213  1
 H  H7  1  0.78797  0.42542  0.70787  1
 H  H8  1  0.87380  0.56917  0.66724  1
 Na  Na1  1  0.16672  0.86908  0.57287  1
 Na  Na2  1  0.55524  0.40856  0.24025  1
 Na  Na3  1  0.44476  0.59144  0.75975  1
 Na  Na4  1  0.83328  0.13092  0.42713  1
 O  O1  1  0.87627  0.30406  0.20760  1
 O  O2  1  0.73992  0.50872  0.64408  1
 O  O3  1  0.88197  0.85893  0.95755  1
 O  O4  1  0.11803  0.14107  0.04245  1
 O  O5  1  0.82383  0.91589  0.56567  1
 O  O6  1  0.17617  0.08411  0.43433  1
 O  O7  1  0.50883  0.82719  0.68186  1
 O  O8  1  0.49117  0.17281  0.31814  1
 O  O9  1  0.90688  0.28488  0.79979  1
 O  O10  1  0.26008  0.49128  0.35592  1
 O  O11  1  0.28383  0.92274  0.11112  1
 O  O12  1  0.71617  0.07726  0.88888  1
 O  O13  1  0.66133  0.64290  0.17370  1
 O  O14  1  0.33867  0.35710  0.82630  1
 O  O15  1  0.09312  0.71512  0.20021  1
 O  O16  1  0.12373  0.69594  0.79240  1
 P  P1  1  0.90217  0.21587  0.98917  1
 P  P2  1  0.72239  0.91107  0.74692  1
 P  P3  1  0.27761  0.08893  0.25308  1
 P  P4  1  0.09783  0.78413  0.01083  1
