CIF file written using JARVIS-Tools package.
data_Nd2Sn3
_symmetry_space_group_name_H-M  'P-1'
_cell_length_a       6.44625
_cell_length_b       8.5303
_cell_length_c       11.2153
_cell_angle_alpha    107.38
_cell_angle_beta     96.7977
_cell_angle_gamma    100.216

_symmetry_Int_Tables_number  2
_chemical_formula_structural  Nd2Sn3
_chemical_formula_sum  Nd8Sn2
_cell_volume  569.5036390014874
_cell_formula_units_Z  4
loop_
  _symmetry_equiv_pos_site_id
 _symmetry_equiv_pos_as_xyz
 1  'x, y, z'
loop_
 _atom_site_type_symbol
 _atom_site_label
 _atom_site_symmetry_multiplicity
 _atom_site_fract_x
 _atom_site_fract_y
 _atom_site_fract_z
 _atom_site_fract_occupancy
 Nd  Nd1  1  0.12632  0.75454  0.38511  1
 Nd  Nd2  1  0.33259  0.03259  0.74523  1
 Nd  Nd3  1  0.66741  0.96741  0.25477  1
 Nd  Nd4  1  0.55464  0.42922  0.33643  1
 Nd  Nd5  1  0.44536  0.57078  0.66357  1
 Nd  Nd6  1  0.95960  0.25263  0.05677  1
 Nd  Nd7  1  0.04040  0.74737  0.94323  1
 Nd  Nd8  1  0.87368  0.24546  0.61489  1
 Sn  Sn1  1  0.43856  0.16911  0.05244  1
 Sn  Sn2  1  0.64388  0.83388  0.49950  1
 Sn  Sn3  1  0.35612  0.16612  0.50050  1
 Sn  Sn4  1  0.67678  0.39775  0.86003  1
 Sn  Sn5  1  0.32322  0.60225  0.13997  1
 Sn  Sn6  1  0.17457  0.03552  0.22292  1
 Sn  Sn7  1  0.22185  0.40616  0.86318  1
 Sn  Sn8  1  0.56144  0.83089  0.94756  1
 Sn  Sn9  1  0.04410  0.35310  0.37931  1
 Sn  Sn10  1  0.82543  0.96448  0.77708  1
 Sn  Sn11  1  0.77815  0.59384  0.13682  1
 Sn  Sn12  1  0.95590  0.64690  0.62069  1
