CIF file written using JARVIS-Tools package.
data_Ti3Bi4O12
_symmetry_space_group_name_H-M  'Cc'
_cell_length_a       5.41738
_cell_length_b       5.4596
_cell_length_c       16.8397
_cell_angle_alpha    89.9531
_cell_angle_beta     99.2564
_cell_angle_gamma    90

_symmetry_Int_Tables_number  9
_chemical_formula_structural  Ti3Bi4O12
_chemical_formula_sum  Ti6Bi8O24
_cell_volume  491.5768913073944
_cell_formula_units_Z  2
loop_
  _symmetry_equiv_pos_site_id
 _symmetry_equiv_pos_as_xyz
 1  'x, y, z'
loop_
 _atom_site_type_symbol
 _atom_site_label
 _atom_site_symmetry_multiplicity
 _atom_site_fract_x
 _atom_site_fract_y
 _atom_site_fract_z
 _atom_site_fract_occupancy
 Bi  Bi1  1  0.20185  0.02672  0.41946  1
 Bi  Bi2  1  0.92940  0.01914  0.86639  1
 Bi  Bi3  1  0.56960  0.51526  0.13260  1
 Bi  Bi4  1  0.28583  0.52030  0.57503  1
 Bi  Bi5  1  0.06300  0.01526  0.13260  1
 Bi  Bi6  1  0.78920  0.02030  0.57503  1
 Bi  Bi7  1  0.71761  0.52672  0.41946  1
 Bi  Bi8  1  0.43699  0.51914  0.86639  1
 O  O1  1  0.99842  0.25718  0.49919  1
 O  O2  1  0.73636  0.96813  0.36342  1
 O  O3  1  0.51120  0.93865  0.88731  1
 O  O4  1  0.89546  0.73554  0.22261  1
 O  O5  1  0.13670  0.43391  0.12055  1
 O  O6  1  0.87611  0.43865  0.88731  1
 O  O7  1  0.28888  0.65950  0.98761  1
 O  O8  1  0.66730  0.17479  0.75408  1
 O  O9  1  0.48384  0.93391  0.12055  1
 O  O10  1  0.32102  0.15233  0.25242  1
 O  O11  1  0.27515  0.97803  0.63620  1
 O  O12  1  0.72487  0.23764  0.02343  1
 O  O13  1  0.86105  0.47803  0.63620  1
 O  O14  1  0.58678  0.67479  0.75408  1
 O  O15  1  0.79856  0.73764  0.02343  1
 O  O16  1  0.49828  0.26072  0.49849  1
 O  O17  1  0.16039  0.23466  0.77782  1
 O  O18  1  0.12706  0.46813  0.36342  1
 O  O19  1  0.11742  0.73466  0.77782  1
 O  O20  1  0.00077  0.75718  0.49919  1
 O  O21  1  0.82715  0.23554  0.22261  1
 O  O22  1  0.50021  0.76072  0.49849  1
 O  O23  1  0.19873  0.15950  0.98761  1
 O  O24  1  0.43139  0.65233  0.25242  1
 Ti  Ti1  1  0.49795  0.98142  0.00329  1
 Ti  Ti2  1  0.62550  0.97148  0.25765  1
 Ti  Ti3  1  0.87159  0.47690  0.74126  1
 Ti  Ti4  1  0.36967  0.97690  0.74126  1
 Ti  Ti5  1  0.13215  0.47148  0.25765  1
 Ti  Ti6  1  0.00534  0.48142  0.00329  1
