CIF file written using JARVIS-Tools package.
data_CuH4SeO5
_symmetry_space_group_name_H-M  'P2_12_12_1'
_cell_length_a       6.62804
_cell_length_b       9.15753
_cell_length_c       7.3883
_cell_angle_alpha    90
_cell_angle_beta     90
_cell_angle_gamma    90

_symmetry_Int_Tables_number  19
_chemical_formula_structural  CuH4SeO5
_chemical_formula_sum  Cu4H6Se4O20
_cell_volume  448.44363944655714
_cell_formula_units_Z  4
loop_
  _symmetry_equiv_pos_site_id
 _symmetry_equiv_pos_as_xyz
 1  'x, y, z'
loop_
 _atom_site_type_symbol
 _atom_site_label
 _atom_site_symmetry_multiplicity
 _atom_site_fract_x
 _atom_site_fract_y
 _atom_site_fract_z
 _atom_site_fract_occupancy
 Cu  Cu1  1  0.97306  0.34930  0.70874  1
 Cu  Cu2  1  0.52694  0.65070  0.20874  1
 Cu  Cu3  1  0.47306  0.15070  0.29126  1
 Cu  Cu4  1  0.02694  0.84930  0.79126  1
 H  H1  1  0.13316  0.69448  0.06807  1
 H  H2  1  0.05776  0.29230  0.37010  1
 H  H3  1  0.44224  0.70770  0.87010  1
 H  H4  1  0.55776  0.20770  0.62990  1
 H  H5  1  0.86684  0.19448  0.43193  1
 H  H6  1  0.63316  0.80552  0.93193  1
 H  H7  1  0.36684  0.30552  0.56807  1
 H  H8  1  0.94224  0.79230  0.12990  1
 H  H9  1  0.75821  0.40162  0.29833  1
 H  H10  1  0.24179  0.90162  0.20167  1
 H  H11  1  0.25821  0.09838  0.70167  1
 H  H12  1  0.68419  0.57161  0.59737  1
 H  H13  1  0.81581  0.42839  0.09737  1
 H  H14  1  0.18419  0.92839  0.40263  1
 H  H15  1  0.31581  0.07161  0.90263  1
 H  H16  1  0.74179  0.59838  0.79833  1
 O  O1  1  0.23362  0.43929  0.64426  1
 O  O2  1  0.75677  0.77711  0.27001  1
 O  O3  1  0.74323  0.22289  0.77001  1
 O  O4  1  0.25677  0.72289  0.72999  1
 O  O5  1  0.47965  0.61006  0.46605  1
 O  O6  1  0.97965  0.88994  0.53395  1
 O  O7  1  0.52035  0.11006  0.03395  1
 O  O8  1  0.02035  0.38994  0.96605  1
 O  O9  1  0.30121  0.93297  0.31785  1
 O  O10  1  0.24323  0.27711  0.22999  1
 O  O11  1  0.76638  0.93929  0.85574  1
 O  O12  1  0.19879  0.06703  0.81785  1
 O  O13  1  0.93320  0.29304  0.44994  1
 O  O14  1  0.56680  0.70696  0.94994  1
 O  O15  1  0.43320  0.20696  0.55006  1
 O  O16  1  0.06680  0.79304  0.05006  1
 O  O17  1  0.80121  0.56703  0.68215  1
 O  O18  1  0.69879  0.43297  0.18215  1
 O  O19  1  0.26638  0.56071  0.14426  1
 O  O20  1  0.73362  0.06071  0.35574  1
 Se  Se1  1  0.26986  0.38851  0.03948  1
 Se  Se2  1  0.23014  0.61149  0.53948  1
 Se  Se3  1  0.73014  0.88851  0.46052  1
 Se  Se4  1  0.76986  0.11149  0.96052  1
