CIF file written using JARVIS-Tools package.
data_LiFeCoO4
_symmetry_space_group_name_H-M  'Imma'
_cell_length_a       5.63563
_cell_length_b       5.63563
_cell_length_c       5.74376
_cell_angle_alpha    59.3682
_cell_angle_beta     59.3682
_cell_angle_gamma    89.2347

_symmetry_Int_Tables_number  74
_chemical_formula_structural  LiFeCoO4
_chemical_formula_sum  Li2Fe2Co2O8
_cell_volume  127.37543136137279
_cell_formula_units_Z  2
loop_
  _symmetry_equiv_pos_site_id
 _symmetry_equiv_pos_as_xyz
 1  'x, y, z'
loop_
 _atom_site_type_symbol
 _atom_site_label
 _atom_site_symmetry_multiplicity
 _atom_site_fract_x
 _atom_site_fract_y
 _atom_site_fract_z
 _atom_site_fract_occupancy
 Co  Co1  1  0.00000  0.00000  0.00000  1
 Co  Co2  1  0.00000  0.00000  0.50000  1
 Fe  Fe1  1  0.00000  0.50000  0.50000  1
 Fe  Fe2  1  0.50000  -0.00000  -0.00000  1
 Li  Li1  1  0.00000  0.50000  -0.00000  1
 Li  Li2  1  0.50000  0.00000  0.50000  1
 O  O1  1  0.23515  0.21044  0.02725  1
 O  O2  1  0.23969  0.76028  0.02055  1
 O  O3  1  0.21044  0.23515  0.52725  1
 O  O4  1  0.23972  0.76031  0.47945  1
 O  O5  1  0.76028  0.23969  0.52055  1
 O  O6  1  0.78956  0.76485  0.47275  1
 O  O7  1  0.76031  0.23972  0.97945  1
 O  O8  1  0.76485  0.78956  0.97275  1
