CIF file written using JARVIS-Tools package.
data_BaHf2Ru
_symmetry_space_group_name_H-M  'P4/mmm'
_cell_length_a       3.33158
_cell_length_b       3.3328
_cell_length_c       8.95282
_cell_angle_alpha    90
_cell_angle_beta     90
_cell_angle_gamma    90

_symmetry_Int_Tables_number  123
_chemical_formula_structural  BaHf2Ru
_chemical_formula_sum  BaHf2Ru
_cell_volume  99.40766629363769
_cell_formula_units_Z  1
loop_
  _symmetry_equiv_pos_site_id
 _symmetry_equiv_pos_as_xyz
 1  'x, y, z'
loop_
 _atom_site_type_symbol
 _atom_site_label
 _atom_site_symmetry_multiplicity
 _atom_site_fract_x
 _atom_site_fract_y
 _atom_site_fract_z
 _atom_site_fract_occupancy
 Ba  Ba1  1  0.50000  0.50000  0.00000  1
 Hf  Hf1  1  0.00000  0.00000  0.66549  1
 Hf  Hf2  1  0.00000  0.00000  0.33451  1
 Ru  Ru1  1  0.50000  0.50000  0.50000  1
