CIF file written using JARVIS-Tools package.
data_Sc2Te3
_symmetry_space_group_name_H-M  'Fddd'
_cell_length_a       7.1552
_cell_length_b       7.15519
_cell_length_c       13.038
_cell_angle_alpha    100.563
_cell_angle_beta     100.563
_cell_angle_gamma    109.387

_symmetry_Int_Tables_number  70
_chemical_formula_structural  Sc2Te3
_chemical_formula_sum  Sc8Te2
_cell_volume  597.142771705879
_cell_formula_units_Z  4
loop_
  _symmetry_equiv_pos_site_id
 _symmetry_equiv_pos_as_xyz
 1  'x, y, z'
loop_
 _atom_site_type_symbol
 _atom_site_label
 _atom_site_symmetry_multiplicity
 _atom_site_fract_x
 _atom_site_fract_y
 _atom_site_fract_z
 _atom_site_fract_occupancy
 Sc  Sc1  1  0.20725  0.95725  0.91450  1
 Sc  Sc2  1  0.04275  0.79275  0.58550  1
 Sc  Sc3  1  0.79275  0.04275  0.08550  1
 Sc  Sc4  1  0.95725  0.20725  0.41450  1
 Sc  Sc5  1  0.87581  0.62581  0.25162  1
 Sc  Sc6  1  0.37419  0.12419  0.24838  1
 Sc  Sc7  1  0.12419  0.37419  0.74838  1
 Sc  Sc8  1  0.62581  0.87581  0.75162  1
 Te  Te1  1  0.37928  0.12928  0.75000  1
 Te  Te2  1  0.78974  0.04142  0.58302  1
 Te  Te3  1  0.62072  0.87072  0.25000  1
 Te  Te4  1  0.12928  0.37928  0.25000  1
 Te  Te5  1  0.87072  0.62072  0.75000  1
 Te  Te6  1  0.95858  0.21026  0.91698  1
 Te  Te7  1  0.21026  0.95858  0.41698  1
 Te  Te8  1  0.54160  0.29328  0.08302  1
 Te  Te9  1  0.04142  0.78974  0.08302  1
 Te  Te10  1  0.29328  0.54160  0.58302  1
 Te  Te11  1  0.70672  0.45840  0.41698  1
 Te  Te12  1  0.45840  0.70672  0.91698  1
