CIF file written using JARVIS-Tools package.
data_ZrAu4
_symmetry_space_group_name_H-M  'Pnma'
_cell_length_a       4.95188
_cell_length_b       5.10535
_cell_length_c       14.5642
_cell_angle_alpha    90
_cell_angle_beta     90
_cell_angle_gamma    90

_symmetry_Int_Tables_number  62
_chemical_formula_structural  ZrAu4
_chemical_formula_sum  Zr4Au6
_cell_volume  368.1993524555722
_cell_formula_units_Z  4
loop_
  _symmetry_equiv_pos_site_id
 _symmetry_equiv_pos_as_xyz
 1  'x, y, z'
loop_
 _atom_site_type_symbol
 _atom_site_label
 _atom_site_symmetry_multiplicity
 _atom_site_fract_x
 _atom_site_fract_y
 _atom_site_fract_z
 _atom_site_fract_occupancy
 Au  Au1  1  0.25000  0.15909  0.60052  1
 Au  Au2  1  0.25000  0.16148  0.00051  1
 Au  Au3  1  0.75000  0.33852  0.50051  1
 Au  Au4  1  0.75000  0.83852  0.99949  1
 Au  Au5  1  0.25000  0.66148  0.49949  1
 Au  Au6  1  0.25000  0.15728  0.20146  1
 Au  Au7  1  0.75000  0.32446  0.30367  1
 Au  Au8  1  0.75000  0.34272  0.70146  1
 Au  Au9  1  0.25000  0.65728  0.29854  1
 Au  Au10  1  0.25000  0.17554  0.80367  1
 Au  Au11  1  0.75000  0.34091  0.10052  1
 Au  Au12  1  0.75000  0.84091  0.39948  1
 Au  Au13  1  0.25000  0.65909  0.89948  1
 Au  Au14  1  0.25000  0.67554  0.69633  1
 Au  Au15  1  0.75000  0.82446  0.19633  1
 Au  Au16  1  0.75000  0.84272  0.79854  1
 Zr  Zr1  1  0.25000  0.15715  0.40166  1
 Zr  Zr2  1  0.75000  0.34285  0.90166  1
 Zr  Zr3  1  0.75000  0.84285  0.59834  1
 Zr  Zr4  1  0.25000  0.65715  0.09834  1
