CIF file written using JARVIS-Tools package.
data_V2OF5
_symmetry_space_group_name_H-M  'C2'
_cell_length_a       4.55223
_cell_length_b       8.34086
_cell_length_c       8.34106
_cell_angle_alpha    119.712
_cell_angle_beta     90.2253
_cell_angle_gamma    90.2251

_symmetry_Int_Tables_number  5
_chemical_formula_structural  V2OF5
_chemical_formula_sum  V6O3F5
_cell_volume  275.0596112362812
_cell_formula_units_Z  3
loop_
  _symmetry_equiv_pos_site_id
 _symmetry_equiv_pos_as_xyz
 1  'x, y, z'
loop_
 _atom_site_type_symbol
 _atom_site_label
 _atom_site_symmetry_multiplicity
 _atom_site_fract_x
 _atom_site_fract_y
 _atom_site_fract_z
 _atom_site_fract_occupancy
 F  F1  1  0.24957  0.44919  0.55068  1
 F  F2  1  0.24960  0.11491  0.88497  1
 F  F3  1  0.74963  0.88149  0.76582  1
 F  F4  1  0.24839  0.12554  0.24010  1
 F  F5  1  0.25108  0.44743  0.89838  1
 F  F6  1  0.24806  0.10149  0.55244  1
 F  F7  1  0.74927  0.89886  0.44742  1
 F  F8  1  0.24920  0.78733  0.57135  1
 F  F9  1  0.24994  0.42855  0.21255  1
 F  F10  1  0.75099  0.57383  0.79252  1
 F  F11  1  0.25074  0.75978  0.87433  1
 F  F12  1  0.74957  0.88652  0.11337  1
 F  F13  1  0.74814  0.20734  0.42604  1
 F  F14  1  0.74987  0.55245  0.10099  1
 F  F15  1  0.74952  0.23407  0.11838  1
 O  O1  1  0.24956  0.79430  0.20556  1
 O  O2  1  0.74958  0.54007  0.45980  1
 O  O3  1  0.74959  0.20768  0.79218  1
 V  V1  1  0.48247  0.67494  0.01201  1
 V  V2  1  0.01667  0.98786  0.32494  1
 V  V3  1  0.51477  0.34583  0.33985  1
 V  V4  1  0.51447  0.01354  0.67328  1
 V  V5  1  0.98470  0.32660  0.98633  1
 V  V6  1  0.98437  0.66002  0.65404  1
