CIF file written using JARVIS-Tools package.
data_TaTiBe
_symmetry_space_group_name_H-M  'I4mm'
_cell_length_a       6.05103
_cell_length_b       6.05103
_cell_length_c       6.05103
_cell_angle_alpha    153.438
_cell_angle_beta     153.438
_cell_angle_gamma    37.9168

_symmetry_Int_Tables_number  107
_chemical_formula_structural  TaTiBe
_chemical_formula_sum  TaTiBe
_cell_volume  44.23296961532003
_cell_formula_units_Z  1
loop_
  _symmetry_equiv_pos_site_id
 _symmetry_equiv_pos_as_xyz
 1  'x, y, z'
loop_
 _atom_site_type_symbol
 _atom_site_label
 _atom_site_symmetry_multiplicity
 _atom_site_fract_x
 _atom_site_fract_y
 _atom_site_fract_z
 _atom_site_fract_occupancy
 Be  Be1  1  0.00069  0.00069  0.00000  1
 Ta  Ta1  1  0.34906  0.34906  0.00000  1
 Ti  Ti1  1  0.65025  0.65025  -0.00000  1
