CIF file written using JARVIS-Tools package.
data_Fe7O3F9
_symmetry_space_group_name_H-M  'P1'
_cell_length_a       5.35879
_cell_length_b       5.52196
_cell_length_c       8.99614
_cell_angle_alpha    68.6345
_cell_angle_beta     105.721
_cell_angle_gamma    115.216

_symmetry_Int_Tables_number  1
_chemical_formula_structural  Fe7O3F9
_chemical_formula_sum  Fe7O3F9
_cell_volume  222.1599164617052
_cell_formula_units_Z  1
loop_
  _symmetry_equiv_pos_site_id
 _symmetry_equiv_pos_as_xyz
 1  'x, y, z'
loop_
 _atom_site_type_symbol
 _atom_site_label
 _atom_site_symmetry_multiplicity
 _atom_site_fract_x
 _atom_site_fract_y
 _atom_site_fract_z
 _atom_site_fract_occupancy
 F  F1  1  0.75667  0.86613  0.36625  1
 F  F2  1  0.73393  0.97749  0.79051  1
 F  F3  1  0.61844  0.60341  0.13889  1
 F  F4  1  0.29161  0.35948  0.85848  1
 F  F5  1  0.36802  0.73200  0.55920  1
 F  F6  1  0.22397  0.77165  0.96184  1
 F  F7  1  0.19131  0.46909  0.28083  1
 F  F8  1  0.80532  0.51970  0.71570  1
 F  F9  1  0.78600  0.20547  0.03362  1
 Fe  Fe1  1  0.21684  0.35006  0.06796  1
 Fe  Fe2  1  0.80023  0.91027  0.59583  1
 Fe  Fe3  1  0.94744  0.62736  0.33251  1
 Fe  Fe4  1  0.46655  0.90430  0.15924  1
 Fe  Fe5  1  0.32763  0.13760  0.43374  1
 Fe  Fe6  1  0.48709  0.13614  0.82281  1
 Fe  Fe7  1  0.03083  0.38402  0.63146  1
 O  O1  1  0.23440  0.00866  0.24278  1
 O  O2  1  0.71889  0.27558  0.46200  1
 O  O3  1  0.21124  0.12485  0.61630  1
