CIF file written using JARVIS-Tools package.
data_FeOF
_symmetry_space_group_name_H-M  'Ama2'
_cell_length_a       4.6425
_cell_length_b       4.6425
_cell_length_c       6.03076
_cell_angle_alpha    90
_cell_angle_beta     90
_cell_angle_gamma    89.2765

_symmetry_Int_Tables_number  40
_chemical_formula_structural  FeOF
_chemical_formula_sum  Fe4O4F4
_cell_volume  129.96963192656477
_cell_formula_units_Z  4
loop_
  _symmetry_equiv_pos_site_id
 _symmetry_equiv_pos_as_xyz
 1  'x, y, z'
loop_
 _atom_site_type_symbol
 _atom_site_label
 _atom_site_symmetry_multiplicity
 _atom_site_fract_x
 _atom_site_fract_y
 _atom_site_fract_z
 _atom_site_fract_occupancy
 F  F1  1  0.27870  0.27873  0.00000  1
 F  F2  1  0.72127  0.72130  0.50000  1
 F  F3  1  0.79311  0.20689  0.25000  1
 F  F4  1  0.79311  0.20689  0.75000  1
 Fe  Fe1  1  0.98501  0.94245  0.00000  1
 Fe  Fe2  1  0.05755  0.01499  0.50000  1
 Fe  Fe3  1  0.48558  0.51442  0.25000  1
 Fe  Fe4  1  0.48558  0.51442  0.75000  1
 O  O1  1  0.20288  0.79712  0.25000  1
 O  O2  1  0.20288  0.79712  0.75000  1
 O  O3  1  0.32271  0.32837  0.50000  1
 O  O4  1  0.67163  0.67729  0.00000  1
