CIF file written using JARVIS-Tools package.
data_AsS
_symmetry_space_group_name_H-M  'C2/c'
_cell_length_a       6.71293
_cell_length_b       6.71293
_cell_length_c       9.33531
_cell_angle_alpha    79.9273
_cell_angle_beta     79.9273
_cell_angle_gamma    82.0293

_symmetry_Int_Tables_number  15
_chemical_formula_structural  AsS
_chemical_formula_sum  As8S8
_cell_volume  405.2699693523484
_cell_formula_units_Z  8
loop_
  _symmetry_equiv_pos_site_id
 _symmetry_equiv_pos_as_xyz
 1  'x, y, z'
loop_
 _atom_site_type_symbol
 _atom_site_label
 _atom_site_symmetry_multiplicity
 _atom_site_fract_x
 _atom_site_fract_y
 _atom_site_fract_z
 _atom_site_fract_occupancy
 As  As1  1  0.77737  0.19270  0.94305  1
 As  As2  1  0.80730  0.22263  0.55695  1
 As  As3  1  0.22263  0.80730  0.05695  1
 As  As4  1  0.19270  0.77737  0.44305  1
 As  As5  1  0.41116  0.25358  0.86148  1
 As  As6  1  0.74642  0.58884  0.63852  1
 As  As7  1  0.58884  0.74642  0.13852  1
 As  As8  1  0.25358  0.41116  0.36148  1
 S  S1  1  0.95405  0.04595  0.75000  1
 S  S2  1  0.04595  0.95405  0.25000  1
 S  S3  1  0.41675  0.58325  0.75000  1
 S  S4  1  0.58325  0.41675  0.25000  1
 S  S5  1  0.49241  0.12364  0.64752  1
 S  S6  1  0.87636  0.50759  0.85248  1
 S  S7  1  0.50759  0.87636  0.35248  1
 S  S8  1  0.12364  0.49241  0.14752  1
