CIF file written using JARVIS-Tools package.
data_Tb3Si2Cl5O6
_symmetry_space_group_name_H-M  'C2/m'
_cell_length_a       7.42144
_cell_length_b       7.42144
_cell_length_c       11.6738
_cell_angle_alpha    80.5194
_cell_angle_beta     80.5194
_cell_angle_gamma    88.5688

_symmetry_Int_Tables_number  12
_chemical_formula_structural  Tb3Si2Cl5O6
_chemical_formula_sum  Tb6Si4Cl0O2
_cell_volume  625.5195151037354
_cell_formula_units_Z  2
loop_
  _symmetry_equiv_pos_site_id
 _symmetry_equiv_pos_as_xyz
 1  'x, y, z'
loop_
 _atom_site_type_symbol
 _atom_site_label
 _atom_site_symmetry_multiplicity
 _atom_site_fract_x
 _atom_site_fract_y
 _atom_site_fract_z
 _atom_site_fract_occupancy
 Cl  Cl1  1  0.10527  0.68274  0.42082  1
 Cl  Cl2  1  0.31805  0.31805  0.99626  1
 Cl  Cl3  1  0.76526  0.76526  0.66954  1
 Cl  Cl4  1  0.89473  0.31726  0.57918  1
 Cl  Cl5  1  0.68274  0.10527  0.42082  1
 Cl  Cl6  1  0.68195  0.68195  0.00374  1
 Cl  Cl7  1  0.61663  0.61663  0.35944  1
 Cl  Cl8  1  0.31726  0.89473  0.57918  1
 Cl  Cl9  1  0.23474  0.23474  0.33046  1
 Cl  Cl10  1  0.38337  0.38337  0.64056  1
 O  O1  1  0.85921  0.14079  -0.00000  1
 O  O2  1  0.95586  0.39441  0.82761  1
 O  O3  1  0.95158  0.95158  0.19719  1
 O  O4  1  0.39441  0.95586  0.82761  1
 O  O5  1  0.69202  0.13330  0.82742  1
 O  O6  1  0.04842  0.04842  0.80281  1
 O  O7  1  0.13330  0.69202  0.82742  1
 O  O8  1  0.86670  0.30798  0.17258  1
 O  O9  1  0.60559  0.04414  0.17239  1
 O  O10  1  0.04414  0.60559  0.17239  1
 O  O11  1  0.14079  0.85921  0.00000  1
 O  O12  1  0.30798  0.86670  0.17258  1
 Si  Si1  1  0.81706  0.10957  0.14516  1
 Si  Si2  1  0.18294  0.89043  0.85484  1
 Si  Si3  1  0.10957  0.81706  0.14516  1
 Si  Si4  1  0.89043  0.18294  0.85484  1
 Tb  Tb1  1  0.58581  0.08120  0.66790  1
 Tb  Tb2  1  0.00000  0.50000  -0.00000  1
 Tb  Tb3  1  0.41419  0.91880  0.33210  1
 Tb  Tb4  1  0.50000  0.00000  -0.00000  1
 Tb  Tb5  1  0.08120  0.58581  0.66790  1
 Tb  Tb6  1  0.91880  0.41419  0.33210  1
