CIF file written using JARVIS-Tools package.
data_Ba2LiB5O10
_symmetry_space_group_name_H-M  'P2_1/m'
_cell_length_a       4.44281
_cell_length_b       14.6821
_cell_length_c       6.71399
_cell_angle_alpha    90
_cell_angle_beta     104.052
_cell_angle_gamma    90

_symmetry_Int_Tables_number  11
_chemical_formula_structural  Ba2LiB5O10
_chemical_formula_sum  Ba4Li2B0O20
_cell_volume  424.84636683995086
_cell_formula_units_Z  2
loop_
  _symmetry_equiv_pos_site_id
 _symmetry_equiv_pos_as_xyz
 1  'x, y, z'
loop_
 _atom_site_type_symbol
 _atom_site_label
 _atom_site_symmetry_multiplicity
 _atom_site_fract_x
 _atom_site_fract_y
 _atom_site_fract_z
 _atom_site_fract_occupancy
 B  B1  1  0.04684  0.92063  0.17689  1
 B  B2  1  0.76688  0.75000  0.50387  1
 B  B3  1  0.95316  0.07937  0.82311  1
 B  B4  1  0.04684  0.57937  0.17689  1
 B  B5  1  0.95316  0.42063  0.82311  1
 B  B6  1  0.55836  0.83635  0.17575  1
 B  B7  1  0.55836  0.66365  0.17575  1
 B  B8  1  0.44164  0.16365  0.82425  1
 B  B9  1  0.44164  0.33635  0.82425  1
 B  B10  1  0.23312  0.25000  0.49613  1
 Ba  Ba1  1  0.33542  0.91074  0.69660  1
 Ba  Ba2  1  0.33542  0.58926  0.69660  1
 Ba  Ba3  1  0.66458  0.08926  0.30340  1
 Ba  Ba4  1  0.66458  0.41074  0.30340  1
 Li  Li1  1  0.98814  0.75000  0.97819  1
 Li  Li2  1  0.01186  0.25000  0.02181  1
 O  O1  1  0.83072  0.48734  0.69206  1
 O  O2  1  0.72095  0.91308  0.10246  1
 O  O3  1  0.95084  0.75000  0.69546  1
 O  O4  1  0.27905  0.08692  0.89754  1
 O  O5  1  0.72095  0.58692  0.10246  1
 O  O6  1  0.83072  0.01266  0.69206  1
 O  O7  1  0.16928  0.51266  0.30794  1
 O  O8  1  0.16928  0.98734  0.30794  1
 O  O9  1  0.27905  0.41308  0.89754  1
 O  O10  1  0.78089  0.35438  0.89455  1
 O  O11  1  0.33431  0.33197  0.59638  1
 O  O12  1  0.33431  0.16803  0.59638  1
 O  O13  1  0.66569  0.66803  0.40362  1
 O  O14  1  0.78089  0.14562  0.89455  1
 O  O15  1  0.21911  0.64562  0.10545  1
 O  O16  1  0.21911  0.85438  0.10545  1
 O  O17  1  0.62184  0.75000  0.08271  1
 O  O18  1  0.66569  0.83197  0.40362  1
 O  O19  1  0.37816  0.25000  0.91729  1
 O  O20  1  0.04916  0.25000  0.30454  1
