CIF file written using JARVIS-Tools package.
data_RhPb2
_symmetry_space_group_name_H-M  'I4/mcm'
_cell_length_a       5.64572
_cell_length_b       5.64572
_cell_length_c       5.64572
_cell_angle_alpha    106.001
_cell_angle_beta     106.001
_cell_angle_gamma    116.66

_symmetry_Int_Tables_number  140
_chemical_formula_structural  RhPb2
_chemical_formula_sum  Rh2Pb4
_cell_volume  136.8727641450408
_cell_formula_units_Z  2
loop_
  _symmetry_equiv_pos_site_id
 _symmetry_equiv_pos_as_xyz
 1  'x, y, z'
loop_
 _atom_site_type_symbol
 _atom_site_label
 _atom_site_symmetry_multiplicity
 _atom_site_fract_x
 _atom_site_fract_y
 _atom_site_fract_z
 _atom_site_fract_occupancy
 Pb  Pb1  1  0.83480  0.66520  0.50000  1
 Pb  Pb2  1  0.33480  0.83480  0.16961  1
 Pb  Pb3  1  0.16520  0.33480  0.50000  1
 Pb  Pb4  1  0.66520  0.16520  0.83039  1
 Rh  Rh1  1  0.75000  0.75000  -0.00000  1
 Rh  Rh2  1  0.25000  0.25000  -0.00000  1
