CIF file written using JARVIS-Tools package.
data_SrAl2B2O7
_symmetry_space_group_name_H-M  'R-3c'
_cell_length_a       16.3217
_cell_length_b       16.3217
_cell_length_c       16.3217
_cell_angle_alpha    17.4383
_cell_angle_beta     17.4383
_cell_angle_gamma    17.4383

_symmetry_Int_Tables_number  167
_chemical_formula_structural  SrAl2B2O7
_chemical_formula_sum  Sr2Al4B4O4
_cell_volume  340.7797590654106
_cell_formula_units_Z  2
loop_
  _symmetry_equiv_pos_site_id
 _symmetry_equiv_pos_as_xyz
 1  'x, y, z'
loop_
 _atom_site_type_symbol
 _atom_site_label
 _atom_site_symmetry_multiplicity
 _atom_site_fract_x
 _atom_site_fract_y
 _atom_site_fract_z
 _atom_site_fract_occupancy
 Al  Al1  1  0.71487  0.71487  0.71487  1
 Al  Al2  1  0.21487  0.21487  0.21487  1
 Al  Al3  1  0.28513  0.28513  0.28513  1
 Al  Al4  1  0.78513  0.78513  0.78513  1
 B  B1  1  0.13294  0.13294  0.13294  1
 B  B2  1  0.36706  0.36706  0.36706  1
 B  B3  1  0.86706  0.86706  0.86706  1
 B  B4  1  0.63294  0.63294  0.63294  1
 O  O1  1  0.25000  0.25000  0.25000  1
 O  O2  1  0.61000  0.06255  0.42500  1
 O  O3  1  0.42500  0.61000  0.06255  1
 O  O4  1  0.06255  0.42500  0.61000  1
 O  O5  1  0.07500  0.43745  0.89000  1
 O  O6  1  0.39000  0.93745  0.57500  1
 O  O7  1  0.43745  0.89000  0.07500  1
 O  O8  1  0.89000  0.07500  0.43745  1
 O  O9  1  0.11000  0.92500  0.56255  1
 O  O10  1  0.92500  0.56255  0.11000  1
 O  O11  1  0.56255  0.11000  0.92500  1
 O  O12  1  0.57500  0.39000  0.93745  1
 O  O13  1  0.75000  0.75000  0.75000  1
 O  O14  1  0.93745  0.57500  0.39000  1
 Sr  Sr1  1  0.00000  0.00000  0.00000  1
 Sr  Sr2  1  0.50000  0.50000  0.50000  1
