CIF file written using JARVIS-Tools package.
data_Fe4O3F5
_symmetry_space_group_name_H-M  'Imm2'
_cell_length_a       5.62978
_cell_length_b       5.62978
_cell_length_c       5.62978
_cell_angle_alpha    69.8388
_cell_angle_beta     101.648
_cell_angle_gamma    63.0355

_symmetry_Int_Tables_number  44
_chemical_formula_structural  Fe4O3F5
_chemical_formula_sum  Fe4O3F5
_cell_volume  134.91843259451363
_cell_formula_units_Z  1
loop_
  _symmetry_equiv_pos_site_id
 _symmetry_equiv_pos_as_xyz
 1  'x, y, z'
loop_
 _atom_site_type_symbol
 _atom_site_label
 _atom_site_symmetry_multiplicity
 _atom_site_fract_x
 _atom_site_fract_y
 _atom_site_fract_z
 _atom_site_fract_occupancy
 F  F1  1  0.54771  0.24981  0.80187  1
 F  F2  1  0.05168  0.74584  0.80187  1
 F  F3  1  0.50000  0.20538  0.29462  1
 F  F4  1  0.94832  0.24981  0.20248  1
 F  F5  1  0.45229  0.74584  0.20248  1
 Fe  Fe1  1  0.76790  0.72290  0.50919  1
 Fe  Fe2  1  0.23210  0.25871  0.50919  1
 Fe  Fe3  1  0.50000  0.52812  0.97188  1
 Fe  Fe4  1  -0.00000  0.98930  0.01070  1
 O  O1  1  0.50000  0.82192  0.67808  1
 O  O2  1  0.00000  0.28710  0.71290  1
 O  O3  1  0.00000  0.69526  0.30474  1
