CIF file written using JARVIS-Tools package.
data_Ta2N
_symmetry_space_group_name_H-M  'P-31m'
_cell_length_a       4.968
_cell_length_b       5.31697
_cell_length_c       5.3169
_cell_angle_alpha    120
_cell_angle_beta     89.9987
_cell_angle_gamma    90.0006

_symmetry_Int_Tables_number  162
_chemical_formula_structural  Ta2N
_chemical_formula_sum  Ta6N3
_cell_volume  121.6285243137926
_cell_formula_units_Z  3
loop_
  _symmetry_equiv_pos_site_id
 _symmetry_equiv_pos_as_xyz
 1  'x, y, z'
loop_
 _atom_site_type_symbol
 _atom_site_label
 _atom_site_symmetry_multiplicity
 _atom_site_fract_x
 _atom_site_fract_y
 _atom_site_fract_z
 _atom_site_fract_occupancy
 N  N1  1  0.50000  0.66665  0.33333  1
 N  N2  1  0.50000  0.33335  0.66667  1
 N  N3  1  0.00000  0.00000  0.00000  1
 Ta  Ta1  1  0.24646  0.33323  0.33324  1
 Ta  Ta2  1  0.24646  0.66677  0.00001  1
 Ta  Ta3  1  0.24647  0.00000  0.66677  1
 Ta  Ta4  1  0.75354  0.66677  0.66676  1
 Ta  Ta5  1  0.75354  0.33323  0.99999  1
 Ta  Ta6  1  0.75353  0.00000  0.33323  1
