CIF file written using JARVIS-Tools package.
data_CdB2H8
_symmetry_space_group_name_H-M  'P4_2nm'
_cell_length_a       6.03428
_cell_length_b       6.03428
_cell_length_c       5.7899
_cell_angle_alpha    90
_cell_angle_beta     90
_cell_angle_gamma    90

_symmetry_Int_Tables_number  102
_chemical_formula_structural  CdB2H8
_chemical_formula_sum  Cd2B4H6
_cell_volume  210.82511103229479
_cell_formula_units_Z  2
loop_
  _symmetry_equiv_pos_site_id
 _symmetry_equiv_pos_as_xyz
 1  'x, y, z'
loop_
 _atom_site_type_symbol
 _atom_site_label
 _atom_site_symmetry_multiplicity
 _atom_site_fract_x
 _atom_site_fract_y
 _atom_site_fract_z
 _atom_site_fract_occupancy
 B  B1  1  0.27317  0.27317  0.22408  1
 B  B2  1  0.72683  0.72683  0.22408  1
 B  B3  1  0.77317  0.22683  0.72408  1
 B  B4  1  0.22683  0.77317  0.72408  1
 Cd  Cd1  1  0.00000  0.00000  0.99652  1
 Cd  Cd2  1  0.50000  0.50000  0.49652  1
 H  H1  1  0.44791  0.19807  0.30366  1
 H  H2  1  0.55209  0.80193  0.30366  1
 H  H3  1  0.69807  0.05209  0.80366  1
 H  H4  1  0.30193  0.94791  0.80366  1
 H  H5  1  0.80036  0.19964  0.51925  1
 H  H6  1  0.94791  0.30193  0.80366  1
 H  H7  1  0.05209  0.69807  0.80366  1
 H  H8  1  0.86536  0.86536  0.29109  1
 H  H9  1  0.13464  0.13464  0.29109  1
 H  H10  1  0.80193  0.55209  0.30366  1
 H  H11  1  0.63464  0.36536  0.79109  1
 H  H12  1  0.36536  0.63464  0.79109  1
 H  H13  1  0.30036  0.30036  0.01925  1
 H  H14  1  0.69964  0.69964  0.01925  1
 H  H15  1  0.19807  0.44791  0.30366  1
 H  H16  1  0.19964  0.80036  0.51925  1
