CIF file written using JARVIS-Tools package.
data_LaCeCu4Si4
_symmetry_space_group_name_H-M  'P4/mmm'
_cell_length_a       4.13461
_cell_length_b       4.13461
_cell_length_c       9.85961
_cell_angle_alpha    90
_cell_angle_beta     90
_cell_angle_gamma    90

_symmetry_Int_Tables_number  123
_chemical_formula_structural  LaCeCu4Si4
_chemical_formula_sum  LaCeCu4Si4
_cell_volume  168.549830394206
_cell_formula_units_Z  1
loop_
  _symmetry_equiv_pos_site_id
 _symmetry_equiv_pos_as_xyz
 1  'x, y, z'
loop_
 _atom_site_type_symbol
 _atom_site_label
 _atom_site_symmetry_multiplicity
 _atom_site_fract_x
 _atom_site_fract_y
 _atom_site_fract_z
 _atom_site_fract_occupancy
 Ce  Ce1  1  0.00000  0.00000  0.00000  1
 Cu  Cu1  1  0.00000  0.50000  0.24752  1
 Cu  Cu2  1  0.50000  0.00000  0.75248  1
 Cu  Cu3  1  0.50000  0.00000  0.24752  1
 Cu  Cu4  1  0.00000  0.50000  0.75248  1
 La  La1  1  0.50000  0.50000  0.50000  1
 Si  Si1  1  0.50000  0.50000  0.12004  1
 Si  Si2  1  0.00000  0.00000  0.62395  1
 Si  Si3  1  0.00000  0.00000  0.37605  1
 Si  Si4  1  0.50000  0.50000  0.87996  1
