CIF file written using JARVIS-Tools package.
data_LaP3H8O7
_symmetry_space_group_name_H-M  'P-1'
_cell_length_a       7.17279
_cell_length_b       7.91291
_cell_length_c       8.75214
_cell_angle_alpha    109.325
_cell_angle_beta     97.9377
_cell_angle_gamma    104.943

_symmetry_Int_Tables_number  2
_chemical_formula_structural  LaP3H8O7
_chemical_formula_sum  La2P6H6O4
_cell_volume  439.10186445816885
_cell_formula_units_Z  2
loop_
  _symmetry_equiv_pos_site_id
 _symmetry_equiv_pos_as_xyz
 1  'x, y, z'
loop_
 _atom_site_type_symbol
 _atom_site_label
 _atom_site_symmetry_multiplicity
 _atom_site_fract_x
 _atom_site_fract_y
 _atom_site_fract_z
 _atom_site_fract_occupancy
 H  H1  1  0.22495  0.16669  0.91187  1
 H  H2  1  0.94512  0.64709  0.13369  1
 H  H3  1  0.65421  0.35630  0.08099  1
 H  H4  1  0.34579  0.64370  0.91901  1
 H  H5  1  0.63804  0.11886  0.16748  1
 H  H6  1  0.36196  0.88114  0.83252  1
 H  H7  1  0.77505  0.83331  0.08813  1
 H  H8  1  0.05488  0.35291  0.86631  1
 H  H9  1  0.81213  0.20912  0.53163  1
 H  H10  1  0.18787  0.79088  0.46837  1
 H  H11  1  0.82503  0.00077  0.44788  1
 H  H12  1  0.17497  -0.00077  0.55212  1
 H  H13  1  0.45477  0.58239  0.13049  1
 H  H14  1  0.45277  0.87589  0.26187  1
 H  H15  1  0.54723  0.12411  0.73813  1
 H  H16  1  0.54523  0.41761  0.86951  1
 La  La1  1  0.84437  0.68478  0.62871  1
 La  La2  1  0.15563  0.31522  0.37129  1
 O  O1  1  0.71487  0.36362  0.65075  1
 O  O2  1  0.12975  0.86928  0.55031  1
 O  O3  1  0.84952  0.43267  0.35372  1
 O  O4  1  0.15048  0.56733  0.64628  1
 O  O5  1  0.53142  0.66246  0.71507  1
 O  O6  1  0.88084  0.02175  0.76266  1
 O  O7  1  0.46858  0.33754  0.28493  1
 O  O8  1  -0.00396  0.23312  0.07884  1
 O  O9  1  0.00396  0.76688  0.92116  1
 O  O10  1  0.87025  0.13072  0.44969  1
 O  O11  1  0.28513  0.63638  0.34925  1
 O  O12  1  0.32721  0.23635  0.59766  1
 O  O13  1  0.67279  0.76365  0.40234  1
 O  O14  1  0.11916  0.97825  0.23734  1
 P  P1  1  0.65194  0.31195  0.22458  1
 P  P2  1  0.34806  0.68805  0.77542  1
 P  P3  1  0.03398  0.18975  0.90513  1
 P  P4  1  0.96602  0.81025  0.09487  1
 P  P5  1  0.46743  0.71348  0.29097  1
 P  P6  1  0.53257  0.28652  0.70903  1
