CIF file written using JARVIS-Tools package.
data_Zn2TeBr2O3
_symmetry_space_group_name_H-M  'Pccn'
_cell_length_a       7.71889
_cell_length_b       10.5966
_cell_length_c       16.0698
_cell_angle_alpha    90
_cell_angle_beta     90
_cell_angle_gamma    90

_symmetry_Int_Tables_number  56
_chemical_formula_structural  Zn2TeBr2O3
_chemical_formula_sum  Zn6Te8Br6O24
_cell_volume  1314.4138646267709
_cell_formula_units_Z  8
loop_
  _symmetry_equiv_pos_site_id
 _symmetry_equiv_pos_as_xyz
 1  'x, y, z'
loop_
 _atom_site_type_symbol
 _atom_site_label
 _atom_site_symmetry_multiplicity
 _atom_site_fract_x
 _atom_site_fract_y
 _atom_site_fract_z
 _atom_site_fract_occupancy
 Br  Br1  1  0.94217  0.20920  0.13087  1
 Br  Br2  1  0.15044  0.91425  0.28569  1
 Br  Br3  1  0.44217  0.29080  0.13087  1
 Br  Br4  1  0.05783  0.70920  0.63087  1
 Br  Br5  1  0.65044  0.58575  0.28569  1
 Br  Br6  1  0.94217  0.29080  0.36913  1
 Br  Br7  1  0.34956  0.08575  0.78569  1
 Br  Br8  1  0.84956  0.41425  0.78569  1
 Br  Br9  1  0.44217  0.20920  0.36913  1
 Br  Br10  1  0.84956  0.08575  0.71431  1
 Br  Br11  1  0.05783  0.79080  0.86913  1
 Br  Br12  1  0.55783  0.79080  0.63087  1
 Br  Br13  1  0.65044  0.91425  0.21431  1
 Br  Br14  1  0.34956  0.41425  0.71431  1
 Br  Br15  1  0.55783  0.70920  0.86913  1
 Br  Br16  1  0.15044  0.58575  0.21431  1
 O  O1  1  0.14646  0.30979  0.94571  1
 O  O2  1  0.85354  0.80979  0.44571  1
 O  O3  1  0.35354  0.69021  0.44571  1
 O  O4  1  0.64646  0.19021  0.94571  1
 O  O5  1  0.69134  0.55758  0.48852  1
 O  O6  1  0.19134  0.94242  0.48852  1
 O  O7  1  0.44085  0.08845  0.57774  1
 O  O8  1  0.19134  0.55758  0.01148  1
 O  O9  1  0.35354  0.80979  0.05429  1
 O  O10  1  0.44085  0.41155  0.92226  1
 O  O11  1  0.14646  0.19021  0.55429  1
 O  O12  1  0.55915  0.91155  0.42226  1
 O  O13  1  0.64646  0.30979  0.55429  1
 O  O14  1  0.30866  0.44242  0.51148  1
 O  O15  1  0.94085  0.41155  0.57774  1
 O  O16  1  0.55915  0.58845  0.07774  1
 O  O17  1  0.05915  0.91155  0.07774  1
 O  O18  1  0.80866  0.05758  0.51148  1
 O  O19  1  0.80866  0.44242  0.98852  1
 O  O20  1  0.05915  0.58845  0.42226  1
 O  O21  1  0.30866  0.05758  0.98852  1
 O  O22  1  0.85354  0.69021  0.05429  1
 O  O23  1  0.94085  0.08845  0.92226  1
 O  O24  1  0.69134  0.94242  0.01148  1
 Te  Te1  1  0.21002  0.47207  0.90478  1
 Te  Te2  1  0.78998  0.97207  0.40478  1
 Te  Te3  1  0.28998  0.52793  0.40478  1
 Te  Te4  1  0.71002  0.47207  0.59522  1
 Te  Te5  1  0.28998  0.97207  0.09522  1
 Te  Te6  1  0.78998  0.52793  0.09522  1
 Te  Te7  1  0.21002  0.02793  0.59522  1
 Te  Te8  1  0.71002  0.02793  0.90478  1
 Zn  Zn1  1  0.09818  0.73682  0.02273  1
 Zn  Zn2  1  0.16041  0.49192  0.60887  1
 Zn  Zn3  1  0.90182  0.23682  0.52273  1
 Zn  Zn4  1  0.09818  0.76318  0.47727  1
 Zn  Zn5  1  0.33959  0.50808  0.10887  1
 Zn  Zn6  1  0.16041  0.00808  0.89113  1
 Zn  Zn7  1  0.83959  0.99192  0.10887  1
 Zn  Zn8  1  0.59818  0.76318  0.02273  1
 Zn  Zn9  1  0.83959  0.50808  0.39113  1
 Zn  Zn10  1  0.40182  0.26318  0.52273  1
 Zn  Zn11  1  0.66041  0.00808  0.60887  1
 Zn  Zn12  1  0.66041  0.49192  0.89113  1
 Zn  Zn13  1  0.33959  0.99192  0.39113  1
 Zn  Zn14  1  0.59818  0.73682  0.47727  1
 Zn  Zn15  1  0.90182  0.26318  0.97727  1
 Zn  Zn16  1  0.40182  0.23682  0.97727  1
