CIF file written using JARVIS-Tools package.
data_SrCd2Pd
_symmetry_space_group_name_H-M  'Cmcm'
_cell_length_a       4.4699
_cell_length_b       5.78074
_cell_length_c       8.14041
_cell_angle_alpha    90
_cell_angle_beta     90
_cell_angle_gamma    112.744

_symmetry_Int_Tables_number  63
_chemical_formula_structural  SrCd2Pd
_chemical_formula_sum  Sr2Cd4Pd2
_cell_volume  193.98638355790345
_cell_formula_units_Z  2
loop_
  _symmetry_equiv_pos_site_id
 _symmetry_equiv_pos_as_xyz
 1  'x, y, z'
loop_
 _atom_site_type_symbol
 _atom_site_label
 _atom_site_symmetry_multiplicity
 _atom_site_fract_x
 _atom_site_fract_y
 _atom_site_fract_z
 _atom_site_fract_occupancy
 Cd  Cd1  1  0.35563  0.71126  0.44523  1
 Cd  Cd2  1  0.64437  0.28874  0.55477  1
 Cd  Cd3  1  0.35563  0.71126  0.05477  1
 Cd  Cd4  1  0.64437  0.28874  0.94523  1
 Pd  Pd1  1  0.77905  0.55810  0.25000  1
 Pd  Pd2  1  0.22095  0.44190  0.75000  1
 Sr  Sr1  1  0.06596  0.13193  0.25000  1
 Sr  Sr2  1  0.93404  0.86807  0.75000  1
