CIF file written using JARVIS-Tools package.
data_SiBi12O20
_symmetry_space_group_name_H-M  'I23'
_cell_length_a       8.79063
_cell_length_b       8.79063
_cell_length_c       8.79063
_cell_angle_alpha    109.471
_cell_angle_beta     109.471
_cell_angle_gamma    109.471

_symmetry_Int_Tables_number  197
_chemical_formula_structural  SiBi12O20
_chemical_formula_sum  SiBi2O20
_cell_volume  522.9237610070276
_cell_formula_units_Z  1
loop_
  _symmetry_equiv_pos_site_id
 _symmetry_equiv_pos_as_xyz
 1  'x, y, z'
loop_
 _atom_site_type_symbol
 _atom_site_label
 _atom_site_symmetry_multiplicity
 _atom_site_fract_x
 _atom_site_fract_y
 _atom_site_fract_z
 _atom_site_fract_occupancy
 Bi  Bi1  1  0.30484  0.81091  0.14294  1
 Bi  Bi2  1  0.33203  0.18909  0.49393  1
 Bi  Bi3  1  0.14294  0.30484  0.81091  1
 Bi  Bi4  1  0.16190  0.85706  0.66797  1
 Bi  Bi5  1  0.50607  0.69516  0.83810  1
 Bi  Bi6  1  0.81091  0.14294  0.30484  1
 Bi  Bi7  1  0.85706  0.66797  0.16190  1
 Bi  Bi8  1  0.49393  0.33203  0.18909  1
 Bi  Bi9  1  0.18909  0.49393  0.33203  1
 Bi  Bi10  1  0.69516  0.83810  0.50607  1
 Bi  Bi11  1  0.66797  0.16190  0.85706  1
 Bi  Bi12  1  0.83810  0.50607  0.69516  1
 O  O1  1  0.39708  0.39708  0.39708  1
 O  O2  1  -0.00000  0.60292  0.00000  1
 O  O3  1  0.00000  0.00000  0.60292  1
 O  O4  1  0.60292  -0.00000  -0.00000  1
 O  O5  1  0.18941  0.00000  0.00000  1
 O  O6  1  0.00000  0.18941  -0.00000  1
 O  O7  1  -0.00000  -0.00000  0.18941  1
 O  O8  1  0.25369  0.64381  0.87282  1
 O  O9  1  0.81059  0.81059  0.81059  1
 O  O10  1  0.77100  0.38087  0.12718  1
 O  O11  1  0.64381  0.87282  0.25369  1
 O  O12  1  0.61913  0.39012  0.74631  1
 O  O13  1  0.39012  0.74631  0.61913  1
 O  O14  1  0.74631  0.61913  0.39012  1
 O  O15  1  0.35619  0.60988  0.22900  1
 O  O16  1  0.12718  0.77100  0.38087  1
 O  O17  1  0.60988  0.22900  0.35619  1
 O  O18  1  0.38087  0.12718  0.77100  1
 O  O19  1  0.87282  0.25369  0.64381  1
 O  O20  1  0.22900  0.35619  0.60988  1
 Si  Si1  1  0.00000  0.00000  0.00000  1
