CIF file written using JARVIS-Tools package.
data_TlZnAsO4
_symmetry_space_group_name_H-M  'P2_1'
_cell_length_a       9.0231
_cell_length_b       5.68318
_cell_length_c       8.97569
_cell_angle_alpha    90
_cell_angle_beta     91.1719
_cell_angle_gamma    90

_symmetry_Int_Tables_number  4
_chemical_formula_structural  TlZnAsO4
_chemical_formula_sum  Tl4Zn4As4O6
_cell_volume  460.1764198846218
_cell_formula_units_Z  4
loop_
  _symmetry_equiv_pos_site_id
 _symmetry_equiv_pos_as_xyz
 1  'x, y, z'
loop_
 _atom_site_type_symbol
 _atom_site_label
 _atom_site_symmetry_multiplicity
 _atom_site_fract_x
 _atom_site_fract_y
 _atom_site_fract_z
 _atom_site_fract_occupancy
 As  As1  1  0.69025  0.46648  0.06563  1
 As  As2  1  0.30975  0.96648  0.93437  1
 As  As3  1  0.18663  0.50242  0.39981  1
 As  As4  1  0.81337  0.00242  0.60019  1
 O  O1  1  0.22010  0.79887  0.42809  1
 O  O2  1  0.01723  0.46414  0.31102  1
 O  O3  1  0.66826  0.40920  0.25221  1
 O  O4  1  0.47962  0.99504  0.02537  1
 O  O5  1  0.52038  0.49504  0.97463  1
 O  O6  1  0.21257  0.22297  0.96118  1
 O  O7  1  0.78743  0.72297  0.03882  1
 O  O8  1  0.98277  0.96414  0.68898  1
 O  O9  1  0.19805  0.34975  0.56603  1
 O  O10  1  0.32393  0.39445  0.28765  1
 O  O11  1  0.67607  0.89445  0.71235  1
 O  O12  1  0.33174  0.90920  0.74779  1
 O  O13  1  0.78865  0.24417  0.98180  1
 O  O14  1  0.80195  0.84975  0.43397  1
 O  O15  1  0.77990  0.29887  0.57191  1
 O  O16  1  0.21135  0.74417  0.01820  1
 Tl  Tl1  1  0.49770  0.50383  0.67400  1
 Tl  Tl2  1  0.50230  0.00383  0.32600  1
 Tl  Tl3  1  0.00219  0.48882  0.81631  1
 Tl  Tl4  1  0.99781  0.98882  0.18369  1
 Zn  Zn1  1  0.32842  0.46341  0.07483  1
 Zn  Zn2  1  0.67158  0.96341  0.92517  1
 Zn  Zn3  1  0.82162  0.50476  0.40160  1
 Zn  Zn4  1  0.17838  0.00476  0.59840  1
