CIF file written using JARVIS-Tools package.
data_KCN3O2
_symmetry_space_group_name_H-M  'P2_1/c'
_cell_length_a       6.8247
_cell_length_b       7.18052
_cell_length_c       8.52544
_cell_angle_alpha    90
_cell_angle_beta     108.502
_cell_angle_gamma    90

_symmetry_Int_Tables_number  14
_chemical_formula_structural  KCN3O2
_chemical_formula_sum  K4C4N2O8
_cell_volume  396.19315322798553
_cell_formula_units_Z  4
loop_
  _symmetry_equiv_pos_site_id
 _symmetry_equiv_pos_as_xyz
 1  'x, y, z'
loop_
 _atom_site_type_symbol
 _atom_site_label
 _atom_site_symmetry_multiplicity
 _atom_site_fract_x
 _atom_site_fract_y
 _atom_site_fract_z
 _atom_site_fract_occupancy
 C  C1  1  0.43914  0.44770  0.29053  1
 C  C2  1  0.56086  0.94770  0.20947  1
 C  C3  1  0.43914  0.05230  0.79053  1
 C  C4  1  0.56086  0.55230  0.70947  1
 K  K1  1  0.85072  0.88871  0.63906  1
 K  K2  1  0.85072  0.61129  0.13906  1
 K  K3  1  0.14928  0.11129  0.36094  1
 K  K4  1  0.14928  0.38871  0.86094  1
 N  N1  1  0.73953  0.96055  0.27635  1
 N  N2  1  0.70816  0.30721  0.46713  1
 N  N3  1  0.70816  0.19279  0.96713  1
 N  N4  1  0.26047  0.03945  0.72365  1
 N  N5  1  0.73953  0.53945  0.77635  1
 N  N6  1  0.64211  0.05335  0.85668  1
 N  N7  1  0.35789  0.94665  0.14332  1
 N  N8  1  0.26047  0.46055  0.22365  1
 N  N9  1  0.29184  0.69279  0.53287  1
 N  N10  1  0.64211  0.44665  0.35668  1
 N  N11  1  0.29184  0.80721  0.03287  1
 N  N12  1  0.35789  0.55335  0.64332  1
 O  O1  1  0.58155  0.29850  0.00483  1
 O  O2  1  0.58155  0.20150  0.50483  1
 O  O3  1  0.41845  0.70150  -0.00483  1
 O  O4  1  0.09955  0.71297  0.46959  1
 O  O5  1  0.09955  0.78703  0.96959  1
 O  O6  1  0.41845  0.79850  0.49517  1
 O  O7  1  0.90045  0.21297  0.03041  1
 O  O8  1  0.90045  0.28703  0.53041  1
