CIF file written using JARVIS-Tools package.
data_LiV3Zn2O8
_symmetry_space_group_name_H-M  'R-3m'
_cell_length_a       5.9399
_cell_length_b       5.86282
_cell_length_c       5.86282
_cell_angle_alpha    60
_cell_angle_beta     90
_cell_angle_gamma    119.572

_symmetry_Int_Tables_number  166
_chemical_formula_structural  LiV3Zn2O8
_chemical_formula_sum  LiV3Zn2O8
_cell_volume  145.29812471735548
_cell_formula_units_Z  1
loop_
  _symmetry_equiv_pos_site_id
 _symmetry_equiv_pos_as_xyz
 1  'x, y, z'
loop_
 _atom_site_type_symbol
 _atom_site_label
 _atom_site_symmetry_multiplicity
 _atom_site_fract_x
 _atom_site_fract_y
 _atom_site_fract_z
 _atom_site_fract_occupancy
 Li  Li1  1  0.12500  0.75000  0.62500  1
 O  O1  1  0.85241  0.23494  0.38253  1
 O  O2  1  0.40594  0.24529  0.37735  1
 O  O3  1  0.84406  0.25471  0.87265  1
 O  O4  1  0.84406  0.71671  0.41065  1
 O  O5  1  0.84406  0.71671  0.87265  1
 O  O6  1  0.39759  0.26506  0.86747  1
 O  O7  1  0.40594  0.78329  0.37735  1
 O  O8  1  0.40594  0.78329  0.83935  1
 V  V1  1  0.62500  0.25000  0.12500  1
 V  V2  1  0.62500  0.25000  0.62500  1
 V  V3  1  0.62500  0.75000  0.62500  1
 Zn  Zn1  1  0.99104  0.99403  0.00299  1
 Zn  Zn2  1  0.25896  0.50597  0.24701  1
