CIF file written using JARVIS-Tools package.
data_CeMg7
_symmetry_space_group_name_H-M  'P-6m2'
_cell_length_a       6.66776
_cell_length_b       6.66776
_cell_length_c       5.14442
_cell_angle_alpha    90
_cell_angle_beta     90
_cell_angle_gamma    120

_symmetry_Int_Tables_number  187
_chemical_formula_structural  CeMg7
_chemical_formula_sum  CeMg7
_cell_volume  198.0737920926846
_cell_formula_units_Z  1
loop_
  _symmetry_equiv_pos_site_id
 _symmetry_equiv_pos_as_xyz
 1  'x, y, z'
loop_
 _atom_site_type_symbol
 _atom_site_label
 _atom_site_symmetry_multiplicity
 _atom_site_fract_x
 _atom_site_fract_y
 _atom_site_fract_z
 _atom_site_fract_occupancy
 Ce  Ce1  1  0.16667  0.33333  0.25000  1
 Mg  Mg1  1  0.17638  0.83819  0.25000  1
 Mg  Mg2  1  0.66181  0.32362  0.25000  1
 Mg  Mg3  1  0.66181  0.83819  0.25000  1
 Mg  Mg4  1  0.33624  0.16376  0.75000  1
 Mg  Mg5  1  0.33624  0.67249  0.75000  1
 Mg  Mg6  1  0.82751  0.16376  0.75000  1
 Mg  Mg7  1  0.83333  0.66667  0.75000  1
