CIF file written using JARVIS-Tools package.
data_ThTe2O6
_symmetry_space_group_name_H-M  'P2_1/c'
_cell_length_a       7.23076
_cell_length_b       7.3494
_cell_length_c       11.3254
_cell_angle_alpha    90
_cell_angle_beta     90
_cell_angle_gamma    107.668

_symmetry_Int_Tables_number  14
_chemical_formula_structural  ThTe2O6
_chemical_formula_sum  Th4Te8O24
_cell_volume  573.462717132521
_cell_formula_units_Z  4
loop_
  _symmetry_equiv_pos_site_id
 _symmetry_equiv_pos_as_xyz
 1  'x, y, z'
loop_
 _atom_site_type_symbol
 _atom_site_label
 _atom_site_symmetry_multiplicity
 _atom_site_fract_x
 _atom_site_fract_y
 _atom_site_fract_z
 _atom_site_fract_occupancy
 O  O1  1  0.03662  0.16792  0.59167  1
 O  O2  1  0.17812  0.69226  0.02917  1
 O  O3  1  0.67812  0.19226  0.47083  1
 O  O4  1  0.42684  0.03045  0.89939  1
 O  O5  1  0.91019  0.91969  0.09883  1
 O  O6  1  0.57316  0.96955  0.10061  1
 O  O7  1  0.92684  0.53045  0.60061  1
 O  O8  1  0.32188  0.80774  0.52917  1
 O  O9  1  0.08981  0.08031  0.90117  1
 O  O10  1  0.18617  0.61769  0.78106  1
 O  O11  1  0.58981  0.58031  0.59883  1
 O  O12  1  0.35679  0.31541  0.74570  1
 O  O13  1  0.14321  0.18459  0.24570  1
 O  O14  1  0.64321  0.68459  0.25430  1
 O  O15  1  0.85679  0.81541  0.75430  1
 O  O16  1  0.41019  0.41969  0.40117  1
 O  O17  1  0.46338  0.33208  0.09167  1
 O  O18  1  0.31383  0.88231  0.28106  1
 O  O19  1  0.53662  0.66792  0.90833  1
 O  O20  1  0.96338  0.83208  0.40833  1
 O  O21  1  0.81383  0.38231  0.21894  1
 O  O22  1  0.68617  0.11769  0.71894  1
 O  O23  1  0.82188  0.30774  0.97083  1
 O  O24  1  0.07316  0.46955  0.39939  1
 Te  Te1  1  0.26475  0.52790  0.92508  1
 Te  Te2  1  0.76475  0.02790  0.57492  1
 Te  Te3  1  0.73525  0.47210  0.07492  1
 Te  Te4  1  0.24545  0.45194  0.27374  1
 Te  Te5  1  0.74545  0.95194  0.22626  1
 Te  Te6  1  0.75455  0.54806  0.72626  1
 Te  Te7  1  0.25455  0.04806  0.77374  1
 Te  Te8  1  0.23525  0.97210  0.42508  1
 Th  Th1  1  0.24064  0.49217  0.59177  1
 Th  Th2  1  0.25936  0.00783  0.09177  1
 Th  Th3  1  0.75936  0.50783  0.40823  1
 Th  Th4  1  0.74064  0.99217  0.90823  1
