CIF file written using JARVIS-Tools package.
data_Re3S4Cl
_symmetry_space_group_name_H-M  'P2_1/c'
_cell_length_a       6.4315
_cell_length_b       9.86607
_cell_length_c       11.4818
_cell_angle_alpha    90
_cell_angle_beta     90
_cell_angle_gamma    100.047

_symmetry_Int_Tables_number  14
_chemical_formula_structural  Re3S4Cl
_chemical_formula_sum  Re2S6Cl4
_cell_volume  717.3874488426212
_cell_formula_units_Z  4
loop_
  _symmetry_equiv_pos_site_id
 _symmetry_equiv_pos_as_xyz
 1  'x, y, z'
loop_
 _atom_site_type_symbol
 _atom_site_label
 _atom_site_symmetry_multiplicity
 _atom_site_fract_x
 _atom_site_fract_y
 _atom_site_fract_z
 _atom_site_fract_occupancy
 Cl  Cl1  1  0.20776  0.10770  0.35431  1
 Cl  Cl2  1  0.70776  0.60770  0.14569  1
 Cl  Cl3  1  0.79224  0.89230  0.64569  1
 Cl  Cl4  1  0.29224  0.39230  0.85431  1
 Re  Re1  1  0.90747  0.93815  0.85234  1
 Re  Re2  1  0.24690  0.93240  0.97774  1
 Re  Re3  1  0.40747  0.43815  0.64766  1
 Re  Re4  1  0.12471  0.16643  0.93396  1
 Re  Re5  1  0.75310  0.06760  0.02226  1
 Re  Re6  1  0.09253  0.06185  0.14766  1
 Re  Re7  1  0.59253  0.56185  0.35234  1
 Re  Re8  1  0.62471  0.66643  0.56604  1
 Re  Re9  1  0.74690  0.43240  0.52226  1
 Re  Re10  1  0.25310  0.56760  0.47774  1
 Re  Re11  1  0.87529  0.83357  0.06604  1
 Re  Re12  1  0.37529  0.33357  0.43396  1
 S  S1  1  0.69839  0.33864  0.32720  1
 S  S2  1  0.19839  0.83864  0.17280  1
 S  S3  1  0.53064  0.22616  0.59400  1
 S  S4  1  0.92740  0.66559  0.43946  1
 S  S5  1  0.30161  0.66136  0.67280  1
 S  S6  1  0.96936  0.27384  0.09400  1
 S  S7  1  0.03064  0.72616  0.90600  1
 S  S8  1  0.74323  0.97007  0.21595  1
 S  S9  1  0.46936  0.77384  0.40600  1
 S  S10  1  0.42740  0.16559  0.06054  1
 S  S11  1  0.80161  0.16136  0.82720  1
 S  S12  1  0.07260  0.33441  0.56054  1
 S  S13  1  0.25677  0.02993  0.78405  1
 S  S14  1  0.75677  0.52993  0.71595  1
 S  S15  1  0.24323  0.47007  0.28405  1
 S  S16  1  0.57260  0.83441  0.93946  1
