CIF file written using JARVIS-Tools package.
data_RbZnF3
_symmetry_space_group_name_H-M  'P6_3/mmc'
_cell_length_a       5.94238
_cell_length_b       5.94238
_cell_length_c       14.5728
_cell_angle_alpha    90
_cell_angle_beta     90
_cell_angle_gamma    120

_symmetry_Int_Tables_number  194
_chemical_formula_structural  RbZnF3
_chemical_formula_sum  Rb6Zn6F8
_cell_volume  445.65059879600165
_cell_formula_units_Z  6
loop_
  _symmetry_equiv_pos_site_id
 _symmetry_equiv_pos_as_xyz
 1  'x, y, z'
loop_
 _atom_site_type_symbol
 _atom_site_label
 _atom_site_symmetry_multiplicity
 _atom_site_fract_x
 _atom_site_fract_y
 _atom_site_fract_z
 _atom_site_fract_occupancy
 F  F1  1  0.03058  0.51529  0.25000  1
 F  F2  1  0.83452  0.66903  0.58011  1
 F  F3  1  0.83452  0.16548  0.58011  1
 F  F4  1  0.51529  0.03058  0.75000  1
 F  F5  1  0.66903  0.83452  0.08011  1
 F  F6  1  0.16548  0.83452  0.41989  1
 F  F7  1  0.16548  0.33097  0.08011  1
 F  F8  1  0.16548  0.83452  0.08011  1
 F  F9  1  0.33097  0.16548  0.58011  1
 F  F10  1  0.33097  0.16548  0.91989  1
 F  F11  1  0.16548  0.33097  0.41989  1
 F  F12  1  0.83452  0.16548  0.91989  1
 F  F13  1  0.51529  0.48471  0.75000  1
 F  F14  1  0.48471  0.96942  0.25000  1
 F  F15  1  0.48471  0.51529  0.25000  1
 F  F16  1  0.96942  0.48471  0.75000  1
 F  F17  1  0.66903  0.83452  0.41989  1
 F  F18  1  0.83452  0.66903  0.91989  1
 Rb  Rb1  1  0.00000  0.00000  0.75000  1
 Rb  Rb2  1  0.00000  0.00000  0.25000  1
 Rb  Rb3  1  0.33333  0.66667  0.90410  1
 Rb  Rb4  1  0.66667  0.33333  0.40410  1
 Rb  Rb5  1  0.66667  0.33333  0.09590  1
 Rb  Rb6  1  0.33333  0.66667  0.59590  1
 Zn  Zn1  1  0.66667  0.33333  0.65366  1
 Zn  Zn2  1  0.33333  0.66667  0.34634  1
 Zn  Zn3  1  0.66667  0.33333  0.84634  1
 Zn  Zn4  1  0.33333  0.66667  0.15366  1
 Zn  Zn5  1  0.00000  0.00000  0.50000  1
 Zn  Zn6  1  0.00000  0.00000  0.00000  1
