CIF file written using JARVIS-Tools package.
data_LaGaSe2O
_symmetry_space_group_name_H-M  'Pca2_1'
_cell_length_a       5.97588
_cell_length_b       5.98166
_cell_length_c       12.334
_cell_angle_alpha    90
_cell_angle_beta     90
_cell_angle_gamma    90

_symmetry_Int_Tables_number  29
_chemical_formula_structural  LaGaSe2O
_chemical_formula_sum  La4Ga4Se8O4
_cell_volume  440.8872930677801
_cell_formula_units_Z  4
loop_
  _symmetry_equiv_pos_site_id
 _symmetry_equiv_pos_as_xyz
 1  'x, y, z'
loop_
 _atom_site_type_symbol
 _atom_site_label
 _atom_site_symmetry_multiplicity
 _atom_site_fract_x
 _atom_site_fract_y
 _atom_site_fract_z
 _atom_site_fract_occupancy
 Ga  Ga1  1  0.65849  0.07721  0.39792  1
 Ga  Ga2  1  0.15849  0.92279  0.60208  1
 Ga  Ga3  1  0.65849  0.57721  0.60208  1
 Ga  Ga4  1  0.15849  0.42279  0.39792  1
 La  La1  1  0.75421  0.49742  0.09587  1
 La  La2  1  0.25421  0.00258  0.09587  1
 La  La3  1  0.25421  0.50258  0.90413  1
 La  La4  1  0.75421  0.99742  0.90413  1
 O  O1  1  0.00094  0.25061  0.99859  1
 O  O2  1  0.50094  0.74939  0.00141  1
 O  O3  1  0.50094  0.24939  0.99859  1
 O  O4  1  0.00094  0.75061  0.00141  1
 Se  Se1  1  0.25034  0.52098  0.58737  1
 Se  Se2  1  0.25034  0.02098  0.41263  1
 Se  Se3  1  0.25532  0.50675  0.21860  1
 Se  Se4  1  0.75532  0.99325  0.21860  1
 Se  Se5  1  0.75034  0.47902  0.41263  1
 Se  Se6  1  0.25532  0.00675  0.78140  1
 Se  Se7  1  0.75034  0.97902  0.58737  1
 Se  Se8  1  0.75532  0.49325  0.78140  1
