CIF file written using JARVIS-Tools package.
data_V4O7F5
_symmetry_space_group_name_H-M  'P1'
_cell_length_a       5.00754
_cell_length_b       5.22026
_cell_length_c       7.45816
_cell_angle_alpha    87.1616
_cell_angle_beta     89.9319
_cell_angle_gamma    88.0788

_symmetry_Int_Tables_number  1
_chemical_formula_structural  V4O7F5
_chemical_formula_sum  V4O7F5
_cell_volume  194.61271354352505
_cell_formula_units_Z  1
loop_
  _symmetry_equiv_pos_site_id
 _symmetry_equiv_pos_as_xyz
 1  'x, y, z'
loop_
 _atom_site_type_symbol
 _atom_site_label
 _atom_site_symmetry_multiplicity
 _atom_site_fract_x
 _atom_site_fract_y
 _atom_site_fract_z
 _atom_site_fract_occupancy
 F  F1  1  0.80138  0.30148  0.44919  1
 F  F2  1  0.79138  0.71221  0.05822  1
 F  F3  1  0.68924  0.80617  0.44153  1
 F  F4  1  0.30329  0.19255  0.55571  1
 F  F5  1  0.20293  0.30362  0.94295  1
 O  O1  1  0.89397  0.00013  0.74706  1
 O  O2  1  0.71016  0.21934  0.04099  1
 O  O3  1  0.61046  0.50503  0.74836  1
 O  O4  1  0.39057  0.49689  0.25500  1
 O  O5  1  0.28752  0.79430  0.95862  1
 O  O6  1  0.19634  0.70212  0.54967  1
 O  O7  1  0.10569  0.00492  0.24959  1
 V  V1  1  0.46098  0.50495  0.46734  1
 V  V2  1  0.53389  0.48534  0.96230  1
 V  V3  1  0.98385  0.98085  0.53803  1
 V  V4  1  0.03834  0.99009  0.03545  1
