CIF file written using JARVIS-Tools package.
data_YCu3Se2ClO8
_symmetry_space_group_name_H-M  'Pmmn'
_cell_length_a       6.3439
_cell_length_b       7.00554
_cell_length_c       9.52241
_cell_angle_alpha    90
_cell_angle_beta     90
_cell_angle_gamma    90

_symmetry_Int_Tables_number  59
_chemical_formula_structural  YCu3Se2ClO8
_chemical_formula_sum  Y2Cu6Se4Cl2O6
_cell_volume  423.1997175838531
_cell_formula_units_Z  2
loop_
  _symmetry_equiv_pos_site_id
 _symmetry_equiv_pos_as_xyz
 1  'x, y, z'
loop_
 _atom_site_type_symbol
 _atom_site_label
 _atom_site_symmetry_multiplicity
 _atom_site_fract_x
 _atom_site_fract_y
 _atom_site_fract_z
 _atom_site_fract_occupancy
 Cl  Cl1  1  0.75000  0.84733  0.25000  1
 Cl  Cl2  1  0.25000  0.15267  0.75000  1
 Cu  Cu1  1  0.50000  0.00000  0.00000  1
 Cu  Cu2  1  0.50000  0.00000  0.50000  1
 Cu  Cu3  1  0.00000  0.00000  0.00000  1
 Cu  Cu4  1  0.75000  0.20590  0.75000  1
 Cu  Cu5  1  0.25000  0.79410  0.25000  1
 Cu  Cu6  1  0.00000  0.00000  0.50000  1
 O  O1  1  0.96243  0.26245  0.41055  1
 O  O2  1  0.25000  0.99638  0.11176  1
 O  O3  1  0.03757  0.73755  0.58945  1
 O  O4  1  0.25000  0.57271  0.11978  1
 O  O5  1  0.53757  0.26245  0.08945  1
 O  O6  1  0.75000  0.42729  0.61978  1
 O  O7  1  0.96243  0.26245  0.08945  1
 O  O8  1  0.75000  0.42729  0.88022  1
 O  O9  1  0.46243  0.73755  0.58945  1
 O  O10  1  0.03757  0.73755  0.91055  1
 O  O11  1  0.25000  0.57271  0.38022  1
 O  O12  1  0.75000  0.00362  0.61176  1
 O  O13  1  0.46243  0.73755  0.91055  1
 O  O14  1  0.53757  0.26245  0.41055  1
 O  O15  1  0.75000  0.00362  0.88824  1
 O  O16  1  0.25000  0.99638  0.38824  1
 Se  Se1  1  0.25000  0.58602  0.93793  1
 Se  Se2  1  0.75000  0.41398  0.06207  1
 Se  Se3  1  0.75000  0.41398  0.43793  1
 Se  Se4  1  0.25000  0.58602  0.56207  1
 Y  Y1  1  0.75000  0.73169  0.75000  1
 Y  Y2  1  0.25000  0.26831  0.25000  1
