CIF file written using JARVIS-Tools package.
data_TcBr4
_symmetry_space_group_name_H-M  'Pbca'
_cell_length_a       6.38555
_cell_length_b       12.2237
_cell_length_c       14.865
_cell_angle_alpha    90
_cell_angle_beta     90
_cell_angle_gamma    90

_symmetry_Int_Tables_number  61
_chemical_formula_structural  TcBr4
_chemical_formula_sum  Tc8Br32
_cell_volume  1160.2902537441405
_cell_formula_units_Z  8
loop_
  _symmetry_equiv_pos_site_id
 _symmetry_equiv_pos_as_xyz
 1  'x, y, z'
loop_
 _atom_site_type_symbol
 _atom_site_label
 _atom_site_symmetry_multiplicity
 _atom_site_fract_x
 _atom_site_fract_y
 _atom_site_fract_z
 _atom_site_fract_occupancy
 Br  Br1  1  0.23423  0.51180  0.30890  1
 Br  Br2  1  0.25365  0.50730  0.06816  1
 Br  Br3  1  0.07694  0.75259  0.69135  1
 Br  Br4  1  0.44206  0.24819  0.93199  1
 Br  Br5  1  0.73423  0.51180  0.19110  1
 Br  Br6  1  0.74635  0.49270  0.93184  1
 Br  Br7  1  0.92306  0.25259  0.80865  1
 Br  Br8  1  0.94206  0.24819  0.56801  1
 Br  Br9  1  0.26577  0.01180  0.30890  1
 Br  Br10  1  0.92306  0.24741  0.30865  1
 Br  Br11  1  0.05794  0.75181  0.43199  1
 Br  Br12  1  0.24635  0.49270  0.56816  1
 Br  Br13  1  0.75365  0.50730  0.43184  1
 Br  Br14  1  0.07694  0.74741  0.19135  1
 Br  Br15  1  0.55794  0.74819  0.56801  1
 Br  Br16  1  0.75365  0.99270  0.93184  1
 Br  Br17  1  0.26577  0.48820  0.80890  1
 Br  Br18  1  0.24635  0.00730  0.06816  1
 Br  Br19  1  0.25365  0.99270  0.56816  1
 Br  Br20  1  0.42306  0.25259  0.69135  1
 Br  Br21  1  0.76577  0.01180  0.19110  1
 Br  Br22  1  0.44206  0.25181  0.43199  1
 Br  Br23  1  0.57694  0.74741  0.30865  1
 Br  Br24  1  0.55794  0.75181  0.06801  1
 Br  Br25  1  0.05794  0.74819  0.93199  1
 Br  Br26  1  0.74635  0.00730  0.43184  1
 Br  Br27  1  0.23423  0.98820  0.80890  1
 Br  Br28  1  0.73423  0.98820  0.69110  1
 Br  Br29  1  0.76577  0.48820  0.69110  1
 Br  Br30  1  0.57694  0.75259  0.80865  1
 Br  Br31  1  0.42306  0.24741  0.19135  1
 Br  Br32  1  0.94206  0.25181  0.06801  1
 Tc  Tc1  1  0.09438  0.37013  0.67856  1
 Tc  Tc2  1  0.90562  0.62987  0.32144  1
 Tc  Tc3  1  0.09438  0.12987  0.17856  1
 Tc  Tc4  1  0.40562  0.87013  0.67856  1
 Tc  Tc5  1  0.59438  0.12987  0.32144  1
 Tc  Tc6  1  0.90562  0.87013  0.82144  1
 Tc  Tc7  1  0.59438  0.37013  0.82144  1
 Tc  Tc8  1  0.40562  0.62987  0.17856  1
