CIF file written using JARVIS-Tools package.
data_SrSiPd
_symmetry_space_group_name_H-M  'P2_13'
_cell_length_a       6.55229
_cell_length_b       6.55229
_cell_length_c       6.55229
_cell_angle_alpha    90
_cell_angle_beta     90
_cell_angle_gamma    90

_symmetry_Int_Tables_number  198
_chemical_formula_structural  SrSiPd
_chemical_formula_sum  Sr4Si4Pd4
_cell_volume  281.3057671386254
_cell_formula_units_Z  4
loop_
  _symmetry_equiv_pos_site_id
 _symmetry_equiv_pos_as_xyz
 1  'x, y, z'
loop_
 _atom_site_type_symbol
 _atom_site_label
 _atom_site_symmetry_multiplicity
 _atom_site_fract_x
 _atom_site_fract_y
 _atom_site_fract_z
 _atom_site_fract_occupancy
 Pd  Pd1  1  0.58835  0.91165  0.08835  1
 Pd  Pd2  1  0.08835  0.58835  0.91165  1
 Pd  Pd3  1  0.41165  0.41165  0.41165  1
 Pd  Pd4  1  0.91165  0.08835  0.58835  1
 Si  Si1  1  0.16451  0.33549  0.66451  1
 Si  Si2  1  0.66451  0.16451  0.33549  1
 Si  Si3  1  0.33549  0.66451  0.16451  1
 Si  Si4  1  0.83549  0.83549  0.83549  1
 Sr  Sr1  1  0.62888  0.37112  0.87112  1
 Sr  Sr2  1  0.37112  0.87112  0.62888  1
 Sr  Sr3  1  0.12888  0.12888  0.12888  1
 Sr  Sr4  1  0.87112  0.62888  0.37112  1
