CIF file written using JARVIS-Tools package.
data_ZnCdSe4C4N4
_symmetry_space_group_name_H-M  'I-4'
_cell_length_a       4.52459
_cell_length_b       8.35385
_cell_length_c       8.35487
_cell_angle_alpha    85.7866
_cell_angle_beta     74.2615
_cell_angle_gamma    74.2866

_symmetry_Int_Tables_number  82
_chemical_formula_structural  ZnCdSe4C4N4
_chemical_formula_sum  ZnCdSe4C4N4
_cell_volume  292.5966266603319
_cell_formula_units_Z  1
loop_
  _symmetry_equiv_pos_site_id
 _symmetry_equiv_pos_as_xyz
 1  'x, y, z'
loop_
 _atom_site_type_symbol
 _atom_site_label
 _atom_site_symmetry_multiplicity
 _atom_site_fract_x
 _atom_site_fract_y
 _atom_site_fract_z
 _atom_site_fract_occupancy
 C  C1  1  0.45519  0.64128  0.20384  1
 C  C2  1  0.34100  0.20385  0.35870  1
 C  C3  1  0.90397  0.79617  0.64127  1
 C  C4  1  0.29986  0.35871  0.79616  1
 Cd  Cd1  1  0.49999  0.00001  -0.00000  1
 N  N1  1  0.55490  0.58898  0.31806  1
 N  N2  1  0.12703  0.31807  0.41109  1
 N  N3  1  0.85640  0.68203  0.58888  1
 N  N4  1  0.46156  0.41119  0.68202  1
 Se  Se1  1  0.30137  0.71848  0.02654  1
 Se  Se2  1  0.67219  0.02651  0.28142  1
 Se  Se3  1  0.98079  0.97335  0.71862  1
 Se  Se4  1  0.04583  0.28127  0.97337  1
 Zn  Zn1  1  0.74994  0.50011  0.50003  1
