CIF file written using JARVIS-Tools package.
data_Li2ZnSi
_symmetry_space_group_name_H-M  'P-3m1'
_cell_length_a       4.32044
_cell_length_b       4.31996
_cell_length_c       7.70014
_cell_angle_alpha    90
_cell_angle_beta     89.9853
_cell_angle_gamma    119.996

_symmetry_Int_Tables_number  164
_chemical_formula_structural  Li2ZnSi
_chemical_formula_sum  Li4Zn2Si2
_cell_volume  124.46668184686578
_cell_formula_units_Z  2
loop_
  _symmetry_equiv_pos_site_id
 _symmetry_equiv_pos_as_xyz
 1  'x, y, z'
loop_
 _atom_site_type_symbol
 _atom_site_label
 _atom_site_symmetry_multiplicity
 _atom_site_fract_x
 _atom_site_fract_y
 _atom_site_fract_z
 _atom_site_fract_occupancy
 Li  Li1  1  0.00010  0.00005  0.23944  1
 Li  Li2  1  -0.00010  -0.00005  0.76056  1
 Li  Li3  1  0.33329  0.66665  0.58273  1
 Li  Li4  1  0.66671  0.33335  0.41727  1
 Si  Si1  1  0.33350  0.66675  0.24085  1
 Si  Si2  1  0.66650  0.33325  0.75915  1
 Zn  Zn1  1  0.33328  0.66664  0.90823  1
 Zn  Zn2  1  0.66672  0.33336  0.09177  1
