CIF file written using JARVIS-Tools package.
data_Pr3Si2Cl3O7
_symmetry_space_group_name_H-M  'P2_1'
_cell_length_a       5.32931
_cell_length_b       7.96884
_cell_length_c       12.144
_cell_angle_alpha    90
_cell_angle_beta     90
_cell_angle_gamma    110.628

_symmetry_Int_Tables_number  4
_chemical_formula_structural  Pr3Si2Cl3O7
_chemical_formula_sum  Pr6Si4Cl6O4
_cell_volume  482.67309843755476
_cell_formula_units_Z  2
loop_
  _symmetry_equiv_pos_site_id
 _symmetry_equiv_pos_as_xyz
 1  'x, y, z'
loop_
 _atom_site_type_symbol
 _atom_site_label
 _atom_site_symmetry_multiplicity
 _atom_site_fract_x
 _atom_site_fract_y
 _atom_site_fract_z
 _atom_site_fract_occupancy
 Cl  Cl1  1  0.21259  0.55723  0.49665  1
 Cl  Cl2  1  0.87283  0.83186  0.49344  1
 Cl  Cl3  1  0.48157  0.99231  0.61903  1
 Cl  Cl4  1  0.78741  0.44277  0.99665  1
 Cl  Cl5  1  0.12717  0.16814  0.99344  1
 Cl  Cl6  1  0.51843  0.00769  0.11903  1
 O  O1  1  0.75099  0.63999  0.75045  1
 O  O2  1  0.02203  0.61912  0.24859  1
 O  O3  1  0.24901  0.36001  0.25045  1
 O  O4  1  0.54224  0.69356  0.28013  1
 O  O5  1  0.78098  0.19228  0.35999  1
 O  O6  1  0.97797  0.38088  0.74859  1
 O  O7  1  0.27560  0.19530  0.42711  1
 O  O8  1  0.37044  0.59942  0.08385  1
 O  O9  1  0.94180  0.00198  0.76244  1
 O  O10  1  0.45776  0.30644  0.78013  1
 O  O11  1  0.72440  0.80470  0.92711  1
 O  O12  1  0.62956  0.40058  0.58385  1
 O  O13  1  0.05820  -0.00198  0.26244  1
 O  O14  1  0.21902  0.80772  0.85999  1
 Pr  Pr1  1  0.67450  0.46923  0.39585  1
 Pr  Pr2  1  0.85591  0.79728  0.12005  1
 Pr  Pr3  1  0.14409  0.20272  0.62005  1
 Pr  Pr4  1  0.38935  0.91841  0.37709  1
 Pr  Pr5  1  0.61065  0.08159  0.87709  1
 Pr  Pr6  1  0.32550  0.53077  0.89585  1
 Si  Si1  1  0.72329  0.43634  0.71051  1
 Si  Si2  1  0.06913  0.18136  0.32285  1
 Si  Si3  1  0.27671  0.56366  0.21051  1
 Si  Si4  1  0.93087  0.81864  0.82285  1
