CIF file written using JARVIS-Tools package.
data_Ca3CdO4
_symmetry_space_group_name_H-M  'Cmmm'
_cell_length_a       3.40248
_cell_length_b       5.86125
_cell_length_c       5.86125
_cell_angle_alpha    70.2631
_cell_angle_beta     90
_cell_angle_gamma    90

_symmetry_Int_Tables_number  65
_chemical_formula_structural  Ca3CdO4
_chemical_formula_sum  Ca3CdO4
_cell_volume  110.02256481494848
_cell_formula_units_Z  1
loop_
  _symmetry_equiv_pos_site_id
 _symmetry_equiv_pos_as_xyz
 1  'x, y, z'
loop_
 _atom_site_type_symbol
 _atom_site_label
 _atom_site_symmetry_multiplicity
 _atom_site_fract_x
 _atom_site_fract_y
 _atom_site_fract_z
 _atom_site_fract_occupancy
 Ca  Ca1  1  0.00000  0.50000  0.50000  1
 Ca  Ca2  1  0.50000  0.00000  0.50000  1
 Ca  Ca3  1  0.50000  0.50000  0.00000  1
 Cd  Cd1  1  0.00000  0.00000  0.00000  1
 O  O1  1  0.00000  0.74630  0.74630  1
 O  O2  1  0.50000  0.25396  0.74604  1
 O  O3  1  0.50000  0.74604  0.25396  1
 O  O4  1  -0.00000  0.25370  0.25370  1
