CIF file written using JARVIS-Tools package.
data_Hf6Al16Pd7
_symmetry_space_group_name_H-M  'Fm-3m'
_cell_length_a       8.77006
_cell_length_b       8.77006
_cell_length_c       8.77006
_cell_angle_alpha    60
_cell_angle_beta     60
_cell_angle_gamma    60

_symmetry_Int_Tables_number  225
_chemical_formula_structural  Hf6Al16Pd7
_chemical_formula_sum  Hf6Al6Pd7
_cell_volume  476.97172087622135
_cell_formula_units_Z  1
loop_
  _symmetry_equiv_pos_site_id
 _symmetry_equiv_pos_as_xyz
 1  'x, y, z'
loop_
 _atom_site_type_symbol
 _atom_site_label
 _atom_site_symmetry_multiplicity
 _atom_site_fract_x
 _atom_site_fract_y
 _atom_site_fract_z
 _atom_site_fract_occupancy
 Al  Al1  1  0.33493  0.33493  0.99521  1
 Al  Al2  1  0.87988  0.36036  0.87988  1
 Al  Al3  1  0.33493  0.99521  0.33493  1
 Al  Al4  1  0.36036  0.87988  0.87988  1
 Al  Al5  1  0.87988  0.87988  0.36036  1
 Al  Al6  1  0.12012  0.12012  0.63964  1
 Al  Al7  1  0.12012  0.63964  0.12012  1
 Al  Al8  1  0.00479  0.66507  0.66507  1
 Al  Al9  1  0.66507  0.00479  0.66507  1
 Al  Al10  1  0.66507  0.66507  0.66507  1
 Al  Al11  1  0.99521  0.33493  0.33493  1
 Al  Al12  1  0.66507  0.66507  0.00479  1
 Al  Al13  1  0.33493  0.33493  0.33493  1
 Al  Al14  1  0.12012  0.12012  0.12012  1
 Al  Al15  1  0.87988  0.87988  0.87988  1
 Al  Al16  1  0.63964  0.12012  0.12012  1
 Hf  Hf1  1  0.67991  0.32009  0.67991  1
 Hf  Hf2  1  0.67991  0.67991  0.32009  1
 Hf  Hf3  1  0.32009  0.32009  0.67991  1
 Hf  Hf4  1  0.32009  0.67991  0.67991  1
 Hf  Hf5  1  0.67991  0.32009  0.32009  1
 Hf  Hf6  1  0.32009  0.67991  0.32009  1
 Pd  Pd1  1  0.00000  0.50000  -0.00000  1
 Pd  Pd2  1  0.00000  0.00000  0.00000  1
 Pd  Pd3  1  0.50000  0.50000  -0.00000  1
 Pd  Pd4  1  0.00000  0.00000  0.50000  1
 Pd  Pd5  1  0.00000  0.50000  0.50000  1
 Pd  Pd6  1  0.50000  0.00000  -0.00000  1
 Pd  Pd7  1  0.50000  0.00000  0.50000  1
