CIF file written using JARVIS-Tools package.
data_BaCaC2O6
_symmetry_space_group_name_H-M  'P2_1/m'
_cell_length_a       5.29095
_cell_length_b       6.5685
_cell_length_c       8.06053
_cell_angle_alpha    106.811
_cell_angle_beta     90
_cell_angle_gamma    90

_symmetry_Int_Tables_number  11
_chemical_formula_structural  BaCaC2O6
_chemical_formula_sum  Ba2Ca2C4O2
_cell_volume  268.16042160348553
_cell_formula_units_Z  2
loop_
  _symmetry_equiv_pos_site_id
 _symmetry_equiv_pos_as_xyz
 1  'x, y, z'
loop_
 _atom_site_type_symbol
 _atom_site_label
 _atom_site_symmetry_multiplicity
 _atom_site_fract_x
 _atom_site_fract_y
 _atom_site_fract_z
 _atom_site_fract_occupancy
 Ba  Ba1  1  0.22470  0.29084  0.15075  1
 Ba  Ba2  1  0.72470  0.70916  0.84925  1
 C  C1  1  0.22468  0.74629  0.61288  1
 C  C2  1  0.22472  0.75240  0.10040  1
 C  C3  1  0.72472  0.24760  0.89960  1
 C  C4  1  0.72468  0.25371  0.38712  1
 Ca  Ca1  1  0.72469  0.80454  0.37682  1
 Ca  Ca2  1  0.22469  0.19546  0.62318  1
 O  O1  1  0.22468  0.55982  0.63165  1
 O  O2  1  0.72468  0.44018  0.36835  1
 O  O3  1  0.51263  0.30768  0.84625  1
 O  O4  1  0.01263  0.69232  0.15375  1
 O  O5  1  0.93682  0.30771  0.84628  1
 O  O6  1  0.51392  0.15141  0.39364  1
 O  O7  1  0.22472  0.85939  0.98907  1
 O  O8  1  0.01392  0.84859  0.60636  1
 O  O9  1  0.93544  0.15142  0.39366  1
 O  O10  1  0.43544  0.84858  0.60634  1
 O  O11  1  0.43682  0.69229  0.15372  1
 O  O12  1  0.72472  0.14061  0.01093  1
