CIF file written using JARVIS-Tools package.
data_Fe3O4
_symmetry_space_group_name_H-M  'Amm2'
_cell_length_a       4.98723
_cell_length_b       5.7914
_cell_length_c       5.79167
_cell_angle_alpha    118.899
_cell_angle_beta     103.696
_cell_angle_gamma    76.2988

_symmetry_Int_Tables_number  38
_chemical_formula_structural  Fe3O4
_chemical_formula_sum  Fe6O8
_cell_volume  140.80402452086972
_cell_formula_units_Z  2
loop_
  _symmetry_equiv_pos_site_id
 _symmetry_equiv_pos_as_xyz
 1  'x, y, z'
loop_
 _atom_site_type_symbol
 _atom_site_label
 _atom_site_symmetry_multiplicity
 _atom_site_fract_x
 _atom_site_fract_y
 _atom_site_fract_z
 _atom_site_fract_occupancy
 Fe  Fe1  1  0.32569  0.60419  0.71755  1
 Fe  Fe2  1  0.32570  0.10418  0.21756  1
 Fe  Fe3  1  0.82766  0.35517  0.96657  1
 Fe  Fe4  1  0.82765  0.85517  0.46656  1
 Fe  Fe5  1  0.31645  0.60948  0.21166  1
 Fe  Fe6  1  0.31645  0.10948  0.71166  1
 O  O1  1  0.10453  0.96547  0.35572  1
 O  O2  1  0.56723  0.22743  0.59413  1
 O  O3  1  0.56723  0.72742  0.09412  1
 O  O4  1  0.10453  0.46547  0.85572  1
 O  O5  1  0.52746  0.75395  0.56712  1
 O  O6  1  0.52746  0.25395  0.06712  1
 O  O7  1  0.08098  0.98431  0.83727  1
 O  O8  1  0.08098  0.48431  0.33727  1
