CIF file written using JARVIS-Tools package.
data_Li2MnF4
_symmetry_space_group_name_H-M  'Pnma'
_cell_length_a       2.94125
_cell_length_b       9.23476
_cell_length_c       10.1293
_cell_angle_alpha    90
_cell_angle_beta     90
_cell_angle_gamma    90

_symmetry_Int_Tables_number  62
_chemical_formula_structural  Li2MnF4
_chemical_formula_sum  Li8Mn4F6
_cell_volume  275.13044075802105
_cell_formula_units_Z  4
loop_
  _symmetry_equiv_pos_site_id
 _symmetry_equiv_pos_as_xyz
 1  'x, y, z'
loop_
 _atom_site_type_symbol
 _atom_site_label
 _atom_site_symmetry_multiplicity
 _atom_site_fract_x
 _atom_site_fract_y
 _atom_site_fract_z
 _atom_site_fract_occupancy
 F  F1  1  0.75000  0.80304  0.18882  1
 F  F2  1  0.25000  0.05341  0.27771  1
 F  F3  1  0.25000  0.89951  0.93526  1
 F  F4  1  0.25000  0.12327  0.54353  1
 F  F5  1  0.25000  0.19696  0.81118  1
 F  F6  1  0.75000  0.30304  0.31118  1
 F  F7  1  0.75000  0.37673  0.04353  1
 F  F8  1  0.75000  0.10049  0.06474  1
 F  F9  1  0.75000  0.44659  0.77771  1
 F  F10  1  0.25000  0.55341  0.22229  1
 F  F11  1  0.75000  0.60049  0.43526  1
 F  F12  1  0.25000  0.62327  0.95647  1
 F  F13  1  0.25000  0.69696  0.68882  1
 F  F14  1  0.75000  0.94659  0.72229  1
 F  F15  1  0.75000  0.87673  0.45647  1
 F  F16  1  0.25000  0.39951  0.56474  1
 Li  Li1  1  0.25000  0.92023  0.60812  1
 Li  Li2  1  0.25000  0.94034  0.11937  1
 Li  Li3  1  0.75000  0.55966  0.61937  1
 Li  Li4  1  0.75000  0.57977  0.10812  1
 Li  Li5  1  0.25000  0.42023  0.89188  1
 Li  Li6  1  0.25000  0.44034  0.38063  1
 Li  Li7  1  0.75000  0.05966  0.88063  1
 Li  Li8  1  0.75000  0.07977  0.39188  1
 Mn  Mn1  1  0.75000  0.25215  0.65489  1
 Mn  Mn2  1  0.25000  0.24785  0.15489  1
 Mn  Mn3  1  0.75000  0.75215  0.84511  1
 Mn  Mn4  1  0.25000  0.74785  0.34511  1
