CIF file written using JARVIS-Tools package.
data_TbNi12B6
_symmetry_space_group_name_H-M  'R-3m'
_cell_length_a       6.02137
_cell_length_b       6.02137
_cell_length_c       6.02138
_cell_angle_alpha    104.445
_cell_angle_beta     104.445
_cell_angle_gamma    104.444

_symmetry_Int_Tables_number  166
_chemical_formula_structural  TbNi12B6
_chemical_formula_sum  TbNi2B6
_cell_volume  193.0958028480919
_cell_formula_units_Z  1
loop_
  _symmetry_equiv_pos_site_id
 _symmetry_equiv_pos_as_xyz
 1  'x, y, z'
loop_
 _atom_site_type_symbol
 _atom_site_label
 _atom_site_symmetry_multiplicity
 _atom_site_fract_x
 _atom_site_fract_y
 _atom_site_fract_z
 _atom_site_fract_occupancy
 B  B1  1  0.76468  0.32963  0.76468  1
 B  B2  1  0.76468  0.76468  0.32963  1
 B  B3  1  0.23532  0.67037  0.23532  1
 B  B4  1  0.23532  0.23532  0.67037  1
 B  B5  1  0.67037  0.23532  0.23532  1
 B  B6  1  0.32963  0.76468  0.76468  1
 Ni  Ni1  1  0.13029  0.50000  0.86971  1
 Ni  Ni2  1  0.50000  0.86971  0.13029  1
 Ni  Ni3  1  0.86971  0.13029  0.50000  1
 Ni  Ni4  1  0.50000  0.13029  0.86971  1
 Ni  Ni5  1  0.13029  0.86971  0.50000  1
 Ni  Ni6  1  0.86971  0.50000  0.13029  1
 Ni  Ni7  1  0.54743  0.81357  0.54743  1
 Ni  Ni8  1  0.81357  0.54743  0.54743  1
 Ni  Ni9  1  0.54743  0.54743  0.81357  1
 Ni  Ni10  1  0.45257  0.18643  0.45257  1
 Ni  Ni11  1  0.45257  0.45257  0.18643  1
 Ni  Ni12  1  0.18643  0.45257  0.45257  1
 Tb  Tb1  1  0.00000  0.00000  0.00000  1
