CIF file written using JARVIS-Tools package.
data_TmSn3
_symmetry_space_group_name_H-M  'Amm2'
_cell_length_a       4.39635
_cell_length_b       4.43066
_cell_length_c       11.2296
_cell_angle_alpha    101.378
_cell_angle_beta     90
_cell_angle_gamma    90

_symmetry_Int_Tables_number  38
_chemical_formula_structural  TmSn3
_chemical_formula_sum  Tm2Sn6
_cell_volume  214.43952431246018
_cell_formula_units_Z  2
loop_
  _symmetry_equiv_pos_site_id
 _symmetry_equiv_pos_as_xyz
 1  'x, y, z'
loop_
 _atom_site_type_symbol
 _atom_site_label
 _atom_site_symmetry_multiplicity
 _atom_site_fract_x
 _atom_site_fract_y
 _atom_site_fract_z
 _atom_site_fract_occupancy
 Sn  Sn1  1  0.50000  0.09828  0.19656  1
 Sn  Sn2  1  0.50000  0.73434  0.46867  1
 Sn  Sn3  1  0.50000  0.86959  0.73919  1
 Sn  Sn4  1  0.00000  0.97643  0.95286  1
 Sn  Sn5  1  0.00000  0.35752  0.71504  1
 Sn  Sn6  1  0.00000  0.59834  0.19667  1
 Tm  Tm1  1  0.50000  0.48216  0.96432  1
 Tm  Tm2  1  0.00000  0.20935  0.41869  1
