CIF file written using JARVIS-Tools package.
data_FeB
_symmetry_space_group_name_H-M  'I4_1/amd'
_cell_length_a       2.93355
_cell_length_b       2.93355
_cell_length_c       7.75191
_cell_angle_alpha    100.907
_cell_angle_beta     100.907
_cell_angle_gamma    90

_symmetry_Int_Tables_number  141
_chemical_formula_structural  FeB
_chemical_formula_sum  Fe4B4
_cell_volume  64.27810922545123
_cell_formula_units_Z  4
loop_
  _symmetry_equiv_pos_site_id
 _symmetry_equiv_pos_as_xyz
 1  'x, y, z'
loop_
 _atom_site_type_symbol
 _atom_site_label
 _atom_site_symmetry_multiplicity
 _atom_site_fract_x
 _atom_site_fract_y
 _atom_site_fract_z
 _atom_site_fract_occupancy
 B  B1  1  0.21528  0.46528  0.43056  1
 B  B2  1  0.46528  0.21528  0.93056  1
 B  B3  1  0.78472  0.53472  0.56944  1
 B  B4  1  0.53472  0.78472  0.06944  1
 Fe  Fe1  1  0.67895  0.92895  0.35790  1
 Fe  Fe2  1  0.92895  0.67895  0.85790  1
 Fe  Fe3  1  0.32105  0.07105  0.64210  1
 Fe  Fe4  1  0.07105  0.32105  0.14210  1
