CIF file written using JARVIS-Tools package.
data_Li2P2H2O7
_symmetry_space_group_name_H-M  'R-3m'
_cell_length_a       10.0109
_cell_length_b       10.0109
_cell_length_c       10.0109
_cell_angle_alpha    104.245
_cell_angle_beta     104.245
_cell_angle_gamma    104.245

_symmetry_Int_Tables_number  166
_chemical_formula_structural  Li2P2H2O7
_chemical_formula_sum  Li2P2H2O42
_cell_volume  890.9035038222801
_cell_formula_units_Z  6
loop_
  _symmetry_equiv_pos_site_id
 _symmetry_equiv_pos_as_xyz
 1  'x, y, z'
loop_
 _atom_site_type_symbol
 _atom_site_label
 _atom_site_symmetry_multiplicity
 _atom_site_fract_x
 _atom_site_fract_y
 _atom_site_fract_z
 _atom_site_fract_occupancy
 H  H1  1  0.92983  0.02847  0.28553  1
 H  H2  1  0.07017  0.71447  0.97153  1
 H  H3  1  0.71447  0.07017  0.97153  1
 H  H4  1  0.07017  0.97153  0.71447  1
 H  H5  1  0.97153  0.71447  0.07017  1
 H  H6  1  0.97153  0.07017  0.71447  1
 H  H7  1  0.71447  0.97153  0.07017  1
 H  H8  1  0.28553  0.92983  0.02847  1
 H  H9  1  0.02847  0.28553  0.92983  1
 H  H10  1  0.28553  0.02847  0.92983  1
 H  H11  1  0.02847  0.92983  0.28553  1
 H  H12  1  0.92983  0.28553  0.02847  1
 Li  Li1  1  0.81317  0.18683  0.50000  1
 Li  Li2  1  0.79065  0.23890  0.23890  1
 Li  Li3  1  0.20935  0.76110  0.76110  1
 Li  Li4  1  0.23890  0.23890  0.79065  1
 Li  Li5  1  0.23890  0.79065  0.23890  1
 Li  Li6  1  0.50000  0.18683  0.81317  1
 Li  Li7  1  0.81317  0.50000  0.18683  1
 Li  Li8  1  0.50000  0.81317  0.18683  1
 Li  Li9  1  0.18683  0.50000  0.81317  1
 Li  Li10  1  0.18683  0.81317  0.50000  1
 Li  Li11  1  0.76110  0.76110  0.20935  1
 Li  Li12  1  0.76110  0.20935  0.76110  1
 O  O1  1  0.92665  0.92665  0.25200  1
 O  O2  1  0.40266  0.21947  0.95641  1
 O  O3  1  0.95641  0.40266  0.21947  1
 O  O4  1  0.83820  0.65766  0.34970  1
 O  O5  1  0.21947  0.95641  0.40266  1
 O  O6  1  0.34970  0.83820  0.65766  1
 O  O7  1  0.78975  0.78975  0.57712  1
 O  O8  1  0.40266  0.95641  0.21947  1
 O  O9  1  0.83820  0.34970  0.65766  1
 O  O10  1  0.25200  0.92665  0.92665  1
 O  O11  1  0.95641  0.21947  0.40266  1
 O  O12  1  0.21947  0.40266  0.95641  1
 O  O13  1  0.65030  0.34234  0.16180  1
 O  O14  1  0.07335  0.74800  0.07335  1
 O  O15  1  0.04359  0.59734  0.78053  1
 O  O16  1  0.59734  0.78053  0.04359  1
 O  O17  1  0.65766  0.34970  0.83820  1
 O  O18  1  0.78053  0.04359  0.59734  1
 O  O19  1  0.78053  0.59734  0.04359  1
 O  O20  1  0.59734  0.04359  0.78053  1
 O  O21  1  0.16180  0.34234  0.65030  1
 O  O22  1  0.34234  0.65030  0.16180  1
 O  O23  1  0.65030  0.16180  0.34234  1
 O  O24  1  0.16180  0.65030  0.34234  1
 O  O25  1  0.34234  0.16180  0.65030  1
 O  O26  1  0.07335  0.07335  0.74800  1
 O  O27  1  0.16665  0.44865  0.44865  1
 O  O28  1  0.21025  0.42288  0.21025  1
 O  O29  1  0.74800  0.07335  0.07335  1
 O  O30  1  0.34970  0.65766  0.83820  1
 O  O31  1  0.65766  0.83820  0.34970  1
 O  O32  1  0.04359  0.78053  0.59734  1
 O  O33  1  0.44865  0.44865  0.16665  1
 O  O34  1  0.44865  0.16665  0.44865  1
 O  O35  1  0.92665  0.25200  0.92665  1
 O  O36  1  0.55135  0.55135  0.83335  1
 O  O37  1  0.55135  0.83335  0.55135  1
 O  O38  1  0.57712  0.78975  0.78975  1
 O  O39  1  0.78975  0.57712  0.78975  1
 O  O40  1  0.42288  0.21025  0.21025  1
 O  O41  1  0.21025  0.21025  0.42288  1
 O  O42  1  0.83335  0.55135  0.55135  1
 P  P1  1  0.51151  0.69851  0.88511  1
 P  P2  1  0.51151  0.88511  0.69851  1
 P  P3  1  0.69851  0.51151  0.88511  1
 P  P4  1  0.88511  0.69851  0.51151  1
 P  P5  1  0.69851  0.88511  0.51151  1
 P  P6  1  0.30149  0.48849  0.11489  1
 P  P7  1  0.30149  0.11489  0.48849  1
 P  P8  1  0.11489  0.30149  0.48849  1
 P  P9  1  0.48849  0.30149  0.11489  1
 P  P10  1  0.11489  0.48849  0.30149  1
 P  P11  1  0.88511  0.51151  0.69851  1
 P  P12  1  0.48849  0.11489  0.30149  1
