CIF file written using JARVIS-Tools package.
data_PHOF2
_symmetry_space_group_name_H-M  'Pbca'
_cell_length_a       14.0273
_cell_length_b       5.90131
_cell_length_c       6.16947
_cell_angle_alpha    90
_cell_angle_beta     90
_cell_angle_gamma    90

_symmetry_Int_Tables_number  61
_chemical_formula_structural  PHOF2
_chemical_formula_sum  P8H8O8F6
_cell_volume  510.7059964345506
_cell_formula_units_Z  8
loop_
  _symmetry_equiv_pos_site_id
 _symmetry_equiv_pos_as_xyz
 1  'x, y, z'
loop_
 _atom_site_type_symbol
 _atom_site_label
 _atom_site_symmetry_multiplicity
 _atom_site_fract_x
 _atom_site_fract_y
 _atom_site_fract_z
 _atom_site_fract_occupancy
 F  F1  1  0.04882  0.64272  0.29765  1
 F  F2  1  0.95118  0.35728  0.70235  1
 F  F3  1  0.45118  0.14272  0.29765  1
 F  F4  1  0.54882  0.85728  0.70235  1
 F  F5  1  0.04882  0.85728  0.79765  1
 F  F6  1  0.54882  0.64272  0.20235  1
 F  F7  1  0.10235  0.38525  0.02637  1
 F  F8  1  0.45118  0.35728  0.79765  1
 F  F9  1  0.95118  0.14272  0.20235  1
 F  F10  1  0.60235  0.11475  0.97363  1
 F  F11  1  0.89765  0.88525  0.47363  1
 F  F12  1  0.39765  0.61475  0.52637  1
 F  F13  1  0.89765  0.61475  0.97363  1
 F  F14  1  0.39765  0.88525  0.02637  1
 F  F15  1  0.10235  0.11475  0.52637  1
 F  F16  1  0.60235  0.38525  0.47363  1
 H  H1  1  0.68372  0.08158  0.64379  1
 H  H2  1  0.81628  0.91842  0.14379  1
 H  H3  1  0.18372  0.08158  0.85621  1
 H  H4  1  0.31628  0.91842  0.35621  1
 H  H5  1  0.68372  0.41842  0.14379  1
 H  H6  1  0.81628  0.58158  0.64379  1
 H  H7  1  0.18372  0.41842  0.35621  1
 H  H8  1  0.31628  0.58158  0.85621  1
 O  O1  1  0.29755  0.26635  0.59464  1
 O  O2  1  0.20245  0.76635  0.59464  1
 O  O3  1  0.29755  0.23365  0.09464  1
 O  O4  1  0.79755  0.26635  0.90536  1
 O  O5  1  0.70245  0.76635  0.90536  1
 O  O6  1  0.20245  0.73365  0.09464  1
 O  O7  1  0.79755  0.23365  0.40536  1
 O  O8  1  0.70245  0.73365  0.40536  1
 P  P1  1  0.14477  0.55566  0.19691  1
 P  P2  1  0.64477  0.94434  0.80309  1
 P  P3  1  0.85523  0.05566  0.30309  1
 P  P4  1  0.35523  0.44434  0.69691  1
 P  P5  1  0.85523  0.44434  0.80309  1
 P  P6  1  0.35523  0.05566  0.19691  1
 P  P7  1  0.14477  0.94434  0.69691  1
 P  P8  1  0.64477  0.55566  0.30309  1
