CIF file written using JARVIS-Tools package.
data_BaNa2V2CuO8
_symmetry_space_group_name_H-M  'C2/c'
_cell_length_a       5.5026
_cell_length_b       5.50259
_cell_length_c       14.0701
_cell_angle_alpha    87.1866
_cell_angle_beta     87.1865
_cell_angle_gamma    63.2347

_symmetry_Int_Tables_number  15
_chemical_formula_structural  BaNa2V2CuO8
_chemical_formula_sum  Ba2Na4V4Cu2O6
_cell_volume  379.7448906790955
_cell_formula_units_Z  2
loop_
  _symmetry_equiv_pos_site_id
 _symmetry_equiv_pos_as_xyz
 1  'x, y, z'
loop_
 _atom_site_type_symbol
 _atom_site_label
 _atom_site_symmetry_multiplicity
 _atom_site_fract_x
 _atom_site_fract_y
 _atom_site_fract_z
 _atom_site_fract_occupancy
 Ba  Ba1  1  0.87336  0.12664  0.25000  1
 Ba  Ba2  1  0.12664  0.87336  0.75000  1
 Cu  Cu1  1  0.00000  0.00000  0.00000  1
 Cu  Cu2  1  0.00000  0.00000  0.50000  1
 Na  Na1  1  0.25965  0.41896  0.08814  1
 Na  Na2  1  0.74035  0.58105  0.91186  1
 Na  Na3  1  0.58105  0.74035  0.41186  1
 Na  Na4  1  0.41895  0.25965  0.58814  1
 O  O1  1  0.30879  0.98990  0.91728  1
 O  O2  1  0.01010  0.69121  0.58272  1
 O  O3  1  0.69121  0.01010  0.08272  1
 O  O4  1  0.75725  0.13890  0.89227  1
 O  O5  1  0.27775  0.35274  0.25232  1
 O  O6  1  0.86110  0.24275  0.60773  1
 O  O7  1  0.24275  0.86110  0.10773  1
 O  O8  1  0.98990  0.30879  0.41728  1
 O  O9  1  0.64726  0.72225  0.24768  1
 O  O10  1  0.79836  0.46502  0.07695  1
 O  O11  1  0.35274  0.27775  0.75232  1
 O  O12  1  0.13890  0.75725  0.39227  1
 O  O13  1  0.46502  0.79836  0.57694  1
 O  O14  1  0.53498  0.20164  0.42305  1
 O  O15  1  0.72225  0.64726  0.74768  1
 O  O16  1  0.20164  0.53498  0.92306  1
 V  V1  1  0.76714  0.59040  0.62835  1
 V  V2  1  0.59040  0.76714  0.12835  1
 V  V3  1  0.40960  0.23286  0.87165  1
 V  V4  1  0.23286  0.40960  0.37165  1
