CIF file written using JARVIS-Tools package.
data_LaP2
_symmetry_space_group_name_H-M  'Cc'
_cell_length_a       8.86819
_cell_length_b       8.93993
_cell_length_c       9.41759
_cell_angle_alpha    118.244
_cell_angle_beta     117.996
_cell_angle_gamma    90.1718

_symmetry_Int_Tables_number  9
_chemical_formula_structural  LaP2
_chemical_formula_sum  La8P6
_cell_volume  555.9160168074312
_cell_formula_units_Z  8
loop_
  _symmetry_equiv_pos_site_id
 _symmetry_equiv_pos_as_xyz
 1  'x, y, z'
loop_
 _atom_site_type_symbol
 _atom_site_label
 _atom_site_symmetry_multiplicity
 _atom_site_fract_x
 _atom_site_fract_y
 _atom_site_fract_z
 _atom_site_fract_occupancy
 La  La1  1  0.42166  0.22556  0.04579  1
 La  La2  1  0.83618  0.98349  0.41426  1
 La  La3  1  0.42192  0.06924  0.58574  1
 La  La4  1  0.05822  0.05655  0.11582  1
 La  La5  1  0.94239  0.44072  0.88418  1
 La  La6  1  0.61074  0.66831  0.57683  1
 La  La7  1  0.03392  0.59149  0.42317  1
 La  La8  1  0.37587  0.67977  0.95421  1
 P  P1  1  0.45177  0.04761  0.26886  1
 P  P2  1  0.24542  0.35023  0.56569  1
 P  P3  1  0.67974  0.28454  0.43431  1
 P  P4  1  0.79819  0.20849  0.24157  1
 P  P5  1  0.55662  0.46691  0.75843  1
 P  P6  1  0.66511  0.40982  0.99103  1
 P  P7  1  0.67408  0.91880  0.00897  1
 P  P8  1  0.80606  0.04760  0.74253  1
 P  P9  1  0.99730  0.69615  0.76568  1
 P  P10  1  0.18291  0.27875  0.73114  1
 P  P11  1  0.28211  0.68182  0.24531  1
 P  P12  1  0.06353  0.80507  0.25747  1
 P  P13  1  0.40914  0.86456  0.75984  1
 P  P14  1  0.64930  0.60472  0.24016  1
 P  P15  1  0.23162  0.43047  0.23432  1
 P  P16  1  0.03680  0.93651  0.75469  1
