CIF file written using JARVIS-Tools package.
data_Zr4Fe2H2O
_symmetry_space_group_name_H-M  'Fd-3m'
_cell_length_a       8.72583
_cell_length_b       8.72583
_cell_length_c       8.72583
_cell_angle_alpha    60
_cell_angle_beta     60
_cell_angle_gamma    60

_symmetry_Int_Tables_number  227
_chemical_formula_structural  Zr4Fe2H2O
_chemical_formula_sum  Zr6Fe8H8O4
_cell_volume  469.7912401541542
_cell_formula_units_Z  4
loop_
  _symmetry_equiv_pos_site_id
 _symmetry_equiv_pos_as_xyz
 1  'x, y, z'
loop_
 _atom_site_type_symbol
 _atom_site_label
 _atom_site_symmetry_multiplicity
 _atom_site_fract_x
 _atom_site_fract_y
 _atom_site_fract_z
 _atom_site_fract_occupancy
 Fe  Fe1  1  0.29816  0.29816  0.29816  1
 Fe  Fe2  1  0.29816  0.60553  0.29816  1
 Fe  Fe3  1  0.70184  0.70184  0.39447  1
 Fe  Fe4  1  0.39447  0.70184  0.70184  1
 Fe  Fe5  1  0.70184  0.39447  0.70184  1
 Fe  Fe6  1  0.70184  0.70184  0.70184  1
 Fe  Fe7  1  0.29816  0.29816  0.60553  1
 Fe  Fe8  1  0.60553  0.29816  0.29816  1
 H  H1  1  0.21793  0.84621  0.21793  1
 H  H2  1  0.78207  0.78207  0.15379  1
 H  H3  1  0.78207  0.15379  0.78207  1
 H  H4  1  0.21793  0.21793  0.84621  1
 H  H5  1  0.84621  0.21793  0.21793  1
 H  H6  1  0.21793  0.21793  0.21793  1
 H  H7  1  0.78207  0.78207  0.78207  1
 H  H8  1  0.15379  0.78207  0.78207  1
 O  O1  1  0.50000  0.00000  -0.00000  1
 O  O2  1  -0.00000  0.50000  0.00000  1
 O  O3  1  0.00000  0.00000  0.00000  1
 O  O4  1  -0.00000  0.00000  0.50000  1
 Zr  Zr1  1  0.93268  0.31732  0.31732  1
 Zr  Zr2  1  0.50000  0.50000  0.50000  1
 Zr  Zr3  1  -0.00000  0.50000  0.50000  1
 Zr  Zr4  1  0.50000  0.50000  0.00000  1
 Zr  Zr5  1  0.50000  0.00000  0.50000  1
 Zr  Zr6  1  0.31732  0.93268  0.31732  1
 Zr  Zr7  1  0.93268  0.31732  0.93268  1
 Zr  Zr8  1  0.93268  0.93268  0.31732  1
 Zr  Zr9  1  0.31732  0.93268  0.93268  1
 Zr  Zr10  1  0.68268  0.06732  0.68268  1
 Zr  Zr11  1  0.06732  0.68268  0.06732  1
 Zr  Zr12  1  0.68268  0.68268  0.06732  1
 Zr  Zr13  1  0.06732  0.06732  0.68268  1
 Zr  Zr14  1  0.06732  0.68268  0.68268  1
 Zr  Zr15  1  0.31732  0.31732  0.93268  1
 Zr  Zr16  1  0.68268  0.06732  0.06732  1
