CIF file written using JARVIS-Tools package.
data_V3O4F2
_symmetry_space_group_name_H-M  'P4_2/mnm'
_cell_length_a       4.59468
_cell_length_b       4.59467
_cell_length_c       9.01437
_cell_angle_alpha    90.0002
_cell_angle_beta     89.9999
_cell_angle_gamma    90.0011

_symmetry_Int_Tables_number  136
_chemical_formula_structural  V3O4F2
_chemical_formula_sum  V6O8F4
_cell_volume  190.3027003692812
_cell_formula_units_Z  2
loop_
  _symmetry_equiv_pos_site_id
 _symmetry_equiv_pos_as_xyz
 1  'x, y, z'
loop_
 _atom_site_type_symbol
 _atom_site_label
 _atom_site_symmetry_multiplicity
 _atom_site_fract_x
 _atom_site_fract_y
 _atom_site_fract_z
 _atom_site_fract_occupancy
 F  F1  1  0.80704  0.19296  0.83333  1
 F  F2  1  0.19297  0.80703  0.83333  1
 F  F3  1  0.69296  0.69297  0.33334  1
 F  F4  1  0.30704  0.30705  0.33334  1
 O  O1  1  0.29694  0.29695  0.67172  1
 O  O2  1  0.20306  0.79694  0.17172  1
 O  O3  1  0.20305  0.79695  0.49495  1
 O  O4  1  0.29695  0.29694  0.99494  1
 O  O5  1  0.70306  0.70305  0.99494  1
 O  O6  1  0.70305  0.70306  0.67172  1
 O  O7  1  0.79693  0.20307  0.49494  1
 O  O8  1  0.79695  0.20305  0.17171  1
 V  V1  1  0.49999  0.50001  0.52126  1
 V  V2  1  0.50000  0.50000  0.83334  1
 V  V3  1  0.50000  0.50000  0.14542  1
 V  V4  1  -0.00001  0.00001  0.64540  1
 V  V5  1  1.00000  0.00000  0.33333  1
 V  V6  1  0.00001  0.99999  0.02126  1
