CIF file written using JARVIS-Tools package.
data_BaMg6Mo
_symmetry_space_group_name_H-M  'P4/mmm'
_cell_length_a       6.90757
_cell_length_b       9.76893
_cell_length_c       4.12963
_cell_angle_alpha    90
_cell_angle_beta     90
_cell_angle_gamma    135.001

_symmetry_Int_Tables_number  123
_chemical_formula_structural  BaMg6Mo
_chemical_formula_sum  BaMg6Mo
_cell_volume  197.04307848223755
_cell_formula_units_Z  1
loop_
  _symmetry_equiv_pos_site_id
 _symmetry_equiv_pos_as_xyz
 1  'x, y, z'
loop_
 _atom_site_type_symbol
 _atom_site_label
 _atom_site_symmetry_multiplicity
 _atom_site_fract_x
 _atom_site_fract_y
 _atom_site_fract_z
 _atom_site_fract_occupancy
 Ba  Ba1  1  0.25004  0.37502  0.25000  1
 Mg  Mg1  1  0.74998  0.37496  0.25000  1
 Mg  Mg2  1  0.74998  0.87502  0.25000  1
 Mg  Mg3  1  0.24998  0.08305  0.75000  1
 Mg  Mg4  1  0.24998  0.66693  0.75000  1
 Mg  Mg5  1  0.66614  0.08307  0.75000  1
 Mg  Mg6  1  0.83387  0.66694  0.75000  1
 Mo  Mo1  1  0.25002  0.87501  0.25000  1
