CIF file written using JARVIS-Tools package.
data_SnH8C4O4
_symmetry_space_group_name_H-M  'Pnma'
_cell_length_a       5.77103
_cell_length_b       9.50998
_cell_length_c       12.08
_cell_angle_alpha    90
_cell_angle_beta     90
_cell_angle_gamma    90

_symmetry_Int_Tables_number  62
_chemical_formula_structural  SnH8C4O4
_chemical_formula_sum  Sn4H32C6O6
_cell_volume  662.9766712932067
_cell_formula_units_Z  4
loop_
  _symmetry_equiv_pos_site_id
 _symmetry_equiv_pos_as_xyz
 1  'x, y, z'
loop_
 _atom_site_type_symbol
 _atom_site_label
 _atom_site_symmetry_multiplicity
 _atom_site_fract_x
 _atom_site_fract_y
 _atom_site_fract_z
 _atom_site_fract_occupancy
 C  C1  1  0.39465  0.98390  0.63760  1
 C  C2  1  0.10535  0.51610  0.13760  1
 C  C3  1  0.68537  0.75000  0.16988  1
 C  C4  1  0.18537  0.25000  0.33012  1
 C  C5  1  0.81463  0.75000  0.66988  1
 C  C6  1  0.16483  0.75000  0.43953  1
 C  C7  1  0.39465  0.51610  0.63760  1
 C  C8  1  0.89465  0.01610  0.86240  1
 C  C9  1  0.66483  0.25000  0.06047  1
 C  C10  1  0.10535  0.98390  0.13760  1
 C  C11  1  0.33517  0.75000  0.93953  1
 C  C12  1  0.60535  0.48390  0.36240  1
 C  C13  1  0.31463  0.25000  0.83012  1
 C  C14  1  0.83517  0.25000  0.56047  1
 C  C15  1  0.89465  0.48390  0.86240  1
 C  C16  1  0.60535  0.01610  0.36240  1
 H  H1  1  0.62945  0.34452  0.01170  1
 H  H2  1  0.84267  0.25000  0.09143  1
 H  H3  1  0.57879  0.84439  0.17848  1
 H  H4  1  0.42121  0.15561  0.82152  1
 H  H5  1  0.53477  0.94038  0.58574  1
 H  H6  1  0.07879  0.34439  0.32152  1
 H  H7  1  0.12945  0.65548  0.48830  1
 H  H8  1  0.92121  0.84439  0.67848  1
 H  H9  1  0.46523  0.05962  0.41426  1
 H  H10  1  0.42121  0.34439  0.82152  1
 H  H11  1  0.07879  0.15561  0.32152  1
 H  H12  1  0.65733  0.25000  0.59143  1
 H  H13  1  0.77216  0.75000  0.08940  1
 H  H14  1  0.37055  0.65548  0.98830  1
 H  H15  1  0.34267  0.75000  0.40857  1
 H  H16  1  0.87055  0.34452  0.51170  1
 H  H17  1  0.27216  0.25000  0.41060  1
 H  H18  1  0.22784  0.25000  0.91060  1
 H  H19  1  0.96523  0.94038  0.08574  1
 H  H20  1  0.87055  0.15548  0.51170  1
 H  H21  1  0.37055  0.84452  0.98830  1
 H  H22  1  0.03477  0.05962  0.91426  1
 H  H23  1  0.03477  0.44038  0.91426  1
 H  H24  1  0.62945  0.15548  0.01170  1
 H  H25  1  0.15733  0.75000  0.90857  1
 H  H26  1  0.96523  0.55962  0.08574  1
 H  H27  1  0.72784  0.75000  0.58940  1
 H  H28  1  0.46523  0.44038  0.41426  1
 H  H29  1  0.57879  0.65561  0.17848  1
 H  H30  1  0.53477  0.55962  0.58574  1
 H  H31  1  0.92121  0.65561  0.67848  1
 H  H32  1  0.12945  0.84452  0.48830  1
 O  O1  1  0.34431  0.57690  0.72841  1
 O  O2  1  0.84431  0.07690  0.77159  1
 O  O3  1  0.20706  0.09234  0.10029  1
 O  O4  1  0.79294  0.59234  0.89971  1
 O  O5  1  0.34431  0.92310  0.72841  1
 O  O6  1  0.20706  0.40766  0.10029  1
 O  O7  1  0.15569  0.92310  0.22841  1
 O  O8  1  0.65569  0.42310  0.27159  1
 O  O9  1  0.79294  0.90766  0.89971  1
 O  O10  1  0.15569  0.57690  0.22841  1
 O  O11  1  0.29294  0.40766  0.60029  1
 O  O12  1  0.65569  0.07690  0.27159  1
 O  O13  1  0.29294  0.09234  0.60029  1
 O  O14  1  0.84431  0.42310  0.77159  1
 O  O15  1  0.70706  0.90766  0.39971  1
 O  O16  1  0.70706  0.59234  0.39971  1
 Sn  Sn1  1  0.43152  0.25000  0.19686  1
 Sn  Sn2  1  0.93152  0.75000  0.30314  1
 Sn  Sn3  1  0.56848  0.75000  0.80314  1
 Sn  Sn4  1  0.06848  0.25000  0.69686  1
