CIF file written using JARVIS-Tools package.
data_Mg2Cu2P2H12O15
_symmetry_space_group_name_H-M  'C2/c'
_cell_length_a       11.426
_cell_length_b       11.426
_cell_length_c       10.482
_cell_angle_alpha    79.7738
_cell_angle_beta     100.226
_cell_angle_gamma    154.345

_symmetry_Int_Tables_number  15
_chemical_formula_structural  Mg2Cu2P2H12O15
_chemical_formula_sum  Mg4Cu4P4H24O30
_cell_volume  582.5761212738252
_cell_formula_units_Z  2
loop_
  _symmetry_equiv_pos_site_id
 _symmetry_equiv_pos_as_xyz
 1  'x, y, z'
loop_
 _atom_site_type_symbol
 _atom_site_label
 _atom_site_symmetry_multiplicity
 _atom_site_fract_x
 _atom_site_fract_y
 _atom_site_fract_z
 _atom_site_fract_occupancy
 Cu  Cu1  1  0.10211  0.60945  0.86742  1
 Cu  Cu2  1  0.60945  0.10211  0.63258  1
 Cu  Cu3  1  0.89789  0.39055  0.13258  1
 Cu  Cu4  1  0.39055  0.89789  0.36742  1
 H  H1  1  0.02640  0.83633  0.66987  1
 H  H2  1  0.97360  0.16367  0.33013  1
 H  H3  1  0.83633  0.02640  0.83013  1
 H  H4  1  0.15849  0.23290  0.73204  1
 H  H5  1  0.57379  0.53674  0.85872  1
 H  H6  1  0.42621  0.46326  0.14128  1
 H  H7  1  0.46326  0.42621  0.35872  1
 H  H8  1  0.78023  0.79389  0.93287  1
 H  H9  1  0.79389  0.78023  0.56713  1
 H  H10  1  0.21977  0.20611  0.06713  1
 H  H11  1  0.20611  0.21977  0.43287  1
 H  H12  1  0.76710  0.84151  0.23204  1
 H  H13  1  0.84151  0.76710  0.26796  1
 H  H14  1  0.16367  0.97360  0.16987  1
 H  H15  1  0.53674  0.57379  0.64128  1
 H  H16  1  0.57568  0.78626  0.91250  1
 H  H17  1  0.21374  0.42432  0.41250  1
 H  H18  1  0.42432  0.21374  0.08750  1
 H  H19  1  0.13099  0.66952  0.57301  1
 H  H20  1  0.66952  0.13099  0.92699  1
 H  H21  1  0.86901  0.33048  0.42699  1
 H  H22  1  0.33048  0.86901  0.07301  1
 H  H23  1  0.23290  0.15849  0.76796  1
 H  H24  1  0.78626  0.57568  0.58750  1
 Mg  Mg1  1  0.96233  0.72383  0.96549  1
 Mg  Mg2  1  0.27617  0.03767  0.46549  1
 Mg  Mg3  1  0.03767  0.27617  0.03451  1
 Mg  Mg4  1  0.72383  0.96233  0.53451  1
 O  O1  1  0.31589  0.25305  0.41138  1
 O  O2  1  0.41416  0.72495  0.64119  1
 O  O3  1  0.78329  0.01056  0.18809  1
 O  O4  1  0.01056  0.78329  0.31191  1
 O  O5  1  0.21671  -0.01056  0.81191  1
 O  O6  1  0.56302  0.00916  0.21126  1
 O  O7  1  0.00916  0.56302  0.28874  1
 O  O8  1  0.99084  0.43698  0.71126  1
 O  O9  1  -0.01056  0.21671  0.68809  1
 O  O10  1  0.47091  0.74070  0.37133  1
 O  O11  1  0.74070  0.47091  0.12867  1
 O  O12  1  0.52909  0.25930  0.62867  1
 O  O13  1  0.25930  0.52909  0.87133  1
 O  O14  1  0.30672  0.30672  0.75000  1
 O  O15  1  0.43698  0.99084  0.78874  1
 O  O16  1  0.58584  0.27505  0.35881  1
 O  O17  1  0.69328  0.69328  0.25000  1
 O  O18  1  0.73012  0.15676  0.47654  1
 O  O19  1  0.27505  0.58584  0.14119  1
 O  O20  1  0.68411  0.74695  0.58862  1
 O  O21  1  0.74695  0.68411  0.91138  1
 O  O22  1  0.95127  0.77678  0.57863  1
 O  O23  1  0.77678  0.95127  0.92137  1
 O  O24  1  0.25305  0.31589  0.08862  1
 O  O25  1  0.22322  0.04873  0.07863  1
 O  O26  1  0.04873  0.22322  0.42137  1
 O  O27  1  0.26988  0.84324  0.52346  1
 O  O28  1  0.15676  0.73012  0.02346  1
 O  O29  1  0.84324  0.26988  0.97654  1
 O  O30  1  0.72495  0.41416  0.85881  1
 P  P1  1  0.51933  0.82736  0.22632  1
 P  P2  1  0.48067  0.17264  0.77368  1
 P  P3  1  0.82736  0.51933  0.27368  1
 P  P4  1  0.17264  0.48067  0.72632  1
