CIF file written using JARVIS-Tools package.
data_Cu2WS4
_symmetry_space_group_name_H-M  'I-42m'
_cell_length_a       5.45501
_cell_length_b       5.45501
_cell_length_c       6.37355
_cell_angle_alpha    115.337
_cell_angle_beta     115.337
_cell_angle_gamma    90

_symmetry_Int_Tables_number  121
_chemical_formula_structural  Cu2WS4
_chemical_formula_sum  Cu2WS4
_cell_volume  150.98204899801516
_cell_formula_units_Z  1
loop_
  _symmetry_equiv_pos_site_id
 _symmetry_equiv_pos_as_xyz
 1  'x, y, z'
loop_
 _atom_site_type_symbol
 _atom_site_label
 _atom_site_symmetry_multiplicity
 _atom_site_fract_x
 _atom_site_fract_y
 _atom_site_fract_z
 _atom_site_fract_occupancy
 Cu  Cu1  1  0.50000  0.00000  -0.00000  1
 Cu  Cu2  1  -0.00000  0.50000  0.00000  1
 S  S1  1  0.89199  0.89199  0.25795  1
 S  S2  1  0.36596  0.36596  0.25795  1
 S  S3  1  0.10801  0.63404  0.74205  1
 S  S4  1  0.63404  0.10801  0.74205  1
 W  W1  1  0.00000  0.00000  0.00000  1
