CIF file written using JARVIS-Tools package.
data_Fe3O2F4
_symmetry_space_group_name_H-M  'P1'
_cell_length_a       4.6975
_cell_length_b       5.58872
_cell_length_c       7.72122
_cell_angle_alpha    84.4313
_cell_angle_beta     88.9735
_cell_angle_gamma    87.8456

_symmetry_Int_Tables_number  1
_chemical_formula_structural  Fe3O2F4
_chemical_formula_sum  Fe6O4F8
_cell_volume  201.58542466748517
_cell_formula_units_Z  2
loop_
  _symmetry_equiv_pos_site_id
 _symmetry_equiv_pos_as_xyz
 1  'x, y, z'
loop_
 _atom_site_type_symbol
 _atom_site_label
 _atom_site_symmetry_multiplicity
 _atom_site_fract_x
 _atom_site_fract_y
 _atom_site_fract_z
 _atom_site_fract_occupancy
 F  F1  1  0.21495  0.29238  0.91065  1
 F  F2  1  0.29932  0.78513  0.90550  1
 F  F3  1  0.70941  0.87721  0.42278  1
 F  F4  1  0.70784  0.21316  0.09818  1
 F  F5  1  0.80056  0.02469  0.77205  1
 F  F6  1  0.80237  0.37196  0.43425  1
 F  F7  1  0.19748  0.63279  0.55368  1
 F  F8  1  0.21182  0.97704  0.23313  1
 Fe  Fe1  1  0.50758  0.82176  0.66075  1
 Fe  Fe2  1  0.98378  0.97607  0.01250  1
 Fe  Fe3  1  0.00278  0.66202  0.29804  1
 Fe  Fe4  1  0.00084  0.33855  0.67983  1
 Fe  Fe5  1  0.45426  0.20219  0.35861  1
 Fe  Fe6  1  0.51964  0.50558  0.00054  1
 O  O1  1  0.69418  0.52816  0.77503  1
 O  O2  1  0.31576  0.47558  0.21392  1
 O  O3  1  0.29651  0.12523  0.58190  1
 O  O4  1  0.78091  0.69047  0.08866  1
