CIF file written using JARVIS-Tools package.
data_LiMnSiO4
_symmetry_space_group_name_H-M  'Pna2_1'
_cell_length_a       5.02538
_cell_length_b       6.8635
_cell_length_c       9.47546
_cell_angle_alpha    90
_cell_angle_beta     90
_cell_angle_gamma    90

_symmetry_Int_Tables_number  33
_chemical_formula_structural  LiMnSiO4
_chemical_formula_sum  Li4Mn4Si4O6
_cell_volume  326.82458454382106
_cell_formula_units_Z  4
loop_
  _symmetry_equiv_pos_site_id
 _symmetry_equiv_pos_as_xyz
 1  'x, y, z'
loop_
 _atom_site_type_symbol
 _atom_site_label
 _atom_site_symmetry_multiplicity
 _atom_site_fract_x
 _atom_site_fract_y
 _atom_site_fract_z
 _atom_site_fract_occupancy
 Li  Li1  1  0.75296  0.47103  0.19072  1
 Li  Li2  1  0.25296  0.97103  0.30928  1
 Li  Li3  1  0.75296  0.02897  0.69072  1
 Li  Li4  1  0.25296  0.52897  0.80928  1
 Mn  Mn1  1  0.81282  0.97691  0.11580  1
 Mn  Mn2  1  0.31282  0.47691  0.38420  1
 Mn  Mn3  1  0.81282  0.52309  0.61580  1
 Mn  Mn4  1  0.31282  0.02309  0.88420  1
 O  O1  1  0.92116  0.24127  0.12758  1
 O  O2  1  0.87266  0.93275  0.30983  1
 O  O3  1  0.86769  0.54100  0.40204  1
 O  O4  1  0.78811  0.70195  0.08086  1
 O  O5  1  0.37266  0.43275  0.19017  1
 O  O6  1  0.42116  0.75873  0.87242  1
 O  O7  1  0.28811  0.20195  0.41914  1
 O  O8  1  0.36769  0.04100  0.09796  1
 O  O9  1  0.78811  0.79805  0.58086  1
 O  O10  1  0.86769  0.95900  0.90204  1
 O  O11  1  0.37266  0.06725  0.69017  1
 O  O12  1  0.36769  0.45900  0.59796  1
 O  O13  1  0.42116  0.74127  0.37242  1
 O  O14  1  0.87266  0.56725  0.80983  1
 O  O15  1  0.92116  0.25873  0.62758  1
 O  O16  1  0.28811  0.29805  0.91914  1
 Si  Si1  1  0.23876  0.26864  0.08975  1
 Si  Si2  1  0.73876  0.76864  0.41025  1
 Si  Si3  1  0.23876  0.23136  0.58975  1
 Si  Si4  1  0.73876  0.73136  0.91025  1
