CIF file written using JARVIS-Tools package.
data_ScPIr
_symmetry_space_group_name_H-M  'P-62m'
_cell_length_a       3.92756
_cell_length_b       6.38532
_cell_length_c       6.3853
_cell_angle_alpha    120
_cell_angle_beta     90
_cell_angle_gamma    90

_symmetry_Int_Tables_number  189
_chemical_formula_structural  ScPIr
_chemical_formula_sum  Sc3P3Ir3
_cell_volume  138.68107395538362
_cell_formula_units_Z  3
loop_
  _symmetry_equiv_pos_site_id
 _symmetry_equiv_pos_as_xyz
 1  'x, y, z'
loop_
 _atom_site_type_symbol
 _atom_site_label
 _atom_site_symmetry_multiplicity
 _atom_site_fract_x
 _atom_site_fract_y
 _atom_site_fract_z
 _atom_site_fract_occupancy
 Ir  Ir1  1  0.00000  0.25046  0.00000  1
 Ir  Ir2  1  0.00000  0.74956  0.74955  1
 Ir  Ir3  1  0.00000  0.00001  0.25045  1
 P  P1  1  0.00000  0.66668  0.33333  1
 P  P2  1  0.00000  0.33334  0.66667  1
 P  P3  1  0.50000  0.00001  0.00000  1
 Sc  Sc1  1  0.50000  0.58175  -0.00000  1
 Sc  Sc2  1  0.50000  0.41827  0.41826  1
 Sc  Sc3  1  0.50000  0.00001  0.58174  1
