CIF file written using JARVIS-Tools package.
data_Na6NiO4
_symmetry_space_group_name_H-M  'P4_2/nmc'
_cell_length_a       5.34951
_cell_length_b       7.44727
_cell_length_c       7.44712
_cell_angle_alpha    89.9993
_cell_angle_beta     90.0022
_cell_angle_gamma    89.9997

_symmetry_Int_Tables_number  137
_chemical_formula_structural  Na6NiO4
_chemical_formula_sum  Na2Ni2O8
_cell_volume  296.6874846344093
_cell_formula_units_Z  2
loop_
  _symmetry_equiv_pos_site_id
 _symmetry_equiv_pos_as_xyz
 1  'x, y, z'
loop_
 _atom_site_type_symbol
 _atom_site_label
 _atom_site_symmetry_multiplicity
 _atom_site_fract_x
 _atom_site_fract_y
 _atom_site_fract_z
 _atom_site_fract_occupancy
 Na  Na1  1  0.24999  0.53945  0.03945  1
 Na  Na2  1  0.24999  0.96057  0.46057  1
 Na  Na3  1  0.34890  0.25001  0.25001  1
 Na  Na4  1  0.84892  0.25001  0.25001  1
 Na  Na5  1  0.25000  0.53927  0.46074  1
 Na  Na6  1  0.75000  0.03945  0.96057  1
 Na  Na7  1  0.24999  0.96074  0.03928  1
 Na  Na8  1  0.75000  0.46057  0.53945  1
 Na  Na9  1  0.65109  0.75001  0.75001  1
 Na  Na10  1  0.15108  0.75001  0.75001  1
 Na  Na11  1  0.75000  0.46073  0.96074  1
 Na  Na12  1  0.75000  0.03928  0.53928  1
 Ni  Ni1  1  0.75001  0.75001  0.25001  1
 Ni  Ni2  1  0.25001  0.25001  0.75001  1
 O  O1  1  0.41925  0.00264  0.74992  1
 O  O2  1  0.41925  0.49737  0.75009  1
 O  O3  1  0.08076  0.25009  0.99738  1
 O  O4  1  0.58075  0.99738  0.24993  1
 O  O5  1  0.58075  0.50264  0.25009  1
 O  O6  1  0.08076  0.24992  0.50264  1
 O  O7  1  0.91925  0.74993  0.49737  1
 O  O8  1  0.91925  0.75009  0.00264  1
