CIF file written using JARVIS-Tools package.
data_LiTiMnO4
_symmetry_space_group_name_H-M  'Imma'
_cell_length_a       5.77513
_cell_length_b       5.82559
_cell_length_c       5.82558
_cell_angle_alpha    61.3891
_cell_angle_beta     60.286
_cell_angle_gamma    60.286

_symmetry_Int_Tables_number  74
_chemical_formula_structural  LiTiMnO4
_chemical_formula_sum  Li2Ti2Mn2O8
_cell_volume  140.5991894866656
_cell_formula_units_Z  2
loop_
  _symmetry_equiv_pos_site_id
 _symmetry_equiv_pos_as_xyz
 1  'x, y, z'
loop_
 _atom_site_type_symbol
 _atom_site_label
 _atom_site_symmetry_multiplicity
 _atom_site_fract_x
 _atom_site_fract_y
 _atom_site_fract_z
 _atom_site_fract_occupancy
 Li  Li1  1  0.12492  0.12508  0.12508  1
 Li  Li2  1  0.87508  0.87492  0.87492  1
 Mn  Mn1  1  0.00000  0.50000  0.50000  1
 Mn  Mn2  1  0.50000  0.50000  0.50000  1
 O  O1  1  0.26047  0.26073  0.26073  1
 O  O2  1  0.25787  0.27074  0.71353  1
 O  O3  1  0.25787  0.71353  0.27074  1
 O  O4  1  0.71806  0.26073  0.26073  1
 O  O5  1  0.28194  0.73927  0.73927  1
 O  O6  1  0.74213  0.72926  0.28647  1
 O  O7  1  0.74213  0.28647  0.72926  1
 O  O8  1  0.73953  0.73927  0.73927  1
 Ti  Ti1  1  0.50000  -0.00000  0.50000  1
 Ti  Ti2  1  0.50000  0.50000  0.00000  1
