CIF file written using JARVIS-Tools package.
data_Ba4Ir3O10
_symmetry_space_group_name_H-M  'P2_1/c'
_cell_length_a       5.79819
_cell_length_b       7.35208
_cell_length_c       13.2812
_cell_angle_alpha    90
_cell_angle_beta     90
_cell_angle_gamma    112.506

_symmetry_Int_Tables_number  14
_chemical_formula_structural  Ba4Ir3O10
_chemical_formula_sum  Ba8Ir6O20
_cell_volume  523.041497136552
_cell_formula_units_Z  2
loop_
  _symmetry_equiv_pos_site_id
 _symmetry_equiv_pos_as_xyz
 1  'x, y, z'
loop_
 _atom_site_type_symbol
 _atom_site_label
 _atom_site_symmetry_multiplicity
 _atom_site_fract_x
 _atom_site_fract_y
 _atom_site_fract_z
 _atom_site_fract_occupancy
 Ba  Ba1  1  0.26372  0.51835  0.38726  1
 Ba  Ba2  1  0.96508  0.91704  0.36269  1
 Ba  Ba3  1  0.53492  0.08296  0.86269  1
 Ba  Ba4  1  0.03492  0.08296  0.63731  1
 Ba  Ba5  1  0.46508  0.91704  0.13731  1
 Ba  Ba6  1  0.73628  0.48165  0.61274  1
 Ba  Ba7  1  0.76372  0.51835  0.11274  1
 Ba  Ba8  1  0.23628  0.48165  0.88726  1
 Ir  Ir1  1  0.86835  0.75644  0.84959  1
 Ir  Ir2  1  0.36835  0.75644  0.65041  1
 Ir  Ir3  1  0.13165  0.24356  0.15041  1
 Ir  Ir4  1  0.00000  0.00000  0.00000  1
 Ir  Ir5  1  0.63165  0.24356  0.34959  1
 Ir  Ir6  1  0.50000  0.00000  0.50000  1
 O  O1  1  0.63535  0.78742  0.54005  1
 O  O2  1  0.43245  0.23316  0.22569  1
 O  O3  1  0.93245  0.23316  0.27431  1
 O  O4  1  0.56755  0.76684  0.77431  1
 O  O5  1  0.22811  0.46557  0.65395  1
 O  O6  1  0.27189  0.53443  0.15395  1
 O  O7  1  0.77189  0.53443  0.34605  1
 O  O8  1  0.72811  0.46557  0.84605  1
 O  O9  1  0.86465  0.21258  0.04005  1
 O  O10  1  0.52647  0.07369  0.65129  1
 O  O11  1  0.13535  0.78742  0.95995  1
 O  O12  1  0.16107  0.77250  0.52461  1
 O  O13  1  0.33893  0.22750  0.02461  1
 O  O14  1  0.02647  0.07369  0.84871  1
 O  O15  1  0.06755  0.76684  0.72569  1
 O  O16  1  0.47353  0.92631  0.34871  1
 O  O17  1  0.66107  0.77250  0.97539  1
 O  O18  1  0.83893  0.22750  0.47539  1
 O  O19  1  0.36465  0.21258  0.45995  1
 O  O20  1  0.97353  0.92631  0.15129  1
