CIF file written using JARVIS-Tools package.
data_NbReSi
_symmetry_space_group_name_H-M  'P-62m'
_cell_length_a       3.33146
_cell_length_b       6.90166
_cell_length_c       6.90165
_cell_angle_alpha    120
_cell_angle_beta     90
_cell_angle_gamma    90

_symmetry_Int_Tables_number  189
_chemical_formula_structural  NbReSi
_chemical_formula_sum  Nb3Re3Si3
_cell_volume  137.42698367312283
_cell_formula_units_Z  3
loop_
  _symmetry_equiv_pos_site_id
 _symmetry_equiv_pos_as_xyz
 1  'x, y, z'
loop_
 _atom_site_type_symbol
 _atom_site_label
 _atom_site_symmetry_multiplicity
 _atom_site_fract_x
 _atom_site_fract_y
 _atom_site_fract_z
 _atom_site_fract_occupancy
 Nb  Nb1  1  0.50000  0.59779  -0.00000  1
 Nb  Nb2  1  0.50000  0.40221  0.40224  1
 Nb  Nb3  1  0.50000  0.99997  0.59776  1
 Re  Re1  1  0.00000  0.25873  0.00000  1
 Re  Re2  1  0.00000  0.74126  0.74127  1
 Re  Re3  1  0.00000  0.99998  0.25873  1
 Si  Si1  1  0.00000  0.33331  0.66667  1
 Si  Si2  1  0.00000  0.66664  0.33333  1
 Si  Si3  1  0.50000  0.00001  -0.00000  1
