CIF file written using JARVIS-Tools package.
data_CrPb2O5
_symmetry_space_group_name_H-M  'C2/m'
_cell_length_a       5.72521
_cell_length_b       7.16977
_cell_length_c       7.56364
_cell_angle_alpha    112.634
_cell_angle_beta     112.236
_cell_angle_gamma    89.9995

_symmetry_Int_Tables_number  12
_chemical_formula_structural  CrPb2O5
_chemical_formula_sum  Cr2Pb4O0
_cell_volume  261.3694293655042
_cell_formula_units_Z  2
loop_
  _symmetry_equiv_pos_site_id
 _symmetry_equiv_pos_as_xyz
 1  'x, y, z'
loop_
 _atom_site_type_symbol
 _atom_site_label
 _atom_site_symmetry_multiplicity
 _atom_site_fract_x
 _atom_site_fract_y
 _atom_site_fract_z
 _atom_site_fract_occupancy
 Cr  Cr1  1  0.17024  0.66070  0.34049  1
 Cr  Cr2  1  0.82976  0.33930  0.65951  1
 O  O1  1  0.74777  0.00000  -0.00002  1
 O  O2  1  0.25223  -0.00000  0.00002  1
 O  O3  1  0.61642  0.22473  0.70182  1
 O  O4  1  0.91464  0.77533  0.29811  1
 O  O5  1  0.38358  0.77527  0.29818  1
 O  O6  1  0.08536  0.22467  0.70189  1
 O  O7  1  0.90799  0.58980  0.81597  1
 O  O8  1  0.09201  0.41019  0.18403  1
 O  O9  1  0.29515  0.69444  0.59051  1
 O  O10  1  0.70485  0.30556  0.40949  1
 Pb  Pb1  1  0.48281  0.73351  0.96560  1
 Pb  Pb2  1  0.51719  0.26649  0.03440  1
 Pb  Pb3  1  0.14433  0.11414  0.28876  1
 Pb  Pb4  1  0.85567  0.88586  0.71124  1
