CIF file written using JARVIS-Tools package.
data_GaH13C4N2
_symmetry_space_group_name_H-M  'P-1'
_cell_length_a       6.06511
_cell_length_b       6.85158
_cell_length_c       8.55205
_cell_angle_alpha    80.8441
_cell_angle_beta     73.476
_cell_angle_gamma    77.1905

_symmetry_Int_Tables_number  2
_chemical_formula_structural  GaH13C4N2
_chemical_formula_sum  Ga2H26C8N4
_cell_volume  330.47032561545984
_cell_formula_units_Z  2
loop_
  _symmetry_equiv_pos_site_id
 _symmetry_equiv_pos_as_xyz
 1  'x, y, z'
loop_
 _atom_site_type_symbol
 _atom_site_label
 _atom_site_symmetry_multiplicity
 _atom_site_fract_x
 _atom_site_fract_y
 _atom_site_fract_z
 _atom_site_fract_occupancy
 C  C1  1  0.58724  0.74334  0.56418  1
 C  C2  1  0.28627  0.75682  0.21581  1
 C  C3  1  0.41276  0.25666  0.43582  1
 C  C4  1  0.08679  0.25087  0.33163  1
 C  C5  1  0.71373  0.24318  0.78419  1
 C  C6  1  0.91321  0.74913  0.66837  1
 C  C7  1  0.70316  0.65248  0.10585  1
 C  C8  1  0.29684  0.34752  0.89415  1
 Ga  Ga1  1  0.44377  0.91147  0.87250  1
 Ga  Ga2  1  0.55623  0.08853  0.12750  1
 H  H1  1  0.99808  0.59493  0.63530  1
 H  H2  1  0.81838  0.07489  0.12294  1
 H  H3  1  0.73482  0.39173  0.80525  1
 H  H4  1  0.30009  0.74768  0.34241  1
 H  H5  1  0.34486  0.41283  0.46860  1
 H  H6  1  0.26518  0.60827  0.19475  1
 H  H7  1  0.39541  0.76943  0.59123  1
 H  H8  1  0.96923  0.77290  0.77389  1
 H  H9  1  0.71835  0.61515  0.23293  1
 H  H10  1  0.13454  0.30045  0.96962  1
 H  H11  1  0.34909  0.15560  0.54730  1
 H  H12  1  0.18162  0.92511  0.87706  1
 H  H13  1  0.65514  0.58717  0.53140  1
 H  H14  1  0.31444  0.48520  0.93725  1
 H  H15  1  0.00192  0.40507  0.36470  1
 H  H16  1  0.01303  0.14569  0.43653  1
 H  H17  1  0.60459  0.23057  0.40877  1
 H  H18  1  0.03077  0.22710  0.22611  1
 H  H19  1  0.68556  0.51480  0.06275  1
 H  H20  1  0.86546  0.69955  0.03038  1
 H  H21  1  0.69991  0.25232  0.65759  1
 H  H22  1  0.98697  0.85431  0.56347  1
 H  H23  1  0.86994  0.13196  0.79708  1
 H  H24  1  0.65091  0.84440  0.45270  1
 H  H25  1  0.28165  0.38485  0.76707  1
 H  H26  1  0.13006  0.86804  0.20292  1
 N  N1  1  0.66109  0.77572  0.70366  1
 N  N2  1  0.33891  0.22428  0.29634  1
 N  N3  1  0.49905  0.81518  0.09782  1
 N  N4  1  0.50095  0.18482  0.90218  1
