CIF file written using JARVIS-Tools package.
data_MgTi
_symmetry_space_group_name_H-M  'Pnma'
_cell_length_a       5.23227
_cell_length_b       4.89012
_cell_length_c       6.03682
_cell_angle_alpha    90
_cell_angle_beta     90
_cell_angle_gamma    90

_symmetry_Int_Tables_number  62
_chemical_formula_structural  MgTi
_chemical_formula_sum  Mg4Ti4
_cell_volume  154.4607793460918
_cell_formula_units_Z  4
loop_
  _symmetry_equiv_pos_site_id
 _symmetry_equiv_pos_as_xyz
 1  'x, y, z'
loop_
 _atom_site_type_symbol
 _atom_site_label
 _atom_site_symmetry_multiplicity
 _atom_site_fract_x
 _atom_site_fract_y
 _atom_site_fract_z
 _atom_site_fract_occupancy
 Mg  Mg1  1  0.08555  0.25000  0.87451  1
 Mg  Mg2  1  0.58555  0.25000  0.62549  1
 Mg  Mg3  1  0.41445  0.75000  0.37451  1
 Mg  Mg4  1  0.91445  0.75000  0.12549  1
 Ti  Ti1  1  0.08580  0.25000  0.37463  1
 Ti  Ti2  1  0.58580  0.25000  0.12537  1
 Ti  Ti3  1  0.41420  0.75000  0.87463  1
 Ti  Ti4  1  0.91420  0.75000  0.62537  1
