CIF file written using JARVIS-Tools package.
data_BaHf2Cl
_symmetry_space_group_name_H-M  'Pmmm'
_cell_length_a       3.31194
_cell_length_b       5.75982
_cell_length_c       6.46743
_cell_angle_alpha    90
_cell_angle_beta     90
_cell_angle_gamma    90

_symmetry_Int_Tables_number  47
_chemical_formula_structural  BaHf2Cl
_chemical_formula_sum  BaHf2Cl
_cell_volume  123.37372559335054
_cell_formula_units_Z  1
loop_
  _symmetry_equiv_pos_site_id
 _symmetry_equiv_pos_as_xyz
 1  'x, y, z'
loop_
 _atom_site_type_symbol
 _atom_site_label
 _atom_site_symmetry_multiplicity
 _atom_site_fract_x
 _atom_site_fract_y
 _atom_site_fract_z
 _atom_site_fract_occupancy
 Ba  Ba1  1  0.50000  0.50000  0.50000  1
 Cl  Cl1  1  0.50000  0.00000  0.50000  1
 Hf  Hf1  1  0.00000  0.73488  0.00000  1
 Hf  Hf2  1  0.00000  0.26512  0.00000  1
