CIF file written using JARVIS-Tools package.
data_BPS4
_symmetry_space_group_name_H-M  'I222'
_cell_length_a       5.28313
_cell_length_b       5.5432
_cell_length_c       5.87811
_cell_angle_alpha    118.133
_cell_angle_beta     116.704
_cell_angle_gamma    90

_symmetry_Int_Tables_number  23
_chemical_formula_structural  BPS4
_chemical_formula_sum  BPS4
_cell_volume  130.615979866675
_cell_formula_units_Z  1
loop_
  _symmetry_equiv_pos_site_id
 _symmetry_equiv_pos_as_xyz
 1  'x, y, z'
loop_
 _atom_site_type_symbol
 _atom_site_label
 _atom_site_symmetry_multiplicity
 _atom_site_fract_x
 _atom_site_fract_y
 _atom_site_fract_z
 _atom_site_fract_occupancy
 B  B1  1  0.50000  0.00000  0.00000  1
 P  P1  1  0.00000  0.00000  0.00000  1
 S  S1  1  0.61811  0.68691  0.77016  1
 S  S2  1  0.84795  0.31309  0.22984  1
 S  S3  1  0.38189  0.91675  0.22984  1
 S  S4  1  0.15205  0.08325  0.77016  1
