data_image0
_chemical_formula_structural       Cl2H4MgO2
_chemical_formula_sum              "Cl2 H4 Mg1 O2"
_cell_length_a       3.60058
_cell_length_b       5.58011
_cell_length_c       5.58011
_cell_angle_alpha    97.1779
_cell_angle_beta     96.1129
_cell_angle_gamma    96.1129

_space_group_name_H-M_alt    "P 1"
_space_group_IT_number       1

loop_
  _space_group_symop_operation_xyz
  'x, y, z'

loop_
  _atom_site_type_symbol
  _atom_site_label
  _atom_site_symmetry_multiplicity
  _atom_site_fract_x
  _atom_site_fract_y
  _atom_site_fract_z
  _atom_site_occupancy
  Cl  Cl1       1.0  0.57000  0.24200  0.24200  1.0000
  Cl  Cl2       1.0  0.43000  0.75800  0.75800  1.0000
  H   H1        1.0  0.84500  0.59900  0.22300  1.0000
  H   H2        1.0  0.15500  0.77700  0.40100  1.0000
  H   H3        1.0  0.84500  0.22300  0.59900  1.0000
  H   H4        1.0  0.15500  0.40100  0.77700  1.0000
  Mg  Mg1       1.0  0.00000  0.00000  0.00000  1.0000
  O   O1        1.0  0.00000  0.75800  0.24200  1.0000
  O   O2        1.0  0.00000  0.24200  0.75800  1.0000
