CIF file written using JARVIS-Tools package.
data_ZrCl
_symmetry_space_group_name_H-M  'R-3m'
_cell_length_a       3.4401
_cell_length_b       3.43971
_cell_length_c       9.12072
_cell_angle_alpha    100.86
_cell_angle_beta     90
_cell_angle_gamma    120.004

_symmetry_Int_Tables_number  166
_chemical_formula_structural  ZrCl
_chemical_formula_sum  Zr2Cl2
_cell_volume  91.22308151847041
_cell_formula_units_Z  2
loop_
  _symmetry_equiv_pos_site_id
 _symmetry_equiv_pos_as_xyz
 1  'x, y, z'
loop_
 _atom_site_type_symbol
 _atom_site_label
 _atom_site_symmetry_multiplicity
 _atom_site_fract_x
 _atom_site_fract_y
 _atom_site_fract_z
 _atom_site_fract_occupancy
 Cl  Cl1  1  0.89022  0.78043  0.67019  1
 Cl  Cl2  1  0.10978  0.21957  0.32981  1
 Zr  Zr1  1  0.62211  0.24423  0.86614  1
 Zr  Zr2  1  0.37789  0.75577  0.13386  1
