CIF file written using JARVIS-Tools package.
data_Na2BeH4
_symmetry_space_group_name_H-M  'P2_1/m'
_cell_length_a       4.98186
_cell_length_b       5.03514
_cell_length_c       6.69066
_cell_angle_alpha    101.194
_cell_angle_beta     90
_cell_angle_gamma    90

_symmetry_Int_Tables_number  11
_chemical_formula_structural  Na2BeH4
_chemical_formula_sum  Na4Be2H8
_cell_volume  164.63802121384074
_cell_formula_units_Z  2
loop_
  _symmetry_equiv_pos_site_id
 _symmetry_equiv_pos_as_xyz
 1  'x, y, z'
loop_
 _atom_site_type_symbol
 _atom_site_label
 _atom_site_symmetry_multiplicity
 _atom_site_fract_x
 _atom_site_fract_y
 _atom_site_fract_z
 _atom_site_fract_occupancy
 Be  Be1  1  0.25000  0.28011  0.21795  1
 Be  Be2  1  0.75000  0.71989  0.78205  1
 H  H1  1  0.75000  0.93089  0.66098  1
 H  H2  1  0.75000  0.82575  0.99873  1
 H  H3  1  0.52026  0.54596  0.73580  1
 H  H4  1  0.25000  0.06911  0.33902  1
 H  H5  1  0.97974  0.54596  0.73580  1
 H  H6  1  0.02026  0.45404  0.26420  1
 H  H7  1  0.47974  0.45404  0.26420  1
 H  H8  1  0.25000  0.17425  0.00127  1
 Na  Na1  1  0.25000  0.72274  0.02886  1
 Na  Na2  1  0.75000  0.27726  0.97114  1
 Na  Na3  1  0.75000  0.24808  0.46306  1
 Na  Na4  1  0.25000  0.75192  0.53694  1
