CIF file written using JARVIS-Tools package.
data_KGe2P3O12
_symmetry_space_group_name_H-M  'R-3'
_cell_length_a       8.90594
_cell_length_b       8.90593
_cell_length_c       8.90594
_cell_angle_alpha    53.6249
_cell_angle_beta     53.6249
_cell_angle_gamma    53.6248

_symmetry_Int_Tables_number  148
_chemical_formula_structural  KGe2P3O12
_chemical_formula_sum  K2Ge4P6O24
_cell_volume  425.0082638777538
_cell_formula_units_Z  2
loop_
  _symmetry_equiv_pos_site_id
 _symmetry_equiv_pos_as_xyz
 1  'x, y, z'
loop_
 _atom_site_type_symbol
 _atom_site_label
 _atom_site_symmetry_multiplicity
 _atom_site_fract_x
 _atom_site_fract_y
 _atom_site_fract_z
 _atom_site_fract_occupancy
 Ge  Ge1  1  0.34719  0.34719  0.34719  1
 Ge  Ge2  1  0.65281  0.65281  0.65281  1
 Ge  Ge3  1  0.14674  0.14674  0.14674  1
 Ge  Ge4  1  0.85326  0.85326  0.85326  1
 K  K1  1  0.00000  0.00000  0.00000  1
 K  K2  1  0.50000  0.50000  0.50000  1
 O  O1  1  0.51815  0.81797  0.47032  1
 O  O2  1  0.81797  0.47032  0.51815  1
 O  O3  1  0.47032  0.51815  0.81797  1
 O  O4  1  0.87474  0.10434  0.73919  1
 O  O5  1  0.77700  0.63011  0.01567  1
 O  O6  1  0.10434  0.73919  0.87474  1
 O  O7  1  0.26081  0.12526  0.89566  1
 O  O8  1  0.89566  0.26081  0.12526  1
 O  O9  1  0.52968  0.48185  0.18203  1
 O  O10  1  0.36989  0.98433  0.22300  1
 O  O11  1  0.22300  0.36989  0.98433  1
 O  O12  1  0.98433  0.22300  0.36989  1
 O  O13  1  0.12526  0.89566  0.26081  1
 O  O14  1  0.18203  0.52968  0.48185  1
 O  O15  1  0.83292  0.79149  0.47566  1
 O  O16  1  0.48185  0.18203  0.52968  1
 O  O17  1  0.73919  0.87474  0.10434  1
 O  O18  1  0.47566  0.83292  0.79149  1
 O  O19  1  0.20851  0.52434  0.16708  1
 O  O20  1  0.16708  0.20851  0.52434  1
 O  O21  1  0.52434  0.16708  0.20851  1
 O  O22  1  0.79149  0.47566  0.83292  1
 O  O23  1  0.63011  0.01567  0.77700  1
 O  O24  1  0.01567  0.77700  0.63011  1
 P  P1  1  0.46493  0.03474  0.74805  1
 P  P2  1  0.03474  0.74805  0.46493  1
 P  P3  1  0.74805  0.46493  0.03474  1
 P  P4  1  0.96526  0.25195  0.53507  1
 P  P5  1  0.25195  0.53507  0.96526  1
 P  P6  1  0.53507  0.96526  0.25195  1
