CIF file written using JARVIS-Tools package.
data_MnOF
_symmetry_space_group_name_H-M  'Ama2'
_cell_length_a       4.59741
_cell_length_b       4.59741
_cell_length_c       12.4064
_cell_angle_alpha    90
_cell_angle_beta     90
_cell_angle_gamma    90.1109

_symmetry_Int_Tables_number  40
_chemical_formula_structural  MnOF
_chemical_formula_sum  Mn8O8F8
_cell_volume  262.22323684724415
_cell_formula_units_Z  8
loop_
  _symmetry_equiv_pos_site_id
 _symmetry_equiv_pos_as_xyz
 1  'x, y, z'
loop_
 _atom_site_type_symbol
 _atom_site_label
 _atom_site_symmetry_multiplicity
 _atom_site_fract_x
 _atom_site_fract_y
 _atom_site_fract_z
 _atom_site_fract_occupancy
 F  F1  1  0.78378  0.22672  0.86764  1
 F  F2  1  0.70345  0.74578  0.75000  1
 F  F3  1  0.74578  0.70345  0.25000  1
 F  F4  1  0.27559  0.27559  0.50000  1
 F  F5  1  0.27559  0.27559  0.00000  1
 F  F6  1  0.22672  0.78378  0.36764  1
 F  F7  1  0.22672  0.78378  0.13236  1
 F  F8  1  0.78378  0.22672  0.63236  1
 Mn  Mn1  1  0.96852  0.96852  0.00000  1
 Mn  Mn2  1  0.46912  0.52859  0.87499  1
 Mn  Mn3  1  0.52859  0.46912  0.37499  1
 Mn  Mn4  1  0.52859  0.46912  0.12501  1
 Mn  Mn5  1  0.46912  0.52859  0.62501  1
 Mn  Mn6  1  0.03665  0.02435  0.75000  1
 Mn  Mn7  1  0.96852  0.96852  0.50000  1
 Mn  Mn8  1  0.02435  0.03665  0.25000  1
 O  O1  1  0.82125  0.17643  0.12480  1
 O  O2  1  0.67674  0.67674  0.50000  1
 O  O3  1  0.29907  0.33721  0.75000  1
 O  O4  1  0.33721  0.29907  0.25000  1
 O  O5  1  0.17643  0.82125  0.87520  1
 O  O6  1  0.17643  0.82125  0.62480  1
 O  O7  1  0.82125  0.17643  0.37520  1
 O  O8  1  0.67674  0.67674  0.00000  1
