CIF file written using JARVIS-Tools package.
data_ErCoSi2
_symmetry_space_group_name_H-M  'Cmcm'
_cell_length_a       3.96019
_cell_length_b       3.99112
_cell_length_c       8.40143
_cell_angle_alpha    103.741
_cell_angle_beta     90
_cell_angle_gamma    90

_symmetry_Int_Tables_number  63
_chemical_formula_structural  ErCoSi2
_chemical_formula_sum  Er2Co2Si4
_cell_volume  128.98929934604735
_cell_formula_units_Z  2
loop_
  _symmetry_equiv_pos_site_id
 _symmetry_equiv_pos_as_xyz
 1  'x, y, z'
loop_
 _atom_site_type_symbol
 _atom_site_label
 _atom_site_symmetry_multiplicity
 _atom_site_fract_x
 _atom_site_fract_y
 _atom_site_fract_z
 _atom_site_fract_occupancy
 Co  Co1  1  0.75000  0.32191  0.64382  1
 Co  Co2  1  0.25000  0.67809  0.35618  1
 Er  Er1  1  0.25000  0.89202  0.78405  1
 Er  Er2  1  0.75000  0.10798  0.21595  1
 Si  Si1  1  0.25000  0.24998  0.49996  1
 Si  Si2  1  0.75000  0.75002  0.50004  1
 Si  Si3  1  0.75000  0.45747  0.91494  1
 Si  Si4  1  0.25000  0.54253  0.08506  1
