CIF file written using JARVIS-Tools package.
data_CaMgSi2O6
_symmetry_space_group_name_H-M  'P2_1/c'
_cell_length_a       9.78587
_cell_length_b       8.29604
_cell_length_c       5.38074
_cell_angle_alpha    90
_cell_angle_beta     89.7327
_cell_angle_gamma    90

_symmetry_Int_Tables_number  14
_chemical_formula_structural  CaMgSi2O6
_chemical_formula_sum  Ca4Mg4Si8O24
_cell_volume  436.825624364903
_cell_formula_units_Z  4
loop_
  _symmetry_equiv_pos_site_id
 _symmetry_equiv_pos_as_xyz
 1  'x, y, z'
loop_
 _atom_site_type_symbol
 _atom_site_label
 _atom_site_symmetry_multiplicity
 _atom_site_fract_x
 _atom_site_fract_y
 _atom_site_fract_z
 _atom_site_fract_occupancy
 Ca  Ca1  1  0.73005  0.44565  0.60052  1
 Ca  Ca2  1  0.26995  0.94565  0.89948  1
 Ca  Ca3  1  0.26995  0.55435  0.39948  1
 Ca  Ca4  1  0.73005  0.05435  0.10052  1
 Mg  Mg1  1  0.23384  0.33352  0.87908  1
 Mg  Mg2  1  0.76616  0.83352  0.62092  1
 Mg  Mg3  1  0.76616  0.66648  0.12092  1
 Mg  Mg4  1  0.23384  0.16648  0.37908  1
 O  O1  1  0.62955  0.81028  0.93900  1
 O  O2  1  0.38588  0.49078  0.02901  1
 O  O3  1  0.11797  0.01087  0.21494  1
 O  O4  1  0.61412  0.50922  0.97099  1
 O  O5  1  0.38588  0.00922  0.52901  1
 O  O6  1  0.58749  0.27360  0.29838  1
 O  O7  1  0.90216  0.22891  0.46123  1
 O  O8  1  0.41251  0.72640  0.70162  1
 O  O9  1  0.58749  0.22640  0.79838  1
 O  O10  1  0.62955  0.68972  0.43900  1
 O  O11  1  0.88203  0.51087  0.28506  1
 O  O12  1  0.88203  0.98913  0.78506  1
 O  O13  1  0.11797  0.48913  0.71494  1
 O  O14  1  0.41251  0.77360  0.20162  1
 O  O15  1  0.37045  0.18972  0.06100  1
 O  O16  1  0.12857  0.35299  0.21654  1
 O  O17  1  0.87143  0.64701  0.78346  1
 O  O18  1  0.87143  0.85299  0.28346  1
 O  O19  1  0.61412  0.99078  0.47099  1
 O  O20  1  0.09784  0.77109  0.53877  1
 O  O21  1  0.90216  0.27109  0.96123  1
 O  O22  1  0.37045  0.31028  0.56100  1
 O  O23  1  0.12857  0.14701  0.71654  1
 O  O24  1  0.09784  0.72891  0.03877  1
 Si  Si1  1  0.50026  0.16994  0.53581  1
 Si  Si2  1  0.50026  0.33006  0.03581  1
 Si  Si3  1  0.49974  0.83006  0.46419  1
 Si  Si4  1  0.49974  0.66994  0.96419  1
 Si  Si5  1  0.96320  0.15230  0.72891  1
 Si  Si6  1  0.03680  0.65230  0.77109  1
 Si  Si7  1  0.96320  0.34770  0.22891  1
 Si  Si8  1  0.03680  0.84770  0.27109  1
