CIF file written using JARVIS-Tools package.
data_LiCeO2
_symmetry_space_group_name_H-M  'P2_1/c'
_cell_length_a       5.77871
_cell_length_b       5.85985
_cell_length_c       6.02959
_cell_angle_alpha    90
_cell_angle_beta     90
_cell_angle_gamma    103.986

_symmetry_Int_Tables_number  14
_chemical_formula_structural  LiCeO2
_chemical_formula_sum  Li4Ce4O8
_cell_volume  198.123032087261
_cell_formula_units_Z  4
loop_
  _symmetry_equiv_pos_site_id
 _symmetry_equiv_pos_as_xyz
 1  'x, y, z'
loop_
 _atom_site_type_symbol
 _atom_site_label
 _atom_site_symmetry_multiplicity
 _atom_site_fract_x
 _atom_site_fract_y
 _atom_site_fract_z
 _atom_site_fract_occupancy
 Ce  Ce1  1  0.30341  0.20050  0.07154  1
 Ce  Ce2  1  0.80341  0.20050  0.42846  1
 Ce  Ce3  1  0.69659  0.79950  0.92846  1
 Ce  Ce4  1  0.19659  0.79950  0.57154  1
 Li  Li1  1  0.18250  0.66295  0.13260  1
 Li  Li2  1  0.31750  0.33705  0.63260  1
 Li  Li3  1  0.81750  0.33705  0.86740  1
 Li  Li4  1  0.68250  0.66295  0.36740  1
 O  O1  1  0.98606  0.90614  0.24610  1
 O  O2  1  0.69659  0.43465  0.13614  1
 O  O3  1  0.51394  0.09386  0.74610  1
 O  O4  1  0.01394  0.09386  0.75390  1
 O  O5  1  0.30341  0.56535  0.86386  1
 O  O6  1  0.80341  0.56535  0.63614  1
 O  O7  1  0.19659  0.43465  0.36386  1
 O  O8  1  0.48606  0.90614  0.25390  1
