CIF file written using JARVIS-Tools package.
data_Dy3AlCoS7
_symmetry_space_group_name_H-M  'P6_3'
_cell_length_a       9.4655
_cell_length_b       9.4655
_cell_length_c       6.15346
_cell_angle_alpha    90
_cell_angle_beta     90
_cell_angle_gamma    120

_symmetry_Int_Tables_number  173
_chemical_formula_structural  Dy3AlCoS7
_chemical_formula_sum  Dy6Al2Co2S4
_cell_volume  477.4598211552898
_cell_formula_units_Z  2
loop_
  _symmetry_equiv_pos_site_id
 _symmetry_equiv_pos_as_xyz
 1  'x, y, z'
loop_
 _atom_site_type_symbol
 _atom_site_label
 _atom_site_symmetry_multiplicity
 _atom_site_fract_x
 _atom_site_fract_y
 _atom_site_fract_z
 _atom_site_fract_occupancy
 Al  Al1  1  0.33333  0.66667  0.34797  1
 Al  Al2  1  0.66667  0.33333  0.84797  1
 Co  Co1  1  0.00000  0.00000  0.93549  1
 Co  Co2  1  0.00000  0.00000  0.43549  1
 Dy  Dy1  1  0.15967  0.78463  0.77480  1
 Dy  Dy2  1  0.62496  0.84033  0.77480  1
 Dy  Dy3  1  0.21537  0.37504  0.77480  1
 Dy  Dy4  1  0.84033  0.21537  0.27480  1
 Dy  Dy5  1  0.37504  0.15967  0.27480  1
 Dy  Dy6  1  0.78463  0.62496  0.27480  1
 S  S1  1  0.09941  0.87311  0.18050  1
 S  S2  1  0.33333  0.66667  0.98573  1
 S  S3  1  0.12689  0.22631  0.18050  1
 S  S4  1  0.90059  0.12689  0.68050  1
 S  S5  1  0.22631  0.09941  0.68050  1
 S  S6  1  0.77369  0.90059  0.18050  1
 S  S7  1  0.52300  0.43725  0.00030  1
 S  S8  1  0.47700  0.56275  0.50030  1
 S  S9  1  0.08575  0.52300  0.50030  1
 S  S10  1  0.56275  0.08575  0.00030  1
 S  S11  1  0.87311  0.77369  0.68050  1
 S  S12  1  0.91425  0.47700  0.00030  1
 S  S13  1  0.43725  0.91425  0.50030  1
 S  S14  1  0.66667  0.33333  0.48573  1
