CIF file written using JARVIS-Tools package.
data_Tb2Al4NiGe2
_symmetry_space_group_name_H-M  'I4/mmm'
_cell_length_a       4.15706
_cell_length_b       4.15706
_cell_length_c       10.1541
_cell_angle_alpha    101.812
_cell_angle_beta     101.812
_cell_angle_gamma    90

_symmetry_Int_Tables_number  139
_chemical_formula_structural  Tb2Al4NiGe2
_chemical_formula_sum  Tb2Al4NiGe2
_cell_volume  167.96060771383293
_cell_formula_units_Z  1
loop_
  _symmetry_equiv_pos_site_id
 _symmetry_equiv_pos_as_xyz
 1  'x, y, z'
loop_
 _atom_site_type_symbol
 _atom_site_label
 _atom_site_symmetry_multiplicity
 _atom_site_fract_x
 _atom_site_fract_y
 _atom_site_fract_z
 _atom_site_fract_occupancy
 Al  Al1  1  0.93259  0.43259  0.86519  1
 Al  Al2  1  0.43259  0.93259  0.86519  1
 Al  Al3  1  0.56741  0.06741  0.13481  1
 Al  Al4  1  0.06741  0.56741  0.13481  1
 Ge  Ge1  1  0.66284  0.66284  0.32568  1
 Ge  Ge2  1  0.33716  0.33716  0.67432  1
 Ni  Ni1  1  0.00000  0.00000  0.00000  1
 Tb  Tb1  1  0.81358  0.81358  0.62717  1
 Tb  Tb2  1  0.18642  0.18642  0.37283  1
