CIF file written using JARVIS-Tools package.
data_Li3Co2Si2O8
_symmetry_space_group_name_H-M  'C2'
_cell_length_a       5.19871
_cell_length_b       5.19958
_cell_length_c       6.31634
_cell_angle_alpha    89.553
_cell_angle_beta     89.551
_cell_angle_gamma    88.1617

_symmetry_Int_Tables_number  5
_chemical_formula_structural  Li3Co2Si2O8
_chemical_formula_sum  Li3Co2Si2O8
_cell_volume  170.63957154071025
_cell_formula_units_Z  1
loop_
  _symmetry_equiv_pos_site_id
 _symmetry_equiv_pos_as_xyz
 1  'x, y, z'
loop_
 _atom_site_type_symbol
 _atom_site_label
 _atom_site_symmetry_multiplicity
 _atom_site_fract_x
 _atom_site_fract_y
 _atom_site_fract_z
 _atom_site_fract_occupancy
 Co  Co1  1  0.18235  0.17424  0.75823  1
 Co  Co2  1  0.82587  0.81755  0.24172  1
 Li  Li1  1  0.18753  0.18719  0.24886  1
 Li  Li2  1  0.68553  0.31440  0.49998  1
 Li  Li3  1  0.81291  0.81235  0.75117  1
 O  O1  1  0.79919  0.19441  0.21839  1
 O  O2  1  0.80541  0.20065  0.78158  1
 O  O3  1  0.36476  0.27102  0.99737  1
 O  O4  1  0.28776  0.36317  0.50795  1
 O  O5  1  0.72921  0.63503  0.00263  1
 O  O6  1  0.63702  0.71208  0.49205  1
 O  O7  1  0.18650  0.81204  0.28948  1
 O  O8  1  0.18817  0.81366  0.71058  1
 Si  Si1  1  0.67333  0.32657  1.00000  1
 Si  Si2  1  0.31895  0.68116  0.50001  1
