CIF file written using JARVIS-Tools package.
data_VOF
_symmetry_space_group_name_H-M  'Pmn2_1'
_cell_length_a       4.63196
_cell_length_b       4.6827
_cell_length_c       9.19805
_cell_angle_alpha    90
_cell_angle_beta     90
_cell_angle_gamma    90

_symmetry_Int_Tables_number  31
_chemical_formula_structural  VOF
_chemical_formula_sum  V6O6F6
_cell_volume  199.5062541956681
_cell_formula_units_Z  6
loop_
  _symmetry_equiv_pos_site_id
 _symmetry_equiv_pos_as_xyz
 1  'x, y, z'
loop_
 _atom_site_type_symbol
 _atom_site_label
 _atom_site_symmetry_multiplicity
 _atom_site_fract_x
 _atom_site_fract_y
 _atom_site_fract_z
 _atom_site_fract_occupancy
 F  F1  1  0.79472  0.95329  0.66669  1
 F  F2  1  0.70345  0.47149  0.50000  1
 F  F3  1  0.29472  0.04671  0.83331  1
 F  F4  1  0.29472  0.04671  0.16669  1
 F  F5  1  0.20345  0.52851  0.00000  1
 F  F6  1  0.79472  0.95329  0.33331  1
 O  O1  1  0.19574  0.56847  0.66544  1
 O  O2  1  0.19574  0.56847  0.33456  1
 O  O3  1  0.30874  0.07073  0.50000  1
 O  O4  1  0.69574  0.43153  0.16544  1
 O  O5  1  0.80874  0.92927  0.00000  1
 O  O6  1  0.69574  0.43153  0.83456  1
 V  V1  1  0.47665  0.27786  0.66698  1
 V  V2  1  0.47665  0.27786  0.33302  1
 V  V3  1  0.55361  0.23284  0.00000  1
 V  V4  1  0.05361  0.76716  0.50000  1
 V  V5  1  0.97665  0.72214  0.83302  1
 V  V6  1  0.97665  0.72214  0.16698  1
