CIF file written using JARVIS-Tools package.
data_BaNdFe2O5
_symmetry_space_group_name_H-M  'P4/mmm'
_cell_length_a       3.94815
_cell_length_b       7.55368
_cell_length_c       7.89631
_cell_angle_alpha    90
_cell_angle_beta     90
_cell_angle_gamma    90

_symmetry_Int_Tables_number  123
_chemical_formula_structural  BaNdFe2O5
_chemical_formula_sum  Ba2Nd2Fe4O0
_cell_volume  235.49202846520913
_cell_formula_units_Z  2
loop_
  _symmetry_equiv_pos_site_id
 _symmetry_equiv_pos_as_xyz
 1  'x, y, z'
loop_
 _atom_site_type_symbol
 _atom_site_label
 _atom_site_symmetry_multiplicity
 _atom_site_fract_x
 _atom_site_fract_y
 _atom_site_fract_z
 _atom_site_fract_occupancy
 Ba  Ba1  1  0.00000  1.00000  0.00343  1
 Ba  Ba2  1  0.00000  0.00000  0.50343  1
 Fe  Fe1  1  0.50000  0.26627  0.25342  1
 Fe  Fe2  1  0.50000  0.26627  0.75342  1
 Fe  Fe3  1  0.50000  0.73373  0.25342  1
 Fe  Fe4  1  0.50000  0.73373  0.75342  1
 Nd  Nd1  1  0.00000  0.50000  0.00342  1
 Nd  Nd2  1  0.00000  0.50000  0.50342  1
 O  O1  1  0.50000  -0.00000  0.75343  1
 O  O2  1  0.50000  0.29768  0.00342  1
 O  O3  1  0.00000  0.70233  0.25342  1
 O  O4  1  0.00000  0.70232  0.75342  1
 O  O5  1  0.50000  0.70232  0.50342  1
 O  O6  1  0.00000  0.29768  0.25342  1
 O  O7  1  0.50000  0.70231  0.00343  1
 O  O8  1  0.00000  0.29767  0.75342  1
 O  O9  1  0.50000  0.00000  0.25343  1
 O  O10  1  0.50000  0.29769  0.50343  1
