CIF file written using JARVIS-Tools package.
data_CaNiBN
_symmetry_space_group_name_H-M  'P4/nmm'
_cell_length_a       3.5326
_cell_length_b       3.5326
_cell_length_c       7.6031
_cell_angle_alpha    90
_cell_angle_beta     90
_cell_angle_gamma    90

_symmetry_Int_Tables_number  129
_chemical_formula_structural  CaNiBN
_chemical_formula_sum  Ca2Ni2B2N2
_cell_volume  94.88103064692814
_cell_formula_units_Z  2
loop_
  _symmetry_equiv_pos_site_id
 _symmetry_equiv_pos_as_xyz
 1  'x, y, z'
loop_
 _atom_site_type_symbol
 _atom_site_label
 _atom_site_symmetry_multiplicity
 _atom_site_fract_x
 _atom_site_fract_y
 _atom_site_fract_z
 _atom_site_fract_occupancy
 B  B1  1  0.00000  0.50000  0.84480  1
 B  B2  1  0.50000  0.00000  0.15520  1
 Ca  Ca1  1  0.00000  0.50000  0.34166  1
 Ca  Ca2  1  0.50000  0.00000  0.65834  1
 N  N1  1  0.00000  0.50000  0.66264  1
 N  N2  1  0.50000  0.00000  0.33736  1
 Ni  Ni1  1  0.00000  0.00000  0.00000  1
 Ni  Ni2  1  0.50000  0.50000  0.00000  1
