CIF file written using JARVIS-Tools package.
data_Pd3N
_symmetry_space_group_name_H-M  'R-3c'
_cell_length_a       5.14955
_cell_length_b       5.14955
_cell_length_c       5.6007
_cell_angle_alpha    62.6307
_cell_angle_beta     62.6307
_cell_angle_gamma    60

_symmetry_Int_Tables_number  167
_chemical_formula_structural  Pd3N
_chemical_formula_sum  Pd6N2
_cell_volume  109.00237458754262
_cell_formula_units_Z  2
loop_
  _symmetry_equiv_pos_site_id
 _symmetry_equiv_pos_as_xyz
 1  'x, y, z'
loop_
 _atom_site_type_symbol
 _atom_site_label
 _atom_site_symmetry_multiplicity
 _atom_site_fract_x
 _atom_site_fract_y
 _atom_site_fract_z
 _atom_site_fract_occupancy
 N  N1  1  0.50000  0.50000  0.50000  1
 N  N2  1  0.00000  0.00000  0.00000  1
 Pd  Pd1  1  0.91558  0.25000  0.25000  1
 Pd  Pd2  1  0.58442  0.91558  0.25000  1
 Pd  Pd3  1  0.25000  0.58442  0.25000  1
 Pd  Pd4  1  0.08442  0.75000  0.75000  1
 Pd  Pd5  1  0.41558  0.08442  0.75000  1
 Pd  Pd6  1  0.75000  0.41558  0.75000  1
