CIF file written using JARVIS-Tools package.
data_Y2CuGe6
_symmetry_space_group_name_H-M  'Amm2'
_cell_length_a       4.12364
_cell_length_b       4.05243
_cell_length_c       10.909
_cell_angle_alpha    100.704
_cell_angle_beta     90
_cell_angle_gamma    90

_symmetry_Int_Tables_number  38
_chemical_formula_structural  Y2CuGe6
_chemical_formula_sum  Y2CuGe6
_cell_volume  179.1264850246055
_cell_formula_units_Z  1
loop_
  _symmetry_equiv_pos_site_id
 _symmetry_equiv_pos_as_xyz
 1  'x, y, z'
loop_
 _atom_site_type_symbol
 _atom_site_label
 _atom_site_symmetry_multiplicity
 _atom_site_fract_x
 _atom_site_fract_y
 _atom_site_fract_z
 _atom_site_fract_occupancy
 Cu  Cu1  1  0.50000  0.22348  0.44696  1
 Ge  Ge1  1  0.00000  0.28362  0.56724  1
 Ge  Ge2  1  0.00000  0.40028  0.80057  1
 Ge  Ge3  1  0.50000  0.54205  0.08411  1
 Ge  Ge4  1  0.50000  0.11494  0.22988  1
 Ge  Ge5  1  0.50000  0.90140  0.80280  1
 Ge  Ge6  1  0.50000  0.78442  0.56884  1
 Y  Y1  1  0.00000  0.00364  0.00728  1
 Y  Y2  1  0.00000  0.66716  0.33432  1
