CIF file written using JARVIS-Tools package.
data_BeReTc
_symmetry_space_group_name_H-M  'I4mm'
_cell_length_a       4.73748
_cell_length_b       4.73748
_cell_length_c       4.73748
_cell_angle_alpha    143.076
_cell_angle_beta     143.076
_cell_angle_gamma    53.2107

_symmetry_Int_Tables_number  107
_chemical_formula_structural  BeReTc
_chemical_formula_sum  BeReTc
_cell_volume  38.13450489827644
_cell_formula_units_Z  1
loop_
  _symmetry_equiv_pos_site_id
 _symmetry_equiv_pos_as_xyz
 1  'x, y, z'
loop_
 _atom_site_type_symbol
 _atom_site_label
 _atom_site_symmetry_multiplicity
 _atom_site_fract_x
 _atom_site_fract_y
 _atom_site_fract_z
 _atom_site_fract_occupancy
 Be  Be1  1  -0.00062  -0.00062  0.00000  1
 Re  Re1  1  0.33835  0.33835  -0.00000  1
 Tc  Tc1  1  0.66227  0.66227  0.00000  1
