CIF file written using JARVIS-Tools package.
data_NaLiH4C2O5
_symmetry_space_group_name_H-M  'P-1'
_cell_length_a       6.85915
_cell_length_b       8.14125
_cell_length_c       10.2568
_cell_angle_alpha    110.408
_cell_angle_beta     96.5585
_cell_angle_gamma    92.0543

_symmetry_Int_Tables_number  2
_chemical_formula_structural  NaLiH4C2O5
_chemical_formula_sum  Na4Li4H6C8O20
_cell_volume  531.5321285393871
_cell_formula_units_Z  4
loop_
  _symmetry_equiv_pos_site_id
 _symmetry_equiv_pos_as_xyz
 1  'x, y, z'
loop_
 _atom_site_type_symbol
 _atom_site_label
 _atom_site_symmetry_multiplicity
 _atom_site_fract_x
 _atom_site_fract_y
 _atom_site_fract_z
 _atom_site_fract_occupancy
 C  C1  1  0.29637  0.75663  0.06686  1
 C  C2  1  0.90360  0.73367  0.56618  1
 C  C3  1  0.79845  0.89784  0.09281  1
 C  C4  1  0.70363  0.24337  0.93314  1
 C  C5  1  0.20155  0.10216  0.90719  1
 C  C6  1  0.62319  0.28338  0.44016  1
 C  C7  1  0.09640  0.26633  0.43382  1
 C  C8  1  0.37681  0.71662  0.55984  1
 H  H1  1  0.13164  0.53428  0.16318  1
 H  H2  1  0.06743  0.43008  0.25950  1
 H  H3  1  0.55200  0.47320  0.83111  1
 H  H4  1  0.44800  0.52680  0.16889  1
 H  H5  1  0.43701  0.55791  0.72932  1
 H  H6  1  0.56299  0.44209  0.27068  1
 H  H7  1  0.86836  0.46572  0.83682  1
 H  H8  1  0.93257  0.56992  0.74050  1
 H  H9  1  0.32734  0.58114  0.48613  1
 H  H10  1  0.03299  0.38597  0.49985  1
 H  H11  1  0.96701  0.61403  0.50015  1
 H  H12  1  0.67266  0.41886  0.51387  1
 H  H13  1  0.13770  0.96367  0.87121  1
 H  H14  1  0.86230  0.03633  0.12879  1
 H  H15  1  0.69414  0.20685  0.02678  1
 H  H16  1  0.30586  0.79315  0.97322  1
 Li  Li1  1  0.32303  0.12775  0.20128  1
 Li  Li2  1  0.67697  0.87225  0.79872  1
 Li  Li3  1  0.21442  0.42797  0.85619  1
 Li  Li4  1  0.78558  0.57203  0.14381  1
 Na  Na1  1  0.40760  0.13955  0.64566  1
 Na  Na2  1  0.09721  0.85222  0.35082  1
 Na  Na3  1  0.90279  0.14778  0.64918  1
 Na  Na4  1  0.59240  0.86045  0.35434  1
 O  O1  1  0.96044  0.46654  0.76911  1
 O  O2  1  0.13234  0.15096  0.48778  1
 O  O3  1  0.86766  0.84904  0.51222  1
 O  O4  1  0.12556  0.25859  0.31195  1
 O  O5  1  0.87444  0.74141  0.68805  1
 O  O6  1  0.36896  0.83890  0.51043  1
 O  O7  1  0.63104  0.16110  0.48957  1
 O  O8  1  0.43667  0.73548  0.68645  1
 O  O9  1  0.18221  0.17658  0.81563  1
 O  O10  1  0.81779  0.82342  0.18437  1
 O  O11  1  0.28514  0.17298  0.03122  1
 O  O12  1  0.71486  0.82702  0.96878  1
 O  O13  1  0.68381  0.12106  0.81388  1
 O  O14  1  0.31619  0.87894  0.18612  1
 O  O15  1  0.73283  0.40659  0.95395  1
 O  O16  1  0.26717  0.59341  0.04605  1
 O  O17  1  0.43530  0.45357  0.76031  1
 O  O18  1  0.56470  0.54643  0.23969  1
 O  O19  1  0.56333  0.26452  0.31355  1
 O  O20  1  0.03956  0.53346  0.23089  1
