CIF file written using JARVIS-Tools package.
data_DyB2Ru
_symmetry_space_group_name_H-M  'Pnma'
_cell_length_a       5.3125
_cell_length_b       5.90885
_cell_length_c       6.37831
_cell_angle_alpha    90
_cell_angle_beta     90
_cell_angle_gamma    90

_symmetry_Int_Tables_number  62
_chemical_formula_structural  DyB2Ru
_chemical_formula_sum  Dy4B8Ru4
_cell_volume  200.22020573329624
_cell_formula_units_Z  4
loop_
  _symmetry_equiv_pos_site_id
 _symmetry_equiv_pos_as_xyz
 1  'x, y, z'
loop_
 _atom_site_type_symbol
 _atom_site_label
 _atom_site_symmetry_multiplicity
 _atom_site_fract_x
 _atom_site_fract_y
 _atom_site_fract_z
 _atom_site_fract_occupancy
 B  B1  1  0.08544  0.37173  0.46244  1
 B  B2  1  0.91456  0.12827  0.96244  1
 B  B3  1  0.58544  0.62827  0.53756  1
 B  B4  1  0.41456  0.87173  0.03756  1
 B  B5  1  0.91456  0.62827  0.53756  1
 B  B6  1  0.08544  0.87173  0.03756  1
 B  B7  1  0.41456  0.37173  0.46244  1
 B  B8  1  0.58544  0.12827  0.96244  1
 Dy  Dy1  1  0.25000  0.00994  0.66174  1
 Dy  Dy2  1  0.75000  0.49006  0.16174  1
 Dy  Dy3  1  0.75000  0.99006  0.33826  1
 Dy  Dy4  1  0.25000  0.50994  0.83826  1
 Ru  Ru1  1  0.25000  0.18520  0.18336  1
 Ru  Ru2  1  0.75000  0.31480  0.68336  1
 Ru  Ru3  1  0.75000  0.81480  0.81664  1
 Ru  Ru4  1  0.25000  0.68520  0.31664  1
