CIF file written using JARVIS-Tools package.
data_Ca4MgB4H6C2O18
_symmetry_space_group_name_H-M  'C2/m'
_cell_length_a       9.73261
_cell_length_b       9.73261
_cell_length_c       4.48792
_cell_angle_alpha    79.7405
_cell_angle_beta     79.7405
_cell_angle_gamma    52.5037

_symmetry_Int_Tables_number  12
_chemical_formula_structural  Ca4MgB4H6C2O18
_chemical_formula_sum  Ca4MgB4H6C2O8
_cell_volume  330.56389102835044
_cell_formula_units_Z  1
loop_
  _symmetry_equiv_pos_site_id
 _symmetry_equiv_pos_as_xyz
 1  'x, y, z'
loop_
 _atom_site_type_symbol
 _atom_site_label
 _atom_site_symmetry_multiplicity
 _atom_site_fract_x
 _atom_site_fract_y
 _atom_site_fract_z
 _atom_site_fract_occupancy
 B  B1  1  0.22826  0.77174  0.50000  1
 B  B2  1  0.77174  0.22826  0.50000  1
 B  B3  1  0.90114  0.90114  0.61429  1
 B  B4  1  0.09886  0.09886  0.38571  1
 C  C1  1  0.69045  0.69045  0.25397  1
 C  C2  1  0.30955  0.30955  0.74603  1
 Ca  Ca1  1  0.07586  0.61090  0.14554  1
 Ca  Ca2  1  0.38910  0.92414  0.85446  1
 Ca  Ca3  1  0.92414  0.38910  0.85446  1
 Ca  Ca4  1  0.61090  0.07586  0.14554  1
 H  H1  1  0.38975  0.59385  0.21122  1
 H  H2  1  0.40615  0.61025  0.78878  1
 H  H3  1  0.61025  0.40615  0.78878  1
 H  H4  1  0.59385  0.38975  0.21122  1
 H  H5  1  0.78161  0.78161  0.68137  1
 H  H6  1  0.21839  0.21839  0.31863  1
 Mg  Mg1  1  0.00000  0.00000  0.00000  1
 O  O1  1  0.64793  0.64793  0.04831  1
 O  O2  1  0.10217  0.10217  0.69603  1
 O  O3  1  0.08081  0.80582  0.71831  1
 O  O4  1  0.19418  0.91919  0.28169  1
 O  O5  1  0.91919  0.19418  0.28169  1
 O  O6  1  0.80582  0.08081  0.71831  1
 O  O7  1  0.28055  0.62831  0.32663  1
 O  O8  1  0.89783  0.89783  0.30397  1
 O  O9  1  0.17979  0.17979  0.18661  1
 O  O10  1  0.62831  0.28055  0.32663  1
 O  O11  1  0.15491  0.41880  0.64932  1
 O  O12  1  0.58120  0.84509  0.35068  1
 O  O13  1  0.84509  0.58120  0.35068  1
 O  O14  1  0.41880  0.15491  0.64932  1
 O  O15  1  0.82021  0.82021  0.81339  1
 O  O16  1  0.37169  0.71945  0.67337  1
 O  O17  1  0.71945  0.37169  0.67337  1
 O  O18  1  0.35207  0.35207  0.95169  1
