CIF file written using JARVIS-Tools package.
data_NaN
_symmetry_space_group_name_H-M  'Fddd'
_cell_length_a       5.93083
_cell_length_b       5.93083
_cell_length_c       6.54406
_cell_angle_alpha    122.576
_cell_angle_beta     122.576
_cell_angle_gamma    79.154

_symmetry_Int_Tables_number  70
_chemical_formula_structural  NaN
_chemical_formula_sum  Na4N4
_cell_volume  161.77087748425046
_cell_formula_units_Z  4
loop_
  _symmetry_equiv_pos_site_id
 _symmetry_equiv_pos_as_xyz
 1  'x, y, z'
loop_
 _atom_site_type_symbol
 _atom_site_label
 _atom_site_symmetry_multiplicity
 _atom_site_fract_x
 _atom_site_fract_y
 _atom_site_fract_z
 _atom_site_fract_occupancy
 N  N1  1  0.18478  0.68478  0.50000  1
 N  N2  1  0.31522  0.81522  0.50000  1
 N  N3  1  0.06522  0.06522  0.00000  1
 N  N4  1  0.93478  0.93478  0.00000  1
 Na  Na1  1  0.51716  0.01716  0.03431  1
 Na  Na2  1  0.98284  0.48284  0.96569  1
 Na  Na3  1  0.73284  0.73284  0.46569  1
 Na  Na4  1  0.26716  0.26716  0.53431  1
