CIF file written using JARVIS-Tools package.
data_Si5P6O25
_symmetry_space_group_name_H-M  'R-3'
_cell_length_a       9.31114
_cell_length_b       9.31114
_cell_length_c       9.31114
_cell_angle_alpha    50.2793
_cell_angle_beta     50.2793
_cell_angle_gamma    50.2793

_symmetry_Int_Tables_number  148
_chemical_formula_structural  Si5P6O25
_chemical_formula_sum  Si5P6O25
_cell_volume  439.79115300455084
_cell_formula_units_Z  1
loop_
  _symmetry_equiv_pos_site_id
 _symmetry_equiv_pos_as_xyz
 1  'x, y, z'
loop_
 _atom_site_type_symbol
 _atom_site_label
 _atom_site_symmetry_multiplicity
 _atom_site_fract_x
 _atom_site_fract_y
 _atom_site_fract_z
 _atom_site_fract_occupancy
 O  O1  1  0.89721  0.25097  0.97375  1
 O  O2  1  0.13973  0.42817  0.09645  1
 O  O3  1  0.42817  0.09645  0.13973  1
 O  O4  1  0.90355  0.86027  0.57183  1
 O  O5  1  0.86027  0.57183  0.90355  1
 O  O6  1  0.57183  0.90355  0.86027  1
 O  O7  1  0.79385  0.40930  0.56775  1
 O  O8  1  0.73309  0.77932  0.07671  1
 O  O9  1  0.07671  0.73309  0.77932  1
 O  O10  1  0.20615  0.59070  0.43225  1
 O  O11  1  0.59070  0.43225  0.20615  1
 O  O12  1  0.50000  0.50000  0.50000  1
 O  O13  1  0.26691  0.22068  0.92329  1
 O  O14  1  0.92329  0.26691  0.22068  1
 O  O15  1  0.22068  0.92329  0.26691  1
 O  O16  1  0.40930  0.56775  0.79385  1
 O  O17  1  0.09645  0.13973  0.42817  1
 O  O18  1  0.77932  0.07671  0.73309  1
 O  O19  1  0.97375  0.89721  0.25097  1
 O  O20  1  0.74903  0.02625  0.10279  1
 O  O21  1  0.10279  0.74903  0.02625  1
 O  O22  1  0.02625  0.10279  0.74903  1
 O  O23  1  0.43225  0.20615  0.59070  1
 O  O24  1  0.25097  0.97375  0.89721  1
 O  O25  1  0.56775  0.79385  0.40930  1
 P  P1  1  0.92780  0.17416  0.62135  1
 P  P2  1  0.82584  0.37865  0.07220  1
 P  P3  1  0.62135  0.92780  0.17416  1
 P  P4  1  0.37865  0.07220  0.82584  1
 P  P5  1  0.17416  0.62135  0.92780  1
 P  P6  1  0.07220  0.82584  0.37865  1
 Si  Si1  1  0.56617  0.56617  0.56617  1
 Si  Si2  1  0.43383  0.43383  0.43383  1
 Si  Si3  1  0.82033  0.82033  0.82033  1
 Si  Si4  1  0.00000  0.00000  0.00000  1
 Si  Si5  1  0.17967  0.17967  0.17967  1
