CIF file written using JARVIS-Tools package.
data_Ti2O3
_symmetry_space_group_name_H-M  'P-31c'
_cell_length_a       5.10892
_cell_length_b       5.10913
_cell_length_c       9.65553
_cell_angle_alpha    90.0013
_cell_angle_beta     90.0015
_cell_angle_gamma    119.995

_symmetry_Int_Tables_number  163
_chemical_formula_structural  Ti2O3
_chemical_formula_sum  Ti8O2
_cell_volume  218.2756458043422
_cell_formula_units_Z  4
loop_
  _symmetry_equiv_pos_site_id
 _symmetry_equiv_pos_as_xyz
 1  'x, y, z'
loop_
 _atom_site_type_symbol
 _atom_site_label
 _atom_site_symmetry_multiplicity
 _atom_site_fract_x
 _atom_site_fract_y
 _atom_site_fract_z
 _atom_site_fract_occupancy
 O  O1  1  0.02493  0.67737  0.61797  1
 O  O2  1  0.65250  0.67737  0.88208  1
 O  O3  1  0.32263  0.97505  0.88203  1
 O  O4  1  0.32262  0.34752  0.61792  1
 O  O5  1  0.34752  0.32261  0.11792  1
 O  O6  1  0.67740  0.65250  0.38208  1
 O  O7  1  0.97509  0.32264  0.38204  1
 O  O8  1  0.65246  0.97503  0.61797  1
 O  O9  1  0.67739  0.02494  0.11797  1
 O  O10  1  0.34756  0.02499  0.38204  1
 O  O11  1  0.97504  0.65246  0.11795  1
 O  O12  1  0.02498  0.34753  0.88204  1
 Ti  Ti1  1  0.66674  0.33330  0.52326  1
 Ti  Ti2  1  0.66668  0.33325  0.97674  1
 Ti  Ti3  1  0.66665  0.33338  0.25000  1
 Ti  Ti4  1  0.33329  0.66672  0.47675  1
 Ti  Ti5  1  0.00001  0.00000  0.50000  1
 Ti  Ti6  1  0.00001  0.99999  1.00000  1
 Ti  Ti7  1  0.33337  0.66662  0.75000  1
 Ti  Ti8  1  0.33334  0.66674  0.02325  1
