CIF file written using JARVIS-Tools package.
data_Si3N4
_symmetry_space_group_name_H-M  'P31c'
_cell_length_a       7.49087
_cell_length_b       7.49087
_cell_length_c       6.20441
_cell_angle_alpha    90
_cell_angle_beta     90
_cell_angle_gamma    120

_symmetry_Int_Tables_number  159
_chemical_formula_structural  Si3N4
_chemical_formula_sum  Si2N6
_cell_volume  301.50588230985096
_cell_formula_units_Z  4
loop_
  _symmetry_equiv_pos_site_id
 _symmetry_equiv_pos_as_xyz
 1  'x, y, z'
loop_
 _atom_site_type_symbol
 _atom_site_label
 _atom_site_symmetry_multiplicity
 _atom_site_fract_x
 _atom_site_fract_y
 _atom_site_fract_z
 _atom_site_fract_occupancy
 N  N1  1  0.97515  0.66034  0.26557  1
 N  N2  1  0.62083  0.65880  0.01628  1
 N  N3  1  0.00000  0.00000  0.88259  1
 N  N4  1  0.65880  0.62083  0.51628  1
 N  N5  1  0.02485  0.68520  0.76557  1
 N  N6  1  0.34120  0.96202  0.01628  1
 N  N7  1  0.68520  0.02485  0.26557  1
 N  N8  1  0.33966  0.31480  0.26557  1
 N  N9  1  0.03798  0.37917  0.01628  1
 N  N10  1  0.00000  0.00000  0.17926  1
 N  N11  1  0.37917  0.03798  0.51628  1
 N  N12  1  0.66034  0.97515  0.76557  1
 N  N13  1  0.96202  0.34120  0.51628  1
 N  N14  1  0.00000  0.00000  0.67926  1
 N  N15  1  0.31480  0.33966  0.76557  1
 N  N16  1  0.00000  0.00000  0.38259  1
 Si  Si1  1  0.16968  0.23591  0.02934  1
 Si  Si2  1  0.90791  0.40397  0.25153  1
 Si  Si3  1  0.50394  0.59603  0.75153  1
 Si  Si4  1  0.23591  0.16968  0.52934  1
 Si  Si5  1  0.76409  0.93377  0.02934  1
 Si  Si6  1  0.83032  0.06623  0.52934  1
 Si  Si7  1  0.59603  0.50394  0.25153  1
 Si  Si8  1  0.40397  0.90791  0.75153  1
 Si  Si9  1  0.49606  0.09209  0.25153  1
 Si  Si10  1  0.93377  0.76409  0.52934  1
 Si  Si11  1  0.06623  0.83032  0.02934  1
 Si  Si12  1  0.09209  0.49606  0.75153  1
