CIF file written using JARVIS-Tools package.
data_LaP3O9
_symmetry_space_group_name_H-M  'C222_1'
_cell_length_a       7.1337
_cell_length_b       7.1337
_cell_length_c       7.37667
_cell_angle_alpha    90
_cell_angle_beta     90
_cell_angle_gamma    104.761

_symmetry_Int_Tables_number  20
_chemical_formula_structural  LaP3O9
_chemical_formula_sum  La2P6O8
_cell_volume  363.00739231489325
_cell_formula_units_Z  2
loop_
  _symmetry_equiv_pos_site_id
 _symmetry_equiv_pos_as_xyz
 1  'x, y, z'
loop_
 _atom_site_type_symbol
 _atom_site_label
 _atom_site_symmetry_multiplicity
 _atom_site_fract_x
 _atom_site_fract_y
 _atom_site_fract_z
 _atom_site_fract_occupancy
 La  La1  1  0.12753  0.12753  0.25000  1
 La  La2  1  0.87247  0.87247  0.75000  1
 O  O1  1  0.74685  0.52932  0.20521  1
 O  O2  1  0.47068  0.25315  0.79479  1
 O  O3  1  0.52932  0.74685  0.29479  1
 O  O4  1  0.77960  0.52288  0.78946  1
 O  O5  1  0.22040  0.47712  0.28946  1
 O  O6  1  0.52288  0.77960  0.71054  1
 O  O7  1  0.47712  0.22040  0.21054  1
 O  O8  1  0.37867  0.62133  0.00000  1
 O  O9  1  0.62133  0.37867  0.50000  1
 O  O10  1  0.82201  0.86568  0.08291  1
 O  O11  1  0.25315  0.47068  0.70521  1
 O  O12  1  0.13432  0.17799  0.91709  1
 O  O13  1  0.21883  0.82633  0.20569  1
 O  O14  1  0.78117  0.17367  0.70569  1
 O  O15  1  0.82633  0.21883  0.29431  1
 O  O16  1  0.17367  0.78117  0.79431  1
 O  O17  1  0.17799  0.13432  0.58291  1
 O  O18  1  0.86568  0.82201  0.41709  1
 P  P1  1  0.33405  0.68264  0.79693  1
 P  P2  1  0.66595  0.31736  0.29693  1
 P  P3  1  0.68264  0.33405  0.70307  1
 P  P4  1  0.31736  0.66595  0.20307  1
 P  P5  1  0.25266  0.25266  0.75000  1
 P  P6  1  0.74734  0.74734  0.25000  1
