CIF file written using JARVIS-Tools package.
data_RbMg6Fe
_symmetry_space_group_name_H-M  'Amm2'
_cell_length_a       8.34056
_cell_length_b       7.74894
_cell_length_c       4.00805
_cell_angle_alpha    90
_cell_angle_beta     90
_cell_angle_gamma    117.683

_symmetry_Int_Tables_number  38
_chemical_formula_structural  RbMg6Fe
_chemical_formula_sum  RbMg6Fe
_cell_volume  229.38971213298925
_cell_formula_units_Z  1
loop_
  _symmetry_equiv_pos_site_id
 _symmetry_equiv_pos_as_xyz
 1  'x, y, z'
loop_
 _atom_site_type_symbol
 _atom_site_label
 _atom_site_symmetry_multiplicity
 _atom_site_fract_x
 _atom_site_fract_y
 _atom_site_fract_z
 _atom_site_fract_occupancy
 Fe  Fe1  1  0.44646  0.47323  0.25000  1
 Mg  Mg1  1  0.62843  0.26196  0.25000  1
 Mg  Mg2  1  0.62842  0.86647  0.25000  1
 Mg  Mg3  1  0.31652  0.21888  0.75000  1
 Mg  Mg4  1  0.31652  0.59763  0.75000  1
 Mg  Mg5  1  0.91810  0.20905  0.75000  1
 Mg  Mg6  1  0.67214  0.58608  0.75000  1
 Rb  Rb1  1  0.07340  0.78669  0.25000  1
