CIF file written using JARVIS-Tools package.
data_LiH2IO
_symmetry_space_group_name_H-M  'Pmma'
_cell_length_a       6.30145
_cell_length_b       5.56101
_cell_length_c       4.34652
_cell_angle_alpha    90
_cell_angle_beta     90
_cell_angle_gamma    89.9979

_symmetry_Int_Tables_number  51
_chemical_formula_structural  LiH2IO
_chemical_formula_sum  Li2H4I2O2
_cell_volume  152.3125838701403
_cell_formula_units_Z  2
loop_
  _symmetry_equiv_pos_site_id
 _symmetry_equiv_pos_as_xyz
 1  'x, y, z'
loop_
 _atom_site_type_symbol
 _atom_site_label
 _atom_site_symmetry_multiplicity
 _atom_site_fract_x
 _atom_site_fract_y
 _atom_site_fract_z
 _atom_site_fract_occupancy
 H  H1  1  0.00344  0.40076  0.32089  1
 H  H2  1  0.00344  0.40076  0.67911  1
 H  H3  1  0.50332  0.09262  0.32088  1
 H  H4  1  0.50332  0.09262  0.67912  1
 I  I1  1  0.00324  0.00590  0.00000  1
 I  I2  1  0.50327  0.48751  0.00000  1
 Li  Li1  1  0.25316  0.74694  0.50000  1
 Li  Li2  1  0.75317  0.74650  0.50000  1
 O  O1  1  0.00337  0.51169  0.50000  1
 O  O2  1  0.50327  0.98170  0.50000  1
