CIF file written using JARVIS-Tools package.
data_VBiO4
_symmetry_space_group_name_H-M  'Pbcn'
_cell_length_a       5.06187
_cell_length_b       5.30682
_cell_length_c       12.0039
_cell_angle_alpha    90
_cell_angle_beta     90
_cell_angle_gamma    90

_symmetry_Int_Tables_number  60
_chemical_formula_structural  VBiO4
_chemical_formula_sum  V4Bi4O6
_cell_volume  322.45479000616984
_cell_formula_units_Z  4
loop_
  _symmetry_equiv_pos_site_id
 _symmetry_equiv_pos_as_xyz
 1  'x, y, z'
loop_
 _atom_site_type_symbol
 _atom_site_label
 _atom_site_symmetry_multiplicity
 _atom_site_fract_x
 _atom_site_fract_y
 _atom_site_fract_z
 _atom_site_fract_occupancy
 Bi  Bi1  1  0.00000  0.75000  0.88137  1
 Bi  Bi2  1  0.50000  0.25000  0.61863  1
 Bi  Bi3  1  0.00000  0.25000  0.11863  1
 Bi  Bi4  1  0.50000  0.75000  0.38137  1
 O  O1  1  0.85132  0.54127  0.69432  1
 O  O2  1  0.24562  0.08286  0.96576  1
 O  O3  1  0.74562  0.91714  0.53424  1
 O  O4  1  0.25438  0.58286  0.53424  1
 O  O5  1  0.14868  0.45873  0.30568  1
 O  O6  1  0.75438  0.91714  0.03424  1
 O  O7  1  0.25438  0.08286  0.46576  1
 O  O8  1  0.75438  0.41714  0.96576  1
 O  O9  1  0.24562  0.58286  0.03424  1
 O  O10  1  0.64868  0.54127  0.19432  1
 O  O11  1  0.14868  0.95873  0.69432  1
 O  O12  1  0.74562  0.41714  0.46576  1
 O  O13  1  0.35132  0.45873  0.80568  1
 O  O14  1  0.35132  0.95873  0.19432  1
 O  O15  1  0.85132  0.04127  0.30568  1
 O  O16  1  0.64868  0.04127  0.80568  1
 V  V1  1  0.50000  0.75000  0.10615  1
 V  V2  1  0.00000  0.25000  0.39385  1
 V  V3  1  0.50000  0.25000  0.89385  1
 V  V4  1  0.00000  0.75000  0.60615  1
