CIF file written using JARVIS-Tools package.
data_Ti2FeP2O10
_symmetry_space_group_name_H-M  'P2_1/c'
_cell_length_a       7.41958
_cell_length_b       7.38553
_cell_length_c       7.47104
_cell_angle_alpha    90
_cell_angle_beta     120.805
_cell_angle_gamma    90

_symmetry_Int_Tables_number  14
_chemical_formula_structural  Ti2FeP2O10
_chemical_formula_sum  Ti4Fe2P4O20
_cell_volume  351.635514900915
_cell_formula_units_Z  2
loop_
  _symmetry_equiv_pos_site_id
 _symmetry_equiv_pos_as_xyz
 1  'x, y, z'
loop_
 _atom_site_type_symbol
 _atom_site_label
 _atom_site_symmetry_multiplicity
 _atom_site_fract_x
 _atom_site_fract_y
 _atom_site_fract_z
 _atom_site_fract_occupancy
 Fe  Fe1  1  0.00000  0.00000  0.00000  1
 Fe  Fe2  1  0.50000  0.50000  0.50000  1
 O  O1  1  0.27214  0.66183  0.49673  1
 O  O2  1  0.36483  0.74263  0.91845  1
 O  O3  1  0.63517  0.25737  0.08155  1
 O  O4  1  0.72786  0.33817  0.50327  1
 O  O5  1  0.13517  0.24263  0.58155  1
 O  O6  1  0.09068  0.00156  0.31907  1
 O  O7  1  0.65417  0.74476  0.59133  1
 O  O8  1  0.77214  0.83817  0.99673  1
 O  O9  1  0.07958  0.51145  0.82441  1
 O  O10  1  0.40932  0.50156  0.18093  1
 O  O11  1  0.34583  0.25524  0.40867  1
 O  O12  1  0.22786  0.16183  0.00327  1
 O  O13  1  0.86483  0.75737  0.41845  1
 O  O14  1  0.42042  0.01145  0.67559  1
 O  O15  1  0.15417  0.75524  0.09133  1
 O  O16  1  0.59068  0.49844  0.81907  1
 O  O17  1  0.92042  0.48855  0.17559  1
 O  O18  1  0.84583  0.24476  0.90867  1
 O  O19  1  0.90932  -0.00156  0.68093  1
 O  O20  1  0.57958  0.98855  0.32441  1
 P  P1  1  0.75184  0.87342  0.50084  1
 P  P2  1  0.25184  0.62658  0.00084  1
 P  P3  1  0.24816  0.12658  0.49916  1
 P  P4  1  0.74816  0.37342  -0.00084  1
 Ti  Ti1  1  0.52243  0.77330  0.78294  1
 Ti  Ti2  1  0.47757  0.22670  0.21706  1
 Ti  Ti3  1  0.02243  0.72670  0.28294  1
 Ti  Ti4  1  0.97757  0.27330  0.71706  1
