CIF file written using JARVIS-Tools package.
data_Sr3CuIrO6
_symmetry_space_group_name_H-M  'C2/c'
_cell_length_a       6.74373
_cell_length_b       6.76531
_cell_length_c       6.76531
_cell_angle_alpha    91.7417
_cell_angle_beta     90.7794
_cell_angle_gamma    90.7795

_symmetry_Int_Tables_number  15
_chemical_formula_structural  Sr3CuIrO6
_chemical_formula_sum  Sr6Cu2Ir2O2
_cell_volume  308.4551058616268
_cell_formula_units_Z  2
loop_
  _symmetry_equiv_pos_site_id
 _symmetry_equiv_pos_as_xyz
 1  'x, y, z'
loop_
 _atom_site_type_symbol
 _atom_site_label
 _atom_site_symmetry_multiplicity
 _atom_site_fract_x
 _atom_site_fract_y
 _atom_site_fract_z
 _atom_site_fract_occupancy
 Cu  Cu1  1  0.25000  0.80368  0.19632  1
 Cu  Cu2  1  0.75000  0.19632  0.80368  1
 Ir  Ir1  1  0.00000  0.50000  -0.00000  1
 Ir  Ir2  1  0.50000  -0.00000  0.50000  1
 O  O1  1  0.07334  0.43262  0.28019  1
 O  O2  1  0.57334  0.28019  0.43262  1
 O  O3  1  0.96073  0.78377  0.09768  1
 O  O4  1  0.46073  0.09768  0.78377  1
 O  O5  1  0.03927  0.21623  0.90232  1
 O  O6  1  0.53927  0.90232  0.21623  1
 O  O7  1  0.28277  0.60014  0.96469  1
 O  O8  1  0.78277  0.96469  0.60014  1
 O  O9  1  0.92666  0.56738  0.71981  1
 O  O10  1  0.42666  0.71981  0.56738  1
 O  O11  1  0.21723  0.03531  0.39986  1
 O  O12  1  0.71723  0.39986  0.03531  1
 Sr  Sr1  1  0.11897  0.89033  0.74314  1
 Sr  Sr2  1  0.38103  0.25686  0.10967  1
 Sr  Sr3  1  0.88103  0.10967  0.25686  1
 Sr  Sr4  1  0.61897  0.74314  0.89033  1
 Sr  Sr5  1  0.25000  0.39672  0.60328  1
 Sr  Sr6  1  0.75000  0.60328  0.39672  1
