CIF file written using JARVIS-Tools package.
data_Sc3RuC4
_symmetry_space_group_name_H-M  'Immm'
_cell_length_a       3.31785
_cell_length_b       4.5013
_cell_length_c       6.80854
_cell_angle_alpha    109.303
_cell_angle_beta     104.102
_cell_angle_gamma    90

_symmetry_Int_Tables_number  71
_chemical_formula_structural  Sc3RuC4
_chemical_formula_sum  Sc3RuC4
_cell_volume  92.7135669761181
_cell_formula_units_Z  1
loop_
  _symmetry_equiv_pos_site_id
 _symmetry_equiv_pos_as_xyz
 1  'x, y, z'
loop_
 _atom_site_type_symbol
 _atom_site_label
 _atom_site_symmetry_multiplicity
 _atom_site_fract_x
 _atom_site_fract_y
 _atom_site_fract_z
 _atom_site_fract_occupancy
 C  C1  1  0.62954  0.78740  0.25908  1
 C  C2  1  0.37046  0.21260  0.74092  1
 C  C3  1  0.37046  0.52832  0.74092  1
 C  C4  1  0.62954  0.47168  0.25908  1
 Ru  Ru1  1  0.50000  -0.00000  -0.00000  1
 Sc  Sc1  1  0.81073  0.81073  0.62146  1
 Sc  Sc2  1  0.18927  0.18927  0.37854  1
 Sc  Sc3  1  -0.00000  0.50000  -0.00000  1
