CIF file written using JARVIS-Tools package.
data_LiAlH4
_symmetry_space_group_name_H-M  'P2_1/c'
_cell_length_a       4.8381
_cell_length_b       7.83205
_cell_length_c       7.76421
_cell_angle_alpha    90
_cell_angle_beta     112.629
_cell_angle_gamma    90

_symmetry_Int_Tables_number  14
_chemical_formula_structural  LiAlH4
_chemical_formula_sum  Li4Al4H6
_cell_volume  271.5551758150096
_cell_formula_units_Z  4
loop_
  _symmetry_equiv_pos_site_id
 _symmetry_equiv_pos_as_xyz
 1  'x, y, z'
loop_
 _atom_site_type_symbol
 _atom_site_label
 _atom_site_symmetry_multiplicity
 _atom_site_fract_x
 _atom_site_fract_y
 _atom_site_fract_z
 _atom_site_fract_occupancy
 Al  Al1  1  0.14536  0.79934  0.93198  1
 Al  Al2  1  0.85464  0.29934  0.56802  1
 Al  Al3  1  0.85464  0.20066  0.06802  1
 Al  Al4  1  0.14536  0.70066  0.43198  1
 H  H1  1  0.75153  0.07875  0.88434  1
 H  H2  1  0.17707  0.90211  0.75818  1
 H  H3  1  0.82293  0.40211  0.74182  1
 H  H4  1  0.82293  0.09789  0.24182  1
 H  H5  1  0.19765  0.26507  0.12619  1
 H  H6  1  0.36667  0.63101  0.98063  1
 H  H7  1  0.63333  0.13101  0.51937  1
 H  H8  1  0.17707  0.59789  0.25818  1
 H  H9  1  0.36667  0.86899  0.48063  1
 H  H10  1  0.80235  0.76507  0.37381  1
 H  H11  1  0.75153  0.42125  0.38434  1
 H  H12  1  0.63333  0.36899  0.01937  1
 H  H13  1  0.24847  0.57875  0.61566  1
 H  H14  1  0.80235  0.73493  0.87381  1
 H  H15  1  0.19765  0.23493  0.62619  1
 H  H16  1  0.24847  0.92125  0.11566  1
 Li  Li1  1  0.57976  0.96303  0.32938  1
 Li  Li2  1  0.42024  0.46303  0.17062  1
 Li  Li3  1  0.42024  0.03697  0.67062  1
 Li  Li4  1  0.57976  0.53697  0.82938  1
