CIF file written using JARVIS-Tools package.
data_U6Mn
_symmetry_space_group_name_H-M  'I4/mcm'
_cell_length_a       5.33728
_cell_length_b       7.66443
_cell_length_c       7.66443
_cell_angle_alpha    83.0368
_cell_angle_beta     69.6237
_cell_angle_gamma    69.6237

_symmetry_Int_Tables_number  140
_chemical_formula_structural  U6Mn
_chemical_formula_sum  U2Mn2
_cell_volume  275.52074667727635
_cell_formula_units_Z  2
loop_
  _symmetry_equiv_pos_site_id
 _symmetry_equiv_pos_as_xyz
 1  'x, y, z'
loop_
 _atom_site_type_symbol
 _atom_site_label
 _atom_site_symmetry_multiplicity
 _atom_site_fract_x
 _atom_site_fract_y
 _atom_site_fract_z
 _atom_site_fract_occupancy
 Mn  Mn1  1  0.25000  0.00000  -0.00000  1
 Mn  Mn2  1  0.75000  0.00000  -0.00000  1
 U  U1  1  0.09865  0.68366  0.11904  1
 U  U2  1  0.90135  0.31634  0.88096  1
 U  U3  1  0.09367  0.31267  0.50000  1
 U  U4  1  0.59367  0.50000  0.31267  1
 U  U5  1  0.59865  0.11904  0.68366  1
 U  U6  1  0.28231  0.31634  0.11904  1
 U  U7  1  0.78231  0.11904  0.31634  1
 U  U8  1  0.90633  0.68733  0.50000  1
 U  U9  1  0.40135  0.88096  0.31634  1
 U  U10  1  0.21769  0.88096  0.68366  1
 U  U11  1  0.40633  0.50000  0.68733  1
 U  U12  1  0.71769  0.68366  0.88096  1
