CIF file written using JARVIS-Tools package.
data_TiPt8
_symmetry_space_group_name_H-M  'I4/mmm'
_cell_length_a       3.94205
_cell_length_b       6.27472
_cell_length_c       6.27472
_cell_angle_alpha    84.3373
_cell_angle_beta     71.6922
_cell_angle_gamma    71.6921

_symmetry_Int_Tables_number  139
_chemical_formula_structural  TiPt8
_chemical_formula_sum  TiPt8
_cell_volume  139.8922588167294
_cell_formula_units_Z  1
loop_
  _symmetry_equiv_pos_site_id
 _symmetry_equiv_pos_as_xyz
 1  'x, y, z'
loop_
 _atom_site_type_symbol
 _atom_site_label
 _atom_site_symmetry_multiplicity
 _atom_site_fract_x
 _atom_site_fract_y
 _atom_site_fract_z
 _atom_site_fract_occupancy
 Pt  Pt1  1  0.66160  0.67680  0.00000  1
 Pt  Pt2  1  0.33840  0.32320  -0.00000  1
 Pt  Pt3  1  0.66160  0.00000  0.67680  1
 Pt  Pt4  1  0.32881  0.67119  0.67119  1
 Pt  Pt5  1  0.00000  0.32881  0.67119  1
 Pt  Pt6  1  -0.00000  0.67119  0.32881  1
 Pt  Pt7  1  0.67119  0.32881  0.32881  1
 Pt  Pt8  1  0.33840  -0.00000  0.32320  1
 Ti  Ti1  1  0.00000  0.00000  0.00000  1
