CIF file written using JARVIS-Tools package.
data_K2CS2O6F2
_symmetry_space_group_name_H-M  'P2_1/c'
_cell_length_a       6.02927
_cell_length_b       9.90827
_cell_length_c       14.3631
_cell_angle_alpha    113.264
_cell_angle_beta     90
_cell_angle_gamma    90

_symmetry_Int_Tables_number  14
_chemical_formula_structural  K2CS2O6F2
_chemical_formula_sum  K8C4S8O24F8
_cell_volume  788.2833101261191
_cell_formula_units_Z  4
loop_
  _symmetry_equiv_pos_site_id
 _symmetry_equiv_pos_as_xyz
 1  'x, y, z'
loop_
 _atom_site_type_symbol
 _atom_site_label
 _atom_site_symmetry_multiplicity
 _atom_site_fract_x
 _atom_site_fract_y
 _atom_site_fract_z
 _atom_site_fract_occupancy
 C  C1  1  0.29906  0.31665  0.46159  1
 C  C2  1  0.70094  0.68335  0.53841  1
 C  C3  1  0.20094  0.31665  0.96159  1
 C  C4  1  0.79906  0.68335  0.03841  1
 F  F1  1  0.47508  0.66664  0.52033  1
 F  F2  1  0.30455  0.43562  0.03149  1
 F  F3  1  0.19545  0.43562  0.53149  1
 F  F4  1  0.02492  0.66664  0.02033  1
 F  F5  1  0.80455  0.56438  0.46851  1
 F  F6  1  0.52492  0.33336  0.47967  1
 F  F7  1  0.97508  0.33336  0.97967  1
 F  F8  1  0.69545  0.56438  0.96851  1
 K  K1  1  0.28140  0.95449  0.66412  1
 K  K2  1  0.26965  0.71822  0.33354  1
 K  K3  1  0.73035  0.28178  0.66646  1
 K  K4  1  0.76965  0.28178  0.16646  1
 K  K5  1  0.21860  0.95449  0.16412  1
 K  K6  1  0.23035  0.71822  0.83354  1
 K  K7  1  0.71860  0.04551  0.33588  1
 K  K8  1  0.78140  0.04551  0.83588  1
 O  O1  1  0.03445  0.23033  0.30224  1
 O  O2  1  0.24919  0.45442  0.83508  1
 O  O3  1  0.93662  0.78527  0.22670  1
 O  O4  1  0.97340  0.16548  0.49917  1
 O  O5  1  0.76991  0.97318  0.11613  1
 O  O6  1  0.34356  0.15268  0.56676  1
 O  O7  1  0.84356  0.84732  0.93324  1
 O  O8  1  0.96555  0.76967  0.69776  1
 O  O9  1  0.46555  0.23033  0.80224  1
 O  O10  1  0.65644  0.84732  0.43324  1
 O  O11  1  0.15644  0.15268  0.06676  1
 O  O12  1  0.73009  0.97318  0.61613  1
 O  O13  1  0.06338  0.21473  0.77330  1
 O  O14  1  0.53445  0.76967  0.19776  1
 O  O15  1  0.02660  0.83452  0.50083  1
 O  O16  1  0.56338  0.78527  0.72670  1
 O  O17  1  0.26991  0.02682  0.38387  1
 O  O18  1  0.23009  0.02682  0.88387  1
 O  O19  1  0.43662  0.21473  0.27330  1
 O  O20  1  0.75081  0.54558  0.16492  1
 O  O21  1  0.25081  0.45442  0.33508  1
 O  O22  1  0.47340  0.83452  0.00083  1
 O  O23  1  0.52660  0.16548  0.99917  1
 O  O24  1  0.74919  0.54558  0.66492  1
 S  S1  1  0.71159  0.85290  0.01988  1
 S  S2  1  0.21159  0.14710  0.48012  1
 S  S3  1  0.75059  0.69490  0.67025  1
 S  S4  1  0.24941  0.30510  0.32975  1
 S  S5  1  0.25059  0.30510  0.82975  1
 S  S6  1  0.78841  0.85290  0.51988  1
 S  S7  1  0.74941  0.69490  0.17025  1
 S  S8  1  0.28841  0.14710  0.98012  1
