CIF file written using JARVIS-Tools package.
data_Sr5B3ClO9
_symmetry_space_group_name_H-M  'C222_1'
_cell_length_a       7.42414
_cell_length_b       8.71793
_cell_length_c       8.71792
_cell_angle_alpha    109.614
_cell_angle_beta     90
_cell_angle_gamma    90

_symmetry_Int_Tables_number  20
_chemical_formula_structural  Sr5B3ClO9
_chemical_formula_sum  Sr0B6Cl2O8
_cell_volume  531.5095103370193
_cell_formula_units_Z  2
loop_
  _symmetry_equiv_pos_site_id
 _symmetry_equiv_pos_as_xyz
 1  'x, y, z'
loop_
 _atom_site_type_symbol
 _atom_site_label
 _atom_site_symmetry_multiplicity
 _atom_site_fract_x
 _atom_site_fract_y
 _atom_site_fract_z
 _atom_site_fract_occupancy
 B  B1  1  0.52897  0.40935  0.98531  1
 B  B2  1  0.02897  0.59065  0.01469  1
 B  B3  1  0.50000  0.63055  0.63055  1
 B  B4  1  0.47103  0.98531  0.40935  1
 B  B5  1  0.00000  0.36945  0.36945  1
 B  B6  1  0.97103  0.01469  0.59065  1
 Cl  Cl1  1  0.75000  0.94692  0.05308  1
 Cl  Cl2  1  0.25000  0.05308  0.94692  1
 O  O1  1  0.16337  0.30353  0.30287  1
 O  O2  1  0.98652  0.55412  0.15361  1
 O  O3  1  0.66337  0.69647  0.69713  1
 O  O4  1  0.11421  0.73560  0.02901  1
 O  O5  1  0.48652  0.44588  0.84639  1
 O  O6  1  0.83663  0.30287  0.30353  1
 O  O7  1  0.00000  0.50874  0.50874  1
 O  O8  1  0.51348  0.84639  0.44588  1
 O  O9  1  0.50000  0.49126  0.49126  1
 O  O10  1  0.50972  0.14020  0.52134  1
 O  O11  1  0.88579  0.02901  0.73560  1
 O  O12  1  0.61421  0.26440  0.97099  1
 O  O13  1  0.00972  0.85980  0.47866  1
 O  O14  1  0.49028  0.52134  0.14020  1
 O  O15  1  0.99028  0.47866  0.85980  1
 O  O16  1  0.38579  0.97099  0.26440  1
 O  O17  1  0.33663  0.69713  0.69647  1
 O  O18  1  0.01348  0.15361  0.55412  1
 Sr  Sr1  1  0.93739  0.26068  0.00459  1
 Sr  Sr2  1  0.43739  0.73932  0.99541  1
 Sr  Sr3  1  0.75000  0.36228  0.63772  1
 Sr  Sr4  1  0.56261  0.99541  0.73932  1
 Sr  Sr5  1  0.25000  0.63772  0.36228  1
 Sr  Sr6  1  0.75000  0.63496  0.36504  1
 Sr  Sr7  1  0.25000  0.36504  0.63496  1
 Sr  Sr8  1  0.50000  0.23936  0.23936  1
 Sr  Sr9  1  0.06261  0.00459  0.26068  1
 Sr  Sr10  1  0.00000  0.76064  0.76064  1
