CIF file written using JARVIS-Tools package.
data_CoGe
_symmetry_space_group_name_H-M  'C2/m'
_cell_length_a       4.42458
_cell_length_b       5.68805
_cell_length_c       5.68805
_cell_angle_alpha    76.6761
_cell_angle_beta     109.092
_cell_angle_gamma    109.092

_symmetry_Int_Tables_number  12
_chemical_formula_structural  CoGe
_chemical_formula_sum  Co4Ge4
_cell_volume  126.6099330793187
_cell_formula_units_Z  4
loop_
  _symmetry_equiv_pos_site_id
 _symmetry_equiv_pos_as_xyz
 1  'x, y, z'
loop_
 _atom_site_type_symbol
 _atom_site_label
 _atom_site_symmetry_multiplicity
 _atom_site_fract_x
 _atom_site_fract_y
 _atom_site_fract_z
 _atom_site_fract_occupancy
 Co  Co1  1  0.00000  0.00000  0.00000  1
 Co  Co2  1  0.50000  -0.00000  0.00000  1
 Co  Co3  1  0.50000  0.50000  -0.00000  1
 Co  Co4  1  0.50000  0.00000  0.50000  1
 Ge  Ge1  1  0.50000  0.32276  0.67724  1
 Ge  Ge2  1  0.50000  0.67724  0.32276  1
 Ge  Ge3  1  0.92650  0.27026  0.27026  1
 Ge  Ge4  1  0.07350  0.72974  0.72974  1
