CIF file written using JARVIS-Tools package.
data_TbGa6Fe6
_symmetry_space_group_name_H-M  'Immm'
_cell_length_a       5.02856
_cell_length_b       6.54644
_cell_length_c       6.54633
_cell_angle_alpha    80.3614
_cell_angle_beta     67.4058
_cell_angle_gamma    67.4058

_symmetry_Int_Tables_number  71
_chemical_formula_structural  TbGa6Fe6
_chemical_formula_sum  TbGa6Fe6
_cell_volume  183.63971983432708
_cell_formula_units_Z  1
loop_
  _symmetry_equiv_pos_site_id
 _symmetry_equiv_pos_as_xyz
 1  'x, y, z'
loop_
 _atom_site_type_symbol
 _atom_site_label
 _atom_site_symmetry_multiplicity
 _atom_site_fract_x
 _atom_site_fract_y
 _atom_site_fract_z
 _atom_site_fract_occupancy
 Fe  Fe1  1  0.50248  0.75287  0.24432  1
 Fe  Fe2  1  0.50248  0.24101  0.75620  1
 Fe  Fe3  1  0.50247  0.99694  0.50025  1
 Fe  Fe4  1  0.50247  0.49694  0.00025  1
 Fe  Fe5  1  0.00247  0.99694  0.50026  1
 Fe  Fe6  1  0.00246  0.49694  0.00025  1
 Ga  Ga1  1  0.68493  0.81447  0.81778  1
 Ga  Ga2  1  0.34656  0.65298  0.65629  1
 Ga  Ga3  1  0.65838  0.34089  0.34421  1
 Ga  Ga4  1  0.00249  0.33097  0.66623  1
 Ga  Ga5  1  0.31997  0.17941  0.18274  1
 Ga  Ga6  1  0.00249  0.66293  0.33426  1
 Tb  Tb1  1  0.00245  0.99695  0.00024  1
