CIF file written using JARVIS-Tools package.
data_Ba3Sb4O
_symmetry_space_group_name_H-M  'P2_1/c'
_cell_length_a       7.06664
_cell_length_b       12.2858
_cell_length_c       12.8873
_cell_angle_alpha    90
_cell_angle_beta     90
_cell_angle_gamma    99.8083

_symmetry_Int_Tables_number  14
_chemical_formula_structural  Ba3Sb4O
_chemical_formula_sum  Ba2Sb6O4
_cell_volume  1102.5106300319449
_cell_formula_units_Z  4
loop_
  _symmetry_equiv_pos_site_id
 _symmetry_equiv_pos_as_xyz
 1  'x, y, z'
loop_
 _atom_site_type_symbol
 _atom_site_label
 _atom_site_symmetry_multiplicity
 _atom_site_fract_x
 _atom_site_fract_y
 _atom_site_fract_z
 _atom_site_fract_occupancy
 Ba  Ba1  1  0.67118  0.47910  0.76836  1
 Ba  Ba2  1  0.75255  0.54709  0.44132  1
 Ba  Ba3  1  0.60761  0.22109  0.55152  1
 Ba  Ba4  1  0.39239  0.77891  0.44848  1
 Ba  Ba5  1  0.10761  0.72109  0.94848  1
 Ba  Ba6  1  0.25255  0.04709  0.05868  1
 Ba  Ba7  1  0.82882  0.02090  0.26836  1
 Ba  Ba8  1  0.74745  0.95291  0.94132  1
 Ba  Ba9  1  0.89239  0.27891  0.05152  1
 Ba  Ba10  1  0.32882  0.52090  0.23164  1
 Ba  Ba11  1  0.24745  0.45291  0.55868  1
 Ba  Ba12  1  0.17118  0.97910  0.73164  1
 O  O1  1  0.91151  0.07947  0.08657  1
 O  O2  1  0.58849  0.42053  0.58657  1
 O  O3  1  0.08849  0.92053  0.91343  1
 O  O4  1  0.41151  0.57947  0.41343  1
 Sb  Sb1  1  0.08677  0.15739  0.48583  1
 Sb  Sb2  1  0.83822  0.56045  0.15558  1
 Sb  Sb3  1  0.55444  0.26522  0.26612  1
 Sb  Sb4  1  0.46440  0.81494  0.15791  1
 Sb  Sb5  1  0.03560  0.68506  0.65791  1
 Sb  Sb6  1  0.96440  0.31494  0.34209  1
 Sb  Sb7  1  0.16178  0.43955  0.84442  1
 Sb  Sb8  1  0.41323  0.34261  0.98583  1
 Sb  Sb9  1  0.33822  0.06045  0.34442  1
 Sb  Sb10  1  0.91323  0.84261  0.51417  1
 Sb  Sb11  1  0.58677  0.65739  0.01417  1
 Sb  Sb12  1  0.05444  0.76522  0.23388  1
 Sb  Sb13  1  0.53560  0.18506  0.84209  1
 Sb  Sb14  1  0.66178  0.93955  0.65558  1
 Sb  Sb15  1  0.94556  0.23478  0.76612  1
 Sb  Sb16  1  0.44556  0.73478  0.73388  1
