CIF file written using JARVIS-Tools package.
data_BaTm2CoO5
_symmetry_space_group_name_H-M  'Pnma'
_cell_length_a       5.67184
_cell_length_b       6.97949
_cell_length_c       12.1683
_cell_angle_alpha    90
_cell_angle_beta     90
_cell_angle_gamma    90

_symmetry_Int_Tables_number  62
_chemical_formula_structural  BaTm2CoO5
_chemical_formula_sum  Ba4Tm8Co4O20
_cell_volume  481.7020733638606
_cell_formula_units_Z  4
loop_
  _symmetry_equiv_pos_site_id
 _symmetry_equiv_pos_as_xyz
 1  'x, y, z'
loop_
 _atom_site_type_symbol
 _atom_site_label
 _atom_site_symmetry_multiplicity
 _atom_site_fract_x
 _atom_site_fract_y
 _atom_site_fract_z
 _atom_site_fract_occupancy
 Ba  Ba1  1  0.25000  0.92051  0.90062  1
 Ba  Ba2  1  0.75000  0.07949  0.09938  1
 Ba  Ba3  1  0.75000  0.42051  0.59938  1
 Ba  Ba4  1  0.25000  0.57949  0.40062  1
 Co  Co1  1  0.75000  0.30636  0.34643  1
 Co  Co2  1  0.25000  0.69364  0.65357  1
 Co  Co3  1  0.75000  0.19364  0.84643  1
 Co  Co4  1  0.25000  0.80636  0.15357  1
 O  O1  1  0.00097  0.13493  0.72487  1
 O  O2  1  0.99903  0.63493  0.77513  1
 O  O3  1  0.49749  0.83164  0.56432  1
 O  O4  1  0.99749  0.33164  0.93568  1
 O  O5  1  0.50097  0.63493  0.77513  1
 O  O6  1  0.50251  0.16836  0.43568  1
 O  O7  1  0.00251  0.83164  0.56432  1
 O  O8  1  0.50251  0.33164  0.93568  1
 O  O9  1  0.00251  0.66836  0.06432  1
 O  O10  1  0.75000  0.57844  0.39556  1
 O  O11  1  0.99749  0.16836  0.43568  1
 O  O12  1  0.49749  0.66836  0.06432  1
 O  O13  1  0.00097  0.36507  0.22487  1
 O  O14  1  0.75000  0.92156  0.89556  1
 O  O15  1  0.99903  0.86507  0.27513  1
 O  O16  1  0.25000  0.07844  0.10444  1
 O  O17  1  0.49903  0.36507  0.22487  1
 O  O18  1  0.50097  0.86507  0.27513  1
 O  O19  1  0.49903  0.13493  0.72487  1
 O  O20  1  0.25000  0.42156  0.60444  1
 Tm  Tm1  1  0.25000  0.09643  0.57509  1
 Tm  Tm2  1  0.75000  0.90357  0.42491  1
 Tm  Tm3  1  0.75000  0.59643  0.92491  1
 Tm  Tm4  1  0.25000  0.40357  0.07509  1
 Tm  Tm5  1  0.25000  0.37883  0.79160  1
 Tm  Tm6  1  0.75000  0.62117  0.20840  1
 Tm  Tm7  1  0.75000  0.87883  0.70840  1
 Tm  Tm8  1  0.25000  0.12117  0.29160  1
