CIF file written using JARVIS-Tools package.
data_EuAl2Ge2
_symmetry_space_group_name_H-M  'P-3m1'
_cell_length_a       4.29116
_cell_length_b       4.29117
_cell_length_c       6.71755
_cell_angle_alpha    90
_cell_angle_beta     90
_cell_angle_gamma    120

_symmetry_Int_Tables_number  164
_chemical_formula_structural  EuAl2Ge2
_chemical_formula_sum  EuAl2Ge2
_cell_volume  107.12515471655502
_cell_formula_units_Z  1
loop_
  _symmetry_equiv_pos_site_id
 _symmetry_equiv_pos_as_xyz
 1  'x, y, z'
loop_
 _atom_site_type_symbol
 _atom_site_label
 _atom_site_symmetry_multiplicity
 _atom_site_fract_x
 _atom_site_fract_y
 _atom_site_fract_z
 _atom_site_fract_occupancy
 Al  Al1  1  0.66667  0.33333  0.35497  1
 Al  Al2  1  0.33333  0.66667  0.64503  1
 Eu  Eu1  1  0.00000  0.00000  0.00000  1
 Ge  Ge1  1  0.66667  0.33333  0.73884  1
 Ge  Ge2  1  0.33333  0.66667  0.26116  1
