CIF file written using JARVIS-Tools package.
data_Mn3O4F2
_symmetry_space_group_name_H-M  'P1'
_cell_length_a       5.41685
_cell_length_b       5.41908
_cell_length_c       7.22288
_cell_angle_alpha    72.1488
_cell_angle_beta     71.8343
_cell_angle_gamma    71.4163

_symmetry_Int_Tables_number  1
_chemical_formula_structural  Mn3O4F2
_chemical_formula_sum  Mn6O8F4
_cell_volume  185.82919290400483
_cell_formula_units_Z  2
loop_
  _symmetry_equiv_pos_site_id
 _symmetry_equiv_pos_as_xyz
 1  'x, y, z'
loop_
 _atom_site_type_symbol
 _atom_site_label
 _atom_site_symmetry_multiplicity
 _atom_site_fract_x
 _atom_site_fract_y
 _atom_site_fract_z
 _atom_site_fract_occupancy
 F  F1  1  0.70259  0.28210  -0.00107  1
 F  F2  1  0.11169  0.12734  0.68477  1
 F  F3  1  0.88652  0.90469  0.31560  1
 F  F4  1  0.42361  0.42273  0.36071  1
 Mn  Mn1  1  0.02108  0.96386  0.99881  1
 Mn  Mn2  1  0.30673  0.31777  0.16108  1
 Mn  Mn3  1  0.67152  0.68784  0.82722  1
 Mn  Mn4  1  0.34456  0.35784  0.68943  1
 Mn  Mn5  1  0.65824  0.66810  0.32789  1
 Mn  Mn6  1  0.99839  0.01062  0.50388  1
 O  O1  1  0.31406  0.67201  -0.00340  1
 O  O2  1  0.96419  0.36276  0.33039  1
 O  O3  1  0.57511  0.57973  0.62195  1
 O  O4  1  0.77362  0.76107  0.03777  1
 O  O5  1  0.03376  0.65480  0.67034  1
 O  O6  1  0.35059  0.96988  0.33020  1
 O  O7  1  0.22251  0.21018  0.97311  1
 O  O8  1  0.64124  0.04667  0.67132  1
