CIF file written using JARVIS-Tools package.
data_Na3AsS3
_symmetry_space_group_name_H-M  'P2_13'
_cell_length_a       8.52147
_cell_length_b       8.52147
_cell_length_c       8.52147
_cell_angle_alpha    90
_cell_angle_beta     90
_cell_angle_gamma    90

_symmetry_Int_Tables_number  198
_chemical_formula_structural  Na3AsS3
_chemical_formula_sum  Na2As4S2
_cell_volume  618.7898761847856
_cell_formula_units_Z  4
loop_
  _symmetry_equiv_pos_site_id
 _symmetry_equiv_pos_as_xyz
 1  'x, y, z'
loop_
 _atom_site_type_symbol
 _atom_site_label
 _atom_site_symmetry_multiplicity
 _atom_site_fract_x
 _atom_site_fract_y
 _atom_site_fract_z
 _atom_site_fract_occupancy
 As  As1  1  0.97031  0.52969  0.47031  1
 As  As2  1  0.02969  0.02969  0.02969  1
 As  As3  1  0.52969  0.47031  0.97031  1
 As  As4  1  0.47031  0.97031  0.52969  1
 Na  Na1  1  0.18898  0.31102  0.68898  1
 Na  Na2  1  0.31102  0.68898  0.18898  1
 Na  Na3  1  0.68898  0.18898  0.31102  1
 Na  Na4  1  0.81102  0.81102  0.81102  1
 Na  Na5  1  0.57907  0.57907  0.57907  1
 Na  Na6  1  0.81973  0.18027  0.68027  1
 Na  Na7  1  0.18027  0.68027  0.81973  1
 Na  Na8  1  0.31973  0.31973  0.31973  1
 Na  Na9  1  0.42093  0.07907  0.92093  1
 Na  Na10  1  0.07907  0.92093  0.42093  1
 Na  Na11  1  0.92093  0.42093  0.07907  1
 Na  Na12  1  0.68027  0.81973  0.18027  1
 S  S1  1  0.77332  0.10781  0.00036  1
 S  S2  1  0.50036  0.72668  0.89219  1
 S  S3  1  0.00036  0.77332  0.10781  1
 S  S4  1  0.39219  0.99964  0.27332  1
 S  S5  1  0.99964  0.27332  0.39219  1
 S  S6  1  0.49964  0.22668  0.60781  1
 S  S7  1  0.60781  0.49964  0.22668  1
 S  S8  1  0.22668  0.60781  0.49964  1
 S  S9  1  0.10781  0.00036  0.77332  1
 S  S10  1  0.27332  0.39219  0.99964  1
 S  S11  1  0.89219  0.50036  0.72668  1
 S  S12  1  0.72668  0.89219  0.50036  1
