CIF file written using JARVIS-Tools package.
data_Li4CO4
_symmetry_space_group_name_H-M  'Cm'
_cell_length_a       4.60114
_cell_length_b       4.56681
_cell_length_c       4.5668
_cell_angle_alpha    85.8706
_cell_angle_beta     118.176
_cell_angle_gamma    118.176

_symmetry_Int_Tables_number  8
_chemical_formula_structural  Li4CO4
_chemical_formula_sum  Li4CO4
_cell_volume  73.14458217947247
_cell_formula_units_Z  1
loop_
  _symmetry_equiv_pos_site_id
 _symmetry_equiv_pos_as_xyz
 1  'x, y, z'
loop_
 _atom_site_type_symbol
 _atom_site_label
 _atom_site_symmetry_multiplicity
 _atom_site_fract_x
 _atom_site_fract_y
 _atom_site_fract_z
 _atom_site_fract_occupancy
 C  C1  1  0.40261  0.86807  0.86807  1
 Li  Li1  1  0.16365  0.15628  0.15628  1
 Li  Li2  1  0.90656  0.58825  0.14802  1
 Li  Li3  1  0.72584  0.58592  0.58592  1
 Li  Li4  1  0.90656  0.14802  0.58825  1
 O  O1  1  0.66996  0.83276  0.83276  1
 O  O2  1  0.57980  0.13656  0.13656  1
 O  O3  1  0.16182  0.92831  0.55776  1
 O  O4  1  0.16182  0.55776  0.92831  1
