CIF file written using JARVIS-Tools package.
data_Cu2SO4
_symmetry_space_group_name_H-M  'Fddd'
_cell_length_a       4.45243
_cell_length_b       5.91717
_cell_length_c       7.6873
_cell_angle_alpha    83.745
_cell_angle_beta     73.1663
_cell_angle_gamma    67.8997

_symmetry_Int_Tables_number  70
_chemical_formula_structural  Cu2SO4
_chemical_formula_sum  Cu4S2O8
_cell_volume  179.6068080314694
_cell_formula_units_Z  2
loop_
  _symmetry_equiv_pos_site_id
 _symmetry_equiv_pos_as_xyz
 1  'x, y, z'
loop_
 _atom_site_type_symbol
 _atom_site_label
 _atom_site_symmetry_multiplicity
 _atom_site_fract_x
 _atom_site_fract_y
 _atom_site_fract_z
 _atom_site_fract_occupancy
 Cu  Cu1  1  0.18016  0.25000  0.63968  1
 Cu  Cu2  1  0.56984  0.25000  0.86032  1
 Cu  Cu3  1  0.81984  0.75000  0.36032  1
 Cu  Cu4  1  0.43016  0.75000  0.13968  1
 O  O1  1  0.92750  0.40545  0.36948  1
 O  O2  1  0.20243  0.09455  0.13052  1
 O  O3  1  0.66705  0.40545  0.13052  1
 O  O4  1  0.70301  0.09455  0.36948  1
 O  O5  1  0.07250  0.59455  0.63052  1
 O  O6  1  0.79757  0.90545  0.86948  1
 O  O7  1  0.29699  0.90545  0.63052  1
 O  O8  1  0.33295  0.59455  0.86948  1
 S  S1  1  0.87500  0.25000  0.25000  1
 S  S2  1  0.12500  0.75000  0.75000  1
