CIF file written using JARVIS-Tools package.
data_VS2N3Cl2
_symmetry_space_group_name_H-M  'P-1'
_cell_length_a       5.67297
_cell_length_b       6.88784
_cell_length_c       7.71461
_cell_angle_alpha    95.5128
_cell_angle_beta     98.6393
_cell_angle_gamma    97.2823

_symmetry_Int_Tables_number  2
_chemical_formula_structural  VS2N3Cl2
_chemical_formula_sum  V2S4N6Cl4
_cell_volume  293.5768315204603
_cell_formula_units_Z  2
loop_
  _symmetry_equiv_pos_site_id
 _symmetry_equiv_pos_as_xyz
 1  'x, y, z'
loop_
 _atom_site_type_symbol
 _atom_site_label
 _atom_site_symmetry_multiplicity
 _atom_site_fract_x
 _atom_site_fract_y
 _atom_site_fract_z
 _atom_site_fract_occupancy
 Cl  Cl1  1  0.37774  0.86881  0.82768  1
 Cl  Cl2  1  0.18359  0.38380  0.19059  1
 Cl  Cl3  1  0.62226  0.13119  0.17232  1
 Cl  Cl4  1  0.81641  0.61620  0.80941  1
 N  N1  1  0.98656  0.25710  0.57160  1
 N  N2  1  0.06838  0.92563  0.14576  1
 N  N3  1  0.01344  0.74290  0.42840  1
 N  N4  1  0.65839  0.69667  0.16784  1
 N  N5  1  0.34161  0.30333  0.83216  1
 N  N6  1  0.93162  0.07437  0.85424  1
 S  S1  1  0.74267  0.63717  0.35756  1
 S  S2  1  0.81277  0.11915  0.66489  1
 S  S3  1  0.25733  0.36283  0.64244  1
 S  S4  1  0.18723  0.88085  0.33511  1
 V  V1  1  0.76390  0.84833  0.02101  1
 V  V2  1  0.23610  0.15167  0.97899  1
