CIF file written using JARVIS-Tools package.
data_SrBr2O6
_symmetry_space_group_name_H-M  'C2'
_cell_length_a       4.31606
_cell_length_b       5.652
_cell_length_c       6.5996
_cell_angle_alpha    125.72
_cell_angle_beta     89.9999
_cell_angle_gamma    87.0278

_symmetry_Int_Tables_number  5
_chemical_formula_structural  SrBr2O6
_chemical_formula_sum  SrBr2O6
_cell_volume  130.43951006491625
_cell_formula_units_Z  1
loop_
  _symmetry_equiv_pos_site_id
 _symmetry_equiv_pos_as_xyz
 1  'x, y, z'
loop_
 _atom_site_type_symbol
 _atom_site_label
 _atom_site_symmetry_multiplicity
 _atom_site_fract_x
 _atom_site_fract_y
 _atom_site_fract_z
 _atom_site_fract_occupancy
 Br  Br1  1  0.68657  0.30420  0.72018  1
 Br  Br2  1  0.31343  0.69580  0.41599  1
 O  O1  1  0.49085  0.34351  0.25793  1
 O  O2  1  0.50915  0.65649  0.91442  1
 O  O3  1  0.50000  0.00000  0.74735  1
 O  O4  1  0.03889  0.63300  0.55420  1
 O  O5  1  0.96111  0.36700  0.92119  1
 O  O6  1  0.00000  -0.00000  0.42224  1
 Sr  Sr1  1  -0.00000  0.00000  0.04650  1
