CIF file written using JARVIS-Tools package.
data_CaAlAu
_symmetry_space_group_name_H-M  'Pnma'
_cell_length_a       4.532
_cell_length_b       7.29438
_cell_length_c       7.7826
_cell_angle_alpha    90
_cell_angle_beta     90
_cell_angle_gamma    90

_symmetry_Int_Tables_number  62
_chemical_formula_structural  CaAlAu
_chemical_formula_sum  Ca4Al4Au4
_cell_volume  257.2783849853796
_cell_formula_units_Z  4
loop_
  _symmetry_equiv_pos_site_id
 _symmetry_equiv_pos_as_xyz
 1  'x, y, z'
loop_
 _atom_site_type_symbol
 _atom_site_label
 _atom_site_symmetry_multiplicity
 _atom_site_fract_x
 _atom_site_fract_y
 _atom_site_fract_z
 _atom_site_fract_occupancy
 Al  Al1  1  0.75000  0.84309  0.93074  1
 Al  Al2  1  0.25000  0.15691  0.06926  1
 Al  Al3  1  0.25000  0.65691  0.43074  1
 Al  Al4  1  0.75000  0.34309  0.56926  1
 Au  Au1  1  0.25000  0.79114  0.11159  1
 Au  Au2  1  0.75000  0.20886  0.88841  1
 Au  Au3  1  0.75000  0.70886  0.61159  1
 Au  Au4  1  0.25000  0.29114  0.38841  1
 Ca  Ca1  1  0.25000  0.01542  0.68282  1
 Ca  Ca2  1  0.25000  0.51542  0.81718  1
 Ca  Ca3  1  0.75000  0.98458  0.31718  1
 Ca  Ca4  1  0.75000  0.48458  0.18282  1
