CIF file written using JARVIS-Tools package.
data_VH10SO10
_symmetry_space_group_name_H-M  'Pmn2_1'
_cell_length_a       7.53667
_cell_length_b       9.12213
_cell_length_c       5.87355
_cell_angle_alpha    90
_cell_angle_beta     90
_cell_angle_gamma    90

_symmetry_Int_Tables_number  31
_chemical_formula_structural  VH10SO10
_chemical_formula_sum  V2H20S2O20
_cell_volume  403.8092371604426
_cell_formula_units_Z  2
loop_
  _symmetry_equiv_pos_site_id
 _symmetry_equiv_pos_as_xyz
 1  'x, y, z'
loop_
 _atom_site_type_symbol
 _atom_site_label
 _atom_site_symmetry_multiplicity
 _atom_site_fract_x
 _atom_site_fract_y
 _atom_site_fract_z
 _atom_site_fract_occupancy
 H  H1  1  0.24575  0.85910  0.69833  1
 H  H2  1  0.50000  0.92298  0.12514  1
 H  H3  1  0.00000  0.07702  0.62514  1
 H  H4  1  0.50000  0.76133  0.02429  1
 H  H5  1  0.00000  0.23867  0.52429  1
 H  H6  1  0.67325  0.97424  0.51392  1
 H  H7  1  0.82675  0.02576  0.01392  1
 H  H8  1  0.17325  0.02576  0.01392  1
 H  H9  1  0.75425  0.85910  0.69833  1
 H  H10  1  0.15328  0.50997  0.80460  1
 H  H11  1  0.32675  0.97424  0.51392  1
 H  H12  1  0.25425  0.14090  0.19833  1
 H  H13  1  0.80284  0.62375  0.30369  1
 H  H14  1  0.19716  0.62375  0.30369  1
 H  H15  1  0.69716  0.37625  0.80369  1
 H  H16  1  0.30284  0.37625  0.80369  1
 H  H17  1  0.65328  0.49003  0.30460  1
 H  H18  1  0.34672  0.49003  0.30460  1
 H  H19  1  0.84672  0.50997  0.80460  1
 H  H20  1  0.74575  0.14090  0.19833  1
 O  O1  1  0.00000  0.17999  0.66732  1
 O  O2  1  0.19680  0.13244  0.04373  1
 O  O3  1  0.80320  0.13244  0.04373  1
 O  O4  1  0.30320  0.86756  0.54373  1
 O  O5  1  0.50000  0.31448  0.69032  1
 O  O6  1  0.50000  0.82001  0.16732  1
 O  O7  1  0.00000  0.33309  0.26975  1
 O  O8  1  0.50000  0.66691  0.76975  1
 O  O9  1  0.31092  0.58626  0.36997  1
 O  O10  1  0.69680  0.86756  0.54373  1
 O  O11  1  0.81092  0.41374  0.86997  1
 O  O12  1  0.00000  0.68552  0.19032  1
 O  O13  1  0.66122  0.14518  0.44469  1
 O  O14  1  0.33878  0.14518  0.44469  1
 O  O15  1  0.00000  0.65257  0.77455  1
 O  O16  1  0.83878  0.85482  0.94469  1
 O  O17  1  0.16122  0.85482  0.94469  1
 O  O18  1  0.50000  0.34743  0.27455  1
 O  O19  1  0.68908  0.58626  0.36997  1
 O  O20  1  0.18908  0.41374  0.86997  1
 S  S1  1  0.50000  0.24034  0.46545  1
 S  S2  1  0.00000  0.75966  0.96545  1
 V  V1  1  0.00000  0.28232  0.00331  1
 V  V2  1  0.50000  0.71768  0.50331  1
