data_image0
_chemical_formula_structural       Ba3Cd2Sb4
_chemical_formula_sum              "Ba3 Cd2 Sb4"
_cell_length_a       4.91954
_cell_length_b       7.78736
_cell_length_c       9.35832
_cell_angle_alpha    111.31
_cell_angle_beta     105.239
_cell_angle_gamma    90

_space_group_name_H-M_alt    "P 1"
_space_group_IT_number       1

loop_
  _space_group_symop_operation_xyz
  'x, y, z'

loop_
  _atom_site_type_symbol
  _atom_site_label
  _atom_site_symmetry_multiplicity
  _atom_site_fract_x
  _atom_site_fract_y
  _atom_site_fract_z
  _atom_site_occupancy
  Ba  Ba1       1.0  0.00000  0.00000  0.00000  1.0000
  Ba  Ba2       1.0  0.14200  0.59000  0.28400  1.0000
  Ba  Ba3       1.0  0.85800  0.41000  0.71600  1.0000
  Cd  Cd1       1.0  0.66800  0.97200  0.33600  1.0000
  Cd  Cd2       1.0  0.33200  0.02840  0.66400  1.0000
  Sb  Sb1       1.0  0.50200  0.68600  0.00420  1.0000
  Sb  Sb2       1.0  0.20800  0.19700  0.41500  1.0000
  Sb  Sb3       1.0  0.79200  0.80300  0.58500  1.0000
  Sb  Sb4       1.0  0.49800  0.31400  0.99600  1.0000
