CIF file written using JARVIS-Tools package.
data_PdSeO3
_symmetry_space_group_name_H-M  'P2_1/m'
_cell_length_a       3.93182
_cell_length_b       5.98411
_cell_length_c       6.52708
_cell_angle_alpha    89.9944
_cell_angle_beta     89.9989
_cell_angle_gamma    94.2237

_symmetry_Int_Tables_number  11
_chemical_formula_structural  PdSeO3
_chemical_formula_sum  Pd2Se2O6
_cell_volume  153.1553372851065
_cell_formula_units_Z  2
loop_
  _symmetry_equiv_pos_site_id
 _symmetry_equiv_pos_as_xyz
 1  'x, y, z'
loop_
 _atom_site_type_symbol
 _atom_site_label
 _atom_site_symmetry_multiplicity
 _atom_site_fract_x
 _atom_site_fract_y
 _atom_site_fract_z
 _atom_site_fract_occupancy
 O  O1  1  0.28203  0.29488  0.04130  1
 O  O2  1  0.28658  0.94255  0.75000  1
 O  O3  1  0.71797  0.70512  0.95870  1
 O  O4  1  0.71794  0.70514  0.54129  1
 O  O5  1  0.71342  0.05745  0.25000  1
 O  O6  1  0.28206  0.29486  0.45871  1
 Pd  Pd1  1  -0.00000  -0.00000  0.00000  1
 Pd  Pd2  1  -0.00000  0.00000  0.50000  1
 Se  Se1  1  0.45441  0.66107  0.75001  1
 Se  Se2  1  0.54559  0.33893  0.24999  1
