CIF file written using JARVIS-Tools package.
data_Sr4Sb2O
_symmetry_space_group_name_H-M  'I4/mmm'
_cell_length_a       4.97803
_cell_length_b       9.30502
_cell_length_c       7.03997
_cell_angle_alpha    112.228
_cell_angle_beta     44.9998
_cell_angle_gamma    105.516

_symmetry_Int_Tables_number  139
_chemical_formula_structural  Sr4Sb2O
_chemical_formula_sum  Sr4Sb2O
_cell_volume  213.4484139230369
_cell_formula_units_Z  1
loop_
  _symmetry_equiv_pos_site_id
 _symmetry_equiv_pos_as_xyz
 1  'x, y, z'
loop_
 _atom_site_type_symbol
 _atom_site_label
 _atom_site_symmetry_multiplicity
 _atom_site_fract_x
 _atom_site_fract_y
 _atom_site_fract_z
 _atom_site_fract_occupancy
 O  O1  1  0.99828  0.99926  0.00049  1
 Sb  Sb1  1  0.99826  0.72297  0.36235  1
 Sb  Sb2  1  0.99827  0.27580  0.63877  1
 Sr  Sr1  1  0.99825  0.66314  0.83244  1
 Sr  Sr2  1  0.49828  0.99937  0.50055  1
 Sr  Sr3  1  0.49828  0.99937  0.00055  1
 Sr  Sr4  1  0.99826  0.33573  0.16874  1
