CIF file written using JARVIS-Tools package.
data_Co5Se4Cl2O12
_symmetry_space_group_name_H-M  'P-1'
_cell_length_a       6.55076
_cell_length_b       7.58356
_cell_length_c       7.76498
_cell_angle_alpha    66.6393
_cell_angle_beta     71.7808
_cell_angle_gamma    81.4601

_symmetry_Int_Tables_number  2
_chemical_formula_structural  Co5Se4Cl2O12
_chemical_formula_sum  Co5Se4Cl2O2
_cell_volume  336.24205434455286
_cell_formula_units_Z  1
loop_
  _symmetry_equiv_pos_site_id
 _symmetry_equiv_pos_as_xyz
 1  'x, y, z'
loop_
 _atom_site_type_symbol
 _atom_site_label
 _atom_site_symmetry_multiplicity
 _atom_site_fract_x
 _atom_site_fract_y
 _atom_site_fract_z
 _atom_site_fract_occupancy
 Cl  Cl1  1  0.18913  0.67142  0.00723  1
 Cl  Cl2  1  0.81087  0.32858  0.99277  1
 Co  Co1  1  0.11760  0.69725  0.42954  1
 Co  Co2  1  0.88240  0.30275  0.57046  1
 Co  Co3  1  0.00000  0.00000  0.00000  1
 Co  Co4  1  0.67641  0.12316  0.34958  1
 Co  Co5  1  0.32359  0.87684  0.65042  1
 O  O1  1  0.04137  0.80379  0.63592  1
 O  O2  1  0.82724  0.04984  0.79678  1
 O  O3  1  0.95863  0.19621  0.36408  1
 O  O4  1  0.83622  0.58640  0.45981  1
 O  O5  1  0.58284  0.30648  0.50715  1
 O  O6  1  0.16378  0.41360  0.54019  1
 O  O7  1  0.35920  0.10649  0.38426  1
 O  O8  1  0.41716  0.69352  0.49285  1
 O  O9  1  0.73484  0.92323  0.21727  1
 O  O10  1  0.26516  0.07677  0.78273  1
 O  O11  1  0.17276  0.95016  0.20322  1
 O  O12  1  0.64080  0.89351  0.61574  1
 Se  Se1  1  0.21601  0.16979  0.21372  1
 Se  Se2  1  0.78399  0.83021  0.78628  1
 Se  Se3  1  0.34373  0.31559  0.68404  1
 Se  Se4  1  0.65627  0.68441  0.31596  1
