CIF file written using JARVIS-Tools package.
data_Li5MnO3F
_symmetry_space_group_name_H-M  'C2/m'
_cell_length_a       6.51788
_cell_length_b       6.51788
_cell_length_c       4.72199
_cell_angle_alpha    80.2433
_cell_angle_beta     80.2433
_cell_angle_gamma    89.2217

_symmetry_Int_Tables_number  12
_chemical_formula_structural  Li5MnO3F
_chemical_formula_sum  Li0Mn2O6F2
_cell_volume  194.8188253395069
_cell_formula_units_Z  2
loop_
  _symmetry_equiv_pos_site_id
 _symmetry_equiv_pos_as_xyz
 1  'x, y, z'
loop_
 _atom_site_type_symbol
 _atom_site_label
 _atom_site_symmetry_multiplicity
 _atom_site_fract_x
 _atom_site_fract_y
 _atom_site_fract_z
 _atom_site_fract_occupancy
 F  F1  1  0.47700  0.77300  0.62500  1
 F  F2  1  0.77300  0.47700  0.62500  1
 Li  Li1  1  0.70428  0.28850  0.00680  1
 Li  Li2  1  0.28850  0.70428  0.00680  1
 Li  Li3  1  0.54572  0.96150  0.24320  1
 Li  Li4  1  0.96150  0.54572  0.24320  1
 Li  Li5  1  0.76950  0.76950  0.72754  1
 Li  Li6  1  0.79302  0.19705  0.49666  1
 Li  Li7  1  0.19705  0.79302  0.49666  1
 Li  Li8  1  0.45698  0.05295  0.75334  1
 Li  Li9  1  0.05295  0.45698  0.75334  1
 Li  Li10  1  0.48050  0.48050  0.52246  1
 Mn  Mn1  1  0.25646  0.25646  0.24874  1
 Mn  Mn2  1  -0.00646  -0.00646  0.00126  1
 O  O1  1  0.98113  0.26887  0.12500  1
 O  O2  1  0.26887  0.98113  0.12500  1
 O  O3  1  0.22354  0.51841  0.37399  1
 O  O4  1  0.51841  0.22354  0.37399  1
 O  O5  1  0.73159  0.02646  0.87601  1
 O  O6  1  0.02646  0.73159  0.87601  1
