CIF file written using JARVIS-Tools package.
data_KCrO2
_symmetry_space_group_name_H-M  'P6_3/mmc'
_cell_length_a       3.08049
_cell_length_b       3.08049
_cell_length_c       11.8408
_cell_angle_alpha    90
_cell_angle_beta     90
_cell_angle_gamma    119.999

_symmetry_Int_Tables_number  194
_chemical_formula_structural  KCrO2
_chemical_formula_sum  K2Cr2O4
_cell_volume  97.30874896040473
_cell_formula_units_Z  2
loop_
  _symmetry_equiv_pos_site_id
 _symmetry_equiv_pos_as_xyz
 1  'x, y, z'
loop_
 _atom_site_type_symbol
 _atom_site_label
 _atom_site_symmetry_multiplicity
 _atom_site_fract_x
 _atom_site_fract_y
 _atom_site_fract_z
 _atom_site_fract_occupancy
 Cr  Cr1  1  0.00000  0.00000  0.50000  1
 Cr  Cr2  1  0.00000  0.00000  0.00000  1
 K  K1  1  0.66670  0.33330  0.75000  1
 K  K2  1  0.33330  0.66670  0.25000  1
 O  O1  1  0.66666  0.33334  0.08501  1
 O  O2  1  0.33334  0.66666  0.91499  1
 O  O3  1  0.33334  0.66666  0.58501  1
 O  O4  1  0.66666  0.33334  0.41499  1
