CIF file written using JARVIS-Tools package.
data_PC2S2N3
_symmetry_space_group_name_H-M  'P-1'
_cell_length_a       8.13031
_cell_length_b       7.75091
_cell_length_c       9.44206
_cell_angle_alpha    99.2314
_cell_angle_beta     104.737
_cell_angle_gamma    96.1848

_symmetry_Int_Tables_number  2
_chemical_formula_structural  PC2S2N3
_chemical_formula_sum  P4C8S8N2
_cell_volume  561.0681360427607
_cell_formula_units_Z  4
loop_
  _symmetry_equiv_pos_site_id
 _symmetry_equiv_pos_as_xyz
 1  'x, y, z'
loop_
 _atom_site_type_symbol
 _atom_site_label
 _atom_site_symmetry_multiplicity
 _atom_site_fract_x
 _atom_site_fract_y
 _atom_site_fract_z
 _atom_site_fract_occupancy
 C  C1  1  0.93063  0.25470  0.87783  1
 C  C2  1  0.79865  -0.00067  0.26952  1
 C  C3  1  0.20135  0.00067  0.73048  1
 C  C4  1  0.57837  0.43453  0.18551  1
 C  C5  1  0.06937  0.74530  0.12217  1
 C  C6  1  0.41706  0.22268  0.47032  1
 C  C7  1  0.42163  0.56547  0.81449  1
 C  C8  1  0.58294  0.77732  0.52968  1
 N  N1  1  0.95152  0.68512  0.42272  1
 N  N2  1  0.26157  0.18999  0.43126  1
 N  N3  1  0.26781  0.55985  0.79414  1
 N  N4  1  0.97835  0.62827  0.15014  1
 N  N5  1  0.04848  0.31488  0.57728  1
 N  N6  1  0.02165  0.37173  0.84986  1
 N  N7  1  0.05286  0.38698  0.30346  1
 N  N8  1  0.05699  0.93195  0.65911  1
 N  N9  1  0.73843  0.81001  0.56874  1
 N  N10  1  0.94714  0.61302  0.69654  1
 N  N11  1  0.94301  0.06805  0.34089  1
 N  N12  1  0.73219  0.44015  0.20586  1
 P  P1  1  0.07357  0.25796  0.41819  1
 P  P2  1  0.92643  0.74204  0.58181  1
 P  P3  1  0.93436  0.53528  0.28473  1
 P  P4  1  0.06564  0.46472  0.71527  1
 S  S1  1  0.17926  0.89180  0.07566  1
 S  S2  1  0.38203  0.74676  0.48128  1
 S  S3  1  0.61797  0.25324  0.51872  1
 S  S4  1  0.37902  0.41611  0.15542  1
 S  S5  1  0.61598  0.89927  0.17812  1
 S  S6  1  0.62098  0.58389  0.84458  1
 S  S7  1  0.82074  0.10820  0.92434  1
 S  S8  1  0.38402  0.10073  0.82188  1
