CIF file written using JARVIS-Tools package.
data_MgGa
_symmetry_space_group_name_H-M  'F-43m'
_cell_length_a       6.26575
_cell_length_b       6.26575
_cell_length_c       6.26575
_cell_angle_alpha    90
_cell_angle_beta     90
_cell_angle_gamma    90

_symmetry_Int_Tables_number  216
_chemical_formula_structural  MgGa
_chemical_formula_sum  Mg4Ga4
_cell_volume  245.9910338276226
_cell_formula_units_Z  4
loop_
  _symmetry_equiv_pos_site_id
 _symmetry_equiv_pos_as_xyz
 1  'x, y, z'
loop_
 _atom_site_type_symbol
 _atom_site_label
 _atom_site_symmetry_multiplicity
 _atom_site_fract_x
 _atom_site_fract_y
 _atom_site_fract_z
 _atom_site_fract_occupancy
 Ga  Ga1  1  0.50000  0.00000  0.50000  1
 Ga  Ga2  1  0.50000  0.50000  0.00000  1
 Ga  Ga3  1  0.00000  0.00000  0.00000  1
 Ga  Ga4  1  0.00000  0.50000  0.50000  1
 Mg  Mg1  1  0.25000  0.25000  0.75000  1
 Mg  Mg2  1  0.25000  0.75000  0.25000  1
 Mg  Mg3  1  0.75000  0.25000  0.25000  1
 Mg  Mg4  1  0.75000  0.75000  0.75000  1
