CIF file written using JARVIS-Tools package.
data_In2Se3
_symmetry_space_group_name_H-M  'P-3m1'
_cell_length_a       4.01021
_cell_length_b       4.01018
_cell_length_c       9.51467
_cell_angle_alpha    89.9999
_cell_angle_beta     90.0004
_cell_angle_gamma    120

_symmetry_Int_Tables_number  164
_chemical_formula_structural  In2Se3
_chemical_formula_sum  In2Se3
_cell_volume  132.5119811904132
_cell_formula_units_Z  1
loop_
  _symmetry_equiv_pos_site_id
 _symmetry_equiv_pos_as_xyz
 1  'x, y, z'
loop_
 _atom_site_type_symbol
 _atom_site_label
 _atom_site_symmetry_multiplicity
 _atom_site_fract_x
 _atom_site_fract_y
 _atom_site_fract_z
 _atom_site_fract_occupancy
 In  In1  1  0.66668  0.33334  0.19730  1
 In  In2  1  0.33332  0.66666  0.80270  1
 Se  Se1  1  0.00000  0.00000  0.00000  1
 Se  Se2  1  0.66664  0.33332  0.66103  1
 Se  Se3  1  0.33336  0.66668  0.33897  1
