CIF file written using JARVIS-Tools package.
data_Li5Ti2V3O10
_symmetry_space_group_name_H-M  'P1'
_cell_length_a       5.09664
_cell_length_b       5.02444
_cell_length_c       7.69984
_cell_angle_alpha    71.4076
_cell_angle_beta     71.7179
_cell_angle_gamma    80.4378

_symmetry_Int_Tables_number  1
_chemical_formula_structural  Li5Ti2V3O10
_chemical_formula_sum  Li5Ti2V3O0
_cell_volume  176.97278103899052
_cell_formula_units_Z  1
loop_
  _symmetry_equiv_pos_site_id
 _symmetry_equiv_pos_as_xyz
 1  'x, y, z'
loop_
 _atom_site_type_symbol
 _atom_site_label
 _atom_site_symmetry_multiplicity
 _atom_site_fract_x
 _atom_site_fract_y
 _atom_site_fract_z
 _atom_site_fract_occupancy
 Li  Li1  1  0.49762  0.77795  0.41419  1
 Li  Li2  1  0.52251  0.59724  0.77824  1
 Li  Li3  1  0.99689  0.50359  0.50110  1
 Li  Li4  1  0.49714  0.22070  0.59117  1
 Li  Li5  1  0.47342  0.40114  0.22842  1
 O  O1  1  0.75885  0.23495  0.76709  1
 O  O2  1  0.75272  0.44414  0.34303  1
 O  O3  1  0.23733  0.55879  0.66423  1
 O  O4  1  0.23119  0.75571  0.24891  1
 O  O5  1  0.73254  0.65994  0.94594  1
 O  O6  1  0.76841  0.86604  0.54859  1
 O  O7  1  0.75471  0.04343  0.14756  1
 O  O8  1  0.22366  0.13799  0.45654  1
 O  O9  1  0.26128  0.34632  0.05679  1
 O  O10  1  0.23718  0.96412  0.85369  1
 Ti  Ti1  1  0.98987  0.10994  0.30295  1
 Ti  Ti2  1  0.00500  0.89560  0.69991  1
 V  V1  1  0.99802  0.68205  0.09576  1
 V  V2  1  0.48441  -0.00267  0.00682  1
 V  V3  1  0.99649  0.32234  0.91004  1
