CIF file written using JARVIS-Tools package.
data_Cd3B2O6
_symmetry_space_group_name_H-M  'Pnnm'
_cell_length_a       4.82721
_cell_length_b       6.04677
_cell_length_c       9.11187
_cell_angle_alpha    90
_cell_angle_beta     90
_cell_angle_gamma    90

_symmetry_Int_Tables_number  58
_chemical_formula_structural  Cd3B2O6
_chemical_formula_sum  Cd6B4O2
_cell_volume  265.9666483901196
_cell_formula_units_Z  2
loop_
  _symmetry_equiv_pos_site_id
 _symmetry_equiv_pos_as_xyz
 1  'x, y, z'
loop_
 _atom_site_type_symbol
 _atom_site_label
 _atom_site_symmetry_multiplicity
 _atom_site_fract_x
 _atom_site_fract_y
 _atom_site_fract_z
 _atom_site_fract_occupancy
 B  B1  1  0.46649  0.73988  0.00000  1
 B  B2  1  0.53351  0.26012  0.00000  1
 B  B3  1  0.96649  0.76012  0.50000  1
 B  B4  1  0.03351  0.23988  0.50000  1
 Cd  Cd1  1  0.00000  0.00000  0.00000  1
 Cd  Cd2  1  0.50000  0.50000  0.50000  1
 Cd  Cd3  1  0.50000  0.00000  0.68921  1
 Cd  Cd4  1  0.00000  0.50000  0.81079  1
 Cd  Cd5  1  0.50000  0.00000  0.31079  1
 Cd  Cd6  1  0.00000  0.50000  0.18921  1
 O  O1  1  0.82187  0.71790  0.36966  1
 O  O2  1  0.74211  0.67872  0.00000  1
 O  O3  1  0.75789  0.17872  0.50000  1
 O  O4  1  0.24211  0.82128  0.50000  1
 O  O5  1  0.25789  0.32128  0.00000  1
 O  O6  1  0.67813  0.21790  0.13034  1
 O  O7  1  0.17813  0.28210  0.63034  1
 O  O8  1  0.82187  0.71790  0.63034  1
 O  O9  1  0.32187  0.78210  0.13034  1
 O  O10  1  0.67813  0.21790  0.86966  1
 O  O11  1  0.32187  0.78210  0.86966  1
 O  O12  1  0.17813  0.28210  0.36966  1
