CIF file written using JARVIS-Tools package.
data_BaNd2NiO5
_symmetry_space_group_name_H-M  'Immm'
_cell_length_a       3.82297
_cell_length_b       5.96377
_cell_length_c       6.88145
_cell_angle_alpha    115.678
_cell_angle_beta     106.128
_cell_angle_gamma    89.9995

_symmetry_Int_Tables_number  71
_chemical_formula_structural  BaNd2NiO5
_chemical_formula_sum  BaNd2NiO5
_cell_volume  134.51407543228936
_cell_formula_units_Z  1
loop_
  _symmetry_equiv_pos_site_id
 _symmetry_equiv_pos_as_xyz
 1  'x, y, z'
loop_
 _atom_site_type_symbol
 _atom_site_label
 _atom_site_symmetry_multiplicity
 _atom_site_fract_x
 _atom_site_fract_y
 _atom_site_fract_z
 _atom_site_fract_occupancy
 Ba  Ba1  1  0.50000  0.50000  0.00000  1
 Nd  Nd1  1  0.29857  0.79857  0.59714  1
 Nd  Nd2  1  0.70143  0.20143  0.40286  1
 Ni  Ni1  1  -0.00000  0.00000  0.00000  1
 O  O1  1  0.50000  0.00000  0.00000  1
 O  O2  1  0.14444  0.90182  0.28888  1
 O  O3  1  0.85556  0.09818  0.71112  1
 O  O4  1  0.85556  0.61294  0.71112  1
 O  O5  1  0.14444  0.38706  0.28888  1
