CIF file written using JARVIS-Tools package.
data_Na2ZnGe
_symmetry_space_group_name_H-M  'Cmcm'
_cell_length_a       5.48817
_cell_length_b       5.8693
_cell_length_c       5.86929
_cell_angle_alpha    101.995
_cell_angle_beta     90
_cell_angle_gamma    90

_symmetry_Int_Tables_number  63
_chemical_formula_structural  Na2ZnGe
_chemical_formula_sum  Na4Zn2Ge2
_cell_volume  184.93143064520223
_cell_formula_units_Z  2
loop_
  _symmetry_equiv_pos_site_id
 _symmetry_equiv_pos_as_xyz
 1  'x, y, z'
loop_
 _atom_site_type_symbol
 _atom_site_label
 _atom_site_symmetry_multiplicity
 _atom_site_fract_x
 _atom_site_fract_y
 _atom_site_fract_z
 _atom_site_fract_occupancy
 Ge  Ge1  1  0.75000  0.22542  0.22542  1
 Ge  Ge2  1  0.25000  0.77458  0.77458  1
 Na  Na1  1  0.75000  0.03275  0.68034  1
 Na  Na2  1  0.25000  0.96725  0.31966  1
 Na  Na3  1  0.25000  0.31966  0.96725  1
 Na  Na4  1  0.75000  0.68034  0.03275  1
 Zn  Zn1  1  0.00000  0.50000  0.50000  1
 Zn  Zn2  1  0.50000  0.50000  0.50000  1
