CIF file written using JARVIS-Tools package.
data_FeB2O4
_symmetry_space_group_name_H-M  'C2/c'
_cell_length_a       5.5708
_cell_length_b       5.5708
_cell_length_c       4.44137
_cell_angle_alpha    73.3514
_cell_angle_beta     73.3514
_cell_angle_gamma    59.8324

_symmetry_Int_Tables_number  15
_chemical_formula_structural  FeB2O4
_chemical_formula_sum  Fe2B4O8
_cell_volume  112.46641754368552
_cell_formula_units_Z  2
loop_
  _symmetry_equiv_pos_site_id
 _symmetry_equiv_pos_as_xyz
 1  'x, y, z'
loop_
 _atom_site_type_symbol
 _atom_site_label
 _atom_site_symmetry_multiplicity
 _atom_site_fract_x
 _atom_site_fract_y
 _atom_site_fract_z
 _atom_site_fract_occupancy
 B  B1  1  0.92197  0.70952  0.37099  1
 B  B2  1  0.29048  0.07803  0.12901  1
 B  B3  1  0.07803  0.29048  0.62901  1
 B  B4  1  0.70952  0.92197  0.87099  1
 Fe  Fe1  1  0.37153  0.62847  0.75000  1
 Fe  Fe2  1  0.62847  0.37153  0.25000  1
 O  O1  1  0.49783  0.79971  0.02083  1
 O  O2  1  0.20029  0.50217  0.47917  1
 O  O3  1  0.50217  0.20029  0.97917  1
 O  O4  1  0.79971  0.49783  0.52083  1
 O  O5  1  0.95358  0.77234  0.02725  1
 O  O6  1  0.22766  0.04642  0.47275  1
 O  O7  1  0.04642  0.22766  0.97275  1
 O  O8  1  0.77234  0.95358  0.52725  1
