CIF file written using JARVIS-Tools package.
data_Sm3Si2ClO8
_symmetry_space_group_name_H-M  'Pnma'
_cell_length_a       6.29594
_cell_length_b       7.04585
_cell_length_c       18.065
_cell_angle_alpha    90
_cell_angle_beta     90
_cell_angle_gamma    90

_symmetry_Int_Tables_number  62
_chemical_formula_structural  Sm3Si2ClO8
_chemical_formula_sum  Sm2Si8Cl4O32
_cell_volume  801.3678885956411
_cell_formula_units_Z  4
loop_
  _symmetry_equiv_pos_site_id
 _symmetry_equiv_pos_as_xyz
 1  'x, y, z'
loop_
 _atom_site_type_symbol
 _atom_site_label
 _atom_site_symmetry_multiplicity
 _atom_site_fract_x
 _atom_site_fract_y
 _atom_site_fract_z
 _atom_site_fract_occupancy
 Cl  Cl1  1  0.25634  0.05346  0.75000  1
 Cl  Cl2  1  0.24366  0.55346  0.75000  1
 Cl  Cl3  1  0.74366  0.94654  0.25000  1
 Cl  Cl4  1  0.75634  0.44654  0.25000  1
 O  O1  1  0.52942  0.65969  0.11850  1
 O  O2  1  0.78629  0.51432  0.96966  1
 O  O3  1  0.78629  0.51432  0.53034  1
 O  O4  1  0.28629  0.98568  0.46966  1
 O  O5  1  0.71371  0.01432  0.96966  1
 O  O6  1  0.21371  0.48568  0.03034  1
 O  O7  1  0.22171  0.46208  0.32537  1
 O  O8  1  0.72171  0.03792  0.67463  1
 O  O9  1  0.27829  0.96208  0.17463  1
 O  O10  1  0.28629  0.98568  0.03034  1
 O  O11  1  0.77829  0.53792  0.82537  1
 O  O12  1  0.77829  0.53792  0.67463  1
 O  O13  1  0.72171  0.03792  0.82537  1
 O  O14  1  0.22171  0.46208  0.17463  1
 O  O15  1  0.54939  0.30037  0.40450  1
 O  O16  1  0.04939  0.19963  0.59550  1
 O  O17  1  0.95061  0.80037  0.09550  1
 O  O18  1  0.45061  0.69963  0.90450  1
 O  O19  1  0.45061  0.69963  0.59550  1
 O  O20  1  0.95061  0.80037  0.40450  1
 O  O21  1  0.04939  0.19963  0.90450  1
 O  O22  1  0.54939  0.30037  0.09550  1
 O  O23  1  0.97058  0.15969  0.11850  1
 O  O24  1  0.52942  0.65969  0.38150  1
 O  O25  1  0.71371  0.01432  0.53034  1
 O  O26  1  0.02942  0.84031  0.61850  1
 O  O27  1  0.21371  0.48568  0.46966  1
 O  O28  1  0.27829  0.96208  0.32537  1
 O  O29  1  0.47058  0.34031  0.61850  1
 O  O30  1  0.97058  0.15969  0.38150  1
 O  O31  1  0.02942  0.84031  0.88150  1
 O  O32  1  0.47058  0.34031  0.88150  1
 Si  Si1  1  0.87796  0.02754  0.90042  1
 Si  Si2  1  0.12204  0.97246  0.40042  1
 Si  Si3  1  0.62204  0.52754  0.59958  1
 Si  Si4  1  0.37796  0.47246  0.09958  1
 Si  Si5  1  0.87796  0.02754  0.59958  1
 Si  Si6  1  0.62204  0.52754  0.90042  1
 Si  Si7  1  0.12204  0.97246  0.09958  1
 Si  Si8  1  0.37796  0.47246  0.40042  1
 Sm  Sm1  1  0.62648  0.98156  0.40840  1
 Sm  Sm2  1  0.38368  0.70048  0.25000  1
 Sm  Sm3  1  0.88368  0.79952  0.75000  1
 Sm  Sm4  1  0.87352  0.48156  0.09160  1
 Sm  Sm5  1  0.37352  0.01844  0.90840  1
 Sm  Sm6  1  0.61632  0.29952  0.75000  1
 Sm  Sm7  1  0.12648  0.51844  0.59160  1
 Sm  Sm8  1  0.12648  0.51844  0.90840  1
 Sm  Sm9  1  0.62648  0.98156  0.09160  1
 Sm  Sm10  1  0.37352  0.01844  0.59160  1
 Sm  Sm11  1  0.87352  0.48156  0.40840  1
 Sm  Sm12  1  0.11632  0.20048  0.25000  1
