CIF file written using JARVIS-Tools package.
data_CrO2
_symmetry_space_group_name_H-M  'R-3m'
_cell_length_a       4.74923
_cell_length_b       4.74923
_cell_length_c       4.74923
_cell_angle_alpha    35.5517
_cell_angle_beta     35.5517
_cell_angle_gamma    35.5517

_symmetry_Int_Tables_number  166
_chemical_formula_structural  CrO2
_chemical_formula_sum  CrO2
_cell_volume  32.36548940591973
_cell_formula_units_Z  1
loop_
  _symmetry_equiv_pos_site_id
 _symmetry_equiv_pos_as_xyz
 1  'x, y, z'
loop_
 _atom_site_type_symbol
 _atom_site_label
 _atom_site_symmetry_multiplicity
 _atom_site_fract_x
 _atom_site_fract_y
 _atom_site_fract_z
 _atom_site_fract_occupancy
 Cr  Cr1  1  0.50000  0.50000  0.50000  1
 O  O1  1  0.76251  0.76251  0.76251  1
 O  O2  1  0.23749  0.23749  0.23749  1
