CIF file written using JARVIS-Tools package.
data_BaZr2Tc
_symmetry_space_group_name_H-M  'P4/mmm'
_cell_length_a       3.34279
_cell_length_b       3.34279
_cell_length_c       9.4284
_cell_angle_alpha    90
_cell_angle_beta     90
_cell_angle_gamma    90

_symmetry_Int_Tables_number  123
_chemical_formula_structural  BaZr2Tc
_chemical_formula_sum  BaZr2Tc
_cell_volume  105.35540195452428
_cell_formula_units_Z  1
loop_
  _symmetry_equiv_pos_site_id
 _symmetry_equiv_pos_as_xyz
 1  'x, y, z'
loop_
 _atom_site_type_symbol
 _atom_site_label
 _atom_site_symmetry_multiplicity
 _atom_site_fract_x
 _atom_site_fract_y
 _atom_site_fract_z
 _atom_site_fract_occupancy
 Ba  Ba1  1  0.50000  0.50000  0.00000  1
 Tc  Tc1  1  0.50000  0.50000  0.50000  1
 Zr  Zr1  1  0.00000  0.00000  0.66196  1
 Zr  Zr2  1  0.00000  0.00000  0.33804  1
