CIF file written using JARVIS-Tools package.
data_CrSbO4
_symmetry_space_group_name_H-M  'Cmmm'
_cell_length_a       6.44211
_cell_length_b       6.58923
_cell_length_c       3.12612
_cell_angle_alpha    90
_cell_angle_beta     90
_cell_angle_gamma    90

_symmetry_Int_Tables_number  65
_chemical_formula_structural  CrSbO4
_chemical_formula_sum  Cr2Sb2O8
_cell_volume  132.6988740843658
_cell_formula_units_Z  2
loop_
  _symmetry_equiv_pos_site_id
 _symmetry_equiv_pos_as_xyz
 1  'x, y, z'
loop_
 _atom_site_type_symbol
 _atom_site_label
 _atom_site_symmetry_multiplicity
 _atom_site_fract_x
 _atom_site_fract_y
 _atom_site_fract_z
 _atom_site_fract_occupancy
 Cr  Cr1  1  0.50000  0.00000  0.50000  1
 Cr  Cr2  1  0.00000  0.50000  0.50000  1
 O  O1  1  0.00000  0.19735  0.50000  1
 O  O2  1  0.00000  0.80265  0.50000  1
 O  O3  1  0.30865  0.00000  0.00000  1
 O  O4  1  0.69135  0.00000  0.00000  1
 O  O5  1  0.50000  0.69735  0.50000  1
 O  O6  1  0.50000  0.30265  0.50000  1
 O  O7  1  0.80865  0.50000  0.00000  1
 O  O8  1  0.19135  0.50000  0.00000  1
 Sb  Sb1  1  0.00000  0.00000  0.00000  1
 Sb  Sb2  1  0.50000  0.50000  0.00000  1
