CIF file written using JARVIS-Tools package.
data_BeVPd4
_symmetry_space_group_name_H-M  'F-43m'
_cell_length_a       5.10508
_cell_length_b       5.10508
_cell_length_c       5.10508
_cell_angle_alpha    60
_cell_angle_beta     60
_cell_angle_gamma    60

_symmetry_Int_Tables_number  216
_chemical_formula_structural  BeVPd4
_chemical_formula_sum  BeVPd4
_cell_volume  94.07913396544382
_cell_formula_units_Z  1
loop_
  _symmetry_equiv_pos_site_id
 _symmetry_equiv_pos_as_xyz
 1  'x, y, z'
loop_
 _atom_site_type_symbol
 _atom_site_label
 _atom_site_symmetry_multiplicity
 _atom_site_fract_x
 _atom_site_fract_y
 _atom_site_fract_z
 _atom_site_fract_occupancy
 Be  Be1  1  0.00000  0.00000  0.00000  1
 Pd  Pd1  1  0.37495  0.37495  0.37495  1
 Pd  Pd2  1  0.37495  0.87514  0.37495  1
 Pd  Pd3  1  0.37495  0.37495  0.87514  1
 Pd  Pd4  1  0.87514  0.37495  0.37495  1
 V  V1  1  0.75000  0.75000  0.75000  1
