CIF file written using JARVIS-Tools package.
data_NaFeBP2H3O10
_symmetry_space_group_name_H-M  'C2/c'
_cell_length_a       6.57464
_cell_length_b       6.57464
_cell_length_c       8.98938
_cell_angle_alpha    69.0766
_cell_angle_beta     69.0766
_cell_angle_gamma    75.2948

_symmetry_Int_Tables_number  15
_chemical_formula_structural  NaFeBP2H3O10
_chemical_formula_sum  Na2Fe2B2P4H6O20
_cell_volume  335.4454852864019
_cell_formula_units_Z  2
loop_
  _symmetry_equiv_pos_site_id
 _symmetry_equiv_pos_as_xyz
 1  'x, y, z'
loop_
 _atom_site_type_symbol
 _atom_site_label
 _atom_site_symmetry_multiplicity
 _atom_site_fract_x
 _atom_site_fract_y
 _atom_site_fract_z
 _atom_site_fract_occupancy
 B  B1  1  0.53586  0.46414  0.25000  1
 B  B2  1  0.46414  0.53586  0.75000  1
 Fe  Fe1  1  -0.00000  0.50000  -0.00000  1
 Fe  Fe2  1  0.50000  -0.00000  0.50000  1
 H  H1  1  0.30453  0.68711  0.56485  1
 H  H2  1  0.50000  0.00000  -0.00000  1
 H  H3  1  0.31289  0.69547  0.93515  1
 H  H4  1  0.69547  0.31289  0.43515  1
 H  H5  1  0.68711  0.30453  0.06485  1
 H  H6  1  -0.00000  0.50000  0.50000  1
 Na  Na1  1  0.86088  0.13912  0.75000  1
 Na  Na2  1  0.13912  0.86088  0.25000  1
 O  O1  1  0.05742  0.28067  0.88615  1
 O  O2  1  0.68403  0.53500  0.75579  1
 O  O3  1  0.53500  0.68403  0.25579  1
 O  O4  1  0.31597  0.46500  0.24421  1
 O  O5  1  0.03846  0.63739  0.54420  1
 O  O6  1  0.96154  0.36261  0.45580  1
 O  O7  1  0.63739  0.03846  0.04420  1
 O  O8  1  0.94258  0.71933  0.11385  1
 O  O9  1  0.28067  0.05742  0.38615  1
 O  O10  1  0.46500  0.31597  0.74421  1
 O  O11  1  0.07904  0.26977  0.18257  1
 O  O12  1  0.29792  0.57060  0.90430  1
 O  O13  1  0.92096  0.73023  0.81743  1
 O  O14  1  0.26977  0.07904  0.68257  1
 O  O15  1  0.70208  0.42940  0.09570  1
 O  O16  1  0.57060  0.29792  0.40430  1
 O  O17  1  0.71933  0.94258  0.61385  1
 O  O18  1  0.42940  0.70208  0.59570  1
 O  O19  1  0.73023  0.92096  0.31743  1
 O  O20  1  0.36261  0.96154  0.95580  1
 P  P1  1  0.28675  0.15903  0.81817  1
 P  P2  1  0.84097  0.71325  0.68183  1
 P  P3  1  0.15903  0.28675  0.31817  1
 P  P4  1  0.71325  0.84097  0.18183  1
