CIF file written using JARVIS-Tools package.
data_BaTi2P4O14
_symmetry_space_group_name_H-M  'C2/c'
_cell_length_a       7.5281
_cell_length_b       7.5281
_cell_length_c       9.82415
_cell_angle_alpha    80.8704
_cell_angle_beta     80.8704
_cell_angle_gamma    88.7862

_symmetry_Int_Tables_number  15
_chemical_formula_structural  BaTi2P4O14
_chemical_formula_sum  Ba2Ti4P8O28
_cell_volume  542.735665510485
_cell_formula_units_Z  2
loop_
  _symmetry_equiv_pos_site_id
 _symmetry_equiv_pos_as_xyz
 1  'x, y, z'
loop_
 _atom_site_type_symbol
 _atom_site_label
 _atom_site_symmetry_multiplicity
 _atom_site_fract_x
 _atom_site_fract_y
 _atom_site_fract_z
 _atom_site_fract_occupancy
 Ba  Ba1  1  0.50000  0.00000  0.50000  1
 Ba  Ba2  1  -0.00000  0.50000  0.00000  1
 O  O1  1  0.21221  0.04835  0.33736  1
 O  O2  1  0.04835  0.21221  0.83736  1
 O  O3  1  0.78779  0.95165  0.66264  1
 O  O4  1  0.62223  0.74572  0.29056  1
 O  O5  1  0.25428  0.37777  0.20944  1
 O  O6  1  0.37777  0.25428  0.70944  1
 O  O7  1  0.74572  0.62223  0.79056  1
 O  O8  1  0.86096  0.82956  0.41766  1
 O  O9  1  0.17044  0.13904  0.08234  1
 O  O10  1  0.13904  0.17044  0.58234  1
 O  O11  1  0.82956  0.86096  0.91766  1
 O  O12  1  0.87108  0.52234  0.33622  1
 O  O13  1  0.47766  0.12892  0.16378  1
 O  O14  1  0.39948  0.73730  0.08933  1
 O  O15  1  0.26270  0.60052  0.41067  1
 O  O16  1  0.60052  0.26270  0.91067  1
 O  O17  1  0.73730  0.39948  0.58933  1
 O  O18  1  0.36949  0.56076  0.89314  1
 O  O19  1  0.95165  0.78779  0.16264  1
 O  O20  1  0.19363  0.84219  0.91206  1
 O  O21  1  0.15781  0.80637  0.58794  1
 O  O22  1  0.43924  0.63051  0.60686  1
 O  O23  1  0.56076  0.36949  0.39314  1
 O  O24  1  0.12892  0.47766  0.66378  1
 O  O25  1  0.63051  0.43924  0.10686  1
 O  O26  1  0.84219  0.19363  0.41206  1
 O  O27  1  0.80637  0.15781  0.08794  1
 O  O28  1  0.52234  0.87108  0.83622  1
 P  P1  1  0.17630  0.26467  0.70084  1
 P  P2  1  0.74739  0.36887  0.43868  1
 P  P3  1  0.36887  0.74739  0.93868  1
 P  P4  1  0.63113  0.25261  0.06132  1
 P  P5  1  0.26467  0.17630  0.20084  1
 P  P6  1  0.73533  0.82370  0.79916  1
 P  P7  1  0.82370  0.73533  0.29916  1
 P  P8  1  0.25261  0.63113  0.56132  1
 Ti  Ti1  1  0.55508  0.44492  0.75000  1
 Ti  Ti2  1  -0.00000  -0.00000  0.50000  1
 Ti  Ti3  1  0.00000  0.00000  0.00000  1
 Ti  Ti4  1  0.44492  0.55508  0.25000  1
