CIF file written using JARVIS-Tools package.
data_KLuP2O7
_symmetry_space_group_name_H-M  'P2_1/c'
_cell_length_a       7.45944
_cell_length_b       8.52613
_cell_length_c       10.7215
_cell_angle_alpha    90
_cell_angle_beta     90
_cell_angle_gamma    106.147

_symmetry_Int_Tables_number  14
_chemical_formula_structural  KLuP2O7
_chemical_formula_sum  K4Lu4P8O28
_cell_volume  654.9881397492267
_cell_formula_units_Z  4
loop_
  _symmetry_equiv_pos_site_id
 _symmetry_equiv_pos_as_xyz
 1  'x, y, z'
loop_
 _atom_site_type_symbol
 _atom_site_label
 _atom_site_symmetry_multiplicity
 _atom_site_fract_x
 _atom_site_fract_y
 _atom_site_fract_z
 _atom_site_fract_occupancy
 K  K1  1  0.17570  0.55729  0.18277  1
 K  K2  1  0.82430  0.44271  0.81723  1
 K  K3  1  0.17570  0.05729  0.31723  1
 K  K4  1  0.82430  0.94271  0.68277  1
 Lu  Lu1  1  0.76930  0.24444  0.40437  1
 Lu  Lu2  1  0.23070  0.75556  0.59563  1
 Lu  Lu3  1  0.23070  0.25556  0.90437  1
 Lu  Lu4  1  0.76930  0.74444  0.09563  1
 O  O1  1  0.64869  0.73054  0.90901  1
 O  O2  1  0.86058  0.50467  0.40852  1
 O  O3  1  0.97666  0.28601  0.99443  1
 O  O4  1  0.35131  0.26946  0.09099  1
 O  O5  1  0.66613  0.98125  0.38458  1
 O  O6  1  0.02334  0.71399  0.00557  1
 O  O7  1  0.13942  0.99533  0.90852  1
 O  O8  1  0.35131  0.76946  0.40901  1
 O  O9  1  0.02334  0.21399  0.49443  1
 O  O10  1  0.07533  0.74399  0.77261  1
 O  O11  1  0.92467  0.25601  0.22739  1
 O  O12  1  0.35305  0.81453  0.92308  1
 O  O13  1  0.97666  0.78601  0.50557  1
 O  O14  1  0.33387  0.51875  0.88458  1
 O  O15  1  0.86058  0.00467  0.09148  1
 O  O16  1  0.53683  0.26663  0.28560  1
 O  O17  1  0.07533  0.24399  0.72739  1
 O  O18  1  0.13942  0.49533  0.59148  1
 O  O19  1  0.46317  0.73337  0.71440  1
 O  O20  1  0.64695  0.18547  0.07692  1
 O  O21  1  0.92467  0.75601  0.27261  1
 O  O22  1  0.64869  0.23054  0.59099  1
 O  O23  1  0.33387  0.01875  0.61542  1
 O  O24  1  0.53683  0.76663  0.21440  1
 O  O25  1  0.64695  0.68547  0.42308  1
 O  O26  1  0.46317  0.23337  0.78560  1
 O  O27  1  0.35305  0.31453  0.57692  1
 O  O28  1  0.66613  0.48125  0.11542  1
 P  P1  1  0.86163  0.68178  0.40128  1
 P  P2  1  0.13837  0.81822  0.90128  1
 P  P3  1  0.86163  0.18178  0.09872  1
 P  P4  1  0.54720  0.30970  0.14678  1
 P  P5  1  0.54720  0.80970  0.35322  1
 P  P6  1  0.45280  0.19030  0.64678  1
 P  P7  1  0.45280  0.69030  0.85322  1
 P  P8  1  0.13837  0.31822  0.59872  1
