CIF file written using JARVIS-Tools package.
data_Ca2FeWO6
_symmetry_space_group_name_H-M  'C2/m'
_cell_length_a       5.39943
_cell_length_b       5.38434
_cell_length_c       5.40896
_cell_angle_alpha    60.555
_cell_angle_beta     60.0478
_cell_angle_gamma    59.8983

_symmetry_Int_Tables_number  12
_chemical_formula_structural  Ca2FeWO6
_chemical_formula_sum  Ca2FeWO6
_cell_volume  111.60606293197519
_cell_formula_units_Z  1
loop_
  _symmetry_equiv_pos_site_id
 _symmetry_equiv_pos_as_xyz
 1  'x, y, z'
loop_
 _atom_site_type_symbol
 _atom_site_label
 _atom_site_symmetry_multiplicity
 _atom_site_fract_x
 _atom_site_fract_y
 _atom_site_fract_z
 _atom_site_fract_occupancy
 Ca  Ca1  1  0.24752  0.24025  0.26460  1
 Ca  Ca2  1  0.75249  0.75975  0.73540  1
 Fe  Fe1  1  0.50000  0.50000  0.50000  1
 O  O1  1  0.24954  0.66658  0.83419  1
 O  O2  1  0.20629  0.79522  0.29385  1
 O  O3  1  0.79371  0.20479  0.70615  1
 O  O4  1  0.29507  0.20508  0.70573  1
 O  O5  1  0.75045  0.33341  0.16581  1
 O  O6  1  0.70493  0.79492  0.29428  1
 W  W1  1  0.00000  0.00000  0.00000  1
