CIF file written using JARVIS-Tools package.
data_Fe4O3F5
_symmetry_space_group_name_H-M  'C2/m'
_cell_length_a       7.15544
_cell_length_b       6.4489
_cell_length_c       7.60622
_cell_angle_alpha    64.7229
_cell_angle_beta     61.9418
_cell_angle_gamma    90

_symmetry_Int_Tables_number  12
_chemical_formula_structural  Fe4O3F5
_chemical_formula_sum  Fe8O6F0
_cell_volume  271.06273424870386
_cell_formula_units_Z  2
loop_
  _symmetry_equiv_pos_site_id
 _symmetry_equiv_pos_as_xyz
 1  'x, y, z'
loop_
 _atom_site_type_symbol
 _atom_site_label
 _atom_site_symmetry_multiplicity
 _atom_site_fract_x
 _atom_site_fract_y
 _atom_site_fract_z
 _atom_site_fract_occupancy
 F  F1  1  0.82610  0.63345  0.74794  1
 F  F2  1  0.92390  0.11655  0.75206  1
 F  F3  1  0.23940  0.94953  0.52120  1
 F  F4  1  0.51060  0.80047  -0.02120  1
 F  F5  1  0.08274  0.87500  0.25000  1
 F  F6  1  0.32404  0.11655  0.75206  1
 F  F7  1  0.56220  0.37500  0.25000  1
 F  F8  1  0.18780  0.37500  0.25000  1
 F  F9  1  0.42596  0.63345  0.74794  1
 F  F10  1  0.66726  0.87500  0.25000  1
 Fe  Fe1  1  -0.00187  0.99580  0.00374  1
 Fe  Fe2  1  0.75187  0.75420  0.49626  1
 Fe  Fe3  1  0.11087  0.60970  0.77825  1
 Fe  Fe4  1  0.63913  0.14030  0.72175  1
 Fe  Fe5  1  0.37500  0.87500  0.25000  1
 Fe  Fe6  1  0.87500  0.37500  0.25000  1
 Fe  Fe7  1  0.24516  0.27718  0.50968  1
 Fe  Fe8  1  0.50484  0.47282  -0.00968  1
 O  O1  1  0.23784  0.56080  0.52433  1
 O  O2  1  0.99552  0.29757  0.00896  1
 O  O3  1  -0.00521  0.69043  0.01041  1
 O  O4  1  0.75448  0.45243  0.49104  1
 O  O5  1  0.75521  0.05957  0.48959  1
 O  O6  1  0.51216  0.18920  -0.02433  1
