CIF file written using JARVIS-Tools package.
data_Ta2Co
_symmetry_space_group_name_H-M  'I4/mcm'
_cell_length_a       4.97352
_cell_length_b       4.98888
_cell_length_c       4.98888
_cell_angle_alpha    75.6135
_cell_angle_beta     60.1019
_cell_angle_gamma    60.1019

_symmetry_Int_Tables_number  140
_chemical_formula_structural  Ta2Co
_chemical_formula_sum  Ta4Co2
_cell_volume  93.02964388954804
_cell_formula_units_Z  2
loop_
  _symmetry_equiv_pos_site_id
 _symmetry_equiv_pos_as_xyz
 1  'x, y, z'
loop_
 _atom_site_type_symbol
 _atom_site_label
 _atom_site_symmetry_multiplicity
 _atom_site_fract_x
 _atom_site_fract_y
 _atom_site_fract_z
 _atom_site_fract_occupancy
 Co  Co1  1  0.25000  0.00000  -0.00000  1
 Co  Co2  1  0.75000  0.00000  -0.00000  1
 Ta  Ta1  1  0.16072  0.50000  0.17855  1
 Ta  Ta2  1  0.33928  0.82145  0.50000  1
 Ta  Ta3  1  0.66072  0.17855  0.50000  1
 Ta  Ta4  1  0.83928  0.50000  0.82145  1
