CIF file written using JARVIS-Tools package.
data_Ba7Ir6O19
_symmetry_space_group_name_H-M  'C2/m'
_cell_length_a       5.80865
_cell_length_b       8.033
_cell_length_c       11.1212
_cell_angle_alpha    98.8198
_cell_angle_beta     90
_cell_angle_gamma    111.195

_symmetry_Int_Tables_number  12
_chemical_formula_structural  Ba7Ir6O19
_chemical_formula_sum  Ba7Ir6O9
_cell_volume  477.23277754370855
_cell_formula_units_Z  1
loop_
  _symmetry_equiv_pos_site_id
 _symmetry_equiv_pos_as_xyz
 1  'x, y, z'
loop_
 _atom_site_type_symbol
 _atom_site_label
 _atom_site_symmetry_multiplicity
 _atom_site_fract_x
 _atom_site_fract_y
 _atom_site_fract_z
 _atom_site_fract_occupancy
 Ba  Ba1  1  0.80149  0.60297  0.40824  1
 Ba  Ba2  1  0.19851  0.39703  0.59176  1
 Ba  Ba3  1  0.57263  0.14526  0.16250  1
 Ba  Ba4  1  0.42737  0.85474  0.83750  1
 Ba  Ba5  1  0.85465  0.70930  0.05383  1
 Ba  Ba6  1  0.14535  0.29070  0.94617  1
 Ba  Ba7  1  0.50000  0.00000  0.50000  1
 Ir  Ir1  1  0.97802  0.95604  0.67674  1
 Ir  Ir2  1  0.81853  0.63707  0.73418  1
 Ir  Ir3  1  0.18147  0.36293  0.26582  1
 Ir  Ir4  1  0.34341  0.68681  0.21763  1
 Ir  Ir5  1  0.02198  0.04396  0.32326  1
 Ir  Ir6  1  0.65659  0.31319  0.78237  1
 O  O1  1  0.67844  0.85504  0.29375  1
 O  O2  1  0.29741  0.59481  0.38783  1
 O  O3  1  0.70259  0.40519  0.61217  1
 O  O4  1  0.94535  0.89070  0.85106  1
 O  O5  1  0.05465  0.10930  0.14894  1
 O  O6  1  0.60508  0.21015  0.93750  1
 O  O7  1  0.39492  0.78985  0.06250  1
 O  O8  1  0.82340  0.14496  0.70625  1
 O  O9  1  0.35974  0.24902  0.36897  1
 O  O10  1  0.17660  0.85504  0.29375  1
 O  O11  1  0.00834  0.48220  0.16288  1
 O  O12  1  0.52614  0.51780  0.83712  1
 O  O13  1  0.88928  0.24902  0.36897  1
 O  O14  1  0.00000  0.00000  0.50000  1
 O  O15  1  0.64026  0.75098  0.63103  1
 O  O16  1  0.47386  0.48220  0.16288  1
 O  O17  1  0.99166  0.51780  0.83712  1
 O  O18  1  0.32156  0.14496  0.70625  1
 O  O19  1  0.11072  0.75098  0.63103  1
