CIF file written using JARVIS-Tools package.
data_AuBr
_symmetry_space_group_name_H-M  'I4_1/amd'
_cell_length_a       6.78262
_cell_length_b       6.78262
_cell_length_c       6.78262
_cell_angle_alpha    116.747
_cell_angle_beta     116.747
_cell_angle_gamma    95.7335

_symmetry_Int_Tables_number  141
_chemical_formula_structural  AuBr
_chemical_formula_sum  Au4Br4
_cell_volume  230.2384537353441
_cell_formula_units_Z  4
loop_
  _symmetry_equiv_pos_site_id
 _symmetry_equiv_pos_as_xyz
 1  'x, y, z'
loop_
 _atom_site_type_symbol
 _atom_site_label
 _atom_site_symmetry_multiplicity
 _atom_site_fract_x
 _atom_site_fract_y
 _atom_site_fract_z
 _atom_site_fract_occupancy
 Au  Au1  1  0.00000  0.00000  0.00000  1
 Au  Au2  1  -0.00000  0.50000  0.50000  1
 Au  Au3  1  -0.00000  0.00000  0.50000  1
 Au  Au4  1  0.50000  0.00000  0.00000  1
 Br  Br1  1  0.18378  0.43378  0.25000  1
 Br  Br2  1  0.43378  0.18378  0.75000  1
 Br  Br3  1  0.81622  0.56622  0.75000  1
 Br  Br4  1  0.56622  0.81622  0.25000  1
