CIF file written using JARVIS-Tools package.
data_TbNi2B2
_symmetry_space_group_name_H-M  'C2/c'
_cell_length_a       4.96758
_cell_length_b       4.96758
_cell_length_c       6.87589
_cell_angle_alpha    59.4433
_cell_angle_beta     59.4433
_cell_angle_gamma    64.1181

_symmetry_Int_Tables_number  15
_chemical_formula_structural  TbNi2B2
_chemical_formula_sum  Tb2Ni4B4
_cell_volume  122.1399070496679
_cell_formula_units_Z  2
loop_
  _symmetry_equiv_pos_site_id
 _symmetry_equiv_pos_as_xyz
 1  'x, y, z'
loop_
 _atom_site_type_symbol
 _atom_site_label
 _atom_site_symmetry_multiplicity
 _atom_site_fract_x
 _atom_site_fract_y
 _atom_site_fract_z
 _atom_site_fract_occupancy
 B  B1  1  0.15371  0.50424  0.02328  1
 B  B2  1  0.49576  0.84629  0.47672  1
 B  B3  1  0.84629  0.49576  0.97672  1
 B  B4  1  0.50424  0.15371  0.52328  1
 Ni  Ni1  1  0.46781  0.27792  0.19878  1
 Ni  Ni2  1  0.72208  0.53219  0.30122  1
 Ni  Ni3  1  0.53219  0.72208  0.80122  1
 Ni  Ni4  1  0.27792  0.46781  0.69878  1
 Tb  Tb1  1  0.12129  0.87871  0.25000  1
 Tb  Tb2  1  0.87871  0.12129  0.75000  1
