CIF file written using JARVIS-Tools package.
data_CaAl2SiO6
_symmetry_space_group_name_H-M  'P2/c'
_cell_length_a       9.69617
_cell_length_b       8.71103
_cell_length_c       5.31209
_cell_angle_alpha    90
_cell_angle_beta     105.918
_cell_angle_gamma    90

_symmetry_Int_Tables_number  13
_chemical_formula_structural  CaAl2SiO6
_chemical_formula_sum  Ca4Al8Si4O24
_cell_volume  431.4746807037511
_cell_formula_units_Z  4
loop_
  _symmetry_equiv_pos_site_id
 _symmetry_equiv_pos_as_xyz
 1  'x, y, z'
loop_
 _atom_site_type_symbol
 _atom_site_label
 _atom_site_symmetry_multiplicity
 _atom_site_fract_x
 _atom_site_fract_y
 _atom_site_fract_z
 _atom_site_fract_occupancy
 Al  Al1  1  0.00000  0.90654  0.25000  1
 Al  Al2  1  0.50000  0.59346  0.75000  1
 Al  Al3  1  0.00000  0.08875  0.75000  1
 Al  Al4  1  0.50000  0.41125  0.25000  1
 Al  Al5  1  0.78417  0.59770  0.21162  1
 Al  Al6  1  0.21583  0.59770  0.28838  1
 Al  Al7  1  0.71583  0.90230  0.78838  1
 Al  Al8  1  0.28417  0.90230  0.71162  1
 Ca  Ca1  1  0.00000  0.31506  0.25000  1
 Ca  Ca2  1  0.50000  0.18494  0.75000  1
 Ca  Ca3  1  0.00000  0.69235  0.75000  1
 Ca  Ca4  1  0.50000  0.80765  0.25000  1
 O  O1  1  0.59641  0.57281  0.11404  1
 O  O2  1  0.40359  0.57281  0.38596  1
 O  O3  1  0.64507  0.02738  0.51586  1
 O  O4  1  0.63225  0.26323  0.18514  1
 O  O5  1  0.88607  0.09235  0.37168  1
 O  O6  1  0.11393  0.09235  0.12832  1
 O  O7  1  0.86659  0.77190  0.31632  1
 O  O8  1  0.86775  0.23677  0.81486  1
 O  O9  1  0.35493  0.02738  0.98414  1
 O  O10  1  0.36775  0.26323  0.31486  1
 O  O11  1  0.14347  0.51590  0.52879  1
 O  O12  1  0.85653  0.51590  0.97121  1
 O  O13  1  0.90359  0.92719  0.88596  1
 O  O14  1  0.09641  0.92719  0.61404  1
 O  O15  1  0.64347  0.98410  0.02879  1
 O  O16  1  0.38607  0.40765  0.87168  1
 O  O17  1  0.13225  0.23677  0.68514  1
 O  O18  1  0.14507  0.47262  0.01586  1
 O  O19  1  0.13341  0.77190  0.18368  1
 O  O20  1  0.36659  0.72810  0.81632  1
 O  O21  1  0.35653  0.98410  0.47121  1
 O  O22  1  0.61393  0.40765  0.62832  1
 O  O23  1  0.63341  0.72810  0.68368  1
 O  O24  1  0.85493  0.47262  0.48414  1
 Si  Si1  1  0.29235  0.09776  0.21704  1
 Si  Si2  1  0.70765  0.09776  0.28296  1
 Si  Si3  1  0.20765  0.40224  0.78296  1
 Si  Si4  1  0.79235  0.40224  0.71704  1
