CIF file written using JARVIS-Tools package.
data_NaCaAsO4
_symmetry_space_group_name_H-M  'Pnma'
_cell_length_a       5.27928
_cell_length_b       6.67311
_cell_length_c       11.5313
_cell_angle_alpha    90
_cell_angle_beta     90
_cell_angle_gamma    90

_symmetry_Int_Tables_number  62
_chemical_formula_structural  NaCaAsO4
_chemical_formula_sum  Na4Ca4As4O6
_cell_volume  406.238059147692
_cell_formula_units_Z  4
loop_
  _symmetry_equiv_pos_site_id
 _symmetry_equiv_pos_as_xyz
 1  'x, y, z'
loop_
 _atom_site_type_symbol
 _atom_site_label
 _atom_site_symmetry_multiplicity
 _atom_site_fract_x
 _atom_site_fract_y
 _atom_site_fract_z
 _atom_site_fract_occupancy
 As  As1  1  0.43151  0.25000  0.59700  1
 As  As2  1  0.56849  0.75000  0.40300  1
 As  As3  1  0.06849  0.25000  0.09700  1
 As  As4  1  0.93151  0.75000  0.90300  1
 Ca  Ca1  1  0.49298  0.75000  0.72030  1
 Ca  Ca2  1  0.99298  0.25000  0.77970  1
 Ca  Ca3  1  0.50702  0.25000  0.27970  1
 Ca  Ca4  1  0.00702  0.75000  0.22030  1
 Na  Na1  1  0.00000  0.50000  0.50000  1
 Na  Na2  1  0.00000  0.00000  0.50000  1
 Na  Na3  1  0.50000  0.50000  0.00000  1
 Na  Na4  1  0.50000  0.00000  0.00000  1
 O  O1  1  0.74492  0.25000  0.10237  1
 O  O2  1  0.68896  0.75000  0.54158  1
 O  O3  1  0.70795  0.54838  0.33206  1
 O  O4  1  0.31104  0.25000  0.45842  1
 O  O5  1  0.81104  0.75000  0.04158  1
 O  O6  1  0.24492  0.75000  0.39763  1
 O  O7  1  0.18896  0.25000  0.95842  1
 O  O8  1  0.29205  0.04838  0.66794  1
 O  O9  1  0.70795  0.95162  0.33206  1
 O  O10  1  0.20795  0.04838  0.16794  1
 O  O11  1  0.29205  0.45162  0.66794  1
 O  O12  1  0.79205  0.54838  0.83206  1
 O  O13  1  0.75508  0.25000  0.60237  1
 O  O14  1  0.79205  0.95162  0.83206  1
 O  O15  1  0.25508  0.75000  0.89763  1
 O  O16  1  0.20795  0.45162  0.16794  1
