CIF file written using JARVIS-Tools package.
data_K2SnBr6
_symmetry_space_group_name_H-M  'P2_1/c'
_cell_length_a       7.54884
_cell_length_b       7.37336
_cell_length_c       10.49
_cell_angle_alpha    90.5639
_cell_angle_beta     90
_cell_angle_gamma    90

_symmetry_Int_Tables_number  14
_chemical_formula_structural  K2SnBr6
_chemical_formula_sum  K4Sn2Br2
_cell_volume  583.8495483031878
_cell_formula_units_Z  2
loop_
  _symmetry_equiv_pos_site_id
 _symmetry_equiv_pos_as_xyz
 1  'x, y, z'
loop_
 _atom_site_type_symbol
 _atom_site_label
 _atom_site_symmetry_multiplicity
 _atom_site_fract_x
 _atom_site_fract_y
 _atom_site_fract_z
 _atom_site_fract_occupancy
 Br  Br1  1  0.20164  0.70971  0.03778  1
 Br  Br2  1  0.50272  0.42893  0.25232  1
 Br  Br3  1  0.21047  0.69968  0.46898  1
 Br  Br4  1  0.71047  0.80032  0.03102  1
 Br  Br5  1  0.28953  0.19968  0.96898  1
 Br  Br6  1  0.00272  0.07107  0.24768  1
 Br  Br7  1  0.49728  0.57107  0.74768  1
 Br  Br8  1  0.29836  0.20971  0.53778  1
 Br  Br9  1  0.79836  0.29029  0.96222  1
 Br  Br10  1  -0.00272  0.92893  0.75232  1
 Br  Br11  1  0.70164  0.79029  0.46222  1
 Br  Br12  1  0.78953  0.30032  0.53102  1
 K  K1  1  0.56261  0.01828  0.74808  1
 K  K2  1  0.93739  0.51828  0.24808  1
 K  K3  1  0.06261  0.48172  0.75192  1
 K  K4  1  0.43739  0.98172  0.25192  1
 Sn  Sn1  1  0.50000  0.50000  0.50000  1
 Sn  Sn2  1  0.00000  0.00000  0.00000  1
