CIF file written using JARVIS-Tools package.
data_Li2VP2HO8
_symmetry_space_group_name_H-M  'P2_1'
_cell_length_a       4.8392
_cell_length_b       8.02195
_cell_length_c       7.52869
_cell_angle_alpha    90
_cell_angle_beta     104.191
_cell_angle_gamma    90

_symmetry_Int_Tables_number  4
_chemical_formula_structural  Li2VP2HO8
_chemical_formula_sum  Li4V2P4H2O6
_cell_volume  283.34318922170075
_cell_formula_units_Z  2
loop_
  _symmetry_equiv_pos_site_id
 _symmetry_equiv_pos_as_xyz
 1  'x, y, z'
loop_
 _atom_site_type_symbol
 _atom_site_label
 _atom_site_symmetry_multiplicity
 _atom_site_fract_x
 _atom_site_fract_y
 _atom_site_fract_z
 _atom_site_fract_occupancy
 H  H1  1  0.77509  0.48963  0.76038  1
 H  H2  1  0.22491  0.98963  0.23962  1
 Li  Li1  1  0.37145  0.63421  0.90909  1
 Li  Li2  1  0.62855  0.13421  0.09091  1
 Li  Li3  1  0.86014  0.86506  0.40976  1
 Li  Li4  1  0.13986  0.36506  0.59024  1
 O  O1  1  0.36019  0.45776  0.09046  1
 O  O2  1  0.23315  0.17797  0.93892  1
 O  O3  1  0.39280  0.17548  0.59673  1
 O  O4  1  0.50555  0.55983  0.69991  1
 O  O5  1  0.63981  0.95776  0.90954  1
 O  O6  1  0.76685  0.67797  0.06108  1
 O  O7  1  0.26334  0.82230  0.55794  1
 O  O8  1  0.60720  0.67548  0.40327  1
 O  O9  1  0.01276  0.93749  0.19927  1
 O  O10  1  0.73666  0.32230  0.44206  1
 O  O11  1  0.11143  0.82211  0.90219  1
 O  O12  1  0.98724  0.43749  0.80073  1
 O  O13  1  0.49445  0.05983  0.30009  1
 O  O14  1  0.88857  0.32211  0.09781  1
 O  O15  1  0.86372  0.04171  0.59247  1
 O  O16  1  0.13628  0.54171  0.40753  1
 P  P1  1  0.61723  0.15182  0.48237  1
 P  P2  1  0.38277  0.65182  0.51763  1
 P  P3  1  0.11557  0.34480  0.98771  1
 P  P4  1  0.88443  0.84480  0.01229  1
 V  V1  1  0.25096  -0.00006  0.74670  1
 V  V2  1  0.74904  0.49994  0.25330  1
