CIF file written using JARVIS-Tools package.
data_SrV2P4O14
_symmetry_space_group_name_H-M  'P-1'
_cell_length_a       4.81655
_cell_length_b       7.1676
_cell_length_c       7.82126
_cell_angle_alpha    89.9957
_cell_angle_beta     88.0273
_cell_angle_gamma    72.538

_symmetry_Int_Tables_number  2
_chemical_formula_structural  SrV2P4O14
_chemical_formula_sum  SrV2P4O4
_cell_volume  257.4032906748642
_cell_formula_units_Z  1
loop_
  _symmetry_equiv_pos_site_id
 _symmetry_equiv_pos_as_xyz
 1  'x, y, z'
loop_
 _atom_site_type_symbol
 _atom_site_label
 _atom_site_symmetry_multiplicity
 _atom_site_fract_x
 _atom_site_fract_y
 _atom_site_fract_z
 _atom_site_fract_occupancy
 O  O1  1  0.09938  0.19061  0.34372  1
 O  O2  1  0.90062  0.80939  0.65628  1
 O  O3  1  0.31963  0.43477  0.21131  1
 O  O4  1  0.68037  0.56523  0.78869  1
 O  O5  1  0.10668  0.64713  0.92192  1
 O  O6  1  0.89332  0.35287  0.07808  1
 O  O7  1  0.18580  0.44769  0.64858  1
 O  O8  1  0.50721  0.76189  0.11647  1
 O  O9  1  0.49279  0.23811  0.88353  1
 O  O10  1  0.81799  0.90233  0.29445  1
 O  O11  1  0.18201  0.09767  0.70555  1
 O  O12  1  0.61905  0.18283  0.56156  1
 O  O13  1  0.81420  0.55231  0.35142  1
 O  O14  1  0.38095  0.81717  0.43844  1
 P  P1  1  0.95735  0.62133  0.75468  1
 P  P2  1  0.04265  0.37867  0.24532  1
 P  P3  1  0.38188  0.23048  0.70028  1
 P  P4  1  0.61812  0.76952  0.29972  1
 Sr  Sr1  1  0.00000  0.00000  0.00000  1
 V  V1  1  0.00000  -0.00000  0.50000  1
 V  V2  1  0.50000  0.50000  0.00000  1
