CIF file written using JARVIS-Tools package.
data_Cu4Te5Cl4O12
_symmetry_space_group_name_H-M  'P4/n'
_cell_length_a       6.39163
_cell_length_b       11.3741
_cell_length_c       11.3741
_cell_angle_alpha    90
_cell_angle_beta     90
_cell_angle_gamma    90

_symmetry_Int_Tables_number  85
_chemical_formula_structural  Cu4Te5Cl4O12
_chemical_formula_sum  Cu8Te0Cl8O24
_cell_volume  826.8856607367219
_cell_formula_units_Z  2
loop_
  _symmetry_equiv_pos_site_id
 _symmetry_equiv_pos_as_xyz
 1  'x, y, z'
loop_
 _atom_site_type_symbol
 _atom_site_label
 _atom_site_symmetry_multiplicity
 _atom_site_fract_x
 _atom_site_fract_y
 _atom_site_fract_z
 _atom_site_fract_occupancy
 Cl  Cl1  1  0.32777  0.55757  0.61330  1
 Cl  Cl2  1  0.67223  0.11330  0.44243  1
 Cl  Cl3  1  0.32777  0.94243  0.88670  1
 Cl  Cl4  1  0.32777  0.61330  0.94243  1
 Cl  Cl5  1  0.32777  0.88670  0.55757  1
 Cl  Cl6  1  0.67223  0.38670  0.05757  1
 Cl  Cl7  1  0.67223  0.05757  0.11330  1
 Cl  Cl8  1  0.67223  0.44243  0.38670  1
 Cu  Cu1  1  0.35101  0.75596  0.40794  1
 Cu  Cu2  1  0.64899  0.24404  0.59206  1
 Cu  Cu3  1  0.64899  0.59206  0.25596  1
 Cu  Cu4  1  0.64899  0.90794  0.24404  1
 Cu  Cu5  1  0.35101  0.09206  0.75596  1
 Cu  Cu6  1  0.35101  0.40794  0.74404  1
 Cu  Cu7  1  0.64899  0.25596  0.90794  1
 Cu  Cu8  1  0.35101  0.74404  0.09206  1
 O  O1  1  0.23472  0.20884  0.09523  1
 O  O2  1  0.76528  0.70884  0.59523  1
 O  O3  1  0.23472  0.29116  0.40477  1
 O  O4  1  0.35570  0.62779  0.28589  1
 O  O5  1  0.93968  0.92325  0.29178  1
 O  O6  1  0.64430  0.12779  0.78589  1
 O  O7  1  0.93968  0.20822  0.92325  1
 O  O8  1  0.93968  0.29178  0.57675  1
 O  O9  1  0.23472  0.40477  0.20884  1
 O  O10  1  0.35570  0.21411  0.62779  1
 O  O11  1  0.64430  0.78589  0.37221  1
 O  O12  1  0.76528  0.59523  0.79116  1
 O  O13  1  0.93968  0.57675  0.20822  1
 O  O14  1  0.64430  0.37221  0.71411  1
 O  O15  1  0.06032  0.07675  0.70822  1
 O  O16  1  0.06032  0.42325  0.79178  1
 O  O17  1  0.06032  0.70822  0.42325  1
 O  O18  1  0.76528  0.90477  0.70884  1
 O  O19  1  0.76528  0.79116  0.90477  1
 O  O20  1  0.35570  0.28589  0.87221  1
 O  O21  1  0.06032  0.79178  0.07675  1
 O  O22  1  0.35570  0.87221  0.21411  1
 O  O23  1  0.64430  0.71411  0.12779  1
 O  O24  1  0.23472  0.09523  0.29116  1
 Te  Te1  1  0.87158  0.48053  0.67481  1
 Te  Te2  1  0.87158  0.01947  0.82519  1
 Te  Te3  1  0.12842  0.32519  0.98053  1
 Te  Te4  1  0.62387  0.75000  0.75000  1
 Te  Te5  1  0.87158  0.82519  0.48053  1
 Te  Te6  1  0.37613  0.25000  0.25000  1
 Te  Te7  1  0.12842  0.17481  0.51947  1
 Te  Te8  1  0.12842  0.51947  0.32519  1
 Te  Te9  1  0.87158  0.67481  0.01947  1
 Te  Te10  1  0.12842  0.98053  0.17481  1
