CIF file written using JARVIS-Tools package.
data_H3ClO5
_symmetry_space_group_name_H-M  'Pnma'
_cell_length_a       8.13157
_cell_length_b       5.96669
_cell_length_c       7.29606
_cell_angle_alpha    90
_cell_angle_beta     90
_cell_angle_gamma    90

_symmetry_Int_Tables_number  62
_chemical_formula_structural  H3ClO5
_chemical_formula_sum  H2Cl4O20
_cell_volume  353.99439198927234
_cell_formula_units_Z  4
loop_
  _symmetry_equiv_pos_site_id
 _symmetry_equiv_pos_as_xyz
 1  'x, y, z'
loop_
 _atom_site_type_symbol
 _atom_site_label
 _atom_site_symmetry_multiplicity
 _atom_site_fract_x
 _atom_site_fract_y
 _atom_site_fract_z
 _atom_site_fract_occupancy
 Cl  Cl1  1  0.56547  0.75000  0.81513  1
 Cl  Cl2  1  0.43453  0.25000  0.18487  1
 Cl  Cl3  1  0.93453  0.25000  0.31513  1
 Cl  Cl4  1  0.06547  0.75000  0.68487  1
 H  H1  1  0.25546  0.25000  0.57451  1
 H  H2  1  0.75546  0.25000  -0.07451  1
 H  H3  1  0.74454  0.75000  0.42549  1
 H  H4  1  0.24454  0.75000  0.07451  1
 H  H5  1  0.09173  0.61158  0.17720  1
 H  H6  1  0.09173  0.88842  0.17720  1
 H  H7  1  0.40827  0.11158  0.67720  1
 H  H8  1  0.90827  0.38842  0.82280  1
 H  H9  1  0.40827  0.38842  0.67720  1
 H  H10  1  0.90827  0.11158  0.82280  1
 H  H11  1  0.59173  0.88842  0.32280  1
 H  H12  1  0.59173  0.61158  0.32280  1
 O  O1  1  0.42408  0.75000  -0.06277  1
 O  O2  1  0.78279  0.25000  0.41726  1
 O  O3  1  0.83476  0.25000  0.82262  1
 O  O4  1  0.21721  0.75000  0.58274  1
 O  O5  1  0.71721  0.75000  0.91726  1
 O  O6  1  0.07592  0.25000  0.43723  1
 O  O7  1  0.57592  0.25000  0.06277  1
 O  O8  1  -0.07592  0.75000  0.56277  1
 O  O9  1  0.28279  0.25000  0.08274  1
 O  O10  1  0.66524  0.75000  0.32262  1
 O  O11  1  0.56077  0.94965  0.69497  1
 O  O12  1  0.06077  0.94965  0.80503  1
 O  O13  1  0.56077  0.55035  0.69497  1
 O  O14  1  -0.06077  0.44965  0.19497  1
 O  O15  1  0.43923  0.05035  0.30503  1
 O  O16  1  0.16524  0.75000  0.17738  1
 O  O17  1  -0.06077  0.05035  0.19497  1
 O  O18  1  0.06077  0.55035  0.80503  1
 O  O19  1  0.43923  0.44965  0.30503  1
 O  O20  1  0.33476  0.25000  0.67738  1
