CIF file written using JARVIS-Tools package.
data_Tc3B
_symmetry_space_group_name_H-M  'Cmcm'
_cell_length_a       2.9139
_cell_length_b       4.86106
_cell_length_c       7.25329
_cell_angle_alpha    90
_cell_angle_beta     90
_cell_angle_gamma    107.441

_symmetry_Int_Tables_number  63
_chemical_formula_structural  Tc3B
_chemical_formula_sum  Tc6B2
_cell_volume  98.01699043759413
_cell_formula_units_Z  2
loop_
  _symmetry_equiv_pos_site_id
 _symmetry_equiv_pos_as_xyz
 1  'x, y, z'
loop_
 _atom_site_type_symbol
 _atom_site_label
 _atom_site_symmetry_multiplicity
 _atom_site_fract_x
 _atom_site_fract_y
 _atom_site_fract_z
 _atom_site_fract_occupancy
 B  B1  1  0.74351  0.48703  0.25000  1
 B  B2  1  0.25649  0.51297  0.75000  1
 Tc  Tc1  1  0.13411  0.26822  0.43817  1
 Tc  Tc2  1  0.86589  0.73178  0.56183  1
 Tc  Tc3  1  0.13411  0.26822  0.06183  1
 Tc  Tc4  1  0.86589  0.73178  0.93817  1
 Tc  Tc5  1  0.42457  0.84915  0.25000  1
 Tc  Tc6  1  0.57543  0.15085  0.75000  1
