CIF file written using JARVIS-Tools package.
data_LiCuPO4
_symmetry_space_group_name_H-M  'Pnma'
_cell_length_a       4.78676
_cell_length_b       6.14335
_cell_length_c       10.1068
_cell_angle_alpha    90
_cell_angle_beta     90
_cell_angle_gamma    90

_symmetry_Int_Tables_number  62
_chemical_formula_structural  LiCuPO4
_chemical_formula_sum  Li4Cu4P4O6
_cell_volume  297.2083625993789
_cell_formula_units_Z  4
loop_
  _symmetry_equiv_pos_site_id
 _symmetry_equiv_pos_as_xyz
 1  'x, y, z'
loop_
 _atom_site_type_symbol
 _atom_site_label
 _atom_site_symmetry_multiplicity
 _atom_site_fract_x
 _atom_site_fract_y
 _atom_site_fract_z
 _atom_site_fract_occupancy
 Cu  Cu1  1  0.00000  0.00000  0.00000  1
 Cu  Cu2  1  0.00000  0.50000  0.00000  1
 Cu  Cu3  1  0.50000  0.00000  0.50000  1
 Cu  Cu4  1  0.50000  0.50000  0.50000  1
 Li  Li1  1  0.55460  0.25000  0.21828  1
 Li  Li2  1  0.05460  0.75000  0.28172  1
 Li  Li3  1  0.94540  0.25000  0.71828  1
 Li  Li4  1  0.44540  0.75000  0.78172  1
 O  O1  1  0.28962  0.75000  0.10572  1
 O  O2  1  0.24389  0.04114  0.34282  1
 O  O3  1  0.24389  0.45886  0.34282  1
 O  O4  1  0.27149  0.25000  0.04963  1
 O  O5  1  0.74389  0.95886  0.15718  1
 O  O6  1  0.71038  0.25000  0.89428  1
 O  O7  1  0.77149  0.75000  0.45037  1
 O  O8  1  0.74389  0.54114  0.15718  1
 O  O9  1  0.22851  0.25000  0.54963  1
 O  O10  1  0.25611  0.45886  0.84282  1
 O  O11  1  0.75611  0.95886  0.65718  1
 O  O12  1  0.75611  0.54114  0.65718  1
 O  O13  1  0.78962  0.25000  0.39428  1
 O  O14  1  0.25611  0.04114  0.84282  1
 O  O15  1  0.21038  0.75000  0.60572  1
 O  O16  1  0.72851  0.75000  0.95037  1
 P  P1  1  0.60545  0.75000  0.09844  1
 P  P2  1  0.10545  0.25000  0.40156  1
 P  P3  1  0.89455  0.75000  0.59844  1
 P  P4  1  0.39455  0.25000  0.90156  1
