CIF file written using JARVIS-Tools package.
data_USi2Os2
_symmetry_space_group_name_H-M  'I4/mmm'
_cell_length_a       4.18985
_cell_length_b       4.18985
_cell_length_c       5.63614
_cell_angle_alpha    111.82
_cell_angle_beta     111.82
_cell_angle_gamma    90

_symmetry_Int_Tables_number  139
_chemical_formula_structural  USi2Os2
_chemical_formula_sum  USi2Os2
_cell_volume  84.1693137098563
_cell_formula_units_Z  1
loop_
  _symmetry_equiv_pos_site_id
 _symmetry_equiv_pos_as_xyz
 1  'x, y, z'
loop_
 _atom_site_type_symbol
 _atom_site_label
 _atom_site_symmetry_multiplicity
 _atom_site_fract_x
 _atom_site_fract_y
 _atom_site_fract_z
 _atom_site_fract_occupancy
 Os  Os1  1  0.75000  0.25000  0.50000  1
 Os  Os2  1  0.25000  0.75000  0.50000  1
 Si  Si1  1  0.62512  0.62512  0.25024  1
 Si  Si2  1  0.37488  0.37488  0.74976  1
 U  U1  1  0.00000  0.00000  0.00000  1
