CIF file written using JARVIS-Tools package.
data_LiMnO2
_symmetry_space_group_name_H-M  'I4_1/amd'
_cell_length_a       5.79867
_cell_length_b       7.72867
_cell_length_c       5.10978
_cell_angle_alpha    29.0748
_cell_angle_beta     55.4306
_cell_angle_gamma    41.3887

_symmetry_Int_Tables_number  141
_chemical_formula_structural  LiMnO2
_chemical_formula_sum  Li2Mn2O4
_cell_volume  70.74328583705162
_cell_formula_units_Z  2
loop_
  _symmetry_equiv_pos_site_id
 _symmetry_equiv_pos_as_xyz
 1  'x, y, z'
loop_
 _atom_site_type_symbol
 _atom_site_label
 _atom_site_symmetry_multiplicity
 _atom_site_fract_x
 _atom_site_fract_y
 _atom_site_fract_z
 _atom_site_fract_occupancy
 Li  Li1  1  0.24865  0.50074  0.99835  1
 Li  Li2  1  0.49862  0.00071  0.99845  1
 Mn  Mn1  1  0.99872  0.00071  0.99829  1
 Mn  Mn2  1  0.74867  0.50073  0.99829  1
 O  O1  1  0.23311  0.00071  0.52946  1
 O  O2  1  0.76428  0.00074  0.46708  1
 O  O3  1  0.51429  0.50073  0.46710  1
 O  O4  1  0.98312  0.50071  0.52948  1
