CIF file written using JARVIS-Tools package.
data_CuHIO4
_symmetry_space_group_name_H-M  'Pnma'
_cell_length_a       11.0721
_cell_length_b       6.72507
_cell_length_c       4.53466
_cell_angle_alpha    90
_cell_angle_beta     90
_cell_angle_gamma    90

_symmetry_Int_Tables_number  62
_chemical_formula_structural  CuHIO4
_chemical_formula_sum  Cu4H4I4O6
_cell_volume  337.6548662444915
_cell_formula_units_Z  4
loop_
  _symmetry_equiv_pos_site_id
 _symmetry_equiv_pos_as_xyz
 1  'x, y, z'
loop_
 _atom_site_type_symbol
 _atom_site_label
 _atom_site_symmetry_multiplicity
 _atom_site_fract_x
 _atom_site_fract_y
 _atom_site_fract_z
 _atom_site_fract_occupancy
 Cu  Cu1  1  0.50000  0.00000  0.50000  1
 Cu  Cu2  1  0.00000  0.50000  0.00000  1
 Cu  Cu3  1  0.50000  0.50000  0.50000  1
 Cu  Cu4  1  0.00000  0.00000  0.00000  1
 H  H1  1  0.49386  0.25000  0.91251  1
 H  H2  1  -0.00614  0.25000  0.58749  1
 H  H3  1  0.50614  0.75000  0.08749  1
 H  H4  1  0.00614  0.75000  0.41251  1
 I  I1  1  0.74167  0.25000  0.53275  1
 I  I2  1  0.24167  0.25000  0.96725  1
 I  I3  1  0.25833  0.75000  0.46725  1
 I  I4  1  0.75833  0.75000  0.03275  1
 O  O1  1  0.88251  0.25000  0.31887  1
 O  O2  1  0.47006  0.75000  0.28976  1
 O  O3  1  0.11749  0.75000  0.68113  1
 O  O4  1  0.61749  0.75000  0.81887  1
 O  O5  1  0.66061  0.04772  0.31752  1
 O  O6  1  0.16061  0.45228  0.18248  1
 O  O7  1  0.38251  0.25000  0.18113  1
 O  O8  1  0.52994  0.25000  0.71024  1
 O  O9  1  0.33939  0.95228  0.68248  1
 O  O10  1  0.83939  0.54772  0.81752  1
 O  O11  1  0.66061  0.45228  0.31752  1
 O  O12  1  0.16061  0.04772  0.18248  1
 O  O13  1  0.33939  0.54772  0.68248  1
 O  O14  1  0.02994  0.25000  0.78976  1
 O  O15  1  0.83939  0.95228  0.81752  1
 O  O16  1  0.97006  0.75000  0.21024  1
