CIF file written using JARVIS-Tools package.
data_C2O3F2
_symmetry_space_group_name_H-M  'P2_12_12_1'
_cell_length_a       6.28059
_cell_length_b       6.81823
_cell_length_c       15.8323
_cell_angle_alpha    90
_cell_angle_beta     90
_cell_angle_gamma    90

_symmetry_Int_Tables_number  19
_chemical_formula_structural  C2O3F2
_chemical_formula_sum  C6O24F6
_cell_volume  677.9776696703802
_cell_formula_units_Z  8
loop_
  _symmetry_equiv_pos_site_id
 _symmetry_equiv_pos_as_xyz
 1  'x, y, z'
loop_
 _atom_site_type_symbol
 _atom_site_label
 _atom_site_symmetry_multiplicity
 _atom_site_fract_x
 _atom_site_fract_y
 _atom_site_fract_z
 _atom_site_fract_occupancy
 C  C1  1  0.73652  0.55666  0.60452  1
 C  C2  1  0.43889  0.42669  0.02995  1
 C  C3  1  0.26348  0.05666  0.89548  1
 C  C4  1  0.76348  0.44334  0.10452  1
 C  C5  1  0.06111  0.57331  0.52995  1
 C  C6  1  0.56111  0.92669  0.47005  1
 C  C7  1  0.93889  0.07331  0.97005  1
 C  C8  1  0.72075  0.95101  0.23352  1
 C  C9  1  0.23652  0.94334  0.39548  1
 C  C10  1  0.38818  0.96801  0.16532  1
 C  C11  1  0.11182  0.03199  0.66532  1
 C  C12  1  0.61182  0.46801  0.33468  1
 C  C13  1  0.22075  0.54899  0.76648  1
 C  C14  1  0.77925  0.04899  0.73352  1
 C  C15  1  0.27925  0.45101  0.26648  1
 C  C16  1  0.88818  0.53199  0.83468  1
 F  F1  1  0.41629  0.60491  0.78886  1
 F  F2  1  0.70651  0.37711  0.39966  1
 F  F3  1  0.20651  0.12289  0.60034  1
 F  F4  1  0.29349  0.87711  0.10034  1
 F  F5  1  0.31168  0.55341  0.98979  1
 F  F6  1  0.43349  0.93905  0.89925  1
 F  F7  1  0.93349  0.56095  0.10075  1
 F  F8  1  0.18832  0.44659  0.48979  1
 F  F9  1  0.58371  0.10491  0.71114  1
 F  F10  1  0.06651  0.06095  0.39925  1
 F  F11  1  0.56651  0.43905  0.60075  1
 F  F12  1  0.91629  0.89509  0.21114  1
 F  F13  1  0.68832  0.05341  0.51021  1
 F  F14  1  0.79349  0.62289  0.89966  1
 F  F15  1  0.08371  0.39509  0.28886  1
 F  F16  1  0.81168  0.94659  0.01021  1
 O  O1  1  0.82459  0.97201  0.79849  1
 O  O2  1  0.24720  0.79656  0.35514  1
 O  O3  1  0.74720  0.70344  0.64486  1
 O  O4  1  0.40819  0.39762  0.33274  1
 O  O5  1  0.90819  0.10238  0.66726  1
 O  O6  1  0.59181  0.89762  0.16726  1
 O  O7  1  0.11145  0.96734  0.94464  1
 O  O8  1  0.61145  0.53266  0.05536  1
 O  O9  1  0.38855  0.03266  0.44464  1
 O  O10  1  0.88855  0.46734  0.55536  1
 O  O11  1  0.25280  0.20344  0.85514  1
 O  O12  1  0.09181  0.60238  0.83274  1
 O  O13  1  0.09702  0.74433  0.53716  1
 O  O14  1  0.59702  0.75567  0.46284  1
 O  O15  1  0.19596  0.91380  0.70931  1
 O  O16  1  0.90298  0.24433  0.96284  1
 O  O17  1  0.40298  0.25567  0.03716  1
 O  O18  1  0.80404  0.41380  0.79069  1
 O  O19  1  0.30404  0.08620  0.20931  1
 O  O20  1  0.67541  0.02799  0.29849  1
 O  O21  1  0.69596  0.58620  0.29069  1
 O  O22  1  0.17541  0.47201  0.70151  1
 O  O23  1  0.32459  0.52799  0.20151  1
 O  O24  1  0.75280  0.29656  0.14486  1
