CIF file written using JARVIS-Tools package.
data_FeCoO2
_symmetry_space_group_name_H-M  'R-3m'
_cell_length_a       5.0488
_cell_length_b       5.0488
_cell_length_c       5.0488
_cell_angle_alpha    35.4613
_cell_angle_beta     35.4613
_cell_angle_gamma    35.4614

_symmetry_Int_Tables_number  166
_chemical_formula_structural  FeCoO2
_chemical_formula_sum  FeCoO2
_cell_volume  38.70675671389593
_cell_formula_units_Z  1
loop_
  _symmetry_equiv_pos_site_id
 _symmetry_equiv_pos_as_xyz
 1  'x, y, z'
loop_
 _atom_site_type_symbol
 _atom_site_label
 _atom_site_symmetry_multiplicity
 _atom_site_fract_x
 _atom_site_fract_y
 _atom_site_fract_z
 _atom_site_fract_occupancy
 Co  Co1  1  0.00000  0.00000  0.00000  1
 Fe  Fe1  1  0.50000  0.50000  0.50000  1
 O  O1  1  0.75027  0.75027  0.75027  1
 O  O2  1  0.24973  0.24973  0.24973  1
