CIF file written using JARVIS-Tools package.
data_OsO2F3
_symmetry_space_group_name_H-M  'P2_1/c'
_cell_length_a       5.36725
_cell_length_b       9.90786
_cell_length_c       12.1885
_cell_angle_alpha    90
_cell_angle_beta     99.5174
_cell_angle_gamma    90

_symmetry_Int_Tables_number  14
_chemical_formula_structural  OsO2F3
_chemical_formula_sum  Os8O6F24
_cell_volume  639.2356333928615
_cell_formula_units_Z  8
loop_
  _symmetry_equiv_pos_site_id
 _symmetry_equiv_pos_as_xyz
 1  'x, y, z'
loop_
 _atom_site_type_symbol
 _atom_site_label
 _atom_site_symmetry_multiplicity
 _atom_site_fract_x
 _atom_site_fract_y
 _atom_site_fract_z
 _atom_site_fract_occupancy
 F  F1  1  0.89029  0.83883  0.84857  1
 F  F2  1  0.18885  0.40689  0.05276  1
 F  F3  1  0.89029  0.66117  0.34857  1
 F  F4  1  0.26446  0.69957  0.94937  1
 F  F5  1  0.19658  0.58416  0.55520  1
 F  F6  1  0.10971  0.33883  0.65143  1
 F  F7  1  0.18885  0.09311  0.55276  1
 F  F8  1  0.73554  0.30043  0.05063  1
 F  F9  1  0.09414  0.83518  0.63932  1
 F  F10  1  0.80342  0.08416  0.94480  1
 F  F11  1  0.26446  0.80043  0.44937  1
 F  F12  1  0.73554  0.19957  0.55063  1
 F  F13  1  0.10971  0.16117  0.15143  1
 F  F14  1  0.09414  0.66482  0.13932  1
 F  F15  1  0.81115  0.90689  0.44724  1
 F  F16  1  0.98383  0.43430  0.26688  1
 F  F17  1  0.98383  0.06570  0.76688  1
 F  F18  1  0.90586  0.33518  0.86068  1
 F  F19  1  0.81115  0.59311  0.94724  1
 F  F20  1  0.01617  0.56570  0.73312  1
 F  F21  1  0.90586  0.16482  0.36068  1
 F  F22  1  0.19658  0.91584  0.05520  1
 F  F23  1  0.80342  0.41584  0.44480  1
 F  F24  1  0.01617  0.93430  0.23312  1
 O  O1  1  0.27892  0.16521  0.95887  1
 O  O2  1  0.44440  0.56899  0.35078  1
 O  O3  1  0.72108  0.83479  0.04113  1
 O  O4  1  0.49304  0.66304  0.75313  1
 O  O5  1  0.49304  0.83696  0.25313  1
 O  O6  1  0.59669  0.92637  0.65106  1
 O  O7  1  0.50696  0.33696  0.24687  1
 O  O8  1  0.72108  0.66521  0.54113  1
 O  O9  1  0.40331  0.07363  0.34894  1
 O  O10  1  0.55560  0.06899  0.14922  1
 O  O11  1  0.55560  0.43101  0.64922  1
 O  O12  1  0.50696  0.16304  0.74687  1
 O  O13  1  0.40331  0.42637  0.84894  1
 O  O14  1  0.59669  0.57363  0.15106  1
 O  O15  1  0.27892  0.33479  0.45887  1
 O  O16  1  0.44440  0.93101  0.85078  1
 Os  Os1  1  0.02911  0.24501  0.99620  1
 Os  Os2  1  0.97089  0.75499  0.00380  1
 Os  Os3  1  0.64747  0.49073  0.27601  1
 Os  Os4  1  0.35253  0.50927  0.72399  1
 Os  Os5  1  0.64747  0.00927  0.77601  1
 Os  Os6  1  0.97089  0.74501  0.50380  1
 Os  Os7  1  0.35253  0.99073  0.22399  1
 Os  Os8  1  0.02911  0.25499  0.49620  1
