CIF file written using JARVIS-Tools package.
data_SrTeO3
_symmetry_space_group_name_H-M  'P1'
_cell_length_a       5.96569
_cell_length_b       8.50475
_cell_length_c       11.9037
_cell_angle_alpha    66.4975
_cell_angle_beta     92.7188
_cell_angle_gamma    93.4396

_symmetry_Int_Tables_number  1
_chemical_formula_structural  SrTeO3
_chemical_formula_sum  Sr6Te6O8
_cell_volume  552.6723755159867
_cell_formula_units_Z  6
loop_
  _symmetry_equiv_pos_site_id
 _symmetry_equiv_pos_as_xyz
 1  'x, y, z'
loop_
 _atom_site_type_symbol
 _atom_site_label
 _atom_site_symmetry_multiplicity
 _atom_site_fract_x
 _atom_site_fract_y
 _atom_site_fract_z
 _atom_site_fract_occupancy
 O  O1  1  0.15181  0.57733  0.69036  1
 O  O2  1  0.42557  0.24491  0.35113  1
 O  O3  1  0.29218  0.94103  0.65460  1
 O  O4  1  0.64221  0.58648  0.78535  1
 O  O5  1  0.59651  -0.00186  0.83913  1
 O  O6  1  0.74257  -0.01354  0.61886  1
 O  O7  1  0.22747  0.99783  0.09348  1
 O  O8  1  0.78506  0.87091  0.41432  1
 O  O9  1  0.24730  0.91145  0.38642  1
 O  O10  1  0.25919  0.58392  0.22742  1
 O  O11  1  0.63359  0.35964  0.03634  1
 O  O12  1  -0.05211  0.17928  0.25058  1
 O  O13  1  0.13899  0.49054  0.48091  1
 O  O14  1  0.00278  0.81524  0.97700  1
 O  O15  1  0.17986  0.21784  0.73313  1
 O  O16  1  0.71267  0.55907  0.22958  1
 O  O17  1  0.26509  0.56955  0.94434  1
 O  O18  1  0.74888  0.94430  0.11142  1
 Sr  Sr1  1  -0.01578  0.77914  0.77851  1
 Sr  Sr2  1  0.00029  0.74855  0.29022  1
 Sr  Sr3  1  0.53192  0.08971  0.22091  1
 Sr  Sr4  1  0.45258  0.78460  0.03255  1
 Sr  Sr5  1  0.48731  0.76257  0.57222  1
 Sr  Sr6  1  0.97202  0.47115  0.11215  1
 Te  Te1  1  0.48075  0.46523  0.34744  1
 Te  Te2  1  0.01249  0.40923  0.63848  1
 Te  Te3  1  0.43905  0.42564  0.89549  1
 Te  Te4  1  0.96703  0.03190  -0.01309  1
 Te  Te5  1  0.51948  0.09765  0.66924  1
 Te  Te6  1  0.01905  0.04082  0.41590  1
