CIF file written using JARVIS-Tools package.
data_PrSi2Ag2
_symmetry_space_group_name_H-M  'I4/mmm'
_cell_length_a       4.28337
_cell_length_b       4.28336
_cell_length_c       6.14291
_cell_angle_alpha    110.404
_cell_angle_beta     110.404
_cell_angle_gamma    90.0001

_symmetry_Int_Tables_number  139
_chemical_formula_structural  PrSi2Ag2
_chemical_formula_sum  PrSi2Ag2
_cell_volume  98.05326993562687
_cell_formula_units_Z  1
loop_
  _symmetry_equiv_pos_site_id
 _symmetry_equiv_pos_as_xyz
 1  'x, y, z'
loop_
 _atom_site_type_symbol
 _atom_site_label
 _atom_site_symmetry_multiplicity
 _atom_site_fract_x
 _atom_site_fract_y
 _atom_site_fract_z
 _atom_site_fract_occupancy
 Ag  Ag1  1  0.25000  0.75000  0.50000  1
 Ag  Ag2  1  0.75000  0.25000  0.50000  1
 Pr  Pr1  1  0.00000  0.00000  0.00000  1
 Si  Si1  1  0.60985  0.60985  0.21969  1
 Si  Si2  1  0.39015  0.39015  0.78031  1
