CIF file written using JARVIS-Tools package.
data_Ba2U2O7
_symmetry_space_group_name_H-M  'Imma'
_cell_length_a       8.13894
_cell_length_b       8.13894
_cell_length_c       8.13894
_cell_angle_alpha    91.2929
_cell_angle_beta     119.068
_cell_angle_gamma    119.445

_symmetry_Int_Tables_number  74
_chemical_formula_structural  Ba2U2O7
_chemical_formula_sum  Ba4U4O4
_cell_volume  385.403546270572
_cell_formula_units_Z  2
loop_
  _symmetry_equiv_pos_site_id
 _symmetry_equiv_pos_as_xyz
 1  'x, y, z'
loop_
 _atom_site_type_symbol
 _atom_site_label
 _atom_site_symmetry_multiplicity
 _atom_site_fract_x
 _atom_site_fract_y
 _atom_site_fract_z
 _atom_site_fract_occupancy
 Ba  Ba1  1  0.00000  0.00000  0.00000  1
 Ba  Ba2  1  0.00000  0.50000  0.50000  1
 Ba  Ba3  1  0.00000  0.50000  0.00000  1
 Ba  Ba4  1  0.50000  0.00000  -0.00000  1
 O  O1  1  0.84073  0.75000  0.59073  1
 O  O2  1  0.63675  0.32298  0.55152  1
 O  O3  1  0.22854  0.17702  0.81377  1
 O  O4  1  0.22854  0.91477  0.55152  1
 O  O5  1  0.77146  0.08523  0.44848  1
 O  O6  1  0.28468  0.90623  0.19091  1
 O  O7  1  0.71532  0.40623  0.12155  1
 O  O8  1  0.36325  0.41477  0.18623  1
 O  O9  1  0.15927  0.25000  0.40927  1
 O  O10  1  0.36325  0.67702  0.44848  1
 O  O11  1  0.71532  0.09377  0.80909  1
 O  O12  1  0.63675  0.58523  0.81377  1
 O  O13  1  0.77146  0.82298  0.18623  1
 O  O14  1  0.28468  0.59377  0.87845  1
 U  U1  1  0.50000  0.00000  0.50000  1
 U  U2  1  -0.00000  0.00000  0.50000  1
 U  U3  1  0.50000  0.50000  0.00000  1
 U  U4  1  0.50000  0.50000  0.50000  1
