CIF file written using JARVIS-Tools package.
data_Pb4IF7
_symmetry_space_group_name_H-M  'Cmcm'
_cell_length_a       6.04522
_cell_length_b       6.11832
_cell_length_c       12.8307
_cell_angle_alpha    103.794
_cell_angle_beta     90
_cell_angle_gamma    90

_symmetry_Int_Tables_number  63
_chemical_formula_structural  Pb4IF7
_chemical_formula_sum  Pb8I2F4
_cell_volume  460.87835786232114
_cell_formula_units_Z  2
loop_
  _symmetry_equiv_pos_site_id
 _symmetry_equiv_pos_as_xyz
 1  'x, y, z'
loop_
 _atom_site_type_symbol
 _atom_site_label
 _atom_site_symmetry_multiplicity
 _atom_site_fract_x
 _atom_site_fract_y
 _atom_site_fract_z
 _atom_site_fract_occupancy
 F  F1  1  0.00000  0.22500  -0.00000  1
 F  F2  1  0.02033  0.88784  0.24297  1
 F  F3  1  0.47967  0.35513  0.24297  1
 F  F4  1  0.97967  0.64487  0.75703  1
 F  F5  1  0.47967  0.88784  0.24297  1
 F  F6  1  0.97967  0.11216  0.75703  1
 F  F7  1  0.52033  0.64487  0.75703  1
 F  F8  1  0.02033  0.35513  0.24297  1
 F  F9  1  0.50000  0.22500  -0.00000  1
 F  F10  1  0.00000  0.77500  0.00000  1
 F  F11  1  0.52033  0.11216  0.75703  1
 F  F12  1  0.25000  0.43823  0.87647  1
 F  F13  1  0.50000  0.77500  0.00000  1
 F  F14  1  0.75000  0.56177  0.12353  1
 I  I1  1  0.25000  0.75022  0.50043  1
 I  I2  1  0.75000  0.24978  0.49957  1
 Pb  Pb1  1  0.25000  0.94124  0.88247  1
 Pb  Pb2  1  0.25000  0.17542  0.35084  1
 Pb  Pb3  1  0.75000  0.82458  0.64916  1
 Pb  Pb4  1  0.25000  0.54763  0.09527  1
 Pb  Pb5  1  0.75000  0.45237  0.90473  1
 Pb  Pb6  1  0.25000  0.34632  0.69263  1
 Pb  Pb7  1  0.75000  0.65368  0.30737  1
 Pb  Pb8  1  0.75000  0.05876  0.11753  1
