CIF file written using JARVIS-Tools package.
data_Yb2Ag7
_symmetry_space_group_name_H-M  'Cmcm'
_cell_length_a       5.44374
_cell_length_b       5.44374
_cell_length_c       14.0463
_cell_angle_alpha    90
_cell_angle_beta     90
_cell_angle_gamma    119.578

_symmetry_Int_Tables_number  63
_chemical_formula_structural  Yb2Ag7
_chemical_formula_sum  Yb4Ag4
_cell_volume  362.0082188008944
_cell_formula_units_Z  2
loop_
  _symmetry_equiv_pos_site_id
 _symmetry_equiv_pos_as_xyz
 1  'x, y, z'
loop_
 _atom_site_type_symbol
 _atom_site_label
 _atom_site_symmetry_multiplicity
 _atom_site_fract_x
 _atom_site_fract_y
 _atom_site_fract_z
 _atom_site_fract_occupancy
 Ag  Ag1  1  0.17879  0.68162  0.75000  1
 Ag  Ag2  1  0.48109  0.15940  0.07464  1
 Ag  Ag3  1  0.84060  0.51891  0.92536  1
 Ag  Ag4  1  0.68162  0.17879  0.75000  1
 Ag  Ag5  1  0.15940  0.48109  0.07464  1
 Ag  Ag6  1  0.48109  0.15940  0.42536  1
 Ag  Ag7  1  0.51891  0.84060  0.57464  1
 Ag  Ag8  1  0.51891  0.84060  0.92536  1
 Ag  Ag9  1  0.32206  0.32206  0.25000  1
 Ag  Ag10  1  0.67794  0.67794  0.75000  1
 Ag  Ag11  1  0.82121  0.31838  0.25000  1
 Ag  Ag12  1  0.31838  0.82121  0.25000  1
 Ag  Ag13  1  0.84060  0.51891  0.57464  1
 Ag  Ag14  1  0.15940  0.48109  0.42536  1
 Yb  Yb1  1  0.18499  0.18499  0.61578  1
 Yb  Yb2  1  0.81501  0.81501  0.38422  1
 Yb  Yb3  1  0.18499  0.18499  0.88422  1
 Yb  Yb4  1  0.81501  0.81501  0.11578  1
