CIF file written using JARVIS-Tools package.
data_BaNb2O6
_symmetry_space_group_name_H-M  'Pbam'
_cell_length_a       3.94938
_cell_length_b       6.19243
_cell_length_c       10.5411
_cell_angle_alpha    90
_cell_angle_beta     90.0015
_cell_angle_gamma    90

_symmetry_Int_Tables_number  55
_chemical_formula_structural  BaNb2O6
_chemical_formula_sum  Ba2Nb4O2
_cell_volume  257.7962855680091
_cell_formula_units_Z  2
loop_
  _symmetry_equiv_pos_site_id
 _symmetry_equiv_pos_as_xyz
 1  'x, y, z'
loop_
 _atom_site_type_symbol
 _atom_site_label
 _atom_site_symmetry_multiplicity
 _atom_site_fract_x
 _atom_site_fract_y
 _atom_site_fract_z
 _atom_site_fract_occupancy
 Ba  Ba1  1  0.00000  0.50000  0.50000  1
 Ba  Ba2  1  0.00000  0.00000  0.00000  1
 Nb  Nb1  1  0.50030  0.04731  0.65211  1
 Nb  Nb2  1  0.49970  0.54731  0.84789  1
 Nb  Nb3  1  0.49970  0.95269  0.34789  1
 Nb  Nb4  1  0.50030  0.45269  0.15211  1
 O  O1  1  0.99994  0.90518  0.34730  1
 O  O2  1  0.99994  0.59482  0.84730  1
 O  O3  1  0.00006  0.09482  0.65270  1
 O  O4  1  0.49999  0.11032  0.19259  1
 O  O5  1  0.50001  0.61032  0.30741  1
 O  O6  1  0.49995  0.30329  0.95941  1
 O  O7  1  0.00006  0.40518  0.15270  1
 O  O8  1  0.50005  0.69671  0.04059  1
 O  O9  1  0.49999  0.38968  0.69259  1
 O  O10  1  0.50001  0.88968  0.80741  1
 O  O11  1  0.49995  0.19671  0.45941  1
 O  O12  1  0.50005  0.80329  0.54059  1
