CIF file written using JARVIS-Tools package.
data_CrO3
_symmetry_space_group_name_H-M  'Ama2'
_cell_length_a       4.7749
_cell_length_b       4.83557
_cell_length_c       5.76067
_cell_angle_alpha    90
_cell_angle_beta     90
_cell_angle_gamma    119.586

_symmetry_Int_Tables_number  40
_chemical_formula_structural  CrO3
_chemical_formula_sum  Cr2O6
_cell_volume  115.66805851143882
_cell_formula_units_Z  2
loop_
  _symmetry_equiv_pos_site_id
 _symmetry_equiv_pos_as_xyz
 1  'x, y, z'
loop_
 _atom_site_type_symbol
 _atom_site_label
 _atom_site_symmetry_multiplicity
 _atom_site_fract_x
 _atom_site_fract_y
 _atom_site_fract_z
 _atom_site_fract_occupancy
 Cr  Cr1  1  0.56368  0.79586  0.25000  1
 Cr  Cr2  1  0.76783  0.20414  0.75000  1
 O  O1  1  0.87895  0.76386  0.25000  1
 O  O2  1  0.11508  0.23614  0.75000  1
 O  O3  1  0.55307  0.00000  0.00000  1
 O  O4  1  0.55307  0.00000  0.50000  1
 O  O5  1  0.81026  0.55219  0.75000  1
 O  O6  1  0.25807  0.44781  0.25000  1
