CIF file written using JARVIS-Tools package.
data_Sr5B3BrO9
_symmetry_space_group_name_H-M  'C222_1'
_cell_length_a       7.57876
_cell_length_b       8.71434
_cell_length_c       8.71434
_cell_angle_alpha    109.224
_cell_angle_beta     90
_cell_angle_gamma    90

_symmetry_Int_Tables_number  20
_chemical_formula_structural  Sr5B3BrO9
_chemical_formula_sum  Sr0B6Br2O8
_cell_volume  543.4375632610358
_cell_formula_units_Z  2
loop_
  _symmetry_equiv_pos_site_id
 _symmetry_equiv_pos_as_xyz
 1  'x, y, z'
loop_
 _atom_site_type_symbol
 _atom_site_label
 _atom_site_symmetry_multiplicity
 _atom_site_fract_x
 _atom_site_fract_y
 _atom_site_fract_z
 _atom_site_fract_occupancy
 B  B1  1  0.50000  0.37206  0.37206  1
 B  B2  1  0.02772  0.98382  0.40661  1
 B  B3  1  0.97228  0.40661  0.98382  1
 B  B4  1  0.52772  0.01618  0.59339  1
 B  B5  1  0.47228  0.59339  0.01618  1
 B  B6  1  0.00000  0.62794  0.62794  1
 Br  Br1  1  0.75000  0.93828  0.06172  1
 Br  Br2  1  0.25000  0.06172  0.93828  1
 O  O1  1  0.50000  0.51058  0.51058  1
 O  O2  1  0.11551  0.97059  0.26403  1
 O  O3  1  0.88449  0.26403  0.97059  1
 O  O4  1  0.48597  0.15552  0.55731  1
 O  O5  1  0.51342  0.48350  0.86181  1
 O  O6  1  0.48658  0.86181  0.48350  1
 O  O7  1  0.98658  0.13819  0.51650  1
 O  O8  1  0.16101  0.69149  0.69435  1
 O  O9  1  0.00000  0.48942  0.48942  1
 O  O10  1  0.01403  0.44269  0.84448  1
 O  O11  1  0.66101  0.30851  0.30565  1
 O  O12  1  0.51403  0.55731  0.15552  1
 O  O13  1  0.33899  0.30565  0.30851  1
 O  O14  1  0.61551  0.02941  0.73597  1
 O  O15  1  0.01342  0.51650  0.13819  1
 O  O16  1  0.83899  0.69435  0.69149  1
 O  O17  1  0.98597  0.84448  0.44269  1
 O  O18  1  0.38449  0.73597  0.02941  1
 Sr  Sr1  1  0.42889  0.00666  0.26651  1
 Sr  Sr2  1  0.25000  0.36411  0.63589  1
 Sr  Sr3  1  0.25000  0.63694  0.36306  1
 Sr  Sr4  1  0.92889  0.99334  0.73349  1
 Sr  Sr5  1  0.00000  0.24259  0.24259  1
 Sr  Sr6  1  0.07111  0.73349  0.99334  1
 Sr  Sr7  1  0.75000  0.63589  0.36411  1
 Sr  Sr8  1  0.75000  0.36306  0.63694  1
 Sr  Sr9  1  0.57111  0.26651  0.00666  1
 Sr  Sr10  1  0.50000  0.75741  0.75741  1
