CIF file written using JARVIS-Tools package.
data_NaH2CSO4F3
_symmetry_space_group_name_H-M  'P2_1/c'
_cell_length_a       6.74179
_cell_length_b       9.98343
_cell_length_c       10.3064
_cell_angle_alpha    115.467
_cell_angle_beta     90
_cell_angle_gamma    90

_symmetry_Int_Tables_number  14
_chemical_formula_structural  NaH2CSO4F3
_chemical_formula_sum  Na4H8C4S4O6F2
_cell_volume  626.2817856454578
_cell_formula_units_Z  4
loop_
  _symmetry_equiv_pos_site_id
 _symmetry_equiv_pos_as_xyz
 1  'x, y, z'
loop_
 _atom_site_type_symbol
 _atom_site_label
 _atom_site_symmetry_multiplicity
 _atom_site_fract_x
 _atom_site_fract_y
 _atom_site_fract_z
 _atom_site_fract_occupancy
 C  C1  1  0.68550  0.10708  0.38251  1
 C  C2  1  0.31450  0.89292  0.61749  1
 C  C3  1  0.18550  0.89292  0.11749  1
 C  C4  1  0.81450  0.10708  0.88251  1
 F  F1  1  0.66873  0.02756  0.23932  1
 F  F2  1  0.50544  0.12034  0.44458  1
 F  F3  1  0.18990  0.96236  0.56373  1
 F  F4  1  0.99456  0.12034  0.94458  1
 F  F5  1  0.81010  0.03764  0.43627  1
 F  F6  1  0.16873  0.97244  0.26068  1
 F  F7  1  0.31010  0.96236  0.06373  1
 F  F8  1  0.00544  0.87966  0.05542  1
 F  F9  1  0.68990  0.03764  0.93627  1
 F  F10  1  0.33127  0.97244  0.76068  1
 F  F11  1  0.83127  0.02756  0.73932  1
 F  F12  1  0.49456  0.87966  0.55542  1
 H  H1  1  0.79848  0.73306  0.39007  1
 H  H2  1  0.29848  0.26694  0.10993  1
 H  H3  1  0.18561  0.25815  0.67777  1
 H  H4  1  0.70152  0.73306  0.89007  1
 H  H5  1  0.31439  0.25815  0.17777  1
 H  H6  1  0.20152  0.26694  0.60993  1
 H  H7  1  0.81439  0.74185  0.32223  1
 H  H8  1  0.68561  0.74185  0.82223  1
 Na  Na1  1  0.01959  0.54439  0.75127  1
 Na  Na2  1  0.48041  0.54439  0.25127  1
 Na  Na3  1  0.98041  0.45561  0.24873  1
 Na  Na4  1  0.51959  0.45561  0.74873  1
 O  O1  1  0.20300  0.63160  0.41868  1
 O  O2  1  0.02568  0.72727  0.65285  1
 O  O3  1  0.79700  0.36840  0.58132  1
 O  O4  1  0.52568  0.27273  0.84715  1
 O  O5  1  0.38122  0.64854  0.63898  1
 O  O6  1  0.20325  0.49378  0.10239  1
 O  O7  1  -0.02568  0.27273  0.34715  1
 O  O8  1  0.47432  0.72727  0.15285  1
 O  O9  1  0.88122  0.35146  0.86102  1
 O  O10  1  0.29700  0.63160  0.91868  1
 O  O11  1  0.70300  0.36840  0.08132  1
 O  O12  1  0.29675  0.49378  0.60239  1
 O  O13  1  0.70325  0.50622  0.39761  1
 O  O14  1  0.79675  0.50622  0.89761  1
 O  O15  1  0.61878  0.35146  0.36102  1
 O  O16  1  0.11878  0.64854  0.13898  1
 S  S1  1  0.79122  0.29486  0.42599  1
 S  S2  1  0.29122  0.70514  0.07401  1
 S  S3  1  0.20878  0.70514  0.57401  1
 S  S4  1  0.70878  0.29486  0.92599  1
