CIF file written using JARVIS-Tools package.
data_Rb2CdP2Se6
_symmetry_space_group_name_H-M  'P2_1/c'
_cell_length_a       6.74309
_cell_length_b       7.71241
_cell_length_c       12.6903
_cell_angle_alpha    90
_cell_angle_beta     90
_cell_angle_gamma    99.8231

_symmetry_Int_Tables_number  14
_chemical_formula_structural  Rb2CdP2Se6
_chemical_formula_sum  Rb4Cd2P4Se2
_cell_volume  650.2893914917879
_cell_formula_units_Z  2
loop_
  _symmetry_equiv_pos_site_id
 _symmetry_equiv_pos_as_xyz
 1  'x, y, z'
loop_
 _atom_site_type_symbol
 _atom_site_label
 _atom_site_symmetry_multiplicity
 _atom_site_fract_x
 _atom_site_fract_y
 _atom_site_fract_z
 _atom_site_fract_occupancy
 Cd  Cd1  1  0.50000  0.50000  0.00000  1
 Cd  Cd2  1  0.00000  0.00000  0.50000  1
 P  P1  1  0.52001  0.87115  0.45820  1
 P  P2  1  0.97999  0.62885  0.95820  1
 P  P3  1  0.02001  0.37115  0.04180  1
 P  P4  1  0.47999  0.12885  0.54180  1
 Rb  Rb1  1  0.74766  0.01809  0.81455  1
 Rb  Rb2  1  0.75234  0.48191  0.31455  1
 Rb  Rb3  1  0.25234  0.98191  0.18545  1
 Rb  Rb4  1  0.24766  0.51809  0.68545  1
 Se  Se1  1  0.79657  0.54904  0.81578  1
 Se  Se2  1  0.70343  0.95096  0.31578  1
 Se  Se3  1  0.29318  0.76396  0.93048  1
 Se  Se4  1  0.20682  0.73604  0.43048  1
 Se  Se5  1  0.70682  0.23604  0.06952  1
 Se  Se6  1  0.20343  0.45096  0.18422  1
 Se  Se7  1  0.31123  0.27187  0.43007  1
 Se  Se8  1  0.18877  0.22813  0.93007  1
 Se  Se9  1  0.68877  0.72813  0.56993  1
 Se  Se10  1  0.29657  0.04904  0.68422  1
 Se  Se11  1  0.79318  0.26396  0.56952  1
 Se  Se12  1  0.81123  0.77187  0.06993  1
