CIF file written using JARVIS-Tools package.
data_PtCI2O
_symmetry_space_group_name_H-M  'C2/c'
_cell_length_a       6.88983
_cell_length_b       6.88983
_cell_length_c       12.9003
_cell_angle_alpha    100.839
_cell_angle_beta     104.733
_cell_angle_gamma    99.8881

_symmetry_Int_Tables_number  15
_chemical_formula_structural  PtCI2O
_chemical_formula_sum  Pt4C4I8O4
_cell_volume  565.9245008026423
_cell_formula_units_Z  4
loop_
  _symmetry_equiv_pos_site_id
 _symmetry_equiv_pos_as_xyz
 1  'x, y, z'
loop_
 _atom_site_type_symbol
 _atom_site_label
 _atom_site_symmetry_multiplicity
 _atom_site_fract_x
 _atom_site_fract_y
 _atom_site_fract_z
 _atom_site_fract_occupancy
 C  C1  1  0.70272  0.57120  0.41199  1
 C  C2  1  0.65922  0.29074  0.08801  1
 C  C3  1  0.34078  0.70926  0.91199  1
 C  C4  1  0.29728  0.42880  0.58801  1
 I  I1  1  0.97385  0.19531  0.92379  1
 I  I2  1  0.02615  0.80469  0.07621  1
 I  I3  1  0.77152  0.05006  0.57621  1
 I  I4  1  0.22261  0.43114  0.27070  1
 I  I5  1  0.33956  0.04809  0.77070  1
 I  I6  1  0.77739  0.56886  0.72930  1
 I  I7  1  0.22848  0.94994  0.42379  1
 I  I8  1  0.66044  0.95191  0.22930  1
 O  O1  1  0.43330  0.58581  0.90378  1
 O  O2  1  0.56670  0.41419  0.09622  1
 O  O3  1  0.81797  0.47048  0.40378  1
 O  O4  1  0.18203  0.52952  0.59622  1
 Pt  Pt1  1  0.48797  0.26895  0.58005  1
 Pt  Pt2  1  0.51203  0.73105  0.41995  1
 Pt  Pt3  1  0.18890  0.90792  0.91995  1
 Pt  Pt4  1  0.81110  0.09208  0.08005  1
