CIF file written using JARVIS-Tools package.
data_AlPS4
_symmetry_space_group_name_H-M  'P222'
_cell_length_a       5.69553
_cell_length_b       5.69759
_cell_length_c       9.36719
_cell_angle_alpha    90
_cell_angle_beta     90
_cell_angle_gamma    90

_symmetry_Int_Tables_number  16
_chemical_formula_structural  AlPS4
_chemical_formula_sum  Al2P2S8
_cell_volume  303.97278685746113
_cell_formula_units_Z  2
loop_
  _symmetry_equiv_pos_site_id
 _symmetry_equiv_pos_as_xyz
 1  'x, y, z'
loop_
 _atom_site_type_symbol
 _atom_site_label
 _atom_site_symmetry_multiplicity
 _atom_site_fract_x
 _atom_site_fract_y
 _atom_site_fract_z
 _atom_site_fract_occupancy
 Al  Al1  1  0.00000  0.00000  0.00000  1
 Al  Al2  1  0.50000  0.00000  0.50000  1
 P  P1  1  0.00000  0.50000  0.00000  1
 P  P2  1  0.00000  0.00000  0.50000  1
 S  S1  1  0.21232  0.27575  0.11728  1
 S  S2  1  0.21232  0.72425  0.88272  1
 S  S3  1  0.78768  0.27575  0.88272  1
 S  S4  1  0.78768  0.72425  0.11728  1
 S  S5  1  0.77438  0.79161  0.61978  1
 S  S6  1  0.77438  0.20839  0.38022  1
 S  S7  1  0.22562  0.79161  0.38022  1
 S  S8  1  0.22562  0.20839  0.61978  1
