CIF file written using JARVIS-Tools package.
data_Te7As5I
_symmetry_space_group_name_H-M  'Cm'
_cell_length_a       4.05073
_cell_length_b       7.5451
_cell_length_c       14.0156
_cell_angle_alpha    76.7801
_cell_angle_beta     81.6911
_cell_angle_gamma    74.4289

_symmetry_Int_Tables_number  8
_chemical_formula_structural  Te7As5I
_chemical_formula_sum  Te7As5I
_cell_volume  400.12176862868733
_cell_formula_units_Z  1
loop_
  _symmetry_equiv_pos_site_id
 _symmetry_equiv_pos_as_xyz
 1  'x, y, z'
loop_
 _atom_site_type_symbol
 _atom_site_label
 _atom_site_symmetry_multiplicity
 _atom_site_fract_x
 _atom_site_fract_y
 _atom_site_fract_z
 _atom_site_fract_occupancy
 As  As1  1  0.50230  -0.00962  0.00502  1
 As  As2  1  0.80794  0.12449  0.25963  1
 As  As3  1  0.12136  0.29362  0.46365  1
 As  As4  1  0.45099  0.41862  0.67941  1
 As  As5  1  0.76293  0.58219  0.89195  1
 I  I1  1  0.30231  0.32192  0.07347  1
 Te  Te1  1  0.61108  0.45901  0.31882  1
 Te  Te2  1  0.92117  0.60649  0.55117  1
 Te  Te3  1  0.22662  0.76768  0.77909  1
 Te  Te4  1  0.95928  0.25103  0.83041  1
 Te  Te5  1  0.64888  0.10457  0.59767  1
 Te  Te6  1  0.33968  0.94518  0.37546  1
 Te  Te7  1  0.04006  0.80331  0.11657  1
