CIF file written using JARVIS-Tools package.
data_Co2As
_symmetry_space_group_name_H-M  'P-62m'
_cell_length_a       11.922
_cell_length_b       11.922
_cell_length_c       3.57785
_cell_angle_alpha    90
_cell_angle_beta     90
_cell_angle_gamma    120

_symmetry_Int_Tables_number  189
_chemical_formula_structural  Co2As
_chemical_formula_sum  Co24As2
_cell_volume  440.402717006213
_cell_formula_units_Z  12
loop_
  _symmetry_equiv_pos_site_id
 _symmetry_equiv_pos_as_xyz
 1  'x, y, z'
loop_
 _atom_site_type_symbol
 _atom_site_label
 _atom_site_symmetry_multiplicity
 _atom_site_fract_x
 _atom_site_fract_y
 _atom_site_fract_z
 _atom_site_fract_occupancy
 As  As1  1  0.66667  0.33333  0.00000  1
 As  As2  1  0.15935  0.33598  0.50000  1
 As  As3  1  0.66402  0.82337  0.50000  1
 As  As4  1  0.84065  0.17663  0.50000  1
 As  As5  1  0.82337  0.66402  0.50000  1
 As  As6  1  0.17663  0.84065  0.50000  1
 As  As7  1  0.00000  0.50162  0.00000  1
 As  As8  1  0.49838  0.49838  0.00000  1
 As  As9  1  0.50162  0.00000  0.00000  1
 As  As10  1  0.33333  0.66667  0.00000  1
 As  As11  1  0.00000  0.00000  0.00000  1
 As  As12  1  0.33598  0.15935  0.50000  1
 Co  Co1  1  -0.00000  0.79741  0.00000  1
 Co  Co2  1  0.54204  0.17215  0.50000  1
 Co  Co3  1  0.68862  0.68862  0.00000  1
 Co  Co4  1  0.00000  0.31138  0.00000  1
 Co  Co5  1  0.79741  0.00000  0.00000  1
 Co  Co6  1  0.20259  0.20259  0.00000  1
 Co  Co7  1  0.31138  0.00000  0.00000  1
 Co  Co8  1  0.45796  0.63012  0.50000  1
 Co  Co9  1  0.71764  0.17497  0.00000  1
 Co  Co10  1  0.82503  0.54268  0.00000  1
 Co  Co11  1  0.45732  0.28236  0.00000  1
 Co  Co12  1  0.28236  0.45732  0.00000  1
 Co  Co13  1  0.54268  0.82503  0.00000  1
 Co  Co14  1  0.17497  0.71764  0.00000  1
 Co  Co15  1  0.36988  0.82785  0.50000  1
 Co  Co16  1  0.37258  0.37258  0.50000  1
 Co  Co17  1  -0.00000  0.12816  0.50000  1
 Co  Co18  1  0.87184  0.87184  0.50000  1
 Co  Co19  1  0.12816  0.00000  0.50000  1
 Co  Co20  1  0.00000  0.62742  0.50000  1
 Co  Co21  1  0.82785  0.36988  0.50000  1
 Co  Co22  1  0.63012  0.45796  0.50000  1
 Co  Co23  1  0.62742  0.00000  0.50000  1
 Co  Co24  1  0.17215  0.54204  0.50000  1
