CIF file written using JARVIS-Tools package.
data_Ti3Zn3N
_symmetry_space_group_name_H-M  'Fd-3m'
_cell_length_a       8.1111
_cell_length_b       8.11107
_cell_length_c       8.1111
_cell_angle_alpha    59.9998
_cell_angle_beta     59.9988
_cell_angle_gamma    59.999

_symmetry_Int_Tables_number  227
_chemical_formula_structural  Ti3Zn3N
_chemical_formula_sum  Ti2Zn2N4
_cell_volume  377.3234572912687
_cell_formula_units_Z  4
loop_
  _symmetry_equiv_pos_site_id
 _symmetry_equiv_pos_as_xyz
 1  'x, y, z'
loop_
 _atom_site_type_symbol
 _atom_site_label
 _atom_site_symmetry_multiplicity
 _atom_site_fract_x
 _atom_site_fract_y
 _atom_site_fract_z
 _atom_site_fract_occupancy
 N  N1  1  0.62500  0.62500  0.62500  1
 N  N2  1  0.12500  0.62500  0.62500  1
 N  N3  1  0.62500  0.12499  0.62500  1
 N  N4  1  0.62500  0.62500  0.12500  1
 Ti  Ti1  1  0.92911  0.57089  0.92911  1
 Ti  Ti2  1  0.57089  0.57089  0.92911  1
 Ti  Ti3  1  0.57089  0.92911  0.57089  1
 Ti  Ti4  1  0.92912  0.57088  0.57088  1
 Ti  Ti5  1  0.57088  0.92912  0.92912  1
 Ti  Ti6  1  0.67910  0.32090  0.67910  1
 Ti  Ti7  1  0.67912  0.32088  0.32088  1
 Ti  Ti8  1  0.67910  0.67911  0.32090  1
 Ti  Ti9  1  0.32089  0.67911  0.32089  1
 Ti  Ti10  1  0.32088  0.67912  0.67912  1
 Ti  Ti11  1  0.32089  0.32089  0.67911  1
 Ti  Ti12  1  0.92911  0.92911  0.57088  1
 Zn  Zn1  1  0.91461  0.91461  0.25617  1
 Zn  Zn2  1  0.99384  0.33539  0.33538  1
 Zn  Zn3  1  0.33538  0.99384  0.33539  1
 Zn  Zn4  1  0.33539  0.33538  0.33539  1
 Zn  Zn5  1  0.33538  0.33539  0.99384  1
 Zn  Zn6  1  0.91462  0.25617  0.91461  1
 Zn  Zn7  1  0.62500  0.12500  0.12500  1
 Zn  Zn8  1  0.12501  0.12500  0.62500  1
 Zn  Zn9  1  0.12501  0.62500  0.12500  1
 Zn  Zn10  1  0.91461  0.91461  0.91461  1
 Zn  Zn11  1  0.25616  0.91462  0.91461  1
 Zn  Zn12  1  0.12500  0.12499  0.12500  1
