CIF file written using JARVIS-Tools package.
data_LiDySe2
_symmetry_space_group_name_H-M  'I4_1/amd'
_cell_length_a       8.01611
_cell_length_b       10.6474
_cell_length_c       7.00733
_cell_angle_alpha    29.1352
_cell_angle_beta     55.1115
_cell_angle_gamma    41.1605

_symmetry_Int_Tables_number  141
_chemical_formula_structural  LiDySe2
_chemical_formula_sum  Li2Dy2Se4
_cell_volume  184.68347505221618
_cell_formula_units_Z  2
loop_
  _symmetry_equiv_pos_site_id
 _symmetry_equiv_pos_as_xyz
 1  'x, y, z'
loop_
 _atom_site_type_symbol
 _atom_site_label
 _atom_site_symmetry_multiplicity
 _atom_site_fract_x
 _atom_site_fract_y
 _atom_site_fract_z
 _atom_site_fract_occupancy
 Dy  Dy1  1  0.49999  0.00000  0.00000  1
 Dy  Dy2  1  0.25001  0.50000  -0.00000  1
 Li  Li1  1  0.00000  0.00000  0.00000  1
 Li  Li2  1  0.75000  0.50000  0.00000  1
 Se  Se1  1  0.25239  0.00001  0.49522  1
 Se  Se2  1  0.74761  0.99999  0.50478  1
 Se  Se3  1  0.49761  0.49999  0.50478  1
 Se  Se4  1  0.00239  0.50001  0.49522  1
