CIF file written using JARVIS-Tools package.
data_ScBeSn
_symmetry_space_group_name_H-M  'I4mm'
_cell_length_a       5.86609
_cell_length_b       5.86609
_cell_length_c       5.86609
_cell_angle_alpha    148.115
_cell_angle_beta     148.115
_cell_angle_gamma    45.7158

_symmetry_Int_Tables_number  107
_chemical_formula_structural  ScBeSn
_chemical_formula_sum  ScBeSn
_cell_volume  56.13356958924217
_cell_formula_units_Z  1
loop_
  _symmetry_equiv_pos_site_id
 _symmetry_equiv_pos_as_xyz
 1  'x, y, z'
loop_
 _atom_site_type_symbol
 _atom_site_label
 _atom_site_symmetry_multiplicity
 _atom_site_fract_x
 _atom_site_fract_y
 _atom_site_fract_z
 _atom_site_fract_occupancy
 Be  Be1  1  0.00416  0.00416  -0.00000  1
 Sc  Sc1  1  0.35209  0.35209  0.00000  1
 Sn  Sn1  1  0.64375  0.64375  0.00000  1
