CIF file written using JARVIS-Tools package.
data_Li3NiO2F2
_symmetry_space_group_name_H-M  'P2/c'
_cell_length_a       4.93341
_cell_length_b       5.82171
_cell_length_c       4.95316
_cell_angle_alpha    90
_cell_angle_beta     107.689
_cell_angle_gamma    90

_symmetry_Int_Tables_number  13
_chemical_formula_structural  Li3NiO2F2
_chemical_formula_sum  Li6Ni2O4F4
_cell_volume  135.53318232264886
_cell_formula_units_Z  2
loop_
  _symmetry_equiv_pos_site_id
 _symmetry_equiv_pos_as_xyz
 1  'x, y, z'
loop_
 _atom_site_type_symbol
 _atom_site_label
 _atom_site_symmetry_multiplicity
 _atom_site_fract_x
 _atom_site_fract_y
 _atom_site_fract_z
 _atom_site_fract_occupancy
 F  F1  1  -0.00095  0.61880  0.74678  1
 F  F2  1  0.49905  0.38120  0.74678  1
 F  F3  1  0.50095  0.61880  0.25322  1
 F  F4  1  0.00095  0.38120  0.25322  1
 Li  Li1  1  0.25000  0.11749  0.50000  1
 Li  Li2  1  0.25000  0.63419  0.50000  1
 Li  Li3  1  0.25000  0.36663  0.00000  1
 Li  Li4  1  0.75000  0.36581  0.50000  1
 Li  Li5  1  0.75000  0.88251  0.50000  1
 Li  Li6  1  0.75000  0.63337  0.00000  1
 Ni  Ni1  1  0.25000  0.88954  0.00000  1
 Ni  Ni2  1  0.75000  0.11046  0.00000  1
 O  O1  1  0.01397  0.88664  0.22979  1
 O  O2  1  0.48603  0.88664  0.77021  1
 O  O3  1  0.51397  0.11336  0.22979  1
 O  O4  1  0.98603  0.11336  0.77021  1
