CIF file written using JARVIS-Tools package.
data_Sm3CrSe6
_symmetry_space_group_name_H-M  'Pnnm'
_cell_length_a       3.99937
_cell_length_b       14.116
_cell_length_c       16.8776
_cell_angle_alpha    90
_cell_angle_beta     90
_cell_angle_gamma    90

_symmetry_Int_Tables_number  58
_chemical_formula_structural  Sm3CrSe6
_chemical_formula_sum  Sm2Cr4Se24
_cell_volume  952.8249279642031
_cell_formula_units_Z  4
loop_
  _symmetry_equiv_pos_site_id
 _symmetry_equiv_pos_as_xyz
 1  'x, y, z'
loop_
 _atom_site_type_symbol
 _atom_site_label
 _atom_site_symmetry_multiplicity
 _atom_site_fract_x
 _atom_site_fract_y
 _atom_site_fract_z
 _atom_site_fract_occupancy
 Cr  Cr1  1  0.00000  0.00000  0.50000  1
 Cr  Cr2  1  0.50000  0.50000  0.00000  1
 Cr  Cr3  1  0.00000  0.00000  0.00000  1
 Cr  Cr4  1  0.50000  0.50000  0.50000  1
 Se  Se1  1  0.00000  0.47523  0.90305  1
 Se  Se2  1  0.50000  0.32107  0.02069  1
 Se  Se3  1  0.00000  0.10105  0.75619  1
 Se  Se4  1  0.50000  0.67893  0.97931  1
 Se  Se5  1  0.00000  0.17893  0.52069  1
 Se  Se6  1  0.00000  0.57921  0.57551  1
 Se  Se7  1  0.50000  0.30941  0.79040  1
 Se  Se8  1  0.00000  0.80941  0.70960  1
 Se  Se9  1  0.00000  0.19059  0.29040  1
 Se  Se10  1  0.00000  0.42079  0.42449  1
 Se  Se11  1  0.50000  0.62307  0.39490  1
 Se  Se12  1  0.00000  0.87693  0.89490  1
 Se  Se13  1  0.00000  0.12307  0.10510  1
 Se  Se14  1  0.50000  0.39895  0.25619  1
 Se  Se15  1  0.50000  0.60105  0.74381  1
 Se  Se16  1  0.50000  0.69059  0.20960  1
 Se  Se17  1  0.50000  0.92079  0.07551  1
 Se  Se18  1  0.50000  0.37693  0.60510  1
 Se  Se19  1  0.00000  0.52477  0.09695  1
 Se  Se20  1  0.00000  0.82107  0.47931  1
 Se  Se21  1  0.50000  0.02477  0.40305  1
 Se  Se22  1  0.50000  0.97523  0.59695  1
 Se  Se23  1  0.00000  0.89895  0.24381  1
 Se  Se24  1  0.50000  0.07921  0.92449  1
 Sm  Sm1  1  0.50000  0.82114  0.35124  1
 Sm  Sm2  1  0.50000  0.17886  0.64876  1
 Sm  Sm3  1  0.00000  0.55374  0.27915  1
 Sm  Sm4  1  0.00000  0.44626  0.72085  1
 Sm  Sm5  1  0.50000  0.05374  0.22085  1
 Sm  Sm6  1  0.00000  0.24060  0.90527  1
 Sm  Sm7  1  0.00000  0.75940  0.09473  1
 Sm  Sm8  1  0.50000  0.25940  0.40527  1
 Sm  Sm9  1  0.50000  0.74060  0.59473  1
 Sm  Sm10  1  0.00000  0.67886  0.85124  1
 Sm  Sm11  1  0.50000  0.94626  0.77915  1
 Sm  Sm12  1  0.00000  0.32114  0.14876  1
