CIF file written using JARVIS-Tools package.
data_ZrCoP
_symmetry_space_group_name_H-M  'Pnma'
_cell_length_a       3.71071
_cell_length_b       6.36141
_cell_length_c       7.1625
_cell_angle_alpha    90
_cell_angle_beta     90
_cell_angle_gamma    90

_symmetry_Int_Tables_number  62
_chemical_formula_structural  ZrCoP
_chemical_formula_sum  Zr4Co4P4
_cell_volume  169.07332130465204
_cell_formula_units_Z  4
loop_
  _symmetry_equiv_pos_site_id
 _symmetry_equiv_pos_as_xyz
 1  'x, y, z'
loop_
 _atom_site_type_symbol
 _atom_site_label
 _atom_site_symmetry_multiplicity
 _atom_site_fract_x
 _atom_site_fract_y
 _atom_site_fract_z
 _atom_site_fract_occupancy
 Co  Co1  1  0.75000  0.36118  0.06137  1
 Co  Co2  1  0.25000  0.13882  0.56137  1
 Co  Co3  1  0.75000  0.86118  0.43863  1
 Co  Co4  1  0.25000  0.63882  0.93863  1
 P  P1  1  0.25000  0.77413  0.61288  1
 P  P2  1  0.25000  0.27413  0.88712  1
 P  P3  1  0.75000  0.22587  0.38712  1
 P  P4  1  0.75000  0.72587  0.11288  1
 Zr  Zr1  1  0.25000  0.51898  0.31596  1
 Zr  Zr2  1  0.25000  0.01898  0.18404  1
 Zr  Zr3  1  0.75000  0.98102  0.81596  1
 Zr  Zr4  1  0.75000  0.48102  0.68404  1
