CIF file written using JARVIS-Tools package.
data_LaAsO4
_symmetry_space_group_name_H-M  'P2_1/c'
_cell_length_a       6.83069
_cell_length_b       7.05708
_cell_length_c       7.25392
_cell_angle_alpha    90
_cell_angle_beta     90
_cell_angle_gamma    104.764

_symmetry_Int_Tables_number  14
_chemical_formula_structural  LaAsO4
_chemical_formula_sum  La4As4O6
_cell_volume  338.1285861994828
_cell_formula_units_Z  4
loop_
  _symmetry_equiv_pos_site_id
 _symmetry_equiv_pos_as_xyz
 1  'x, y, z'
loop_
 _atom_site_type_symbol
 _atom_site_label
 _atom_site_symmetry_multiplicity
 _atom_site_fract_x
 _atom_site_fract_y
 _atom_site_fract_z
 _atom_site_fract_occupancy
 As  As1  1  0.88605  0.19669  0.16306  1
 As  As2  1  0.61395  0.30331  0.66306  1
 As  As3  1  0.11395  0.80331  0.83694  1
 As  As4  1  0.38605  0.69669  0.33694  1
 La  La1  1  0.40089  0.21850  0.15331  1
 La  La2  1  0.59911  0.78150  0.84669  1
 La  La3  1  0.90089  0.71850  0.34669  1
 La  La4  1  0.09911  0.28150  0.65331  1
 O  O1  1  0.32870  0.98405  0.89029  1
 O  O2  1  0.82870  0.48405  0.60971  1
 O  O3  1  0.67130  0.01595  0.10971  1
 O  O4  1  0.50368  0.60853  0.15746  1
 O  O5  1  0.99632  0.89147  0.65746  1
 O  O6  1  0.49632  0.39147  0.84254  1
 O  O7  1  0.00368  0.10853  0.34254  1
 O  O8  1  0.07097  0.24704  0.99610  1
 O  O9  1  0.72390  0.11671  0.71381  1
 O  O10  1  0.17130  0.51595  0.39029  1
 O  O11  1  0.22390  0.61671  0.78619  1
 O  O12  1  0.42903  0.25296  0.49610  1
 O  O13  1  0.92903  0.75296  0.00390  1
 O  O14  1  0.57097  0.74704  0.50390  1
 O  O15  1  0.77610  0.38329  0.21381  1
 O  O16  1  0.27610  0.88329  0.28619  1
