CIF file written using JARVIS-Tools package.
data_SrCu2B2O6
_symmetry_space_group_name_H-M  'I-42m'
_cell_length_a       7.23858
_cell_length_b       7.23858
_cell_length_c       7.23858
_cell_angle_alpha    102.13
_cell_angle_beta     102.13
_cell_angle_gamma    125.433

_symmetry_Int_Tables_number  121
_chemical_formula_structural  SrCu2B2O6
_chemical_formula_sum  Sr2Cu4B4O2
_cell_volume  274.6540549351368
_cell_formula_units_Z  2
loop_
  _symmetry_equiv_pos_site_id
 _symmetry_equiv_pos_as_xyz
 1  'x, y, z'
loop_
 _atom_site_type_symbol
 _atom_site_label
 _atom_site_symmetry_multiplicity
 _atom_site_fract_x
 _atom_site_fract_y
 _atom_site_fract_z
 _atom_site_fract_occupancy
 B  B1  1  0.95003  0.54207  -0.00000  1
 B  B2  1  0.45793  0.45793  0.40795  1
 B  B3  1  0.54207  0.95003  0.00000  1
 B  B4  1  0.04997  0.04997  0.59205  1
 Cu  Cu1  1  0.85258  0.85258  0.22818  1
 Cu  Cu2  1  0.62441  0.62441  0.77182  1
 Cu  Cu3  1  0.14742  0.37559  0.00000  1
 Cu  Cu4  1  0.37559  0.14742  -0.00000  1
 O  O1  1  0.83083  0.63448  -0.00000  1
 O  O2  1  0.39887  0.92398  0.81874  1
 O  O3  1  0.41987  0.60113  0.52511  1
 O  O4  1  0.07602  0.89476  0.47489  1
 O  O5  1  0.89476  0.07602  0.47489  1
 O  O6  1  0.60113  0.41987  0.52511  1
 O  O7  1  0.36552  0.36552  0.19636  1
 O  O8  1  0.92398  0.39887  0.81874  1
 O  O9  1  0.16917  0.16917  0.80364  1
 O  O10  1  0.63448  0.83083  -0.00000  1
 O  O11  1  0.10524  0.58013  0.18126  1
 O  O12  1  0.58013  0.10524  0.18126  1
 Sr  Sr1  1  0.00000  0.50000  0.50000  1
 Sr  Sr2  1  0.50000  0.00000  0.50000  1
