CIF file written using JARVIS-Tools package.
data_CaV2P2H8O14
_symmetry_space_group_name_H-M  'P1'
_cell_length_a       6.36007
_cell_length_b       6.35664
_cell_length_c       6.59478
_cell_angle_alpha    107.07
_cell_angle_beta     93.9289
_cell_angle_gamma    89.6153

_symmetry_Int_Tables_number  1
_chemical_formula_structural  CaV2P2H8O14
_chemical_formula_sum  CaV2P2H8O4
_cell_volume  254.24929632874017
_cell_formula_units_Z  1
loop_
  _symmetry_equiv_pos_site_id
 _symmetry_equiv_pos_as_xyz
 1  'x, y, z'
loop_
 _atom_site_type_symbol
 _atom_site_label
 _atom_site_symmetry_multiplicity
 _atom_site_fract_x
 _atom_site_fract_y
 _atom_site_fract_z
 _atom_site_fract_occupancy
 Ca  Ca1  1  0.53554  0.46947  0.15366  1
 H  H1  1  0.22646  0.74191  0.01763  1
 H  H2  1  0.97970  0.47019  0.09246  1
 H  H3  1  0.91970  0.71666  0.20205  1
 H  H4  1  0.41992  0.91028  0.10090  1
 H  H5  1  0.17592  0.18203  0.97505  1
 H  H6  1  0.18405  0.25220  0.23099  1
 H  H7  1  0.70927  -0.00278  -0.01216  1
 H  H8  1  0.68592  0.06469  0.24160  1
 O  O1  1  0.86274  0.20944  0.74439  1
 O  O2  1  0.14245  0.54610  0.76173  1
 O  O3  1  0.35736  0.61034  0.47175  1
 O  O4  1  0.32348  0.00921  0.77648  1
 O  O5  1  0.17700  0.30894  0.10506  1
 O  O6  1  0.29655  0.23141  0.47225  1
 O  O7  1  0.78708  0.44412  0.44784  1
 O  O8  1  0.81909  0.83454  0.76947  1
 O  O9  1  0.00840  0.89123  0.45225  1
 O  O10  1  0.87243  0.58576  0.08079  1
 O  O11  1  0.32608  0.80671  0.14323  1
 O  O12  1  0.52715  0.48819  0.78268  1
 O  O13  1  0.62624  0.93457  0.45675  1
 O  O14  1  0.62908  0.08919  0.10746  1
 P  P1  1  0.83038  0.96910  0.60760  1
 P  P2  1  0.33034  0.46834  0.62384  1
 V  V1  1  0.32003  0.93534  0.51922  1
 V  V2  1  0.83204  0.50460  0.70534  1
