CIF file written using JARVIS-Tools package.
data_BaLa2MnS5
_symmetry_space_group_name_H-M  'I4/mcm'
_cell_length_a       7.90587
_cell_length_b       7.90587
_cell_length_c       8.76727
_cell_angle_alpha    116.8
_cell_angle_beta     116.8
_cell_angle_gamma    90

_symmetry_Int_Tables_number  140
_chemical_formula_structural  BaLa2MnS5
_chemical_formula_sum  Ba2La4Mn2S0
_cell_volume  422.13013839459603
_cell_formula_units_Z  2
loop_
  _symmetry_equiv_pos_site_id
 _symmetry_equiv_pos_as_xyz
 1  'x, y, z'
loop_
 _atom_site_type_symbol
 _atom_site_label
 _atom_site_symmetry_multiplicity
 _atom_site_fract_x
 _atom_site_fract_y
 _atom_site_fract_z
 _atom_site_fract_occupancy
 Ba  Ba1  1  0.25000  0.25000  0.50000  1
 Ba  Ba2  1  0.75000  0.75000  0.50000  1
 La  La1  1  0.33522  0.16478  0.00000  1
 La  La2  1  0.16478  0.66478  0.00000  1
 La  La3  1  0.66478  0.83522  -0.00000  1
 La  La4  1  0.83522  0.33522  -0.00000  1
 Mn  Mn1  1  0.25000  0.75000  0.50000  1
 Mn  Mn2  1  0.75000  0.25000  0.50000  1
 S  S1  1  0.21832  0.71832  0.72164  1
 S  S2  1  0.50332  0.00332  0.72164  1
 S  S3  1  0.71832  0.50332  0.72164  1
 S  S4  1  0.00332  0.21832  0.72164  1
 S  S5  1  0.50000  0.50000  -0.00000  1
 S  S6  1  0.99668  0.78168  0.27836  1
 S  S7  1  0.49668  0.99668  0.27836  1
 S  S8  1  0.78168  0.28168  0.27836  1
 S  S9  1  0.28168  0.49668  0.27836  1
 S  S10  1  0.00000  0.00000  0.00000  1
