CIF file written using JARVIS-Tools package.
data_Na2FeO3
_symmetry_space_group_name_H-M  'Cc'
_cell_length_a       5.75122
_cell_length_b       5.75122
_cell_length_c       5.21023
_cell_angle_alpha    82.3773
_cell_angle_beta     97.6227
_cell_angle_gamma    57.4047

_symmetry_Int_Tables_number  9
_chemical_formula_structural  Na2FeO3
_chemical_formula_sum  Na4Fe2O6
_cell_volume  139.54493957093447
_cell_formula_units_Z  2
loop_
  _symmetry_equiv_pos_site_id
 _symmetry_equiv_pos_as_xyz
 1  'x, y, z'
loop_
 _atom_site_type_symbol
 _atom_site_label
 _atom_site_symmetry_multiplicity
 _atom_site_fract_x
 _atom_site_fract_y
 _atom_site_fract_z
 _atom_site_fract_occupancy
 Fe  Fe1  1  0.95195  0.91696  0.51093  1
 Fe  Fe2  1  0.08304  0.04805  0.01093  1
 Na  Na1  1  0.58746  0.59445  0.49192  1
 Na  Na2  1  0.25922  0.25177  0.50974  1
 Na  Na3  1  0.74823  0.74078  0.00974  1
 Na  Na4  1  0.40555  0.41254  0.99192  1
 O  O1  1  0.28614  0.86239  0.77026  1
 O  O2  1  0.13761  0.71386  0.27026  1
 O  O3  1  0.95560  0.62558  0.66969  1
 O  O4  1  0.75369  0.14530  0.74525  1
 O  O5  1  0.37442  0.04440  0.16969  1
 O  O6  1  0.85470  0.24631  0.24525  1
