CIF file written using JARVIS-Tools package.
data_KCBrN2O4
_symmetry_space_group_name_H-M  'P-1'
_cell_length_a       6.17286
_cell_length_b       7.05229
_cell_length_c       7.37465
_cell_angle_alpha    116.546
_cell_angle_beta     103.674
_cell_angle_gamma    95.031

_symmetry_Int_Tables_number  2
_chemical_formula_structural  KCBrN2O4
_chemical_formula_sum  K2C2Br2N4O8
_cell_volume  272.06371919533797
_cell_formula_units_Z  2
loop_
  _symmetry_equiv_pos_site_id
 _symmetry_equiv_pos_as_xyz
 1  'x, y, z'
loop_
 _atom_site_type_symbol
 _atom_site_label
 _atom_site_symmetry_multiplicity
 _atom_site_fract_x
 _atom_site_fract_y
 _atom_site_fract_z
 _atom_site_fract_occupancy
 Br  Br1  1  0.79682  0.20347  0.71129  1
 Br  Br2  1  0.20318  0.79653  0.28871  1
 C  C1  1  0.95256  0.24308  0.53785  1
 C  C2  1  0.04744  0.75692  0.46215  1
 K  K1  1  0.32802  0.27889  0.12735  1
 K  K2  1  0.67198  0.72111  0.87265  1
 N  N1  1  0.16586  0.84107  0.67625  1
 N  N2  1  0.83414  0.15893  0.32375  1
 N  N3  1  0.82247  0.63833  0.36942  1
 N  N4  1  0.17753  0.36167  0.63058  1
 O  O1  1  0.92462  0.17910  0.19424  1
 O  O2  1  0.27290  0.42144  0.82546  1
 O  O3  1  0.71495  0.58780  0.47343  1
 O  O4  1  0.72710  0.57856  0.17454  1
 O  O5  1  0.37186  0.94552  0.74180  1
 O  O6  1  0.62814  0.05448  0.25820  1
 O  O7  1  0.28505  0.41220  0.52657  1
 O  O8  1  0.07538  0.82090  0.80576  1
