CIF file written using JARVIS-Tools package.
data_Li2UMo2O10
_symmetry_space_group_name_H-M  'P-1'
_cell_length_a       5.33929
_cell_length_b       5.80974
_cell_length_c       8.27767
_cell_angle_alpha    108.359
_cell_angle_beta     101.071
_cell_angle_gamma    103.617

_symmetry_Int_Tables_number  2
_chemical_formula_structural  Li2UMo2O10
_chemical_formula_sum  Li2UMo2O0
_cell_volume  226.77717338750742
_cell_formula_units_Z  1
loop_
  _symmetry_equiv_pos_site_id
 _symmetry_equiv_pos_as_xyz
 1  'x, y, z'
loop_
 _atom_site_type_symbol
 _atom_site_label
 _atom_site_symmetry_multiplicity
 _atom_site_fract_x
 _atom_site_fract_y
 _atom_site_fract_z
 _atom_site_fract_occupancy
 Li  Li1  1  0.48045  0.21582  0.42391  1
 Li  Li2  1  0.51955  0.78418  0.57609  1
 Mo  Mo1  1  0.91373  0.65655  0.30360  1
 Mo  Mo2  1  0.08627  0.34345  0.69640  1
 O  O1  1  0.78345  0.12576  0.54015  1
 O  O2  1  0.78455  0.79407  0.15061  1
 O  O3  1  0.68319  0.94837  0.83678  1
 O  O4  1  0.98152  0.37624  0.17766  1
 O  O5  1  0.31484  0.43203  0.58354  1
 O  O6  1  0.01848  0.62376  0.82234  1
 O  O7  1  0.21545  0.20593  0.84939  1
 O  O8  1  0.68516  0.56797  0.41646  1
 O  O9  1  0.21655  0.87424  0.45985  1
 O  O10  1  0.31681  0.05163  0.16322  1
 U  U1  1  0.00000  0.00000  0.00000  1
