CIF file written using JARVIS-Tools package.
data_VH10SO10
_symmetry_space_group_name_H-M  'P1'
_cell_length_a       6.59441
_cell_length_b       11.2899
_cell_length_c       6.64375
_cell_angle_alpha    102.446
_cell_angle_beta     86.4849
_cell_angle_gamma    105.664

_symmetry_Int_Tables_number  1
_chemical_formula_structural  VH10SO10
_chemical_formula_sum  V2H20S2O20
_cell_volume  465.061664475201
_cell_formula_units_Z  2
loop_
  _symmetry_equiv_pos_site_id
 _symmetry_equiv_pos_as_xyz
 1  'x, y, z'
loop_
 _atom_site_type_symbol
 _atom_site_label
 _atom_site_symmetry_multiplicity
 _atom_site_fract_x
 _atom_site_fract_y
 _atom_site_fract_z
 _atom_site_fract_occupancy
 H  H1  1  0.34020  -0.02415  0.17362  1
 H  H2  1  0.79610  0.84854  0.88532  1
 H  H3  1  0.30310  0.75947  0.92291  1
 H  H4  1  0.84442  0.14684  0.42210  1
 H  H5  1  0.08469  0.00577  0.38182  1
 H  H6  1  0.64726  -0.01093  0.49563  1
 H  H7  1  0.65085  -0.06437  -0.00317  1
 H  H8  1  0.33190  -0.00306  -0.05105  1
 H  H9  1  0.79478  0.87746  0.20589  1
 H  H10  1  0.30214  0.44565  0.24591  1
 H  H11  1  0.23392  -0.04850  0.48545  1
 H  H12  1  0.26513  0.13923  0.61006  1
 H  H13  1  0.62048  0.60490  0.08497  1
 H  H14  1  0.55114  0.59976  -0.00301  1
 H  H15  1  0.17026  0.47312  0.67770  1
 H  H16  1  0.14540  0.40539  0.68468  1
 H  H17  1  0.69856  0.64117  0.63274  1
 H  H18  1  -0.19399  0.74931  0.50691  1
 H  H19  1  0.63058  0.21181  0.10522  1
 H  H20  1  0.79420  0.16530  0.66223  1
 O  O1  1  0.03253  0.19616  0.27086  1
 O  O2  1  0.21703  0.12844  0.89798  1
 O  O3  1  0.69835  0.16649  -0.01460  1
 O  O4  1  0.23677  0.84085  0.59317  1
 O  O5  1  0.55366  0.31313  0.33854  1
 O  O6  1  0.34747  0.69621  0.81415  1
 O  O7  1  0.27482  0.38850  0.10939  1
 O  O8  1  0.31900  0.62559  0.37943  1
 O  O9  1  0.07918  0.73332  0.15355  1
 O  O10  1  0.60610  0.89130  0.44657  1
 O  O11  1  0.86723  0.27410  0.93941  1
 O  O12  1  -0.29045  0.72839  0.62268  1
 O  O13  1  0.72984  0.12642  0.52560  1
 O  O14  1  0.23232  0.02533  0.42071  1
 O  O15  1  -0.11111  0.55208  0.29869  1
 O  O16  1  0.78960  0.91667  0.00408  1
 O  O17  1  0.39048  -0.04872  0.02988  1
 O  O18  1  0.65528  0.47382  0.65894  1
 O  O19  1  0.80861  0.87132  0.35989  1
 O  O20  1  0.29433  0.20645  0.74447  1
 S  S1  1  0.70933  0.37726  0.50079  1
 S  S2  1  0.05788  0.60216  0.15972  1
 V  V1  1  0.09126  0.24193  0.05365  1
 V  V2  1  0.39937  0.75009  0.57550  1
