CIF file written using JARVIS-Tools package.
data_LiAlGe2O6
_symmetry_space_group_name_H-M  'P2_1/c'
_cell_length_a       10.0851
_cell_length_b       8.40723
_cell_length_c       5.41863
_cell_angle_alpha    90
_cell_angle_beta     111.211
_cell_angle_gamma    90

_symmetry_Int_Tables_number  14
_chemical_formula_structural  LiAlGe2O6
_chemical_formula_sum  Li4Al4Ge8O24
_cell_volume  428.3110987710173
_cell_formula_units_Z  4
loop_
  _symmetry_equiv_pos_site_id
 _symmetry_equiv_pos_as_xyz
 1  'x, y, z'
loop_
 _atom_site_type_symbol
 _atom_site_label
 _atom_site_symmetry_multiplicity
 _atom_site_fract_x
 _atom_site_fract_y
 _atom_site_fract_z
 _atom_site_fract_occupancy
 Al  Al1  1  0.00575  0.58530  0.25591  1
 Al  Al2  1  0.50575  0.91470  0.75591  1
 Al  Al3  1  0.99425  0.41470  0.74409  1
 Al  Al4  1  0.49425  0.08530  0.24409  1
 Ge  Ge1  1  0.70928  0.41628  0.28170  1
 Ge  Ge2  1  0.29072  0.58372  0.71830  1
 Ge  Ge3  1  0.20928  0.08372  0.78170  1
 Ge  Ge4  1  0.79072  0.91628  0.21830  1
 Ge  Ge5  1  0.27765  0.38444  0.22323  1
 Ge  Ge6  1  0.77765  0.11556  0.72323  1
 Ge  Ge7  1  0.22235  0.88444  0.27677  1
 Ge  Ge8  1  0.72235  0.61556  0.77677  1
 Li  Li1  1  0.99141  0.78448  0.69546  1
 Li  Li2  1  0.00859  0.21552  0.30454  1
 Li  Li3  1  0.49141  0.71552  0.19546  1
 Li  Li4  1  0.50859  0.28448  0.80454  1
 O  O1  1  0.60475  0.24570  0.19526  1
 O  O2  1  0.39674  0.07205  0.84978  1
 O  O3  1  0.89674  0.42795  0.34978  1
 O  O4  1  0.60326  0.92795  0.15022  1
 O  O5  1  0.81939  0.31672  0.69557  1
 O  O6  1  0.14009  0.00988  0.43943  1
 O  O7  1  0.64009  0.49012  0.93943  1
 O  O8  1  0.85991  0.99012  0.56057  1
 O  O9  1  0.35991  0.50988  0.06057  1
 O  O10  1  0.10475  0.25430  0.69526  1
 O  O11  1  0.10326  0.57205  0.65022  1
 O  O12  1  0.08807  0.39867  0.12604  1
 O  O13  1  0.64438  0.57635  0.43052  1
 O  O14  1  0.85562  0.07635  0.06948  1
 O  O15  1  0.35562  0.42365  0.56948  1
 O  O16  1  0.41193  0.89867  0.37396  1
 O  O17  1  0.91193  0.60133  0.87396  1
 O  O18  1  0.58807  0.10133  0.62604  1
 O  O19  1  0.89525  0.74570  0.30474  1
 O  O20  1  0.18061  0.68328  0.30443  1
 O  O21  1  0.68061  0.81672  0.80443  1
 O  O22  1  0.14438  0.92365  0.93052  1
 O  O23  1  0.39525  0.75430  0.80474  1
 O  O24  1  0.31939  0.18328  0.19557  1
