CIF file written using JARVIS-Tools package.
data_DyCdGa
_symmetry_space_group_name_H-M  'P-62m'
_cell_length_a       4.35775
_cell_length_b       7.23721
_cell_length_c       7.23717
_cell_angle_alpha    120
_cell_angle_beta     90
_cell_angle_gamma    90

_symmetry_Int_Tables_number  189
_chemical_formula_structural  DyCdGa
_chemical_formula_sum  Dy3Cd3Ga3
_cell_volume  197.66611502372172
_cell_formula_units_Z  3
loop_
  _symmetry_equiv_pos_site_id
 _symmetry_equiv_pos_as_xyz
 1  'x, y, z'
loop_
 _atom_site_type_symbol
 _atom_site_label
 _atom_site_symmetry_multiplicity
 _atom_site_fract_x
 _atom_site_fract_y
 _atom_site_fract_z
 _atom_site_fract_occupancy
 Cd  Cd1  1  0.00000  0.25076  -0.00000  1
 Cd  Cd2  1  0.00000  0.74922  0.74923  1
 Cd  Cd3  1  0.00000  -0.00001  0.25077  1
 Dy  Dy1  1  0.50000  0.57854  0.00000  1
 Dy  Dy2  1  0.50000  0.42143  0.42144  1
 Dy  Dy3  1  0.50000  0.99999  0.57856  1
 Ga  Ga1  1  0.00000  0.33332  0.66667  1
 Ga  Ga2  1  0.00000  0.66666  0.33333  1
 Ga  Ga3  1  0.50000  0.99999  -0.00000  1
