CIF file written using JARVIS-Tools package.
data_MnH6O3F3
_symmetry_space_group_name_H-M  'P2_1/c'
_cell_length_a       8.48562
_cell_length_b       9.3478
_cell_length_c       6.36129
_cell_angle_alpha    90
_cell_angle_beta     99.5313
_cell_angle_gamma    90

_symmetry_Int_Tables_number  14
_chemical_formula_structural  MnH6O3F3
_chemical_formula_sum  Mn4H24O2F2
_cell_volume  497.6235739628785
_cell_formula_units_Z  4
loop_
  _symmetry_equiv_pos_site_id
 _symmetry_equiv_pos_as_xyz
 1  'x, y, z'
loop_
 _atom_site_type_symbol
 _atom_site_label
 _atom_site_symmetry_multiplicity
 _atom_site_fract_x
 _atom_site_fract_y
 _atom_site_fract_z
 _atom_site_fract_occupancy
 F  F1  1  0.90899  0.15700  0.34915  1
 F  F2  1  0.02078  0.60617  0.25791  1
 F  F3  1  0.09101  0.84300  0.65085  1
 F  F4  1  0.52078  0.89383  0.25791  1
 F  F5  1  0.97922  0.39383  0.74209  1
 F  F6  1  0.47922  0.10617  0.74209  1
 F  F7  1  0.40899  0.34300  0.34915  1
 F  F8  1  0.20418  0.55646  0.96228  1
 F  F9  1  0.70418  0.94354  0.96228  1
 F  F10  1  0.79582  0.44354  0.03772  1
 F  F11  1  0.59101  0.65700  0.65085  1
 F  F12  1  0.29582  0.05646  0.03772  1
 H  H1  1  0.96157  0.74445  0.75750  1
 H  H2  1  0.13104  0.09583  0.87561  1
 H  H3  1  0.28594  0.81818  0.75918  1
 H  H4  1  0.63104  0.40417  0.87561  1
 H  H5  1  0.71406  0.18182  0.24082  1
 H  H6  1  0.78594  0.68182  0.75918  1
 H  H7  1  0.21406  0.31818  0.24082  1
 H  H8  1  0.86896  0.90417  0.12439  1
 H  H9  1  0.46157  0.75555  0.75750  1
 H  H10  1  0.23750  0.54606  0.70397  1
 H  H11  1  0.53843  0.24445  0.24250  1
 H  H12  1  0.26250  0.04606  0.29603  1
 H  H13  1  0.82880  0.42408  0.54434  1
 H  H14  1  0.17120  0.57592  0.45566  1
 H  H15  1  0.32880  0.07592  0.54434  1
 H  H16  1  0.73750  0.95394  0.70397  1
 H  H17  1  0.76250  0.45394  0.29603  1
 H  H18  1  0.01503  0.22021  0.75967  1
 H  H19  1  0.48497  0.72021  0.24033  1
 H  H20  1  0.98497  0.77979  0.24033  1
 H  H21  1  0.51503  0.27979  0.75967  1
 H  H22  1  0.67120  0.92408  0.45566  1
 H  H23  1  0.36896  0.59583  0.12439  1
 H  H24  1  0.03843  0.25555  0.24250  1
 Mn  Mn1  1  0.00000  0.00000  0.50000  1
 Mn  Mn2  1  0.50000  0.00000  -0.00000  1
 Mn  Mn3  1  0.50000  0.50000  0.50000  1
 Mn  Mn4  1  0.00000  0.50000  0.00000  1
 O  O1  1  0.10391  0.31465  0.16116  1
 O  O2  1  0.39609  0.81465  0.83884  1
 O  O3  1  0.89609  0.68535  0.83884  1
 O  O4  1  0.96714  0.88544  0.23065  1
 O  O5  1  0.03286  0.11456  0.76935  1
 O  O6  1  0.73125  0.43690  0.43661  1
 O  O7  1  0.76875  0.93690  0.56339  1
 O  O8  1  0.26875  0.56310  0.56339  1
 O  O9  1  0.23125  0.06310  0.43661  1
 O  O10  1  0.46714  0.61456  0.23065  1
 O  O11  1  0.53286  0.38544  0.76935  1
 O  O12  1  0.60391  0.18535  0.16116  1
