CIF file written using JARVIS-Tools package.
data_LaZnSn
_symmetry_space_group_name_H-M  'P6_3/mmc'
_cell_length_a       4.61988
_cell_length_b       4.61988
_cell_length_c       17.0794
_cell_angle_alpha    90
_cell_angle_beta     90
_cell_angle_gamma    120

_symmetry_Int_Tables_number  194
_chemical_formula_structural  LaZnSn
_chemical_formula_sum  La4Zn4Sn4
_cell_volume  315.6921392584039
_cell_formula_units_Z  4
loop_
  _symmetry_equiv_pos_site_id
 _symmetry_equiv_pos_as_xyz
 1  'x, y, z'
loop_
 _atom_site_type_symbol
 _atom_site_label
 _atom_site_symmetry_multiplicity
 _atom_site_fract_x
 _atom_site_fract_y
 _atom_site_fract_z
 _atom_site_fract_occupancy
 La  La1  1  0.00000  0.00000  0.75000  1
 La  La2  1  0.00000  0.00000  0.25000  1
 La  La3  1  0.00000  0.00000  0.50000  1
 La  La4  1  0.00000  0.00000  0.00000  1
 Sn  Sn1  1  0.66667  0.33333  0.11560  1
 Sn  Sn2  1  0.66667  0.33333  0.38440  1
 Sn  Sn3  1  0.33333  0.66667  0.88440  1
 Sn  Sn4  1  0.33333  0.66667  0.61560  1
 Zn  Zn1  1  0.66667  0.33333  0.84355  1
 Zn  Zn2  1  0.66667  0.33333  0.65645  1
 Zn  Zn3  1  0.33333  0.66667  0.15645  1
 Zn  Zn4  1  0.33333  0.66667  0.34355  1
