CIF file written using JARVIS-Tools package.
data_Ca5P6Pd6
_symmetry_space_group_name_H-M  'Pmma'
_cell_length_a       4.11819
_cell_length_b       8.15489
_cell_length_c       19.2747
_cell_angle_alpha    90
_cell_angle_beta     90
_cell_angle_gamma    90.0001

_symmetry_Int_Tables_number  51
_chemical_formula_structural  Ca5P6Pd6
_chemical_formula_sum  Ca0P2Pd2
_cell_volume  647.3108806132069
_cell_formula_units_Z  2
loop_
  _symmetry_equiv_pos_site_id
 _symmetry_equiv_pos_as_xyz
 1  'x, y, z'
loop_
 _atom_site_type_symbol
 _atom_site_label
 _atom_site_symmetry_multiplicity
 _atom_site_fract_x
 _atom_site_fract_y
 _atom_site_fract_z
 _atom_site_fract_occupancy
 Ca  Ca1  1  0.50000  0.99220  0.18177  1
 Ca  Ca2  1  1.00000  0.00122  0.62973  1
 Ca  Ca3  1  0.50000  0.49220  0.81823  1
 Ca  Ca4  1  0.50000  0.50780  0.18177  1
 Ca  Ca5  1  0.00000  0.99878  0.37027  1
 Ca  Ca6  1  0.50000  0.00780  0.81823  1
 Ca  Ca7  1  0.00000  -0.00000  -0.00000  1
 Ca  Ca8  1  0.00000  0.49878  0.62973  1
 Ca  Ca9  1  1.00000  0.50122  0.37027  1
 Ca  Ca10  1  0.00000  0.50000  0.00000  1
 P  P1  1  0.50000  0.25000  0.42351  1
 P  P2  1  0.50000  0.75000  0.05798  1
 P  P3  1  0.00000  0.75000  0.75822  1
 P  P4  1  0.00000  0.25000  0.24178  1
 P  P5  1  0.50000  0.75000  0.57649  1
 P  P6  1  1.00000  0.25000  0.75514  1
 P  P7  1  0.50000  0.75000  0.42669  1
 P  P8  1  0.00000  0.75000  0.24486  1
 P  P9  1  0.00000  0.75000  0.87380  1
 P  P10  1  0.00000  0.25000  0.12620  1
 P  P11  1  0.50000  0.25000  0.94202  1
 P  P12  1  0.50000  0.25000  0.57331  1
 Pd  Pd1  1  0.00000  0.25000  0.49875  1
 Pd  Pd2  1  1.00000  0.75000  0.12073  1
 Pd  Pd3  1  0.50000  0.25000  0.69425  1
 Pd  Pd4  1  1.00000  0.25000  0.87927  1
 Pd  Pd5  1  0.50000  0.25000  0.30094  1
 Pd  Pd6  1  0.00000  0.75000  0.50125  1
 Pd  Pd7  1  0.50000  0.75000  0.30575  1
 Pd  Pd8  1  0.50000  0.75000  0.69906  1
 Pd  Pd9  1  0.50000  0.00000  0.50000  1
 Pd  Pd10  1  0.50000  0.50000  0.50000  1
 Pd  Pd11  1  0.50000  0.25000  0.06677  1
 Pd  Pd12  1  0.50000  0.75000  0.93323  1
