CIF file written using JARVIS-Tools package.
data_Sc3RhC4
_symmetry_space_group_name_H-M  'C2/m'
_cell_length_a       5.61378
_cell_length_b       5.61364
_cell_length_c       6.76137
_cell_angle_alpha    83.4907
_cell_angle_beta     65.4722
_cell_angle_gamma    74.1525

_symmetry_Int_Tables_number  12
_chemical_formula_structural  Sc3RhC4
_chemical_formula_sum  Sc6Rh2C8
_cell_volume  186.479834898955
_cell_formula_units_Z  2
loop_
  _symmetry_equiv_pos_site_id
 _symmetry_equiv_pos_as_xyz
 1  'x, y, z'
loop_
 _atom_site_type_symbol
 _atom_site_label
 _atom_site_symmetry_multiplicity
 _atom_site_fract_x
 _atom_site_fract_y
 _atom_site_fract_z
 _atom_site_fract_occupancy
 C  C1  1  0.94900  0.58207  0.25818  1
 C  C2  1  0.71125  0.07805  0.74080  1
 C  C3  1  0.79282  0.41793  0.25818  1
 C  C4  1  0.05100  0.41793  0.74182  1
 C  C5  1  0.28875  0.92195  0.25920  1
 C  C6  1  0.54795  0.92195  0.74080  1
 C  C7  1  0.45205  0.07805  0.25920  1
 C  C8  1  0.20718  0.58207  0.74182  1
 Rh  Rh1  1  0.26970  0.73015  -0.00000  1
 Rh  Rh2  1  0.73030  0.26985  0.00000  1
 Sc  Sc1  1  0.75956  0.75987  -0.00000  1
 Sc  Sc2  1  0.18825  -0.00000  0.62350  1
 Sc  Sc3  1  0.68948  0.50000  0.62105  1
 Sc  Sc4  1  0.24044  0.24013  0.00000  1
 Sc  Sc5  1  0.31052  0.50000  0.37895  1
 Sc  Sc6  1  0.81175  0.00000  0.37650  1
