CIF file written using JARVIS-Tools package.
data_BN
_symmetry_space_group_name_H-M  'Cm'
_cell_length_a       2.51216
_cell_length_b       4.37767
_cell_length_c       6.65846
_cell_angle_alpha    91.4634
_cell_angle_beta     100.873
_cell_angle_gamma    89.9998

_symmetry_Int_Tables_number  8
_chemical_formula_structural  BN
_chemical_formula_sum  B4N4
_cell_volume  71.88700511121706
_cell_formula_units_Z  4
loop_
  _symmetry_equiv_pos_site_id
 _symmetry_equiv_pos_as_xyz
 1  'x, y, z'
loop_
 _atom_site_type_symbol
 _atom_site_label
 _atom_site_symmetry_multiplicity
 _atom_site_fract_x
 _atom_site_fract_y
 _atom_site_fract_z
 _atom_site_fract_occupancy
 B  B1  1  -0.00001  0.99847  -0.00001  1
 B  B2  1  0.20003  0.42967  0.40006  1
 B  B3  1  0.86553  0.37770  0.73106  1
 B  B4  1  0.53160  0.49920  0.06319  1
 N  N1  1  0.98050  0.34200  0.96100  1
 N  N2  1  0.50630  0.84318  0.01260  1
 N  N3  1  0.64698  0.44744  0.29397  1
 N  N4  1  0.31216  0.39072  0.62431  1
