CIF file written using JARVIS-Tools package.
data_SrMg6Fe
_symmetry_space_group_name_H-M  'Amm2'
_cell_length_a       7.52831
_cell_length_b       7.52831
_cell_length_c       4.69436
_cell_angle_alpha    90
_cell_angle_beta     90
_cell_angle_gamma    131.173

_symmetry_Int_Tables_number  38
_chemical_formula_structural  SrMg6Fe
_chemical_formula_sum  SrMg6Fe
_cell_volume  200.26464066982348
_cell_formula_units_Z  1
loop_
  _symmetry_equiv_pos_site_id
 _symmetry_equiv_pos_as_xyz
 1  'x, y, z'
loop_
 _atom_site_type_symbol
 _atom_site_label
 _atom_site_symmetry_multiplicity
 _atom_site_fract_x
 _atom_site_fract_y
 _atom_site_fract_z
 _atom_site_fract_occupancy
 Fe  Fe1  1  0.11105  0.38895  0.25000  1
 Mg  Mg1  1  0.20017  0.80882  0.25000  1
 Mg  Mg2  1  0.69118  0.29983  0.25000  1
 Mg  Mg3  1  0.69271  0.80729  0.25000  1
 Mg  Mg4  1  0.32216  0.67224  0.75000  1
 Mg  Mg5  1  0.82776  0.17784  0.75000  1
 Mg  Mg6  1  0.86910  0.63090  0.75000  1
 Sr  Sr1  1  0.28587  0.21413  0.75000  1
