CIF file written using JARVIS-Tools package.
data_EuTaO4
_symmetry_space_group_name_H-M  'P2/c'
_cell_length_a       5.19843
_cell_length_b       5.39538
_cell_length_c       5.53001
_cell_angle_alpha    90
_cell_angle_beta     90
_cell_angle_gamma    96.6783

_symmetry_Int_Tables_number  13
_chemical_formula_structural  EuTaO4
_chemical_formula_sum  Eu2Ta2O8
_cell_volume  154.05077490103344
_cell_formula_units_Z  2
loop_
  _symmetry_equiv_pos_site_id
 _symmetry_equiv_pos_as_xyz
 1  'x, y, z'
loop_
 _atom_site_type_symbol
 _atom_site_label
 _atom_site_symmetry_multiplicity
 _atom_site_fract_x
 _atom_site_fract_y
 _atom_site_fract_z
 _atom_site_fract_occupancy
 Eu  Eu1  1  0.00000  0.75000  0.76422  1
 Eu  Eu2  1  -0.00000  0.25000  0.23578  1
 O  O1  1  0.73012  0.00981  0.56137  1
 O  O2  1  0.26988  0.49019  0.56137  1
 O  O3  1  0.26988  0.99019  0.43863  1
 O  O4  1  0.73012  0.50981  0.43863  1
 O  O5  1  0.25310  0.60350  0.08486  1
 O  O6  1  0.74690  0.89650  0.08486  1
 O  O7  1  0.74690  0.39650  0.91514  1
 O  O8  1  0.25310  0.10350  0.91514  1
 Ta  Ta1  1  0.50000  0.25000  0.69266  1
 Ta  Ta2  1  0.50000  0.75000  0.30734  1
