CIF file written using JARVIS-Tools package.
data_KIn9Ni2
_symmetry_space_group_name_H-M  'P6/mmm'
_cell_length_a       8.88482
_cell_length_b       8.88482
_cell_length_c       4.37388
_cell_angle_alpha    90
_cell_angle_beta     90
_cell_angle_gamma    120

_symmetry_Int_Tables_number  191
_chemical_formula_structural  KIn9Ni2
_chemical_formula_sum  KIn9Ni2
_cell_volume  299.0160798537914
_cell_formula_units_Z  1
loop_
  _symmetry_equiv_pos_site_id
 _symmetry_equiv_pos_as_xyz
 1  'x, y, z'
loop_
 _atom_site_type_symbol
 _atom_site_label
 _atom_site_symmetry_multiplicity
 _atom_site_fract_x
 _atom_site_fract_y
 _atom_site_fract_z
 _atom_site_fract_occupancy
 In  In1  1  0.79226  0.58453  0.50000  1
 In  In2  1  0.58453  0.79226  0.50000  1
 In  In3  1  0.50000  0.50000  0.00000  1
 In  In4  1  0.20774  0.41547  0.50000  1
 In  In5  1  0.79226  0.20774  0.50000  1
 In  In6  1  0.20774  0.79226  0.50000  1
 In  In7  1  0.41547  0.20774  0.50000  1
 In  In8  1  0.50000  0.00000  0.00000  1
 In  In9  1  -0.00000  0.50000  0.00000  1
 K  K1  1  0.00000  0.00000  0.00000  1
 Ni  Ni1  1  0.33333  0.66667  0.00000  1
 Ni  Ni2  1  0.66667  0.33333  0.00000  1
