CIF file written using JARVIS-Tools package.
data_Er5BiAu2
_symmetry_space_group_name_H-M  'I4/mcm'
_cell_length_a       7.3591
_cell_length_b       7.35909
_cell_length_c       10.0236
_cell_angle_alpha    111.536
_cell_angle_beta     111.536
_cell_angle_gamma    90

_symmetry_Int_Tables_number  140
_chemical_formula_structural  Er5BiAu2
_chemical_formula_sum  Er0Bi2Au4
_cell_volume  463.9565394486335
_cell_formula_units_Z  2
loop_
  _symmetry_equiv_pos_site_id
 _symmetry_equiv_pos_as_xyz
 1  'x, y, z'
loop_
 _atom_site_type_symbol
 _atom_site_label
 _atom_site_symmetry_multiplicity
 _atom_site_fract_x
 _atom_site_fract_y
 _atom_site_fract_z
 _atom_site_fract_occupancy
 Au  Au1  1  0.12917  0.62917  0.00000  1
 Au  Au2  1  0.87083  0.37083  -0.00000  1
 Au  Au3  1  0.37083  0.12917  0.00000  1
 Au  Au4  1  0.62917  0.87083  -0.00000  1
 Bi  Bi1  1  0.25000  0.25000  0.50000  1
 Bi  Bi2  1  0.75000  0.75000  0.50000  1
 Er  Er1  1  0.50320  0.32642  0.32962  1
 Er  Er2  1  0.32642  0.82642  0.32962  1
 Er  Er3  1  0.67358  0.17358  0.67038  1
 Er  Er4  1  0.49680  0.67358  0.67038  1
 Er  Er5  1  0.00000  0.00000  0.00000  1
 Er  Er6  1  0.99680  0.49680  0.67038  1
 Er  Er7  1  0.00320  0.50320  0.32962  1
 Er  Er8  1  0.82642  0.00320  0.32962  1
 Er  Er9  1  0.17358  0.99680  0.67038  1
 Er  Er10  1  0.50000  0.50000  -0.00000  1
