CIF file written using JARVIS-Tools package.
data_SnO
_symmetry_space_group_name_H-M  'P4/nmm'
_cell_length_a       3.86124
_cell_length_b       3.86107
_cell_length_c       9.8543
_cell_angle_alpha    89.9984
_cell_angle_beta     89.9994
_cell_angle_gamma    90.0002

_symmetry_Int_Tables_number  129
_chemical_formula_structural  SnO
_chemical_formula_sum  Sn4O4
_cell_volume  146.91264333723856
_cell_formula_units_Z  4
loop_
  _symmetry_equiv_pos_site_id
 _symmetry_equiv_pos_as_xyz
 1  'x, y, z'
loop_
 _atom_site_type_symbol
 _atom_site_label
 _atom_site_symmetry_multiplicity
 _atom_site_fract_x
 _atom_site_fract_y
 _atom_site_fract_z
 _atom_site_fract_occupancy
 O  O1  1  0.00018  0.49982  0.12150  1
 O  O2  1  0.49982  0.00018  0.62150  1
 O  O3  1  0.99982  0.50017  0.62150  1
 O  O4  1  0.50018  0.99982  0.12150  1
 Sn  Sn1  1  0.49983  0.50015  0.73940  1
 Sn  Sn2  1  0.00017  0.99985  0.00360  1
 Sn  Sn3  1  0.50017  0.49981  0.23940  1
 Sn  Sn4  1  0.99983  0.00019  0.50360  1
