CIF file written using JARVIS-Tools package.
data_AgCN3O2
_symmetry_space_group_name_H-M  'Pbcm'
_cell_length_a       5.56844
_cell_length_b       5.68244
_cell_length_c       12.1663
_cell_angle_alpha    90
_cell_angle_beta     90
_cell_angle_gamma    90

_symmetry_Int_Tables_number  57
_chemical_formula_structural  AgCN3O2
_chemical_formula_sum  Ag4C4N2O8
_cell_volume  384.9696784884326
_cell_formula_units_Z  4
loop_
  _symmetry_equiv_pos_site_id
 _symmetry_equiv_pos_as_xyz
 1  'x, y, z'
loop_
 _atom_site_type_symbol
 _atom_site_label
 _atom_site_symmetry_multiplicity
 _atom_site_fract_x
 _atom_site_fract_y
 _atom_site_fract_z
 _atom_site_fract_occupancy
 Ag  Ag1  1  0.51528  0.25000  0.72742  1
 Ag  Ag2  1  0.51528  0.75000  0.77258  1
 Ag  Ag3  1  0.48472  0.75000  0.27258  1
 Ag  Ag4  1  0.48472  0.25000  0.22742  1
 C  C1  1  0.67828  0.75000  0.01965  1
 C  C2  1  0.32172  0.75000  0.51965  1
 C  C3  1  0.32172  0.25000  0.98035  1
 C  C4  1  0.67828  0.25000  0.48035  1
 N  N1  1  0.60223  0.25000  0.39093  1
 N  N2  1  0.39777  0.25000  0.89093  1
 N  N3  1  0.74108  0.75000  0.91561  1
 N  N4  1  0.01269  0.75000  0.39860  1
 N  N5  1  0.98731  0.25000  0.60140  1
 N  N6  1  0.01269  0.25000  0.10140  1
 N  N7  1  0.25892  0.75000  0.41561  1
 N  N8  1  0.74108  0.25000  0.58439  1
 N  N9  1  0.98731  0.75000  0.89860  1
 N  N10  1  0.39777  0.75000  0.60907  1
 N  N11  1  0.60223  0.75000  0.10907  1
 N  N12  1  0.25892  0.25000  0.08439  1
 O  O1  1  0.87358  0.25000  0.02093  1
 O  O2  1  0.12642  0.75000  0.97907  1
 O  O3  1  0.05163  0.75000  0.80028  1
 O  O4  1  -0.05163  0.75000  0.30028  1
 O  O5  1  -0.05163  0.25000  0.19972  1
 O  O6  1  0.87358  0.75000  0.47907  1
 O  O7  1  0.12642  0.25000  0.52093  1
 O  O8  1  0.05163  0.25000  0.69972  1
