CIF file written using JARVIS-Tools package.
data_Er3CoSi3
_symmetry_space_group_name_H-M  'C2/m'
_cell_length_a       4.14144
_cell_length_b       5.57626
_cell_length_c       12.6615
_cell_angle_alpha    84.8547
_cell_angle_beta     80.5873
_cell_angle_gamma    68.2014

_symmetry_Int_Tables_number  12
_chemical_formula_structural  Er3CoSi3
_chemical_formula_sum  Er6Co2Si6
_cell_volume  267.7031737068713
_cell_formula_units_Z  2
loop_
  _symmetry_equiv_pos_site_id
 _symmetry_equiv_pos_as_xyz
 1  'x, y, z'
loop_
 _atom_site_type_symbol
 _atom_site_label
 _atom_site_symmetry_multiplicity
 _atom_site_fract_x
 _atom_site_fract_y
 _atom_site_fract_z
 _atom_site_fract_occupancy
 Co  Co1  1  0.75259  0.07841  0.41642  1
 Co  Co2  1  0.24741  0.92159  0.58358  1
 Er  Er1  1  0.74739  0.73407  0.77116  1
 Er  Er2  1  0.39997  0.28090  0.91916  1
 Er  Er3  1  0.60003  0.71910  0.08084  1
 Er  Er4  1  0.47551  0.66937  0.37961  1
 Er  Er5  1  0.25261  0.26593  0.22884  1
 Er  Er6  1  0.52449  0.33063  0.62039  1
 Si  Si1  1  0.05138  0.13900  0.75825  1
 Si  Si2  1  0.13963  0.26505  0.45569  1
 Si  Si3  1  0.86037  0.73495  0.54431  1
 Si  Si4  1  0.94862  0.86100  0.24175  1
 Si  Si5  1  0.88266  0.15886  0.07583  1
 Si  Si6  1  0.11734  0.84114  0.92417  1
