CIF file written using JARVIS-Tools package.
data_Zr5Re24
_symmetry_space_group_name_H-M  'I-43m'
_cell_length_a       8.49062
_cell_length_b       8.49062
_cell_length_c       8.49062
_cell_angle_alpha    109.471
_cell_angle_beta     109.471
_cell_angle_gamma    109.471

_symmetry_Int_Tables_number  217
_chemical_formula_structural  Zr5Re24
_chemical_formula_sum  Zr5Re24
_cell_volume  471.18955896009714
_cell_formula_units_Z  1
loop_
  _symmetry_equiv_pos_site_id
 _symmetry_equiv_pos_as_xyz
 1  'x, y, z'
loop_
 _atom_site_type_symbol
 _atom_site_label
 _atom_site_symmetry_multiplicity
 _atom_site_fract_x
 _atom_site_fract_y
 _atom_site_fract_z
 _atom_site_fract_occupancy
 Re  Re1  1  0.37683  0.37683  0.18287  1
 Re  Re2  1  0.39664  0.39664  0.71901  1
 Re  Re3  1  0.60336  0.32237  -0.00000  1
 Re  Re4  1  0.32237  0.60336  -0.00000  1
 Re  Re5  1  -0.00000  0.32237  0.60336  1
 Re  Re6  1  0.28099  0.67763  0.67763  1
 Re  Re7  1  0.67763  0.28099  0.67763  1
 Re  Re8  1  0.32237  -0.00000  0.60336  1
 Re  Re9  1  0.60336  -0.00000  0.32237  1
 Re  Re10  1  0.00000  0.60336  0.32237  1
 Re  Re11  1  0.37683  0.18287  0.37683  1
 Re  Re12  1  0.71901  0.39664  0.39664  1
 Re  Re13  1  0.67763  0.67763  0.28099  1
 Re  Re14  1  0.39664  0.71901  0.39664  1
 Re  Re15  1  0.19396  0.19396  0.81713  1
 Re  Re16  1  0.80604  0.62317  0.00000  1
 Re  Re17  1  0.00000  0.80604  0.62317  1
 Re  Re18  1  0.81713  0.19396  0.19396  1
 Re  Re19  1  0.19396  0.81713  0.19396  1
 Re  Re20  1  0.80604  0.00000  0.62317  1
 Re  Re21  1  0.62317  0.00000  0.80604  1
 Re  Re22  1  -0.00000  0.62317  0.80604  1
 Re  Re23  1  0.18287  0.37683  0.37683  1
 Re  Re24  1  0.62317  0.80604  0.00000  1
 Zr  Zr1  1  0.00000  0.00000  0.37089  1
 Zr  Zr2  1  0.00000  0.37089  -0.00000  1
 Zr  Zr3  1  0.37089  0.00000  0.00000  1
 Zr  Zr4  1  0.62911  0.62911  0.62911  1
 Zr  Zr5  1  0.00000  0.00000  0.00000  1
