CIF file written using JARVIS-Tools package.
data_LiGaBr4
_symmetry_space_group_name_H-M  'P2_1/c'
_cell_length_a       6.75404
_cell_length_b       7.43031
_cell_length_c       13.5697
_cell_angle_alpha    92.8143
_cell_angle_beta     90
_cell_angle_gamma    90

_symmetry_Int_Tables_number  14
_chemical_formula_structural  LiGaBr4
_chemical_formula_sum  Li4Ga4Br6
_cell_volume  680.1691103617599
_cell_formula_units_Z  4
loop_
  _symmetry_equiv_pos_site_id
 _symmetry_equiv_pos_as_xyz
 1  'x, y, z'
loop_
 _atom_site_type_symbol
 _atom_site_label
 _atom_site_symmetry_multiplicity
 _atom_site_fract_x
 _atom_site_fract_y
 _atom_site_fract_z
 _atom_site_fract_occupancy
 Br  Br1  1  0.68827  0.57080  0.19601  1
 Br  Br2  1  0.32892  0.68705  0.55630  1
 Br  Br3  1  0.14945  0.18869  0.56674  1
 Br  Br4  1  0.35055  0.18869  0.06674  1
 Br  Br5  1  0.17108  0.68705  0.05630  1
 Br  Br6  1  0.64945  0.81131  0.93326  1
 Br  Br7  1  0.67192  0.06172  0.68669  1
 Br  Br8  1  0.85055  0.81131  0.43326  1
 Br  Br9  1  0.32808  0.93828  0.31331  1
 Br  Br10  1  0.31173  0.42920  0.80399  1
 Br  Br11  1  0.81173  0.57080  0.69601  1
 Br  Br12  1  0.17192  0.93828  0.81331  1
 Br  Br13  1  0.18827  0.42920  0.30399  1
 Br  Br14  1  0.82892  0.31295  0.94370  1
 Br  Br15  1  0.67108  0.31295  0.44370  1
 Br  Br16  1  0.82808  0.06172  0.18669  1
 Ga  Ga1  1  0.32190  0.70023  0.90017  1
 Ga  Ga2  1  0.17810  0.70023  0.40017  1
 Ga  Ga3  1  0.82190  0.29977  0.59983  1
 Ga  Ga4  1  0.67810  0.29977  0.09983  1
 Li  Li1  1  0.98997  0.14789  0.37288  1
 Li  Li2  1  0.01003  0.85211  0.62712  1
 Li  Li3  1  0.48997  0.85211  0.12712  1
 Li  Li4  1  0.51003  0.14789  0.87288  1
