CIF file written using JARVIS-Tools package.
data_EuMn2P2
_symmetry_space_group_name_H-M  'P-3m1'
_cell_length_a       3.83485
_cell_length_b       3.83486
_cell_length_c       6.6062
_cell_angle_alpha    90
_cell_angle_beta     90
_cell_angle_gamma    120

_symmetry_Int_Tables_number  164
_chemical_formula_structural  EuMn2P2
_chemical_formula_sum  EuMn2P2
_cell_volume  84.13563470707048
_cell_formula_units_Z  1
loop_
  _symmetry_equiv_pos_site_id
 _symmetry_equiv_pos_as_xyz
 1  'x, y, z'
loop_
 _atom_site_type_symbol
 _atom_site_label
 _atom_site_symmetry_multiplicity
 _atom_site_fract_x
 _atom_site_fract_y
 _atom_site_fract_z
 _atom_site_fract_occupancy
 Eu  Eu1  1  0.00000  0.00000  0.00000  1
 Mn  Mn1  1  0.66667  0.33333  0.62265  1
 Mn  Mn2  1  0.33333  0.66667  0.37735  1
 P  P1  1  0.66667  0.33333  0.27834  1
 P  P2  1  0.33333  0.66667  0.72166  1
