CIF file written using JARVIS-Tools package.
data_Cd4Te3Se
_symmetry_space_group_name_H-M  'R3m'
_cell_length_a       15.224
_cell_length_b       15.224
_cell_length_c       15.224
_cell_angle_alpha    17.3492
_cell_angle_beta     17.3492
_cell_angle_gamma    17.3492

_symmetry_Int_Tables_number  160
_chemical_formula_structural  Cd4Te3Se
_chemical_formula_sum  Cd4Te3Se
_cell_volume  273.78934751732004
_cell_formula_units_Z  1
loop_
  _symmetry_equiv_pos_site_id
 _symmetry_equiv_pos_as_xyz
 1  'x, y, z'
loop_
 _atom_site_type_symbol
 _atom_site_label
 _atom_site_symmetry_multiplicity
 _atom_site_fract_x
 _atom_site_fract_y
 _atom_site_fract_z
 _atom_site_fract_occupancy
 Cd  Cd1  1  0.00360  0.00360  0.00360  1
 Cd  Cd2  1  0.74630  0.74630  0.74630  1
 Cd  Cd3  1  0.49889  0.49889  0.49889  1
 Cd  Cd4  1  0.25132  0.25132  0.25132  1
 Se  Se1  1  0.06319  0.06319  0.06319  1
 Te  Te1  1  0.80988  0.80988  0.80988  1
 Te  Te2  1  0.56222  0.56222  0.56222  1
 Te  Te3  1  0.31461  0.31461  0.31461  1
