CIF file written using JARVIS-Tools package.
data_KCoO2
_symmetry_space_group_name_H-M  'I-4'
_cell_length_a       5.3521
_cell_length_b       5.35194
_cell_length_c       5.35208
_cell_angle_alpha    100.455
_cell_angle_beta     114.161
_cell_angle_gamma    114.157

_symmetry_Int_Tables_number  82
_chemical_formula_structural  KCoO2
_chemical_formula_sum  K2Co2O4
_cell_volume  115.87209642825843
_cell_formula_units_Z  2
loop_
  _symmetry_equiv_pos_site_id
 _symmetry_equiv_pos_as_xyz
 1  'x, y, z'
loop_
 _atom_site_type_symbol
 _atom_site_label
 _atom_site_symmetry_multiplicity
 _atom_site_fract_x
 _atom_site_fract_y
 _atom_site_fract_z
 _atom_site_fract_occupancy
 Co  Co1  1  0.50000  0.74999  0.24999  1
 Co  Co2  1  -0.00000  -0.00000  0.00001  1
 K  K1  1  0.49999  0.24998  0.74998  1
 K  K2  1  -0.00000  0.49999  0.50000  1
 O  O1  1  0.88928  0.91037  0.27442  1
 O  O2  1  0.11073  0.38514  0.02112  1
 O  O3  1  0.36405  -0.02108  0.08962  1
 O  O4  1  0.63596  0.72560  0.61487  1
