CIF file written using JARVIS-Tools package.
data_Li5V2Ni3O10
_symmetry_space_group_name_H-M  'P-1'
_cell_length_a       5.02783
_cell_length_b       5.20377
_cell_length_c       7.75572
_cell_angle_alpha    67.4713
_cell_angle_beta     69.889
_cell_angle_gamma    77.9247

_symmetry_Int_Tables_number  2
_chemical_formula_structural  Li5V2Ni3O10
_chemical_formula_sum  Li5V2Ni3O0
_cell_volume  175.3016006155744
_cell_formula_units_Z  1
loop_
  _symmetry_equiv_pos_site_id
 _symmetry_equiv_pos_as_xyz
 1  'x, y, z'
loop_
 _atom_site_type_symbol
 _atom_site_label
 _atom_site_symmetry_multiplicity
 _atom_site_fract_x
 _atom_site_fract_y
 _atom_site_fract_z
 _atom_site_fract_occupancy
 Li  Li1  1  0.21035  0.49286  0.61055  1
 Li  Li2  1  0.40649  0.49314  0.20118  1
 Li  Li3  1  0.50000  0.00000  0.50000  1
 Li  Li4  1  0.59351  0.50686  0.79882  1
 Li  Li5  1  0.78965  0.50714  0.38945  1
 Ni  Ni1  1  0.30352  0.99160  0.89821  1
 Ni  Ni2  1  0.69648  0.00840  0.10179  1
 Ni  Ni3  1  -0.00000  0.50000  -0.00000  1
 O  O1  1  0.85907  0.77121  0.54915  1
 O  O2  1  0.67583  0.75619  0.94730  1
 O  O3  1  0.05470  0.78353  0.16652  1
 O  O4  1  0.32417  0.24381  0.05270  1
 O  O5  1  0.14093  0.22879  0.45085  1
 O  O6  1  0.21964  0.74787  0.76330  1
 O  O7  1  0.43242  0.77332  0.34987  1
 O  O8  1  0.56758  0.22668  0.65013  1
 O  O9  1  0.78036  0.25213  0.23670  1
 O  O10  1  0.94530  0.21647  0.83348  1
 V  V1  1  0.10281  0.97572  0.31439  1
 V  V2  1  0.89719  0.02428  0.68561  1
