CIF file written using JARVIS-Tools package.
data_Na2BiAu
_symmetry_space_group_name_H-M  'Cmcm'
_cell_length_a       5.96864
_cell_length_b       6.07206
_cell_length_c       6.07206
_cell_angle_alpha    102.376
_cell_angle_beta     90
_cell_angle_gamma    90

_symmetry_Int_Tables_number  63
_chemical_formula_structural  Na2BiAu
_chemical_formula_sum  Na4Bi2Au2
_cell_volume  214.9494654669781
_cell_formula_units_Z  2
loop_
  _symmetry_equiv_pos_site_id
 _symmetry_equiv_pos_as_xyz
 1  'x, y, z'
loop_
 _atom_site_type_symbol
 _atom_site_label
 _atom_site_symmetry_multiplicity
 _atom_site_fract_x
 _atom_site_fract_y
 _atom_site_fract_z
 _atom_site_fract_occupancy
 Au  Au1  1  0.50000  0.00000  0.00000  1
 Au  Au2  1  0.00000  0.00000  0.00000  1
 Bi  Bi1  1  0.25000  0.68588  0.68588  1
 Bi  Bi2  1  0.75000  0.31412  0.31412  1
 Na  Na1  1  0.25000  0.13674  0.49618  1
 Na  Na2  1  0.75000  0.50382  0.86326  1
 Na  Na3  1  0.75000  0.86326  0.50382  1
 Na  Na4  1  0.25000  0.49618  0.13674  1
