CIF file written using JARVIS-Tools package.
data_MnP
_symmetry_space_group_name_H-M  'Pnma'
_cell_length_a       3.191
_cell_length_b       5.22038
_cell_length_c       5.85063
_cell_angle_alpha    90
_cell_angle_beta     90
_cell_angle_gamma    90

_symmetry_Int_Tables_number  62
_chemical_formula_structural  MnP
_chemical_formula_sum  Mn4P4
_cell_volume  97.46095045568093
_cell_formula_units_Z  4
loop_
  _symmetry_equiv_pos_site_id
 _symmetry_equiv_pos_as_xyz
 1  'x, y, z'
loop_
 _atom_site_type_symbol
 _atom_site_label
 _atom_site_symmetry_multiplicity
 _atom_site_fract_x
 _atom_site_fract_y
 _atom_site_fract_z
 _atom_site_fract_occupancy
 Mn  Mn1  1  0.25000  0.50361  0.69691  1
 Mn  Mn2  1  0.75000  0.49639  0.30309  1
 Mn  Mn3  1  0.25000  0.00361  0.80309  1
 Mn  Mn4  1  0.75000  0.99639  0.19691  1
 P  P1  1  0.25000  0.69174  0.07209  1
 P  P2  1  0.75000  0.30826  0.92791  1
 P  P3  1  0.25000  0.19174  0.42791  1
 P  P4  1  0.75000  0.80826  0.57209  1
