CIF file written using JARVIS-Tools package.
data_UPt2
_symmetry_space_group_name_H-M  'Cmcm'
_cell_length_a       4.21274
_cell_length_b       5.33698
_cell_length_c       5.69055
_cell_angle_alpha    90
_cell_angle_beta     90
_cell_angle_gamma    113.246

_symmetry_Int_Tables_number  63
_chemical_formula_structural  UPt2
_chemical_formula_sum  U2Pt4
_cell_volume  117.55614754483884
_cell_formula_units_Z  2
loop_
  _symmetry_equiv_pos_site_id
 _symmetry_equiv_pos_as_xyz
 1  'x, y, z'
loop_
 _atom_site_type_symbol
 _atom_site_label
 _atom_site_symmetry_multiplicity
 _atom_site_fract_x
 _atom_site_fract_y
 _atom_site_fract_z
 _atom_site_fract_occupancy
 Pt  Pt1  1  0.00000  0.00000  0.00000  1
 Pt  Pt2  1  0.00000  0.00000  0.50000  1
 Pt  Pt3  1  0.63424  0.26848  0.75000  1
 Pt  Pt4  1  0.36576  0.73152  0.25000  1
 U  U1  1  0.32727  0.65454  0.75000  1
 U  U2  1  0.67273  0.34546  0.25000  1
