CIF file written using JARVIS-Tools package.
data_CdHgSe4C4N4
_symmetry_space_group_name_H-M  'P1'
_cell_length_a       4.3566
_cell_length_b       8.62284
_cell_length_c       8.62212
_cell_angle_alpha    86.3203
_cell_angle_beta     75.3386
_cell_angle_gamma    75.318

_symmetry_Int_Tables_number  1
_chemical_formula_structural  CdHgSe4C4N4
_chemical_formula_sum  CdHgSe4C4N4
_cell_volume  303.1217638904579
_cell_formula_units_Z  1
loop_
  _symmetry_equiv_pos_site_id
 _symmetry_equiv_pos_as_xyz
 1  'x, y, z'
loop_
 _atom_site_type_symbol
 _atom_site_label
 _atom_site_symmetry_multiplicity
 _atom_site_fract_x
 _atom_site_fract_y
 _atom_site_fract_z
 _atom_site_fract_occupancy
 C  C1  1  0.22706  0.18465  0.64314  1
 C  C2  1  0.13064  0.64318  0.81534  1
 C  C3  1  0.58831  0.35689  0.18463  1
 C  C4  1  0.05399  0.81535  0.35687  1
 Cd  Cd1  1  0.75014  0.49989  0.49974  1
 Hg  Hg1  1  -0.00004  -0.00000  0.00005  1
 N  N1  1  0.07476  0.30042  0.59333  1
 N  N2  1  0.33226  0.59351  0.69935  1
 N  N3  1  0.62482  0.40653  0.30042  1
 N  N4  1  0.96846  0.69937  0.40636  1
 Se  Se1  1  0.46609  0.00749  0.71913  1
 Se  Se2  1  0.81625  0.71887  0.99282  1
 Se  Se3  1  0.52656  0.28108  0.00749  1
 Se  Se4  1  0.19070  0.99279  0.28132  1
