CIF file written using JARVIS-Tools package.
data_Li2Mn3F8
_symmetry_space_group_name_H-M  'P2_1/c'
_cell_length_a       5.77167
_cell_length_b       8.57073
_cell_length_c       9.27164
_cell_angle_alpha    90
_cell_angle_beta     122.116
_cell_angle_gamma    90

_symmetry_Int_Tables_number  14
_chemical_formula_structural  Li2Mn3F8
_chemical_formula_sum  Li4Mn6F6
_cell_volume  388.46157912365794
_cell_formula_units_Z  2
loop_
  _symmetry_equiv_pos_site_id
 _symmetry_equiv_pos_as_xyz
 1  'x, y, z'
loop_
 _atom_site_type_symbol
 _atom_site_label
 _atom_site_symmetry_multiplicity
 _atom_site_fract_x
 _atom_site_fract_y
 _atom_site_fract_z
 _atom_site_fract_occupancy
 F  F1  1  0.24081  0.20178  0.39783  1
 F  F2  1  0.33645  0.89116  0.25663  1
 F  F3  1  0.71331  0.44220  0.64113  1
 F  F4  1  0.28669  0.55780  0.35887  1
 F  F5  1  0.75919  0.79822  0.60217  1
 F  F6  1  0.75455  0.15294  0.46357  1
 F  F7  1  0.66355  0.39116  0.24337  1
 F  F8  1  0.24545  0.65294  0.03643  1
 F  F9  1  0.28669  0.94220  0.85887  1
 F  F10  1  0.75919  0.70178  0.10217  1
 F  F11  1  0.33645  0.60884  0.75663  1
 F  F12  1  0.24545  0.84706  0.53643  1
 F  F13  1  0.66355  0.10884  0.74337  1
 F  F14  1  0.75455  0.34706  0.96357  1
 F  F15  1  0.71331  0.05780  0.14113  1
 F  F16  1  0.24081  0.29822  0.89783  1
 Li  Li1  1  0.12369  0.70078  0.18404  1
 Li  Li2  1  0.87631  0.20078  0.31596  1
 Li  Li3  1  0.12369  0.79922  0.68404  1
 Li  Li4  1  0.87631  0.29922  0.81596  1
 Mn  Mn1  1  0.49331  0.85627  0.10806  1
 Mn  Mn2  1  0.50000  0.00000  0.50000  1
 Mn  Mn3  1  0.50669  0.35627  0.39194  1
 Mn  Mn4  1  0.50669  0.14373  0.89194  1
 Mn  Mn5  1  0.50000  0.50000  0.00000  1
 Mn  Mn6  1  0.49331  0.64373  0.60806  1
