CIF file written using JARVIS-Tools package.
data_CeCuSi2
_symmetry_space_group_name_H-M  'Cmcm'
_cell_length_a       4.20617
_cell_length_b       4.10363
_cell_length_c       8.60512
_cell_angle_alpha    90
_cell_angle_beta     104.146
_cell_angle_gamma    90

_symmetry_Int_Tables_number  63
_chemical_formula_structural  CeCuSi2
_chemical_formula_sum  Ce2Cu2Si4
_cell_volume  144.02513606879404
_cell_formula_units_Z  2
loop_
  _symmetry_equiv_pos_site_id
 _symmetry_equiv_pos_as_xyz
 1  'x, y, z'
loop_
 _atom_site_type_symbol
 _atom_site_label
 _atom_site_symmetry_multiplicity
 _atom_site_fract_x
 _atom_site_fract_y
 _atom_site_fract_z
 _atom_site_fract_occupancy
 Ce  Ce1  1  0.89674  0.75000  0.79348  1
 Ce  Ce2  1  0.10326  0.25000  0.20652  1
 Cu  Cu1  1  0.67653  0.75000  0.35307  1
 Cu  Cu2  1  0.32347  0.25000  0.64693  1
 Si  Si1  1  0.53648  0.75000  0.07295  1
 Si  Si2  1  0.46352  0.25000  0.92705  1
 Si  Si3  1  0.24825  0.75000  0.49650  1
 Si  Si4  1  0.75175  0.25000  0.50350  1
