CIF file written using JARVIS-Tools package.
data_ZnH8C4O8
_symmetry_space_group_name_H-M  'C2/c'
_cell_length_a       8.05064
_cell_length_b       8.05064
_cell_length_c       6.59911
_cell_angle_alpha    85.1202
_cell_angle_beta     94.8798
_cell_angle_gamma    66.4408

_symmetry_Int_Tables_number  15
_chemical_formula_structural  ZnH8C4O8
_chemical_formula_sum  Zn2H6C8O6
_cell_volume  387.3016806034959
_cell_formula_units_Z  2
loop_
  _symmetry_equiv_pos_site_id
 _symmetry_equiv_pos_as_xyz
 1  'x, y, z'
loop_
 _atom_site_type_symbol
 _atom_site_label
 _atom_site_symmetry_multiplicity
 _atom_site_fract_x
 _atom_site_fract_y
 _atom_site_fract_z
 _atom_site_fract_occupancy
 C  C1  1  0.09913  0.86738  0.50334  1
 C  C2  1  0.94905  0.90035  0.99557  1
 C  C3  1  0.09965  0.05095  0.49557  1
 C  C4  1  0.05095  0.09965  0.00443  1
 C  C5  1  0.90035  0.94905  0.50443  1
 C  C6  1  0.90087  0.13262  0.49666  1
 C  C7  1  0.86738  0.09913  0.99666  1
 C  C8  1  0.13262  0.90087  0.00334  1
 H  H1  1  0.35099  0.15114  0.11023  1
 H  H2  1  0.85495  0.44662  0.62238  1
 H  H3  1  0.14505  0.55338  0.37762  1
 H  H4  1  0.55338  0.14505  0.12238  1
 H  H5  1  0.44662  0.85495  0.87762  1
 H  H6  1  0.64901  0.84886  0.88977  1
 H  H7  1  0.48811  0.75985  0.25388  1
 H  H8  1  0.75985  0.48811  0.24612  1
 H  H9  1  0.84886  0.64901  0.61023  1
 H  H10  1  0.24015  0.51189  0.75388  1
 H  H11  1  0.71200  0.41706  0.04556  1
 H  H12  1  0.51189  0.24015  0.74612  1
 H  H13  1  0.28800  0.58294  0.95444  1
 H  H14  1  0.58294  0.28800  0.54556  1
 H  H15  1  0.15114  0.35099  0.38977  1
 H  H16  1  0.41706  0.71200  0.45444  1
 O  O1  1  0.90101  0.52663  0.69244  1
 O  O2  1  0.51406  0.74675  0.40388  1
 O  O3  1  0.52663  0.90101  0.80756  1
 O  O4  1  0.47337  0.09899  0.19244  1
 O  O5  1  0.09899  0.47337  0.30756  1
 O  O6  1  0.48594  0.25325  0.59612  1
 O  O7  1  0.25325  0.48594  0.90388  1
 O  O8  1  0.21562  0.11951  0.48965  1
 O  O9  1  0.70560  0.21666  0.99408  1
 O  O10  1  0.78438  0.88049  0.51035  1
 O  O11  1  0.88049  0.78438  0.98965  1
 O  O12  1  0.78334  0.29440  0.49408  1
 O  O13  1  0.29440  0.78334  0.00592  1
 O  O14  1  0.21666  0.70560  0.50592  1
 O  O15  1  0.74675  0.51406  0.09612  1
 O  O16  1  0.11951  0.21562  0.01035  1
 Zn  Zn1  1  0.00000  0.50000  -0.00000  1
 Zn  Zn2  1  0.50000  0.00000  0.50000  1
