CIF file written using JARVIS-Tools package.
data_TlAsS2
_symmetry_space_group_name_H-M  'P2_1/c'
_cell_length_a       6.15131
_cell_length_b       11.5045
_cell_length_c       12.4546
_cell_angle_alpha    90
_cell_angle_beta     104.934
_cell_angle_gamma    90

_symmetry_Int_Tables_number  14
_chemical_formula_structural  TlAsS2
_chemical_formula_sum  Tl8As8S6
_cell_volume  851.6142372234
_cell_formula_units_Z  8
loop_
  _symmetry_equiv_pos_site_id
 _symmetry_equiv_pos_as_xyz
 1  'x, y, z'
loop_
 _atom_site_type_symbol
 _atom_site_label
 _atom_site_symmetry_multiplicity
 _atom_site_fract_x
 _atom_site_fract_y
 _atom_site_fract_z
 _atom_site_fract_occupancy
 As  As1  1  0.54487  0.08929  0.63845  1
 As  As2  1  0.22632  0.33421  0.69284  1
 As  As3  1  0.45513  0.91071  0.36155  1
 As  As4  1  0.54487  0.41071  0.13845  1
 As  As5  1  0.77368  0.83421  0.80716  1
 As  As6  1  0.45513  0.58929  0.86155  1
 As  As7  1  0.22632  0.16579  0.19284  1
 As  As8  1  0.77368  0.66579  0.30716  1
 S  S1  1  0.73765  0.03944  0.82255  1
 S  S2  1  0.71533  0.81856  0.62502  1
 S  S3  1  0.26235  0.53944  0.67745  1
 S  S4  1  0.26235  0.96056  0.17745  1
 S  S5  1  0.73765  0.46056  0.32255  1
 S  S6  1  0.41371  0.79093  0.83189  1
 S  S7  1  0.19204  0.43867  0.14965  1
 S  S8  1  0.58629  0.29093  0.66811  1
 S  S9  1  0.28467  0.31856  0.87498  1
 S  S10  1  0.41371  0.70907  0.33189  1
 S  S11  1  0.71533  0.68144  0.12502  1
 S  S12  1  0.28467  0.18144  0.37498  1
 S  S13  1  0.80796  0.56133  0.85035  1
 S  S14  1  0.19204  0.06133  0.64965  1
 S  S15  1  0.58629  0.20907  0.16811  1
 S  S16  1  0.80796  0.93867  0.35035  1
 Tl  Tl1  1  0.27193  0.43970  0.39894  1
 Tl  Tl2  1  0.72807  0.93970  0.10106  1
 Tl  Tl3  1  0.72807  0.56030  0.60106  1
 Tl  Tl4  1  0.27193  0.06030  0.89894  1
 Tl  Tl5  1  0.83801  0.18384  0.44268  1
 Tl  Tl6  1  0.16199  0.68384  0.05732  1
 Tl  Tl7  1  0.16199  0.81616  0.55732  1
 Tl  Tl8  1  0.83801  0.31616  0.94268  1
