CIF file written using JARVIS-Tools package.
data_Co2O3F
_symmetry_space_group_name_H-M  'Cmce'
_cell_length_a       5.82852
_cell_length_b       6.33221
_cell_length_c       6.6965
_cell_angle_alpha    90
_cell_angle_beta     115.797
_cell_angle_gamma    90

_symmetry_Int_Tables_number  64
_chemical_formula_structural  Co2O3F
_chemical_formula_sum  Co8O2F4
_cell_volume  222.51953665872773
_cell_formula_units_Z  4
loop_
  _symmetry_equiv_pos_site_id
 _symmetry_equiv_pos_as_xyz
 1  'x, y, z'
loop_
 _atom_site_type_symbol
 _atom_site_label
 _atom_site_symmetry_multiplicity
 _atom_site_fract_x
 _atom_site_fract_y
 _atom_site_fract_z
 _atom_site_fract_occupancy
 Co  Co1  1  0.00051  0.97360  0.00101  1
 Co  Co2  1  0.50051  0.02640  0.00101  1
 Co  Co3  1  0.50059  -0.00000  0.50117  1
 Co  Co4  1  0.74941  0.50000  0.99883  1
 Co  Co5  1  0.24941  0.50000  0.99883  1
 Co  Co6  1  0.00059  -0.00000  0.50117  1
 Co  Co7  1  0.24949  0.47360  0.49899  1
 Co  Co8  1  0.74949  0.52640  0.49899  1
 F  F1  1  0.00145  0.28115  0.00290  1
 F  F2  1  0.50145  0.71885  0.00290  1
 F  F3  1  0.74855  0.21885  0.49710  1
 F  F4  1  0.24855  0.78115  0.49710  1
 O  O1  1  0.90182  0.50000  0.30364  1
 O  O2  1  0.15258  0.00000  0.80516  1
 O  O3  1  0.25166  0.18484  0.50332  1
 O  O4  1  0.99834  0.68484  0.99668  1
 O  O5  1  0.49834  0.31516  0.99668  1
 O  O6  1  0.84818  0.00000  0.19636  1
 O  O7  1  0.34818  0.00000  0.19636  1
 O  O8  1  0.40182  0.50000  0.30364  1
 O  O9  1  0.59742  0.50000  0.69484  1
 O  O10  1  0.75166  0.81516  0.50332  1
 O  O11  1  0.09742  0.50000  0.69484  1
 O  O12  1  0.65258  0.00000  0.80516  1
