CIF file written using JARVIS-Tools package.
data_YbCdSn
_symmetry_space_group_name_H-M  'P-62m'
_cell_length_a       4.59824
_cell_length_b       7.64888
_cell_length_c       7.64903
_cell_angle_alpha    119.999
_cell_angle_beta     90
_cell_angle_gamma    90

_symmetry_Int_Tables_number  189
_chemical_formula_structural  YbCdSn
_chemical_formula_sum  Yb3Cd3Sn3
_cell_volume  232.9854153746919
_cell_formula_units_Z  3
loop_
  _symmetry_equiv_pos_site_id
 _symmetry_equiv_pos_as_xyz
 1  'x, y, z'
loop_
 _atom_site_type_symbol
 _atom_site_label
 _atom_site_symmetry_multiplicity
 _atom_site_fract_x
 _atom_site_fract_y
 _atom_site_fract_z
 _atom_site_fract_occupancy
 Cd  Cd1  1  0.00000  0.25476  -0.00000  1
 Cd  Cd2  1  0.00000  0.74522  0.74524  1
 Cd  Cd3  1  0.00000  0.99998  0.25476  1
 Sn  Sn1  1  0.00000  0.33332  0.66667  1
 Sn  Sn2  1  0.00000  0.66666  0.33333  1
 Sn  Sn3  1  0.50000  -0.00001  0.00000  1
 Yb  Yb1  1  0.50000  0.57611  -0.00000  1
 Yb  Yb2  1  0.50000  0.42387  0.42388  1
 Yb  Yb3  1  0.50000  0.99999  0.57612  1
