CIF file written using JARVIS-Tools package.
data_KLaSiS4
_symmetry_space_group_name_H-M  'P2_1/m'
_cell_length_a       6.5999
_cell_length_b       6.58337
_cell_length_c       8.62022
_cell_angle_alpha    90
_cell_angle_beta     107.572
_cell_angle_gamma    90

_symmetry_Int_Tables_number  11
_chemical_formula_structural  KLaSiS4
_chemical_formula_sum  K2La2Si2S8
_cell_volume  357.0675000730325
_cell_formula_units_Z  2
loop_
  _symmetry_equiv_pos_site_id
 _symmetry_equiv_pos_as_xyz
 1  'x, y, z'
loop_
 _atom_site_type_symbol
 _atom_site_label
 _atom_site_symmetry_multiplicity
 _atom_site_fract_x
 _atom_site_fract_y
 _atom_site_fract_z
 _atom_site_fract_occupancy
 K  K1  1  0.72093  0.25000  0.93235  1
 K  K2  1  0.27907  0.75000  0.06765  1
 La  La1  1  0.76687  0.25000  0.44638  1
 La  La2  1  0.23313  0.75000  0.55362  1
 S  S1  1  0.00103  0.49667  0.73147  1
 S  S2  1  -0.00103  0.99667  0.26853  1
 S  S3  1  -0.00103  0.50333  0.26853  1
 S  S4  1  0.00103  0.00333  0.73147  1
 S  S5  1  0.40581  0.25000  0.15482  1
 S  S6  1  0.59419  0.75000  0.84518  1
 S  S7  1  0.39148  0.25000  0.56269  1
 S  S8  1  0.60852  0.75000  0.43731  1
 Si  Si1  1  0.21040  0.25000  0.30883  1
 Si  Si2  1  0.78960  0.75000  0.69117  1
