CIF file written using JARVIS-Tools package.
data_AuI
_symmetry_space_group_name_H-M  'P4_2/ncm'
_cell_length_a       4.3271
_cell_length_b       4.3271
_cell_length_c       14.0096
_cell_angle_alpha    90
_cell_angle_beta     90
_cell_angle_gamma    90

_symmetry_Int_Tables_number  138
_chemical_formula_structural  AuI
_chemical_formula_sum  Au4I4
_cell_volume  262.3127977048169
_cell_formula_units_Z  4
loop_
  _symmetry_equiv_pos_site_id
 _symmetry_equiv_pos_as_xyz
 1  'x, y, z'
loop_
 _atom_site_type_symbol
 _atom_site_label
 _atom_site_symmetry_multiplicity
 _atom_site_fract_x
 _atom_site_fract_y
 _atom_site_fract_z
 _atom_site_fract_occupancy
 Au  Au1  1  0.75000  0.25000  0.75000  1
 Au  Au2  1  0.25000  0.25000  0.25000  1
 Au  Au3  1  0.75000  0.75000  0.25000  1
 Au  Au4  1  0.25000  0.75000  0.75000  1
 I  I1  1  0.00000  0.50000  0.59554  1
 I  I2  1  0.00000  0.50000  0.09554  1
 I  I3  1  0.50000  0.00000  0.40446  1
 I  I4  1  0.50000  0.00000  0.90446  1
