CIF file written using JARVIS-Tools package.
data_NaBOF2
_symmetry_space_group_name_H-M  'C2/c'
_cell_length_a       6.83183
_cell_length_b       6.83183
_cell_length_c       9.34037
_cell_angle_alpha    70.0679
_cell_angle_beta     70.0679
_cell_angle_gamma    60.5944

_symmetry_Int_Tables_number  15
_chemical_formula_structural  NaBOF2
_chemical_formula_sum  Na6B6O6F2
_cell_volume  348.93071759738126
_cell_formula_units_Z  6
loop_
  _symmetry_equiv_pos_site_id
 _symmetry_equiv_pos_as_xyz
 1  'x, y, z'
loop_
 _atom_site_type_symbol
 _atom_site_label
 _atom_site_symmetry_multiplicity
 _atom_site_fract_x
 _atom_site_fract_y
 _atom_site_fract_z
 _atom_site_fract_occupancy
 B  B1  1  0.36893  0.42059  0.24423  1
 B  B2  1  0.42059  0.36893  0.74423  1
 B  B3  1  0.79070  0.20930  0.25000  1
 B  B4  1  0.20930  0.79070  0.75000  1
 B  B5  1  0.63107  0.57941  0.75577  1
 B  B6  1  0.57941  0.63107  0.25577  1
 F  F1  1  0.03158  0.87513  0.88571  1
 F  F2  1  0.71794  0.53383  0.89224  1
 F  F3  1  0.12487  0.96842  0.61429  1
 F  F4  1  0.96842  0.12487  0.11429  1
 F  F5  1  0.28206  0.46617  0.10776  1
 F  F6  1  0.87513  0.03158  0.38571  1
 F  F7  1  0.37350  0.19546  0.88001  1
 F  F8  1  0.80454  0.62650  0.61999  1
 F  F9  1  0.62650  0.80454  0.11999  1
 F  F10  1  0.19546  0.37350  0.38001  1
 F  F11  1  0.53383  0.71794  0.39224  1
 F  F12  1  0.46617  0.28206  0.60776  1
 Na  Na1  1  0.68369  0.13180  0.99689  1
 Na  Na2  1  -0.00000  0.50000  0.00000  1
 Na  Na3  1  0.50000  0.00000  0.50000  1
 Na  Na4  1  0.13180  0.68369  0.49689  1
 Na  Na5  1  0.31631  0.86820  0.00311  1
 Na  Na6  1  0.86820  0.31631  0.50311  1
 O  O1  1  0.62334  0.37666  0.75000  1
 O  O2  1  0.58083  0.21761  0.24411  1
 O  O3  1  0.41917  0.78239  0.75589  1
 O  O4  1  0.21761  0.58083  0.74411  1
 O  O5  1  0.37666  0.62334  0.25000  1
 O  O6  1  0.78239  0.41917  0.25589  1
