CIF file written using JARVIS-Tools package.
data_BaMo2Br
_symmetry_space_group_name_H-M  'Pmmm'
_cell_length_a       3.31738
_cell_length_b       4.80053
_cell_length_c       6.38363
_cell_angle_alpha    90
_cell_angle_beta     90
_cell_angle_gamma    90

_symmetry_Int_Tables_number  47
_chemical_formula_structural  BaMo2Br
_chemical_formula_sum  BaMo2Br
_cell_volume  101.66050270454524
_cell_formula_units_Z  1
loop_
  _symmetry_equiv_pos_site_id
 _symmetry_equiv_pos_as_xyz
 1  'x, y, z'
loop_
 _atom_site_type_symbol
 _atom_site_label
 _atom_site_symmetry_multiplicity
 _atom_site_fract_x
 _atom_site_fract_y
 _atom_site_fract_z
 _atom_site_fract_occupancy
 Ba  Ba1  1  0.50000  0.50000  0.00000  1
 Br  Br1  1  0.50000  0.50000  0.50000  1
 Mo  Mo1  1  0.00000  0.00000  0.66588  1
 Mo  Mo2  1  0.00000  0.00000  0.33412  1
