CIF file written using JARVIS-Tools package.
data_Na6ZnSn2
_symmetry_space_group_name_H-M  'C2/m'
_cell_length_a       5.45302
_cell_length_b       5.71739
_cell_length_c       9.31247
_cell_angle_alpha    96.97
_cell_angle_beta     90
_cell_angle_gamma    118.482

_symmetry_Int_Tables_number  12
_chemical_formula_structural  Na6ZnSn2
_chemical_formula_sum  Na6ZnSn2
_cell_volume  252.75142380142034
_cell_formula_units_Z  1
loop_
  _symmetry_equiv_pos_site_id
 _symmetry_equiv_pos_as_xyz
 1  'x, y, z'
loop_
 _atom_site_type_symbol
 _atom_site_label
 _atom_site_symmetry_multiplicity
 _atom_site_fract_x
 _atom_site_fract_y
 _atom_site_fract_z
 _atom_site_fract_occupancy
 Na  Na1  1  0.47436  0.94871  0.28017  1
 Na  Na2  1  0.17150  0.34299  0.59492  1
 Na  Na3  1  0.29877  0.59754  0.93639  1
 Na  Na4  1  0.82850  0.65701  0.40508  1
 Na  Na5  1  0.52564  0.05129  0.71983  1
 Na  Na6  1  0.70123  0.40246  0.06361  1
 Sn  Sn1  1  0.14925  0.29849  0.25257  1
 Sn  Sn2  1  0.85075  0.70151  0.74743  1
 Zn  Zn1  1  0.00000  0.00000  0.00000  1
