CIF file written using JARVIS-Tools package.
data_Y2O3
_symmetry_space_group_name_H-M  'P2_1/m'
_cell_length_a       9.12777
_cell_length_b       3.39181
_cell_length_c       9.31512
_cell_angle_alpha    90
_cell_angle_beta     106.495
_cell_angle_gamma    90

_symmetry_Int_Tables_number  11
_chemical_formula_structural  Y2O3
_chemical_formula_sum  Y8O2
_cell_volume  276.52379968352204
_cell_formula_units_Z  4
loop_
  _symmetry_equiv_pos_site_id
 _symmetry_equiv_pos_as_xyz
 1  'x, y, z'
loop_
 _atom_site_type_symbol
 _atom_site_label
 _atom_site_symmetry_multiplicity
 _atom_site_fract_x
 _atom_site_fract_y
 _atom_site_fract_z
 _atom_site_fract_occupancy
 O  O1  1  0.30861  0.75000  0.25671  1
 O  O2  1  0.03585  0.25000  0.89904  1
 O  O3  1  0.39300  0.25000  0.04636  1
 O  O4  1  0.23767  0.75000  0.77927  1
 O  O5  1  0.69139  0.25000  0.74329  1
 O  O6  1  0.60700  0.75000  0.95364  1
 O  O7  1  0.09373  0.25000  0.43325  1
 O  O8  1  0.90627  0.75000  0.56675  1
 O  O9  1  0.57870  0.25000  0.40266  1
 O  O10  1  0.96415  0.75000  0.10096  1
 O  O11  1  0.76233  0.25000  0.22073  1
 O  O12  1  0.42130  0.75000  0.59734  1
 Y  Y1  1  0.18115  0.75000  0.01355  1
 Y  Y2  1  0.54912  0.75000  0.18516  1
 Y  Y3  1  0.93840  0.75000  0.32830  1
 Y  Y4  1  0.33315  0.25000  0.41440  1
 Y  Y5  1  0.66685  0.75000  0.58560  1
 Y  Y6  1  0.06160  0.25000  0.67170  1
 Y  Y7  1  0.45088  0.25000  0.81484  1
 Y  Y8  1  0.81885  0.25000  0.98645  1
