CIF file written using JARVIS-Tools package.
data_LiVGeO5
_symmetry_space_group_name_H-M  'P2_1/m'
_cell_length_a       4.67156
_cell_length_b       6.3652
_cell_length_c       6.61138
_cell_angle_alpha    90
_cell_angle_beta     95.0631
_cell_angle_gamma    90

_symmetry_Int_Tables_number  11
_chemical_formula_structural  LiVGeO5
_chemical_formula_sum  Li2V2Ge2O0
_cell_volume  195.8252176034138
_cell_formula_units_Z  2
loop_
  _symmetry_equiv_pos_site_id
 _symmetry_equiv_pos_as_xyz
 1  'x, y, z'
loop_
 _atom_site_type_symbol
 _atom_site_label
 _atom_site_symmetry_multiplicity
 _atom_site_fract_x
 _atom_site_fract_y
 _atom_site_fract_z
 _atom_site_fract_occupancy
 Ge  Ge1  1  0.47514  0.25000  0.25220  1
 Ge  Ge2  1  0.52486  0.75000  0.74780  1
 Li  Li1  1  -0.00000  0.00000  0.50000  1
 Li  Li2  1  -0.00000  0.50000  0.50000  1
 O  O1  1  0.64816  0.25000  0.02384  1
 O  O2  1  0.72907  0.75000  0.31089  1
 O  O3  1  0.24902  0.47477  0.26403  1
 O  O4  1  0.24902  0.02523  0.26403  1
 O  O5  1  0.74297  0.25000  0.45679  1
 O  O6  1  0.25703  0.75000  0.54321  1
 O  O7  1  0.75098  0.97477  0.73597  1
 O  O8  1  0.75098  0.52523  0.73597  1
 O  O9  1  0.27093  0.25000  0.68911  1
 O  O10  1  0.35184  0.75000  0.97616  1
 V  V1  1  0.38265  0.75000  0.24814  1
 V  V2  1  0.61735  0.25000  0.75186  1
