CIF file written using JARVIS-Tools package.
data_Na2BeO2
_symmetry_space_group_name_H-M  'P2_1/c'
_cell_length_a       5.30091
_cell_length_b       7.86884
_cell_length_c       11.4398
_cell_angle_alpha    98.6597
_cell_angle_beta     90
_cell_angle_gamma    90

_symmetry_Int_Tables_number  14
_chemical_formula_structural  Na2BeO2
_chemical_formula_sum  Na6Be8O6
_cell_volume  471.73669783940204
_cell_formula_units_Z  8
loop_
  _symmetry_equiv_pos_site_id
 _symmetry_equiv_pos_as_xyz
 1  'x, y, z'
loop_
 _atom_site_type_symbol
 _atom_site_label
 _atom_site_symmetry_multiplicity
 _atom_site_fract_x
 _atom_site_fract_y
 _atom_site_fract_z
 _atom_site_fract_occupancy
 Be  Be1  1  0.38339  0.36550  0.62728  1
 Be  Be2  1  0.95854  0.37926  0.28863  1
 Be  Be3  1  0.45854  0.62074  0.71137  1
 Be  Be4  1  0.04338  0.12066  0.21139  1
 Be  Be5  1  0.54338  0.87934  0.78861  1
 Be  Be6  1  0.88339  0.63450  0.37272  1
 Be  Be7  1  0.11842  0.86543  0.12729  1
 Be  Be8  1  0.61842  0.13457  0.87271  1
 Na  Na1  1  0.94323  0.33884  0.51490  1
 Na  Na2  1  0.55327  0.19768  0.12447  1
 Na  Na3  1  0.05327  0.80232  0.87553  1
 Na  Na4  1  0.83357  0.42956  0.78454  1
 Na  Na5  1  0.44323  0.66116  0.48510  1
 Na  Na6  1  0.66829  0.92950  0.28454  1
 Na  Na7  1  0.33357  0.57044  0.21546  1
 Na  Na8  1  0.55860  0.83886  0.01488  1
 Na  Na9  1  0.05860  0.16114  0.98512  1
 Na  Na10  1  0.44862  0.30234  0.37556  1
 Na  Na11  1  0.94862  0.69766  0.62444  1
 Na  Na12  1  0.88226  0.50298  0.08184  1
 Na  Na13  1  0.11960  0.99700  0.41820  1
 Na  Na14  1  0.61960  0.00300  0.58180  1
 Na  Na15  1  0.16829  0.07050  0.71546  1
 Na  Na16  1  0.38226  0.49702  0.91816  1
 O  O1  1  0.30841  0.19352  0.55552  1
 O  O2  1  0.63534  0.69605  0.82690  1
 O  O3  1  0.11698  0.51851  0.39142  1
 O  O4  1  0.86657  0.19598  0.32692  1
 O  O5  1  0.36657  0.80402  0.67308  1
 O  O6  1  0.13534  0.30395  0.17310  1
 O  O7  1  0.61698  0.48149  0.60858  1
 O  O8  1  0.72717  0.52042  0.27182  1
 O  O9  1  0.88487  0.98144  0.10858  1
 O  O10  1  0.27465  0.97946  0.22820  1
 O  O11  1  0.69343  0.30653  0.94449  1
 O  O12  1  0.22717  0.47958  0.72818  1
 O  O13  1  0.19343  0.69347  0.05551  1
 O  O14  1  0.77465  0.02054  0.77180  1
 O  O15  1  0.38487  0.01856  0.89142  1
 O  O16  1  0.80841  0.80648  0.44448  1
