CIF file written using JARVIS-Tools package.
data_CrNiP
_symmetry_space_group_name_H-M  'P-62m'
_cell_length_a       3.52389
_cell_length_b       5.90917
_cell_length_c       5.90903
_cell_angle_alpha    120.001
_cell_angle_beta     90
_cell_angle_gamma    90

_symmetry_Int_Tables_number  189
_chemical_formula_structural  CrNiP
_chemical_formula_sum  Cr3Ni3P3
_cell_volume  106.55953761994813
_cell_formula_units_Z  3
loop_
  _symmetry_equiv_pos_site_id
 _symmetry_equiv_pos_as_xyz
 1  'x, y, z'
loop_
 _atom_site_type_symbol
 _atom_site_label
 _atom_site_symmetry_multiplicity
 _atom_site_fract_x
 _atom_site_fract_y
 _atom_site_fract_z
 _atom_site_fract_occupancy
 Cr  Cr1  1  0.50000  0.59529  -0.00000  1
 Cr  Cr2  1  0.50000  0.40469  0.40473  1
 Cr  Cr3  1  0.50000  0.99996  0.59527  1
 Ni  Ni1  1  0.00000  0.25597  0.00000  1
 Ni  Ni2  1  0.00000  0.74402  0.74403  1
 Ni  Ni3  1  0.00000  -0.00001  0.25597  1
 P  P1  1  0.00000  0.33332  0.66666  1
 P  P2  1  0.00000  0.66666  0.33334  1
 P  P3  1  0.50000  0.00000  0.00000  1
