CIF file written using JARVIS-Tools package.
data_Nd4Ga2O9
_symmetry_space_group_name_H-M  'P2_1/c'
_cell_length_a       7.78697
_cell_length_b       11.0581
_cell_length_c       11.6064
_cell_angle_alpha    90
_cell_angle_beta     108.931
_cell_angle_gamma    90

_symmetry_Int_Tables_number  14
_chemical_formula_structural  Nd4Ga2O9
_chemical_formula_sum  Nd6Ga8O36
_cell_volume  945.3510844043054
_cell_formula_units_Z  4
loop_
  _symmetry_equiv_pos_site_id
 _symmetry_equiv_pos_as_xyz
 1  'x, y, z'
loop_
 _atom_site_type_symbol
 _atom_site_label
 _atom_site_symmetry_multiplicity
 _atom_site_fract_x
 _atom_site_fract_y
 _atom_site_fract_z
 _atom_site_fract_occupancy
 Ga  Ga1  1  0.34394  0.81744  0.88632  1
 Ga  Ga2  1  0.65606  0.31744  0.61368  1
 Ga  Ga3  1  0.21421  0.18522  0.12620  1
 Ga  Ga4  1  0.34394  0.68256  0.38632  1
 Ga  Ga5  1  0.65606  0.18256  0.11368  1
 Ga  Ga6  1  0.21421  0.31478  0.62620  1
 Ga  Ga7  1  0.78579  0.81478  0.87380  1
 Ga  Ga8  1  0.78579  0.68522  0.37380  1
 Nd  Nd1  1  0.66388  0.62400  0.06780  1
 Nd  Nd2  1  0.52228  0.10664  0.78351  1
 Nd  Nd3  1  0.66388  0.87600  0.56780  1
 Nd  Nd4  1  0.97627  0.90929  0.19264  1
 Nd  Nd5  1  0.52228  0.39336  0.28351  1
 Nd  Nd6  1  0.33612  0.12400  0.43220  1
 Nd  Nd7  1  0.02373  0.40929  0.30736  1
 Nd  Nd8  1  0.83421  0.11908  0.41041  1
 Nd  Nd9  1  0.83421  0.38092  0.91041  1
 Nd  Nd10  1  0.47772  0.89336  0.21649  1
 Nd  Nd11  1  0.02373  0.09071  0.80736  1
 Nd  Nd12  1  0.47772  0.60664  0.71649  1
 Nd  Nd13  1  0.16579  0.61908  0.08959  1
 Nd  Nd14  1  0.16579  0.88092  0.58959  1
 Nd  Nd15  1  0.97627  0.59071  0.69264  1
 Nd  Nd16  1  0.33612  0.37600  0.93220  1
 O  O1  1  0.56791  0.74828  0.38648  1
 O  O2  1  0.43209  0.24828  0.11352  1
 O  O3  1  0.63673  0.23169  0.95888  1
 O  O4  1  0.21421  0.77315  0.25107  1
 O  O5  1  0.92188  0.00656  0.60557  1
 O  O6  1  0.43460  0.50900  0.10461  1
 O  O7  1  0.76642  0.77072  0.23107  1
 O  O8  1  0.63673  0.26831  0.45888  1
 O  O9  1  0.70308  0.47306  0.67547  1
 O  O10  1  0.07812  0.50656  0.89443  1
 O  O11  1  0.21421  0.72685  0.75107  1
 O  O12  1  0.23358  0.27072  0.26893  1
 O  O13  1  0.76642  0.72928  0.73107  1
 O  O14  1  0.43460  0.99100  0.60461  1
 O  O15  1  0.92775  0.73634  0.52514  1
 O  O16  1  0.78397  0.52320  0.33945  1
 O  O17  1  0.70308  0.02694  0.17547  1
 O  O18  1  0.56540  0.00900  0.39539  1
 O  O19  1  0.29692  0.97306  0.82453  1
 O  O20  1  0.78397  0.97680  0.83945  1
 O  O21  1  0.36327  0.76831  0.04112  1
 O  O22  1  0.56791  0.75172  0.88648  1
 O  O23  1  0.07812  0.99344  0.39443  1
 O  O24  1  0.36327  0.73169  0.54112  1
 O  O25  1  0.21603  0.47680  0.66055  1
 O  O26  1  0.07225  0.26366  0.47486  1
 O  O27  1  0.07225  0.23634  0.97486  1
 O  O28  1  0.78579  0.27315  0.24893  1
 O  O29  1  0.23358  0.22928  0.76893  1
 O  O30  1  0.21603  0.02320  0.16055  1
 O  O31  1  0.78579  0.22685  0.74893  1
 O  O32  1  0.29692  0.52694  0.32453  1
 O  O33  1  0.92188  0.49344  0.10557  1
 O  O34  1  0.43209  0.25172  0.61352  1
 O  O35  1  0.92775  0.76366  0.02514  1
 O  O36  1  0.56540  0.49100  0.89539  1
