CIF file written using JARVIS-Tools package.
data_MgP2H12O11
_symmetry_space_group_name_H-M  'P-1'
_cell_length_a       7.6961
_cell_length_b       9.1847
_cell_length_c       7.41941
_cell_angle_alpha    93.6517
_cell_angle_beta     108.799
_cell_angle_gamma    67.4358

_symmetry_Int_Tables_number  2
_chemical_formula_structural  MgP2H12O11
_chemical_formula_sum  Mg2P4H24O22
_cell_volume  457.38832399023977
_cell_formula_units_Z  2
loop_
  _symmetry_equiv_pos_site_id
 _symmetry_equiv_pos_as_xyz
 1  'x, y, z'
loop_
 _atom_site_type_symbol
 _atom_site_label
 _atom_site_symmetry_multiplicity
 _atom_site_fract_x
 _atom_site_fract_y
 _atom_site_fract_z
 _atom_site_fract_occupancy
 H  H1  1  0.74597  0.12878  0.03798  1
 H  H2  1  0.67120  0.20870  0.52669  1
 H  H3  1  0.07283  0.19311  0.89478  1
 H  H4  1  0.43121  0.22563  0.11620  1
 H  H5  1  0.56879  0.77437  0.88380  1
 H  H6  1  0.61344  0.51622  0.33774  1
 H  H7  1  0.08100  0.60093  0.96989  1
 H  H8  1  0.38656  0.48378  0.66226  1
 H  H9  1  0.97219  0.04674  0.21560  1
 H  H10  1  0.02781  0.95326  0.78440  1
 H  H11  1  0.91900  0.39907  0.03011  1
 H  H12  1  0.10353  0.94028  0.73489  1
 H  H13  1  0.89647  0.05972  0.26511  1
 H  H14  1  0.47862  0.61091  0.13689  1
 H  H15  1  0.52138  0.38909  0.86311  1
 H  H16  1  0.79979  0.44291  0.17721  1
 H  H17  1  0.20021  0.55709  0.82279  1
 H  H18  1  -0.07283  0.80689  0.10522  1
 H  H19  1  0.25403  0.87122  -0.03798  1
 H  H20  1  0.57423  0.60645  0.81890  1
 H  H21  1  0.42577  0.39355  0.18110  1
 H  H22  1  0.73490  0.87956  0.31317  1
 H  H23  1  0.32880  0.79130  0.47331  1
 H  H24  1  0.26510  0.12044  0.68683  1
 Mg  Mg1  1  0.78104  0.70740  0.64516  1
 Mg  Mg2  1  0.21896  0.29260  0.35484  1
 O  O1  1  0.24659  0.08102  0.21347  1
 O  O2  1  0.44145  0.49647  0.80137  1
 O  O3  1  0.77309  0.49061  0.55832  1
 O  O4  1  0.22691  0.50939  0.44168  1
 O  O5  1  0.09638  0.25939  0.55455  1
 O  O6  1  0.90362  0.74061  0.44545  1
 O  O7  1  0.04718  0.71648  0.17319  1
 O  O8  1  0.78783  0.21193  0.49319  1
 O  O9  1  0.21217  0.78807  0.50681  1
 O  O10  1  0.75341  0.91898  0.78653  1
 O  O11  1  0.95282  0.28352  0.82681  1
 O  O12  1  0.49995  0.17614  0.57271  1
 O  O13  1  0.39423  0.04159  0.77968  1
 O  O14  1  0.60577  0.95841  0.22032  1
 O  O15  1  0.63003  0.18284  0.92617  1
 O  O16  1  0.36997  0.81716  0.07383  1
 O  O17  1  0.64696  0.67906  0.83552  1
 O  O18  1  0.35304  0.32094  0.16448  1
 O  O19  1  0.06471  0.59494  0.83326  1
 O  O20  1  0.50005  0.82386  0.42729  1
 O  O21  1  0.93529  0.40506  0.16674  1
 O  O22  1  0.55855  0.50353  0.19863  1
 P  P1  1  0.90341  0.31701  0.60153  1
 P  P2  1  0.09659  0.68299  0.39847  1
 P  P3  1  0.57526  0.07222  0.75589  1
 P  P4  1  0.42474  0.92778  0.24411  1
