CIF file written using JARVIS-Tools package.
data_MgSiO3
_symmetry_space_group_name_H-M  'P2_1/c'
_cell_length_a       18.3722
_cell_length_b       8.8431
_cell_length_c       5.19901
_cell_angle_alpha    90
_cell_angle_beta     89.8892
_cell_angle_gamma    90

_symmetry_Int_Tables_number  14
_chemical_formula_structural  MgSiO3
_chemical_formula_sum  Mg6Si6O48
_cell_volume  844.6677307527983
_cell_formula_units_Z  16
loop_
  _symmetry_equiv_pos_site_id
 _symmetry_equiv_pos_as_xyz
 1  'x, y, z'
loop_
 _atom_site_type_symbol
 _atom_site_label
 _atom_site_symmetry_multiplicity
 _atom_site_fract_x
 _atom_site_fract_y
 _atom_site_fract_z
 _atom_site_fract_occupancy
 Mg  Mg1  1  0.87430  0.84613  0.07212  1
 Mg  Mg2  1  0.87335  0.01300  0.56878  1
 Mg  Mg3  1  0.12570  0.15387  0.92788  1
 Mg  Mg4  1  0.87430  0.65387  0.57212  1
 Mg  Mg5  1  0.87335  0.48700  0.06878  1
 Mg  Mg6  1  0.12665  0.98700  0.43122  1
 Mg  Mg7  1  0.12665  0.51300  0.93122  1
 Mg  Mg8  1  0.37465  0.65374  0.85724  1
 Mg  Mg9  1  0.12570  0.34613  0.42788  1
 Mg  Mg10  1  0.62535  0.34626  0.14276  1
 Mg  Mg11  1  0.62535  0.15374  0.64276  1
 Mg  Mg12  1  0.38025  0.48864  0.35548  1
 Mg  Mg13  1  0.61975  0.98864  0.14452  1
 Mg  Mg14  1  0.61975  0.51136  0.64452  1
 Mg  Mg15  1  0.38025  0.01136  0.85548  1
 Mg  Mg16  1  0.37465  0.84626  0.35724  1
 O  O1  1  0.06585  0.15974  0.26086  1
 O  O2  1  0.93415  0.65974  0.23914  1
 O  O3  1  0.93415  0.84026  0.73914  1
 O  O4  1  0.06585  0.34026  0.76086  1
 O  O5  1  0.69544  0.71024  0.63021  1
 O  O6  1  0.93742  -0.00134  0.24710  1
 O  O7  1  0.31606  0.84119  0.01941  1
 O  O8  1  0.19896  0.70080  0.20936  1
 O  O9  1  0.55337  0.69136  0.88412  1
 O  O10  1  0.44663  0.19136  0.61588  1
 O  O11  1  0.43374  0.01685  0.18889  1
 O  O12  1  0.93742  0.50134  0.74710  1
 O  O13  1  0.30456  0.28976  0.36979  1
 O  O14  1  0.06258  0.00134  0.75290  1
 O  O15  1  0.81442  0.66221  0.91405  1
 O  O16  1  0.55337  0.80864  0.38412  1
 O  O17  1  0.94576  0.21639  0.55496  1
 O  O18  1  0.05424  0.71639  0.94504  1
 O  O19  1  0.05424  0.78361  0.44504  1
 O  O20  1  0.94576  0.28361  0.05496  1
 O  O21  1  0.18558  0.16221  0.58595  1
 O  O22  1  0.56626  0.51685  0.31111  1
 O  O23  1  0.81442  0.83779  0.41405  1
 O  O24  1  0.18558  0.33779  0.08595  1
 O  O25  1  0.31442  0.00217  0.54032  1
 O  O26  1  0.68558  0.50217  0.95968  1
 O  O27  1  0.68558  0.99783  0.45968  1
 O  O28  1  0.31442  0.49783  0.04032  1
 O  O29  1  0.30456  0.21024  0.86979  1
 O  O30  1  0.06258  0.49866  0.25290  1
 O  O31  1  0.56626  0.98315  0.81111  1
 O  O32  1  0.68394  0.34119  0.48059  1
 O  O33  1  0.56207  0.16254  0.30856  1
 O  O34  1  0.43374  0.48315  0.68889  1
 O  O35  1  0.19896  0.79920  0.70936  1
 O  O36  1  0.18597  0.51034  0.60805  1
 O  O37  1  0.81403  0.01034  0.89195  1
 O  O38  1  0.68394  0.15881  0.98059  1
 O  O39  1  0.18597  0.98966  0.10805  1
 O  O40  1  0.31606  0.65881  0.51941  1
 O  O41  1  0.44663  0.30864  0.11588  1
 O  O42  1  0.69544  0.78976  0.13021  1
 O  O43  1  0.81403  0.48966  0.39195  1
 O  O44  1  0.80104  0.20080  0.29064  1
 O  O45  1  0.43793  0.66254  0.19144  1
 O  O46  1  0.56207  0.33746  0.80856  1
 O  O47  1  0.43793  0.83746  0.69144  1
 O  O48  1  0.80104  0.29920  0.79064  1
 Si  Si1  1  0.77299  0.33963  0.49080  1
 Si  Si2  1  0.47319  0.16296  0.30679  1
 Si  Si3  1  0.52681  0.66296  0.19321  1
 Si  Si4  1  0.52681  0.83704  0.69321  1
 Si  Si5  1  0.47319  0.33704  0.80679  1
 Si  Si6  1  0.77299  0.16037  0.99080  1
 Si  Si7  1  0.22701  0.83963  0.00920  1
 Si  Si8  1  0.72596  0.66045  0.92355  1
 Si  Si9  1  0.72596  0.83955  0.42355  1
 Si  Si10  1  0.27404  0.16045  0.57645  1
 Si  Si11  1  0.27404  0.33955  0.07645  1
 Si  Si12  1  0.97747  0.15889  0.26735  1
 Si  Si13  1  0.02253  0.65889  0.23265  1
 Si  Si14  1  0.97747  0.34111  0.76735  1
 Si  Si15  1  0.22701  0.66037  0.50920  1
 Si  Si16  1  0.02253  0.84111  0.73265  1
