CIF file written using JARVIS-Tools package.
data_Co2SiO4
_symmetry_space_group_name_H-M  'Imma'
_cell_length_a       5.75448
_cell_length_b       7.64961
_cell_length_c       7.64962
_cell_angle_alpha    65.8439
_cell_angle_beta     67.9058
_cell_angle_gamma    67.9059

_symmetry_Int_Tables_number  74
_chemical_formula_structural  Co2SiO4
_chemical_formula_sum  Co8Si4O6
_cell_volume  274.6752147838977
_cell_formula_units_Z  4
loop_
  _symmetry_equiv_pos_site_id
 _symmetry_equiv_pos_as_xyz
 1  'x, y, z'
loop_
 _atom_site_type_symbol
 _atom_site_label
 _atom_site_symmetry_multiplicity
 _atom_site_fract_x
 _atom_site_fract_y
 _atom_site_fract_z
 _atom_site_fract_occupancy
 Co  Co1  1  0.00000  0.00000  0.00000  1
 Co  Co2  1  0.25000  0.73269  0.76731  1
 Co  Co3  1  0.75000  0.26731  0.23269  1
 Co  Co4  1  0.37221  0.12779  0.62779  1
 Co  Co5  1  0.12779  0.87221  0.37221  1
 Co  Co6  1  0.62779  0.87221  0.37221  1
 Co  Co7  1  0.87221  0.12779  0.62779  1
 Co  Co8  1  0.50000  0.50000  0.50000  1
 O  O1  1  0.38771  0.87022  0.88199  1
 O  O2  1  0.13993  0.12978  0.11801  1
 O  O3  1  0.11229  0.61801  0.62978  1
 O  O4  1  0.88771  0.38199  0.37022  1
 O  O5  1  0.61229  0.12978  0.11801  1
 O  O6  1  0.86007  0.87022  0.88199  1
 O  O7  1  0.48693  0.25787  0.76826  1
 O  O8  1  0.36007  0.38199  0.37022  1
 O  O9  1  0.51307  0.74213  0.23174  1
 O  O10  1  0.25000  0.46940  0.03060  1
 O  O11  1  0.98693  0.26826  0.75787  1
 O  O12  1  0.63993  0.61801  0.62978  1
 O  O13  1  0.25000  0.97493  0.52507  1
 O  O14  1  0.75000  0.53060  0.96940  1
 O  O15  1  0.01307  0.73174  0.24213  1
 O  O16  1  0.75000  0.02507  0.47493  1
 Si  Si1  1  0.62252  0.76013  0.99483  1
 Si  Si2  1  0.37748  0.23987  0.00517  1
 Si  Si3  1  0.87748  0.50517  0.73987  1
 Si  Si4  1  0.12252  0.49483  0.26013  1
