CIF file written using JARVIS-Tools package.
data_La5Sn3Cl
_symmetry_space_group_name_H-M  'P6_3/mcm'
_cell_length_a       9.64062
_cell_length_b       9.64062
_cell_length_c       6.89146
_cell_angle_alpha    90
_cell_angle_beta     90
_cell_angle_gamma    120

_symmetry_Int_Tables_number  193
_chemical_formula_structural  La5Sn3Cl
_chemical_formula_sum  La0Sn6Cl2
_cell_volume  554.6916279429937
_cell_formula_units_Z  2
loop_
  _symmetry_equiv_pos_site_id
 _symmetry_equiv_pos_as_xyz
 1  'x, y, z'
loop_
 _atom_site_type_symbol
 _atom_site_label
 _atom_site_symmetry_multiplicity
 _atom_site_fract_x
 _atom_site_fract_y
 _atom_site_fract_z
 _atom_site_fract_occupancy
 Cl  Cl1  1  0.00000  0.00000  0.50000  1
 Cl  Cl2  1  0.00000  0.00000  0.00000  1
 La  La1  1  0.26202  0.26202  0.75000  1
 La  La2  1  0.33333  0.66667  0.50000  1
 La  La3  1  0.66667  0.33333  0.50000  1
 La  La4  1  0.66667  0.33333  0.00000  1
 La  La5  1  0.73798  -0.00000  0.75000  1
 La  La6  1  0.73798  0.73798  0.25000  1
 La  La7  1  0.00000  0.26202  0.25000  1
 La  La8  1  -0.00000  0.73798  0.75000  1
 La  La9  1  0.33333  0.66667  0.00000  1
 La  La10  1  0.26202  0.00000  0.25000  1
 Sn  Sn1  1  0.38651  0.38651  0.25000  1
 Sn  Sn2  1  -0.00000  0.38651  0.75000  1
 Sn  Sn3  1  0.38651  -0.00000  0.75000  1
 Sn  Sn4  1  0.61349  0.00000  0.25000  1
 Sn  Sn5  1  0.00000  0.61349  0.25000  1
 Sn  Sn6  1  0.61349  0.61349  0.75000  1
