CIF file written using JARVIS-Tools package.
data_Na6FeO4
_symmetry_space_group_name_H-M  'P4_2/nmc'
_cell_length_a       7.50757
_cell_length_b       7.50771
_cell_length_c       5.31812
_cell_angle_alpha    89.9994
_cell_angle_beta     90.0018
_cell_angle_gamma    89.995

_symmetry_Int_Tables_number  137
_chemical_formula_structural  Na6FeO4
_chemical_formula_sum  Na2Fe2O8
_cell_volume  299.7538386538567
_cell_formula_units_Z  2
loop_
  _symmetry_equiv_pos_site_id
 _symmetry_equiv_pos_as_xyz
 1  'x, y, z'
loop_
 _atom_site_type_symbol
 _atom_site_label
 _atom_site_symmetry_multiplicity
 _atom_site_fract_x
 _atom_site_fract_y
 _atom_site_fract_z
 _atom_site_fract_occupancy
 Fe  Fe1  1  0.75001  0.25001  0.75001  1
 Fe  Fe2  1  0.25000  0.75000  0.24999  1
 Na  Na1  1  0.04311  0.54311  0.75001  1
 Na  Na2  1  0.45691  0.95690  0.74998  1
 Na  Na3  1  0.25001  0.25002  0.64099  1
 Na  Na4  1  0.25001  0.25000  0.14098  1
 Na  Na5  1  0.45692  0.54310  0.75000  1
 Na  Na6  1  0.04310  0.95691  0.74999  1
 Na  Na7  1  0.54311  0.04312  0.25002  1
 Na  Na8  1  0.54309  0.45692  0.25000  1
 Na  Na9  1  0.75001  0.75000  0.35901  1
 Na  Na10  1  0.75001  0.75001  0.85902  1
 Na  Na11  1  0.95691  0.45690  0.24999  1
 Na  Na12  1  0.95692  0.04311  0.25001  1
 O  O1  1  0.75001  0.00258  0.59127  1
 O  O2  1  0.75001  0.49742  0.59125  1
 O  O3  1  0.99743  0.25001  0.90873  1
 O  O4  1  0.25001  0.99743  0.40873  1
 O  O5  1  0.25001  0.50260  0.40874  1
 O  O6  1  0.50259  0.25001  0.90874  1
 O  O7  1  0.49743  0.75001  0.09126  1
 O  O8  1  0.00259  0.75001  0.09127  1
