CIF file written using JARVIS-Tools package.
data_Zr3Rh5
_symmetry_space_group_name_H-M  'Cmcm'
_cell_length_a       5.61668
_cell_length_b       5.61668
_cell_length_c       8.70976
_cell_angle_alpha    90
_cell_angle_beta     90
_cell_angle_gamma    102.932

_symmetry_Int_Tables_number  63
_chemical_formula_structural  Zr3Rh5
_chemical_formula_sum  Zr6Rh0
_cell_volume  267.79905929414326
_cell_formula_units_Z  2
loop_
  _symmetry_equiv_pos_site_id
 _symmetry_equiv_pos_as_xyz
 1  'x, y, z'
loop_
 _atom_site_type_symbol
 _atom_site_label
 _atom_site_symmetry_multiplicity
 _atom_site_fract_x
 _atom_site_fract_y
 _atom_site_fract_z
 _atom_site_fract_occupancy
 Rh  Rh1  1  0.71059  0.71059  0.02819  1
 Rh  Rh2  1  0.71059  0.71059  0.47181  1
 Rh  Rh3  1  0.28941  0.28941  0.97181  1
 Rh  Rh4  1  0.28941  0.28941  0.52819  1
 Rh  Rh5  1  0.02630  0.49345  0.75000  1
 Rh  Rh6  1  0.97370  0.50655  0.25000  1
 Rh  Rh7  1  0.01360  0.01360  0.25000  1
 Rh  Rh8  1  0.98640  0.98640  0.75000  1
 Rh  Rh9  1  0.49345  0.02630  0.75000  1
 Rh  Rh10  1  0.50655  0.97370  0.25000  1
 Zr  Zr1  1  0.56927  0.56927  0.75000  1
 Zr  Zr2  1  0.43073  0.43073  0.25000  1
 Zr  Zr3  1  0.20798  0.79202  0.50000  1
 Zr  Zr4  1  0.79202  0.20798  0.00000  1
 Zr  Zr5  1  0.79202  0.20798  0.50000  1
 Zr  Zr6  1  0.20798  0.79202  0.00000  1
