CIF file written using JARVIS-Tools package.
data_Ba2NdCu3O6
_symmetry_space_group_name_H-M  'P4/mmm'
_cell_length_a       3.91486
_cell_length_b       3.91486
_cell_length_c       12.0866
_cell_angle_alpha    90
_cell_angle_beta     90
_cell_angle_gamma    90

_symmetry_Int_Tables_number  123
_chemical_formula_structural  Ba2NdCu3O6
_chemical_formula_sum  Ba2NdCu3O6
_cell_volume  185.24011408689555
_cell_formula_units_Z  1
loop_
  _symmetry_equiv_pos_site_id
 _symmetry_equiv_pos_as_xyz
 1  'x, y, z'
loop_
 _atom_site_type_symbol
 _atom_site_label
 _atom_site_symmetry_multiplicity
 _atom_site_fract_x
 _atom_site_fract_y
 _atom_site_fract_z
 _atom_site_fract_occupancy
 Ba  Ba1  1  0.50000  0.50000  0.80556  1
 Ba  Ba2  1  0.50000  0.50000  0.19444  1
 Cu  Cu1  1  0.00000  1.00000  0.36065  1
 Cu  Cu2  1  1.00000  0.00000  0.63935  1
 Cu  Cu3  1  0.00000  0.00000  -0.00000  1
 Nd  Nd1  1  0.50000  0.50000  0.50000  1
 O  O1  1  -0.00000  0.00000  0.85080  1
 O  O2  1  0.00000  -0.00000  0.14920  1
 O  O3  1  0.50000  0.00000  0.62723  1
 O  O4  1  -0.00000  0.50000  0.62723  1
 O  O5  1  0.50000  -0.00000  0.37277  1
 O  O6  1  0.00000  0.50000  0.37277  1
