CIF file written using JARVIS-Tools package.
data_Na6FeSe4
_symmetry_space_group_name_H-M  'P6_3mc'
_cell_length_a       9.28424
_cell_length_b       9.28424
_cell_length_c       7.15976
_cell_angle_alpha    90
_cell_angle_beta     90
_cell_angle_gamma    120

_symmetry_Int_Tables_number  186
_chemical_formula_structural  Na6FeSe4
_chemical_formula_sum  Na2Fe2Se8
_cell_volume  534.4686121786027
_cell_formula_units_Z  2
loop_
  _symmetry_equiv_pos_site_id
 _symmetry_equiv_pos_as_xyz
 1  'x, y, z'
loop_
 _atom_site_type_symbol
 _atom_site_label
 _atom_site_symmetry_multiplicity
 _atom_site_fract_x
 _atom_site_fract_y
 _atom_site_fract_z
 _atom_site_fract_occupancy
 Fe  Fe1  1  0.66667  0.33333  0.75293  1
 Fe  Fe2  1  0.33333  0.66667  0.25293  1
 Na  Na1  1  0.14721  0.85279  0.54168  1
 Na  Na2  1  0.85279  0.14721  0.04168  1
 Na  Na3  1  0.85279  0.70558  0.04168  1
 Na  Na4  1  0.14721  0.29442  0.54168  1
 Na  Na5  1  0.70558  0.85279  0.54168  1
 Na  Na6  1  0.29442  0.14721  0.04168  1
 Na  Na7  1  0.52917  0.47083  0.36972  1
 Na  Na8  1  0.05833  0.52917  0.86972  1
 Na  Na9  1  0.47083  0.94167  0.86972  1
 Na  Na10  1  0.52917  0.05833  0.36972  1
 Na  Na11  1  0.47083  0.52917  0.86972  1
 Na  Na12  1  0.94167  0.47083  0.36972  1
 Se  Se1  1  0.18733  0.37465  0.14419  1
 Se  Se2  1  0.62535  0.81267  0.14419  1
 Se  Se3  1  0.33333  0.66667  0.59850  1
 Se  Se4  1  0.66667  0.33333  0.09850  1
 Se  Se5  1  0.18733  0.81267  0.14419  1
 Se  Se6  1  0.37465  0.18733  0.64419  1
 Se  Se7  1  0.81267  0.62535  0.64419  1
 Se  Se8  1  0.81267  0.18733  0.64419  1
