CIF file written using JARVIS-Tools package.
data_KTeOF3
_symmetry_space_group_name_H-M  'P4_2/n'
_cell_length_a       7.82963
_cell_length_b       10.0645
_cell_length_c       10.0645
_cell_angle_alpha    90
_cell_angle_beta     90
_cell_angle_gamma    90

_symmetry_Int_Tables_number  86
_chemical_formula_structural  KTeOF3
_chemical_formula_sum  K8Te8O8F24
_cell_volume  793.0867523515651
_cell_formula_units_Z  8
loop_
  _symmetry_equiv_pos_site_id
 _symmetry_equiv_pos_as_xyz
 1  'x, y, z'
loop_
 _atom_site_type_symbol
 _atom_site_label
 _atom_site_symmetry_multiplicity
 _atom_site_fract_x
 _atom_site_fract_y
 _atom_site_fract_z
 _atom_site_fract_occupancy
 F  F1  1  0.99229  0.93091  0.74770  1
 F  F2  1  0.11051  0.74039  0.99049  1
 F  F3  1  0.11051  0.75961  0.50951  1
 F  F4  1  0.50771  0.75230  0.93091  1
 F  F5  1  0.21661  0.30520  0.60988  1
 F  F6  1  0.71661  0.10988  0.69480  1
 F  F7  1  0.88949  0.24039  0.49049  1
 F  F8  1  0.78339  0.80520  0.10988  1
 F  F9  1  0.78339  0.69480  0.39012  1
 F  F10  1  0.71661  0.39012  0.80520  1
 F  F11  1  0.21661  0.19480  0.89012  1
 F  F12  1  0.00771  0.06909  0.25230  1
 F  F13  1  0.28339  0.89012  0.30520  1
 F  F14  1  0.99229  0.56909  0.75230  1
 F  F15  1  0.50771  0.74770  0.56909  1
 F  F16  1  0.38949  0.50951  0.74039  1
 F  F17  1  0.88949  0.25961  0.00951  1
 F  F18  1  0.49229  0.25230  0.43091  1
 F  F19  1  0.61051  0.00951  0.24039  1
 F  F20  1  0.00771  0.43091  0.24770  1
 F  F21  1  0.38949  0.99049  0.75961  1
 F  F22  1  0.49229  0.24770  0.06909  1
 F  F23  1  0.61051  0.49049  0.25961  1
 F  F24  1  0.28339  0.60988  0.19480  1
 K  K1  1  0.75000  0.75000  0.75000  1
 K  K2  1  0.25000  0.25000  0.25000  1
 K  K3  1  0.25000  0.75000  0.75000  1
 K  K4  1  0.75000  0.25000  0.25000  1
 K  K5  1  0.50000  0.50000  0.00000  1
 K  K6  1  0.50000  0.00000  0.50000  1
 K  K7  1  0.00000  0.50000  0.50000  1
 K  K8  1  0.00000  0.00000  0.00000  1
 O  O1  1  0.15410  0.03104  0.49374  1
 O  O2  1  0.84590  0.96896  0.50626  1
 O  O3  1  0.34590  0.00626  0.03104  1
 O  O4  1  0.34590  0.49374  0.46896  1
 O  O5  1  0.84590  0.53104  0.99374  1
 O  O6  1  0.15410  0.46896  0.00626  1
 O  O7  1  0.65410  0.99374  0.96896  1
 O  O8  1  0.65410  0.50626  0.53104  1
 Te  Te1  1  0.03733  0.59587  0.12056  1
 Te  Te2  1  0.53733  0.87944  0.09587  1
 Te  Te3  1  0.46267  0.37944  0.59587  1
 Te  Te4  1  0.53733  0.62056  0.40413  1
 Te  Te5  1  0.46267  0.12056  0.90413  1
 Te  Te6  1  0.96267  0.09587  0.62056  1
 Te  Te7  1  0.03733  0.90413  0.37944  1
 Te  Te8  1  0.96267  0.40413  0.87944  1
