CIF file written using JARVIS-Tools package.
data_LiMnF4
_symmetry_space_group_name_H-M  'C2/m'
_cell_length_a       3.16463
_cell_length_b       6.31141
_cell_length_c       6.60964
_cell_angle_alpha    90.0111
_cell_angle_beta     93.8417
_cell_angle_gamma    89.9996

_symmetry_Int_Tables_number  12
_chemical_formula_structural  LiMnF4
_chemical_formula_sum  Li2Mn2F8
_cell_volume  131.71955000994203
_cell_formula_units_Z  2
loop_
  _symmetry_equiv_pos_site_id
 _symmetry_equiv_pos_as_xyz
 1  'x, y, z'
loop_
 _atom_site_type_symbol
 _atom_site_label
 _atom_site_symmetry_multiplicity
 _atom_site_fract_x
 _atom_site_fract_y
 _atom_site_fract_z
 _atom_site_fract_occupancy
 F  F1  1  -0.00004  0.48128  0.24825  1
 F  F2  1  -0.00007  0.06457  0.24804  1
 F  F3  1  0.53747  0.27270  0.55204  1
 F  F4  1  0.46255  0.77303  0.44418  1
 F  F5  1  0.46250  0.27294  0.94421  1
 F  F6  1  0.53750  0.77279  0.05203  1
 F  F7  1  0.00003  0.56446  0.74799  1
 F  F8  1  0.00006  0.98116  0.74821  1
 Li  Li1  1  0.50019  0.77280  0.74810  1
 Li  Li2  1  0.49981  0.27294  0.24813  1
 Mn  Mn1  1  -0.00000  0.77293  0.24812  1
 Mn  Mn2  1  -0.00000  0.27281  0.74811  1
