CIF file written using JARVIS-Tools package.
data_Li2Fe3SnO8
_symmetry_space_group_name_H-M  'R-3m'
_cell_length_a       6.01482
_cell_length_b       6.01482
_cell_length_c       6.01483
_cell_angle_alpha    56.5986
_cell_angle_beta     56.5986
_cell_angle_gamma    56.5985

_symmetry_Int_Tables_number  166
_chemical_formula_structural  Li2Fe3SnO8
_chemical_formula_sum  Li2Fe3SnO8
_cell_volume  141.77857706243245
_cell_formula_units_Z  1
loop_
  _symmetry_equiv_pos_site_id
 _symmetry_equiv_pos_as_xyz
 1  'x, y, z'
loop_
 _atom_site_type_symbol
 _atom_site_label
 _atom_site_symmetry_multiplicity
 _atom_site_fract_x
 _atom_site_fract_y
 _atom_site_fract_z
 _atom_site_fract_occupancy
 Fe  Fe1  1  0.00000  0.50000  0.50000  1
 Fe  Fe2  1  0.50000  0.00000  0.50000  1
 Fe  Fe3  1  0.50000  0.50000  0.00000  1
 Li  Li1  1  0.12038  0.12038  0.12038  1
 Li  Li2  1  0.87962  0.87962  0.87962  1
 O  O1  1  0.26623  0.26623  0.26623  1
 O  O2  1  0.25053  0.25053  0.71781  1
 O  O3  1  0.25053  0.71781  0.25053  1
 O  O4  1  0.71781  0.25053  0.25053  1
 O  O5  1  0.28219  0.74947  0.74947  1
 O  O6  1  0.74947  0.28219  0.74947  1
 O  O7  1  0.74947  0.74947  0.28219  1
 O  O8  1  0.73377  0.73377  0.73377  1
 Sn  Sn1  1  0.50000  0.50000  0.50000  1
