CIF file written using JARVIS-Tools package.
data_PdAu2F8
_symmetry_space_group_name_H-M  'P2_1/c'
_cell_length_a       5.10365
_cell_length_b       5.54377
_cell_length_c       11.0222
_cell_angle_alpha    90
_cell_angle_beta     90
_cell_angle_gamma    88.7161

_symmetry_Int_Tables_number  14
_chemical_formula_structural  PdAu2F8
_chemical_formula_sum  Pd2Au4F6
_cell_volume  311.77705485357734
_cell_formula_units_Z  2
loop_
  _symmetry_equiv_pos_site_id
 _symmetry_equiv_pos_as_xyz
 1  'x, y, z'
loop_
 _atom_site_type_symbol
 _atom_site_label
 _atom_site_symmetry_multiplicity
 _atom_site_fract_x
 _atom_site_fract_y
 _atom_site_fract_z
 _atom_site_fract_occupancy
 Au  Au1  1  0.27305  0.01317  0.68478  1
 Au  Au2  1  0.77305  0.51317  0.81522  1
 Au  Au3  1  0.72695  0.98683  0.31522  1
 Au  Au4  1  0.22695  0.48683  0.18478  1
 F  F1  1  0.71966  0.68021  0.22874  1
 F  F2  1  0.25540  0.32375  0.02475  1
 F  F3  1  0.75540  0.82375  0.47525  1
 F  F4  1  0.74460  0.67625  0.97525  1
 F  F5  1  0.21652  0.80492  0.10079  1
 F  F6  1  0.28348  0.69508  0.60079  1
 F  F7  1  0.70848  0.14873  0.15376  1
 F  F8  1  0.79152  0.35127  0.65376  1
 F  F9  1  0.78034  0.81979  0.72874  1
 F  F10  1  0.24460  0.17625  0.52475  1
 F  F11  1  0.20848  0.64873  0.34624  1
 F  F12  1  0.21966  0.18021  0.27126  1
 F  F13  1  0.28034  0.31979  0.77126  1
 F  F14  1  0.71652  0.30492  0.39921  1
 F  F15  1  0.78348  0.19508  0.89921  1
 F  F16  1  0.29152  0.85127  0.84624  1
 Pd  Pd1  1  0.00000  0.50000  0.50000  1
 Pd  Pd2  1  0.50000  0.00000  0.00000  1
