CIF file written using JARVIS-Tools package.
data_CeAs2Pd3
_symmetry_space_group_name_H-M  'C2/m'
_cell_length_a       4.14143
_cell_length_b       8.62619
_cell_length_c       10.0607
_cell_angle_alpha    106.989
_cell_angle_beta     90
_cell_angle_gamma    103.889

_symmetry_Int_Tables_number  12
_chemical_formula_structural  CeAs2Pd3
_chemical_formula_sum  Ce3As6Pd9
_cell_volume  332.72642994365276
_cell_formula_units_Z  3
loop_
  _symmetry_equiv_pos_site_id
 _symmetry_equiv_pos_as_xyz
 1  'x, y, z'
loop_
 _atom_site_type_symbol
 _atom_site_label
 _atom_site_symmetry_multiplicity
 _atom_site_fract_x
 _atom_site_fract_y
 _atom_site_fract_z
 _atom_site_fract_occupancy
 As  As1  1  0.36324  0.72648  0.53988  1
 As  As2  1  0.80273  0.60547  0.86915  1
 As  As3  1  0.63676  0.27352  0.46012  1
 As  As4  1  0.53883  0.07765  0.79609  1
 As  As5  1  0.19727  0.39453  0.13085  1
 As  As6  1  0.46117  0.92235  0.20391  1
 Ce  Ce1  1  0.15602  0.31204  0.70385  1
 Ce  Ce2  1  0.84398  0.68796  0.29615  1
 Ce  Ce3  1  0.00000  0.00000  0.00000  1
 Pd  Pd1  1  0.21780  0.43559  0.39393  1
 Pd  Pd2  1  0.50000  -0.00000  0.50000  1
 Pd  Pd3  1  0.03847  0.07693  0.33325  1
 Pd  Pd4  1  0.31905  0.63810  0.03087  1
 Pd  Pd5  1  0.68095  0.36190  0.96913  1
 Pd  Pd6  1  0.78220  0.56441  0.60607  1
 Pd  Pd7  1  0.37380  0.74760  0.79308  1
 Pd  Pd8  1  0.96153  0.92307  0.66675  1
 Pd  Pd9  1  0.62620  0.25240  0.20692  1
