CIF file written using JARVIS-Tools package.
data_Na3AlP3NO9
_symmetry_space_group_name_H-M  'P2_13'
_cell_length_a       9.29508
_cell_length_b       9.29508
_cell_length_c       9.29508
_cell_angle_alpha    90
_cell_angle_beta     90
_cell_angle_gamma    90

_symmetry_Int_Tables_number  198
_chemical_formula_structural  Na3AlP3NO9
_chemical_formula_sum  Na2Al4P2N4O36
_cell_volume  803.082068224543
_cell_formula_units_Z  4
loop_
  _symmetry_equiv_pos_site_id
 _symmetry_equiv_pos_as_xyz
 1  'x, y, z'
loop_
 _atom_site_type_symbol
 _atom_site_label
 _atom_site_symmetry_multiplicity
 _atom_site_fract_x
 _atom_site_fract_y
 _atom_site_fract_z
 _atom_site_fract_occupancy
 Al  Al1  1  0.83105  0.33105  0.16895  1
 Al  Al2  1  0.33105  0.16895  0.83105  1
 Al  Al3  1  0.66895  0.66895  0.66895  1
 Al  Al4  1  0.16895  0.83105  0.33105  1
 N  N1  1  0.44191  0.94191  0.55809  1
 N  N2  1  0.05809  0.05809  0.05809  1
 N  N3  1  0.55809  0.44191  0.94191  1
 N  N4  1  0.94191  0.55809  0.44191  1
 Na  Na1  1  0.85819  0.85819  0.85819  1
 Na  Na2  1  0.73671  0.26329  0.76329  1
 Na  Na3  1  0.26329  0.76329  0.73671  1
 Na  Na4  1  0.45215  0.45215  0.45215  1
 Na  Na5  1  0.23671  0.23671  0.23671  1
 Na  Na6  1  0.14181  0.35819  0.64181  1
 Na  Na7  1  0.76329  0.73671  0.26329  1
 Na  Na8  1  0.64181  0.14181  0.35819  1
 Na  Na9  1  0.54785  0.95215  0.04785  1
 Na  Na10  1  0.95215  0.04785  0.54785  1
 Na  Na11  1  0.04785  0.54785  0.95215  1
 Na  Na12  1  0.35819  0.64181  0.14181  1
 O  O1  1  0.35137  0.75006  0.37874  1
 O  O2  1  0.79997  0.94020  0.08638  1
 O  O3  1  0.85137  0.74994  0.62126  1
 O  O4  1  0.62126  0.85137  0.74994  1
 O  O5  1  0.09768  0.78211  0.51645  1
 O  O6  1  0.59768  0.71789  0.48355  1
 O  O7  1  0.51645  0.09768  0.78211  1
 O  O8  1  0.48355  0.59768  0.71789  1
 O  O9  1  0.90232  0.28211  0.98355  1
 O  O10  1  0.01645  0.40232  0.21789  1
 O  O11  1  0.28211  0.98355  0.90232  1
 O  O12  1  0.41362  0.20003  0.44020  1
 O  O13  1  0.08638  0.79997  0.94020  1
 O  O14  1  0.44020  0.41362  0.20003  1
 O  O15  1  0.87874  0.14863  0.24994  1
 O  O16  1  0.58638  0.70003  0.05980  1
 O  O17  1  0.40232  0.21789  0.01645  1
 O  O18  1  0.21789  0.01645  0.40232  1
 O  O19  1  0.24994  0.87874  0.14863  1
 O  O20  1  0.74994  0.62126  0.85137  1
 O  O21  1  0.75006  0.37874  0.35137  1
 O  O22  1  0.78211  0.51645  0.09768  1
 O  O23  1  0.91362  0.29997  0.55980  1
 O  O24  1  0.14863  0.24994  0.87874  1
 O  O25  1  0.55980  0.91362  0.29997  1
 O  O26  1  0.70003  0.05980  0.58638  1
 O  O27  1  0.98355  0.90232  0.28211  1
 O  O28  1  0.20003  0.44020  0.41362  1
 O  O29  1  0.37874  0.35137  0.75006  1
 O  O30  1  0.12126  0.64863  0.25006  1
 O  O31  1  0.71789  0.48355  0.59768  1
 O  O32  1  0.25006  0.12126  0.64863  1
 O  O33  1  0.94020  0.08638  0.79997  1
 O  O34  1  0.05980  0.58638  0.70003  1
 O  O35  1  0.29997  0.55980  0.91362  1
 O  O36  1  0.64863  0.25006  0.12126  1
 P  P1  1  0.32821  0.08007  0.50878  1
 P  P2  1  0.00878  0.17179  0.91993  1
 P  P3  1  0.91993  0.00878  0.17179  1
 P  P4  1  0.99122  0.67179  0.58007  1
 P  P5  1  0.49122  0.82821  0.41993  1
 P  P6  1  0.82821  0.41993  0.49122  1
 P  P7  1  0.67179  0.58007  0.99122  1
 P  P8  1  0.41993  0.49122  0.82821  1
 P  P9  1  0.08007  0.50878  0.32821  1
 P  P10  1  0.50878  0.32821  0.08007  1
 P  P11  1  0.58007  0.99122  0.67179  1
 P  P12  1  0.17179  0.91993  0.00878  1
