CIF file written using JARVIS-Tools package.
data_SmHgPd
_symmetry_space_group_name_H-M  'P-62m'
_cell_length_a       7.78774
_cell_length_b       7.78775
_cell_length_c       3.84241
_cell_angle_alpha    90
_cell_angle_beta     90
_cell_angle_gamma    120

_symmetry_Int_Tables_number  189
_chemical_formula_structural  SmHgPd
_chemical_formula_sum  Sm3Hg3Pd3
_cell_volume  201.81718389077034
_cell_formula_units_Z  3
loop_
  _symmetry_equiv_pos_site_id
 _symmetry_equiv_pos_as_xyz
 1  'x, y, z'
loop_
 _atom_site_type_symbol
 _atom_site_label
 _atom_site_symmetry_multiplicity
 _atom_site_fract_x
 _atom_site_fract_y
 _atom_site_fract_z
 _atom_site_fract_occupancy
 Hg  Hg1  1  0.26876  0.00000  0.00000  1
 Hg  Hg2  1  0.73124  0.73124  0.00000  1
 Hg  Hg3  1  -0.00000  0.26876  0.00000  1
 Pd  Pd1  1  0.00000  0.00000  0.50000  1
 Pd  Pd2  1  0.66667  0.33333  0.00000  1
 Pd  Pd3  1  0.33333  0.66667  0.00000  1
 Sm  Sm1  1  0.60346  0.00000  0.50000  1
 Sm  Sm2  1  -0.00000  0.60346  0.50000  1
 Sm  Sm3  1  0.39654  0.39654  0.50000  1
