CIF file written using JARVIS-Tools package.
data_Co2P2O7
_symmetry_space_group_name_H-M  'P2_1/c'
_cell_length_a       7.05618
_cell_length_b       8.26624
_cell_length_c       8.95568
_cell_angle_alpha    90
_cell_angle_beta     112.077
_cell_angle_gamma    90

_symmetry_Int_Tables_number  14
_chemical_formula_structural  Co2P2O7
_chemical_formula_sum  Co8P8O28
_cell_volume  484.0672428456996
_cell_formula_units_Z  4
loop_
  _symmetry_equiv_pos_site_id
 _symmetry_equiv_pos_as_xyz
 1  'x, y, z'
loop_
 _atom_site_type_symbol
 _atom_site_label
 _atom_site_symmetry_multiplicity
 _atom_site_fract_x
 _atom_site_fract_y
 _atom_site_fract_z
 _atom_site_fract_occupancy
 Co  Co1  1  0.12224  0.07397  0.89034  1
 Co  Co2  1  0.37552  0.93315  0.67887  1
 Co  Co3  1  0.12448  0.43315  0.82113  1
 Co  Co4  1  0.62448  0.06685  0.32113  1
 Co  Co5  1  0.37776  0.57397  0.60966  1
 Co  Co6  1  0.62224  0.42603  0.39034  1
 Co  Co7  1  0.87776  0.92603  0.10966  1
 Co  Co8  1  0.87552  0.56685  0.17887  1
 O  O1  1  0.63728  0.41263  0.15678  1
 O  O2  1  0.86272  0.91263  0.34322  1
 O  O3  1  0.36272  0.58737  0.84322  1
 O  O4  1  0.13728  0.08737  0.65678  1
 O  O5  1  0.56968  0.10589  0.68785  1
 O  O6  1  0.83034  0.23526  0.45225  1
 O  O7  1  0.93032  0.60589  0.81215  1
 O  O8  1  0.40666  0.59765  0.38362  1
 O  O9  1  0.59334  0.40235  0.61638  1
 O  O10  1  0.90666  0.90235  0.88362  1
 O  O11  1  0.15807  0.38960  0.60283  1
 O  O12  1  0.09334  0.09765  0.11638  1
 O  O13  1  0.14971  0.16885  0.39952  1
 O  O14  1  0.35029  0.66885  0.10048  1
 O  O15  1  0.85029  0.83115  0.60048  1
 O  O16  1  0.06968  0.39411  0.18785  1
 O  O17  1  0.34193  0.88960  0.89717  1
 O  O18  1  0.16966  0.76474  0.54775  1
 O  O19  1  0.64971  0.33115  0.89952  1
 O  O20  1  0.84193  0.61040  0.39717  1
 O  O21  1  0.91219  0.25428  0.79394  1
 O  O22  1  0.58781  0.75428  0.70606  1
 O  O23  1  0.08781  0.74572  0.20606  1
 O  O24  1  0.66966  0.73526  0.04775  1
 O  O25  1  0.33034  0.26474  0.95225  1
 O  O26  1  0.43032  0.89411  0.31215  1
 O  O27  1  0.65807  0.11040  0.10283  1
 O  O28  1  0.41219  0.24572  0.29394  1
 P  P1  1  0.17830  0.23455  0.23990  1
 P  P2  1  0.32170  0.73455  0.26010  1
 P  P3  1  0.82170  0.76545  0.76010  1
 P  P4  1  0.93457  0.77543  0.46714  1
 P  P5  1  0.06543  0.22457  0.53286  1
 P  P6  1  0.43457  0.72457  0.96714  1
 P  P7  1  0.56543  0.27543  0.03286  1
 P  P8  1  0.67830  0.26545  0.73990  1
