CIF file written using JARVIS-Tools package.
data_YbCu9Sn4
_symmetry_space_group_name_H-M  'I4/mcm'
_cell_length_a       8.63121
_cell_length_b       8.63121
_cell_length_c       8.70374
_cell_angle_alpha    119.725
_cell_angle_beta     119.725
_cell_angle_gamma    90

_symmetry_Int_Tables_number  140
_chemical_formula_structural  YbCu9Sn4
_chemical_formula_sum  Yb2Cu8Sn8
_cell_volume  462.28393421127237
_cell_formula_units_Z  2
loop_
  _symmetry_equiv_pos_site_id
 _symmetry_equiv_pos_as_xyz
 1  'x, y, z'
loop_
 _atom_site_type_symbol
 _atom_site_label
 _atom_site_symmetry_multiplicity
 _atom_site_fract_x
 _atom_site_fract_y
 _atom_site_fract_z
 _atom_site_fract_occupancy
 Cu  Cu1  1  0.94777  0.80098  -0.00000  1
 Cu  Cu2  1  0.69902  0.55223  0.00000  1
 Cu  Cu3  1  0.30098  0.44777  -0.00000  1
 Cu  Cu4  1  0.93379  0.21855  0.65234  1
 Cu  Cu5  1  0.43379  0.93379  0.65234  1
 Cu  Cu6  1  0.28145  0.56621  0.34766  1
 Cu  Cu7  1  0.21855  0.71855  0.65234  1
 Cu  Cu8  1  0.05223  0.19902  0.00000  1
 Cu  Cu9  1  -0.00000  0.50000  -0.00000  1
 Cu  Cu10  1  0.78145  0.28145  0.34766  1
 Cu  Cu11  1  0.55223  0.30098  -0.00000  1
 Cu  Cu12  1  0.71855  0.43379  0.65234  1
 Cu  Cu13  1  0.56621  0.06621  0.34766  1
 Cu  Cu14  1  0.06621  0.78145  0.34766  1
 Cu  Cu15  1  0.44777  0.69902  0.00000  1
 Cu  Cu16  1  0.19902  0.94777  -0.00000  1
 Cu  Cu17  1  0.50000  -0.00000  0.00000  1
 Cu  Cu18  1  0.80098  0.05223  0.00000  1
 Sn  Sn1  1  0.44041  0.31474  0.25515  1
 Sn  Sn2  1  0.18526  0.05959  0.74485  1
 Sn  Sn3  1  0.68526  0.18526  0.74485  1
 Sn  Sn4  1  0.94041  0.44041  0.25515  1
 Sn  Sn5  1  0.31474  0.81474  0.25515  1
 Sn  Sn6  1  0.05959  0.55959  0.74485  1
 Sn  Sn7  1  0.81474  0.94041  0.25515  1
 Sn  Sn8  1  0.55959  0.68526  0.74485  1
 Yb  Yb1  1  0.25000  0.25000  0.50000  1
 Yb  Yb2  1  0.75000  0.75000  0.50000  1
