CIF file written using JARVIS-Tools package.
data_Ba3Ge2B6O16
_symmetry_space_group_name_H-M  'P-1'
_cell_length_a       5.14229
_cell_length_b       7.68412
_cell_length_c       8.69975
_cell_angle_alpha    102.675
_cell_angle_beta     102.711
_cell_angle_gamma    88.5746

_symmetry_Int_Tables_number  2
_chemical_formula_structural  Ba3Ge2B6O16
_chemical_formula_sum  Ba3Ge2B6O6
_cell_volume  327.0658226465072
_cell_formula_units_Z  1
loop_
  _symmetry_equiv_pos_site_id
 _symmetry_equiv_pos_as_xyz
 1  'x, y, z'
loop_
 _atom_site_type_symbol
 _atom_site_label
 _atom_site_symmetry_multiplicity
 _atom_site_fract_x
 _atom_site_fract_y
 _atom_site_fract_z
 _atom_site_fract_occupancy
 B  B1  1  0.80711  0.25445  0.70461  1
 B  B2  1  0.03043  0.40825  0.24486  1
 B  B3  1  0.19289  0.74555  0.29539  1
 B  B4  1  0.96957  0.59175  0.75514  1
 B  B5  1  0.96040  0.80612  0.02821  1
 B  B6  1  0.03960  0.19388  0.97179  1
 Ba  Ba1  1  0.50000  0.50000  0.00000  1
 Ba  Ba2  1  0.61699  0.08003  0.25906  1
 Ba  Ba3  1  0.38301  0.91997  0.74094  1
 Ge  Ge1  1  0.77232  0.66943  0.44254  1
 Ge  Ge2  1  0.22768  0.33057  0.55746  1
 O  O1  1  0.51473  0.21581  0.63000  1
 O  O2  1  0.04653  0.79736  0.42867  1
 O  O3  1  0.95347  0.20264  0.57133  1
 O  O4  1  0.12842  0.86870  0.18220  1
 O  O5  1  0.21012  0.54643  0.68033  1
 O  O6  1  0.48527  0.78419  0.37000  1
 O  O7  1  0.78988  0.45357  0.31967  1
 O  O8  1  0.08606  0.72546  0.90419  1
 O  O9  1  0.86688  0.43788  0.79666  1
 O  O10  1  0.69501  0.82338  0.00498  1
 O  O11  1  0.30499  0.17662  0.99502  1
 O  O12  1  0.23425  0.32462  0.35423  1
 O  O13  1  0.91394  0.27454  0.09581  1
 O  O14  1  0.13312  0.56212  0.20334  1
 O  O15  1  0.76575  0.67538  0.64577  1
 O  O16  1  0.87158  0.13130  0.81780  1
