CIF file written using JARVIS-Tools package.
data_ZnSiAg2O4
_symmetry_space_group_name_H-M  'Pc'
_cell_length_a       5.52597
_cell_length_b       5.48707
_cell_length_c       6.99155
_cell_angle_alpha    90
_cell_angle_beta     91.1265
_cell_angle_gamma    90

_symmetry_Int_Tables_number  7
_chemical_formula_structural  ZnSiAg2O4
_chemical_formula_sum  Zn2Si2Ag4O8
_cell_volume  211.95241889130804
_cell_formula_units_Z  2
loop_
  _symmetry_equiv_pos_site_id
 _symmetry_equiv_pos_as_xyz
 1  'x, y, z'
loop_
 _atom_site_type_symbol
 _atom_site_label
 _atom_site_symmetry_multiplicity
 _atom_site_fract_x
 _atom_site_fract_y
 _atom_site_fract_z
 _atom_site_fract_occupancy
 Ag  Ag1  1  0.98130  0.19977  0.51235  1
 Ag  Ag2  1  0.48130  0.80023  0.01235  1
 Ag  Ag3  1  0.49857  0.29863  0.24367  1
 Ag  Ag4  1  -0.00143  0.70137  0.74367  1
 O  O1  1  0.20176  0.28998  0.79090  1
 O  O2  1  0.70176  0.71002  0.29090  1
 O  O3  1  0.14606  0.79525  0.44192  1
 O  O4  1  0.64606  0.20475  0.94192  1
 O  O5  1  0.57191  0.60041  0.72373  1
 O  O6  1  0.56217  0.15629  0.55980  1
 O  O7  1  0.07191  0.39959  0.22373  1
 O  O8  1  0.06217  0.84371  0.05980  1
 Si  Si1  1  0.99439  0.68764  0.25441  1
 Si  Si2  1  0.49439  0.31236  0.75441  1
 Zn  Zn1  1  0.49584  0.80898  0.50223  1
 Zn  Zn2  1  0.99584  0.19102  0.00223  1
