CIF file written using JARVIS-Tools package.
data_Mn3OF5
_symmetry_space_group_name_H-M  'P-1'
_cell_length_a       4.8025
_cell_length_b       5.81819
_cell_length_c       8.01267
_cell_angle_alpha    87.1911
_cell_angle_beta     88.2921
_cell_angle_gamma    88.4989

_symmetry_Int_Tables_number  2
_chemical_formula_structural  Mn3OF5
_chemical_formula_sum  Mn6O2F0
_cell_volume  223.45178802592358
_cell_formula_units_Z  2
loop_
  _symmetry_equiv_pos_site_id
 _symmetry_equiv_pos_as_xyz
 1  'x, y, z'
loop_
 _atom_site_type_symbol
 _atom_site_label
 _atom_site_symmetry_multiplicity
 _atom_site_fract_x
 _atom_site_fract_y
 _atom_site_fract_z
 _atom_site_fract_occupancy
 F  F1  1  0.19783  0.62821  0.56257  1
 F  F2  1  0.19971  0.96711  0.23443  1
 F  F3  1  0.80029  0.03289  0.76557  1
 F  F4  1  0.79604  0.70245  0.09945  1
 F  F5  1  0.80217  0.37179  0.43743  1
 F  F6  1  0.70418  0.87659  0.42195  1
 F  F7  1  0.29582  0.12341  0.57805  1
 F  F8  1  0.29819  0.79729  0.90098  1
 F  F9  1  0.20396  0.29755  0.90055  1
 F  F10  1  0.70181  0.20271  0.09902  1
 Mn  Mn1  1  0.00000  0.00000  0.00000  1
 Mn  Mn2  1  0.02296  0.65423  0.32127  1
 Mn  Mn3  1  0.97704  0.34577  0.67873  1
 Mn  Mn4  1  0.47692  0.19079  0.33588  1
 Mn  Mn5  1  0.52308  0.80921  0.66412  1
 Mn  Mn6  1  0.50000  0.50000  -0.00000  1
 O  O1  1  0.31310  0.46743  0.21697  1
 O  O2  1  0.68690  0.53257  0.78303  1
