CIF file written using JARVIS-Tools package.
data_BeMo4Se
_symmetry_space_group_name_H-M  'F-43m'
_cell_length_a       5.22283
_cell_length_b       5.22283
_cell_length_c       5.22283
_cell_angle_alpha    60
_cell_angle_beta     60
_cell_angle_gamma    60

_symmetry_Int_Tables_number  216
_chemical_formula_structural  BeMo4Se
_chemical_formula_sum  BeMo4Se
_cell_volume  100.74011863923174
_cell_formula_units_Z  1
loop_
  _symmetry_equiv_pos_site_id
 _symmetry_equiv_pos_as_xyz
 1  'x, y, z'
loop_
 _atom_site_type_symbol
 _atom_site_label
 _atom_site_symmetry_multiplicity
 _atom_site_fract_x
 _atom_site_fract_y
 _atom_site_fract_z
 _atom_site_fract_occupancy
 Be  Be1  1  0.00000  0.00000  0.00000  1
 Mo  Mo1  1  0.12401  0.62533  0.62533  1
 Mo  Mo2  1  0.62533  0.62533  0.62533  1
 Mo  Mo3  1  0.62533  0.12401  0.62533  1
 Mo  Mo4  1  0.62533  0.62533  0.12401  1
 Se  Se1  1  0.25000  0.25000  0.25000  1
