CIF file written using JARVIS-Tools package.
data_TbMnO3
_symmetry_space_group_name_H-M  'Pnma'
_cell_length_a       5.28669
_cell_length_b       5.64739
_cell_length_c       7.58742
_cell_angle_alpha    90
_cell_angle_beta     90
_cell_angle_gamma    90

_symmetry_Int_Tables_number  62
_chemical_formula_structural  TbMnO3
_chemical_formula_sum  Tb4Mn4O2
_cell_volume  226.5300543578008
_cell_formula_units_Z  4
loop_
  _symmetry_equiv_pos_site_id
 _symmetry_equiv_pos_as_xyz
 1  'x, y, z'
loop_
 _atom_site_type_symbol
 _atom_site_label
 _atom_site_symmetry_multiplicity
 _atom_site_fract_x
 _atom_site_fract_y
 _atom_site_fract_z
 _atom_site_fract_occupancy
 Mn  Mn1  1  0.50000  0.00000  0.00000  1
 Mn  Mn2  1  0.00000  0.50000  0.00000  1
 Mn  Mn3  1  0.00000  0.50000  0.50000  1
 Mn  Mn4  1  0.50000  0.00000  0.50000  1
 O  O1  1  0.89521  0.53249  0.75000  1
 O  O2  1  0.19691  0.19349  0.55333  1
 O  O3  1  0.80309  0.80651  0.05333  1
 O  O4  1  0.30309  0.69349  0.94667  1
 O  O5  1  0.30309  0.69349  0.55333  1
 O  O6  1  0.80309  0.80651  0.44667  1
 O  O7  1  0.19691  0.19349  0.94667  1
 O  O8  1  0.60479  0.03249  0.75000  1
 O  O9  1  0.69691  0.30651  0.44667  1
 O  O10  1  0.10479  0.46751  0.25000  1
 O  O11  1  0.39521  0.96751  0.25000  1
 O  O12  1  0.69691  0.30651  0.05333  1
 Tb  Tb1  1  0.48154  0.42779  0.75000  1
 Tb  Tb2  1  0.01846  0.92779  0.75000  1
 Tb  Tb3  1  0.51846  0.57221  0.25000  1
 Tb  Tb4  1  0.98154  0.07221  0.25000  1
