CIF file written using JARVIS-Tools package.
data_La2Ge3O9
_symmetry_space_group_name_H-M  'P-1'
_cell_length_a       7.77487
_cell_length_b       8.87114
_cell_length_c       8.93225
_cell_angle_alpha    37.9275
_cell_angle_beta     108.863
_cell_angle_gamma    108.045

_symmetry_Int_Tables_number  2
_chemical_formula_structural  La2Ge3O9
_chemical_formula_sum  La4Ge6O8
_cell_volume  356.7506597074304
_cell_formula_units_Z  2
loop_
  _symmetry_equiv_pos_site_id
 _symmetry_equiv_pos_as_xyz
 1  'x, y, z'
loop_
 _atom_site_type_symbol
 _atom_site_label
 _atom_site_symmetry_multiplicity
 _atom_site_fract_x
 _atom_site_fract_y
 _atom_site_fract_z
 _atom_site_fract_occupancy
 Ge  Ge1  1  0.48651  0.23581  0.76199  1
 Ge  Ge2  1  0.92702  0.57404  0.57320  1
 Ge  Ge3  1  0.51349  0.76419  0.23801  1
 Ge  Ge4  1  0.51446  0.67692  0.66296  1
 Ge  Ge5  1  0.48554  0.32308  0.33704  1
 Ge  Ge6  1  0.07298  0.42596  0.42680  1
 La  La1  1  0.79977  0.91518  0.86821  1
 La  La2  1  0.81692  0.22534  0.19034  1
 La  La3  1  0.20023  0.08482  0.13179  1
 La  La4  1  0.18308  0.77466  0.80966  1
 O  O1  1  0.48190  0.35158  0.87055  1
 O  O2  1  0.00792  0.29070  0.70978  1
 O  O3  1  0.99208  0.70930  0.29022  1
 O  O4  1  0.67717  0.03599  0.01084  1
 O  O5  1  0.71565  0.67548  0.82255  1
 O  O6  1  0.67235  0.51264  0.53303  1
 O  O7  1  0.32765  0.48736  0.46697  1
 O  O8  1  0.32283  0.96401  0.98916  1
 O  O9  1  0.46359  0.11701  0.64928  1
 O  O10  1  0.98898  0.42246  0.87998  1
 O  O11  1  0.01102  0.57754  0.12002  1
 O  O12  1  0.53641  0.88299  0.35072  1
 O  O13  1  0.51810  0.64842  0.12945  1
 O  O14  1  0.02913  0.11644  0.57760  1
 O  O15  1  0.97087  0.88356  0.42240  1
 O  O16  1  0.68177  0.21778  0.40052  1
 O  O17  1  0.31823  0.78222  0.59948  1
 O  O18  1  0.28435  0.32452  0.17745  1
