CIF file written using JARVIS-Tools package.
data_SnO2
_symmetry_space_group_name_H-M  'Pbcn'
_cell_length_a       4.75615
_cell_length_b       5.82618
_cell_length_c       16.0995
_cell_angle_alpha    90
_cell_angle_beta     90
_cell_angle_gamma    90

_symmetry_Int_Tables_number  60
_chemical_formula_structural  SnO2
_chemical_formula_sum  Sn2O24
_cell_volume  446.1206629806385
_cell_formula_units_Z  12
loop_
  _symmetry_equiv_pos_site_id
 _symmetry_equiv_pos_as_xyz
 1  'x, y, z'
loop_
 _atom_site_type_symbol
 _atom_site_label
 _atom_site_symmetry_multiplicity
 _atom_site_fract_x
 _atom_site_fract_y
 _atom_site_fract_z
 _atom_site_fract_occupancy
 O  O1  1  0.27124  0.80038  0.19451  1
 O  O2  1  0.77124  0.69962  0.80549  1
 O  O3  1  0.28917  0.87681  0.52898  1
 O  O4  1  0.71508  0.42718  0.63833  1
 O  O5  1  0.28492  0.42718  0.86167  1
 O  O6  1  0.21083  0.62319  0.02898  1
 O  O7  1  0.71083  0.87681  0.97102  1
 O  O8  1  0.21508  0.07282  0.36167  1
 O  O9  1  0.78917  0.37681  0.97102  1
 O  O10  1  0.78917  0.62319  0.47102  1
 O  O11  1  0.22876  0.30038  0.19451  1
 O  O12  1  0.71083  0.12319  0.47102  1
 O  O13  1  0.78492  0.92718  0.63833  1
 O  O14  1  0.27124  0.19962  0.69451  1
 O  O15  1  0.21508  0.92718  0.86167  1
 O  O16  1  0.71508  0.57282  0.13833  1
 O  O17  1  0.78492  0.07282  0.13833  1
 O  O18  1  0.22876  0.69962  0.69451  1
 O  O19  1  0.72876  0.19962  0.80549  1
 O  O20  1  0.77124  0.30038  0.30549  1
 O  O21  1  0.72876  0.80038  0.30549  1
 O  O22  1  0.21083  0.37681  0.52898  1
 O  O23  1  0.28917  0.12319  0.02898  1
 O  O24  1  0.28492  0.57282  0.36167  1
 Sn  Sn1  1  0.00271  0.65297  0.58399  1
 Sn  Sn2  1  0.50000  0.52761  0.25000  1
 Sn  Sn3  1  0.50271  0.84703  0.41601  1
 Sn  Sn4  1  0.50000  0.47239  0.75000  1
 Sn  Sn5  1  0.49729  0.15297  0.58399  1
 Sn  Sn6  1  0.00000  0.02761  0.25000  1
 Sn  Sn7  1  0.99729  0.65297  0.91601  1
 Sn  Sn8  1  0.00271  0.34703  0.08399  1
 Sn  Sn9  1  0.50271  0.15297  0.91601  1
 Sn  Sn10  1  0.49729  0.84703  0.08399  1
 Sn  Sn11  1  0.00000  0.97239  0.75000  1
 Sn  Sn12  1  0.99729  0.34703  0.41601  1
