CIF file written using JARVIS-Tools package.
data_B5H12NO12
_symmetry_space_group_name_H-M  'Aea2'
_cell_length_a       11.2962
_cell_length_b       7.06231
_cell_length_c       7.06231
_cell_angle_alpha    101.376
_cell_angle_beta     90
_cell_angle_gamma    90

_symmetry_Int_Tables_number  41
_chemical_formula_structural  B5H12NO12
_chemical_formula_sum  B0H24N2O24
_cell_volume  552.3441810876142
_cell_formula_units_Z  2
loop_
  _symmetry_equiv_pos_site_id
 _symmetry_equiv_pos_as_xyz
 1  'x, y, z'
loop_
 _atom_site_type_symbol
 _atom_site_label
 _atom_site_symmetry_multiplicity
 _atom_site_fract_x
 _atom_site_fract_y
 _atom_site_fract_z
 _atom_site_fract_occupancy
 B  B1  1  0.50000  0.10413  0.10413  1
 B  B2  1  0.00000  0.60413  0.60413  1
 B  B3  1  0.31632  0.30158  0.10081  1
 B  B4  1  0.68368  0.10081  0.30158  1
 B  B5  1  0.18368  0.80158  0.60081  1
 B  B6  1  0.81632  0.60081  0.80158  1
 B  B7  1  0.29721  0.95831  0.05719  1
 B  B8  1  0.70279  0.05719  0.95831  1
 B  B9  1  0.20279  0.45831  0.55719  1
 B  B10  1  0.79721  0.55719  0.45831  1
 H  H1  1  0.50131  0.01136  0.48326  1
 H  H2  1  0.75233  0.53802  0.18078  1
 H  H3  1  0.24767  0.18078  0.53802  1
 H  H4  1  0.74767  0.03802  0.68078  1
 H  H5  1  0.17168  0.46165  0.10746  1
 H  H6  1  0.67168  0.60746  0.96165  1
 H  H7  1  0.32832  0.96165  0.60746  1
 H  H8  1  0.82832  0.10746  0.46165  1
 H  H9  1  0.49869  0.48326  0.01136  1
 H  H10  1  0.25233  0.68078  0.03802  1
 H  H11  1  -0.00131  0.51136  0.98326  1
 H  H12  1  0.00131  0.98326  0.51136  1
 H  H13  1  0.51462  0.99928  0.70727  1
 H  H14  1  0.47252  0.66544  0.52461  1
 H  H15  1  0.48538  0.70727  0.99928  1
 H  H16  1  0.56951  0.49128  0.42991  1
 H  H17  1  0.06951  0.92991  -0.00872  1
 H  H18  1  0.93049  -0.00872  0.92991  1
 H  H19  1  0.43049  0.42991  0.49128  1
 H  H20  1  0.52748  0.52461  0.66544  1
 H  H21  1  0.97252  0.02461  0.16544  1
 H  H22  1  0.02748  0.16544  0.02461  1
 H  H23  1  0.01462  0.20727  0.49928  1
 H  H24  1  0.98538  0.49928  0.20727  1
 N  N1  1  0.00000  0.02540  0.02540  1
 N  N2  1  0.50000  0.52540  0.52540  1
 O  O1  1  0.43692  0.28985  0.11054  1
 O  O2  1  0.56308  0.11054  0.28985  1
 O  O3  1  0.06308  0.78985  0.61054  1
 O  O4  1  0.93692  0.61054  0.78985  1
 O  O5  1  0.02860  0.44553  0.08578  1
 O  O6  1  0.58306  0.07481  0.93799  1
 O  O7  1  0.08306  0.43799  0.57481  1
 O  O8  1  0.91694  0.57481  0.43799  1
 O  O9  1  0.24578  0.13871  0.07443  1
 O  O10  1  0.75422  0.07443  0.13871  1
 O  O11  1  0.41694  0.93799  0.07481  1
 O  O12  1  0.52860  0.58578  0.94553  1
 O  O13  1  0.26087  0.47633  0.11397  1
 O  O14  1  0.73913  0.11397  0.47633  1
 O  O15  1  0.23913  0.97633  0.61397  1
 O  O16  1  0.76087  0.61397  0.97633  1
 O  O17  1  0.21993  0.80685  0.01957  1
 O  O18  1  0.78007  0.01957  0.80685  1
 O  O19  1  0.28007  0.30685  0.51957  1
 O  O20  1  0.71993  0.51957  0.30685  1
 O  O21  1  0.47140  0.94553  0.58578  1
 O  O22  1  0.25422  0.63871  0.57443  1
 O  O23  1  0.74578  0.57443  0.63871  1
 O  O24  1  0.97140  0.08578  0.44553  1
