CIF file written using JARVIS-Tools package.
data_ScInPt
_symmetry_space_group_name_H-M  'P-62m'
_cell_length_a       7.59032
_cell_length_b       7.59032
_cell_length_c       3.54114
_cell_angle_alpha    90
_cell_angle_beta     90
_cell_angle_gamma    120

_symmetry_Int_Tables_number  189
_chemical_formula_structural  ScInPt
_chemical_formula_sum  Sc3In3Pt3
_cell_volume  176.68269159998908
_cell_formula_units_Z  3
loop_
  _symmetry_equiv_pos_site_id
 _symmetry_equiv_pos_as_xyz
 1  'x, y, z'
loop_
 _atom_site_type_symbol
 _atom_site_label
 _atom_site_symmetry_multiplicity
 _atom_site_fract_x
 _atom_site_fract_y
 _atom_site_fract_z
 _atom_site_fract_occupancy
 In  In1  1  0.72621  0.72621  0.50000  1
 In  In2  1  0.00000  0.27379  0.50000  1
 In  In3  1  0.27379  0.00000  0.50000  1
 Pt  Pt1  1  0.66667  0.33333  0.50000  1
 Pt  Pt2  1  0.00000  0.00000  0.00000  1
 Pt  Pt3  1  0.33333  0.66667  0.50000  1
 Sc  Sc1  1  0.60171  0.00000  0.00000  1
 Sc  Sc2  1  0.39829  0.39829  0.00000  1
 Sc  Sc3  1  -0.00000  0.60171  0.00000  1
