CIF file written using JARVIS-Tools package.
data_Na4CrO3
_symmetry_space_group_name_H-M  'Cc'
_cell_length_a       5.78763
_cell_length_b       6.10774
_cell_length_c       8.65399
_cell_angle_alpha    66.9744
_cell_angle_beta     90
_cell_angle_gamma    61.719

_symmetry_Int_Tables_number  9
_chemical_formula_structural  Na4CrO3
_chemical_formula_sum  Na8Cr2O6
_cell_volume  241.3662082810517
_cell_formula_units_Z  2
loop_
  _symmetry_equiv_pos_site_id
 _symmetry_equiv_pos_as_xyz
 1  'x, y, z'
loop_
 _atom_site_type_symbol
 _atom_site_label
 _atom_site_symmetry_multiplicity
 _atom_site_fract_x
 _atom_site_fract_y
 _atom_site_fract_z
 _atom_site_fract_occupancy
 Cr  Cr1  1  0.33333  0.03837  0.73959  1
 Cr  Cr2  1  0.62830  0.03837  0.23959  1
 Na  Na1  1  0.92959  0.78802  0.95449  1
 Na  Na2  1  0.28239  0.78802  0.45449  1
 Na  Na3  1  0.85478  0.60453  0.62767  1
 Na  Na4  1  0.48731  0.39222  0.85015  1
 Na  Na5  1  0.54069  0.60453  0.12767  1
 Na  Na6  1  0.12047  0.39222  0.35015  1
 Na  Na7  1  0.74735  0.22467  0.53033  1
 Na  Na8  1  0.02799  0.22467  0.03033  1
 O  O1  1  0.63704  0.69616  0.84602  1
 O  O2  1  0.66680  0.69616  0.34602  1
 O  O3  1  0.33330  0.35355  0.61072  1
 O  O4  1  0.01393  0.11737  0.79339  1
 O  O5  1  0.31315  0.35355  0.11072  1
 O  O6  1  0.86869  0.11737  0.29339  1
