CIF file written using JARVIS-Tools package.
data_Ti3Zn3C
_symmetry_space_group_name_H-M  'Fd-3m'
_cell_length_a       8.17055
_cell_length_b       8.17062
_cell_length_c       8.17054
_cell_angle_alpha    59.9991
_cell_angle_beta     60.0004
_cell_angle_gamma    59.9993

_symmetry_Int_Tables_number  227
_chemical_formula_structural  Ti3Zn3C
_chemical_formula_sum  Ti2Zn2C4
_cell_volume  385.6896727049183
_cell_formula_units_Z  4
loop_
  _symmetry_equiv_pos_site_id
 _symmetry_equiv_pos_as_xyz
 1  'x, y, z'
loop_
 _atom_site_type_symbol
 _atom_site_label
 _atom_site_symmetry_multiplicity
 _atom_site_fract_x
 _atom_site_fract_y
 _atom_site_fract_z
 _atom_site_fract_occupancy
 C  C1  1  0.62501  0.62500  0.62499  1
 C  C2  1  0.12500  0.62499  0.62500  1
 C  C3  1  0.62499  0.12500  0.62500  1
 C  C4  1  0.62500  0.62500  0.12500  1
 Ti  Ti1  1  0.93286  0.56714  0.93286  1
 Ti  Ti2  1  0.56713  0.56712  0.93287  1
 Ti  Ti3  1  0.56715  0.93286  0.56714  1
 Ti  Ti4  1  0.93289  0.56711  0.56711  1
 Ti  Ti5  1  0.56711  0.93289  0.93289  1
 Ti  Ti6  1  0.68285  0.31715  0.68285  1
 Ti  Ti7  1  0.68288  0.31712  0.31712  1
 Ti  Ti8  1  0.68289  0.68289  0.31711  1
 Ti  Ti9  1  0.31715  0.68285  0.31715  1
 Ti  Ti10  1  0.31712  0.68288  0.68288  1
 Ti  Ti11  1  0.31711  0.31711  0.68289  1
 Ti  Ti12  1  0.93288  0.93288  0.56712  1
 Zn  Zn1  1  0.91446  0.91444  0.25664  1
 Zn  Zn2  1  0.99336  0.33555  0.33554  1
 Zn  Zn3  1  0.33555  0.99337  0.33555  1
 Zn  Zn4  1  0.33555  0.33554  0.33555  1
 Zn  Zn5  1  0.33553  0.33555  0.99337  1
 Zn  Zn6  1  0.91445  0.25664  0.91445  1
 Zn  Zn7  1  0.62500  0.12500  0.12500  1
 Zn  Zn8  1  0.12500  0.12500  0.62500  1
 Zn  Zn9  1  0.12500  0.62500  0.12500  1
 Zn  Zn10  1  0.91445  0.91446  0.91445  1
 Zn  Zn11  1  0.25664  0.91445  0.91446  1
 Zn  Zn12  1  0.12499  0.12500  0.12500  1
