CIF file written using JARVIS-Tools package.
data_Li4Mn7O2F14
_symmetry_space_group_name_H-M  'C2/m'
_cell_length_a       6.35296
_cell_length_b       6.07523
_cell_length_c       10.9686
_cell_angle_alpha    107.663
_cell_angle_beta     90
_cell_angle_gamma    58.4759

_symmetry_Int_Tables_number  12
_chemical_formula_structural  Li4Mn7O2F14
_chemical_formula_sum  Li4Mn7O2F4
_cell_volume  337.2291841957252
_cell_formula_units_Z  1
loop_
  _symmetry_equiv_pos_site_id
 _symmetry_equiv_pos_as_xyz
 1  'x, y, z'
loop_
 _atom_site_type_symbol
 _atom_site_label
 _atom_site_symmetry_multiplicity
 _atom_site_fract_x
 _atom_site_fract_y
 _atom_site_fract_z
 _atom_site_fract_occupancy
 F  F1  1  0.19465  0.13988  0.43908  1
 F  F2  1  0.18587  0.15392  0.95537  1
 F  F3  1  0.45952  0.61012  0.18592  1
 F  F4  1  0.69841  0.60317  0.44049  1
 F  F5  1  0.42659  0.14683  0.18451  1
 F  F6  1  0.19884  0.60232  0.42601  1
 F  F7  1  0.93035  0.61012  0.18592  1
 F  F8  1  0.66548  0.13988  0.43908  1
 F  F9  1  0.46478  0.59608  0.66963  1
 F  F10  1  0.93913  0.59608  0.66963  1
 F  F11  1  0.95583  0.08834  0.67611  1
 F  F12  1  0.16917  0.66166  0.94889  1
 F  F13  1  0.92616  0.14768  0.19899  1
 F  F14  1  0.66022  0.15392  0.95537  1
 Li  Li1  1  0.49028  0.01944  0.52430  1
 Li  Li2  1  0.15138  0.69724  0.60948  1
 Li  Li3  1  0.97362  0.05276  0.01552  1
 Li  Li4  1  0.63472  0.73056  0.10070  1
 Mn  Mn1  1  0.06250  0.37500  0.31250  1
 Mn  Mn2  1  0.27711  0.44579  0.07809  1
 Mn  Mn3  1  0.56250  0.37500  0.31250  1
 Mn  Mn4  1  0.06250  0.37500  0.81250  1
 Mn  Mn5  1  0.56250  0.87500  0.81250  1
 Mn  Mn6  1  0.84789  0.30421  0.54691  1
 Mn  Mn7  1  0.56250  0.37500  0.81250  1
 O  O1  1  0.42450  0.15101  0.72186  1
 O  O2  1  0.70050  0.59899  0.90314  1
