CIF file written using JARVIS-Tools package.
data_TiMnO3
_symmetry_space_group_name_H-M  'C2/m'
_cell_length_a       10.3608
_cell_length_b       3.2389
_cell_length_c       6.68237
_cell_angle_alpha    118.989
_cell_angle_beta     145.317
_cell_angle_gamma    62.0389

_symmetry_Int_Tables_number  12
_chemical_formula_structural  TiMnO3
_chemical_formula_sum  Ti2Mn2O6
_cell_volume  110.4946138145352
_cell_formula_units_Z  2
loop_
  _symmetry_equiv_pos_site_id
 _symmetry_equiv_pos_as_xyz
 1  'x, y, z'
loop_
 _atom_site_type_symbol
 _atom_site_label
 _atom_site_symmetry_multiplicity
 _atom_site_fract_x
 _atom_site_fract_y
 _atom_site_fract_z
 _atom_site_fract_occupancy
 Mn  Mn1  1  0.77248  0.72731  0.88597  1
 Mn  Mn2  1  0.22752  0.27269  0.11403  1
 O  O1  1  0.20690  0.61028  0.42062  1
 O  O2  1  0.42189  0.92586  0.05872  1
 O  O3  1  0.89715  0.35488  0.20056  1
 O  O4  1  0.79310  0.38972  0.57938  1
 O  O5  1  0.57811  0.07414  0.94128  1
 O  O6  1  0.10285  0.64512  0.79944  1
 Ti  Ti1  1  0.25668  0.29524  0.68023  1
 Ti  Ti2  1  0.74332  0.70476  0.31977  1
