CIF file written using JARVIS-Tools package.
data_ThGaRh
_symmetry_space_group_name_H-M  'P-62m'
_cell_length_a       4.03532
_cell_length_b       7.30771
_cell_length_c       7.30783
_cell_angle_alpha    119.999
_cell_angle_beta     90
_cell_angle_gamma    90

_symmetry_Int_Tables_number  189
_chemical_formula_structural  ThGaRh
_chemical_formula_sum  Th3Ga3Rh3
_cell_volume  186.62935204588427
_cell_formula_units_Z  3
loop_
  _symmetry_equiv_pos_site_id
 _symmetry_equiv_pos_as_xyz
 1  'x, y, z'
loop_
 _atom_site_type_symbol
 _atom_site_label
 _atom_site_symmetry_multiplicity
 _atom_site_fract_x
 _atom_site_fract_y
 _atom_site_fract_z
 _atom_site_fract_occupancy
 Ga  Ga1  1  0.00000  0.24028  -0.00000  1
 Ga  Ga2  1  0.00000  0.75970  0.75971  1
 Ga  Ga3  1  0.00000  -0.00001  0.24029  1
 Rh  Rh1  1  0.00000  0.33332  0.66667  1
 Rh  Rh2  1  0.00000  0.66666  0.33333  1
 Rh  Rh3  1  0.50000  0.99999  0.00000  1
 Th  Th1  1  0.50000  0.58812  -0.00000  1
 Th  Th2  1  0.50000  0.41186  0.41187  1
 Th  Th3  1  0.50000  0.99999  0.58813  1
