CIF file written using JARVIS-Tools package.
data_LiCrP2O7
_symmetry_space_group_name_H-M  'P2_1'
_cell_length_a       4.79257
_cell_length_b       6.96225
_cell_length_c       7.98927
_cell_angle_alpha    90
_cell_angle_beta     90
_cell_angle_gamma    109.488

_symmetry_Int_Tables_number  4
_chemical_formula_structural  LiCrP2O7
_chemical_formula_sum  Li2Cr2P4O4
_cell_volume  251.3063023379466
_cell_formula_units_Z  2
loop_
  _symmetry_equiv_pos_site_id
 _symmetry_equiv_pos_as_xyz
 1  'x, y, z'
loop_
 _atom_site_type_symbol
 _atom_site_label
 _atom_site_symmetry_multiplicity
 _atom_site_fract_x
 _atom_site_fract_y
 _atom_site_fract_z
 _atom_site_fract_occupancy
 Cr  Cr1  1  0.78047  0.76984  0.74886  1
 Cr  Cr2  1  0.21953  0.23016  0.24886  1
 Li  Li1  1  0.18165  0.18062  0.88056  1
 Li  Li2  1  0.81835  0.81938  0.38056  1
 O  O1  1  0.60403  0.88963  0.56510  1
 O  O2  1  0.61537  0.41569  0.30963  1
 O  O3  1  0.38463  0.58431  0.80963  1
 O  O4  1  0.87633  0.62068  0.55702  1
 O  O5  1  0.12367  0.37932  0.05702  1
 O  O6  1  0.39644  0.74663  0.10226  1
 O  O7  1  0.92439  0.63861  0.92976  1
 O  O8  1  0.25014  0.01034  0.39883  1
 O  O9  1  0.18575  0.97641  0.71518  1
 O  O10  1  0.60356  0.25337  0.60226  1
 O  O11  1  0.81425  0.02359  0.21518  1
 O  O12  1  0.39597  0.11037  0.06510  1
 O  O13  1  0.74986  0.98966  0.89883  1
 O  O14  1  0.07561  0.36139  0.42976  1
 P  P1  1  0.59704  0.98036  0.06878  1
 P  P2  1  0.40296  0.01964  0.56878  1
 P  P3  1  0.19950  0.58355  0.96633  1
 P  P4  1  0.80050  0.41645  0.46633  1
