CIF file written using JARVIS-Tools package.
data_Na14Ni2O9
_symmetry_space_group_name_H-M  'P-3'
_cell_length_a       6.60189
_cell_length_b       6.60215
_cell_length_c       9.27296
_cell_angle_alpha    90.0018
_cell_angle_beta     89.9985
_cell_angle_gamma    60.0004

_symmetry_Int_Tables_number  147
_chemical_formula_structural  Na14Ni2O9
_chemical_formula_sum  Na4Ni2O9
_cell_volume  350.0289618463166
_cell_formula_units_Z  1
loop_
  _symmetry_equiv_pos_site_id
 _symmetry_equiv_pos_as_xyz
 1  'x, y, z'
loop_
 _atom_site_type_symbol
 _atom_site_label
 _atom_site_symmetry_multiplicity
 _atom_site_fract_x
 _atom_site_fract_y
 _atom_site_fract_z
 _atom_site_fract_occupancy
 Na  Na1  1  0.96709  0.67337  0.09250  1
 Na  Na2  1  0.35943  0.96712  0.09241  1
 Na  Na3  1  0.93592  0.37755  0.40638  1
 Na  Na4  1  -0.00003  0.00008  0.74905  1
 Na  Na5  1  0.00005  -0.00008  0.25095  1
 Na  Na6  1  0.67348  0.35951  0.09247  1
 Na  Na7  1  0.31346  0.06413  0.59359  1
 Na  Na8  1  0.68656  0.93586  0.40641  1
 Na  Na9  1  0.37768  0.68647  0.40636  1
 Na  Na10  1  0.64059  0.03289  0.90760  1
 Na  Na11  1  0.32654  0.64049  0.90753  1
 Na  Na12  1  0.06409  0.62244  0.59362  1
 Na  Na13  1  0.03293  0.32663  0.90750  1
 Na  Na14  1  0.62233  0.31353  0.59364  1
 Ni  Ni1  1  0.66661  0.66674  0.73736  1
 Ni  Ni2  1  0.33341  0.33326  0.26264  1
 O  O1  1  0.05788  0.63811  0.33692  1
 O  O2  1  0.94214  0.36188  0.66308  1
 O  O3  1  0.66669  0.66665  0.95670  1
 O  O4  1  0.33333  0.33335  0.04330  1
 O  O5  1  0.63825  0.30390  0.33692  1
 O  O6  1  0.36176  0.69610  0.66308  1
 O  O7  1  0.00001  0.00000  -0.00000  1
 O  O8  1  0.69598  0.94223  0.66310  1
 O  O9  1  0.30403  0.05777  0.33690  1
