CIF file written using JARVIS-Tools package.
data_CaNiGe2
_symmetry_space_group_name_H-M  'Cmcm'
_cell_length_a       4.10268
_cell_length_b       4.24302
_cell_length_c       8.86823
_cell_angle_alpha    103.841
_cell_angle_beta     90
_cell_angle_gamma    90

_symmetry_Int_Tables_number  63
_chemical_formula_structural  CaNiGe2
_chemical_formula_sum  Ca2Ni2Ge4
_cell_volume  149.8934218359463
_cell_formula_units_Z  2
loop_
  _symmetry_equiv_pos_site_id
 _symmetry_equiv_pos_as_xyz
 1  'x, y, z'
loop_
 _atom_site_type_symbol
 _atom_site_label
 _atom_site_symmetry_multiplicity
 _atom_site_fract_x
 _atom_site_fract_y
 _atom_site_fract_z
 _atom_site_fract_occupancy
 Ca  Ca1  1  0.25000  0.89171  0.78342  1
 Ca  Ca2  1  0.75000  0.10829  0.21658  1
 Ge  Ge1  1  0.75000  0.75018  0.50035  1
 Ge  Ge2  1  0.25000  0.24982  0.49965  1
 Ge  Ge3  1  0.25000  0.54309  0.08618  1
 Ge  Ge4  1  0.75000  0.45691  0.91382  1
 Ni  Ni1  1  0.75000  0.32156  0.64311  1
 Ni  Ni2  1  0.25000  0.67844  0.35689  1
