CIF file written using JARVIS-Tools package.
data_CaBi2O4
_symmetry_space_group_name_H-M  'C2/c'
_cell_length_a       10.165
_cell_length_b       10.1654
_cell_length_c       11.7869
_cell_angle_alpha    100.153
_cell_angle_beta     112.157
_cell_angle_gamma    110.996

_symmetry_Int_Tables_number  15
_chemical_formula_structural  CaBi2O4
_chemical_formula_sum  Ca8Bi6O32
_cell_volume  982.4524711364463
_cell_formula_units_Z  8
loop_
  _symmetry_equiv_pos_site_id
 _symmetry_equiv_pos_as_xyz
 1  'x, y, z'
loop_
 _atom_site_type_symbol
 _atom_site_label
 _atom_site_symmetry_multiplicity
 _atom_site_fract_x
 _atom_site_fract_y
 _atom_site_fract_z
 _atom_site_fract_occupancy
 Bi  Bi1  1  0.62427  0.21776  0.28174  1
 Bi  Bi2  1  0.78618  0.97412  0.43340  1
 Bi  Bi3  1  0.21382  0.02588  0.56660  1
 Bi  Bi4  1  0.98251  0.46191  0.73407  1
 Bi  Bi5  1  0.01749  0.53809  0.26593  1
 Bi  Bi6  1  0.83063  0.14197  0.00463  1
 Bi  Bi7  1  0.16937  0.85803  0.99537  1
 Bi  Bi8  1  0.45924  0.14720  0.93338  1
 Bi  Bi9  1  0.06398  0.15746  0.78175  1
 Bi  Bi10  1  0.86266  0.67399  0.50462  1
 Bi  Bi11  1  0.72786  0.74845  0.76595  1
 Bi  Bi12  1  0.93602  0.84254  0.21825  1
 Bi  Bi13  1  0.37573  0.78224  0.71826  1
 Bi  Bi14  1  0.13734  0.32601  0.49538  1
 Bi  Bi15  1  0.54076  0.85280  0.06662  1
 Bi  Bi16  1  0.27214  0.25155  0.23405  1
 Ca  Ca1  1  0.34147  0.92142  0.33946  1
 Ca  Ca2  1  0.77063  0.44473  0.91800  1
 Ca  Ca3  1  0.52673  0.35265  0.58200  1
 Ca  Ca4  1  0.22937  0.55527  0.08200  1
 Ca  Ca5  1  0.41804  0.49799  0.83947  1
 Ca  Ca6  1  0.65853  0.07858  0.66054  1
 Ca  Ca7  1  0.47327  0.64735  0.41800  1
 Ca  Ca8  1  0.58196  0.50201  0.16053  1
 O  O1  1  0.46551  0.22420  0.36667  1
 O  O2  1  0.75422  0.45516  0.33457  1
 O  O3  1  0.14249  0.40115  0.86668  1
 O  O4  1  0.28610  0.27834  0.64798  1
 O  O5  1  0.75585  0.33612  0.71597  1
 O  O6  1  0.62016  0.53990  0.78404  1
 O  O7  1  0.71390  0.72166  0.35202  1
 O  O8  1  0.36968  0.86193  0.14799  1
 O  O9  1  0.97029  0.38311  0.07165  1
 O  O10  1  0.41653  0.19631  0.11614  1
 O  O11  1  0.67021  0.17376  0.09989  1
 O  O12  1  0.24578  0.54484  0.66543  1
 O  O13  1  0.53449  0.77580  0.63333  1
 O  O14  1  0.02971  0.61689  0.92835  1
 O  O15  1  0.24415  0.66388  0.28403  1
 O  O16  1  0.41989  0.08244  0.54714  1
 O  O17  1  0.37984  0.46010  0.21596  1
 O  O18  1  0.07386  0.07034  0.40009  1
 O  O19  1  0.63032  0.13807  0.85201  1
 O  O20  1  0.68858  0.60136  0.57167  1
 O  O21  1  0.08020  0.80043  0.38384  1
 O  O22  1  0.53527  0.37274  0.95286  1
 O  O23  1  0.58011  0.91756  0.45286  1
 O  O24  1  0.58347  0.80369  0.88386  1
 O  O25  1  0.91980  0.19957  0.61616  1
 O  O26  1  0.32979  0.82624  0.90011  1
 O  O27  1  0.87943  0.08035  0.83461  1
 O  O28  1  0.31142  0.39864  0.42833  1
 O  O29  1  0.85751  0.59885  0.13332  1
 O  O30  1  0.12057  0.91965  0.16539  1
 O  O31  1  0.46473  0.62726  0.04714  1
 O  O32  1  0.92614  0.92966  0.59991  1
