CIF file written using JARVIS-Tools package.
data_Ho2SnAu2
_symmetry_space_group_name_H-M  'P4_2/mnm'
_cell_length_a       7.88854
_cell_length_b       7.88854
_cell_length_c       7.43853
_cell_angle_alpha    90
_cell_angle_beta     90
_cell_angle_gamma    90

_symmetry_Int_Tables_number  136
_chemical_formula_structural  Ho2SnAu2
_chemical_formula_sum  Ho8Sn4Au8
_cell_volume  462.8926304504974
_cell_formula_units_Z  4
loop_
  _symmetry_equiv_pos_site_id
 _symmetry_equiv_pos_as_xyz
 1  'x, y, z'
loop_
 _atom_site_type_symbol
 _atom_site_label
 _atom_site_symmetry_multiplicity
 _atom_site_fract_x
 _atom_site_fract_y
 _atom_site_fract_z
 _atom_site_fract_occupancy
 Au  Au1  1  0.87175  0.87175  0.77074  1
 Au  Au2  1  0.37175  0.62825  0.27074  1
 Au  Au3  1  0.62825  0.37175  0.27074  1
 Au  Au4  1  0.37175  0.62825  0.72926  1
 Au  Au5  1  0.62825  0.37175  0.72926  1
 Au  Au6  1  0.87175  0.87175  0.22926  1
 Au  Au7  1  0.12825  0.12825  0.22926  1
 Au  Au8  1  0.12825  0.12825  0.77074  1
 Ho  Ho1  1  0.34045  0.34045  0.00000  1
 Ho  Ho2  1  0.32037  0.32037  0.50000  1
 Ho  Ho3  1  0.67963  0.67963  0.50000  1
 Ho  Ho4  1  0.17963  0.82037  0.00000  1
 Ho  Ho5  1  0.82037  0.17963  0.00000  1
 Ho  Ho6  1  0.15955  0.84045  0.50000  1
 Ho  Ho7  1  0.84045  0.15955  0.50000  1
 Ho  Ho8  1  0.65955  0.65955  0.00000  1
 Sn  Sn1  1  0.50000  0.00000  0.75000  1
 Sn  Sn2  1  0.50000  0.00000  0.25000  1
 Sn  Sn3  1  0.00000  0.50000  0.75000  1
 Sn  Sn4  1  0.00000  0.50000  0.25000  1
