CIF file written using JARVIS-Tools package.
data_Li2Fe3SnO8
_symmetry_space_group_name_H-M  'R3m'
_cell_length_a       5.86315
_cell_length_b       5.86316
_cell_length_c       5.86316
_cell_angle_alpha    59.2764
_cell_angle_beta     59.2763
_cell_angle_gamma    59.2764

_symmetry_Int_Tables_number  160
_chemical_formula_structural  Li2Fe3SnO8
_chemical_formula_sum  Li2Fe3SnO8
_cell_volume  140.17261377462358
_cell_formula_units_Z  1
loop_
  _symmetry_equiv_pos_site_id
 _symmetry_equiv_pos_as_xyz
 1  'x, y, z'
loop_
 _atom_site_type_symbol
 _atom_site_label
 _atom_site_symmetry_multiplicity
 _atom_site_fract_x
 _atom_site_fract_y
 _atom_site_fract_z
 _atom_site_fract_occupancy
 Fe  Fe1  1  0.01912  0.49413  0.49413  1
 Fe  Fe2  1  0.49413  0.01912  0.49413  1
 Fe  Fe3  1  0.49413  0.49413  0.01912  1
 Li  Li1  1  0.11970  0.11970  0.11970  1
 Li  Li2  1  0.49925  0.49925  0.49925  1
 O  O1  1  0.26082  0.26082  0.26082  1
 O  O2  1  0.25066  0.25066  0.71228  1
 O  O3  1  0.25066  0.71228  0.25066  1
 O  O4  1  0.71228  0.25066  0.25066  1
 O  O5  1  0.29803  0.74239  0.74239  1
 O  O6  1  0.74239  0.29803  0.74239  1
 O  O7  1  0.74239  0.74239  0.29803  1
 O  O8  1  0.73699  0.73699  0.73699  1
 Sn  Sn1  1  0.87946  0.87946  0.87946  1
