CIF file written using JARVIS-Tools package.
data_Y4Fe3B6
_symmetry_space_group_name_H-M  'R-3m'
_cell_length_a       7.77515
_cell_length_b       7.77515
_cell_length_c       7.77515
_cell_angle_alpha    39.8338
_cell_angle_beta     39.8338
_cell_angle_gamma    39.8338

_symmetry_Int_Tables_number  166
_chemical_formula_structural  Y4Fe3B6
_chemical_formula_sum  Y4Fe3B6
_cell_volume  173.71954420567346
_cell_formula_units_Z  1
loop_
  _symmetry_equiv_pos_site_id
 _symmetry_equiv_pos_as_xyz
 1  'x, y, z'
loop_
 _atom_site_type_symbol
 _atom_site_label
 _atom_site_symmetry_multiplicity
 _atom_site_fract_x
 _atom_site_fract_y
 _atom_site_fract_z
 _atom_site_fract_occupancy
 B  B1  1  0.83267  0.16733  0.50000  1
 B  B2  1  0.16733  0.50000  0.83267  1
 B  B3  1  0.50000  0.83267  0.16733  1
 B  B4  1  0.16733  0.83267  0.50000  1
 B  B5  1  0.83267  0.50000  0.16733  1
 B  B6  1  0.50000  0.16733  0.83267  1
 Fe  Fe1  1  0.00000  0.00000  0.00000  1
 Fe  Fe2  1  0.89137  0.89137  0.89137  1
 Fe  Fe3  1  0.10863  0.10863  0.10863  1
 Y  Y1  1  0.74233  0.74233  0.74233  1
 Y  Y2  1  0.25767  0.25767  0.25767  1
 Y  Y3  1  0.59042  0.59042  0.59042  1
 Y  Y4  1  0.40958  0.40958  0.40958  1
