CIF file written using JARVIS-Tools package.
data_K2PAuS4
_symmetry_space_group_name_H-M  'P2_1/m'
_cell_length_a       6.48233
_cell_length_b       6.75334
_cell_length_c       9.38377
_cell_angle_alpha    90
_cell_angle_beta     91.5521
_cell_angle_gamma    90

_symmetry_Int_Tables_number  11
_chemical_formula_structural  K2PAuS4
_chemical_formula_sum  K4P2Au2S8
_cell_volume  410.6465979502759
_cell_formula_units_Z  2
loop_
  _symmetry_equiv_pos_site_id
 _symmetry_equiv_pos_as_xyz
 1  'x, y, z'
loop_
 _atom_site_type_symbol
 _atom_site_label
 _atom_site_symmetry_multiplicity
 _atom_site_fract_x
 _atom_site_fract_y
 _atom_site_fract_z
 _atom_site_fract_occupancy
 Au  Au1  1  0.00000  0.50000  0.00000  1
 Au  Au2  1  0.00000  0.00000  0.00000  1
 K  K1  1  0.20032  0.75000  0.53670  1
 K  K2  1  0.79968  0.25000  0.46330  1
 K  K3  1  0.54617  0.75000  0.16423  1
 K  K4  1  0.45383  0.25000  0.83577  1
 P  P1  1  0.72335  0.75000  0.71833  1
 P  P2  1  0.27665  0.25000  0.28167  1
 S  S1  1  0.10133  0.99414  0.23896  1
 S  S2  1  0.89867  0.49414  0.76104  1
 S  S3  1  0.89867  0.00586  0.76104  1
 S  S4  1  0.10133  0.50586  0.23896  1
 S  S5  1  0.45796  0.75000  0.82741  1
 S  S6  1  0.54204  0.25000  0.17259  1
 S  S7  1  0.69186  0.75000  0.50237  1
 S  S8  1  0.30814  0.25000  0.49763  1
