CIF file written using JARVIS-Tools package.
data_K3AlH6
_symmetry_space_group_name_H-M  'Pnnm'
_cell_length_a       3.21456
_cell_length_b       12.9853
_cell_length_c       15.1207
_cell_angle_alpha    90
_cell_angle_beta     90
_cell_angle_gamma    90

_symmetry_Int_Tables_number  58
_chemical_formula_structural  K3AlH6
_chemical_formula_sum  K2Al4H24
_cell_volume  631.1695447658168
_cell_formula_units_Z  4
loop_
  _symmetry_equiv_pos_site_id
 _symmetry_equiv_pos_as_xyz
 1  'x, y, z'
loop_
 _atom_site_type_symbol
 _atom_site_label
 _atom_site_symmetry_multiplicity
 _atom_site_fract_x
 _atom_site_fract_y
 _atom_site_fract_z
 _atom_site_fract_occupancy
 Al  Al1  1  0.50000  0.00000  0.50000  1
 Al  Al2  1  0.00000  0.50000  0.50000  1
 Al  Al3  1  0.50000  0.00000  0.00000  1
 Al  Al4  1  0.00000  0.50000  0.00000  1
 H  H1  1  0.00000  0.93984  0.05436  1
 H  H2  1  0.50000  0.56016  0.55436  1
 H  H3  1  0.50000  0.12953  0.50703  1
 H  H4  1  0.50000  0.49508  0.92592  1
 H  H5  1  0.00000  0.66614  0.22572  1
 H  H6  1  0.00000  0.99508  0.57408  1
 H  H7  1  0.00000  0.59488  0.42652  1
 H  H8  1  0.50000  0.50492  0.07408  1
 H  H9  1  0.00000  0.00492  0.42592  1
 H  H10  1  0.00000  0.62953  0.99297  1
 H  H11  1  0.00000  0.38021  0.25188  1
 H  H12  1  0.00000  0.61979  0.74812  1
 H  H13  1  0.00000  0.06016  0.94564  1
 H  H14  1  0.00000  0.33386  0.77428  1
 H  H15  1  0.50000  0.09488  0.07348  1
 H  H16  1  0.50000  0.16614  0.27428  1
 H  H17  1  0.50000  0.11979  0.75188  1
 H  H18  1  0.50000  0.90512  0.92652  1
 H  H19  1  0.00000  0.37047  0.00703  1
 H  H20  1  0.50000  0.83386  0.72572  1
 H  H21  1  0.50000  0.43984  0.44564  1
 H  H22  1  0.00000  0.40512  0.57348  1
 H  H23  1  0.50000  0.88021  0.24812  1
 H  H24  1  0.50000  0.87047  0.49297  1
 K  K1  1  0.50000  0.74745  0.11818  1
 K  K2  1  0.50000  0.25255  0.88182  1
 K  K3  1  0.50000  0.70269  0.85464  1
 K  K4  1  0.50000  0.29731  0.14536  1
 K  K5  1  0.00000  0.02800  0.22038  1
 K  K6  1  0.50000  0.52800  0.27962  1
 K  K7  1  0.00000  0.20269  0.64536  1
 K  K8  1  0.00000  0.24745  0.38182  1
 K  K9  1  0.00000  0.75255  0.61818  1
 K  K10  1  0.00000  0.97200  0.77962  1
 K  K11  1  0.00000  0.79731  0.35464  1
 K  K12  1  0.50000  0.47200  0.72038  1
