CIF file written using JARVIS-Tools package.
data_Ce3In3Ru2
_symmetry_space_group_name_H-M  'C2/m'
_cell_length_a       4.84587
_cell_length_b       4.94706
_cell_length_c       8.48728
_cell_angle_alpha    96.9165
_cell_angle_beta     106.588
_cell_angle_gamma    90

_symmetry_Int_Tables_number  12
_chemical_formula_structural  Ce3In3Ru2
_chemical_formula_sum  Ce3In3Ru2
_cell_volume  193.45157810360377
_cell_formula_units_Z  1
loop_
  _symmetry_equiv_pos_site_id
 _symmetry_equiv_pos_as_xyz
 1  'x, y, z'
loop_
 _atom_site_type_symbol
 _atom_site_label
 _atom_site_symmetry_multiplicity
 _atom_site_fract_x
 _atom_site_fract_y
 _atom_site_fract_z
 _atom_site_fract_occupancy
 Ce  Ce1  1  0.82806  0.42197  0.65612  1
 Ce  Ce2  1  0.17194  0.57803  0.34388  1
 Ce  Ce3  1  0.00000  0.00000  0.00000  1
 In  In1  1  0.36943  0.95086  0.73886  1
 In  In2  1  0.50000  0.50000  -0.00000  1
 In  In3  1  0.63057  0.04914  0.26114  1
 Ru  Ru1  1  0.78969  0.86999  0.57938  1
 Ru  Ru2  1  0.21031  0.13001  0.42062  1
