CIF file written using JARVIS-Tools package.
data_RbNbGe3O9
_symmetry_space_group_name_H-M  'P-6c2'
_cell_length_a       7.12437
_cell_length_b       7.12438
_cell_length_c       10.3508
_cell_angle_alpha    90
_cell_angle_beta     90
_cell_angle_gamma    120

_symmetry_Int_Tables_number  188
_chemical_formula_structural  RbNbGe3O9
_chemical_formula_sum  Rb2Nb2Ge6O8
_cell_volume  454.98806676353104
_cell_formula_units_Z  2
loop_
  _symmetry_equiv_pos_site_id
 _symmetry_equiv_pos_as_xyz
 1  'x, y, z'
loop_
 _atom_site_type_symbol
 _atom_site_label
 _atom_site_symmetry_multiplicity
 _atom_site_fract_x
 _atom_site_fract_y
 _atom_site_fract_z
 _atom_site_fract_occupancy
 Ge  Ge1  1  0.07385  0.28925  0.25000  1
 Ge  Ge2  1  0.07385  0.78460  0.75000  1
 Ge  Ge3  1  0.71075  0.92615  0.75000  1
 Ge  Ge4  1  0.21540  0.28925  0.75000  1
 Ge  Ge5  1  0.21540  0.92615  0.25000  1
 Ge  Ge6  1  0.71075  0.78460  0.25000  1
 Nb  Nb1  1  0.33333  0.66667  0.00000  1
 Nb  Nb2  1  0.33333  0.66667  0.50000  1
 O  O1  1  0.26673  0.06776  0.75000  1
 O  O2  1  0.93224  0.19897  0.75000  1
 O  O3  1  0.09806  0.43905  0.38983  1
 O  O4  1  0.09806  0.65900  0.88983  1
 O  O5  1  0.93224  0.73327  0.25000  1
 O  O6  1  0.09806  0.43905  0.11017  1
 O  O7  1  0.26673  0.19897  0.25000  1
 O  O8  1  0.80103  0.06776  0.25000  1
 O  O9  1  0.80103  0.73327  0.75000  1
 O  O10  1  0.56095  0.90194  0.61017  1
 O  O11  1  0.34100  0.90194  0.11017  1
 O  O12  1  0.56095  0.90194  0.88983  1
 O  O13  1  0.34100  0.43905  0.88983  1
 O  O14  1  0.34100  0.90194  0.38983  1
 O  O15  1  0.34100  0.43905  0.61017  1
 O  O16  1  0.09806  0.65900  0.61017  1
 O  O17  1  0.56095  0.65900  0.11017  1
 O  O18  1  0.56095  0.65900  0.38983  1
 Rb  Rb1  1  0.66667  0.33333  0.50000  1
 Rb  Rb2  1  0.66667  0.33333  0.00000  1
