CIF file written using JARVIS-Tools package.
data_Tb6CoTe2
_symmetry_space_group_name_H-M  'P-62m'
_cell_length_a       3.89696
_cell_length_b       8.36899
_cell_length_c       8.36828
_cell_angle_alpha    120.003
_cell_angle_beta     90
_cell_angle_gamma    90

_symmetry_Int_Tables_number  189
_chemical_formula_structural  Tb6CoTe2
_chemical_formula_sum  Tb6CoTe2
_cell_volume  236.34901273960912
_cell_formula_units_Z  1
loop_
  _symmetry_equiv_pos_site_id
 _symmetry_equiv_pos_as_xyz
 1  'x, y, z'
loop_
 _atom_site_type_symbol
 _atom_site_label
 _atom_site_symmetry_multiplicity
 _atom_site_fract_x
 _atom_site_fract_y
 _atom_site_fract_z
 _atom_site_fract_occupancy
 Co  Co1  1  0.50000  0.00013  0.00000  1
 Tb  Tb1  1  0.50000  0.59812  -0.00000  1
 Tb  Tb2  1  0.50000  0.40179  0.40181  1
 Tb  Tb3  1  0.50000  -0.00002  0.59819  1
 Tb  Tb4  1  0.00000  0.23522  0.00000  1
 Tb  Tb5  1  0.00000  0.76477  0.76482  1
 Tb  Tb6  1  0.00000  0.99995  0.23518  1
 Te  Te1  1  0.00000  0.33330  0.66664  1
 Te  Te2  1  0.00000  0.66665  0.33336  1
