CIF file written using JARVIS-Tools package.
data_BaHfNi2
_symmetry_space_group_name_H-M  'P4/mmm'
_cell_length_a       3.33866
_cell_length_b       3.33866
_cell_length_c       7.38529
_cell_angle_alpha    90
_cell_angle_beta     90
_cell_angle_gamma    90

_symmetry_Int_Tables_number  123
_chemical_formula_structural  BaHfNi2
_chemical_formula_sum  BaHfNi2
_cell_volume  82.32140568325418
_cell_formula_units_Z  1
loop_
  _symmetry_equiv_pos_site_id
 _symmetry_equiv_pos_as_xyz
 1  'x, y, z'
loop_
 _atom_site_type_symbol
 _atom_site_label
 _atom_site_symmetry_multiplicity
 _atom_site_fract_x
 _atom_site_fract_y
 _atom_site_fract_z
 _atom_site_fract_occupancy
 Ba  Ba1  1  0.50000  0.50000  0.00000  1
 Hf  Hf1  1  0.50000  0.50000  0.50000  1
 Ni  Ni1  1  0.00000  0.00000  0.67243  1
 Ni  Ni2  1  0.00000  0.00000  0.32757  1
