CIF file written using JARVIS-Tools package.
data_Mn2NiO4
_symmetry_space_group_name_H-M  'Fd-3m'
_cell_length_a       5.83827
_cell_length_b       5.83673
_cell_length_c       5.83843
_cell_angle_alpha    60.0072
_cell_angle_beta     59.9809
_cell_angle_gamma    60.0104

_symmetry_Int_Tables_number  227
_chemical_formula_structural  Mn2NiO4
_chemical_formula_sum  Mn4Ni2O8
_cell_volume  140.67901503959575
_cell_formula_units_Z  2
loop_
  _symmetry_equiv_pos_site_id
 _symmetry_equiv_pos_as_xyz
 1  'x, y, z'
loop_
 _atom_site_type_symbol
 _atom_site_label
 _atom_site_symmetry_multiplicity
 _atom_site_fract_x
 _atom_site_fract_y
 _atom_site_fract_z
 _atom_site_fract_occupancy
 Mn  Mn1  1  0.50001  0.00001  0.50000  1
 Mn  Mn2  1  -0.00001  0.49999  0.50001  1
 Mn  Mn3  1  0.50000  0.50000  -0.00001  1
 Mn  Mn4  1  0.49999  0.50001  0.49999  1
 Ni  Ni1  1  0.12502  0.12500  0.12501  1
 Ni  Ni2  1  0.87500  0.87499  0.87501  1
 O  O1  1  0.73898  0.73913  0.73896  1
 O  O2  1  0.26085  0.26102  0.71707  1
 O  O3  1  0.26104  0.71708  0.26102  1
 O  O4  1  0.71708  0.26106  0.26084  1
 O  O5  1  0.73894  0.28292  0.73897  1
 O  O6  1  0.28292  0.73896  0.73915  1
 O  O7  1  0.26102  0.26085  0.26105  1
 O  O8  1  0.73915  0.73899  0.28292  1
