CIF file written using JARVIS-Tools package.
data_Rb3MgH5
_symmetry_space_group_name_H-M  'I4/mcm'
_cell_length_a       8.27076
_cell_length_b       8.27076
_cell_length_c       8.27076
_cell_angle_alpha    123.397
_cell_angle_beta     123.397
_cell_angle_gamma    84.2113

_symmetry_Int_Tables_number  140
_chemical_formula_structural  Rb3MgH5
_chemical_formula_sum  Rb6Mg2H0
_cell_volume  377.41042570661574
_cell_formula_units_Z  2
loop_
  _symmetry_equiv_pos_site_id
 _symmetry_equiv_pos_as_xyz
 1  'x, y, z'
loop_
 _atom_site_type_symbol
 _atom_site_label
 _atom_site_symmetry_multiplicity
 _atom_site_fract_x
 _atom_site_fract_y
 _atom_site_fract_z
 _atom_site_fract_occupancy
 H  H1  1  0.29020  0.52590  0.50000  1
 H  H2  1  0.50000  0.50000  0.00000  1
 H  H3  1  0.20980  0.70980  0.23570  1
 H  H4  1  0.97410  0.20980  0.50000  1
 H  H5  1  0.47410  0.97410  0.76430  1
 H  H6  1  0.52590  0.02590  0.23570  1
 H  H7  1  0.79020  0.29020  0.76430  1
 H  H8  1  0.02590  0.79020  0.50000  1
 H  H9  1  0.00000  0.00000  0.00000  1
 H  H10  1  0.70980  0.47410  0.50000  1
 Mg  Mg1  1  0.75000  0.25000  0.50000  1
 Mg  Mg2  1  0.25000  0.75000  0.50000  1
 Rb  Rb1  1  0.75000  0.75000  0.00000  1
 Rb  Rb2  1  0.25000  0.25000  0.00000  1
 Rb  Rb3  1  0.32084  0.17916  0.50000  1
 Rb  Rb4  1  0.67916  0.82084  0.50000  1
 Rb  Rb5  1  0.82084  0.32084  0.14168  1
 Rb  Rb6  1  0.17916  0.67916  0.85832  1
