CIF file written using JARVIS-Tools package.
data_Li3TiV2O6
_symmetry_space_group_name_H-M  'C2/m'
_cell_length_a       2.90239
_cell_length_b       5.93778
_cell_length_c       6.62766
_cell_angle_alpha    104.187
_cell_angle_beta     102.649
_cell_angle_gamma    89.9985

_symmetry_Int_Tables_number  12
_chemical_formula_structural  Li3TiV2O6
_chemical_formula_sum  Li3TiV2O6
_cell_volume  107.87463517874392
_cell_formula_units_Z  1
loop_
  _symmetry_equiv_pos_site_id
 _symmetry_equiv_pos_as_xyz
 1  'x, y, z'
loop_
 _atom_site_type_symbol
 _atom_site_label
 _atom_site_symmetry_multiplicity
 _atom_site_fract_x
 _atom_site_fract_y
 _atom_site_fract_z
 _atom_site_fract_occupancy
 Li  Li1  1  0.33135  0.16673  0.66666  1
 Li  Li2  1  0.00006  0.49543  0.00412  1
 Li  Li3  1  0.66261  0.83796  0.32917  1
 O  O1  1  0.49373  0.75351  0.99147  1
 O  O2  1  0.16026  0.09381  0.32450  1
 O  O3  1  0.16892  0.57990  0.34183  1
 O  O4  1  0.82968  0.42510  0.66334  1
 O  O5  1  0.50239  0.23960  0.00879  1
 O  O6  1  0.83298  0.90834  0.66995  1
 Ti  Ti1  1  0.33133  0.66672  0.66666  1
 V  V1  1  0.66567  0.33631  0.33535  1
 V  V2  1  0.99697  0.99709  0.99795  1
