CIF file written using JARVIS-Tools package.
data_Zn8B3H3O14
_symmetry_space_group_name_H-M  'R32'
_cell_length_a       7.57364
_cell_length_b       7.57364
_cell_length_c       7.57364
_cell_angle_alpha    65.6004
_cell_angle_beta     65.6004
_cell_angle_gamma    65.6004

_symmetry_Int_Tables_number  155
_chemical_formula_structural  Zn8B3H3O14
_chemical_formula_sum  Zn8B3H3O4
_cell_volume  344.55158644057656
_cell_formula_units_Z  1
loop_
  _symmetry_equiv_pos_site_id
 _symmetry_equiv_pos_as_xyz
 1  'x, y, z'
loop_
 _atom_site_type_symbol
 _atom_site_label
 _atom_site_symmetry_multiplicity
 _atom_site_fract_x
 _atom_site_fract_y
 _atom_site_fract_z
 _atom_site_fract_occupancy
 B  B1  1  0.79753  0.50000  0.20247  1
 B  B2  1  0.20247  0.79753  0.50000  1
 B  B3  1  0.50000  0.20247  0.79753  1
 H  H1  1  -0.00000  0.13716  0.86284  1
 H  H2  1  0.86284  0.00000  0.13716  1
 H  H3  1  0.13716  0.86284  0.00000  1
 O  O1  1  0.96726  0.50000  0.03274  1
 O  O2  1  0.81805  0.45835  0.38970  1
 O  O3  1  0.18195  0.61030  0.54165  1
 O  O4  1  0.25500  0.74500  -0.00000  1
 O  O5  1  0.54165  0.18195  0.61030  1
 O  O6  1  0.03274  0.96726  0.50000  1
 O  O7  1  0.38970  0.81805  0.45835  1
 O  O8  1  0.45835  0.38970  0.81805  1
 O  O9  1  -0.00000  0.25500  0.74500  1
 O  O10  1  0.70430  0.70430  0.70430  1
 O  O11  1  0.50000  0.03274  0.96726  1
 O  O12  1  0.61030  0.54165  0.18195  1
 O  O13  1  0.29570  0.29570  0.29570  1
 O  O14  1  0.74500  0.00000  0.25500  1
 Zn  Zn1  1  0.04343  0.22962  0.48312  1
 Zn  Zn2  1  0.59260  0.59260  0.59260  1
 Zn  Zn3  1  0.22962  0.48312  0.04343  1
 Zn  Zn4  1  0.95657  0.51688  0.77038  1
 Zn  Zn5  1  0.48312  0.04343  0.22962  1
 Zn  Zn6  1  0.77038  0.95657  0.51688  1
 Zn  Zn7  1  0.51688  0.77038  0.95657  1
 Zn  Zn8  1  0.40740  0.40740  0.40740  1
