CIF file written using JARVIS-Tools package.
data_LiYF4
_symmetry_space_group_name_H-M  'I4_1/a'
_cell_length_a       5.17743
_cell_length_b       5.17767
_cell_length_c       6.52335
_cell_angle_alpha    113.376
_cell_angle_beta     113.379
_cell_angle_gamma    90.0009

_symmetry_Int_Tables_number  88
_chemical_formula_structural  LiYF4
_chemical_formula_sum  Li2Y2F8
_cell_volume  144.74307397261404
_cell_formula_units_Z  2
loop_
  _symmetry_equiv_pos_site_id
 _symmetry_equiv_pos_as_xyz
 1  'x, y, z'
loop_
 _atom_site_type_symbol
 _atom_site_label
 _atom_site_symmetry_multiplicity
 _atom_site_fract_x
 _atom_site_fract_y
 _atom_site_fract_z
 _atom_site_fract_occupancy
 F  F1  1  0.67617  0.54258  0.91175  1
 F  F2  1  0.36919  0.17617  0.41175  1
 F  F3  1  0.76443  0.13082  0.08825  1
 F  F4  1  0.95741  0.26441  0.58823  1
 F  F5  1  0.63081  0.82383  0.58825  1
 F  F6  1  0.32383  0.45742  0.08825  1
 F  F7  1  0.23557  0.86918  0.91175  1
 F  F8  1  0.04259  0.73559  0.41177  1
 Li  Li1  1  0.12500  0.37503  0.25002  1
 Li  Li2  1  0.87500  0.62497  0.74998  1
 Y  Y1  1  0.37501  0.12501  0.75000  1
 Y  Y2  1  0.62499  0.87499  0.25000  1
