CIF file written using JARVIS-Tools package.
data_Os2O3F7
_symmetry_space_group_name_H-M  'P2_1/c'
_cell_length_a       5.3919
_cell_length_b       9.89199
_cell_length_c       12.1898
_cell_angle_alpha    90
_cell_angle_beta     98.9392
_cell_angle_gamma    90

_symmetry_Int_Tables_number  14
_chemical_formula_structural  Os2O3F7
_chemical_formula_sum  Os8O2F28
_cell_volume  642.2633693757268
_cell_formula_units_Z  4
loop_
  _symmetry_equiv_pos_site_id
 _symmetry_equiv_pos_as_xyz
 1  'x, y, z'
loop_
 _atom_site_type_symbol
 _atom_site_label
 _atom_site_symmetry_multiplicity
 _atom_site_fract_x
 _atom_site_fract_y
 _atom_site_fract_z
 _atom_site_fract_occupancy
 F  F1  1  0.09509  0.83170  0.64051  1
 F  F2  1  0.71909  0.17450  0.55281  1
 F  F3  1  0.02075  0.56353  0.73094  1
 F  F4  1  0.02075  0.93647  0.23094  1
 F  F5  1  0.20044  0.90946  0.05221  1
 F  F6  1  0.79956  0.09054  0.94779  1
 F  F7  1  0.90665  0.66110  0.35423  1
 F  F8  1  0.09335  0.33890  0.64577  1
 F  F9  1  0.09335  0.16110  0.14577  1
 F  F10  1  0.28091  0.82550  0.44719  1
 F  F11  1  0.90491  0.33170  0.85949  1
 F  F12  1  0.28513  0.17188  0.95068  1
 F  F13  1  0.90665  0.83890  0.85423  1
 F  F14  1  0.28091  0.67450  0.94719  1
 F  F15  1  0.09509  0.66830  0.14051  1
 F  F16  1  0.19375  0.40399  0.05404  1
 F  F17  1  0.97925  0.06353  0.76906  1
 F  F18  1  0.80625  0.90399  0.44596  1
 F  F19  1  0.71487  0.82812  0.04932  1
 F  F20  1  0.90491  0.16830  0.35949  1
 F  F21  1  0.80625  0.59601  0.94596  1
 F  F22  1  0.28513  0.32812  0.45068  1
 F  F23  1  0.20044  0.59054  0.55221  1
 F  F24  1  0.97925  0.43647  0.26906  1
 F  F25  1  0.71487  0.67188  0.54932  1
 F  F26  1  0.19375  0.09601  0.55404  1
 F  F27  1  0.79956  0.40946  0.44779  1
 F  F28  1  0.71909  0.32550  0.05281  1
 O  O1  1  0.59429  0.57797  0.15562  1
 O  O2  1  0.50048  0.83989  0.25172  1
 O  O3  1  0.49952  0.16011  0.74828  1
 O  O4  1  0.40571  0.07797  0.34438  1
 O  O5  1  0.40571  0.42203  0.84438  1
 O  O6  1  0.45269  0.57220  0.35661  1
 O  O7  1  0.54731  0.07220  0.14339  1
 O  O8  1  0.49952  0.33989  0.24828  1
 O  O9  1  0.59429  0.92203  0.65562  1
 O  O10  1  0.54731  0.42780  0.64339  1
 O  O11  1  0.50048  0.66011  0.75172  1
 O  O12  1  0.45269  0.92780  0.85661  1
 Os  Os1  1  0.35440  0.50836  0.72156  1
 Os  Os2  1  0.35440  0.99164  0.22156  1
 Os  Os3  1  0.64560  0.00836  0.77844  1
 Os  Os4  1  0.99653  0.75253  0.50003  1
 Os  Os5  1  0.64560  0.49164  0.27844  1
 Os  Os6  1  0.00347  0.25253  -0.00003  1
 Os  Os7  1  0.00347  0.24747  0.49997  1
 Os  Os8  1  0.99653  0.74747  0.00003  1
