CIF file written using JARVIS-Tools package.
data_NaSbO3
_symmetry_space_group_name_H-M  'Pnna'
_cell_length_a       5.41589
_cell_length_b       5.46047
_cell_length_c       8.59911
_cell_angle_alpha    90
_cell_angle_beta     90
_cell_angle_gamma    90

_symmetry_Int_Tables_number  52
_chemical_formula_structural  NaSbO3
_chemical_formula_sum  Na4Sb4O2
_cell_volume  254.30410694366688
_cell_formula_units_Z  4
loop_
  _symmetry_equiv_pos_site_id
 _symmetry_equiv_pos_as_xyz
 1  'x, y, z'
loop_
 _atom_site_type_symbol
 _atom_site_label
 _atom_site_symmetry_multiplicity
 _atom_site_fract_x
 _atom_site_fract_y
 _atom_site_fract_z
 _atom_site_fract_occupancy
 Na  Na1  1  0.75000  0.00000  0.18279  1
 Na  Na2  1  0.25000  0.00000  0.81721  1
 Na  Na3  1  0.25000  0.50000  0.68279  1
 Na  Na4  1  0.75000  0.50000  0.31721  1
 O  O1  1  0.56785  0.18442  0.42172  1
 O  O2  1  0.93215  0.81558  0.42172  1
 O  O3  1  0.61469  0.25000  0.75000  1
 O  O4  1  0.11469  0.25000  0.25000  1
 O  O5  1  0.06785  0.18442  0.57828  1
 O  O6  1  0.06785  0.31558  0.92172  1
 O  O7  1  0.93215  0.68442  0.07828  1
 O  O8  1  0.88531  0.75000  0.75000  1
 O  O9  1  0.56785  0.31558  0.07828  1
 O  O10  1  0.38531  0.75000  0.25000  1
 O  O11  1  0.43215  0.68442  0.92172  1
 O  O12  1  0.43215  0.81558  0.57828  1
 Sb  Sb1  1  0.75000  0.50000  0.90371  1
 Sb  Sb2  1  0.25000  0.50000  0.09629  1
 Sb  Sb3  1  0.75000  0.00000  0.59629  1
 Sb  Sb4  1  0.25000  0.00000  0.40371  1
