CIF file written using JARVIS-Tools package.
data_HoMn2Si2
_symmetry_space_group_name_H-M  'I4/mmm'
_cell_length_a       3.88685
_cell_length_b       3.88684
_cell_length_c       5.84253
_cell_angle_alpha    109.429
_cell_angle_beta     109.429
_cell_angle_gamma    90

_symmetry_Int_Tables_number  139
_chemical_formula_structural  HoMn2Si2
_chemical_formula_sum  HoMn2Si2
_cell_volume  77.89023718202098
_cell_formula_units_Z  1
loop_
  _symmetry_equiv_pos_site_id
 _symmetry_equiv_pos_as_xyz
 1  'x, y, z'
loop_
 _atom_site_type_symbol
 _atom_site_label
 _atom_site_symmetry_multiplicity
 _atom_site_fract_x
 _atom_site_fract_y
 _atom_site_fract_z
 _atom_site_fract_occupancy
 Ho  Ho1  1  0.00000  0.00000  0.00000  1
 Mn  Mn1  1  0.25000  0.75000  0.50000  1
 Mn  Mn2  1  0.75000  0.25000  0.50000  1
 Si  Si1  1  0.62010  0.62010  0.24019  1
 Si  Si2  1  0.37990  0.37990  0.75981  1
