CIF file written using JARVIS-Tools package.
data_LiFeF3
_symmetry_space_group_name_H-M  'P2_1'
_cell_length_a       2.88705
_cell_length_b       4.94591
_cell_length_c       7.65644
_cell_angle_alpha    90.0006
_cell_angle_beta     100.871
_cell_angle_gamma    90.0034

_symmetry_Int_Tables_number  4
_chemical_formula_structural  LiFeF3
_chemical_formula_sum  Li2Fe2F6
_cell_volume  107.36492463107844
_cell_formula_units_Z  2
loop_
  _symmetry_equiv_pos_site_id
 _symmetry_equiv_pos_as_xyz
 1  'x, y, z'
loop_
 _atom_site_type_symbol
 _atom_site_label
 _atom_site_symmetry_multiplicity
 _atom_site_fract_x
 _atom_site_fract_y
 _atom_site_fract_z
 _atom_site_fract_occupancy
 F  F1  1  0.72883  0.72647  0.95061  1
 F  F2  1  0.27813  0.22647  0.04906  1
 F  F3  1  0.95148  0.25213  0.39480  1
 F  F4  1  0.05555  0.75213  0.60488  1
 F  F5  1  0.60505  0.20768  0.70298  1
 F  F6  1  0.40200  0.70769  0.29668  1
 Fe  Fe1  1  0.83620  0.47725  0.16513  1
 Fe  Fe2  1  0.17080  0.97726  0.83454  1
 Li  Li1  1  0.48148  0.00497  0.45432  1
 Li  Li2  1  0.52548  0.50498  0.54533  1
