CIF file written using JARVIS-Tools package.
data_LiBH15C5NO3
_symmetry_space_group_name_H-M  'P2_1/c'
_cell_length_a       9.21944
_cell_length_b       9.6152
_cell_length_c       9.98854
_cell_angle_alpha    90
_cell_angle_beta     107.332
_cell_angle_gamma    90

_symmetry_Int_Tables_number  14
_chemical_formula_structural  LiBH15C5NO3
_chemical_formula_sum  Li4B4H60C20N4O2
_cell_volume  845.2457640455386
_cell_formula_units_Z  4
loop_
  _symmetry_equiv_pos_site_id
 _symmetry_equiv_pos_as_xyz
 1  'x, y, z'
loop_
 _atom_site_type_symbol
 _atom_site_label
 _atom_site_symmetry_multiplicity
 _atom_site_fract_x
 _atom_site_fract_y
 _atom_site_fract_z
 _atom_site_fract_occupancy
 B  B1  1  0.40830  0.33742  0.22197  1
 B  B2  1  0.09170  0.83742  0.77803  1
 B  B3  1  0.90830  0.16258  0.22197  1
 B  B4  1  0.59170  0.66258  0.77803  1
 C  C1  1  0.62837  0.87714  0.28267  1
 C  C2  1  0.08115  0.27185  0.43787  1
 C  C3  1  0.58115  0.22815  0.43787  1
 C  C4  1  0.16208  0.06557  0.34823  1
 C  C5  1  0.00434  0.78506  0.11532  1
 C  C6  1  0.87163  0.37714  0.71733  1
 C  C7  1  0.09442  0.44015  0.89184  1
 C  C8  1  0.83792  0.93443  0.65177  1
 C  C9  1  0.33792  0.56557  0.65177  1
 C  C10  1  0.50434  0.71494  0.11532  1
 C  C11  1  0.99566  0.21494  0.88468  1
 C  C12  1  0.37163  0.12286  0.71733  1
 C  C13  1  0.40558  0.94015  0.10816  1
 C  C14  1  0.66208  0.43443  0.34823  1
 C  C15  1  0.91885  0.72815  0.56213  1
 C  C16  1  0.90558  0.55985  0.10816  1
 C  C17  1  0.41885  0.77185  0.56213  1
 C  C18  1  0.59442  0.05985  0.89184  1
 C  C19  1  0.49566  0.28506  0.88468  1
 C  C20  1  0.12837  0.62286  0.28267  1
 H  H1  1  0.83798  0.99120  0.74684  1
 H  H2  1  0.93458  0.81925  0.18186  1
 H  H3  1  0.51400  0.13227  0.41079  1
 H  H4  1  0.40529  0.41353  0.12246  1
 H  H5  1  0.06542  0.18075  0.81814  1
 H  H6  1  0.56017  0.84462  0.35136  1
 H  H7  1  0.35203  0.02452  0.03760  1
 H  H8  1  0.21910  0.58841  0.59249  1
 H  H9  1  0.16049  0.89793  0.70391  1
 H  H10  1  0.71910  0.91159  0.59249  1
 H  H11  1  0.43983  0.15538  0.64864  1
 H  H12  1  0.66049  0.60207  0.70391  1
 H  H13  1  0.65964  0.77204  0.82161  1
 H  H14  1  0.66202  0.49120  0.25316  1
 H  H15  1  0.33719  0.90590  0.17557  1
 H  H16  1  0.16281  0.40590  0.82443  1
 H  H17  1  0.80080  0.69926  0.50516  1
 H  H18  1  0.90529  0.08647  0.12246  1
 H  H19  1  0.88556  0.00464  0.58680  1
 H  H20  1  0.11444  -0.00464  0.41320  1
 H  H21  1  0.09471  0.91353  0.87754  1
 H  H22  1  0.97635  0.13190  0.95189  1
 H  H23  1  0.46561  0.71050  0.48979  1
 H  H24  1  0.69920  0.19926  0.49484  1
 H  H25  1  0.38556  0.49536  0.58680  1
 H  H26  1  0.15964  0.72796  0.82161  1
 H  H27  1  0.48600  0.86773  0.58921  1
 H  H28  1  0.25981  0.08358  0.65843  1
 H  H29  1  0.96561  0.78950  0.48979  1
 H  H30  1  0.33798  0.50880  0.74684  1
 H  H31  1  0.83719  0.59410  0.17557  1
 H  H32  1  0.14797  0.52452  0.96240  1
 H  H33  1  0.19920  0.30074  0.49484  1
 H  H34  1  0.02365  0.86810  0.04811  1
 H  H35  1  0.03439  0.21050  0.51021  1
 H  H36  1  0.47635  0.36810  0.95189  1
 H  H37  1  0.34036  0.22796  0.17839  1
 H  H38  1  0.83951  0.10207  0.29609  1
 H  H39  1  0.84036  0.27204  0.17839  1
 H  H40  1  0.59471  0.58647  0.87754  1
 H  H41  1  0.85203  0.47548  0.03760  1
 H  H42  1  0.93983  0.34462  0.64864  1
 H  H43  1  0.33951  0.39793  0.29609  1
 H  H44  1  0.75981  0.41642  0.65843  1
 H  H45  1  0.24019  0.58358  0.34157  1
 H  H46  1  0.66281  0.09410  0.82443  1
 H  H47  1  0.06017  0.65538  0.35136  1
 H  H48  1  0.28090  0.08841  0.40751  1
 H  H49  1  0.53439  0.28950  0.51021  1
 H  H50  1  0.98600  0.63227  0.58921  1
 H  H51  1  0.61444  0.50464  0.41320  1
 H  H52  1  0.64797  0.97548  0.96240  1
 H  H53  1  0.30080  0.80074  0.50516  1
 H  H54  1  0.56542  0.31925  0.81814  1
 H  H55  1  0.16202  0.00880  0.25316  1
 H  H56  1  0.01400  0.36773  0.41079  1
 H  H57  1  0.52365  0.63190  0.04811  1
 H  H58  1  0.78090  0.41159  0.40751  1
 H  H59  1  0.43458  0.68075  0.18186  1
 H  H60  1  0.74019  0.91642  0.34157  1
 Li  Li1  1  0.85245  0.67727  0.81527  1
 Li  Li2  1  0.35245  0.82273  0.81527  1
 Li  Li3  1  0.14755  0.32273  0.18473  1
 Li  Li4  1  0.64755  0.17727  0.18473  1
 N  N1  1  0.57346  0.30648  0.31027  1
 N  N2  1  0.07346  0.19352  0.31027  1
 N  N3  1  0.92654  0.80648  0.68973  1
 N  N4  1  0.42654  0.69352  0.68973  1
 O  O1  1  0.35101  0.23703  0.80001  1
 O  O2  1  0.85101  0.26297  0.80001  1
 O  O3  1  0.42711  0.82505  0.02516  1
 O  O4  1  0.94927  0.48825  0.80606  1
 O  O5  1  0.07289  0.32505  0.97484  1
 O  O6  1  0.64899  0.76297  0.19999  1
 O  O7  1  0.57289  0.17495  0.97484  1
 O  O8  1  0.92711  0.67495  0.02516  1
 O  O9  1  0.44927  0.01175  0.80606  1
 O  O10  1  0.14899  0.73703  0.19999  1
 O  O11  1  0.55073  0.98825  0.19394  1
 O  O12  1  0.05073  0.51175  0.19394  1
