CIF file written using JARVIS-Tools package.
data_SbI3
_symmetry_space_group_name_H-M  'P2_1/c'
_cell_length_a       7.34343
_cell_length_b       8.62487
_cell_length_c       10.9814
_cell_angle_alpha    90
_cell_angle_beta     90
_cell_angle_gamma    109.362

_symmetry_Int_Tables_number  14
_chemical_formula_structural  SbI3
_chemical_formula_sum  Sb4I2
_cell_volume  656.1825700837528
_cell_formula_units_Z  4
loop_
  _symmetry_equiv_pos_site_id
 _symmetry_equiv_pos_as_xyz
 1  'x, y, z'
loop_
 _atom_site_type_symbol
 _atom_site_label
 _atom_site_symmetry_multiplicity
 _atom_site_fract_x
 _atom_site_fract_y
 _atom_site_fract_z
 _atom_site_fract_occupancy
 I  I1  1  0.22597  0.69926  0.44215  1
 I  I2  1  0.34014  0.45859  0.74205  1
 I  I3  1  0.34014  0.95859  0.75795  1
 I  I4  1  0.77778  0.32529  0.90709  1
 I  I5  1  0.22222  0.67471  0.09291  1
 I  I6  1  0.77778  0.82529  0.59291  1
 I  I7  1  0.77403  0.30074  0.55785  1
 I  I8  1  0.22597  0.19926  0.05785  1
 I  I9  1  0.77403  0.80074  0.94215  1
 I  I10  1  0.22222  0.17471  0.40709  1
 I  I11  1  0.65986  0.04141  0.24205  1
 I  I12  1  0.65986  0.54141  0.25795  1
 Sb  Sb1  1  0.04054  0.66706  0.67385  1
 Sb  Sb2  1  0.04054  0.16706  0.82615  1
 Sb  Sb3  1  0.95946  0.83294  0.17385  1
 Sb  Sb4  1  0.95946  0.33294  0.32615  1
