CIF file written using JARVIS-Tools package.
data_B4Rh5
_symmetry_space_group_name_H-M  'P6_3/mmc'
_cell_length_a       3.33126
_cell_length_b       3.33126
_cell_length_c       20.5976
_cell_angle_alpha    90
_cell_angle_beta     90
_cell_angle_gamma    120

_symmetry_Int_Tables_number  194
_chemical_formula_structural  B4Rh5
_chemical_formula_sum  B8Rh0
_cell_volume  197.9535849584548
_cell_formula_units_Z  2
loop_
  _symmetry_equiv_pos_site_id
 _symmetry_equiv_pos_as_xyz
 1  'x, y, z'
loop_
 _atom_site_type_symbol
 _atom_site_label
 _atom_site_symmetry_multiplicity
 _atom_site_fract_x
 _atom_site_fract_y
 _atom_site_fract_z
 _atom_site_fract_occupancy
 B  B1  1  0.66667  0.33333  0.08562  1
 B  B2  1  0.33333  0.66667  0.58562  1
 B  B3  1  0.33333  0.66667  0.91438  1
 B  B4  1  0.66667  0.33333  0.41438  1
 B  B5  1  0.66667  0.33333  0.19631  1
 B  B6  1  0.33333  0.66667  0.69631  1
 B  B7  1  0.33333  0.66667  0.80369  1
 B  B8  1  0.66667  0.33333  0.30369  1
 Rh  Rh1  1  0.33333  0.66667  0.25000  1
 Rh  Rh2  1  0.66667  0.33333  0.54732  1
 Rh  Rh3  1  0.66667  0.33333  0.95268  1
 Rh  Rh4  1  0.33333  0.66667  0.04732  1
 Rh  Rh5  1  0.00000  0.00000  0.35236  1
 Rh  Rh6  1  0.00000  0.00000  0.64764  1
 Rh  Rh7  1  0.00000  0.00000  0.85236  1
 Rh  Rh8  1  0.33333  0.66667  0.45268  1
 Rh  Rh9  1  0.00000  0.00000  0.14764  1
 Rh  Rh10  1  0.66667  0.33333  0.75000  1
