CIF file written using JARVIS-Tools package.
data_KFeO2
_symmetry_space_group_name_H-M  'C2/m'
_cell_length_a       6.43466
_cell_length_b       6.43465
_cell_length_c       7.5527
_cell_angle_alpha    57.3779
_cell_angle_beta     122.622
_cell_angle_gamma    151.048

_symmetry_Int_Tables_number  12
_chemical_formula_structural  KFeO2
_chemical_formula_sum  K2Fe2O4
_cell_volume  125.74607568272681
_cell_formula_units_Z  2
loop_
  _symmetry_equiv_pos_site_id
 _symmetry_equiv_pos_as_xyz
 1  'x, y, z'
loop_
 _atom_site_type_symbol
 _atom_site_label
 _atom_site_symmetry_multiplicity
 _atom_site_fract_x
 _atom_site_fract_y
 _atom_site_fract_z
 _atom_site_fract_occupancy
 Fe  Fe1  1  0.05363  0.94637  0.21031  1
 Fe  Fe2  1  0.94637  0.05363  0.78969  1
 K  K1  1  0.17860  0.82140  0.72725  1
 K  K2  1  0.82140  0.17860  0.27275  1
 O  O1  1  0.12103  0.87897  0.03714  1
 O  O2  1  0.41610  0.58390  0.63159  1
 O  O3  1  0.58390  0.41610  0.36841  1
 O  O4  1  0.87897  0.12103  0.96286  1
