CIF file written using JARVIS-Tools package.
data_TeAuI
_symmetry_space_group_name_H-M  'P2_1/c'
_cell_length_a       7.41385
_cell_length_b       7.73595
_cell_length_c       7.24644
_cell_angle_alpha    90
_cell_angle_beta     105.666
_cell_angle_gamma    90

_symmetry_Int_Tables_number  14
_chemical_formula_structural  TeAuI
_chemical_formula_sum  Te4Au4I4
_cell_volume  400.1665770912358
_cell_formula_units_Z  4
loop_
  _symmetry_equiv_pos_site_id
 _symmetry_equiv_pos_as_xyz
 1  'x, y, z'
loop_
 _atom_site_type_symbol
 _atom_site_label
 _atom_site_symmetry_multiplicity
 _atom_site_fract_x
 _atom_site_fract_y
 _atom_site_fract_z
 _atom_site_fract_occupancy
 Au  Au1  1  0.23030  0.86383  0.46844  1
 Au  Au2  1  0.26970  0.36383  0.53156  1
 Au  Au3  1  0.76970  0.13617  0.53156  1
 Au  Au4  1  0.73030  0.63617  0.46844  1
 I  I1  1  0.38940  0.91076  0.17437  1
 I  I2  1  0.11060  0.41076  0.82563  1
 I  I3  1  0.61060  0.08924  0.82563  1
 I  I4  1  0.88940  0.58924  0.17437  1
 Te  Te1  1  -0.01441  0.86219  0.68130  1
 Te  Te2  1  0.51441  0.36219  0.31870  1
 Te  Te3  1  0.01441  0.13781  0.31870  1
 Te  Te4  1  0.48559  0.63781  0.68130  1
