CIF file written using JARVIS-Tools package.
data_Fe3P2H8O12
_symmetry_space_group_name_H-M  'P2_1/c'
_cell_length_a       10.5861
_cell_length_b       4.70226
_cell_length_c       9.12227
_cell_angle_alpha    90
_cell_angle_beta     102.005
_cell_angle_gamma    90

_symmetry_Int_Tables_number  14
_chemical_formula_structural  Fe3P2H8O12
_chemical_formula_sum  Fe6P4H6O24
_cell_volume  444.16158660362163
_cell_formula_units_Z  2
loop_
  _symmetry_equiv_pos_site_id
 _symmetry_equiv_pos_as_xyz
 1  'x, y, z'
loop_
 _atom_site_type_symbol
 _atom_site_label
 _atom_site_symmetry_multiplicity
 _atom_site_fract_x
 _atom_site_fract_y
 _atom_site_fract_z
 _atom_site_fract_occupancy
 Fe  Fe1  1  0.50000  0.50000  0.00000  1
 Fe  Fe2  1  0.00000  0.00000  0.00000  1
 Fe  Fe3  1  0.66893  0.42901  0.32661  1
 Fe  Fe4  1  0.83107  0.92901  0.67339  1
 Fe  Fe5  1  0.33107  0.57099  0.67339  1
 Fe  Fe6  1  0.16893  0.07099  0.32661  1
 H  H1  1  0.26116  0.22086  0.08852  1
 H  H2  1  0.85710  0.55662  0.94289  1
 H  H3  1  0.35710  0.94338  0.94289  1
 H  H4  1  0.14290  0.44338  0.05711  1
 H  H5  1  0.76116  0.27914  0.08852  1
 H  H6  1  0.73884  0.77914  0.91148  1
 H  H7  1  0.23884  0.72086  0.91148  1
 H  H8  1  0.09245  0.79233  0.55499  1
 H  H9  1  0.82500  0.93517  0.38505  1
 H  H10  1  0.64290  0.05662  0.05711  1
 H  H11  1  0.32500  0.56483  0.38505  1
 H  H12  1  0.90755  0.20767  0.44501  1
 H  H13  1  0.59245  0.70767  0.55499  1
 H  H14  1  0.40755  0.29233  0.44501  1
 H  H15  1  0.67500  0.43517  0.61495  1
 H  H16  1  0.17500  0.06483  0.61495  1
 O  O1  1  0.40556  0.15886  0.09442  1
 O  O2  1  0.67295  0.14309  0.71330  1
 O  O3  1  0.82705  0.64309  0.28670  1
 O  O4  1  0.09444  0.65886  0.90558  1
 O  O5  1  0.59444  0.84114  0.90558  1
 O  O6  1  0.03223  0.78210  0.20108  1
 O  O7  1  0.32705  0.85691  0.28670  1
 O  O8  1  0.46777  0.28210  0.79892  1
 O  O9  1  0.96777  0.21790  0.79892  1
 O  O10  1  0.53223  0.71790  0.20108  1
 O  O11  1  0.17473  0.89219  0.54838  1
 O  O12  1  0.90556  0.34114  0.09442  1
 O  O13  1  0.83122  0.74779  0.89872  1
 O  O14  1  0.53167  0.15491  0.36407  1
 O  O15  1  0.82527  0.10781  0.45162  1
 O  O16  1  0.33122  0.75221  0.89872  1
 O  O17  1  0.16878  0.25221  0.10128  1
 O  O18  1  0.66878  0.24779  0.10128  1
 O  O19  1  0.03167  0.34509  0.36407  1
 O  O20  1  0.46833  0.84509  0.63593  1
 O  O21  1  0.96833  0.65491  0.63593  1
 O  O22  1  0.17295  0.35691  0.71330  1
 O  O23  1  0.67473  0.60781  0.54838  1
 O  O24  1  0.32527  0.39219  0.45162  1
 P  P1  1  0.44997  0.97127  0.23864  1
 P  P2  1  0.05003  0.47127  0.76136  1
 P  P3  1  0.94997  0.52873  0.23864  1
 P  P4  1  0.55003  0.02873  0.76136  1
