CIF file written using JARVIS-Tools package.
data_OsN
_symmetry_space_group_name_H-M  'Cmc2_1'
_cell_length_a       2.77796
_cell_length_b       4.84749
_cell_length_c       6.50203
_cell_angle_alpha    90
_cell_angle_beta     102.335
_cell_angle_gamma    90

_symmetry_Int_Tables_number  36
_chemical_formula_structural  OsN
_chemical_formula_sum  Os4N4
_cell_volume  85.53600942179476
_cell_formula_units_Z  4
loop_
  _symmetry_equiv_pos_site_id
 _symmetry_equiv_pos_as_xyz
 1  'x, y, z'
loop_
 _atom_site_type_symbol
 _atom_site_label
 _atom_site_symmetry_multiplicity
 _atom_site_fract_x
 _atom_site_fract_y
 _atom_site_fract_z
 _atom_site_fract_occupancy
 N  N1  1  0.86155  0.50417  0.72309  1
 N  N2  1  0.13845  0.00417  0.27691  1
 N  N3  1  0.77085  0.67293  0.54170  1
 N  N4  1  0.22915  0.17293  0.45830  1
 Os  Os1  1  0.46302  0.67567  0.92603  1
 Os  Os2  1  0.53698  0.17567  0.07397  1
 Os  Os3  1  0.15467  0.57724  0.30934  1
 Os  Os4  1  0.84533  0.07724  0.69066  1
