CIF file written using JARVIS-Tools package.
data_Tb2Au
_symmetry_space_group_name_H-M  'Pnma'
_cell_length_a       4.93656
_cell_length_b       7.05733
_cell_length_c       8.97475
_cell_angle_alpha    90
_cell_angle_beta     90
_cell_angle_gamma    90

_symmetry_Int_Tables_number  62
_chemical_formula_structural  Tb2Au
_chemical_formula_sum  Tb8Au4
_cell_volume  312.6711203237571
_cell_formula_units_Z  4
loop_
  _symmetry_equiv_pos_site_id
 _symmetry_equiv_pos_as_xyz
 1  'x, y, z'
loop_
 _atom_site_type_symbol
 _atom_site_label
 _atom_site_symmetry_multiplicity
 _atom_site_fract_x
 _atom_site_fract_y
 _atom_site_fract_z
 _atom_site_fract_occupancy
 Au  Au1  1  0.25000  0.25894  0.09761  1
 Au  Au2  1  0.75000  0.24106  0.59761  1
 Au  Au3  1  0.75000  0.74106  0.90239  1
 Au  Au4  1  0.25000  0.75894  0.40239  1
 Tb  Tb1  1  0.25000  0.84760  0.08227  1
 Tb  Tb2  1  0.75000  0.65240  0.58227  1
 Tb  Tb3  1  0.75000  0.15240  0.91773  1
 Tb  Tb4  1  0.25000  0.34760  0.41773  1
 Tb  Tb5  1  0.25000  0.48979  0.82282  1
 Tb  Tb6  1  0.75000  0.01021  0.32282  1
 Tb  Tb7  1  0.75000  0.51021  0.17718  1
 Tb  Tb8  1  0.25000  0.98979  0.67718  1
