CIF file written using JARVIS-Tools package.
data_Mg2ZnAs2
_symmetry_space_group_name_H-M  'C2/m'
_cell_length_a       4.38052
_cell_length_b       4.66414
_cell_length_c       7.28457
_cell_angle_alpha    90
_cell_angle_beta     73.556
_cell_angle_gamma    122.166

_symmetry_Int_Tables_number  12
_chemical_formula_structural  Mg2ZnAs2
_chemical_formula_sum  Mg2ZnAs2
_cell_volume  118.7359729019218
_cell_formula_units_Z  1
loop_
  _symmetry_equiv_pos_site_id
 _symmetry_equiv_pos_as_xyz
 1  'x, y, z'
loop_
 _atom_site_type_symbol
 _atom_site_label
 _atom_site_symmetry_multiplicity
 _atom_site_fract_x
 _atom_site_fract_y
 _atom_site_fract_z
 _atom_site_fract_occupancy
 As  As1  1  0.58281  0.29141  0.73558  1
 As  As2  1  0.41719  0.70859  0.26442  1
 Mg  Mg1  1  0.66773  0.33386  0.34377  1
 Mg  Mg2  1  0.33227  0.66614  0.65623  1
 Zn  Zn1  1  0.00000  0.00000  0.00000  1
