CIF file written using JARVIS-Tools package.
data_MnTl2GeTe4
_symmetry_space_group_name_H-M  'I-42m'
_cell_length_a       6.96352
_cell_length_b       6.96352
_cell_length_c       6.96352
_cell_angle_alpha    104.444
_cell_angle_beta     104.444
_cell_angle_gamma    120.076

_symmetry_Int_Tables_number  121
_chemical_formula_structural  MnTl2GeTe4
_chemical_formula_sum  MnTl2GeTe4
_cell_volume  253.1526062379343
_cell_formula_units_Z  1
loop_
  _symmetry_equiv_pos_site_id
 _symmetry_equiv_pos_as_xyz
 1  'x, y, z'
loop_
 _atom_site_type_symbol
 _atom_site_label
 _atom_site_symmetry_multiplicity
 _atom_site_fract_x
 _atom_site_fract_y
 _atom_site_fract_z
 _atom_site_fract_occupancy
 Ge  Ge1  1  0.00000  0.00000  0.00000  1
 Mn  Mn1  1  0.50000  0.50000  -0.00000  1
 Te  Te1  1  0.41186  0.41186  0.34331  1
 Te  Te2  1  0.06856  0.06856  0.65669  1
 Te  Te3  1  0.58814  0.93144  -0.00000  1
 Te  Te4  1  0.93144  0.58814  -0.00000  1
 Tl  Tl1  1  -0.00000  0.50000  0.50000  1
 Tl  Tl2  1  0.50000  -0.00000  0.50000  1
