CIF file written using JARVIS-Tools package.
data_Ag13OsO6
_symmetry_space_group_name_H-M  'Fm-3c'
_cell_length_a       9.40064
_cell_length_b       9.40064
_cell_length_c       9.40064
_cell_angle_alpha    60
_cell_angle_beta     60
_cell_angle_gamma    60

_symmetry_Int_Tables_number  226
_chemical_formula_structural  Ag13OsO6
_chemical_formula_sum  Ag26Os2O2
_cell_volume  587.4312376607171
_cell_formula_units_Z  2
loop_
  _symmetry_equiv_pos_site_id
 _symmetry_equiv_pos_as_xyz
 1  'x, y, z'
loop_
 _atom_site_type_symbol
 _atom_site_label
 _atom_site_symmetry_multiplicity
 _atom_site_fract_x
 _atom_site_fract_y
 _atom_site_fract_z
 _atom_site_fract_occupancy
 Ag  Ag1  1  0.79236  0.56414  0.43586  1
 Ag  Ag2  1  0.06414  0.70764  0.29236  1
 Ag  Ag3  1  0.20764  0.43586  0.56414  1
 Ag  Ag4  1  0.93586  0.29236  0.70764  1
 Ag  Ag5  1  0.00000  0.00000  0.00000  1
 Ag  Ag6  1  0.50000  0.50000  0.50000  1
 Ag  Ag7  1  0.29236  0.93586  0.06414  1
 Ag  Ag8  1  0.79236  0.20764  0.56414  1
 Ag  Ag9  1  0.56414  0.79236  0.20764  1
 Ag  Ag10  1  0.43586  0.20764  0.79236  1
 Ag  Ag11  1  0.43586  0.79236  0.56414  1
 Ag  Ag12  1  0.79236  0.43586  0.20764  1
 Ag  Ag13  1  0.06414  0.29236  0.93586  1
 Ag  Ag14  1  0.56414  0.43586  0.79236  1
 Ag  Ag15  1  0.70764  0.29236  0.06414  1
 Ag  Ag16  1  0.93586  0.06414  0.29236  1
 Ag  Ag17  1  0.43586  0.56414  0.20764  1
 Ag  Ag18  1  0.56414  0.20764  0.43586  1
 Ag  Ag19  1  0.20764  0.56414  0.79236  1
 Ag  Ag20  1  0.70764  0.06414  0.93586  1
 Ag  Ag21  1  0.20764  0.79236  0.43586  1
 Ag  Ag22  1  0.29236  0.06414  0.70764  1
 Ag  Ag23  1  0.06414  0.93586  0.70764  1
 Ag  Ag24  1  0.70764  0.93586  0.29236  1
 Ag  Ag25  1  0.93586  0.70764  0.06414  1
 Ag  Ag26  1  0.29236  0.70764  0.93586  1
 O  O1  1  0.60541  0.89459  0.60541  1
 O  O2  1  0.10541  0.39459  0.39459  1
 O  O3  1  0.89459  0.89459  0.60541  1
 O  O4  1  0.60541  0.60541  0.89459  1
 O  O5  1  0.60541  0.89459  0.89459  1
 O  O6  1  0.10541  0.39459  0.10541  1
 O  O7  1  0.89459  0.60541  0.60541  1
 O  O8  1  0.10541  0.10541  0.39459  1
 O  O9  1  0.39459  0.39459  0.10541  1
 O  O10  1  0.39459  0.10541  0.10541  1
 O  O11  1  0.89459  0.60541  0.89459  1
 O  O12  1  0.39459  0.10541  0.39459  1
 Os  Os1  1  0.75000  0.75000  0.75000  1
 Os  Os2  1  0.25000  0.25000  0.25000  1
