CIF file written using JARVIS-Tools package.
data_Li7FeO4F2
_symmetry_space_group_name_H-M  'P1'
_cell_length_a       5.38748
_cell_length_b       5.87814
_cell_length_c       10.017
_cell_angle_alpha    70.1738
_cell_angle_beta     102.823
_cell_angle_gamma    116.772

_symmetry_Int_Tables_number  1
_chemical_formula_structural  Li7FeO4F2
_chemical_formula_sum  Li4Fe2O8F4
_cell_volume  265.52603435592897
_cell_formula_units_Z  2
loop_
  _symmetry_equiv_pos_site_id
 _symmetry_equiv_pos_as_xyz
 1  'x, y, z'
loop_
 _atom_site_type_symbol
 _atom_site_label
 _atom_site_symmetry_multiplicity
 _atom_site_fract_x
 _atom_site_fract_y
 _atom_site_fract_z
 _atom_site_fract_occupancy
 F  F1  1  0.67294  0.89097  0.76990  1
 F  F2  1  0.18874  0.05349  0.61883  1
 F  F3  1  0.79916  0.21258  0.06391  1
 F  F4  1  0.74733  0.47070  0.71084  1
 Fe  Fe1  1  0.48850  0.54026  0.44401  1
 Fe  Fe2  1  0.06853  -0.02485  0.03187  1
 Li  Li1  1  0.50544  0.39078  0.24484  1
 Li  Li2  1  0.58682  0.15773  0.64381  1
 Li  Li3  1  0.98206  0.45810  0.88061  1
 Li  Li4  1  0.07644  0.02207  0.78365  1
 Li  Li5  1  0.52769  0.34784  0.02911  1
 Li  Li6  1  0.02819  0.12149  0.25036  1
 Li  Li7  1  0.44851  0.55720  0.72138  1
 Li  Li8  1  0.01648  0.72432  0.57416  1
 Li  Li9  1  0.48612  -0.01670  0.40221  1
 Li  Li10  1  0.00754  0.63977  0.34693  1
 Li  Li11  1  0.96655  0.19674  0.46806  1
 Li  Li12  1  0.50122  0.77982  0.93351  1
 Li  Li13  1  0.52425  0.85649  0.17611  1
 Li  Li14  1  0.00202  0.52147  0.11813  1
 O  O1  1  0.78532  0.87569  0.38312  1
 O  O2  1  0.21378  0.46253  0.28772  1
 O  O3  1  0.22372  0.30375  0.88784  1
 O  O4  1  0.17347  0.77624  0.95694  1
 O  O5  1  0.66883  0.31752  0.44433  1
 O  O6  1  0.30501  0.05230  0.19880  1
 O  O7  1  0.72394  0.67487  0.10136  1
 O  O8  1  0.28141  0.63684  0.52766  1
