CIF file written using JARVIS-Tools package.
data_TlMo6O17
_symmetry_space_group_name_H-M  'P-3m1'
_cell_length_a       5.56399
_cell_length_b       5.56399
_cell_length_c       13.984
_cell_angle_alpha    90
_cell_angle_beta     90
_cell_angle_gamma    120

_symmetry_Int_Tables_number  164
_chemical_formula_structural  TlMo6O17
_chemical_formula_sum  TlMo6O7
_cell_volume  374.9176446471367
_cell_formula_units_Z  1
loop_
  _symmetry_equiv_pos_site_id
 _symmetry_equiv_pos_as_xyz
 1  'x, y, z'
loop_
 _atom_site_type_symbol
 _atom_site_label
 _atom_site_symmetry_multiplicity
 _atom_site_fract_x
 _atom_site_fract_y
 _atom_site_fract_z
 _atom_site_fract_occupancy
 Mo  Mo1  1  0.66667  0.33333  0.63832  1
 Mo  Mo2  1  0.33333  0.66667  0.36168  1
 Mo  Mo3  1  0.66667  0.33333  0.06992  1
 Mo  Mo4  1  0.00000  0.00000  0.21538  1
 Mo  Mo5  1  0.00000  0.00000  0.78462  1
 Mo  Mo6  1  0.33333  0.66667  0.93008  1
 O  O1  1  0.32759  0.16379  0.15459  1
 O  O2  1  1.00000  0.50000  0.00000  1
 O  O3  1  0.50000  0.00000  0.00000  1
 O  O4  1  0.66667  0.33333  0.51398  1
 O  O5  1  0.33333  0.66667  0.48602  1
 O  O6  1  0.83621  0.16379  0.15459  1
 O  O7  1  0.83621  0.67241  0.15459  1
 O  O8  1  0.15879  0.84121  0.31952  1
 O  O9  1  0.84121  0.68243  0.68048  1
 O  O10  1  0.68243  0.84121  0.31952  1
 O  O11  1  0.50000  0.50000  0.00000  1
 O  O12  1  0.31757  0.15879  0.68048  1
 O  O13  1  0.16379  0.83621  0.84541  1
 O  O14  1  0.16379  0.32759  0.84541  1
 O  O15  1  0.67241  0.83621  0.84541  1
 O  O16  1  0.84121  0.15879  0.68048  1
 O  O17  1  0.15879  0.31757  0.31952  1
 Tl  Tl1  1  0.00000  0.00000  0.50000  1
