CIF file written using JARVIS-Tools package.
data_SnSO4
_symmetry_space_group_name_H-M  'Pnma'
_cell_length_a       5.44741
_cell_length_b       7.03998
_cell_length_c       8.54723
_cell_angle_alpha    90
_cell_angle_beta     90.0384
_cell_angle_gamma    90

_symmetry_Int_Tables_number  62
_chemical_formula_structural  SnSO4
_chemical_formula_sum  Sn4S4O6
_cell_volume  327.7836152888132
_cell_formula_units_Z  4
loop_
  _symmetry_equiv_pos_site_id
 _symmetry_equiv_pos_as_xyz
 1  'x, y, z'
loop_
 _atom_site_type_symbol
 _atom_site_label
 _atom_site_symmetry_multiplicity
 _atom_site_fract_x
 _atom_site_fract_y
 _atom_site_fract_z
 _atom_site_fract_occupancy
 O  O1  1  0.24959  0.58922  0.91396  1
 O  O2  1  0.52521  0.29779  0.41055  1
 O  O3  1  0.52521  0.20221  0.91055  1
 O  O4  1  -0.02556  0.20204  0.91033  1
 O  O5  1  0.25033  0.96740  0.70041  1
 O  O6  1  0.47479  0.70221  0.58945  1
 O  O7  1  0.74967  0.03260  0.29959  1
 O  O8  1  0.02556  0.79796  0.08967  1
 O  O9  1  0.74967  0.46740  0.79959  1
 O  O10  1  -0.02556  0.29796  0.41033  1
 O  O11  1  0.25033  0.53260  0.20041  1
 O  O12  1  0.47479  0.79779  0.08945  1
 O  O13  1  0.75041  0.41078  0.08604  1
 O  O14  1  0.75041  0.08922  0.58604  1
 O  O15  1  0.02556  0.70204  0.58967  1
 O  O16  1  0.24959  0.91078  0.41396  1
 S  S1  1  0.25007  0.67558  0.07039  1
 S  S2  1  0.25007  0.82442  0.57039  1
 S  S3  1  0.74993  0.32442  0.92961  1
 S  S4  1  0.74993  0.17558  0.42961  1
 Sn  Sn1  1  0.75024  0.69725  0.28425  1
 Sn  Sn2  1  0.24976  0.30275  0.71575  1
 Sn  Sn3  1  0.75024  0.80275  0.78425  1
 Sn  Sn4  1  0.24976  0.19725  0.21575  1
