CIF file written using JARVIS-Tools package.
data_MnAsRu
_symmetry_space_group_name_H-M  'P-62m'
_cell_length_a       3.88376
_cell_length_b       5.98247
_cell_length_c       5.98243
_cell_angle_alpha    120
_cell_angle_beta     90
_cell_angle_gamma    90

_symmetry_Int_Tables_number  189
_chemical_formula_structural  MnAsRu
_chemical_formula_sum  Mn3As3Ru3
_cell_volume  120.37603016300352
_cell_formula_units_Z  3
loop_
  _symmetry_equiv_pos_site_id
 _symmetry_equiv_pos_as_xyz
 1  'x, y, z'
loop_
 _atom_site_type_symbol
 _atom_site_label
 _atom_site_symmetry_multiplicity
 _atom_site_fract_x
 _atom_site_fract_y
 _atom_site_fract_z
 _atom_site_fract_occupancy
 As  As1  1  0.00000  0.33332  0.66668  1
 As  As2  1  0.00000  0.66664  0.33332  1
 As  As3  1  0.50000  0.00001  -0.00000  1
 Mn  Mn1  1  0.00000  0.24736  -0.00000  1
 Mn  Mn2  1  0.00000  0.75259  0.75261  1
 Mn  Mn3  1  0.00000  0.99998  0.24739  1
 Ru  Ru1  1  0.50000  0.59190  -0.00000  1
 Ru  Ru2  1  0.50000  0.40813  0.40816  1
 Ru  Ru3  1  0.50000  -0.00003  0.59184  1
