CIF file written using JARVIS-Tools package.
data_KSiSbO5
_symmetry_space_group_name_H-M  'Pna2_1'
_cell_length_a       6.52298
_cell_length_b       10.7466
_cell_length_c       13.1231
_cell_angle_alpha    90
_cell_angle_beta     90
_cell_angle_gamma    90

_symmetry_Int_Tables_number  33
_chemical_formula_structural  KSiSbO5
_chemical_formula_sum  K8Si8Sb8O40
_cell_volume  919.9253837773562
_cell_formula_units_Z  8
loop_
  _symmetry_equiv_pos_site_id
 _symmetry_equiv_pos_as_xyz
 1  'x, y, z'
loop_
 _atom_site_type_symbol
 _atom_site_label
 _atom_site_symmetry_multiplicity
 _atom_site_fract_x
 _atom_site_fract_y
 _atom_site_fract_z
 _atom_site_fract_occupancy
 K  K1  1  0.80407  0.06214  0.60741  1
 K  K2  1  0.30407  0.56214  0.89259  1
 K  K3  1  0.69593  0.06214  0.10741  1
 K  K4  1  0.77427  0.30792  0.38207  1
 K  K5  1  0.27427  0.80792  0.11793  1
 K  K6  1  0.72573  0.30792  0.88207  1
 K  K7  1  0.22573  0.80792  0.61793  1
 K  K8  1  0.19593  0.56214  0.39259  1
 O  O1  1  0.95720  0.61723  0.76152  1
 O  O2  1  0.04280  0.11723  0.23848  1
 O  O3  1  0.45791  0.38620  0.26071  1
 O  O4  1  0.54209  0.88620  0.73929  1
 O  O5  1  0.04209  0.38620  0.76071  1
 O  O6  1  0.51755  0.63190  0.72568  1
 O  O7  1  0.98245  0.63190  0.22568  1
 O  O8  1  0.01755  0.13190  0.77432  1
 O  O9  1  0.03354  0.37742  0.00751  1
 O  O10  1  0.48245  0.13190  0.27432  1
 O  O11  1  0.95791  0.88620  0.23929  1
 O  O12  1  0.45720  0.11723  0.73848  1
 O  O13  1  0.69871  0.47352  0.10602  1
 O  O14  1  0.80129  0.47352  0.60602  1
 O  O15  1  0.30129  0.97352  0.89398  1
 O  O16  1  0.03043  0.37482  0.22752  1
 O  O17  1  0.80692  0.03319  0.39180  1
 O  O18  1  0.19308  0.53319  0.60820  1
 O  O19  1  0.69308  0.03319  0.89180  1
 O  O20  1  0.30692  0.53319  0.10820  1
 O  O21  1  0.48768  0.13486  0.48823  1
 O  O22  1  0.51232  0.63486  0.51177  1
 O  O23  1  0.01232  0.13486  0.98823  1
 O  O24  1  0.98768  0.63486  0.01177  1
 O  O25  1  0.46646  0.37742  0.50751  1
 O  O26  1  0.54280  0.61723  0.26152  1
 O  O27  1  0.96957  0.87482  0.77248  1
 O  O28  1  0.18132  0.26652  0.39757  1
 O  O29  1  0.53354  0.87742  0.49249  1
 O  O30  1  0.46957  0.37482  0.72752  1
 O  O31  1  0.19871  0.97352  0.39398  1
 O  O32  1  0.32556  0.23230  0.09836  1
 O  O33  1  0.82556  0.73230  0.40164  1
 O  O34  1  0.17444  0.23230  0.59836  1
 O  O35  1  0.96646  0.87742  0.99249  1
 O  O36  1  0.31868  0.26652  0.89757  1
 O  O37  1  0.81868  0.76652  0.60243  1
 O  O38  1  0.67444  0.73230  0.90164  1
 O  O39  1  0.68132  0.76652  0.10243  1
 O  O40  1  0.53043  0.87482  0.27248  1
 Sb  Sb1  1  0.75374  0.74960  0.25289  1
 Sb  Sb2  1  0.24626  0.24960  0.74711  1
 Sb  Sb3  1  0.50081  0.00133  0.38183  1
 Sb  Sb4  1  0.00081  0.50133  0.11817  1
 Sb  Sb5  1  -0.00081  0.00133  0.88183  1
 Sb  Sb6  1  0.49919  0.50133  0.61817  1
 Sb  Sb7  1  0.74626  0.74960  0.75289  1
 Sb  Sb8  1  0.25374  0.24960  0.24711  1
 Si  Si1  1  0.99591  0.50134  0.68136  1
 Si  Si2  1  0.49591  0.00134  0.81864  1
 Si  Si3  1  0.50409  0.50134  0.18136  1
 Si  Si4  1  0.17518  0.25072  -0.00051  1
 Si  Si5  1  0.67518  0.75072  0.50051  1
 Si  Si6  1  0.32482  0.25072  0.49949  1
 Si  Si7  1  0.82482  0.75072  0.00051  1
 Si  Si8  1  0.00409  0.00134  0.31864  1
