CIF file written using JARVIS-Tools package.
data_LiNiP2S6
_symmetry_space_group_name_H-M  'C2'
_cell_length_a       5.84813
_cell_length_b       5.87977
_cell_length_c       6.64013
_cell_angle_alpha    81.9405
_cell_angle_beta     73.6252
_cell_angle_gamma    60.1778

_symmetry_Int_Tables_number  5
_chemical_formula_structural  LiNiP2S6
_chemical_formula_sum  LiNiP2S6
_cell_volume  190.05437708706972
_cell_formula_units_Z  1
loop_
  _symmetry_equiv_pos_site_id
 _symmetry_equiv_pos_as_xyz
 1  'x, y, z'
loop_
 _atom_site_type_symbol
 _atom_site_label
 _atom_site_symmetry_multiplicity
 _atom_site_fract_x
 _atom_site_fract_y
 _atom_site_fract_z
 _atom_site_fract_occupancy
 Li  Li1  1  0.66681  0.66638  -0.00000  1
 Ni  Ni1  1  0.33476  0.33049  0.00000  1
 P  P1  1  0.05857  0.99863  0.82852  1
 P  P2  1  0.94280  0.99863  0.17148  1
 S  S1  1  0.40729  0.64960  0.75117  1
 S  S2  1  0.10598  0.32737  0.75944  1
 S  S3  1  0.56665  0.32737  0.24056  1
 S  S4  1  0.94310  0.64960  0.24883  1
 S  S5  1  0.24469  0.02596  0.24755  1
 S  S6  1  0.72935  0.02596  0.75245  1
