CIF file written using JARVIS-Tools package.
data_SrMg6Fe
_symmetry_space_group_name_H-M  'Amm2'
_cell_length_a       7.32592
_cell_length_b       6.10055
_cell_length_c       4.91178
_cell_angle_alpha    90
_cell_angle_beta     90
_cell_angle_gamma    114.606

_symmetry_Int_Tables_number  38
_chemical_formula_structural  SrMg6Fe
_chemical_formula_sum  SrMg6Fe
_cell_volume  199.58525398799188
_cell_formula_units_Z  1
loop_
  _symmetry_equiv_pos_site_id
 _symmetry_equiv_pos_as_xyz
 1  'x, y, z'
loop_
 _atom_site_type_symbol
 _atom_site_label
 _atom_site_symmetry_multiplicity
 _atom_site_fract_x
 _atom_site_fract_y
 _atom_site_fract_z
 _atom_site_fract_occupancy
 Fe  Fe1  1  0.28148  0.39074  0.25000  1
 Mg  Mg1  1  0.61897  0.30239  0.25000  1
 Mg  Mg2  1  0.61897  0.81657  0.25000  1
 Mg  Mg3  1  0.34730  0.18421  0.75000  1
 Mg  Mg4  1  0.34730  0.66309  0.75000  1
 Mg  Mg5  1  0.92718  0.21359  0.75000  1
 Mg  Mg6  1  0.75857  0.62929  0.75000  1
 Sr  Sr1  1  0.10023  0.80012  0.25000  1
