CIF file written using JARVIS-Tools package.
data_Nb5Ge3
_symmetry_space_group_name_H-M  'C2/c'
_cell_length_a       5.40648
_cell_length_b       8.16496
_cell_length_c       8.16497
_cell_angle_alpha    79.4536
_cell_angle_beta     61.387
_cell_angle_gamma    61.387

_symmetry_Int_Tables_number  15
_chemical_formula_structural  Nb5Ge3
_chemical_formula_sum  Nb0Ge6
_cell_volume  277.2695408602185
_cell_formula_units_Z  2
loop_
  _symmetry_equiv_pos_site_id
 _symmetry_equiv_pos_as_xyz
 1  'x, y, z'
loop_
 _atom_site_type_symbol
 _atom_site_label
 _atom_site_symmetry_multiplicity
 _atom_site_fract_x
 _atom_site_fract_y
 _atom_site_fract_z
 _atom_site_fract_occupancy
 Ge  Ge1  1  0.59262  0.15404  0.44659  1
 Ge  Ge2  1  0.40738  0.84596  0.55341  1
 Ge  Ge3  1  0.09262  0.44659  0.15404  1
 Ge  Ge4  1  0.90738  0.55341  0.84596  1
 Ge  Ge5  1  0.25000  0.00015  0.99985  1
 Ge  Ge6  1  0.75000  0.99985  0.00015  1
 Nb  Nb1  1  0.96533  0.79908  0.25860  1
 Nb  Nb2  1  0.32354  0.66266  0.87445  1
 Nb  Nb3  1  0.03467  0.20092  0.74140  1
 Nb  Nb4  1  0.53467  0.74140  0.20092  1
 Nb  Nb5  1  0.50000  0.50000  0.50000  1
 Nb  Nb6  1  0.82354  0.87445  0.66266  1
 Nb  Nb7  1  0.17646  0.12555  0.33734  1
 Nb  Nb8  1  0.67646  0.33734  0.12555  1
 Nb  Nb9  1  0.46533  0.25860  0.79908  1
 Nb  Nb10  1  -0.00000  0.50000  0.50000  1
