data_image0
_chemical_formula_structural       Pt8V
_chemical_formula_sum              "Pt8 V1"
_cell_length_a       3.90918
_cell_length_b       6.22044
_cell_length_c       6.22044
_cell_angle_alpha    95.6663
_cell_angle_beta     71.6862
_cell_angle_gamma    108.314

_space_group_name_H-M_alt    "P 1"
_space_group_IT_number       1

loop_
  _space_group_symop_operation_xyz
  'x, y, z'

loop_
  _atom_site_type_symbol
  _atom_site_label
  _atom_site_symmetry_multiplicity
  _atom_site_fract_x
  _atom_site_fract_y
  _atom_site_fract_z
  _atom_site_occupancy
  Pt  Pt1       1.0  0.66100  0.32200  0.00000  1.0000
  Pt  Pt2       1.0  0.33900  0.67800  0.00000  1.0000
  Pt  Pt3       1.0  0.33900  0.00000  0.32200  1.0000
  Pt  Pt4       1.0  0.67200  0.67200  0.32800  1.0000
  Pt  Pt5       1.0  0.00000  0.32800  0.32800  1.0000
  Pt  Pt6       1.0  0.32800  0.32800  0.67200  1.0000
  Pt  Pt7       1.0  0.00000  0.67200  0.67200  1.0000
  Pt  Pt8       1.0  0.66100  0.00000  0.67800  1.0000
  V   V1        1.0  0.00000  0.00000  0.00000  1.0000
