CIF file written using JARVIS-Tools package.
data_BiF5
_symmetry_space_group_name_H-M  'I4/m'
_cell_length_a       4.35196
_cell_length_b       5.04691
_cell_length_c       5.04691
_cell_angle_alpha    79.2868
_cell_angle_beta     64.4593
_cell_angle_gamma    64.4593

_symmetry_Int_Tables_number  87
_chemical_formula_structural  BiF5
_chemical_formula_sum  BiF5
_cell_volume  90.24384891793244
_cell_formula_units_Z  1
loop_
  _symmetry_equiv_pos_site_id
 _symmetry_equiv_pos_as_xyz
 1  'x, y, z'
loop_
 _atom_site_type_symbol
 _atom_site_label
 _atom_site_symmetry_multiplicity
 _atom_site_fract_x
 _atom_site_fract_y
 _atom_site_fract_z
 _atom_site_fract_occupancy
 Bi  Bi1  1  0.00000  0.00000  0.00000  1
 F  F1  1  0.70244  0.19632  0.39880  1
 F  F2  1  0.50000  0.00000  -0.00000  1
 F  F3  1  0.29756  0.80368  0.60120  1
 F  F4  1  0.89876  0.39880  0.80368  1
 F  F5  1  0.10124  0.60120  0.19632  1
