CIF file written using JARVIS-Tools package.
data_Tl6Si2O7
_symmetry_space_group_name_H-M  'P-3'
_cell_length_a       9.69897
_cell_length_b       9.69897
_cell_length_c       8.0225
_cell_angle_alpha    90
_cell_angle_beta     90
_cell_angle_gamma    120

_symmetry_Int_Tables_number  147
_chemical_formula_structural  Tl6Si2O7
_chemical_formula_sum  Tl2Si4O4
_cell_volume  653.5685846815649
_cell_formula_units_Z  2
loop_
  _symmetry_equiv_pos_site_id
 _symmetry_equiv_pos_as_xyz
 1  'x, y, z'
loop_
 _atom_site_type_symbol
 _atom_site_label
 _atom_site_symmetry_multiplicity
 _atom_site_fract_x
 _atom_site_fract_y
 _atom_site_fract_z
 _atom_site_fract_occupancy
 O  O1  1  0.85262  0.45037  0.88795  1
 O  O2  1  0.54963  0.40225  0.88795  1
 O  O3  1  0.59775  0.14738  0.88795  1
 O  O4  1  0.40225  0.85262  0.11205  1
 O  O5  1  0.66667  0.33333  0.62469  1
 O  O6  1  0.33333  0.66667  0.37531  1
 O  O7  1  0.60188  0.14813  0.36114  1
 O  O8  1  0.54624  0.39812  0.36114  1
 O  O9  1  0.85187  0.45376  0.36114  1
 O  O10  1  0.39812  0.85187  0.63886  1
 O  O11  1  0.45376  0.60188  0.63886  1
 O  O12  1  0.14813  0.54624  0.63886  1
 O  O13  1  0.14738  0.54963  0.11205  1
 O  O14  1  0.45037  0.59775  0.11205  1
 Si  Si1  1  0.33333  0.66667  0.16700  1
 Si  Si2  1  0.66667  0.33333  0.41677  1
 Si  Si3  1  0.66667  0.33333  0.83300  1
 Si  Si4  1  0.33333  0.66667  0.58323  1
 Tl  Tl1  1  0.69506  0.04929  0.12076  1
 Tl  Tl2  1  0.03468  0.34788  0.36931  1
 Tl  Tl3  1  0.31320  0.96532  0.36931  1
 Tl  Tl4  1  0.65212  0.68680  0.36931  1
 Tl  Tl5  1  0.96532  0.65212  0.63069  1
 Tl  Tl6  1  0.68680  0.03468  0.63069  1
 Tl  Tl7  1  0.34788  0.31320  0.63069  1
 Tl  Tl8  1  0.04929  0.35424  0.87924  1
 Tl  Tl9  1  0.30494  0.95071  0.87924  1
 Tl  Tl10  1  0.64576  0.69506  0.87924  1
 Tl  Tl11  1  0.95071  0.64576  0.12076  1
 Tl  Tl12  1  0.35424  0.30494  0.12076  1
