CIF file written using JARVIS-Tools package.
data_BiI3
_symmetry_space_group_name_H-M  'Cmcm'
_cell_length_a       4.15524
_cell_length_b       7.25447
_cell_length_c       11.2052
_cell_angle_alpha    90
_cell_angle_beta     90
_cell_angle_gamma    106.647

_symmetry_Int_Tables_number  63
_chemical_formula_structural  BiI3
_chemical_formula_sum  Bi2I6
_cell_volume  323.6152149653077
_cell_formula_units_Z  2
loop_
  _symmetry_equiv_pos_site_id
 _symmetry_equiv_pos_as_xyz
 1  'x, y, z'
loop_
 _atom_site_type_symbol
 _atom_site_label
 _atom_site_symmetry_multiplicity
 _atom_site_fract_x
 _atom_site_fract_y
 _atom_site_fract_z
 _atom_site_fract_occupancy
 Bi  Bi1  1  0.72773  0.95477  0.25000  1
 Bi  Bi2  1  0.27227  0.04523  0.75000  1
 I  I1  1  0.86772  0.23552  0.57351  1
 I  I2  1  0.13228  0.76448  0.07351  1
 I  I3  1  0.13228  0.76448  0.42649  1
 I  I4  1  0.86772  0.23552  0.92649  1
 I  I5  1  0.39765  0.29524  0.25000  1
 I  I6  1  0.60235  0.70476  0.75000  1
