CIF file written using JARVIS-Tools package.
data_TcCl3
_symmetry_space_group_name_H-M  'C2/m'
_cell_length_a       5.69229
_cell_length_b       5.69229
_cell_length_c       6.21979
_cell_angle_alpha    99.5251
_cell_angle_beta     99.5251
_cell_angle_gamma    115.526

_symmetry_Int_Tables_number  12
_chemical_formula_structural  TcCl3
_chemical_formula_sum  Tc2Cl6
_cell_volume  172.89032238296042
_cell_formula_units_Z  2
loop_
  _symmetry_equiv_pos_site_id
 _symmetry_equiv_pos_as_xyz
 1  'x, y, z'
loop_
 _atom_site_type_symbol
 _atom_site_label
 _atom_site_symmetry_multiplicity
 _atom_site_fract_x
 _atom_site_fract_y
 _atom_site_fract_z
 _atom_site_fract_occupancy
 Cl  Cl1  1  0.25023  0.25023  0.27086  1
 Cl  Cl2  1  0.74977  0.74977  0.72914  1
 Cl  Cl3  1  0.56638  0.90508  0.22045  1
 Cl  Cl4  1  0.90508  0.56638  0.22045  1
 Cl  Cl5  1  0.43362  0.09492  0.77955  1
 Cl  Cl6  1  0.09492  0.43362  0.77955  1
 Tc  Tc1  1  0.85839  0.14161  -0.00000  1
 Tc  Tc2  1  0.14161  0.85839  -0.00000  1
