CIF file written using JARVIS-Tools package.
data_PrScGe
_symmetry_space_group_name_H-M  'I4/mmm'
_cell_length_a       4.32453
_cell_length_b       4.32453
_cell_length_c       8.57143
_cell_angle_alpha    104.612
_cell_angle_beta     104.612
_cell_angle_gamma    90.0001

_symmetry_Int_Tables_number  139
_chemical_formula_structural  PrScGe
_chemical_formula_sum  Pr2Sc2Ge2
_cell_volume  149.75117433968288
_cell_formula_units_Z  2
loop_
  _symmetry_equiv_pos_site_id
 _symmetry_equiv_pos_as_xyz
 1  'x, y, z'
loop_
 _atom_site_type_symbol
 _atom_site_label
 _atom_site_symmetry_multiplicity
 _atom_site_fract_x
 _atom_site_fract_y
 _atom_site_fract_z
 _atom_site_fract_occupancy
 Ge  Ge1  1  0.12197  0.12197  0.24393  1
 Ge  Ge2  1  0.87803  0.87803  0.75607  1
 Pr  Pr1  1  0.67655  0.67655  0.35311  1
 Pr  Pr2  1  0.32345  0.32345  0.64689  1
 Sc  Sc1  1  -0.00000  0.50000  -0.00000  1
 Sc  Sc2  1  0.50000  0.00000  -0.00000  1
