CIF file written using JARVIS-Tools package.
data_ScBrO
_symmetry_space_group_name_H-M  'Pmmn'
_cell_length_a       3.56293
_cell_length_b       3.96385
_cell_length_c       8.68082
_cell_angle_alpha    90
_cell_angle_beta     90
_cell_angle_gamma    90

_symmetry_Int_Tables_number  59
_chemical_formula_structural  ScBrO
_chemical_formula_sum  Sc2Br2O2
_cell_volume  122.59858840089042
_cell_formula_units_Z  2
loop_
  _symmetry_equiv_pos_site_id
 _symmetry_equiv_pos_as_xyz
 1  'x, y, z'
loop_
 _atom_site_type_symbol
 _atom_site_label
 _atom_site_symmetry_multiplicity
 _atom_site_fract_x
 _atom_site_fract_y
 _atom_site_fract_z
 _atom_site_fract_occupancy
 Br  Br1  1  0.75000  0.75000  0.83471  1
 Br  Br2  1  0.25000  0.25000  0.16529  1
 O  O1  1  0.75000  0.75000  0.46744  1
 O  O2  1  0.25000  0.25000  0.53256  1
 Sc  Sc1  1  0.25000  0.75000  0.60717  1
 Sc  Sc2  1  0.75000  0.25000  0.39283  1
