CIF file written using JARVIS-Tools package.
data_HgPtO2
_symmetry_space_group_name_H-M  'R-3m'
_cell_length_a       3.18837
_cell_length_b       7.79805
_cell_length_c       3.18837
_cell_angle_alpha    101.796
_cell_angle_beta     59.9999
_cell_angle_gamma    101.796

_symmetry_Int_Tables_number  166
_chemical_formula_structural  HgPtO2
_chemical_formula_sum  HgPtO2
_cell_volume  66.7120184327079
_cell_formula_units_Z  1
loop_
  _symmetry_equiv_pos_site_id
 _symmetry_equiv_pos_as_xyz
 1  'x, y, z'
loop_
 _atom_site_type_symbol
 _atom_site_label
 _atom_site_symmetry_multiplicity
 _atom_site_fract_x
 _atom_site_fract_y
 _atom_site_fract_z
 _atom_site_fract_occupancy
 Hg  Hg1  1  0.00000  0.00000  0.00000  1
 O  O1  1  0.12522  0.37565  0.12522  1
 O  O2  1  0.87478  0.62435  0.87478  1
 Pt  Pt1  1  0.50000  0.50000  0.50000  1
