CIF file written using JARVIS-Tools package.
data_Tl2HgGeTe4
_symmetry_space_group_name_H-M  'I-42m'
_cell_length_a       7.00259
_cell_length_b       7.0026
_cell_length_c       7.00259
_cell_angle_alpha    105.331
_cell_angle_beta     105.331
_cell_angle_gamma    118.114

_symmetry_Int_Tables_number  121
_chemical_formula_structural  Tl2HgGeTe4
_chemical_formula_sum  Tl2HgGeTe4
_cell_volume  259.76241646682485
_cell_formula_units_Z  1
loop_
  _symmetry_equiv_pos_site_id
 _symmetry_equiv_pos_as_xyz
 1  'x, y, z'
loop_
 _atom_site_type_symbol
 _atom_site_label
 _atom_site_symmetry_multiplicity
 _atom_site_fract_x
 _atom_site_fract_y
 _atom_site_fract_z
 _atom_site_fract_occupancy
 Ge  Ge1  1  0.00000  0.00000  0.00000  1
 Hg  Hg1  1  0.50000  0.50000  -0.00000  1
 Te  Te1  1  0.95304  0.59930  0.00000  1
 Te  Te2  1  0.40070  0.40070  0.35375  1
 Te  Te3  1  0.04696  0.04696  0.64625  1
 Te  Te4  1  0.59930  0.95304  -0.00000  1
 Tl  Tl1  1  -0.00000  0.50000  0.50000  1
 Tl  Tl2  1  0.50000  -0.00000  0.50000  1
