CIF file written using JARVIS-Tools package.
data_LiTmSn2
_symmetry_space_group_name_H-M  'Cmcm'
_cell_length_a       4.36687
_cell_length_b       4.43514
_cell_length_c       9.73201
_cell_angle_alpha    90
_cell_angle_beta     102.965
_cell_angle_gamma    90

_symmetry_Int_Tables_number  63
_chemical_formula_structural  LiTmSn2
_chemical_formula_sum  Li2Tm2Sn4
_cell_volume  183.6813787780774
_cell_formula_units_Z  2
loop_
  _symmetry_equiv_pos_site_id
 _symmetry_equiv_pos_as_xyz
 1  'x, y, z'
loop_
 _atom_site_type_symbol
 _atom_site_label
 _atom_site_symmetry_multiplicity
 _atom_site_fract_x
 _atom_site_fract_y
 _atom_site_fract_z
 _atom_site_fract_occupancy
 Li  Li1  1  0.67438  0.75000  0.34876  1
 Li  Li2  1  0.32562  0.25000  0.65124  1
 Sn  Sn1  1  0.54629  0.75000  0.09257  1
 Sn  Sn2  1  0.45371  0.25000  0.90743  1
 Sn  Sn3  1  0.25123  0.75000  0.50247  1
 Sn  Sn4  1  0.74877  0.25000  0.49753  1
 Tm  Tm1  1  0.89096  0.75000  0.78191  1
 Tm  Tm2  1  0.10904  0.25000  0.21809  1
