CIF file written using JARVIS-Tools package.
data_Ca2ZrSi4O12
_symmetry_space_group_name_H-M  'P2_1/m'
_cell_length_a       5.3366
_cell_length_b       7.43637
_cell_length_c       13.7608
_cell_angle_alpha    90
_cell_angle_beta     90
_cell_angle_gamma    109.059

_symmetry_Int_Tables_number  11
_chemical_formula_structural  Ca2ZrSi4O12
_chemical_formula_sum  Ca4Zr2Si8O24
_cell_volume  516.1624708290562
_cell_formula_units_Z  2
loop_
  _symmetry_equiv_pos_site_id
 _symmetry_equiv_pos_as_xyz
 1  'x, y, z'
loop_
 _atom_site_type_symbol
 _atom_site_label
 _atom_site_symmetry_multiplicity
 _atom_site_fract_x
 _atom_site_fract_y
 _atom_site_fract_z
 _atom_site_fract_occupancy
 Ca  Ca1  1  -0.00000  0.50000  0.00000  1
 Ca  Ca2  1  0.83784  0.18721  0.25000  1
 Ca  Ca3  1  0.16216  0.81279  0.75000  1
 Ca  Ca4  1  -0.00000  0.50000  0.50000  1
 O  O1  1  0.22000  0.25817  0.06237  1
 O  O2  1  0.21029  0.84307  0.43473  1
 O  O3  1  0.59854  0.40560  0.62716  1
 O  O4  1  0.78000  0.74183  0.93763  1
 O  O5  1  0.63557  0.12957  0.75000  1
 O  O6  1  0.73304  0.38183  0.36662  1
 O  O7  1  0.30783  0.30465  0.25000  1
 O  O8  1  0.69217  0.69535  0.75000  1
 O  O9  1  0.78971  0.15693  0.93473  1
 O  O10  1  0.73778  0.95614  0.37926  1
 O  O11  1  0.40146  0.59440  0.12716  1
 O  O12  1  0.26222  0.04386  0.87926  1
 O  O13  1  0.26696  0.61817  0.86662  1
 O  O14  1  0.21029  0.84307  0.06527  1
 O  O15  1  0.59854  0.40560  0.87284  1
 O  O16  1  0.78000  0.74183  0.56237  1
 O  O17  1  0.26696  0.61817  0.63338  1
 O  O18  1  0.36443  0.87043  0.25000  1
 O  O19  1  0.26222  0.04386  0.62074  1
 O  O20  1  0.73778  0.95614  0.12074  1
 O  O21  1  0.78971  0.15693  0.56527  1
 O  O22  1  0.73304  0.38183  0.13338  1
 O  O23  1  0.40146  0.59440  0.37284  1
 O  O24  1  0.22000  0.25817  0.43763  1
 Si  Si1  1  0.43405  0.82029  0.13840  1
 Si  Si2  1  0.56427  0.61580  0.64003  1
 Si  Si3  1  0.56595  0.17971  0.86160  1
 Si  Si4  1  0.43405  0.82029  0.36160  1
 Si  Si5  1  0.43573  0.38420  0.14003  1
 Si  Si6  1  0.56595  0.17971  0.63840  1
 Si  Si7  1  0.43573  0.38420  0.35997  1
 Si  Si8  1  0.56427  0.61580  0.85997  1
 Zr  Zr1  1  0.00000  0.00000  0.00000  1
 Zr  Zr2  1  0.00000  0.00000  0.50000  1
