CIF file written using JARVIS-Tools package.
data_LiMnBO3
_symmetry_space_group_name_H-M  'Cc'
_cell_length_a       5.19735
_cell_length_b       5.19735
_cell_length_c       10.3486
_cell_angle_alpha    89.1611
_cell_angle_beta     90.8388
_cell_angle_gamma    60.0997

_symmetry_Int_Tables_number  9
_chemical_formula_structural  LiMnBO3
_chemical_formula_sum  Li4Mn4B4O2
_cell_volume  242.22953840099177
_cell_formula_units_Z  4
loop_
  _symmetry_equiv_pos_site_id
 _symmetry_equiv_pos_as_xyz
 1  'x, y, z'
loop_
 _atom_site_type_symbol
 _atom_site_label
 _atom_site_symmetry_multiplicity
 _atom_site_fract_x
 _atom_site_fract_y
 _atom_site_fract_z
 _atom_site_fract_occupancy
 B  B1  1  0.33450  0.00263  0.62400  1
 B  B2  1  0.00168  0.34284  0.87420  1
 B  B3  1  0.99737  0.66550  0.12400  1
 B  B4  1  0.65716  0.99832  0.37420  1
 Li  Li1  1  0.32139  0.65208  0.33317  1
 Li  Li2  1  0.66276  0.34750  0.08330  1
 Li  Li3  1  0.65250  0.33724  0.58330  1
 Li  Li4  1  0.34792  0.67861  0.83317  1
 Mn  Mn1  1  0.67621  0.00704  0.86564  1
 Mn  Mn2  1  0.99296  0.32379  0.36564  1
 Mn  Mn3  1  -0.00063  0.66890  0.61581  1
 Mn  Mn4  1  0.33110  0.00063  0.11581  1
 O  O1  1  0.41609  0.96897  0.33497  1
 O  O2  1  0.72487  0.37131  0.88912  1
 O  O3  1  0.62869  0.27513  0.38912  1
 O  O4  1  0.35860  0.72701  0.63883  1
 O  O5  1  0.27299  0.64140  0.13883  1
 O  O6  1  0.25556  0.06863  0.90227  1
 O  O7  1  0.03103  0.58391  0.83497  1
 O  O8  1  0.06698  0.24875  0.58401  1
 O  O9  1  0.75125  0.93302  0.08401  1
 O  O10  1  0.96577  0.41872  0.15277  1
 O  O11  1  0.58128  0.03423  0.65277  1
 O  O12  1  0.93137  0.74444  0.40227  1
