CIF file written using JARVIS-Tools package.
data_Ba2CuP2O8
_symmetry_space_group_name_H-M  'C2/m'
_cell_length_a       5.17548
_cell_length_b       6.64547
_cell_length_c       6.91389
_cell_angle_alpha    104.389
_cell_angle_beta     90
_cell_angle_gamma    112.917

_symmetry_Int_Tables_number  12
_chemical_formula_structural  Ba2CuP2O8
_chemical_formula_sum  Ba2CuP2O8
_cell_volume  210.90183974050012
_cell_formula_units_Z  1
loop_
  _symmetry_equiv_pos_site_id
 _symmetry_equiv_pos_as_xyz
 1  'x, y, z'
loop_
 _atom_site_type_symbol
 _atom_site_label
 _atom_site_symmetry_multiplicity
 _atom_site_fract_x
 _atom_site_fract_y
 _atom_site_fract_z
 _atom_site_fract_occupancy
 Ba  Ba1  1  0.82673  0.65347  0.78420  1
 Ba  Ba2  1  0.17327  0.34653  0.21580  1
 Cu  Cu1  1  0.50000  -0.00000  0.50000  1
 O  O1  1  0.36716  0.24631  0.56190  1
 O  O2  1  0.12085  0.75369  0.43810  1
 O  O3  1  0.63284  0.75369  0.43810  1
 O  O4  1  0.87915  0.24631  0.56190  1
 O  O5  1  0.74349  0.48697  0.15719  1
 O  O6  1  0.04720  0.09440  0.82404  1
 O  O7  1  0.95280  0.90560  0.17596  1
 O  O8  1  0.25651  0.51303  0.84281  1
 P  P1  1  0.86598  0.73196  0.29787  1
 P  P2  1  0.13402  0.26804  0.70213  1
