CIF file written using JARVIS-Tools package.
data_HoBC
_symmetry_space_group_name_H-M  'Cmmm'
_cell_length_a       8.35763
_cell_length_b       8.35763
_cell_length_c       3.49451
_cell_angle_alpha    90
_cell_angle_beta     90
_cell_angle_gamma    156.715

_symmetry_Int_Tables_number  65
_chemical_formula_structural  HoBC
_chemical_formula_sum  Ho2B2C2
_cell_volume  96.48847640446402
_cell_formula_units_Z  2
loop_
  _symmetry_equiv_pos_site_id
 _symmetry_equiv_pos_as_xyz
 1  'x, y, z'
loop_
 _atom_site_type_symbol
 _atom_site_label
 _atom_site_symmetry_multiplicity
 _atom_site_fract_x
 _atom_site_fract_y
 _atom_site_fract_z
 _atom_site_fract_occupancy
 B  B1  1  0.71929  0.28071  0.50000  1
 B  B2  1  0.28071  0.71929  0.50000  1
 C  C1  1  0.62856  0.37144  0.50000  1
 C  C2  1  0.37144  0.62856  0.50000  1
 Ho  Ho1  1  0.14016  0.85984  0.00000  1
 Ho  Ho2  1  0.85984  0.14016  0.00000  1
