CIF file written using JARVIS-Tools package.
data_LiAuF6
_symmetry_space_group_name_H-M  'R-3'
_cell_length_a       5.40223
_cell_length_b       5.40223
_cell_length_c       5.40223
_cell_angle_alpha    54.5797
_cell_angle_beta     54.5797
_cell_angle_gamma    54.5797

_symmetry_Int_Tables_number  148
_chemical_formula_structural  LiAuF6
_chemical_formula_sum  LiAuF6
_cell_volume  97.39881361251383
_cell_formula_units_Z  1
loop_
  _symmetry_equiv_pos_site_id
 _symmetry_equiv_pos_as_xyz
 1  'x, y, z'
loop_
 _atom_site_type_symbol
 _atom_site_label
 _atom_site_symmetry_multiplicity
 _atom_site_fract_x
 _atom_site_fract_y
 _atom_site_fract_z
 _atom_site_fract_occupancy
 Au  Au1  1  0.00000  0.00000  0.00000  1
 F  F1  1  0.75915  0.39559  0.09114  1
 F  F2  1  0.39559  0.09114  0.75915  1
 F  F3  1  0.09114  0.75915  0.39559  1
 F  F4  1  0.24085  0.60441  0.90886  1
 F  F5  1  0.60441  0.90886  0.24085  1
 F  F6  1  0.90886  0.24085  0.60441  1
 Li  Li1  1  0.50000  0.50000  0.50000  1
