CIF file written using JARVIS-Tools package.
data_Fe4O3F5
_symmetry_space_group_name_H-M  'Amm2'
_cell_length_a       4.80028
_cell_length_b       4.80028
_cell_length_c       5.88246
_cell_angle_alpha    90
_cell_angle_beta     90
_cell_angle_gamma    95.6779

_symmetry_Int_Tables_number  38
_chemical_formula_structural  Fe4O3F5
_chemical_formula_sum  Fe4O3F5
_cell_volume  134.88265461814558
_cell_formula_units_Z  1
loop_
  _symmetry_equiv_pos_site_id
 _symmetry_equiv_pos_as_xyz
 1  'x, y, z'
loop_
 _atom_site_type_symbol
 _atom_site_label
 _atom_site_symmetry_multiplicity
 _atom_site_fract_x
 _atom_site_fract_y
 _atom_site_fract_z
 _atom_site_fract_occupancy
 F  F1  1  0.19811  0.79757  0.25157  1
 F  F2  1  0.19811  0.79757  0.74843  1
 F  F3  1  0.70505  0.70505  0.50000  1
 F  F4  1  0.79757  0.19811  0.74843  1
 F  F5  1  0.79757  0.19811  0.25157  1
 Fe  Fe1  1  0.98970  0.98970  0.00000  1
 Fe  Fe2  1  0.02756  0.02756  0.50000  1
 Fe  Fe3  1  0.49097  0.49097  0.23245  1
 Fe  Fe4  1  0.49097  0.49097  0.76755  1
 O  O1  1  0.28781  0.28781  0.00000  1
 O  O2  1  0.32118  0.32118  0.50000  1
 O  O3  1  0.69538  0.69538  0.00000  1
