CIF file written using JARVIS-Tools package.
data_MnF4
_symmetry_space_group_name_H-M  'I4_1/a'
_cell_length_a       5.85811
_cell_length_b       9.47047
_cell_length_c       9.47058
_cell_angle_alpha    84.5129
_cell_angle_beta     71.9877
_cell_angle_gamma    71.985

_symmetry_Int_Tables_number  88
_chemical_formula_structural  MnF4
_chemical_formula_sum  Mn8F32
_cell_volume  475.17238632360153
_cell_formula_units_Z  8
loop_
  _symmetry_equiv_pos_site_id
 _symmetry_equiv_pos_as_xyz
 1  'x, y, z'
loop_
 _atom_site_type_symbol
 _atom_site_label
 _atom_site_symmetry_multiplicity
 _atom_site_fract_x
 _atom_site_fract_y
 _atom_site_fract_z
 _atom_site_fract_occupancy
 F  F1  1  0.49061  0.86295  0.59257  1
 F  F2  1  0.60589  0.38853  0.35274  1
 F  F3  1  0.39411  0.61147  0.64726  1
 F  F4  1  0.49443  0.35276  0.11145  1
 F  F5  1  0.34715  0.11148  0.14726  1
 F  F6  1  0.85355  0.59257  0.63709  1
 F  F7  1  0.04137  0.85275  0.61146  1
 F  F8  1  0.50557  0.64724  0.88855  1
 F  F9  1  0.74017  0.83685  0.10909  1
 F  F10  1  0.65285  0.88852  0.85274  1
 F  F11  1  0.75261  0.35526  0.59422  1
 F  F12  1  0.70209  0.14473  0.90579  1
 F  F13  1  0.34683  0.90576  0.35525  1
 F  F14  1  0.39216  0.40575  0.85524  1
 F  F15  1  0.24739  0.64474  0.40578  1
 F  F16  1  0.29791  0.85527  0.09421  1
 F  F17  1  0.65317  0.09424  0.64475  1
 F  F18  1  0.60784  0.59425  0.14476  1
 F  F19  1  0.08319  0.90743  0.86294  1
 F  F20  1  0.94611  0.63706  0.90747  1
 F  F21  1  0.05389  0.36294  0.09253  1
 F  F22  1  0.92301  0.89091  0.33680  1
 F  F23  1  0.95863  0.14725  0.38854  1
 F  F24  1  0.25983  0.16315  0.89091  1
 F  F25  1  0.68608  0.66317  0.39094  1
 F  F26  1  0.07699  0.10909  0.66320  1
 F  F27  1  0.15074  0.60909  0.16316  1
 F  F28  1  0.14645  0.40743  0.36291  1
 F  F29  1  0.50939  0.13705  0.40743  1
 F  F30  1  0.91681  0.09257  0.13706  1
 F  F31  1  0.31392  0.33683  0.60906  1
 F  F32  1  0.84926  0.39091  0.83684  1
 Mn  Mn1  1  0.64629  0.74251  0.00067  1
 Mn  Mn2  1  0.64695  0.49934  0.74251  1
 Mn  Mn3  1  0.88880  0.00066  0.75750  1
 Mn  Mn4  1  0.38946  0.75750  0.49935  1
 Mn  Mn5  1  0.35371  0.25749  -0.00067  1
 Mn  Mn6  1  0.35305  0.50066  0.25749  1
 Mn  Mn7  1  0.11120  -0.00066  0.24250  1
 Mn  Mn8  1  0.61054  0.24250  0.50065  1
