CIF file written using JARVIS-Tools package.
data_LiH20C8BrO4
_symmetry_space_group_name_H-M  'C2/c'
_cell_length_a       7.4376
_cell_length_b       7.4376
_cell_length_c       11.9316
_cell_angle_alpha    86.4645
_cell_angle_beta     93.5355
_cell_angle_gamma    116.927

_symmetry_Int_Tables_number  15
_chemical_formula_structural  LiH20C8BrO4
_chemical_formula_sum  Li2H40C6Br2O8
_cell_volume  586.9333566610918
_cell_formula_units_Z  2
loop_
  _symmetry_equiv_pos_site_id
 _symmetry_equiv_pos_as_xyz
 1  'x, y, z'
loop_
 _atom_site_type_symbol
 _atom_site_label
 _atom_site_symmetry_multiplicity
 _atom_site_fract_x
 _atom_site_fract_y
 _atom_site_fract_z
 _atom_site_fract_occupancy
 Br  Br1  1  0.27077  0.27077  0.75000  1
 Br  Br2  1  0.72923  0.72923  0.25000  1
 C  C1  1  0.22395  0.40779  0.06455  1
 C  C2  1  0.92632  0.25209  0.39387  1
 C  C3  1  0.24896  0.78047  0.78428  1
 C  C4  1  0.21953  0.75104  0.28428  1
 C  C5  1  0.75104  0.21953  0.21572  1
 C  C6  1  0.74791  0.07368  0.89387  1
 C  C7  1  0.78047  0.24896  0.71572  1
 C  C8  1  0.25209  0.92632  0.10613  1
 C  C9  1  0.13492  0.30628  0.44369  1
 C  C10  1  0.69372  0.86508  0.94369  1
 C  C11  1  0.07368  0.74791  0.60613  1
 C  C12  1  0.30628  0.13492  0.05631  1
 C  C13  1  0.86508  0.69372  0.55631  1
 C  C14  1  0.59221  0.77605  0.56455  1
 C  C15  1  0.77605  0.59221  0.93545  1
 C  C16  1  0.40779  0.22395  0.43545  1
 H  H1  1  0.76513  0.56960  0.02740  1
 H  H2  1  0.89271  0.55672  0.90656  1
 H  H3  1  0.37007  0.50461  0.10628  1
 H  H4  1  0.62993  0.49539  0.89372  1
 H  H5  1  0.49539  0.62993  0.60628  1
 H  H6  1  0.10729  0.44328  0.09344  1
 H  H7  1  0.44328  0.10729  0.40656  1
 H  H8  1  0.24229  0.45967  0.41492  1
 H  H9  1  0.55672  0.89271  0.59344  1
 H  H10  1  0.45967  0.24229  0.08508  1
 H  H11  1  0.50461  0.37007  0.39372  1
 H  H12  1  0.56960  0.76513  0.47260  1
 H  H13  1  0.29824  0.13553  0.96370  1
 H  H14  1  0.87713  0.36501  0.41539  1
 H  H15  1  0.36501  0.87713  0.08461  1
 H  H16  1  0.18316  0.89876  0.57514  1
 H  H17  1  0.89876  0.18316  0.92486  1
 H  H18  1  0.81684  0.10124  0.42486  1
 H  H19  1  0.10124  0.81684  0.07514  1
 H  H20  1  0.22704  0.78798  0.87362  1
 H  H21  1  0.78798  0.22704  0.62638  1
 H  H22  1  0.77296  0.21202  0.12638  1
 H  H23  1  0.37249  0.92391  0.75569  1
 H  H24  1  0.92391  0.37249  0.74431  1
 H  H25  1  0.62751  0.07609  0.24431  1
 H  H26  1  0.07609  0.62751  0.25569  1
 H  H27  1  0.28237  0.65348  0.77125  1
 H  H28  1  0.65348  0.28237  0.72875  1
 H  H29  1  0.71763  0.34652  0.22875  1
 H  H30  1  0.34652  0.71763  0.27125  1
 H  H31  1  0.63499  0.12287  0.91539  1
 H  H32  1  0.12287  0.63499  0.58461  1
 H  H33  1  0.21202  0.77296  0.37362  1
 H  H34  1  0.43040  0.23487  0.52740  1
 H  H35  1  0.23487  0.43040  0.97260  1
 H  H36  1  0.86447  0.70176  0.46370  1
 H  H37  1  0.70176  0.86447  0.03630  1
 H  H38  1  0.13553  0.29824  0.53630  1
 H  H39  1  0.54033  0.75771  0.91492  1
 H  H40  1  0.75771  0.54033  0.58508  1
 Li  Li1  1  0.93429  0.93429  0.75000  1
 Li  Li2  1  0.06571  0.06571  0.25000  1
 O  O1  1  0.93765  0.25109  0.27405  1
 O  O2  1  0.80156  0.83509  0.59567  1
 O  O3  1  0.83509  0.80156  0.90433  1
 O  O4  1  0.19844  0.16491  0.40433  1
 O  O5  1  0.16491  0.19844  0.09567  1
 O  O6  1  0.06235  0.74891  0.72595  1
 O  O7  1  0.74891  0.06235  0.77405  1
 O  O8  1  0.25109  0.93765  0.22595  1
