CIF file written using JARVIS-Tools package.
data_SiB3
_symmetry_space_group_name_H-M  'Imma'
_cell_length_a       8.1957
_cell_length_b       8.1957
_cell_length_c       8.1957
_cell_angle_alpha    135.387
_cell_angle_beta     118.298
_cell_angle_gamma    79.2853

_symmetry_Int_Tables_number  74
_chemical_formula_structural  SiB3
_chemical_formula_sum  Si8B24
_cell_volume  330.04244558225287
_cell_formula_units_Z  8
loop_
  _symmetry_equiv_pos_site_id
 _symmetry_equiv_pos_as_xyz
 1  'x, y, z'
loop_
 _atom_site_type_symbol
 _atom_site_label
 _atom_site_symmetry_multiplicity
 _atom_site_fract_x
 _atom_site_fract_y
 _atom_site_fract_z
 _atom_site_fract_occupancy
 B  B1  1  0.67321  0.15416  0.83052  1
 B  B2  1  0.72249  0.11477  0.61303  1
 B  B3  1  0.49826  0.88523  0.60772  1
 B  B4  1  0.00174  0.60946  0.38697  1
 B  B5  1  0.22249  0.60946  0.60772  1
 B  B6  1  0.27751  0.88523  0.38697  1
 B  B7  1  0.50174  0.11477  0.39228  1
 B  B8  1  0.99826  0.39054  0.61303  1
 B  B9  1  0.43103  0.70252  0.27149  1
 B  B10  1  0.06897  0.34046  0.27149  1
 B  B11  1  0.93103  0.65954  0.72851  1
 B  B12  1  0.56897  0.29748  0.72851  1
 B  B13  1  0.42602  0.14923  0.72321  1
 B  B14  1  0.07398  0.79719  0.72321  1
 B  B15  1  0.77751  0.39054  0.39228  1
 B  B16  1  0.57398  0.85077  0.27679  1
 B  B17  1  0.82679  0.65731  0.48095  1
 B  B18  1  0.82364  0.34269  0.16948  1
 B  B19  1  0.67636  0.84584  0.51905  1
 B  B20  1  0.32679  0.84584  0.16948  1
 B  B21  1  0.17321  0.34269  0.51905  1
 B  B22  1  0.17636  0.65731  0.83052  1
 B  B23  1  0.32364  0.15416  0.48095  1
 B  B24  1  0.92602  0.20281  0.27679  1
 Si  Si1  1  0.84568  0.84871  0.00303  1
 Si  Si2  1  0.52056  0.31279  0.33335  1
 Si  Si3  1  0.97944  0.31279  0.79223  1
 Si  Si4  1  0.47944  0.68721  0.66665  1
 Si  Si5  1  0.02056  0.68721  0.20777  1
 Si  Si6  1  0.34568  0.34264  0.99697  1
 Si  Si7  1  0.15432  0.15129  0.99697  1
 Si  Si8  1  0.65432  0.65736  0.00303  1
