CIF file written using JARVIS-Tools package.
data_CeAl2Pt
_symmetry_space_group_name_H-M  'Cmcm'
_cell_length_a       4.37763
_cell_length_b       5.61921
_cell_length_c       6.93892
_cell_angle_alpha    90
_cell_angle_beta     90
_cell_angle_gamma    112.925

_symmetry_Int_Tables_number  63
_chemical_formula_structural  CeAl2Pt
_chemical_formula_sum  Ce2Al4Pt2
_cell_volume  157.20757374900768
_cell_formula_units_Z  2
loop_
  _symmetry_equiv_pos_site_id
 _symmetry_equiv_pos_as_xyz
 1  'x, y, z'
loop_
 _atom_site_type_symbol
 _atom_site_label
 _atom_site_symmetry_multiplicity
 _atom_site_fract_x
 _atom_site_fract_y
 _atom_site_fract_z
 _atom_site_fract_occupancy
 Al  Al1  1  0.13957  0.27914  0.44618  1
 Al  Al2  1  0.86043  0.72086  0.55382  1
 Al  Al3  1  0.13957  0.27914  0.05382  1
 Al  Al4  1  0.86043  0.72086  0.94618  1
 Ce  Ce1  1  0.42420  0.84839  0.25000  1
 Ce  Ce2  1  0.57580  0.15161  0.75000  1
 Pt  Pt1  1  0.70955  0.41910  0.25000  1
 Pt  Pt2  1  0.29045  0.58090  0.75000  1
