CIF file written using JARVIS-Tools package.
data_Ce7O12
_symmetry_space_group_name_H-M  'R-3'
_cell_length_a       6.77167
_cell_length_b       6.77167
_cell_length_c       6.77167
_cell_angle_alpha    99.6245
_cell_angle_beta     99.6244
_cell_angle_gamma    99.6245

_symmetry_Int_Tables_number  148
_chemical_formula_structural  Ce7O12
_chemical_formula_sum  Ce7O2
_cell_volume  295.69385621051833
_cell_formula_units_Z  1
loop_
  _symmetry_equiv_pos_site_id
 _symmetry_equiv_pos_as_xyz
 1  'x, y, z'
loop_
 _atom_site_type_symbol
 _atom_site_label
 _atom_site_symmetry_multiplicity
 _atom_site_fract_x
 _atom_site_fract_y
 _atom_site_fract_z
 _atom_site_fract_occupancy
 Ce  Ce1  1  0.00000  0.00000  0.00000  1
 Ce  Ce2  1  0.13883  0.60092  0.29950  1
 Ce  Ce3  1  0.29950  0.13883  0.60092  1
 Ce  Ce4  1  0.39908  0.70050  0.86117  1
 Ce  Ce5  1  0.86117  0.39908  0.70050  1
 Ce  Ce6  1  0.70050  0.86117  0.39908  1
 Ce  Ce7  1  0.60092  0.29950  0.13883  1
 O  O1  1  0.07230  0.67839  0.93210  1
 O  O2  1  0.67839  0.93210  0.07230  1
 O  O3  1  0.06790  0.92770  0.32161  1
 O  O4  1  0.92770  0.32161  0.06790  1
 O  O5  1  0.32161  0.06790  0.92770  1
 O  O6  1  0.93210  0.07230  0.67839  1
 O  O7  1  0.58212  0.17769  0.43378  1
 O  O8  1  0.43378  0.58212  0.17769  1
 O  O9  1  0.41788  0.82231  0.56622  1
 O  O10  1  0.56622  0.41788  0.82231  1
 O  O11  1  0.82231  0.56622  0.41788  1
 O  O12  1  0.17769  0.43378  0.58212  1
