CIF file written using JARVIS-Tools package.
data_K3AsSe4
_symmetry_space_group_name_H-M  'Pnma'
_cell_length_a       9.38244
_cell_length_b       9.84731
_cell_length_c       10.9431
_cell_angle_alpha    90
_cell_angle_beta     90
_cell_angle_gamma    90

_symmetry_Int_Tables_number  62
_chemical_formula_structural  K3AsSe4
_chemical_formula_sum  K2As4Se6
_cell_volume  1011.0491283327126
_cell_formula_units_Z  4
loop_
  _symmetry_equiv_pos_site_id
 _symmetry_equiv_pos_as_xyz
 1  'x, y, z'
loop_
 _atom_site_type_symbol
 _atom_site_label
 _atom_site_symmetry_multiplicity
 _atom_site_fract_x
 _atom_site_fract_y
 _atom_site_fract_z
 _atom_site_fract_occupancy
 As  As1  1  0.72322  0.02490  0.25000  1
 As  As2  1  0.77678  0.52490  0.75000  1
 As  As3  1  0.27678  0.97510  0.75000  1
 As  As4  1  0.22322  0.47510  0.25000  1
 K  K1  1  0.56664  0.80770  0.95462  1
 K  K2  1  0.93336  0.30770  0.04538  1
 K  K3  1  0.43336  0.19230  0.45462  1
 K  K4  1  0.06664  0.69230  0.54538  1
 K  K5  1  0.85838  0.08641  0.75000  1
 K  K6  1  0.06664  0.69230  0.95462  1
 K  K7  1  0.56664  0.80770  0.54538  1
 K  K8  1  0.93336  0.30770  0.45462  1
 K  K9  1  0.35838  0.41359  0.75000  1
 K  K10  1  0.14162  0.91359  0.25000  1
 K  K11  1  0.64162  0.58641  0.25000  1
 K  K12  1  0.43336  0.19230  0.04538  1
 Se  Se1  1  0.00328  0.59653  0.25000  1
 Se  Se2  1  0.64634  0.47151  0.92936  1
 Se  Se3  1  0.85366  0.97151  0.07064  1
 Se  Se4  1  0.35366  0.52849  0.42936  1
 Se  Se5  1  0.14634  0.02849  0.57064  1
 Se  Se6  1  0.35366  0.52849  0.07064  1
 Se  Se7  1  0.64634  0.47151  0.57064  1
 Se  Se8  1  0.67503  0.25924  0.25000  1
 Se  Se9  1  0.82497  0.75924  0.75000  1
 Se  Se10  1  0.17503  0.24076  0.25000  1
 Se  Se11  1  0.32497  0.74076  0.75000  1
 Se  Se12  1  0.99672  0.40347  0.75000  1
 Se  Se13  1  0.50328  0.90347  0.25000  1
 Se  Se14  1  0.14634  0.02849  0.92936  1
 Se  Se15  1  0.85366  0.97151  0.42936  1
 Se  Se16  1  0.49672  0.09653  0.75000  1
