CIF file written using JARVIS-Tools package.
data_Sm3Co6Sn5
_symmetry_space_group_name_H-M  'Immm'
_cell_length_a       4.33314
_cell_length_b       8.18009
_cell_length_c       8.18009
_cell_angle_alpha    73.0422
_cell_angle_beta     74.6414
_cell_angle_gamma    74.6414

_symmetry_Int_Tables_number  71
_chemical_formula_structural  Sm3Co6Sn5
_chemical_formula_sum  Sm3Co6Sn5
_cell_volume  261.84468919190016
_cell_formula_units_Z  1
loop_
  _symmetry_equiv_pos_site_id
 _symmetry_equiv_pos_as_xyz
 1  'x, y, z'
loop_
 _atom_site_type_symbol
 _atom_site_label
 _atom_site_symmetry_multiplicity
 _atom_site_fract_x
 _atom_site_fract_y
 _atom_site_fract_z
 _atom_site_fract_occupancy
 Co  Co1  1  0.89342  0.38036  0.83281  1
 Co  Co2  1  0.10658  0.61964  0.16719  1
 Co  Co3  1  0.89342  0.83281  0.38036  1
 Co  Co4  1  0.50000  0.69719  0.30281  1
 Co  Co5  1  0.50000  0.30281  0.69719  1
 Co  Co6  1  0.10658  0.16719  0.61964  1
 Sm  Sm1  1  0.68281  0.31719  0.31719  1
 Sm  Sm2  1  0.31719  0.68281  0.68281  1
 Sm  Sm3  1  0.00000  0.00000  0.00000  1
 Sn  Sn1  1  0.67580  0.98417  0.66422  1
 Sn  Sn2  1  0.32420  0.33578  0.01583  1
 Sn  Sn3  1  0.67580  0.66422  0.98417  1
 Sn  Sn4  1  0.00000  0.50000  0.50000  1
 Sn  Sn5  1  0.32420  0.01583  0.33578  1
