CIF file written using JARVIS-Tools package.
data_Ba4Ti2PtO10
_symmetry_space_group_name_H-M  'Cmce'
_cell_length_a       5.81665
_cell_length_b       7.35442
_cell_length_c       13.1879
_cell_angle_alpha    90
_cell_angle_beta     90
_cell_angle_gamma    113.294

_symmetry_Int_Tables_number  64
_chemical_formula_structural  Ba4Ti2PtO10
_chemical_formula_sum  Ba8Ti4Pt2O20
_cell_volume  518.1652109685139
_cell_formula_units_Z  2
loop_
  _symmetry_equiv_pos_site_id
 _symmetry_equiv_pos_as_xyz
 1  'x, y, z'
loop_
 _atom_site_type_symbol
 _atom_site_label
 _atom_site_symmetry_multiplicity
 _atom_site_fract_x
 _atom_site_fract_y
 _atom_site_fract_z
 _atom_site_fract_occupancy
 Ba  Ba1  1  0.53060  0.06120  0.14067  1
 Ba  Ba2  1  0.76564  0.53127  0.89241  1
 Ba  Ba3  1  0.26564  0.53127  0.60759  1
 Ba  Ba4  1  0.96940  0.93880  0.64067  1
 Ba  Ba5  1  0.03060  0.06120  0.35933  1
 Ba  Ba6  1  0.73436  0.46873  0.39241  1
 Ba  Ba7  1  0.46940  0.93880  0.85933  1
 Ba  Ba8  1  0.23436  0.46873  0.10759  1
 O  O1  1  0.61549  0.77896  0.46204  1
 O  O2  1  0.16347  0.77896  0.46204  1
 O  O3  1  0.96447  0.92893  0.84790  1
 O  O4  1  0.72958  0.45917  0.15262  1
 O  O5  1  0.37250  0.24499  0.75000  1
 O  O6  1  0.27042  0.54083  0.84738  1
 O  O7  1  0.66347  0.77896  0.03796  1
 O  O8  1  0.03553  0.07107  0.15210  1
 O  O9  1  0.53553  0.07107  0.34790  1
 O  O10  1  0.46447  0.92893  0.65210  1
 O  O11  1  0.87250  0.24499  0.75000  1
 O  O12  1  0.62750  0.75501  0.25000  1
 O  O13  1  0.88451  0.22104  0.96204  1
 O  O14  1  0.83653  0.22104  0.53796  1
 O  O15  1  0.77042  0.54083  0.65262  1
 O  O16  1  0.12750  0.75501  0.25000  1
 O  O17  1  0.38451  0.22104  0.53796  1
 O  O18  1  0.22958  0.45917  0.34738  1
 O  O19  1  0.33653  0.22104  0.96204  1
 O  O20  1  0.11549  0.77896  0.03796  1
 Pt  Pt1  1  0.50000  0.00000  0.50000  1
 Pt  Pt2  1  0.00000  0.00000  0.00000  1
 Ti  Ti1  1  0.63680  0.27360  0.65548  1
 Ti  Ti2  1  0.86320  0.72640  0.15548  1
 Ti  Ti3  1  0.36320  0.72640  0.34452  1
 Ti  Ti4  1  0.13680  0.27360  0.84452  1
