CIF file written using JARVIS-Tools package.
data_Li4Fe3SbO8
_symmetry_space_group_name_H-M  'C2/m'
_cell_length_a       5.95156
_cell_length_b       5.95151
_cell_length_c       5.95501
_cell_angle_alpha    60.8106
_cell_angle_beta     60.8115
_cell_angle_gamma    60.004

_symmetry_Int_Tables_number  12
_chemical_formula_structural  Li4Fe3SbO8
_chemical_formula_sum  Li4Fe3SbO8
_cell_volume  150.9578608953025
_cell_formula_units_Z  1
loop_
  _symmetry_equiv_pos_site_id
 _symmetry_equiv_pos_as_xyz
 1  'x, y, z'
loop_
 _atom_site_type_symbol
 _atom_site_label
 _atom_site_symmetry_multiplicity
 _atom_site_fract_x
 _atom_site_fract_y
 _atom_site_fract_z
 _atom_site_fract_occupancy
 Fe  Fe1  1  0.50000  -0.00000  0.50000  1
 Fe  Fe2  1  0.50000  0.50000  -0.00000  1
 Fe  Fe3  1  0.00001  0.50000  0.50000  1
 Li  Li1  1  0.50000  0.49999  0.50000  1
 Li  Li2  1  -0.00000  0.50000  1.00000  1
 Li  Li3  1  -0.00000  -0.00001  0.50001  1
 Li  Li4  1  0.50000  0.00000  0.00000  1
 O  O1  1  0.73630  0.73629  0.75219  1
 O  O2  1  0.25288  0.74881  0.23163  1
 O  O3  1  0.23792  0.23791  0.76361  1
 O  O4  1  0.26371  0.26371  0.24780  1
 O  O5  1  0.74881  0.25288  0.23163  1
 O  O6  1  0.74712  0.25119  0.76837  1
 O  O7  1  0.76209  0.76208  0.23639  1
 O  O8  1  0.25119  0.74713  0.76837  1
 Sb  Sb1  1  -0.00000  0.00000  -0.00000  1
