CIF file written using JARVIS-Tools package.
data_H12W3C4NCl9
_symmetry_space_group_name_H-M  'P-3m1'
_cell_length_a       10.6674
_cell_length_b       10.6674
_cell_length_c       8.41676
_cell_angle_alpha    90
_cell_angle_beta     90
_cell_angle_gamma    120

_symmetry_Int_Tables_number  164
_chemical_formula_structural  H12W3C4NCl9
_chemical_formula_sum  H24W6C8N2Cl8
_cell_volume  829.4490504538421
_cell_formula_units_Z  2
loop_
  _symmetry_equiv_pos_site_id
 _symmetry_equiv_pos_as_xyz
 1  'x, y, z'
loop_
 _atom_site_type_symbol
 _atom_site_label
 _atom_site_symmetry_multiplicity
 _atom_site_fract_x
 _atom_site_fract_y
 _atom_site_fract_z
 _atom_site_fract_occupancy
 C  C1  1  0.58957  0.17915  0.64801  1
 C  C2  1  0.17915  0.58957  0.35199  1
 C  C3  1  0.58957  0.41043  0.64801  1
 C  C4  1  0.33333  0.66667  0.11333  1
 C  C5  1  0.41043  0.58957  0.35199  1
 C  C6  1  0.41043  0.82085  0.35199  1
 C  C7  1  0.82085  0.41043  0.64801  1
 C  C8  1  0.66667  0.33333  0.88667  1
 Cl  Cl1  1  0.89679  0.10321  0.67936  1
 Cl  Cl2  1  0.89679  0.79357  0.67936  1
 Cl  Cl3  1  0.10321  0.20643  0.32064  1
 Cl  Cl4  1  0.20643  0.10321  0.67936  1
 Cl  Cl5  1  0.32637  0.00000  0.00000  1
 Cl  Cl6  1  0.67363  0.67363  0.00000  1
 Cl  Cl7  1  0.10321  0.89679  0.32064  1
 Cl  Cl8  1  0.20105  0.79895  0.69873  1
 Cl  Cl9  1  0.20105  0.40211  0.69873  1
 Cl  Cl10  1  0.79895  0.20105  0.30127  1
 Cl  Cl11  1  0.79895  0.59789  0.30127  1
 Cl  Cl12  1  0.79357  0.89679  0.32064  1
 Cl  Cl13  1  0.00000  0.67363  0.00000  1
 Cl  Cl14  1  0.67363  0.00000  0.00000  1
 Cl  Cl15  1  0.59789  0.79895  0.69873  1
 Cl  Cl16  1  0.32637  0.32637  0.00000  1
 Cl  Cl17  1  -0.00000  0.32637  0.00000  1
 Cl  Cl18  1  0.40211  0.20105  0.30127  1
 H  H1  1  0.87512  0.35341  0.69225  1
 H  H2  1  0.55470  0.27735  0.92840  1
 H  H3  1  0.59043  0.18086  0.51812  1
 H  H4  1  0.44530  0.72265  0.07160  1
 H  H5  1  0.12488  0.64659  0.30775  1
 H  H6  1  0.27735  0.72265  0.07160  1
 H  H7  1  0.18086  0.59043  0.48188  1
 H  H8  1  0.47829  0.35341  0.69225  1
 H  H9  1  0.12488  0.47829  0.30775  1
 H  H10  1  0.64659  0.12488  0.69225  1
 H  H11  1  0.52171  0.87512  0.30775  1
 H  H12  1  0.35341  0.87512  0.30775  1
 H  H13  1  0.35341  0.47829  0.30775  1
 H  H14  1  0.81914  0.40957  0.51812  1
 H  H15  1  0.59043  0.40957  0.51812  1
 H  H16  1  0.72265  0.44530  0.92840  1
 H  H17  1  0.40957  0.59043  0.48188  1
 H  H18  1  0.64659  0.52171  0.69225  1
 H  H19  1  0.40957  0.81914  0.48188  1
 H  H20  1  0.72265  0.27735  0.92840  1
 H  H21  1  0.87512  0.52171  0.69225  1
 H  H22  1  0.52171  0.64659  0.30775  1
 H  H23  1  0.27735  0.55470  0.07160  1
 H  H24  1  0.47829  0.12488  0.69225  1
 N  N1  1  0.66667  0.33333  0.70762  1
 N  N2  1  0.33333  0.66667  0.29238  1
 W  W1  1  0.90696  0.81392  0.12840  1
 W  W2  1  0.81392  0.90696  0.87160  1
 W  W3  1  0.90696  0.09304  0.12840  1
 W  W4  1  0.09304  0.18608  0.87160  1
 W  W5  1  0.09304  0.90696  0.87160  1
 W  W6  1  0.18608  0.09304  0.12840  1
