CIF file written using JARVIS-Tools package.
data_TiNi
_symmetry_space_group_name_H-M  'P31m'
_cell_length_a       7.25607
_cell_length_b       7.25607
_cell_length_c       5.34419
_cell_angle_alpha    90
_cell_angle_beta     90
_cell_angle_gamma    120

_symmetry_Int_Tables_number  157
_chemical_formula_structural  TiNi
_chemical_formula_sum  Ti9Ni9
_cell_volume  243.67697254077473
_cell_formula_units_Z  9
loop_
  _symmetry_equiv_pos_site_id
 _symmetry_equiv_pos_as_xyz
 1  'x, y, z'
loop_
 _atom_site_type_symbol
 _atom_site_label
 _atom_site_symmetry_multiplicity
 _atom_site_fract_x
 _atom_site_fract_y
 _atom_site_fract_z
 _atom_site_fract_occupancy
 Ni  Ni1  1  0.33334  0.30797  0.15947  1
 Ni  Ni2  1  0.64575  0.66667  0.88399  1
 Ni  Ni3  1  0.02092  0.35425  0.88399  1
 Ni  Ni4  1  0.33333  0.97908  0.88399  1
 Ni  Ni5  1  0.66667  0.33333  0.44039  1
 Ni  Ni6  1  0.33333  0.66667  0.61159  1
 Ni  Ni7  1  0.00000  0.00000  0.44042  1
 Ni  Ni8  1  0.97464  0.66666  0.15947  1
 Ni  Ni9  1  0.69203  0.02536  0.15947  1
 Ti  Ti1  1  0.00000  0.00000  0.97623  1
 Ti  Ti2  1  0.66667  0.33333  0.97622  1
 Ti  Ti3  1  0.33333  0.98726  0.36490  1
 Ti  Ti4  1  0.33333  0.32518  0.66667  1
 Ti  Ti5  1  0.65393  0.66667  0.36490  1
 Ti  Ti6  1  0.67482  0.00816  0.66667  1
 Ti  Ti7  1  0.99184  0.66667  0.66667  1
 Ti  Ti8  1  0.33333  0.66667  0.06938  1
 Ti  Ti9  1  0.01274  0.34607  0.36490  1
