CIF file written using JARVIS-Tools package.
data_KNaB2H8
_symmetry_space_group_name_H-M  'R-3'
_cell_length_a       7.70667
_cell_length_b       7.70667
_cell_length_c       7.70668
_cell_angle_alpha    33.9199
_cell_angle_beta     33.9198
_cell_angle_gamma    33.9199

_symmetry_Int_Tables_number  148
_chemical_formula_structural  KNaB2H8
_chemical_formula_sum  KNaB2H8
_cell_volume  127.03505848259529
_cell_formula_units_Z  1
loop_
  _symmetry_equiv_pos_site_id
 _symmetry_equiv_pos_as_xyz
 1  'x, y, z'
loop_
 _atom_site_type_symbol
 _atom_site_label
 _atom_site_symmetry_multiplicity
 _atom_site_fract_x
 _atom_site_fract_y
 _atom_site_fract_z
 _atom_site_fract_occupancy
 B  B1  1  0.25426  0.25426  0.25426  1
 B  B2  1  0.74574  0.74574  0.74574  1
 H  H1  1  0.80236  0.80236  0.80236  1
 H  H2  1  0.51416  0.01422  0.65329  1
 H  H3  1  0.48584  0.98578  0.34671  1
 H  H4  1  0.34671  0.48584  0.98578  1
 H  H5  1  0.65329  0.51416  0.01422  1
 H  H6  1  0.19764  0.19764  0.19764  1
 H  H7  1  0.01422  0.65329  0.51416  1
 H  H8  1  0.98578  0.34671  0.48584  1
 K  K1  1  0.50000  0.50000  0.50000  1
 Na  Na1  1  0.00000  0.00000  0.00000  1
