CIF file written using JARVIS-Tools package.
data_Fe2PO5
_symmetry_space_group_name_H-M  'I4_1/amd'
_cell_length_a       5.39139
_cell_length_b       5.39139
_cell_length_c       7.34566
_cell_angle_alpha    68.4694
_cell_angle_beta     68.4694
_cell_angle_gamma    89.9993

_symmetry_Int_Tables_number  141
_chemical_formula_structural  Fe2PO5
_chemical_formula_sum  Fe4P2O0
_cell_volume  182.50729605340032
_cell_formula_units_Z  2
loop_
  _symmetry_equiv_pos_site_id
 _symmetry_equiv_pos_as_xyz
 1  'x, y, z'
loop_
 _atom_site_type_symbol
 _atom_site_label
 _atom_site_symmetry_multiplicity
 _atom_site_fract_x
 _atom_site_fract_y
 _atom_site_fract_z
 _atom_site_fract_occupancy
 Fe  Fe1  1  0.00000  -0.00000  0.50000  1
 Fe  Fe2  1  0.50000  0.50000  -0.00000  1
 Fe  Fe3  1  -0.00000  0.50000  -0.00000  1
 Fe  Fe4  1  0.00000  0.50000  0.50000  1
 O  O1  1  0.31864  0.80680  0.38640  1
 O  O2  1  0.69320  0.18136  0.11360  1
 O  O3  1  0.30680  0.81864  0.88640  1
 O  O4  1  0.87497  0.62503  0.75000  1
 O  O5  1  0.79521  0.80688  0.38625  1
 O  O6  1  0.30688  0.29521  0.88625  1
 O  O7  1  0.20479  0.19312  0.61375  1
 O  O8  1  0.69312  0.70479  0.11375  1
 O  O9  1  0.68136  0.19320  0.61360  1
 O  O10  1  0.12503  0.37497  0.25000  1
 P  P1  1  0.37497  0.12503  0.75000  1
 P  P2  1  0.62503  0.87497  0.25000  1
