CIF file written using JARVIS-Tools package.
data_TiFeO3
_symmetry_space_group_name_H-M  'R3c'
_cell_length_a       5.48646
_cell_length_b       5.48645
_cell_length_c       5.48645
_cell_angle_alpha    55.2258
_cell_angle_beta     55.2259
_cell_angle_gamma    55.2258

_symmetry_Int_Tables_number  161
_chemical_formula_structural  TiFeO3
_chemical_formula_sum  Ti2Fe2O6
_cell_volume  103.81820004730733
_cell_formula_units_Z  2
loop_
  _symmetry_equiv_pos_site_id
 _symmetry_equiv_pos_as_xyz
 1  'x, y, z'
loop_
 _atom_site_type_symbol
 _atom_site_label
 _atom_site_symmetry_multiplicity
 _atom_site_fract_x
 _atom_site_fract_y
 _atom_site_fract_z
 _atom_site_fract_occupancy
 Fe  Fe1  1  0.00037  0.00037  0.00037  1
 Fe  Fe2  1  0.50037  0.50037  0.50037  1
 O  O1  1  0.57370  0.19293  0.91692  1
 O  O2  1  0.19293  0.91692  0.57370  1
 O  O3  1  0.91692  0.57370  0.19293  1
 O  O4  1  0.41692  0.69293  0.07370  1
 O  O5  1  0.07370  0.41691  0.69293  1
 O  O6  1  0.69293  0.07370  0.41691  1
 Ti  Ti1  1  0.29309  0.29309  0.29309  1
 Ti  Ti2  1  0.79309  0.79309  0.79309  1
