CIF file written using JARVIS-Tools package.
data_NaCd4As3
_symmetry_space_group_name_H-M  'R-3m'
_cell_length_a       4.50926
_cell_length_b       4.50926
_cell_length_c       11.6248
_cell_angle_alpha    78.8166
_cell_angle_beta     78.8166
_cell_angle_gamma    60.0001

_symmetry_Int_Tables_number  166
_chemical_formula_structural  NaCd4As3
_chemical_formula_sum  NaCd4As3
_cell_volume  199.5041024919743
_cell_formula_units_Z  1
loop_
  _symmetry_equiv_pos_site_id
 _symmetry_equiv_pos_as_xyz
 1  'x, y, z'
loop_
 _atom_site_type_symbol
 _atom_site_label
 _atom_site_symmetry_multiplicity
 _atom_site_fract_x
 _atom_site_fract_y
 _atom_site_fract_z
 _atom_site_fract_occupancy
 As  As1  1  0.21897  0.21897  0.34308  1
 As  As2  1  0.78103  0.78103  0.65692  1
 As  As3  1  0.00000  0.00000  0.00000  1
 Cd  Cd1  1  0.09550  0.09550  0.71350  1
 Cd  Cd2  1  0.90450  0.90450  0.28650  1
 Cd  Cd3  1  0.29859  0.29859  0.10424  1
 Cd  Cd4  1  0.70141  0.70141  0.89576  1
 Na  Na1  1  0.50000  0.50000  0.50000  1
