CIF file written using JARVIS-Tools package.
data_RbMg6W
_symmetry_space_group_name_H-M  'P4/mmm'
_cell_length_a       6.78668
_cell_length_b       9.5989
_cell_length_c       4.26286
_cell_angle_alpha    90
_cell_angle_beta     90
_cell_angle_gamma    135.006

_symmetry_Int_Tables_number  123
_chemical_formula_structural  RbMg6W
_chemical_formula_sum  RbMg6W
_cell_volume  196.34296940171825
_cell_formula_units_Z  1
loop_
  _symmetry_equiv_pos_site_id
 _symmetry_equiv_pos_as_xyz
 1  'x, y, z'
loop_
 _atom_site_type_symbol
 _atom_site_label
 _atom_site_symmetry_multiplicity
 _atom_site_fract_x
 _atom_site_fract_y
 _atom_site_fract_z
 _atom_site_fract_occupancy
 Mg  Mg1  1  0.74990  0.37488  0.25000  1
 Mg  Mg2  1  0.74990  0.87502  0.25000  1
 Mg  Mg3  1  0.25000  0.08194  0.75000  1
 Mg  Mg4  1  0.25000  0.66806  0.75000  1
 Mg  Mg5  1  0.66390  0.08195  0.75000  1
 Mg  Mg6  1  0.83615  0.66808  0.75000  1
 Rb  Rb1  1  0.25006  0.37503  0.25000  1
 W  W1  1  0.25010  0.87505  0.25000  1
