CIF file written using JARVIS-Tools package.
data_La2MnCoO6
_symmetry_space_group_name_H-M  'P2_1/c'
_cell_length_a       5.48124
_cell_length_b       5.51309
_cell_length_c       7.75956
_cell_angle_alpha    89.9192
_cell_angle_beta     90
_cell_angle_gamma    90

_symmetry_Int_Tables_number  14
_chemical_formula_structural  La2MnCoO6
_chemical_formula_sum  La4Mn2Co2O2
_cell_volume  234.48270801723393
_cell_formula_units_Z  2
loop_
  _symmetry_equiv_pos_site_id
 _symmetry_equiv_pos_as_xyz
 1  'x, y, z'
loop_
 _atom_site_type_symbol
 _atom_site_label
 _atom_site_symmetry_multiplicity
 _atom_site_fract_x
 _atom_site_fract_y
 _atom_site_fract_z
 _atom_site_fract_occupancy
 Co  Co1  1  0.00000  0.50000  0.00000  1
 Co  Co2  1  0.50000  1.00000  0.50000  1
 La  La1  1  0.97392  0.00463  0.74981  1
 La  La2  1  0.02608  0.99537  0.25019  1
 La  La3  1  0.52608  0.50463  0.24981  1
 La  La4  1  0.47392  0.49537  0.75019  1
 Mn  Mn1  1  0.50000  0.00000  0.00000  1
 Mn  Mn2  1  0.00000  0.50000  0.50000  1
 O  O1  1  0.27287  0.71604  0.46579  1
 O  O2  1  0.22713  0.21604  0.96579  1
 O  O3  1  0.72713  0.28396  0.53421  1
 O  O4  1  0.78292  0.77135  0.46572  1
 O  O5  1  0.28292  0.72865  0.03428  1
 O  O6  1  0.99310  0.43559  0.25589  1
 O  O7  1  0.71708  0.27135  0.96572  1
 O  O8  1  0.77287  0.78396  0.03421  1
 O  O9  1  0.50690  0.93559  0.75589  1
 O  O10  1  0.49310  0.06441  0.24411  1
 O  O11  1  0.21708  0.22865  0.53428  1
 O  O12  1  0.00690  0.56441  0.74411  1
