CIF file written using JARVIS-Tools package.
data_BaMgH4
_symmetry_space_group_name_H-M  'Cmcm'
_cell_length_a       7.16243
_cell_length_b       7.16243
_cell_length_c       5.68573
_cell_angle_alpha    90
_cell_angle_beta     90
_cell_angle_gamma    34.0086

_symmetry_Int_Tables_number  63
_chemical_formula_structural  BaMgH4
_chemical_formula_sum  Ba2Mg2H8
_cell_volume  163.14208271641172
_cell_formula_units_Z  2
loop_
  _symmetry_equiv_pos_site_id
 _symmetry_equiv_pos_as_xyz
 1  'x, y, z'
loop_
 _atom_site_type_symbol
 _atom_site_label
 _atom_site_symmetry_multiplicity
 _atom_site_fract_x
 _atom_site_fract_y
 _atom_site_fract_z
 _atom_site_fract_occupancy
 Ba  Ba1  1  0.36322  0.36322  0.25000  1
 Ba  Ba2  1  0.63678  0.63678  0.75000  1
 H  H1  1  0.18968  0.18968  0.49208  1
 H  H2  1  0.81032  0.81032  0.50792  1
 H  H3  1  0.18968  0.18968  0.00792  1
 H  H4  1  0.81032  0.81032  0.99208  1
 H  H5  1  0.58370  0.58370  0.25000  1
 H  H6  1  0.41630  0.41630  0.75000  1
 H  H7  1  0.00000  0.00000  0.50000  1
 H  H8  1  0.00000  0.00000  0.00000  1
 Mg  Mg1  1  0.09644  0.09644  0.25000  1
 Mg  Mg2  1  0.90356  0.90356  0.75000  1
