CIF file written using JARVIS-Tools package.
data_HoPd
_symmetry_space_group_name_H-M  'Pnma'
_cell_length_a       4.55729
_cell_length_b       5.52207
_cell_length_c       6.91069
_cell_angle_alpha    90
_cell_angle_beta     90
_cell_angle_gamma    90

_symmetry_Int_Tables_number  62
_chemical_formula_structural  HoPd
_chemical_formula_sum  Ho4Pd4
_cell_volume  173.9119471764034
_cell_formula_units_Z  4
loop_
  _symmetry_equiv_pos_site_id
 _symmetry_equiv_pos_as_xyz
 1  'x, y, z'
loop_
 _atom_site_type_symbol
 _atom_site_label
 _atom_site_symmetry_multiplicity
 _atom_site_fract_x
 _atom_site_fract_y
 _atom_site_fract_z
 _atom_site_fract_occupancy
 Ho  Ho1  1  0.25000  0.35513  0.68321  1
 Ho  Ho2  1  0.25000  0.14487  0.18321  1
 Ho  Ho3  1  0.75000  0.64487  0.31679  1
 Ho  Ho4  1  0.75000  0.85513  0.81679  1
 Pd  Pd1  1  0.25000  0.84278  0.54257  1
 Pd  Pd2  1  0.25000  0.65722  0.04257  1
 Pd  Pd3  1  0.75000  0.15722  0.45743  1
 Pd  Pd4  1  0.75000  0.34278  0.95743  1
