CIF file written using JARVIS-Tools package.
data_Lu2Si5Ir3
_symmetry_space_group_name_H-M  'Ibam'
_cell_length_a       5.79695
_cell_length_b       8.10628
_cell_length_c       8.10628
_cell_angle_alpha    76.4363
_cell_angle_beta     69.0497
_cell_angle_gamma    69.0496

_symmetry_Int_Tables_number  72
_chemical_formula_structural  Lu2Si5Ir3
_chemical_formula_sum  Lu4Si0Ir6
_cell_volume  329.73213791066803
_cell_formula_units_Z  2
loop_
  _symmetry_equiv_pos_site_id
 _symmetry_equiv_pos_as_xyz
 1  'x, y, z'
loop_
 _atom_site_type_symbol
 _atom_site_label
 _atom_site_symmetry_multiplicity
 _atom_site_fract_x
 _atom_site_fract_y
 _atom_site_fract_z
 _atom_site_fract_occupancy
 Ir  Ir1  1  0.75000  0.50000  0.50000  1
 Ir  Ir2  1  0.64028  0.74343  0.97600  1
 Ir  Ir3  1  0.35972  0.25657  0.02400  1
 Ir  Ir4  1  0.14028  0.97600  0.74343  1
 Ir  Ir5  1  0.25000  0.50000  0.50000  1
 Ir  Ir6  1  0.85972  0.02400  0.25657  1
 Lu  Lu1  1  0.63151  0.09605  0.64093  1
 Lu  Lu2  1  0.13151  0.64093  0.09605  1
 Lu  Lu3  1  0.86849  0.35907  0.90395  1
 Lu  Lu4  1  0.36849  0.90395  0.35907  1
 Si  Si1  1  0.10514  0.23851  0.55122  1
 Si  Si2  1  0.60514  0.55122  0.23851  1
 Si  Si3  1  0.02422  0.72578  0.72578  1
 Si  Si4  1  0.47578  0.27422  0.27422  1
 Si  Si5  1  0.89486  0.76149  0.44878  1
 Si  Si6  1  0.97578  0.27422  0.27422  1
 Si  Si7  1  0.52422  0.72578  0.72578  1
 Si  Si8  1  0.75000  0.00000  0.00000  1
 Si  Si9  1  0.39486  0.44878  0.76149  1
 Si  Si10  1  0.25000  0.00000  -0.00000  1
