CIF file written using JARVIS-Tools package.
data_UCoB4
_symmetry_space_group_name_H-M  'Pbam'
_cell_length_a       3.40083
_cell_length_b       5.89564
_cell_length_c       11.4321
_cell_angle_alpha    90
_cell_angle_beta     90
_cell_angle_gamma    90

_symmetry_Int_Tables_number  55
_chemical_formula_structural  UCoB4
_chemical_formula_sum  U4Co4B6
_cell_volume  229.21412429193057
_cell_formula_units_Z  4
loop_
  _symmetry_equiv_pos_site_id
 _symmetry_equiv_pos_as_xyz
 1  'x, y, z'
loop_
 _atom_site_type_symbol
 _atom_site_label
 _atom_site_symmetry_multiplicity
 _atom_site_fract_x
 _atom_site_fract_y
 _atom_site_fract_z
 _atom_site_fract_occupancy
 B  B1  1  0.50000  0.11309  0.45384  1
 B  B2  1  0.50000  0.28303  0.68649  1
 B  B3  1  0.50000  0.71697  0.31351  1
 B  B4  1  0.50000  0.21697  0.18649  1
 B  B5  1  0.50000  0.02613  0.30812  1
 B  B6  1  0.50000  0.36435  0.53360  1
 B  B7  1  0.50000  0.63565  0.46640  1
 B  B8  1  0.50000  0.78303  0.81351  1
 B  B9  1  0.50000  0.86435  0.96640  1
 B  B10  1  0.50000  0.38691  0.95384  1
 B  B11  1  0.50000  0.61309  0.04616  1
 B  B12  1  0.50000  0.97387  0.69188  1
 B  B13  1  0.50000  0.88691  0.54616  1
 B  B14  1  0.50000  0.47387  0.80812  1
 B  B15  1  0.50000  0.52613  0.19188  1
 B  B16  1  0.50000  0.13565  0.03360  1
 Co  Co1  1  0.00000  0.63215  0.91226  1
 Co  Co2  1  0.00000  0.36785  0.08774  1
 Co  Co3  1  0.00000  0.86785  0.41226  1
 Co  Co4  1  0.00000  0.13215  0.58774  1
 U  U1  1  0.00000  0.62658  0.65032  1
 U  U2  1  0.00000  0.37342  0.34968  1
 U  U3  1  0.00000  0.87342  0.15032  1
 U  U4  1  0.00000  0.12658  0.84968  1
