CIF file written using JARVIS-Tools package.
data_Sr2B8Ru7
_symmetry_space_group_name_H-M  'P4_2/m'
_cell_length_a       6.47395
_cell_length_b       6.47395
_cell_length_c       10.1993
_cell_angle_alpha    90
_cell_angle_beta     90
_cell_angle_gamma    90

_symmetry_Int_Tables_number  84
_chemical_formula_structural  Sr2B8Ru7
_chemical_formula_sum  Sr4B6Ru4
_cell_volume  427.47307469893025
_cell_formula_units_Z  2
loop_
  _symmetry_equiv_pos_site_id
 _symmetry_equiv_pos_as_xyz
 1  'x, y, z'
loop_
 _atom_site_type_symbol
 _atom_site_label
 _atom_site_symmetry_multiplicity
 _atom_site_fract_x
 _atom_site_fract_y
 _atom_site_fract_z
 _atom_site_fract_occupancy
 B  B1  1  0.39838  0.77559  0.16894  1
 B  B2  1  0.60162  0.22441  0.16894  1
 B  B3  1  0.00000  0.50000  0.58873  1
 B  B4  1  -0.00000  0.50000  0.41127  1
 B  B5  1  0.60162  0.22441  0.83106  1
 B  B6  1  1.00000  0.00000  0.34096  1
 B  B7  1  0.00000  -0.00000  0.84096  1
 B  B8  1  0.77559  0.60162  0.66894  1
 B  B9  1  0.77559  0.60162  0.33106  1
 B  B10  1  0.50000  -0.00000  0.91127  1
 B  B11  1  0.00000  -0.00000  0.65904  1
 B  B12  1  0.00000  0.00000  0.15904  1
 B  B13  1  0.22441  0.39838  0.66894  1
 B  B14  1  0.22441  0.39838  0.33106  1
 B  B15  1  0.50000  0.00000  0.08873  1
 B  B16  1  0.39838  0.77559  0.83106  1
 Ru  Ru1  1  0.78780  0.09327  0.00000  1
 Ru  Ru2  1  0.70597  0.89350  0.24434  1
 Ru  Ru3  1  0.90673  0.78780  0.50000  1
 Ru  Ru4  1  0.70597  0.89350  0.75566  1
 Ru  Ru5  1  0.10650  0.70597  0.25566  1
 Ru  Ru6  1  0.09327  0.21220  0.50000  1
 Ru  Ru7  1  0.89350  0.29403  0.25566  1
 Ru  Ru8  1  0.21220  0.90673  -0.00000  1
 Ru  Ru9  1  0.50000  0.50000  0.75000  1
 Ru  Ru10  1  0.29403  0.10650  0.75566  1
 Ru  Ru11  1  0.89350  0.29403  0.74434  1
 Ru  Ru12  1  0.50000  0.50000  0.25000  1
 Ru  Ru13  1  0.10650  0.70597  0.74434  1
 Ru  Ru14  1  0.29402  0.10650  0.24434  1
 Sr  Sr1  1  0.76886  0.60831  0.00000  1
 Sr  Sr2  1  0.39168  0.76886  0.50000  1
 Sr  Sr3  1  0.60832  0.23114  0.50000  1
 Sr  Sr4  1  0.23114  0.39169  1.00000  1
