CIF file written using JARVIS-Tools package.
data_SiO2
_symmetry_space_group_name_H-M  'Cmc2_1'
_cell_length_a       4.98474
_cell_length_b       11.1426
_cell_length_c       11.1426
_cell_angle_alpha    102.822
_cell_angle_beta     90
_cell_angle_gamma    90

_symmetry_Int_Tables_number  36
_chemical_formula_structural  SiO2
_chemical_formula_sum  Si2O24
_cell_volume  603.4613531500835
_cell_formula_units_Z  12
loop_
  _symmetry_equiv_pos_site_id
 _symmetry_equiv_pos_as_xyz
 1  'x, y, z'
loop_
 _atom_site_type_symbol
 _atom_site_label
 _atom_site_symmetry_multiplicity
 _atom_site_fract_x
 _atom_site_fract_y
 _atom_site_fract_z
 _atom_site_fract_occupancy
 O  O1  1  0.59834  0.29378  0.24300  1
 O  O2  1  0.99526  0.89359  0.65296  1
 O  O3  1  0.49526  0.65296  0.89359  1
 O  O4  1  0.99526  0.34704  0.10641  1
 O  O5  1  0.94157  0.66207  0.52591  1
 O  O6  1  0.44157  0.33793  0.47409  1
 O  O7  1  0.94157  0.47409  0.33793  1
 O  O8  1  0.82049  0.53718  0.01873  1
 O  O9  1  0.32049  0.01873  0.53718  1
 O  O10  1  0.56279  0.30356  0.69644  1
 O  O11  1  0.43218  0.86926  0.31872  1
 O  O12  1  0.93218  0.13074  0.68128  1
 O  O13  1  0.06294  0.35374  0.64626  1
 O  O14  1  0.56294  0.64626  0.35374  1
 O  O15  1  0.32049  0.46282  0.98127  1
 O  O16  1  0.44157  0.52591  0.66207  1
 O  O17  1  0.49526  0.10641  0.34704  1
 O  O18  1  0.82049  0.98127  0.46282  1
 O  O19  1  0.09834  0.24300  0.29378  1
 O  O20  1  0.59834  0.75700  0.70622  1
 O  O21  1  0.93218  0.31872  0.86926  1
 O  O22  1  0.43218  0.68128  0.13074  1
 O  O23  1  0.09834  0.70622  0.75700  1
 O  O24  1  0.06279  0.69644  0.30356  1
 Si  Si1  1  0.51454  0.99376  0.41645  1
 Si  Si2  1  0.01454  0.00624  0.58355  1
 Si  Si3  1  0.01454  0.41645  0.99376  1
 Si  Si4  1  0.90751  0.75560  0.65952  1
 Si  Si5  1  0.51454  0.58355  0.00624  1
 Si  Si6  1  0.37519  0.72321  0.27679  1
 Si  Si7  1  0.40751  0.65952  0.75560  1
 Si  Si8  1  0.87519  0.27679  0.72321  1
 Si  Si9  1  0.40751  0.24440  0.34048  1
 Si  Si10  1  0.87649  0.61962  0.38038  1
 Si  Si11  1  0.90751  0.34048  0.24440  1
 Si  Si12  1  0.37649  0.38038  0.61962  1
