CIF file written using JARVIS-Tools package.
data_C
_symmetry_space_group_name_H-M  'Cmmm'
_cell_length_a       2.51337
_cell_length_b       4.25476
_cell_length_c       4.87309
_cell_angle_alpha    115.884
_cell_angle_beta     90
_cell_angle_gamma    90

_symmetry_Int_Tables_number  65
_chemical_formula_structural  C
_chemical_formula_sum  C8
_cell_volume  46.88365089461242
_cell_formula_units_Z  8
loop_
  _symmetry_equiv_pos_site_id
 _symmetry_equiv_pos_as_xyz
 1  'x, y, z'
loop_
 _atom_site_type_symbol
 _atom_site_label
 _atom_site_symmetry_multiplicity
 _atom_site_fract_x
 _atom_site_fract_y
 _atom_site_fract_z
 _atom_site_fract_occupancy
 C  C1  1  0.00000  0.98132  0.33305  1
 C  C2  1  0.00000  0.01868  0.66695  1
 C  C3  1  0.00000  0.35173  0.33305  1
 C  C4  1  0.00000  0.64827  0.66695  1
 C  C5  1  0.50000  0.22617  0.82159  1
 C  C6  1  0.50000  0.77383  0.17841  1
 C  C7  1  0.50000  0.59542  0.82159  1
 C  C8  1  0.50000  0.40458  0.17841  1
