CIF file written using JARVIS-Tools package.
data_Li2B4O7
_symmetry_space_group_name_H-M  'I4_1cd'
_cell_length_a       8.43828
_cell_length_b       8.43828
_cell_length_c       8.43828
_cell_angle_alpha    104.836
_cell_angle_beta     111.837
_cell_angle_gamma    111.837

_symmetry_Int_Tables_number  110
_chemical_formula_structural  Li2B4O7
_chemical_formula_sum  Li8B6O28
_cell_volume  460.2843663255171
_cell_formula_units_Z  4
loop_
  _symmetry_equiv_pos_site_id
 _symmetry_equiv_pos_as_xyz
 1  'x, y, z'
loop_
 _atom_site_type_symbol
 _atom_site_label
 _atom_site_symmetry_multiplicity
 _atom_site_fract_x
 _atom_site_fract_y
 _atom_site_fract_z
 _atom_site_fract_occupancy
 B  B1  1  -0.05627  -0.03300  0.13513  1
 B  B2  1  0.33187  0.77328  0.21700  1
 B  B3  1  0.57838  0.11671  0.35912  1
 B  B4  1  0.83187  0.46700  0.52328  1
 B  B5  1  0.55627  0.27328  0.94141  1
 B  B6  1  0.24241  0.28074  0.85912  1
 B  B7  1  0.25759  0.28833  0.36671  1
 B  B8  1  0.05627  0.19141  0.02328  1
 B  B9  1  0.75759  0.61671  0.03833  1
 B  B10  1  0.74241  0.10912  0.03074  1
 B  B11  1  0.07838  0.60912  0.86671  1
 B  B12  1  -0.07838  0.78833  0.53074  1
 B  B13  1  0.66813  0.88513  0.44141  1
 B  B14  1  0.42162  0.78074  0.53833  1
 B  B15  1  0.44373  0.38513  0.71700  1
 B  B16  1  0.16813  0.69141  0.63513  1
 Li  Li1  1  0.68651  0.68156  0.69675  1
 Li  Li2  1  0.18651  -0.05325  0.43156  1
 Li  Li3  1  0.01518  0.51024  0.19675  1
 Li  Li4  1  -0.01518  0.18156  0.49506  1
 Li  Li5  1  0.48482  0.74506  -0.06844  1
 Li  Li6  1  0.31349  0.01024  0.99506  1
 Li  Li7  1  0.51518  0.44675  0.26024  1
 Li  Li8  1  0.81349  0.24506  0.76024  1
 O  O1  1  0.71284  0.08685  0.48310  1
 O  O2  1  0.38479  0.96888  0.22461  1
 O  O3  1  -0.14022  0.90496  0.48068  1
 O  O4  1  0.92427  0.79518  0.15496  1
 O  O5  1  0.50000  0.74666  0.24666  1
 O  O6  1  0.10374  0.12400  0.33685  1
 O  O7  1  0.64022  0.29518  0.37091  1
 O  O8  1  0.88479  0.47461  0.71888  1
 O  O9  1  -0.00000  0.49666  0.49666  1
 O  O10  1  0.39626  0.27026  0.98310  1
 O  O11  1  0.24427  0.33410  0.21888  1
 O  O12  1  0.61521  0.83982  0.58410  1
 O  O13  1  0.75573  -0.02539  0.08982  1
 O  O14  1  -0.00000  -0.00334  -0.00334  1
 O  O15  1  0.11521  0.83410  0.58982  1
 O  O16  1  0.74427  0.46888  0.08410  1
 O  O17  1  0.25573  0.33982  0.72461  1
 O  O18  1  0.42427  0.40496  0.54518  1
 O  O19  1  0.60374  0.58685  0.87400  1
 O  O20  1  0.07573  0.23068  0.87091  1
 O  O21  1  0.89626  0.23310  0.02026  1
 O  O22  1  0.78716  0.62400  0.52026  1
 O  O23  1  0.50000  0.24666  0.74666  1
 O  O24  1  0.35978  0.73068  0.65496  1
 O  O25  1  0.21284  0.73310  0.83685  1
 O  O26  1  0.57573  0.12091  -0.01932  1
 O  O27  1  0.14022  0.62091  0.04518  1
 O  O28  1  0.28716  0.77026  0.37400  1
