CIF file written using JARVIS-Tools package.
data_RhC2IO2
_symmetry_space_group_name_H-M  'P2_1/c'
_cell_length_a       9.25906
_cell_length_b       9.59107
_cell_length_c       11.1332
_cell_angle_alpha    90
_cell_angle_beta     94.9463
_cell_angle_gamma    90

_symmetry_Int_Tables_number  14
_chemical_formula_structural  RhC2IO2
_chemical_formula_sum  Rh8C6I8O6
_cell_volume  984.9930385546829
_cell_formula_units_Z  8
loop_
  _symmetry_equiv_pos_site_id
 _symmetry_equiv_pos_as_xyz
 1  'x, y, z'
loop_
 _atom_site_type_symbol
 _atom_site_label
 _atom_site_symmetry_multiplicity
 _atom_site_fract_x
 _atom_site_fract_y
 _atom_site_fract_z
 _atom_site_fract_occupancy
 C  C1  1  0.00618  0.30366  0.64152  1
 C  C2  1  0.23044  0.64954  0.50574  1
 C  C3  1  0.99382  0.69634  0.35848  1
 C  C4  1  0.76956  0.35046  0.49426  1
 C  C5  1  0.26956  0.14954  0.99426  1
 C  C6  1  0.85401  0.93766  0.58374  1
 C  C7  1  0.42830  0.38060  0.75519  1
 C  C8  1  0.07170  0.88060  0.74481  1
 C  C9  1  0.50618  0.19634  0.14152  1
 C  C10  1  0.14599  0.06234  0.41626  1
 C  C11  1  0.57170  0.61940  0.24481  1
 C  C12  1  0.35401  0.56234  0.08374  1
 C  C13  1  0.64599  0.43766  0.91626  1
 C  C14  1  0.92830  0.11940  0.25519  1
 C  C15  1  0.49382  0.80366  0.85848  1
 C  C16  1  0.73044  0.85046  0.00574  1
 I  I1  1  0.66341  0.64565  0.60528  1
 I  I2  1  0.51032  0.07071  0.67466  1
 I  I3  1  0.01032  0.42929  0.17466  1
 I  I4  1  0.98968  0.57071  0.82534  1
 I  I5  1  0.33659  0.35435  0.39472  1
 I  I6  1  0.48968  0.92929  0.32534  1
 I  I7  1  0.83659  0.14565  0.89472  1
 I  I8  1  0.16341  0.85435  0.10528  1
 O  O1  1  0.71107  0.29383  0.41220  1
 O  O2  1  0.90479  0.78127  0.35275  1
 O  O3  1  0.66556  0.52870  0.98399  1
 O  O4  1  0.33444  0.47130  0.01601  1
 O  O5  1  0.40479  0.71873  0.85275  1
 O  O6  1  0.16556  0.97130  0.48399  1
 O  O7  1  0.67924  0.56502  0.27771  1
 O  O8  1  0.78893  0.79383  0.08780  1
 O  O9  1  0.21107  0.20617  0.91220  1
 O  O10  1  0.17924  0.93498  0.77771  1
 O  O11  1  0.59521  0.28127  0.14725  1
 O  O12  1  0.32076  0.43498  0.72229  1
 O  O13  1  0.83444  0.02870  0.51601  1
 O  O14  1  0.82076  0.06502  0.22229  1
 O  O15  1  0.09521  0.21873  0.64725  1
 O  O16  1  0.28893  0.70617  0.58780  1
 Rh  Rh1  1  0.13877  0.56200  0.37138  1
 Rh  Rh2  1  0.36123  0.06200  0.12862  1
 Rh  Rh3  1  0.60012  0.29263  0.80976  1
 Rh  Rh4  1  0.63877  0.93800  0.87138  1
 Rh  Rh5  1  0.10012  0.20737  0.30976  1
 Rh  Rh6  1  0.39988  0.70737  0.19024  1
 Rh  Rh7  1  0.86123  0.43800  0.62862  1
 Rh  Rh8  1  0.89988  0.79263  0.69024  1
