CIF file written using JARVIS-Tools package.
data_H7NO6
_symmetry_space_group_name_H-M  'P2_1'
_cell_length_a       8.8882
_cell_length_b       16.5039
_cell_length_c       3.24629
_cell_angle_alpha    90
_cell_angle_beta     88.1279
_cell_angle_gamma    90

_symmetry_Int_Tables_number  4
_chemical_formula_structural  H7NO6
_chemical_formula_sum  H28N4O24
_cell_volume  475.9436337986335
_cell_formula_units_Z  4
loop_
  _symmetry_equiv_pos_site_id
 _symmetry_equiv_pos_as_xyz
 1  'x, y, z'
loop_
 _atom_site_type_symbol
 _atom_site_label
 _atom_site_symmetry_multiplicity
 _atom_site_fract_x
 _atom_site_fract_y
 _atom_site_fract_z
 _atom_site_fract_occupancy
 H  H1  1  0.63308  0.70806  0.12246  1
 H  H2  1  0.87773  0.30049  0.93592  1
 H  H3  1  0.12227  0.80049  0.56408  1
 H  H4  1  0.36692  0.20806  0.37754  1
 H  H5  1  0.91211  0.95769  0.59792  1
 H  H6  1  0.08789  0.45769  -0.09792  1
 H  H7  1  0.56693  0.65475  0.76133  1
 H  H8  1  0.57857  0.56524  0.25006  1
 H  H9  1  0.69845  0.37331  0.07143  1
 H  H10  1  -0.10522  0.37766  0.64629  1
 H  H11  1  0.30155  0.87331  0.42857  1
 H  H12  1  0.10522  0.87766  -0.14629  1
 H  H13  1  0.42143  0.06524  0.24994  1
 H  H14  1  0.57023  0.44248  0.30775  1
 H  H15  1  0.43307  0.15475  0.73867  1
 H  H16  1  0.04154  0.05397  0.56309  1
 H  H17  1  0.88776  0.02368  0.94468  1
 H  H18  1  -0.04154  0.55397  -0.06309  1
 H  H19  1  0.11224  0.52368  0.55532  1
 H  H20  1  0.42371  0.53434  0.41788  1
 H  H21  1  0.42977  0.94248  0.19225  1
 H  H22  1  0.48788  0.84798  0.34801  1
 H  H23  1  0.19407  0.12634  0.49135  1
 H  H24  1  0.02313  0.14541  0.29408  1
 H  H25  1  0.97687  0.64541  0.20592  1
 H  H26  1  0.80593  0.62634  0.00865  1
 H  H27  1  0.51212  0.34798  0.15199  1
 H  H28  1  0.57629  0.03434  0.08212  1
 N  N1  1  0.75750  0.16006  0.05628  1
 N  N2  1  0.75535  0.83452  0.30717  1
 N  N3  1  0.24465  0.33452  0.19283  1
 N  N4  1  0.24250  0.66006  0.44372  1
 O  O1  1  0.75113  0.08610  0.17863  1
 O  O2  1  0.63272  0.79280  0.38687  1
 O  O3  1  0.88462  0.19712  0.07704  1
 O  O4  1  0.11538  0.69712  0.42296  1
 O  O5  1  0.90256  0.60295  0.12089  1
 O  O6  1  0.86641  0.80027  0.14127  1
 O  O7  1  0.64550  0.19559  0.92265  1
 O  O8  1  0.35450  0.69559  0.57735  1
 O  O9  1  0.13359  0.30027  0.35873  1
 O  O10  1  0.75338  0.90880  0.40456  1
 O  O11  1  0.36728  0.29280  0.11313  1
 O  O12  1  0.03249  0.49599  0.72443  1
 O  O13  1  0.85661  0.35933  0.91656  1
 O  O14  1  0.14339  0.85933  0.58344  1
 O  O15  1  0.36297  0.15310  0.51230  1
 O  O16  1  0.46716  0.02311  0.06579  1
 O  O17  1  0.96751  -0.00401  0.77557  1
 O  O18  1  0.09744  0.10295  0.37911  1
 O  O19  1  0.53284  0.52311  0.43421  1
 O  O20  1  0.39961  0.88099  0.24954  1
 O  O21  1  0.63703  0.65310  -0.01230  1
 O  O22  1  0.24887  0.58610  0.32137  1
 O  O23  1  0.24662  0.40880  0.09544  1
 O  O24  1  0.60039  0.38099  0.25046  1
