CIF file written using JARVIS-Tools package.
data_SrTaNO2
_symmetry_space_group_name_H-M  'C2'
_cell_length_a       5.73701
_cell_length_b       5.73701
_cell_length_c       8.07229
_cell_angle_alpha    90.0041
_cell_angle_beta     89.9959
_cell_angle_gamma    88.3482

_symmetry_Int_Tables_number  5
_chemical_formula_structural  SrTaNO2
_chemical_formula_sum  Sr4Ta4N4O8
_cell_volume  265.574607805995
_cell_formula_units_Z  4
loop_
  _symmetry_equiv_pos_site_id
 _symmetry_equiv_pos_as_xyz
 1  'x, y, z'
loop_
 _atom_site_type_symbol
 _atom_site_label
 _atom_site_symmetry_multiplicity
 _atom_site_fract_x
 _atom_site_fract_y
 _atom_site_fract_z
 _atom_site_fract_occupancy
 N  N1  1  0.45961  0.03652  0.75006  1
 N  N2  1  0.24947  0.74884  0.00472  1
 N  N3  1  0.74884  0.24947  0.49528  1
 N  N4  1  0.03652  0.45961  0.74994  1
 O  O1  1  0.74886  0.74896  0.96532  1
 O  O2  1  0.24820  0.24833  0.45097  1
 O  O3  1  0.74896  0.74886  0.53468  1
 O  O4  1  0.24833  0.24820  0.04903  1
 O  O5  1  0.54098  0.95381  0.25076  1
 O  O6  1  0.24742  0.74679  0.49039  1
 O  O7  1  0.74679  0.24742  0.00961  1
 O  O8  1  0.95381  0.54098  0.24924  1
 Sr  Sr1  1  0.99560  0.99560  0.75000  1
 Sr  Sr2  1  0.50775  0.50775  0.75000  1
 Sr  Sr3  1  0.50626  0.50626  0.25000  1
 Sr  Sr4  1  -0.00348  -0.00348  0.25000  1
 Ta  Ta1  1  0.51047  0.01520  0.50222  1
 Ta  Ta2  1  0.49175  -0.00133  0.99107  1
 Ta  Ta3  1  0.01520  0.51047  0.99778  1
 Ta  Ta4  1  -0.00133  0.49175  0.50893  1
