CIF file written using JARVIS-Tools package.
data_TbGa2Co3
_symmetry_space_group_name_H-M  'P6/mmm'
_cell_length_a       5.22073
_cell_length_b       5.22074
_cell_length_c       3.74213
_cell_angle_alpha    90
_cell_angle_beta     90
_cell_angle_gamma    120

_symmetry_Int_Tables_number  191
_chemical_formula_structural  TbGa2Co3
_chemical_formula_sum  TbGa2Co3
_cell_volume  88.33090291181195
_cell_formula_units_Z  1
loop_
  _symmetry_equiv_pos_site_id
 _symmetry_equiv_pos_as_xyz
 1  'x, y, z'
loop_
 _atom_site_type_symbol
 _atom_site_label
 _atom_site_symmetry_multiplicity
 _atom_site_fract_x
 _atom_site_fract_y
 _atom_site_fract_z
 _atom_site_fract_occupancy
 Co  Co1  1  0.50000  0.50000  0.50000  1
 Co  Co2  1  -0.00000  0.50000  0.50000  1
 Co  Co3  1  0.50000  0.00000  0.50000  1
 Ga  Ga1  1  0.66667  0.33333  0.00000  1
 Ga  Ga2  1  0.33333  0.66667  0.00000  1
 Tb  Tb1  1  0.00000  0.00000  0.00000  1
