CIF file written using JARVIS-Tools package.
data_AsCS3N2F11
_symmetry_space_group_name_H-M  'P-1'
_cell_length_a       5.69899
_cell_length_b       7.37942
_cell_length_c       12.5022
_cell_angle_alpha    99.0063
_cell_angle_beta     93.5733
_cell_angle_gamma    105.347

_symmetry_Int_Tables_number  2
_chemical_formula_structural  AsCS3N2F11
_chemical_formula_sum  As2C2S6N4F22
_cell_volume  497.80396471684946
_cell_formula_units_Z  2
loop_
  _symmetry_equiv_pos_site_id
 _symmetry_equiv_pos_as_xyz
 1  'x, y, z'
loop_
 _atom_site_type_symbol
 _atom_site_label
 _atom_site_symmetry_multiplicity
 _atom_site_fract_x
 _atom_site_fract_y
 _atom_site_fract_z
 _atom_site_fract_occupancy
 As  As1  1  0.51440  0.77612  0.81778  1
 As  As2  1  0.48560  0.22388  0.18222  1
 C  C1  1  0.04587  0.74498  0.27149  1
 C  C2  1  0.95413  0.25502  0.72851  1
 F  F1  1  0.82051  0.47349  0.62840  1
 F  F2  1  0.54772  0.18558  0.62947  1
 F  F3  1  0.77797  0.25503  0.24996  1
 F  F4  1  0.22203  0.74497  0.75004  1
 F  F5  1  0.34799  0.21800  0.30324  1
 F  F6  1  0.43203  0.97056  0.16164  1
 F  F7  1  0.90965  0.67802  0.44673  1
 F  F8  1  0.29864  0.74297  0.52737  1
 F  F9  1  0.17949  0.52651  0.37160  1
 F  F10  1  0.46575  0.52288  0.79957  1
 F  F11  1  0.56797  0.02944  0.83836  1
 F  F12  1  0.38350  0.76913  0.94311  1
 F  F13  1  0.19332  0.18884  0.10781  1
 F  F14  1  0.80668  0.81116  0.89219  1
 F  F15  1  0.61650  0.23087  0.05689  1
 F  F16  1  0.53425  0.47712  0.20043  1
 F  F17  1  0.81218  0.03393  0.55233  1
 F  F18  1  0.65201  0.78200  0.69676  1
 F  F19  1  0.18782  0.96607  0.44767  1
 F  F20  1  0.70136  0.25703  0.47263  1
 F  F21  1  0.45228  0.81442  0.37053  1
 F  F22  1  0.09035  0.32198  0.55327  1
 N  N1  1  0.93994  0.66031  0.07229  1
 N  N2  1  0.07762  0.13833  0.74927  1
 N  N3  1  0.06006  0.33969  0.92771  1
 N  N4  1  0.92238  0.86167  0.25073  1
 S  S1  1  0.08282  0.58227  0.16073  1
 S  S2  1  0.16591  0.16787  0.87870  1
 S  S3  1  0.91718  0.41773  0.83927  1
 S  S4  1  0.83409  0.83213  0.12130  1
 S  S5  1  0.81912  0.25263  0.59028  1
 S  S6  1  0.18088  0.74737  0.40972  1
