CIF file written using JARVIS-Tools package.
data_SrAu2O4
_symmetry_space_group_name_H-M  'I4_1/a'
_cell_length_a       6.77001
_cell_length_b       6.77001
_cell_length_c       6.77001
_cell_angle_alpha    125.121
_cell_angle_beta     125.121
_cell_angle_gamma    81.3378

_symmetry_Int_Tables_number  88
_chemical_formula_structural  SrAu2O4
_chemical_formula_sum  Sr2Au4O8
_cell_volume  199.9051028365147
_cell_formula_units_Z  2
loop_
  _symmetry_equiv_pos_site_id
 _symmetry_equiv_pos_as_xyz
 1  'x, y, z'
loop_
 _atom_site_type_symbol
 _atom_site_label
 _atom_site_symmetry_multiplicity
 _atom_site_fract_x
 _atom_site_fract_y
 _atom_site_fract_z
 _atom_site_fract_occupancy
 Au  Au1  1  0.50000  0.50000  0.00000  1
 Au  Au2  1  0.50000  0.00000  0.50000  1
 Au  Au3  1  0.50000  0.50000  0.50000  1
 Au  Au4  1  0.00000  0.50000  0.00000  1
 O  O1  1  0.47793  0.29375  0.11862  1
 O  O2  1  0.17512  0.85931  0.38138  1
 O  O3  1  0.29375  0.17512  0.31581  1
 O  O4  1  0.85931  0.47793  0.18419  1
 O  O5  1  0.52207  0.70625  0.88138  1
 O  O6  1  0.82488  0.14069  0.61862  1
 O  O7  1  0.70625  0.82488  0.68419  1
 O  O8  1  0.14069  0.52207  0.81581  1
 Sr  Sr1  1  0.12500  0.87500  0.75000  1
 Sr  Sr2  1  0.87500  0.12500  0.25000  1
