CIF file written using JARVIS-Tools package.
data_CaCr2Cu3Sb2O12
_symmetry_space_group_name_H-M  'Pn-3'
_cell_length_a       7.50558
_cell_length_b       7.50558
_cell_length_c       7.50558
_cell_angle_alpha    90
_cell_angle_beta     90
_cell_angle_gamma    90

_symmetry_Int_Tables_number  201
_chemical_formula_structural  CaCr2Cu3Sb2O12
_chemical_formula_sum  Ca2Cr4Cu6Sb4O24
_cell_volume  422.8172363577981
_cell_formula_units_Z  2
loop_
  _symmetry_equiv_pos_site_id
 _symmetry_equiv_pos_as_xyz
 1  'x, y, z'
loop_
 _atom_site_type_symbol
 _atom_site_label
 _atom_site_symmetry_multiplicity
 _atom_site_fract_x
 _atom_site_fract_y
 _atom_site_fract_z
 _atom_site_fract_occupancy
 Ca  Ca1  1  0.25000  0.25000  0.25000  1
 Ca  Ca2  1  0.75000  0.75000  0.75000  1
 Cr  Cr1  1  0.00000  0.50000  0.00000  1
 Cr  Cr2  1  0.50000  0.00000  0.00000  1
 Cr  Cr3  1  0.00000  0.00000  0.50000  1
 Cr  Cr4  1  0.50000  0.50000  0.50000  1
 Cu  Cu1  1  0.25000  0.25000  0.75000  1
 Cu  Cu2  1  0.25000  0.75000  0.75000  1
 Cu  Cu3  1  0.75000  0.75000  0.25000  1
 Cu  Cu4  1  0.25000  0.75000  0.25000  1
 Cu  Cu5  1  0.75000  0.25000  0.25000  1
 Cu  Cu6  1  0.75000  0.25000  0.75000  1
 O  O1  1  0.92696  0.44839  0.75328  1
 O  O2  1  0.44839  0.75328  0.92696  1
 O  O3  1  0.42696  0.55161  0.25328  1
 O  O4  1  0.92696  0.05161  0.74672  1
 O  O5  1  0.44839  0.74672  0.57304  1
 O  O6  1  0.25328  0.42696  0.55161  1
 O  O7  1  0.24672  0.07304  0.55161  1
 O  O8  1  0.24672  0.42696  0.94839  1
 O  O9  1  0.25328  0.07304  0.94839  1
 O  O10  1  0.42696  0.94839  0.24672  1
 O  O11  1  0.05161  0.75328  0.57304  1
 O  O12  1  0.74672  0.57304  0.44839  1
 O  O13  1  0.05161  0.74672  0.92696  1
 O  O14  1  0.55161  0.24672  0.07304  1
 O  O15  1  0.74672  0.92696  0.05161  1
 O  O16  1  0.75328  0.57304  0.05161  1
 O  O17  1  0.55161  0.25328  0.42696  1
 O  O18  1  0.75328  0.92696  0.44839  1
 O  O19  1  0.57304  0.44839  0.74672  1
 O  O20  1  0.07304  0.55161  0.24672  1
 O  O21  1  0.94839  0.24672  0.42696  1
 O  O22  1  0.94839  0.25328  0.07304  1
 O  O23  1  0.57304  0.05161  0.75328  1
 O  O24  1  0.07304  0.94839  0.25328  1
 Sb  Sb1  1  0.50000  0.00000  0.50000  1
 Sb  Sb2  1  0.00000  0.00000  0.00000  1
 Sb  Sb3  1  0.00000  0.50000  0.50000  1
 Sb  Sb4  1  0.50000  0.50000  0.00000  1
