CIF file written using JARVIS-Tools package.
data_MoPRu
_symmetry_space_group_name_H-M  'P-62m'
_cell_length_a       3.9005
_cell_length_b       6.07774
_cell_length_c       6.07776
_cell_angle_alpha    120
_cell_angle_beta     90
_cell_angle_gamma    90

_symmetry_Int_Tables_number  189
_chemical_formula_structural  MoPRu
_chemical_formula_sum  Mo3P3Ru3
_cell_volume  124.77789971417553
_cell_formula_units_Z  3
loop_
  _symmetry_equiv_pos_site_id
 _symmetry_equiv_pos_as_xyz
 1  'x, y, z'
loop_
 _atom_site_type_symbol
 _atom_site_label
 _atom_site_symmetry_multiplicity
 _atom_site_fract_x
 _atom_site_fract_y
 _atom_site_fract_z
 _atom_site_fract_occupancy
 Mo  Mo1  1  0.50000  0.59387  -0.00000  1
 Mo  Mo2  1  0.50000  0.40611  0.40612  1
 Mo  Mo3  1  0.50000  0.99999  0.59388  1
 P  P1  1  0.00000  0.33332  0.66667  1
 P  P2  1  0.00000  0.66666  0.33333  1
 P  P3  1  0.50000  -0.00001  0.00000  1
 Ru  Ru1  1  0.00000  0.26135  -0.00000  1
 Ru  Ru2  1  0.00000  0.73863  0.73864  1
 Ru  Ru3  1  0.00000  0.99999  0.26136  1
