CIF file written using JARVIS-Tools package.
data_S8O
_symmetry_space_group_name_H-M  'Pca2_1'
_cell_length_a       8.01077
_cell_length_b       7.98014
_cell_length_c       13.2103
_cell_angle_alpha    90
_cell_angle_beta     90
_cell_angle_gamma    90

_symmetry_Int_Tables_number  29
_chemical_formula_structural  S8O
_chemical_formula_sum  S32O4
_cell_volume  844.492508010058
_cell_formula_units_Z  4
loop_
  _symmetry_equiv_pos_site_id
 _symmetry_equiv_pos_as_xyz
 1  'x, y, z'
loop_
 _atom_site_type_symbol
 _atom_site_label
 _atom_site_symmetry_multiplicity
 _atom_site_fract_x
 _atom_site_fract_y
 _atom_site_fract_z
 _atom_site_fract_occupancy
 O  O1  1  0.19142  0.17345  0.81942  1
 O  O2  1  0.80858  0.17345  0.31942  1
 O  O3  1  0.19142  0.67345  0.68058  1
 O  O4  1  0.80858  0.67345  0.18058  1
 S  S1  1  0.98941  -0.00005  0.14514  1
 S  S2  1  0.98941  0.49995  0.35486  1
 S  S3  1  0.01059  -0.00005  0.64514  1
 S  S4  1  0.97019  0.36075  0.97844  1
 S  S5  1  0.02981  0.86075  0.02156  1
 S  S6  1  0.67687  0.24960  0.59401  1
 S  S7  1  0.97019  0.86075  0.52156  1
 S  S8  1  0.13989  0.43168  0.09243  1
 S  S9  1  0.86011  0.93168  0.90757  1
 S  S10  1  0.86011  0.43168  0.59243  1
 S  S11  1  0.13989  0.93168  0.40757  1
 S  S12  1  0.32313  0.24960  0.09401  1
 S  S13  1  0.67687  0.74960  0.90599  1
 S  S14  1  0.32313  0.74960  0.40599  1
 S  S15  1  0.01059  0.49995  0.85486  1
 S  S16  1  0.53598  0.35183  0.03255  1
 S  S17  1  0.18665  0.33550  0.76399  1
 S  S18  1  0.81335  0.83550  0.23601  1
 S  S19  1  0.81335  0.33550  0.26399  1
 S  S20  1  0.18665  0.83550  0.73601  1
 S  S21  1  0.43763  0.95828  0.70358  1
 S  S22  1  0.56237  0.45828  0.29642  1
 S  S23  1  0.46402  0.85183  0.96745  1
 S  S24  1  0.56237  0.95828  0.20358  1
 S  S25  1  0.54982  0.78015  0.62091  1
 S  S26  1  0.45018  0.28015  0.37909  1
 S  S27  1  0.45018  0.78015  0.12091  1
 S  S28  1  0.54982  0.28015  0.87909  1
 S  S29  1  0.53598  0.85183  0.46745  1
 S  S30  1  0.46402  0.35183  0.53255  1
 S  S31  1  0.43763  0.45828  0.79642  1
 S  S32  1  0.02981  0.36075  0.47844  1
