CIF file written using JARVIS-Tools package.
data_Fe3OF5
_symmetry_space_group_name_H-M  'C2/m'
_cell_length_a       7.37829
_cell_length_b       5.72821
_cell_length_c       5.72821
_cell_angle_alpha    74.4361
_cell_angle_beta     72.1949
_cell_angle_gamma    72.1949

_symmetry_Int_Tables_number  12
_chemical_formula_structural  Fe3OF5
_chemical_formula_sum  Fe6O2F0
_cell_volume  215.3436277401056
_cell_formula_units_Z  2
loop_
  _symmetry_equiv_pos_site_id
 _symmetry_equiv_pos_as_xyz
 1  'x, y, z'
loop_
 _atom_site_type_symbol
 _atom_site_label
 _atom_site_symmetry_multiplicity
 _atom_site_fract_x
 _atom_site_fract_y
 _atom_site_fract_z
 _atom_site_fract_occupancy
 F  F1  1  0.65860  0.63147  0.03989  1
 F  F2  1  0.00000  0.30525  0.69475  1
 F  F3  1  0.34140  0.36853  0.96011  1
 F  F4  1  0.30801  0.89735  0.89735  1
 F  F5  1  0.65860  0.03989  0.63147  1
 F  F6  1  0.37024  0.42595  0.42595  1
 F  F7  1  0.69199  0.10265  0.10265  1
 F  F8  1  0.34140  0.96011  0.36853  1
 F  F9  1  -0.00000  0.69475  0.30525  1
 F  F10  1  0.62976  0.57405  0.57405  1
 Fe  Fe1  1  0.00000  0.00000  0.00000  1
 Fe  Fe2  1  0.50000  0.00000  0.00000  1
 Fe  Fe3  1  0.15438  0.32166  0.32166  1
 Fe  Fe4  1  0.31061  0.66645  0.66645  1
 Fe  Fe5  1  0.68939  0.33355  0.33355  1
 Fe  Fe6  1  0.84562  0.67834  0.67834  1
 O  O1  1  0.02949  0.77664  0.77664  1
 O  O2  1  0.97051  0.22336  0.22336  1
