CIF file written using JARVIS-Tools package.
data_Sr2Co2O5
_symmetry_space_group_name_H-M  'I4/mmm'
_cell_length_a       7.19299
_cell_length_b       5.77984
_cell_length_c       5.77984
_cell_angle_alpha    67.2201
_cell_angle_beta     51.5196
_cell_angle_gamma    51.5196

_symmetry_Int_Tables_number  139
_chemical_formula_structural  Sr2Co2O5
_chemical_formula_sum  Sr2Co2O5
_cell_volume  147.2537036208868
_cell_formula_units_Z  1
loop_
  _symmetry_equiv_pos_site_id
 _symmetry_equiv_pos_as_xyz
 1  'x, y, z'
loop_
 _atom_site_type_symbol
 _atom_site_label
 _atom_site_symmetry_multiplicity
 _atom_site_fract_x
 _atom_site_fract_y
 _atom_site_fract_z
 _atom_site_fract_occupancy
 Co  Co1  1  0.00000  0.00000  0.00000  1
 Co  Co2  1  0.50000  0.00000  0.00000  1
 O  O1  1  0.50000  0.50000  0.00000  1
 O  O2  1  -0.00000  0.50000  0.00000  1
 O  O3  1  0.50000  0.00000  0.50000  1
 O  O4  1  -0.00000  0.50000  0.50000  1
 O  O5  1  -0.00000  0.00000  0.50000  1
 Sr  Sr1  1  0.30340  0.50000  0.50000  1
 Sr  Sr2  1  0.69660  0.50000  0.50000  1
