CIF file written using JARVIS-Tools package.
data_PAuClF3
_symmetry_space_group_name_H-M  'Pnma'
_cell_length_a       4.61493
_cell_length_b       5.40006
_cell_length_c       18.0652
_cell_angle_alpha    90
_cell_angle_beta     90
_cell_angle_gamma    90

_symmetry_Int_Tables_number  62
_chemical_formula_structural  PAuClF3
_chemical_formula_sum  P4Au4Cl4F2
_cell_volume  450.2016720154764
_cell_formula_units_Z  4
loop_
  _symmetry_equiv_pos_site_id
 _symmetry_equiv_pos_as_xyz
 1  'x, y, z'
loop_
 _atom_site_type_symbol
 _atom_site_label
 _atom_site_symmetry_multiplicity
 _atom_site_fract_x
 _atom_site_fract_y
 _atom_site_fract_z
 _atom_site_fract_occupancy
 Au  Au1  1  0.34914  0.75000  0.46859  1
 Au  Au2  1  0.84914  0.25000  0.03141  1
 Au  Au3  1  0.65086  0.25000  0.53141  1
 Au  Au4  1  0.15086  0.75000  0.96859  1
 Cl  Cl1  1  0.62726  0.25000  0.91725  1
 Cl  Cl2  1  0.87274  0.25000  0.41725  1
 Cl  Cl3  1  0.37274  0.75000  0.08275  1
 Cl  Cl4  1  0.12726  0.75000  0.58275  1
 F  F1  1  0.61578  0.02910  0.69608  1
 F  F2  1  0.11578  0.52910  0.80392  1
 F  F3  1  0.61578  0.47090  0.69608  1
 F  F4  1  0.88422  0.02910  0.19608  1
 F  F5  1  0.38422  0.97090  0.30392  1
 F  F6  1  0.67978  0.75000  0.82954  1
 F  F7  1  0.17978  0.25000  0.67046  1
 F  F8  1  0.88422  0.47090  0.19608  1
 F  F9  1  0.82022  0.75000  0.32954  1
 F  F10  1  0.38422  0.52910  0.30392  1
 F  F11  1  0.11578  0.97090  0.80392  1
 F  F12  1  0.32022  0.25000  0.17046  1
 P  P1  1  0.00611  0.75000  0.85244  1
 P  P2  1  0.50611  0.25000  0.64756  1
 P  P3  1  0.99389  0.25000  0.14756  1
 P  P4  1  0.49389  0.75000  0.35244  1
