CIF file written using JARVIS-Tools package.
data_Na2CrH8O8
_symmetry_space_group_name_H-M  'P2_1/c'
_cell_length_a       6.11726
_cell_length_b       11.0704
_cell_length_c       12.0983
_cell_angle_alpha    90
_cell_angle_beta     104.879
_cell_angle_gamma    90

_symmetry_Int_Tables_number  14
_chemical_formula_structural  Na2CrH8O8
_chemical_formula_sum  Na8Cr4H32O32
_cell_volume  791.8316884719975
_cell_formula_units_Z  4
loop_
  _symmetry_equiv_pos_site_id
 _symmetry_equiv_pos_as_xyz
 1  'x, y, z'
loop_
 _atom_site_type_symbol
 _atom_site_label
 _atom_site_symmetry_multiplicity
 _atom_site_fract_x
 _atom_site_fract_y
 _atom_site_fract_z
 _atom_site_fract_occupancy
 Cr  Cr1  1  0.73489  0.89883  0.26030  1
 Cr  Cr2  1  0.73489  0.60117  0.76030  1
 Cr  Cr3  1  0.26511  0.10117  0.73970  1
 Cr  Cr4  1  0.26511  0.39883  0.23970  1
 H  H1  1  0.89385  0.50936  0.30961  1
 H  H2  1  0.99212  0.20683  0.41258  1
 H  H3  1  0.10615  0.49064  0.69039  1
 H  H4  1  0.20012  0.13174  0.15346  1
 H  H5  1  0.00788  0.70683  0.08742  1
 H  H6  1  0.22386  0.80377  0.37297  1
 H  H7  1  0.79988  0.63174  0.34654  1
 H  H8  1  0.53819  0.24751  0.62935  1
 H  H9  1  0.46181  0.74751  0.87065  1
 H  H10  1  0.86416  0.52275  0.11386  1
 H  H11  1  0.86416  0.97725  0.61386  1
 H  H12  1  0.13584  0.47725  0.88614  1
 H  H13  1  0.25322  0.06095  0.51407  1
 H  H14  1  0.10615  0.00936  0.19039  1
 H  H15  1  0.20012  0.36826  0.65346  1
 H  H16  1  0.09471  0.68943  0.67596  1
 H  H17  1  0.89385  0.99064  0.80961  1
 H  H18  1  0.74678  0.56095  0.98593  1
 H  H19  1  0.90529  0.31057  0.32404  1
 H  H20  1  0.09471  0.81057  0.17596  1
 H  H21  1  0.00788  0.79317  0.58742  1
 H  H22  1  0.99212  0.29317  0.91258  1
 H  H23  1  0.90529  0.18943  0.82404  1
 H  H24  1  0.13584  0.02275  0.38614  1
 H  H25  1  0.77614  0.30377  0.12703  1
 H  H26  1  0.77614  0.19623  0.62703  1
 H  H27  1  0.22386  0.69623  0.87297  1
 H  H28  1  0.46181  0.75249  0.37065  1
 H  H29  1  0.25322  0.43905  0.01407  1
 H  H30  1  0.53819  0.25249  0.12935  1
 H  H31  1  0.79988  0.86826  0.84654  1
 H  H32  1  0.74678  0.93905  0.48593  1
 Na  Na1  1  0.24447  0.92663  0.99605  1
 Na  Na2  1  0.52385  0.17990  0.39194  1
 Na  Na3  1  0.52385  0.32010  0.89194  1
 Na  Na4  1  0.47615  0.82010  0.60806  1
 Na  Na5  1  0.24447  0.57337  0.49605  1
 Na  Na6  1  0.75553  0.07337  0.00395  1
 Na  Na7  1  0.75553  0.42663  0.50395  1
 Na  Na8  1  0.47615  0.67990  0.10806  1
 O  O1  1  0.02031  0.90632  0.28821  1
 O  O2  1  0.35209  0.49409  0.15555  1
 O  O3  1  0.64791  0.99409  0.34445  1
 O  O4  1  0.64791  0.50591  0.84445  1
 O  O5  1  0.35209  0.00591  0.65555  1
 O  O6  1  0.65932  0.75958  0.28771  1
 O  O7  1  0.62232  0.92894  0.12449  1
 O  O8  1  0.34068  0.24042  0.71229  1
 O  O9  1  0.37768  0.42894  0.37551  1
 O  O10  1  0.97969  0.09368  0.71179  1
 O  O11  1  0.62232  0.57106  0.62449  1
 O  O12  1  0.37768  0.07106  0.87551  1
 O  O13  1  0.87826  0.94424  0.87684  1
 O  O14  1  0.65932  0.74042  0.78771  1
 O  O15  1  0.02031  0.59368  0.78821  1
 O  O16  1  0.20274  0.09254  0.43476  1
 O  O17  1  0.97969  0.40632  0.21179  1
 O  O18  1  0.64975  0.24621  0.58267  1
 O  O19  1  0.12174  0.05576  0.12316  1
 O  O20  1  0.12815  0.73087  0.61017  1
 O  O21  1  0.87185  0.23087  0.88983  1
 O  O22  1  0.12815  0.76913  0.11017  1
 O  O23  1  0.35025  0.74621  0.91733  1
 O  O24  1  0.87185  0.26913  0.38983  1
 O  O25  1  0.64975  0.25379  0.08267  1
 O  O26  1  0.35025  0.75379  0.41733  1
 O  O27  1  0.20274  0.40746  0.93476  1
 O  O28  1  0.79726  0.90746  0.56524  1
 O  O29  1  0.79726  0.59254  0.06524  1
 O  O30  1  0.87826  0.55576  0.37684  1
 O  O31  1  0.34068  0.25958  0.21229  1
 O  O32  1  0.12174  0.44424  0.62316  1
