CIF file written using JARVIS-Tools package.
data_NaAlAs2O7
_symmetry_space_group_name_H-M  'P2_1/c'
_cell_length_a       6.95833
_cell_length_b       8.18318
_cell_length_c       9.62975
_cell_angle_alpha    90
_cell_angle_beta     107.061
_cell_angle_gamma    90

_symmetry_Int_Tables_number  14
_chemical_formula_structural  NaAlAs2O7
_chemical_formula_sum  Na4Al4As8O28
_cell_volume  524.1986623707593
_cell_formula_units_Z  4
loop_
  _symmetry_equiv_pos_site_id
 _symmetry_equiv_pos_as_xyz
 1  'x, y, z'
loop_
 _atom_site_type_symbol
 _atom_site_label
 _atom_site_symmetry_multiplicity
 _atom_site_fract_x
 _atom_site_fract_y
 _atom_site_fract_z
 _atom_site_fract_occupancy
 Al  Al1  1  0.72160  0.72716  0.50577  1
 Al  Al2  1  0.27840  0.27284  0.49423  1
 Al  Al3  1  0.27840  0.22716  0.99423  1
 Al  Al4  1  0.72160  0.77284  0.00577  1
 As  As1  1  0.94556  0.96481  0.79660  1
 As  As2  1  0.48707  0.58866  0.70845  1
 As  As3  1  0.94556  0.53519  0.29660  1
 As  As4  1  0.05444  0.03519  0.20340  1
 As  As5  1  0.48707  0.91134  0.20845  1
 As  As6  1  0.05444  0.46481  0.70340  1
 As  As7  1  0.51293  0.08866  0.79155  1
 As  As8  1  0.51293  0.41134  0.29155  1
 Na  Na1  1  0.19439  0.85964  0.52712  1
 Na  Na2  1  0.80561  0.14036  0.47288  1
 Na  Na3  1  0.19439  0.64036  0.02712  1
 Na  Na4  1  0.80561  0.35964  0.97288  1
 O  O1  1  0.76905  0.37042  0.28445  1
 O  O2  1  0.46554  0.09882  0.13357  1
 O  O3  1  0.09453  0.10508  0.37691  1
 O  O4  1  0.23095  0.62958  0.71555  1
 O  O5  1  0.37257  0.41068  0.11460  1
 O  O6  1  0.47968  0.24813  0.89739  1
 O  O7  1  0.47968  0.25187  0.39739  1
 O  O8  1  0.76905  0.12958  0.78445  1
 O  O9  1  0.93062  0.68386  0.41699  1
 O  O10  1  0.62743  0.91068  0.38540  1
 O  O11  1  0.90547  0.60508  0.12309  1
 O  O12  1  0.52032  0.75187  0.10261  1
 O  O13  1  0.52032  0.74813  0.60261  1
 O  O14  1  0.17116  0.06061  0.85244  1
 O  O15  1  0.53446  0.90118  0.86643  1
 O  O16  1  0.17116  0.43939  0.35244  1
 O  O17  1  0.62743  0.58932  0.88540  1
 O  O18  1  0.46554  0.40118  0.63357  1
 O  O19  1  0.90547  0.89492  0.62309  1
 O  O20  1  0.82884  0.93939  0.14756  1
 O  O21  1  0.06938  0.31614  0.58301  1
 O  O22  1  0.37257  0.08932  0.61460  1
 O  O23  1  0.82884  0.56061  0.64756  1
 O  O24  1  0.23095  0.87042  0.21555  1
 O  O25  1  0.09453  0.39492  0.87691  1
 O  O26  1  0.93062  0.81614  0.91699  1
 O  O27  1  0.06938  0.18386  0.08301  1
 O  O28  1  0.53446  0.59882  0.36643  1
