CIF file written using JARVIS-Tools package.
data_Ta2O5
_symmetry_space_group_name_H-M  'Cm'
_cell_length_a       7.04089
_cell_length_b       7.20832
_cell_length_c       7.27364
_cell_angle_alpha    117.56
_cell_angle_beta     118.947
_cell_angle_gamma    89.9991

_symmetry_Int_Tables_number  8
_chemical_formula_structural  Ta2O5
_chemical_formula_sum  Ta6O5
_cell_volume  274.19221625124345
_cell_formula_units_Z  3
loop_
  _symmetry_equiv_pos_site_id
 _symmetry_equiv_pos_as_xyz
 1  'x, y, z'
loop_
 _atom_site_type_symbol
 _atom_site_label
 _atom_site_symmetry_multiplicity
 _atom_site_fract_x
 _atom_site_fract_y
 _atom_site_fract_z
 _atom_site_fract_occupancy
 O  O1  1  0.04926  0.88585  0.09852  1
 O  O2  1  0.08385  0.65723  0.70586  1
 O  O3  1  0.44559  0.97261  0.30828  1
 O  O4  1  0.46262  0.87026  0.92525  1
 O  O5  1  0.70410  0.71377  0.40820  1
 O  O6  1  0.80899  0.29574  0.22810  1
 O  O7  1  0.86269  0.97261  0.30828  1
 O  O8  1  0.26974  0.29169  0.53948  1
 O  O9  1  0.18291  0.66431  0.36582  1
 O  O10  1  0.62201  0.65723  0.70585  1
 O  O11  1  0.55578  0.03710  0.70957  1
 O  O12  1  0.95329  0.08787  0.90659  1
 O  O13  1  0.15379  0.03710  0.70957  1
 O  O14  1  0.41911  0.29574  0.22810  1
 O  O15  1  0.82310  0.32925  0.64620  1
 Ta  Ta1  1  0.73095  0.48039  0.46190  1
 Ta  Ta2  1  0.77951  0.03341  0.55902  1
 Ta  Ta3  1  0.23395  0.98474  0.46791  1
 Ta  Ta4  1  0.76859  0.99182  0.00943  1
 Ta  Ta5  1  0.29849  0.57821  0.59698  1
 Ta  Ta6  1  0.24084  0.99183  0.00944  1
