CIF file written using JARVIS-Tools package.
data_Na2PdSe2O8
_symmetry_space_group_name_H-M  'P-1'
_cell_length_a       5.00882
_cell_length_b       6.01778
_cell_length_c       7.21611
_cell_angle_alpha    72.9939
_cell_angle_beta     86.6524
_cell_angle_gamma    70.6293

_symmetry_Int_Tables_number  2
_chemical_formula_structural  Na2PdSe2O8
_chemical_formula_sum  Na2PdSe2O8
_cell_volume  196.04273123024447
_cell_formula_units_Z  1
loop_
  _symmetry_equiv_pos_site_id
 _symmetry_equiv_pos_as_xyz
 1  'x, y, z'
loop_
 _atom_site_type_symbol
 _atom_site_label
 _atom_site_symmetry_multiplicity
 _atom_site_fract_x
 _atom_site_fract_y
 _atom_site_fract_z
 _atom_site_fract_occupancy
 Na  Na1  1  0.79875  0.26229  0.80895  1
 Na  Na2  1  0.20125  0.73771  0.19105  1
 O  O1  1  0.26229  0.78586  0.50098  1
 O  O2  1  0.79359  0.68356  0.65456  1
 O  O3  1  0.29208  0.38558  0.82353  1
 O  O4  1  0.20641  0.31644  0.34544  1
 O  O5  1  0.10399  0.85815  0.85681  1
 O  O6  1  0.89601  0.14185  0.14319  1
 O  O7  1  0.73771  0.21414  0.49902  1
 O  O8  1  0.70792  0.61442  0.17647  1
 Pd  Pd1  1  0.50000  0.00000  0.50000  1
 Se  Se1  1  0.12075  0.67875  0.71907  1
 Se  Se2  1  0.87925  0.32125  0.28093  1
