CIF file written using JARVIS-Tools package.
data_TaPbF7
_symmetry_space_group_name_H-M  'P2_1/m'
_cell_length_a       4.90896
_cell_length_b       6.81139
_cell_length_c       7.34588
_cell_angle_alpha    90
_cell_angle_beta     90
_cell_angle_gamma    93.9881

_symmetry_Int_Tables_number  11
_chemical_formula_structural  TaPbF7
_chemical_formula_sum  Ta2Pb2F4
_cell_volume  245.02796832775596
_cell_formula_units_Z  2
loop_
  _symmetry_equiv_pos_site_id
 _symmetry_equiv_pos_as_xyz
 1  'x, y, z'
loop_
 _atom_site_type_symbol
 _atom_site_label
 _atom_site_symmetry_multiplicity
 _atom_site_fract_x
 _atom_site_fract_y
 _atom_site_fract_z
 _atom_site_fract_occupancy
 F  F1  1  0.19794  0.64118  0.92466  1
 F  F2  1  0.36756  0.93985  0.25000  1
 F  F3  1  0.32036  0.20563  0.46976  1
 F  F4  1  0.67964  0.79437  0.96976  1
 F  F5  1  0.19794  0.64118  0.57534  1
 F  F6  1  0.15456  0.94904  0.75000  1
 F  F7  1  0.59408  0.51215  0.75000  1
 F  F8  1  0.63244  0.06015  0.75000  1
 F  F9  1  0.32036  0.20563  0.03024  1
 F  F10  1  0.80206  0.35882  0.42466  1
 F  F11  1  0.84544  0.05096  0.25000  1
 F  F12  1  0.80206  0.35882  0.07534  1
 F  F13  1  0.67964  0.79437  0.53024  1
 F  F14  1  0.40592  0.48785  0.25000  1
 Pb  Pb1  1  0.01957  0.31694  0.75000  1
 Pb  Pb2  1  0.98043  0.68306  0.25000  1
 Ta  Ta1  1  0.53638  0.21429  0.25000  1
 Ta  Ta2  1  0.46362  0.78571  0.75000  1
