CIF file written using JARVIS-Tools package.
data_NaLi3Si6
_symmetry_space_group_name_H-M  'Pnma'
_cell_length_a       3.80538
_cell_length_b       10.3381
_cell_length_c       17.9307
_cell_angle_alpha    90
_cell_angle_beta     90
_cell_angle_gamma    90

_symmetry_Int_Tables_number  62
_chemical_formula_structural  NaLi3Si6
_chemical_formula_sum  Na4Li2Si24
_cell_volume  705.400481636086
_cell_formula_units_Z  4
loop_
  _symmetry_equiv_pos_site_id
 _symmetry_equiv_pos_as_xyz
 1  'x, y, z'
loop_
 _atom_site_type_symbol
 _atom_site_label
 _atom_site_symmetry_multiplicity
 _atom_site_fract_x
 _atom_site_fract_y
 _atom_site_fract_z
 _atom_site_fract_occupancy
 Li  Li1  1  0.75000  0.51495  0.56794  1
 Li  Li2  1  0.25000  0.09262  0.52694  1
 Li  Li3  1  0.75000  0.98505  0.06794  1
 Li  Li4  1  0.25000  0.48505  0.43206  1
 Li  Li5  1  0.75000  0.56377  0.31316  1
 Li  Li6  1  0.25000  0.43623  0.68684  1
 Li  Li7  1  0.25000  0.06377  0.18684  1
 Li  Li8  1  0.75000  0.93623  0.81316  1
 Li  Li9  1  0.25000  0.01495  0.93206  1
 Li  Li10  1  0.75000  0.90738  0.47306  1
 Li  Li11  1  0.75000  0.59262  0.97306  1
 Li  Li12  1  0.25000  0.40738  0.02694  1
 Na  Na1  1  0.25000  0.74845  0.57580  1
 Na  Na2  1  0.25000  0.75155  0.07580  1
 Na  Na3  1  0.75000  0.24845  0.92420  1
 Na  Na4  1  0.75000  0.25155  0.42420  1
 Si  Si1  1  0.75000  0.63817  0.70452  1
 Si  Si2  1  0.25000  0.52534  0.19569  1
 Si  Si3  1  0.75000  0.47466  0.80431  1
 Si  Si4  1  0.75000  0.02534  0.30431  1
 Si  Si5  1  0.75000  0.24347  0.25130  1
 Si  Si6  1  0.25000  0.16550  0.05382  1
 Si  Si7  1  0.75000  0.83450  0.94618  1
 Si  Si8  1  0.75000  0.66550  0.44618  1
 Si  Si9  1  0.25000  0.33450  0.55382  1
 Si  Si10  1  0.25000  0.36183  0.29548  1
 Si  Si11  1  0.25000  0.97466  0.69569  1
 Si  Si12  1  0.75000  0.25937  0.11655  1
 Si  Si13  1  0.25000  0.74063  0.88345  1
 Si  Si14  1  0.75000  0.49827  0.11633  1
 Si  Si15  1  0.75000  0.25653  0.75130  1
 Si  Si16  1  0.75000  0.24063  0.61655  1
 Si  Si17  1  0.25000  0.75937  0.38345  1
 Si  Si18  1  0.25000  0.74347  0.24870  1
 Si  Si19  1  0.75000  0.86183  0.20452  1
 Si  Si20  1  0.75000  0.00173  0.61633  1
 Si  Si21  1  0.25000  0.99827  0.38367  1
 Si  Si22  1  0.25000  0.50173  0.88367  1
 Si  Si23  1  0.25000  0.13817  0.79548  1
 Si  Si24  1  0.25000  0.75653  0.74870  1
