CIF file written using JARVIS-Tools package.
data_TbPt
_symmetry_space_group_name_H-M  'Pm-3m'
_cell_length_a       4.94738
_cell_length_b       4.94634
_cell_length_c       6.99613
_cell_angle_alpha    90
_cell_angle_beta     90
_cell_angle_gamma    90

_symmetry_Int_Tables_number  221
_chemical_formula_structural  TbPt
_chemical_formula_sum  Tb4Pt4
_cell_volume  171.20513649881323
_cell_formula_units_Z  4
loop_
  _symmetry_equiv_pos_site_id
 _symmetry_equiv_pos_as_xyz
 1  'x, y, z'
loop_
 _atom_site_type_symbol
 _atom_site_label
 _atom_site_symmetry_multiplicity
 _atom_site_fract_x
 _atom_site_fract_y
 _atom_site_fract_z
 _atom_site_fract_occupancy
 Pt  Pt1  1  0.25000  0.25002  0.24985  1
 Pt  Pt2  1  0.75000  0.74998  0.75015  1
 Pt  Pt3  1  0.75000  0.75002  0.25015  1
 Pt  Pt4  1  0.25000  0.24998  0.74985  1
 Tb  Tb1  1  0.25000  0.75000  0.00002  1
 Tb  Tb2  1  0.75000  0.25000  -0.00002  1
 Tb  Tb3  1  0.75000  0.25000  0.49998  1
 Tb  Tb4  1  0.25000  0.75000  0.50002  1
