CIF file written using JARVIS-Tools package.
data_HoMnO3
_symmetry_space_group_name_H-M  'Pnma'
_cell_length_a       5.24505
_cell_length_b       5.64088
_cell_length_c       7.54081
_cell_angle_alpha    90
_cell_angle_beta     90
_cell_angle_gamma    90

_symmetry_Int_Tables_number  62
_chemical_formula_structural  HoMnO3
_chemical_formula_sum  Ho4Mn4O2
_cell_volume  223.10755607056595
_cell_formula_units_Z  4
loop_
  _symmetry_equiv_pos_site_id
 _symmetry_equiv_pos_as_xyz
 1  'x, y, z'
loop_
 _atom_site_type_symbol
 _atom_site_label
 _atom_site_symmetry_multiplicity
 _atom_site_fract_x
 _atom_site_fract_y
 _atom_site_fract_z
 _atom_site_fract_occupancy
 Ho  Ho1  1  0.98014  0.07556  0.25000  1
 Ho  Ho2  1  0.51986  0.57556  0.25000  1
 Ho  Ho3  1  0.01986  0.92444  0.75000  1
 Ho  Ho4  1  0.48014  0.42444  0.75000  1
 Mn  Mn1  1  0.50000  0.00000  0.00000  1
 Mn  Mn2  1  0.00000  0.50000  0.00000  1
 Mn  Mn3  1  0.00000  0.50000  0.50000  1
 Mn  Mn4  1  0.50000  0.00000  0.50000  1
 O  O1  1  0.19455  0.19067  0.55593  1
 O  O2  1  0.80545  0.80933  0.05593  1
 O  O3  1  0.30545  0.69067  0.94407  1
 O  O4  1  0.30545  0.69067  0.55593  1
 O  O5  1  0.80545  0.80933  0.44407  1
 O  O6  1  0.88866  0.53647  0.75000  1
 O  O7  1  0.69455  0.30933  0.05593  1
 O  O8  1  0.69455  0.30933  0.44407  1
 O  O9  1  0.11134  0.46353  0.25000  1
 O  O10  1  0.38866  0.96353  0.25000  1
 O  O11  1  0.19455  0.19067  0.94407  1
 O  O12  1  0.61134  0.03647  0.75000  1
