CIF file written using JARVIS-Tools package.
data_DyH9C5N2O8
_symmetry_space_group_name_H-M  'C2'
_cell_length_a       6.66444
_cell_length_b       6.66444
_cell_length_c       6.53317
_cell_angle_alpha    73.3069
_cell_angle_beta     106.693
_cell_angle_gamma    116.141

_symmetry_Int_Tables_number  5
_chemical_formula_structural  DyH9C5N2O8
_chemical_formula_sum  DyH9C5N2O8
_cell_volume  245.11524152619472
_cell_formula_units_Z  1
loop_
  _symmetry_equiv_pos_site_id
 _symmetry_equiv_pos_as_xyz
 1  'x, y, z'
loop_
 _atom_site_type_symbol
 _atom_site_label
 _atom_site_symmetry_multiplicity
 _atom_site_fract_x
 _atom_site_fract_y
 _atom_site_fract_z
 _atom_site_fract_occupancy
 C  C1  1  0.92832  0.92832  0.50000  1
 C  C2  1  0.93371  0.45731  0.04500  1
 C  C3  1  0.45731  0.93371  0.95500  1
 C  C4  1  0.29348  0.47376  0.70156  1
 C  C5  1  0.47376  0.29348  0.29844  1
 Dy  Dy1  1  0.99808  0.99808  0.00000  1
 H  H1  1  0.43560  0.80509  0.10718  1
 H  H2  1  0.08394  0.08394  0.50000  1
 H  H3  1  0.44798  0.47271  0.82169  1
 H  H4  1  0.47271  0.44798  0.17831  1
 H  H5  1  0.74801  0.49672  0.47445  1
 H  H6  1  0.49672  0.74801  0.52555  1
 H  H7  1  0.64598  0.20332  0.60113  1
 H  H8  1  0.20332  0.64598  0.39887  1
 H  H9  1  0.80509  0.43560  0.89282  1
 N  N1  1  0.63655  0.33200  0.47135  1
 N  N2  1  0.33200  0.63655  0.52865  1
 O  O1  1  0.01869  0.31074  0.13051  1
 O  O2  1  0.31074  0.01869  0.86949  1
 O  O3  1  0.98476  0.63253  0.12283  1
 O  O4  1  0.63253  0.98476  0.87717  1
 O  O5  1  0.83773  0.84823  0.66856  1
 O  O6  1  0.84823  0.83773  0.33144  1
 O  O7  1  0.09925  0.32879  0.73282  1
 O  O8  1  0.32879  0.09925  0.26718  1
