CIF file written using JARVIS-Tools package.
data_CuH20Se2N2O14
_symmetry_space_group_name_H-M  'P2_1/c'
_cell_length_a       6.41529
_cell_length_b       12.439
_cell_length_c       9.19567
_cell_angle_alpha    90
_cell_angle_beta     105.89
_cell_angle_gamma    90

_symmetry_Int_Tables_number  14
_chemical_formula_structural  CuH20Se2N2O14
_chemical_formula_sum  Cu2H40Se4N4O28
_cell_volume  705.7766034143353
_cell_formula_units_Z  2
loop_
  _symmetry_equiv_pos_site_id
 _symmetry_equiv_pos_as_xyz
 1  'x, y, z'
loop_
 _atom_site_type_symbol
 _atom_site_label
 _atom_site_symmetry_multiplicity
 _atom_site_fract_x
 _atom_site_fract_y
 _atom_site_fract_z
 _atom_site_fract_occupancy
 Cu  Cu1  1  0.50000  0.50000  -0.00000  1
 Cu  Cu2  1  0.50000  0.00000  0.50000  1
 H  H1  1  0.81869  0.94911  0.40133  1
 H  H2  1  0.81869  0.55089  0.90133  1
 H  H3  1  0.82389  0.09381  0.72168  1
 H  H4  1  0.18131  0.05089  0.59867  1
 H  H5  1  0.18838  0.35981  0.97906  1
 H  H6  1  0.81162  0.85981  0.52094  1
 H  H7  1  0.18838  0.14019  0.47906  1
 H  H8  1  0.50928  0.31743  0.87162  1
 H  H9  1  0.81162  0.64019  0.02094  1
 H  H10  1  0.49072  0.68257  0.12838  1
 H  H11  1  0.50928  0.18257  0.37162  1
 H  H12  1  0.44219  0.40929  0.74277  1
 H  H13  1  0.55781  0.90929  0.75723  1
 H  H14  1  0.55781  0.59071  0.25723  1
 H  H15  1  0.82389  0.40619  0.22168  1
 H  H16  1  0.17611  0.90619  0.27832  1
 H  H17  1  0.49072  0.81743  0.62838  1
 H  H18  1  0.18131  0.44911  0.09867  1
 H  H19  1  0.17611  0.59381  0.77832  1
 H  H20  1  0.44219  0.09071  0.24277  1
 H  H21  1  0.61520  0.37005  0.26992  1
 H  H22  1  0.38480  0.62995  0.73008  1
 H  H23  1  0.61520  0.12995  0.76992  1
 H  H24  1  0.88428  0.41909  0.68232  1
 H  H25  1  0.96300  0.31245  0.59165  1
 H  H26  1  0.11572  0.91909  0.81768  1
 H  H27  1  0.11572  0.58091  0.31768  1
 H  H28  1  0.88428  0.08091  0.18232  1
 H  H29  1  0.89695  0.29309  0.75596  1
 H  H30  1  0.10305  0.70691  0.24404  1
 H  H31  1  0.10305  0.79309  0.74404  1
 H  H32  1  0.70588  0.32380  0.59284  1
 H  H33  1  0.29412  0.82380  0.90716  1
 H  H34  1  0.29412  0.67620  0.40716  1
 H  H35  1  0.70588  0.17620  0.09284  1
 H  H36  1  0.03700  0.81245  0.90835  1
 H  H37  1  0.03700  0.68755  0.40835  1
 H  H38  1  0.96300  0.18755  0.09165  1
 H  H39  1  0.38480  0.87005  0.23008  1
 H  H40  1  0.89695  0.20691  0.25596  1
 N  N1  1  0.86314  0.16252  0.15738  1
 N  N2  1  0.86314  0.33748  0.65738  1
 N  N3  1  0.13686  0.66252  0.34262  1
 N  N4  1  0.13686  0.83748  0.84262  1
 O  O1  1  0.70939  0.55066  0.42383  1
 O  O2  1  0.32399  0.62309  0.81731  1
 O  O3  1  0.47991  0.31622  0.40653  1
 O  O4  1  0.52009  0.81622  0.09347  1
 O  O5  1  0.52009  0.68378  0.59347  1
 O  O6  1  0.47991  0.18378  0.90653  1
 O  O7  1  0.11728  0.43893  0.27089  1
 O  O8  1  0.88272  0.93893  0.22911  1
 O  O9  1  0.88272  0.56107  0.72911  1
 O  O10  1  0.11728  0.06107  0.77089  1
 O  O11  1  0.08474  0.26604  0.44581  1
 O  O12  1  0.91526  0.76604  0.05419  1
 O  O13  1  0.91526  0.73396  0.55419  1
 O  O14  1  0.29061  0.44934  0.57617  1
 O  O15  1  0.70939  0.94934  0.92383  1
 O  O16  1  0.67601  0.12309  0.68269  1
 O  O17  1  0.29061  0.05066  0.07617  1
 O  O18  1  0.21111  0.43853  -0.00109  1
 O  O19  1  0.78889  0.93853  0.50109  1
 O  O20  1  0.78889  0.56147  0.00109  1
 O  O21  1  0.21111  0.06147  0.49891  1
 O  O22  1  0.54113  0.39244  0.84553  1
 O  O23  1  0.45887  0.89244  0.65447  1
 O  O24  1  0.45887  0.60756  0.15447  1
 O  O25  1  0.54113  0.10756  0.34553  1
 O  O26  1  0.67601  0.37691  0.18269  1
 O  O27  1  0.32399  0.87691  0.31731  1
 O  O28  1  0.08474  0.23396  0.94581  1
 Se  Se1  1  0.24733  0.13098  0.92598  1
 Se  Se2  1  0.24733  0.36902  0.42598  1
 Se  Se3  1  0.75267  0.63098  0.57402  1
 Se  Se4  1  0.75267  0.86902  0.07402  1
