CIF file written using JARVIS-Tools package.
data_MnSi
_symmetry_space_group_name_H-M  'P2_13'
_cell_length_a       4.53509
_cell_length_b       4.53509
_cell_length_c       4.53509
_cell_angle_alpha    90
_cell_angle_beta     90
_cell_angle_gamma    90

_symmetry_Int_Tables_number  198
_chemical_formula_structural  MnSi
_chemical_formula_sum  Mn4Si4
_cell_volume  93.27356210523423
_cell_formula_units_Z  4
loop_
  _symmetry_equiv_pos_site_id
 _symmetry_equiv_pos_as_xyz
 1  'x, y, z'
loop_
 _atom_site_type_symbol
 _atom_site_label
 _atom_site_symmetry_multiplicity
 _atom_site_fract_x
 _atom_site_fract_y
 _atom_site_fract_z
 _atom_site_fract_occupancy
 Mn  Mn1  1  0.36421  0.86421  0.63579  1
 Mn  Mn2  1  0.86421  0.63579  0.36421  1
 Mn  Mn3  1  0.63579  0.36421  0.86421  1
 Mn  Mn4  1  0.13579  0.13579  0.13579  1
 Si  Si1  1  0.65540  0.15540  0.34460  1
 Si  Si2  1  0.15540  0.34460  0.65540  1
 Si  Si3  1  0.34460  0.65540  0.15540  1
 Si  Si4  1  0.84460  0.84460  0.84460  1
