CIF file written using JARVIS-Tools package.
data_KBaPS4
_symmetry_space_group_name_H-M  'Pnma'
_cell_length_a       6.69572
_cell_length_b       9.90785
_cell_length_c       11.6976
_cell_angle_alpha    90
_cell_angle_beta     90
_cell_angle_gamma    90

_symmetry_Int_Tables_number  62
_chemical_formula_structural  KBaPS4
_chemical_formula_sum  K4Ba4P4S6
_cell_volume  776.0216268048404
_cell_formula_units_Z  4
loop_
  _symmetry_equiv_pos_site_id
 _symmetry_equiv_pos_as_xyz
 1  'x, y, z'
loop_
 _atom_site_type_symbol
 _atom_site_label
 _atom_site_symmetry_multiplicity
 _atom_site_fract_x
 _atom_site_fract_y
 _atom_site_fract_z
 _atom_site_fract_occupancy
 Ba  Ba1  1  0.25000  0.88772  0.14470  1
 Ba  Ba2  1  0.75000  0.38772  0.35530  1
 Ba  Ba3  1  0.25000  0.61228  0.64470  1
 Ba  Ba4  1  0.75000  0.11228  0.85530  1
 K  K1  1  0.25000  0.33382  0.10864  1
 K  K2  1  0.75000  0.66618  0.89136  1
 K  K3  1  0.75000  0.83382  0.39136  1
 K  K4  1  0.25000  0.16618  0.60864  1
 P  P1  1  0.25000  0.89697  0.81787  1
 P  P2  1  0.75000  0.39697  0.68213  1
 P  P3  1  0.25000  0.60303  0.31787  1
 P  P4  1  0.75000  0.10303  0.18213  1
 S  S1  1  0.75000  0.92742  0.08520  1
 S  S2  1  0.75000  0.57258  0.58520  1
 S  S3  1  0.25000  0.77707  0.41558  1
 S  S4  1  0.00121  0.89201  0.71530  1
 S  S5  1  0.75000  0.27707  0.08442  1
 S  S6  1  0.25000  0.72293  0.91558  1
 S  S7  1  0.99879  0.10799  0.28470  1
 S  S8  1  0.49879  0.60799  0.21530  1
 S  S9  1  0.25000  0.07258  0.91480  1
 S  S10  1  0.50121  0.39201  0.78470  1
 S  S11  1  0.50121  0.10799  0.28470  1
 S  S12  1  0.99879  0.39201  0.78470  1
 S  S13  1  0.49879  0.89201  0.71530  1
 S  S14  1  0.25000  0.42742  0.41480  1
 S  S15  1  0.00121  0.60799  0.21530  1
 S  S16  1  0.75000  0.22293  0.58442  1
