CIF file written using JARVIS-Tools package.
data_ZrH6O3F4
_symmetry_space_group_name_H-M  'P-1'
_cell_length_a       5.79814
_cell_length_b       6.73706
_cell_length_c       7.62849
_cell_angle_alpha    91.4203
_cell_angle_beta     104.044
_cell_angle_gamma    117.764

_symmetry_Int_Tables_number  2
_chemical_formula_structural  ZrH6O3F4
_chemical_formula_sum  Zr2H2O6F8
_cell_volume  252.4801681972686
_cell_formula_units_Z  2
loop_
  _symmetry_equiv_pos_site_id
 _symmetry_equiv_pos_as_xyz
 1  'x, y, z'
loop_
 _atom_site_type_symbol
 _atom_site_label
 _atom_site_symmetry_multiplicity
 _atom_site_fract_x
 _atom_site_fract_y
 _atom_site_fract_z
 _atom_site_fract_occupancy
 F  F1  1  0.53992  0.28867  0.47781  1
 F  F2  1  0.94361  0.10420  0.65162  1
 F  F3  1  0.82336  -0.00703  0.06025  1
 F  F4  1  0.17664  0.00703  0.93975  1
 F  F5  1  0.25146  0.41497  0.10322  1
 F  F6  1  0.74854  0.58503  0.89678  1
 F  F7  1  0.46008  0.71133  0.52219  1
 F  F8  1  0.05639  0.89580  0.34838  1
 H  H1  1  0.98314  0.78219  0.51653  1
 H  H2  1  0.01686  0.21781  0.48347  1
 H  H3  1  0.58227  0.93147  0.17238  1
 H  H4  1  0.21778  0.46017  0.44063  1
 H  H5  1  0.41773  0.06853  0.82762  1
 H  H6  1  0.82811  0.33965  0.23359  1
 H  H7  1  0.17189  0.66035  0.76641  1
 H  H8  1  0.70579  0.44733  0.06931  1
 H  H9  1  0.29421  0.55267  0.93069  1
 H  H10  1  0.45163  0.83620  0.33795  1
 H  H11  1  0.54837  0.16380  0.66205  1
 H  H12  1  0.78222  0.53983  0.55937  1
 O  O1  1  0.55166  0.07744  0.76502  1
 O  O2  1  0.07572  0.30148  0.38142  1
 O  O3  1  0.44834  0.92256  0.23498  1
 O  O4  1  0.33304  0.64651  0.83197  1
 O  O5  1  0.66696  0.35349  0.16803  1
 O  O6  1  0.92428  0.69852  0.61858  1
 Zr  Zr1  1  0.26393  0.15124  0.21825  1
 Zr  Zr2  1  0.73607  0.84876  0.78175  1
