CIF file written using JARVIS-Tools package.
data_K2HgCl4
_symmetry_space_group_name_H-M  'Pnma'
_cell_length_a       7.82692
_cell_length_b       9.53985
_cell_length_c       11.6635
_cell_angle_alpha    90
_cell_angle_beta     90
_cell_angle_gamma    90

_symmetry_Int_Tables_number  62
_chemical_formula_structural  K2HgCl4
_chemical_formula_sum  K8Hg4Cl6
_cell_volume  870.8835806909702
_cell_formula_units_Z  4
loop_
  _symmetry_equiv_pos_site_id
 _symmetry_equiv_pos_as_xyz
 1  'x, y, z'
loop_
 _atom_site_type_symbol
 _atom_site_label
 _atom_site_symmetry_multiplicity
 _atom_site_fract_x
 _atom_site_fract_y
 _atom_site_fract_z
 _atom_site_fract_occupancy
 Cl  Cl1  1  0.25042  0.00150  0.23429  1
 Cl  Cl2  1  0.75042  0.50150  0.26571  1
 Cl  Cl3  1  0.74958  0.50150  0.76571  1
 Cl  Cl4  1  0.74958  -0.00150  0.76571  1
 Cl  Cl5  1  0.75004  0.75000  0.01788  1
 Cl  Cl6  1  0.25004  0.75000  0.97462  1
 Cl  Cl7  1  0.24958  0.49850  0.73429  1
 Cl  Cl8  1  0.74996  0.25000  0.02538  1
 Cl  Cl9  1  0.24996  0.25000  0.98212  1
 Cl  Cl10  1  0.75042  -0.00150  0.26571  1
 Cl  Cl11  1  0.24958  0.00150  0.73429  1
 Cl  Cl12  1  0.74996  0.75000  0.51788  1
 Cl  Cl13  1  0.75004  0.25000  0.52538  1
 Cl  Cl14  1  0.25004  0.25000  0.48212  1
 Cl  Cl15  1  0.24996  0.75000  0.47462  1
 Cl  Cl16  1  0.25042  0.49850  0.23429  1
 Hg  Hg1  1  0.25042  0.25000  0.23488  1
 Hg  Hg2  1  0.74958  0.75000  0.76512  1
 Hg  Hg3  1  0.75042  0.75000  0.26512  1
 Hg  Hg4  1  0.24958  0.25000  0.73488  1
 K  K1  1  0.50000  0.00000  0.00000  1
 K  K2  1  0.50000  0.50000  0.50000  1
 K  K3  1  0.00000  0.00000  0.50000  1
 K  K4  1  0.50000  0.00000  0.50000  1
 K  K5  1  0.00000  0.50000  0.00000  1
 K  K6  1  0.50000  0.50000  0.00000  1
 K  K7  1  0.00000  0.00000  0.00000  1
 K  K8  1  0.00000  0.50000  0.50000  1
