CIF file written using JARVIS-Tools package.
data_HoBrO
_symmetry_space_group_name_H-M  'R-3m'
_cell_length_a       10.097
_cell_length_b       10.097
_cell_length_c       10.097
_cell_angle_alpha    21.7583
_cell_angle_beta     21.7583
_cell_angle_gamma    21.7583

_symmetry_Int_Tables_number  166
_chemical_formula_structural  HoBrO
_chemical_formula_sum  Ho2Br2O2
_cell_volume  123.9699080623719
_cell_formula_units_Z  2
loop_
  _symmetry_equiv_pos_site_id
 _symmetry_equiv_pos_as_xyz
 1  'x, y, z'
loop_
 _atom_site_type_symbol
 _atom_site_label
 _atom_site_symmetry_multiplicity
 _atom_site_fract_x
 _atom_site_fract_y
 _atom_site_fract_z
 _atom_site_fract_occupancy
 Br  Br1  1  0.38723  0.38723  0.38723  1
 Br  Br2  1  0.61277  0.61277  0.61277  1
 Ho  Ho1  1  0.11869  0.11869  0.11869  1
 Ho  Ho2  1  0.88131  0.88131  0.88131  1
 O  O1  1  0.80457  0.80457  0.80457  1
 O  O2  1  0.19543  0.19543  0.19543  1
