CIF file written using JARVIS-Tools package.
data_USbRu
_symmetry_space_group_name_H-M  'P-62m'
_cell_length_a       3.96841
_cell_length_b       7.41031
_cell_length_c       7.411
_cell_angle_alpha    119.997
_cell_angle_beta     90
_cell_angle_gamma    90

_symmetry_Int_Tables_number  189
_chemical_formula_structural  USbRu
_chemical_formula_sum  U3Sb3Ru3
_cell_volume  188.74436043021058
_cell_formula_units_Z  3
loop_
  _symmetry_equiv_pos_site_id
 _symmetry_equiv_pos_as_xyz
 1  'x, y, z'
loop_
 _atom_site_type_symbol
 _atom_site_label
 _atom_site_symmetry_multiplicity
 _atom_site_fract_x
 _atom_site_fract_y
 _atom_site_fract_z
 _atom_site_fract_occupancy
 Ru  Ru1  1  0.00000  0.33327  0.66667  1
 Ru  Ru2  1  0.00000  0.66660  0.33333  1
 Ru  Ru3  1  0.50000  -0.00001  0.00000  1
 Sb  Sb1  1  0.00000  0.26000  -0.00000  1
 Sb  Sb2  1  0.00000  0.73997  0.73998  1
 Sb  Sb3  1  0.00000  -0.00002  0.26002  1
 U  U1  1  0.50000  0.59045  -0.00000  1
 U  U2  1  0.50000  0.40958  0.40951  1
 U  U3  1  0.50000  0.00007  0.59049  1
