CIF file written using JARVIS-Tools package.
data_SICl7
_symmetry_space_group_name_H-M  'P2_1/c'
_cell_length_a       8.1349
_cell_length_b       10.3909
_cell_length_c       12.4497
_cell_angle_alpha    90
_cell_angle_beta     90
_cell_angle_gamma    109.315

_symmetry_Int_Tables_number  14
_chemical_formula_structural  SICl7
_chemical_formula_sum  S4I4Cl28
_cell_volume  993.1284692428992
_cell_formula_units_Z  4
loop_
  _symmetry_equiv_pos_site_id
 _symmetry_equiv_pos_as_xyz
 1  'x, y, z'
loop_
 _atom_site_type_symbol
 _atom_site_label
 _atom_site_symmetry_multiplicity
 _atom_site_fract_x
 _atom_site_fract_y
 _atom_site_fract_z
 _atom_site_fract_occupancy
 Cl  Cl1  1  0.33828  0.42633  0.74877  1
 Cl  Cl2  1  0.86331  0.10703  0.06131  1
 Cl  Cl3  1  0.36331  0.10703  0.43869  1
 Cl  Cl4  1  0.13669  0.89297  0.93869  1
 Cl  Cl5  1  0.80205  0.25673  0.55145  1
 Cl  Cl6  1  0.69795  0.74327  0.05145  1
 Cl  Cl7  1  0.42488  0.10539  0.72474  1
 Cl  Cl8  1  0.63669  0.89297  0.56131  1
 Cl  Cl9  1  0.30205  0.25673  0.94855  1
 Cl  Cl10  1  0.73222  0.71548  0.80097  1
 Cl  Cl11  1  0.23222  0.71548  0.69903  1
 Cl  Cl12  1  0.26778  0.28452  0.19903  1
 Cl  Cl13  1  0.97108  0.09874  0.39284  1
 Cl  Cl14  1  0.52892  0.90126  0.89284  1
 Cl  Cl15  1  0.02892  0.90126  0.60716  1
 Cl  Cl16  1  0.76778  0.28452  0.30097  1
 Cl  Cl17  1  0.16172  0.57367  0.24877  1
 Cl  Cl18  1  0.19795  0.74327  0.44855  1
 Cl  Cl19  1  0.83828  0.42633  0.75123  1
 Cl  Cl20  1  0.92488  0.10539  0.77526  1
 Cl  Cl21  1  0.57512  0.89461  0.27526  1
 Cl  Cl22  1  0.07512  0.89461  0.22474  1
 Cl  Cl23  1  0.73584  0.57743  0.53512  1
 Cl  Cl24  1  0.47108  0.09874  0.10716  1
 Cl  Cl25  1  0.26416  0.42257  0.46488  1
 Cl  Cl26  1  0.23584  0.57743  0.96488  1
 Cl  Cl27  1  0.66172  0.57367  0.25123  1
 Cl  Cl28  1  0.76416  0.42257  0.03512  1
 I  I1  1  0.15461  0.72805  0.09692  1
 I  I2  1  0.34539  0.27195  0.59692  1
 I  I3  1  0.65461  0.72805  0.40308  1
 I  I4  1  0.84539  0.27195  0.90308  1
 S  S1  1  0.25689  0.86108  0.58407  1
 S  S2  1  0.75689  0.86108  0.91593  1
 S  S3  1  0.74311  0.13892  0.41593  1
 S  S4  1  0.24311  0.13892  0.08407  1
