CIF file written using JARVIS-Tools package.
data_BeCo4Se
_symmetry_space_group_name_H-M  'F-43m'
_cell_length_a       4.73627
_cell_length_b       4.73627
_cell_length_c       4.73627
_cell_angle_alpha    60
_cell_angle_beta     60
_cell_angle_gamma    60

_symmetry_Int_Tables_number  216
_chemical_formula_structural  BeCo4Se
_chemical_formula_sum  BeCo4Se
_cell_volume  75.12658163715054
_cell_formula_units_Z  1
loop_
  _symmetry_equiv_pos_site_id
 _symmetry_equiv_pos_as_xyz
 1  'x, y, z'
loop_
 _atom_site_type_symbol
 _atom_site_label
 _atom_site_symmetry_multiplicity
 _atom_site_fract_x
 _atom_site_fract_y
 _atom_site_fract_z
 _atom_site_fract_occupancy
 Be  Be1  1  0.00000  0.00000  0.00000  1
 Co  Co1  1  0.12337  0.62554  0.62554  1
 Co  Co2  1  0.62554  0.62554  0.62554  1
 Co  Co3  1  0.62554  0.12337  0.62554  1
 Co  Co4  1  0.62554  0.62554  0.12337  1
 Se  Se1  1  0.25000  0.25000  0.25000  1
