CIF file written using JARVIS-Tools package.
data_Dy3Co
_symmetry_space_group_name_H-M  'Pnma'
_cell_length_a       6.17012
_cell_length_b       6.8567
_cell_length_c       9.34313
_cell_angle_alpha    90
_cell_angle_beta     90
_cell_angle_gamma    90

_symmetry_Int_Tables_number  62
_chemical_formula_structural  Dy3Co
_chemical_formula_sum  Dy2Co4
_cell_volume  395.27671555245416
_cell_formula_units_Z  4
loop_
  _symmetry_equiv_pos_site_id
 _symmetry_equiv_pos_as_xyz
 1  'x, y, z'
loop_
 _atom_site_type_symbol
 _atom_site_label
 _atom_site_symmetry_multiplicity
 _atom_site_fract_x
 _atom_site_fract_y
 _atom_site_fract_z
 _atom_site_fract_occupancy
 Co  Co1  1  0.55152  0.61274  0.75000  1
 Co  Co2  1  0.94848  0.11274  0.75000  1
 Co  Co3  1  0.05152  0.88726  0.25000  1
 Co  Co4  1  0.44848  0.38726  0.25000  1
 Dy  Dy1  1  0.14209  0.45861  0.75000  1
 Dy  Dy2  1  0.67584  0.32459  0.93283  1
 Dy  Dy3  1  0.35791  0.95861  0.75000  1
 Dy  Dy4  1  0.85791  0.54139  0.25000  1
 Dy  Dy5  1  0.64209  0.04139  0.25000  1
 Dy  Dy6  1  0.17584  0.17541  0.43283  1
 Dy  Dy7  1  0.82416  0.82459  0.56717  1
 Dy  Dy8  1  0.17584  0.17541  0.06717  1
 Dy  Dy9  1  0.82416  0.82459  0.93283  1
 Dy  Dy10  1  0.67584  0.32459  0.56717  1
 Dy  Dy11  1  0.32416  0.67541  0.06717  1
 Dy  Dy12  1  0.32416  0.67541  0.43283  1
