CIF file written using JARVIS-Tools package.
data_Li3VF6
_symmetry_space_group_name_H-M  'R-3'
_cell_length_a       5.95337
_cell_length_b       5.95337
_cell_length_c       5.95337
_cell_angle_alpha    91.5029
_cell_angle_beta     91.5029
_cell_angle_gamma    91.5028

_symmetry_Int_Tables_number  148
_chemical_formula_structural  Li3VF6
_chemical_formula_sum  Li6V2F2
_cell_volume  210.7811131513837
_cell_formula_units_Z  2
loop_
  _symmetry_equiv_pos_site_id
 _symmetry_equiv_pos_as_xyz
 1  'x, y, z'
loop_
 _atom_site_type_symbol
 _atom_site_label
 _atom_site_symmetry_multiplicity
 _atom_site_fract_x
 _atom_site_fract_y
 _atom_site_fract_z
 _atom_site_fract_occupancy
 F  F1  1  0.30544  0.08678  0.92467  1
 F  F2  1  0.08678  0.92467  0.30544  1
 F  F3  1  0.92467  0.30544  0.08678  1
 F  F4  1  0.45022  0.80731  0.60547  1
 F  F5  1  0.69456  0.91322  0.07533  1
 F  F6  1  0.07533  0.69456  0.91322  1
 F  F7  1  0.39453  0.54978  0.19269  1
 F  F8  1  0.60547  0.45022  0.80731  1
 F  F9  1  0.80731  0.60547  0.45022  1
 F  F10  1  0.91322  0.07533  0.69456  1
 F  F11  1  0.54978  0.19269  0.39453  1
 F  F12  1  0.19269  0.39453  0.54978  1
 Li  Li1  1  0.93980  0.44491  0.74866  1
 Li  Li2  1  0.55509  0.25134  0.06020  1
 Li  Li3  1  0.25134  0.06020  0.55509  1
 Li  Li4  1  0.74866  0.93980  0.44491  1
 Li  Li5  1  0.44491  0.74866  0.93980  1
 Li  Li6  1  0.06020  0.55509  0.25134  1
 V  V1  1  0.00000  0.00000  0.00000  1
 V  V2  1  0.50000  0.50000  0.50000  1
