CIF file written using JARVIS-Tools package.
data_BaSc2Te4
_symmetry_space_group_name_H-M  'Pnma'
_cell_length_a       4.29721
_cell_length_b       13.3999
_cell_length_c       15.6403
_cell_angle_alpha    90
_cell_angle_beta     90
_cell_angle_gamma    90

_symmetry_Int_Tables_number  62
_chemical_formula_structural  BaSc2Te4
_chemical_formula_sum  Ba4Sc8Te6
_cell_volume  900.6077251724446
_cell_formula_units_Z  4
loop_
  _symmetry_equiv_pos_site_id
 _symmetry_equiv_pos_as_xyz
 1  'x, y, z'
loop_
 _atom_site_type_symbol
 _atom_site_label
 _atom_site_symmetry_multiplicity
 _atom_site_fract_x
 _atom_site_fract_y
 _atom_site_fract_z
 _atom_site_fract_occupancy
 Ba  Ba1  1  0.75000  0.76268  0.32777  1
 Ba  Ba2  1  0.75000  0.26268  0.17223  1
 Ba  Ba3  1  0.25000  0.73732  0.82777  1
 Ba  Ba4  1  0.25000  0.23732  0.67223  1
 Sc  Sc1  1  0.25000  0.08040  0.40352  1
 Sc  Sc2  1  0.75000  0.44399  0.39037  1
 Sc  Sc3  1  0.75000  0.94399  0.10963  1
 Sc  Sc4  1  0.25000  0.55601  0.60963  1
 Sc  Sc5  1  0.25000  0.05601  0.89037  1
 Sc  Sc6  1  0.75000  0.41960  0.90352  1
 Sc  Sc7  1  0.25000  0.58040  0.09648  1
 Sc  Sc8  1  0.75000  0.91960  0.59648  1
 Te  Te1  1  0.75000  0.41185  0.57365  1
 Te  Te2  1  0.75000  0.52836  0.21553  1
 Te  Te3  1  0.25000  0.47164  0.78447  1
 Te  Te4  1  0.75000  0.02836  0.28447  1
 Te  Te5  1  0.25000  0.97164  0.71553  1
 Te  Te6  1  0.75000  0.91185  0.92635  1
 Te  Te7  1  0.25000  0.58815  0.42635  1
 Te  Te8  1  0.75000  0.12186  0.52627  1
 Te  Te9  1  0.75000  0.20299  0.85100  1
 Te  Te10  1  0.25000  0.79701  0.14900  1
 Te  Te11  1  0.75000  0.62186  0.97373  1
 Te  Te12  1  0.25000  0.37814  0.02627  1
 Te  Te13  1  0.75000  0.70299  0.64900  1
 Te  Te14  1  0.25000  0.87814  0.47373  1
 Te  Te15  1  0.25000  0.29701  0.35100  1
 Te  Te16  1  0.25000  0.08815  0.07365  1
