CIF file written using JARVIS-Tools package.
data_Tl2Cr3O12
_symmetry_space_group_name_H-M  'Pbcn'
_cell_length_a       8.80319
_cell_length_b       8.71092
_cell_length_c       13.0104
_cell_angle_alpha    90
_cell_angle_beta     90
_cell_angle_gamma    90

_symmetry_Int_Tables_number  60
_chemical_formula_structural  Tl2Cr3O12
_chemical_formula_sum  Tl8Cr2O48
_cell_volume  997.6873326000215
_cell_formula_units_Z  4
loop_
  _symmetry_equiv_pos_site_id
 _symmetry_equiv_pos_as_xyz
 1  'x, y, z'
loop_
 _atom_site_type_symbol
 _atom_site_label
 _atom_site_symmetry_multiplicity
 _atom_site_fract_x
 _atom_site_fract_y
 _atom_site_fract_z
 _atom_site_fract_occupancy
 Cr  Cr1  1  0.52519  0.11982  0.16737  1
 Cr  Cr2  1  0.97481  0.61982  0.66737  1
 Cr  Cr3  1  0.47481  0.88018  0.83263  1
 Cr  Cr4  1  0.52519  0.61982  0.33263  1
 Cr  Cr5  1  0.02519  0.88018  0.16737  1
 Cr  Cr6  1  0.02519  0.38018  0.33263  1
 Cr  Cr7  1  0.25000  0.88621  0.50000  1
 Cr  Cr8  1  0.47481  0.38018  0.66737  1
 Cr  Cr9  1  0.75000  0.61379  0.00000  1
 Cr  Cr10  1  0.97481  0.11982  0.83263  1
 Cr  Cr11  1  0.75000  0.11379  0.50000  1
 Cr  Cr12  1  0.25000  0.38621  0.00000  1
 O  O1  1  0.35419  0.27262  0.92438  1
 O  O2  1  0.08894  0.51026  0.59657  1
 O  O3  1  0.58894  0.98974  0.90343  1
 O  O4  1  0.58894  0.48974  0.59657  1
 O  O5  1  0.08894  0.01026  0.90343  1
 O  O6  1  0.91106  0.48974  0.40343  1
 O  O7  1  0.41106  0.01026  0.09657  1
 O  O8  1  0.63800  0.00592  0.57185  1
 O  O9  1  0.91106  0.98974  0.09657  1
 O  O10  1  0.37111  0.98326  0.76015  1
 O  O11  1  0.41106  0.51026  0.40343  1
 O  O12  1  0.14581  0.27262  0.07562  1
 O  O13  1  0.85419  0.22738  0.57562  1
 O  O14  1  0.63948  0.72718  0.41564  1
 O  O15  1  0.13948  0.77282  0.08436  1
 O  O16  1  0.86052  0.72718  0.58436  1
 O  O17  1  0.36052  0.77282  0.91564  1
 O  O18  1  0.13800  0.49408  0.92815  1
 O  O19  1  0.36052  0.27282  0.58436  1
 O  O20  1  0.86052  0.22718  0.91564  1
 O  O21  1  0.13948  0.27282  0.41564  1
 O  O22  1  0.63948  0.22718  0.08436  1
 O  O23  1  0.62889  0.01674  0.23985  1
 O  O24  1  0.12889  0.48326  0.26015  1
 O  O25  1  0.87111  0.01674  0.76015  1
 O  O26  1  0.64581  0.22738  0.42438  1
 O  O27  1  0.86200  0.00592  0.42815  1
 O  O28  1  0.87111  0.51674  0.73985  1
 O  O29  1  0.36200  -0.00592  0.42815  1
 O  O30  1  0.62889  0.51674  0.26015  1
 O  O31  1  0.41608  0.73746  0.26256  1
 O  O32  1  0.91608  0.76254  0.23744  1
 O  O33  1  0.08392  0.73746  0.73744  1
 O  O34  1  0.58392  0.76254  0.76256  1
 O  O35  1  0.36200  0.49408  0.07185  1
 O  O36  1  0.41608  0.23746  0.23744  1
 O  O37  1  0.91608  0.26254  0.26256  1
 O  O38  1  0.35419  0.77262  0.57562  1
 O  O39  1  0.58392  0.26254  0.73744  1
 O  O40  1  0.14581  0.77262  0.42438  1
 O  O41  1  0.12889  0.98326  0.23985  1
 O  O42  1  0.08392  0.23746  0.76256  1
 O  O43  1  0.64581  0.72738  0.07562  1
 O  O44  1  0.63800  0.50592  0.92815  1
 O  O45  1  0.37111  0.48326  0.73985  1
 O  O46  1  0.13800  -0.00592  0.57185  1
 O  O47  1  0.86200  0.50592  0.07185  1
 O  O48  1  0.85419  0.72738  0.92438  1
 Tl  Tl1  1  0.60328  0.74791  0.59307  1
 Tl  Tl2  1  0.10328  0.75209  0.90693  1
 Tl  Tl3  1  0.89672  0.74791  0.40693  1
 Tl  Tl4  1  0.39672  0.75209  0.09307  1
 Tl  Tl5  1  0.39672  0.25209  0.40693  1
 Tl  Tl6  1  0.89672  0.24791  0.09307  1
 Tl  Tl7  1  0.10328  0.25209  0.59307  1
 Tl  Tl8  1  0.60328  0.24791  0.90693  1
