CIF file written using JARVIS-Tools package.
data_Np2S3
_symmetry_space_group_name_H-M  'Pnma'
_cell_length_a       3.87628
_cell_length_b       10.3838
_cell_length_c       10.5639
_cell_angle_alpha    90
_cell_angle_beta     90
_cell_angle_gamma    90

_symmetry_Int_Tables_number  62
_chemical_formula_structural  Np2S3
_chemical_formula_sum  Np8S2
_cell_volume  425.20500801552436
_cell_formula_units_Z  4
loop_
  _symmetry_equiv_pos_site_id
 _symmetry_equiv_pos_as_xyz
 1  'x, y, z'
loop_
 _atom_site_type_symbol
 _atom_site_label
 _atom_site_symmetry_multiplicity
 _atom_site_fract_x
 _atom_site_fract_y
 _atom_site_fract_z
 _atom_site_fract_occupancy
 Np  Np1  1  0.25000  0.31664  0.99187  1
 Np  Np2  1  0.75000  0.68336  0.00813  1
 Np  Np3  1  0.75000  0.81664  0.50813  1
 Np  Np4  1  0.25000  0.18336  0.49187  1
 Np  Np5  1  0.25000  0.50810  0.31279  1
 Np  Np6  1  0.75000  0.49190  0.68721  1
 Np  Np7  1  0.75000  0.00810  0.18721  1
 Np  Np8  1  0.25000  0.99190  0.81279  1
 S  S1  1  0.25000  0.86947  0.05057  1
 S  S2  1  0.75000  0.70318  0.27177  1
 S  S3  1  0.75000  0.36947  0.44943  1
 S  S4  1  0.25000  0.63053  0.55057  1
 S  S5  1  0.75000  0.13053  0.94943  1
 S  S6  1  0.25000  0.20318  0.22823  1
 S  S7  1  0.75000  0.05556  0.62501  1
 S  S8  1  0.25000  0.94444  0.37499  1
 S  S9  1  0.25000  0.55556  0.87499  1
 S  S10  1  0.75000  0.79682  0.77177  1
 S  S11  1  0.75000  0.44444  0.12501  1
 S  S12  1  0.25000  0.29682  0.72823  1
