CIF file written using JARVIS-Tools package.
data_Ba2Mn2Se2OF2
_symmetry_space_group_name_H-M  'I4/mmm'
_cell_length_a       4.28652
_cell_length_b       4.28652
_cell_length_c       10.2744
_cell_angle_alpha    102.04
_cell_angle_beta     102.04
_cell_angle_gamma    90

_symmetry_Int_Tables_number  139
_chemical_formula_structural  Ba2Mn2Se2OF2
_chemical_formula_sum  Ba2Mn2Se2OF2
_cell_volume  180.38250879079345
_cell_formula_units_Z  1
loop_
  _symmetry_equiv_pos_site_id
 _symmetry_equiv_pos_as_xyz
 1  'x, y, z'
loop_
 _atom_site_type_symbol
 _atom_site_label
 _atom_site_symmetry_multiplicity
 _atom_site_fract_x
 _atom_site_fract_y
 _atom_site_fract_z
 _atom_site_fract_occupancy
 Ba  Ba1  1  0.32968  0.32968  0.65937  1
 Ba  Ba2  1  0.67032  0.67032  0.34063  1
 F  F1  1  0.75000  0.25000  0.50000  1
 F  F2  1  0.25000  0.75000  0.50000  1
 Mn  Mn1  1  0.00000  0.50000  0.00000  1
 Mn  Mn2  1  0.50000  0.00000  0.00000  1
 O  O1  1  0.50000  0.50000  0.00000  1
 Se  Se1  1  0.90726  0.90726  0.81451  1
 Se  Se2  1  0.09274  0.09274  0.18549  1
