CIF file written using JARVIS-Tools package.
data_V2O3F
_symmetry_space_group_name_H-M  'Amm2'
_cell_length_a       4.65639
_cell_length_b       4.65639
_cell_length_c       8.74276
_cell_angle_alpha    90
_cell_angle_beta     90
_cell_angle_gamma    93.3306

_symmetry_Int_Tables_number  38
_chemical_formula_structural  V2O3F
_chemical_formula_sum  V6O9F3
_cell_volume  189.2397427337108
_cell_formula_units_Z  3
loop_
  _symmetry_equiv_pos_site_id
 _symmetry_equiv_pos_as_xyz
 1  'x, y, z'
loop_
 _atom_site_type_symbol
 _atom_site_label
 _atom_site_symmetry_multiplicity
 _atom_site_fract_x
 _atom_site_fract_y
 _atom_site_fract_z
 _atom_site_fract_occupancy
 F  F1  1  0.79538  0.20462  0.50110  1
 F  F2  1  0.79538  0.20462  0.83223  1
 F  F3  1  0.20415  0.79585  0.16667  1
 O  O1  1  0.29369  0.30217  0.66667  1
 O  O2  1  0.19818  0.80182  0.50124  1
 O  O3  1  0.19818  0.80182  0.83209  1
 O  O4  1  0.30296  0.29956  0.33270  1
 O  O5  1  0.30296  0.29956  0.00063  1
 O  O6  1  0.70044  0.69704  0.00063  1
 O  O7  1  0.70044  0.69704  0.33270  1
 O  O8  1  0.80717  0.19283  0.16667  1
 O  O9  1  0.69783  0.70631  0.66667  1
 V  V1  1  0.47242  0.52758  0.50118  1
 V  V2  1  0.47242  0.52758  0.83215  1
 V  V3  1  0.53803  0.46197  0.16667  1
 V  V4  1  0.02184  0.97816  0.66667  1
 V  V5  1  -0.00074  0.00074  0.33479  1
 V  V6  1  -0.00074  0.00074  0.99854  1
