CIF file written using JARVIS-Tools package.
data_TbCrO4
_symmetry_space_group_name_H-M  'I4_1/amd'
_cell_length_a       5.96201
_cell_length_b       5.96201
_cell_length_c       5.96202
_cell_angle_alpha    106.158
_cell_angle_beta     106.158
_cell_angle_gamma    116.322

_symmetry_Int_Tables_number  141
_chemical_formula_structural  TbCrO4
_chemical_formula_sum  Tb2Cr2O8
_cell_volume  161.36953106161462
_cell_formula_units_Z  2
loop_
  _symmetry_equiv_pos_site_id
 _symmetry_equiv_pos_as_xyz
 1  'x, y, z'
loop_
 _atom_site_type_symbol
 _atom_site_label
 _atom_site_symmetry_multiplicity
 _atom_site_fract_x
 _atom_site_fract_y
 _atom_site_fract_z
 _atom_site_fract_occupancy
 Cr  Cr1  1  0.37500  0.62500  0.75000  1
 Cr  Cr2  1  0.62500  0.37500  0.25000  1
 O  O1  1  0.79900  0.73211  0.43310  1
 O  O2  1  0.36590  0.79900  0.56690  1
 O  O3  1  0.73211  0.79900  0.93310  1
 O  O4  1  0.79900  0.36590  0.06690  1
 O  O5  1  0.63410  0.20100  0.43310  1
 O  O6  1  0.20100  0.26789  0.56690  1
 O  O7  1  0.26789  0.20100  0.06690  1
 O  O8  1  0.20100  0.63410  0.93310  1
 Tb  Tb1  1  0.12500  0.87500  0.25000  1
 Tb  Tb2  1  0.87500  0.12500  0.75000  1
