CIF file written using JARVIS-Tools package.
data_Ba2CoCu2S2O2
_symmetry_space_group_name_H-M  'I4/mmm'
_cell_length_a       3.94754
_cell_length_b       3.94754
_cell_length_c       10.4208
_cell_angle_alpha    100.918
_cell_angle_beta     100.918
_cell_angle_gamma    90

_symmetry_Int_Tables_number  139
_chemical_formula_structural  Ba2CoCu2S2O2
_chemical_formula_sum  Ba2CoCu2S2O2
_cell_volume  156.45458304849527
_cell_formula_units_Z  1
loop_
  _symmetry_equiv_pos_site_id
 _symmetry_equiv_pos_as_xyz
 1  'x, y, z'
loop_
 _atom_site_type_symbol
 _atom_site_label
 _atom_site_symmetry_multiplicity
 _atom_site_fract_x
 _atom_site_fract_y
 _atom_site_fract_z
 _atom_site_fract_occupancy
 Ba  Ba1  1  0.59636  0.59636  0.19271  1
 Ba  Ba2  1  0.40364  0.40364  0.80729  1
 Co  Co1  1  0.00000  0.00000  0.00000  1
 Cu  Cu1  1  0.75000  0.25000  0.50000  1
 Cu  Cu2  1  0.25000  0.75000  0.50000  1
 O  O1  1  0.00000  0.50000  0.00000  1
 O  O2  1  0.50000  0.00000  0.00000  1
 S  S1  1  0.81962  0.81962  0.63923  1
 S  S2  1  0.18038  0.18038  0.36077  1
