CIF file written using JARVIS-Tools package.
data_CeTlTe2
_symmetry_space_group_name_H-M  'I4/mcm'
_cell_length_a       6.9334
_cell_length_b       6.9334
_cell_length_c       6.9334
_cell_angle_alpha    110.31
_cell_angle_beta     110.31
_cell_angle_gamma    107.807

_symmetry_Int_Tables_number  140
_chemical_formula_structural  CeTlTe2
_chemical_formula_sum  Ce2Tl2Te4
_cell_volume  256.41520639052305
_cell_formula_units_Z  2
loop_
  _symmetry_equiv_pos_site_id
 _symmetry_equiv_pos_as_xyz
 1  'x, y, z'
loop_
 _atom_site_type_symbol
 _atom_site_label
 _atom_site_symmetry_multiplicity
 _atom_site_fract_x
 _atom_site_fract_y
 _atom_site_fract_z
 _atom_site_fract_occupancy
 Ce  Ce1  1  0.25000  0.75000  0.50000  1
 Ce  Ce2  1  0.75000  0.25000  0.50000  1
 Te  Te1  1  0.78241  0.28241  0.06483  1
 Te  Te2  1  0.21759  0.71759  0.93517  1
 Te  Te3  1  0.71759  0.78241  0.50000  1
 Te  Te4  1  0.28241  0.21759  0.50000  1
 Tl  Tl1  1  0.75000  0.75000  -0.00000  1
 Tl  Tl2  1  0.25000  0.25000  -0.00000  1
