CIF file written using JARVIS-Tools package.
data_RbMg6W
_symmetry_space_group_name_H-M  'P-6m2'
_cell_length_a       6.4281
_cell_length_b       6.4281
_cell_length_c       5.10767
_cell_angle_alpha    90
_cell_angle_beta     90
_cell_angle_gamma    119.993

_symmetry_Int_Tables_number  187
_chemical_formula_structural  RbMg6W
_chemical_formula_sum  RbMg6W
_cell_volume  182.78751034389805
_cell_formula_units_Z  1
loop_
  _symmetry_equiv_pos_site_id
 _symmetry_equiv_pos_as_xyz
 1  'x, y, z'
loop_
 _atom_site_type_symbol
 _atom_site_label
 _atom_site_symmetry_multiplicity
 _atom_site_fract_x
 _atom_site_fract_y
 _atom_site_fract_z
 _atom_site_fract_occupancy
 Mg  Mg1  1  0.11887  0.93442  0.25000  1
 Mg  Mg2  1  0.56558  0.38113  0.25000  1
 Mg  Mg3  1  0.56561  0.93439  0.25000  1
 Mg  Mg4  1  0.43545  0.59275  0.75000  1
 Mg  Mg5  1  0.90725  0.06455  0.75000  1
 Mg  Mg6  1  0.90725  0.59275  0.75000  1
 Rb  Rb1  1  0.08333  0.41667  0.25000  1
 W  W1  1  0.41666  0.08334  0.75000  1
