CIF file written using JARVIS-Tools package.
data_NdAl3
_symmetry_space_group_name_H-M  'P6_3/mmc'
_cell_length_a       6.5467
_cell_length_b       6.5467
_cell_length_c       4.61842
_cell_angle_alpha    90
_cell_angle_beta     90
_cell_angle_gamma    119.998

_symmetry_Int_Tables_number  194
_chemical_formula_structural  NdAl3
_chemical_formula_sum  Nd2Al6
_cell_volume  171.4271913357897
_cell_formula_units_Z  2
loop_
  _symmetry_equiv_pos_site_id
 _symmetry_equiv_pos_as_xyz
 1  'x, y, z'
loop_
 _atom_site_type_symbol
 _atom_site_label
 _atom_site_symmetry_multiplicity
 _atom_site_fract_x
 _atom_site_fract_y
 _atom_site_fract_z
 _atom_site_fract_occupancy
 Al  Al1  1  0.85851  0.71700  0.25000  1
 Al  Al2  1  0.28300  0.14149  0.25000  1
 Al  Al3  1  0.85850  0.14150  0.25000  1
 Al  Al4  1  0.14149  0.28300  0.75000  1
 Al  Al5  1  0.71700  0.85851  0.75000  1
 Al  Al6  1  0.14150  0.85850  0.75000  1
 Nd  Nd1  1  0.33334  0.66666  0.25000  1
 Nd  Nd2  1  0.66666  0.33334  0.75000  1
