CIF file written using JARVIS-Tools package.
data_SrNiGe2
_symmetry_space_group_name_H-M  'Cmcm'
_cell_length_a       4.22711
_cell_length_b       4.43748
_cell_length_c       8.92128
_cell_angle_alpha    104.401
_cell_angle_beta     90
_cell_angle_gamma    90

_symmetry_Int_Tables_number  63
_chemical_formula_structural  SrNiGe2
_chemical_formula_sum  Sr2Ni2Ge4
_cell_volume  162.08475280286095
_cell_formula_units_Z  2
loop_
  _symmetry_equiv_pos_site_id
 _symmetry_equiv_pos_as_xyz
 1  'x, y, z'
loop_
 _atom_site_type_symbol
 _atom_site_label
 _atom_site_symmetry_multiplicity
 _atom_site_fract_x
 _atom_site_fract_y
 _atom_site_fract_z
 _atom_site_fract_occupancy
 Ge  Ge1  1  0.75000  0.45629  0.91258  1
 Ge  Ge2  1  0.25000  0.54371  0.08742  1
 Ge  Ge3  1  0.75000  0.74952  0.49905  1
 Ge  Ge4  1  0.25000  0.25048  0.50095  1
 Ni  Ni1  1  0.75000  0.31812  0.63623  1
 Ni  Ni2  1  0.25000  0.68188  0.36377  1
 Sr  Sr1  1  0.75000  0.10742  0.21485  1
 Sr  Sr2  1  0.25000  0.89258  0.78515  1
