CIF file written using JARVIS-Tools package.
data_Ag4P2S7
_symmetry_space_group_name_H-M  'C2/c'
_cell_length_a       6.33926
_cell_length_b       6.33926
_cell_length_c       15.9316
_cell_angle_alpha    94.598
_cell_angle_beta     97.6542
_cell_angle_gamma    117.633

_symmetry_Int_Tables_number  15
_chemical_formula_structural  Ag4P2S7
_chemical_formula_sum  Ag8P4S4
_cell_volume  554.757484581492
_cell_formula_units_Z  2
loop_
  _symmetry_equiv_pos_site_id
 _symmetry_equiv_pos_as_xyz
 1  'x, y, z'
loop_
 _atom_site_type_symbol
 _atom_site_label
 _atom_site_symmetry_multiplicity
 _atom_site_fract_x
 _atom_site_fract_y
 _atom_site_fract_z
 _atom_site_fract_occupancy
 Ag  Ag1  1  0.20483  0.03671  0.66207  1
 Ag  Ag2  1  0.79517  0.96329  0.33793  1
 Ag  Ag3  1  0.12536  0.45724  0.16207  1
 Ag  Ag4  1  0.19399  0.17847  0.94953  1
 Ag  Ag5  1  0.72895  0.24446  0.55047  1
 Ag  Ag6  1  0.80601  0.82153  0.05047  1
 Ag  Ag7  1  0.27105  0.75554  0.44953  1
 Ag  Ag8  1  0.87464  0.54276  0.83793  1
 P  P1  1  0.57190  0.70659  0.64278  1
 P  P2  1  0.43620  0.07088  0.14278  1
 P  P3  1  0.56380  0.92912  0.85722  1
 P  P4  1  0.42810  0.29341  0.35722  1
 S  S1  1  0.20205  0.12188  0.43950  1
 S  S2  1  0.77617  0.36805  0.39900  1
 S  S3  1  0.74970  -0.00030  0.75000  1
 S  S4  1  0.76256  0.06482  0.17661  1
 S  S5  1  0.81762  0.23744  0.93950  1
 S  S6  1  0.18238  0.76256  0.06050  1
 S  S7  1  0.46905  0.37717  0.10100  1
 S  S8  1  0.25030  0.00030  0.25000  1
 S  S9  1  0.38821  0.58595  0.32339  1
 S  S10  1  0.53095  0.62283  0.89900  1
 S  S11  1  0.22383  0.63195  0.60100  1
 S  S12  1  0.23744  0.93518  0.82339  1
 S  S13  1  0.61179  0.41405  0.67661  1
 S  S14  1  0.79795  0.87812  0.56050  1
