CIF file written using JARVIS-Tools package.
data_Ce3CuSnS7
_symmetry_space_group_name_H-M  'P6_3'
_cell_length_a       9.99062
_cell_length_b       9.99062
_cell_length_c       6.32087
_cell_angle_alpha    90
_cell_angle_beta     90
_cell_angle_gamma    120

_symmetry_Int_Tables_number  173
_chemical_formula_structural  Ce3CuSnS7
_chemical_formula_sum  Ce6Cu2Sn2S4
_cell_volume  546.3771007136563
_cell_formula_units_Z  2
loop_
  _symmetry_equiv_pos_site_id
 _symmetry_equiv_pos_as_xyz
 1  'x, y, z'
loop_
 _atom_site_type_symbol
 _atom_site_label
 _atom_site_symmetry_multiplicity
 _atom_site_fract_x
 _atom_site_fract_y
 _atom_site_fract_z
 _atom_site_fract_occupancy
 Ce  Ce1  1  0.21146  0.36319  0.77236  1
 Ce  Ce2  1  0.84827  0.21146  0.27236  1
 Ce  Ce3  1  0.36319  0.15173  0.27236  1
 Ce  Ce4  1  0.63681  0.84827  0.77236  1
 Ce  Ce5  1  0.15173  0.78854  0.77236  1
 Ce  Ce6  1  0.78854  0.63681  0.27236  1
 Cu  Cu1  1  0.00000  0.00000  0.68058  1
 Cu  Cu2  1  0.00000  0.00000  0.18058  1
 S  S1  1  0.33333  0.66667  0.95046  1
 S  S2  1  0.48034  0.55944  0.51333  1
 S  S3  1  0.88895  0.14682  0.71028  1
 S  S4  1  0.74213  0.88895  0.21028  1
 S  S5  1  0.14682  0.25787  0.21028  1
 S  S6  1  0.66667  0.33333  0.45046  1
 S  S7  1  0.25787  0.11105  0.71028  1
 S  S8  1  0.92090  0.48034  0.01333  1
 S  S9  1  0.44056  0.92090  0.51333  1
 S  S10  1  0.51966  0.44056  0.01333  1
 S  S11  1  0.85318  0.74213  0.71028  1
 S  S12  1  0.07910  0.51966  0.51333  1
 S  S13  1  0.11105  0.85318  0.21028  1
 S  S14  1  0.55944  0.07910  0.01333  1
 Sn  Sn1  1  0.66667  0.33333  0.83897  1
 Sn  Sn2  1  0.33333  0.66667  0.33897  1
