CIF file written using JARVIS-Tools package.
data_BaH2CSNClO
_symmetry_space_group_name_H-M  'Pnma'
_cell_length_a       5.88718
_cell_length_b       4.75745
_cell_length_c       19.9918
_cell_angle_alpha    90
_cell_angle_beta     90
_cell_angle_gamma    90

_symmetry_Int_Tables_number  62
_chemical_formula_structural  BaH2CSNClO
_chemical_formula_sum  Ba4H8C4S4N4Cl4O4
_cell_volume  559.9303852033595
_cell_formula_units_Z  4
loop_
  _symmetry_equiv_pos_site_id
 _symmetry_equiv_pos_as_xyz
 1  'x, y, z'
loop_
 _atom_site_type_symbol
 _atom_site_label
 _atom_site_symmetry_multiplicity
 _atom_site_fract_x
 _atom_site_fract_y
 _atom_site_fract_z
 _atom_site_fract_occupancy
 Ba  Ba1  1  0.76205  0.25000  0.08344  1
 Ba  Ba2  1  0.26205  0.25000  0.41656  1
 Ba  Ba3  1  0.23795  0.75000  0.91656  1
 Ba  Ba4  1  0.73795  0.75000  0.58344  1
 C  C1  1  0.18843  0.75000  0.14686  1
 C  C2  1  0.31157  0.25000  0.64686  1
 C  C3  1  0.81157  0.25000  0.85314  1
 C  C4  1  0.68843  0.75000  0.35314  1
 Cl  Cl1  1  0.76243  0.25000  0.47720  1
 Cl  Cl2  1  0.73757  0.75000  0.97720  1
 Cl  Cl3  1  0.23757  0.75000  0.52280  1
 Cl  Cl4  1  0.26243  0.25000  0.02280  1
 H  H1  1  0.60948  0.91331  0.74408  1
 H  H2  1  0.89052  0.08669  0.24408  1
 H  H3  1  0.10948  0.91331  0.75592  1
 H  H4  1  0.10948  0.58669  0.75592  1
 H  H5  1  0.39052  0.08669  0.25592  1
 H  H6  1  0.89052  0.41331  0.24408  1
 H  H7  1  0.60948  0.58669  0.74408  1
 H  H8  1  0.39052  0.41331  0.25592  1
 N  N1  1  0.50382  0.25000  0.62990  1
 N  N2  1  0.00382  0.25000  0.87010  1
 N  N3  1  -0.00382  0.75000  0.12990  1
 N  N4  1  0.49618  0.75000  0.37010  1
 O  O1  1  0.84215  0.25000  0.21749  1
 O  O2  1  0.15785  0.75000  0.78251  1
 O  O3  1  0.65785  0.75000  0.71749  1
 O  O4  1  0.34215  0.25000  0.28251  1
 S  S1  1  0.95452  0.75000  0.32905  1
 S  S2  1  0.45452  0.75000  0.17095  1
 S  S3  1  0.54548  0.25000  0.82905  1
 S  S4  1  0.04548  0.25000  0.67095  1
