CIF file written using JARVIS-Tools package.
data_LiBH4
_symmetry_space_group_name_H-M  'P6_3mc'
_cell_length_a       4.18658
_cell_length_b       4.18658
_cell_length_c       7.1804
_cell_angle_alpha    90
_cell_angle_beta     90
_cell_angle_gamma    119.999

_symmetry_Int_Tables_number  186
_chemical_formula_structural  LiBH4
_chemical_formula_sum  Li2B2H8
_cell_volume  108.99405160451768
_cell_formula_units_Z  2
loop_
  _symmetry_equiv_pos_site_id
 _symmetry_equiv_pos_as_xyz
 1  'x, y, z'
loop_
 _atom_site_type_symbol
 _atom_site_label
 _atom_site_symmetry_multiplicity
 _atom_site_fract_x
 _atom_site_fract_y
 _atom_site_fract_z
 _atom_site_fract_occupancy
 B  B1  1  0.33334  0.66666  0.53637  1
 B  B2  1  0.66666  0.33334  0.03637  1
 H  H1  1  0.33327  0.66673  0.36669  1
 H  H2  1  0.66673  0.33327  0.86669  1
 H  H3  1  0.17472  0.34936  0.59381  1
 H  H4  1  0.65064  0.82528  0.59381  1
 H  H5  1  0.17472  0.82528  0.59390  1
 H  H6  1  0.82528  0.65064  0.09381  1
 H  H7  1  0.34936  0.17472  0.09381  1
 H  H8  1  0.82528  0.17472  0.09390  1
 Li  Li1  1  0.33332  0.66668  0.11041  1
 Li  Li2  1  0.66668  0.33332  0.61041  1
