CIF file written using JARVIS-Tools package.
data_FeSb4O12
_symmetry_space_group_name_H-M  'P1'
_cell_length_a       5.00445
_cell_length_b       5.48665
_cell_length_c       7.49963
_cell_angle_alpha    83.7886
_cell_angle_beta     89.3965
_cell_angle_gamma    91.1446

_symmetry_Int_Tables_number  1
_chemical_formula_structural  FeSb4O12
_chemical_formula_sum  FeSb4O2
_cell_volume  204.65575209413845
_cell_formula_units_Z  1
loop_
  _symmetry_equiv_pos_site_id
 _symmetry_equiv_pos_as_xyz
 1  'x, y, z'
loop_
 _atom_site_type_symbol
 _atom_site_label
 _atom_site_symmetry_multiplicity
 _atom_site_fract_x
 _atom_site_fract_y
 _atom_site_fract_z
 _atom_site_fract_occupancy
 Fe  Fe1  1  -0.00087  0.39218  0.70749  1
 O  O1  1  0.71376  0.23655  0.59785  1
 O  O2  1  0.83945  0.01695  0.27126  1
 O  O3  1  0.67738  0.84776  0.93632  1
 O  O4  1  0.12034  0.07599  0.75793  1
 O  O5  1  0.82741  0.69081  0.60556  1
 O  O6  1  0.65598  0.51183  0.25755  1
 O  O7  1  0.16958  0.69540  0.09039  1
 O  O8  1  0.32766  0.53734  0.75196  1
 O  O9  1  0.15749  0.36207  0.47289  1
 O  O10  1  0.31900  0.20718  0.08286  1
 O  O11  1  0.83222  0.35232  0.92790  1
 O  O12  1  0.35372  0.86869  0.44358  1
 Sb  Sb1  1  0.49048  0.53360  0.01729  1
 Sb  Sb2  1  0.01163  0.00474  0.49952  1
 Sb  Sb3  1  0.50604  0.54096  0.49033  1
 Sb  Sb4  1  0.99874  0.00703  0.03003  1
