CIF file written using JARVIS-Tools package.
data_RbLaSiC4N8
_symmetry_space_group_name_H-M  'I-4'
_cell_length_a       6.82118
_cell_length_b       6.8826
_cell_length_c       6.88233
_cell_angle_alpha    75.7777
_cell_angle_beta     60.294
_cell_angle_gamma    60.2975

_symmetry_Int_Tables_number  82
_chemical_formula_structural  RbLaSiC4N8
_chemical_formula_sum  RbLaSiC4N8
_cell_volume  243.77061366446884
_cell_formula_units_Z  1
loop_
  _symmetry_equiv_pos_site_id
 _symmetry_equiv_pos_as_xyz
 1  'x, y, z'
loop_
 _atom_site_type_symbol
 _atom_site_label
 _atom_site_symmetry_multiplicity
 _atom_site_fract_x
 _atom_site_fract_y
 _atom_site_fract_z
 _atom_site_fract_occupancy
 C  C1  1  0.55852  0.08255  0.54392  1
 C  C2  1  0.89754  0.54397  0.91744  1
 C  C3  1  0.35895  0.45603  0.08255  1
 C  C4  1  0.18499  0.91745  0.45608  1
 La  La1  1  0.75000  0.50000  0.50000  1
 N  N1  1  0.51697  0.38999  0.89818  1
 N  N2  1  0.99459  0.46972  0.72247  1
 N  N3  1  0.28296  0.72245  0.53026  1
 N  N4  1  0.53566  0.27756  0.46975  1
 N  N5  1  0.09299  0.10187  0.39010  1
 N  N6  1  0.58496  0.89813  0.60990  1
 N  N7  1  0.18677  0.53028  0.27752  1
 N  N8  1  0.80512  0.61001  0.10183  1
 Rb  Rb1  1  -0.00004  -0.00000  0.00000  1
 Si  Si1  1  0.25000  0.50000  0.49999  1
