CIF file written using JARVIS-Tools package.
data_In3SnI5
_symmetry_space_group_name_H-M  'P2_1/c'
_cell_length_a       8.91104
_cell_length_b       9.01072
_cell_length_c       17.5979
_cell_angle_alpha    90
_cell_angle_beta     99.3242
_cell_angle_gamma    90

_symmetry_Int_Tables_number  14
_chemical_formula_structural  In3SnI5
_chemical_formula_sum  In2Sn4I20
_cell_volume  1394.3529332659732
_cell_formula_units_Z  4
loop_
  _symmetry_equiv_pos_site_id
 _symmetry_equiv_pos_as_xyz
 1  'x, y, z'
loop_
 _atom_site_type_symbol
 _atom_site_label
 _atom_site_symmetry_multiplicity
 _atom_site_fract_x
 _atom_site_fract_y
 _atom_site_fract_z
 _atom_site_fract_occupancy
 I  I1  1  0.86873  0.77881  0.61186  1
 I  I2  1  0.25039  0.53937  0.23770  1
 I  I3  1  0.01639  0.29387  0.60480  1
 I  I4  1  0.13127  0.27881  0.88814  1
 I  I5  1  0.45710  0.64701  0.89864  1
 I  I6  1  0.13127  0.22119  0.38814  1
 I  I7  1  0.38001  0.88080  0.10434  1
 I  I8  1  0.25039  0.96063  0.73770  1
 I  I9  1  0.98361  0.70613  0.39520  1
 I  I10  1  0.86873  0.72119  0.11186  1
 I  I11  1  0.98361  0.79387  0.89520  1
 I  I12  1  0.54290  0.35299  0.10136  1
 I  I13  1  0.74961  0.46063  0.76230  1
 I  I14  1  0.45710  0.85299  0.39864  1
 I  I15  1  0.38001  0.61920  0.60434  1
 I  I16  1  0.01639  0.20613  0.10480  1
 I  I17  1  0.61999  0.38080  0.39566  1
 I  I18  1  0.54290  0.14701  0.60136  1
 I  I19  1  0.61999  0.11920  0.89566  1
 I  I20  1  0.74961  0.03937  0.26230  1
 In  In1  1  0.38304  0.31988  0.74933  1
 In  In2  1  0.88999  0.39764  0.24752  1
 In  In3  1  0.11001  0.89764  0.25248  1
 In  In4  1  0.61696  0.68012  0.25067  1
 In  In5  1  0.78236  0.45413  0.97139  1
 In  In6  1  0.21764  0.54587  0.02861  1
 In  In7  1  0.88999  0.10236  0.74752  1
 In  In8  1  0.21764  0.95413  0.52861  1
 In  In9  1  0.61696  0.81988  0.75067  1
 In  In10  1  0.78236  0.04587  0.47139  1
 In  In11  1  0.11001  0.60236  0.75248  1
 In  In12  1  0.38304  0.18012  0.24933  1
 Sn  Sn1  1  0.70553  0.03592  0.08376  1
 Sn  Sn2  1  0.29447  0.53592  0.41624  1
 Sn  Sn3  1  0.70553  0.46408  0.58376  1
 Sn  Sn4  1  0.29447  0.96408  0.91624  1
