CIF file written using JARVIS-Tools package.
data_KNaB2H8
_symmetry_space_group_name_H-M  'R3'
_cell_length_a       7.76771
_cell_length_b       7.76771
_cell_length_c       7.76771
_cell_angle_alpha    33.7356
_cell_angle_beta     33.7357
_cell_angle_gamma    33.7356

_symmetry_Int_Tables_number  146
_chemical_formula_structural  KNaB2H8
_chemical_formula_sum  KNaB2H8
_cell_volume  128.79576476082318
_cell_formula_units_Z  1
loop_
  _symmetry_equiv_pos_site_id
 _symmetry_equiv_pos_as_xyz
 1  'x, y, z'
loop_
 _atom_site_type_symbol
 _atom_site_label
 _atom_site_symmetry_multiplicity
 _atom_site_fract_x
 _atom_site_fract_y
 _atom_site_fract_z
 _atom_site_fract_occupancy
 B  B1  1  0.59296  0.59296  0.59296  1
 B  B2  1  0.10273  0.10273  0.10273  1
 H  H1  1  0.37532  0.85940  0.12669  1
 H  H2  1  0.53719  0.53719  0.53719  1
 H  H3  1  0.85940  0.12669  0.37532  1
 H  H4  1  0.75896  0.31616  0.76116  1
 H  H5  1  0.12669  0.37532  0.85940  1
 H  H6  1  0.04666  0.04666  0.04666  1
 H  H7  1  0.31616  0.76116  0.75896  1
 H  H8  1  0.76116  0.75896  0.31616  1
 K  K1  1  0.35296  0.35296  0.35296  1
 Na  Na1  1  0.85720  0.85720  0.85720  1
