CIF file written using JARVIS-Tools package.
data_NaH12AuC4S4O12
_symmetry_space_group_name_H-M  'P-1'
_cell_length_a       5.36392
_cell_length_b       8.69966
_cell_length_c       9.53962
_cell_angle_alpha    72.3137
_cell_angle_beta     74.3032
_cell_angle_gamma    79.0821

_symmetry_Int_Tables_number  2
_chemical_formula_structural  NaH12AuC4S4O12
_chemical_formula_sum  NaH2AuC4S4O2
_cell_volume  405.5026302877256
_cell_formula_units_Z  1
loop_
  _symmetry_equiv_pos_site_id
 _symmetry_equiv_pos_as_xyz
 1  'x, y, z'
loop_
 _atom_site_type_symbol
 _atom_site_label
 _atom_site_symmetry_multiplicity
 _atom_site_fract_x
 _atom_site_fract_y
 _atom_site_fract_z
 _atom_site_fract_occupancy
 Au  Au1  1  -0.00000  -0.00000  0.50000  1
 C  C1  1  0.62207  0.90729  0.17945  1
 C  C2  1  0.68550  0.34903  0.19196  1
 C  C3  1  0.31450  0.65097  0.80804  1
 C  C4  1  0.37793  0.09271  0.82055  1
 H  H1  1  0.48015  0.00941  0.14054  1
 H  H2  1  0.51985  0.99059  0.85946  1
 H  H3  1  0.33537  0.51857  0.85443  1
 H  H4  1  0.78174  0.94838  0.20530  1
 H  H5  1  0.34930  0.70892  0.88731  1
 H  H6  1  0.65070  0.29108  0.11269  1
 H  H7  1  0.44453  0.68747  0.69629  1
 H  H8  1  0.55547  0.31253  0.30371  1
 H  H9  1  0.30122  0.16512  0.90266  1
 H  H10  1  0.69878  0.83488  0.09734  1
 H  H11  1  0.21826  0.05162  0.79470  1
 H  H12  1  0.66463  0.48143  0.14557  1
 Na  Na1  1  0.00000  0.50000  0.50000  1
 O  O1  1  0.65049  0.65280  0.40810  1
 O  O2  1  0.06134  0.36060  0.31624  1
 O  O3  1  0.93866  0.63940  0.68376  1
 O  O4  1  0.18259  0.31571  0.06137  1
 O  O5  1  0.81741  0.68429  0.93863  1
 O  O6  1  0.36656  0.88548  0.46098  1
 O  O7  1  0.23940  0.72632  0.32111  1
 O  O8  1  0.63344  0.11452  0.53902  1
 O  O9  1  0.02921  0.09954  0.27583  1
 O  O10  1  0.97079  0.90046  0.72417  1
 O  O11  1  0.76060  0.27368  0.67889  1
 O  O12  1  0.34951  0.34720  0.59190  1
 S  S1  1  0.98925  0.71112  0.78999  1
 S  S2  1  0.01075  0.28888  0.21001  1
 S  S3  1  0.45972  0.77780  0.34778  1
 S  S4  1  0.54028  0.22220  0.65222  1
