CIF file written using JARVIS-Tools package.
data_CuC4O4
_symmetry_space_group_name_H-M  'C2/c'
_cell_length_a       5.54605
_cell_length_b       6.9499
_cell_length_c       6.94989
_cell_angle_alpha    70.1007
_cell_angle_beta     70.8477
_cell_angle_gamma    70.8477

_symmetry_Int_Tables_number  15
_chemical_formula_structural  CuC4O4
_chemical_formula_sum  Cu2C8O8
_cell_volume  230.7734152706279
_cell_formula_units_Z  2
loop_
  _symmetry_equiv_pos_site_id
 _symmetry_equiv_pos_as_xyz
 1  'x, y, z'
loop_
 _atom_site_type_symbol
 _atom_site_label
 _atom_site_symmetry_multiplicity
 _atom_site_fract_x
 _atom_site_fract_y
 _atom_site_fract_z
 _atom_site_fract_occupancy
 C  C1  1  0.62936  0.02345  0.35225  1
 C  C2  1  0.87064  0.64775  0.97655  1
 C  C3  1  0.37064  0.97655  0.64775  1
 C  C4  1  0.09916  0.54993  0.07240  1
 C  C5  1  0.12936  0.35225  0.02345  1
 C  C6  1  0.59916  0.07240  0.54993  1
 C  C7  1  0.90084  0.45007  0.92760  1
 C  C8  1  0.40084  0.92760  0.45007  1
 Cu  Cu1  1  0.75000  0.11053  0.88947  1
 Cu  Cu2  1  0.25000  0.88947  0.11053  1
 O  O1  1  0.70230  0.82159  0.94748  1
 O  O2  1  0.20230  0.94748  0.82159  1
 O  O3  1  0.77601  0.40230  0.83621  1
 O  O4  1  0.22399  0.59770  0.16379  1
 O  O5  1  0.72399  0.16379  0.59770  1
 O  O6  1  0.79770  0.05252  0.17841  1
 O  O7  1  0.29770  0.17841  0.05252  1
 O  O8  1  0.27601  0.83621  0.40230  1
