CIF file written using JARVIS-Tools package.
data_CrCd3Te4
_symmetry_space_group_name_H-M  'P-43m'
_cell_length_a       6.49406
_cell_length_b       6.49406
_cell_length_c       6.49406
_cell_angle_alpha    90
_cell_angle_beta     90
_cell_angle_gamma    90

_symmetry_Int_Tables_number  215
_chemical_formula_structural  CrCd3Te4
_chemical_formula_sum  CrCd3Te4
_cell_volume  273.87219939461676
_cell_formula_units_Z  1
loop_
  _symmetry_equiv_pos_site_id
 _symmetry_equiv_pos_as_xyz
 1  'x, y, z'
loop_
 _atom_site_type_symbol
 _atom_site_label
 _atom_site_symmetry_multiplicity
 _atom_site_fract_x
 _atom_site_fract_y
 _atom_site_fract_z
 _atom_site_fract_occupancy
 Cd  Cd1  1  0.50000  0.50000  0.00000  1
 Cd  Cd2  1  0.50000  0.00000  0.50000  1
 Cd  Cd3  1  0.00000  0.50000  0.50000  1
 Cr  Cr1  1  0.00000  0.00000  0.00000  1
 Te  Te1  1  0.75966  0.75966  0.24034  1
 Te  Te2  1  0.75966  0.24034  0.75966  1
 Te  Te3  1  0.24034  0.75966  0.75966  1
 Te  Te4  1  0.24034  0.24034  0.24034  1
