CIF file written using JARVIS-Tools package.
data_Mg6SnB
_symmetry_space_group_name_H-M  'Amm2'
_cell_length_a       6.92289
_cell_length_b       6.92289
_cell_length_c       4.60195
_cell_angle_alpha    90
_cell_angle_beta     90
_cell_angle_gamma    129.092

_symmetry_Int_Tables_number  38
_chemical_formula_structural  Mg6SnB
_chemical_formula_sum  Mg6SnB
_cell_volume  171.17958667990493
_cell_formula_units_Z  1
loop_
  _symmetry_equiv_pos_site_id
 _symmetry_equiv_pos_as_xyz
 1  'x, y, z'
loop_
 _atom_site_type_symbol
 _atom_site_label
 _atom_site_symmetry_multiplicity
 _atom_site_fract_x
 _atom_site_fract_y
 _atom_site_fract_z
 _atom_site_fract_occupancy
 B  B1  1  0.41842  0.08158  0.75000  1
 Mg  Mg1  1  0.17071  0.87409  0.25000  1
 Mg  Mg2  1  0.62591  0.32929  0.25000  1
 Mg  Mg3  1  0.67850  0.82150  0.25000  1
 Mg  Mg4  1  0.31973  0.68565  0.75000  1
 Mg  Mg5  1  0.81435  0.18027  0.75000  1
 Mg  Mg6  1  0.82520  0.67480  0.75000  1
 Sn  Sn1  1  0.14717  0.35283  0.25000  1
