CIF file written using JARVIS-Tools package.
data_Pr3RuI3
_symmetry_space_group_name_H-M  'P2_1/m'
_cell_length_a       4.2875
_cell_length_b       9.28171
_cell_length_c       12.5186
_cell_angle_alpha    93.2596
_cell_angle_beta     90
_cell_angle_gamma    90

_symmetry_Int_Tables_number  11
_chemical_formula_structural  Pr3RuI3
_chemical_formula_sum  Pr6Ru2I6
_cell_volume  497.3766996795811
_cell_formula_units_Z  2
loop_
  _symmetry_equiv_pos_site_id
 _symmetry_equiv_pos_as_xyz
 1  'x, y, z'
loop_
 _atom_site_type_symbol
 _atom_site_label
 _atom_site_symmetry_multiplicity
 _atom_site_fract_x
 _atom_site_fract_y
 _atom_site_fract_z
 _atom_site_fract_occupancy
 I  I1  1  0.25000  0.14244  0.61683  1
 I  I2  1  0.75000  0.85756  0.38317  1
 I  I3  1  0.75000  0.37582  0.37982  1
 I  I4  1  0.25000  0.62418  0.62018  1
 I  I5  1  0.25000  0.60549  0.13723  1
 I  I6  1  0.75000  0.39451  0.86277  1
 Pr  Pr1  1  0.75000  0.31157  0.11956  1
 Pr  Pr2  1  0.25000  0.68843  0.88044  1
 Pr  Pr3  1  0.25000  0.11653  0.33606  1
 Pr  Pr4  1  0.75000  0.88347  0.66394  1
 Pr  Pr5  1  0.25000  0.09905  0.88904  1
 Pr  Pr6  1  0.75000  0.90095  0.11096  1
 Ru  Ru1  1  0.25000  0.10988  0.12079  1
 Ru  Ru2  1  0.75000  0.89012  0.87921  1
