CIF file written using JARVIS-Tools package.
data_TaFeO4
_symmetry_space_group_name_H-M  'I4_1md'
_cell_length_a       5.4848
_cell_length_b       5.4848
_cell_length_c       5.4848
_cell_angle_alpha    73.5874
_cell_angle_beta     106.413
_cell_angle_gamma    64.2214

_symmetry_Int_Tables_number  109
_chemical_formula_structural  TaFeO4
_chemical_formula_sum  Ta2Fe2O8
_cell_volume  125.84949382797646
_cell_formula_units_Z  2
loop_
  _symmetry_equiv_pos_site_id
 _symmetry_equiv_pos_as_xyz
 1  'x, y, z'
loop_
 _atom_site_type_symbol
 _atom_site_label
 _atom_site_symmetry_multiplicity
 _atom_site_fract_x
 _atom_site_fract_y
 _atom_site_fract_z
 _atom_site_fract_occupancy
 Fe  Fe1  1  0.74855  0.75145  0.50000  1
 Fe  Fe2  1  0.49855  0.50145  0.00000  1
 O  O1  1  0.54713  0.25706  0.80418  1
 O  O2  1  0.04014  0.75003  0.79017  1
 O  O3  1  0.49997  0.79019  0.70983  1
 O  O4  1  -0.00706  0.31124  0.69582  1
 O  O5  1  -0.00706  0.70287  0.30418  1
 O  O6  1  0.49997  0.20986  0.29017  1
 O  O7  1  0.93876  0.25706  0.19582  1
 O  O8  1  0.45981  0.75003  0.20983  1
 Ta  Ta1  1  0.26561  0.23439  0.50000  1
 Ta  Ta2  1  0.01561  0.98439  0.00000  1
