CIF file written using JARVIS-Tools package.
data_CeAl7Au3
_symmetry_space_group_name_H-M  'R-3c'
_cell_length_a       8.47652
_cell_length_b       8.47652
_cell_length_c       8.47652
_cell_angle_alpha    57.686
_cell_angle_beta     57.686
_cell_angle_gamma    57.686

_symmetry_Int_Tables_number  167
_chemical_formula_structural  CeAl7Au3
_chemical_formula_sum  Ce2Al4Au6
_cell_volume  407.7653620903098
_cell_formula_units_Z  2
loop_
  _symmetry_equiv_pos_site_id
 _symmetry_equiv_pos_as_xyz
 1  'x, y, z'
loop_
 _atom_site_type_symbol
 _atom_site_label
 _atom_site_symmetry_multiplicity
 _atom_site_fract_x
 _atom_site_fract_y
 _atom_site_fract_z
 _atom_site_fract_occupancy
 Al  Al1  1  0.85239  0.66990  0.06922  1
 Al  Al2  1  0.43078  0.83010  0.64761  1
 Al  Al3  1  0.83010  0.64761  0.43078  1
 Al  Al4  1  0.66990  0.06922  0.85239  1
 Al  Al5  1  0.06922  0.85239  0.66990  1
 Al  Al6  1  0.35239  0.56922  0.16990  1
 Al  Al7  1  0.56922  0.16990  0.35239  1
 Al  Al8  1  0.14761  0.33010  0.93078  1
 Al  Al9  1  0.75000  0.75000  0.75000  1
 Al  Al10  1  0.93078  0.14761  0.33010  1
 Al  Al11  1  0.33010  0.93078  0.14761  1
 Al  Al12  1  0.16990  0.35239  0.56922  1
 Al  Al13  1  0.64761  0.43078  0.83010  1
 Al  Al14  1  0.25000  0.25000  0.25000  1
 Au  Au1  1  0.75000  0.43025  0.06975  1
 Au  Au2  1  0.43025  0.06975  0.75000  1
 Au  Au3  1  0.06975  0.75000  0.43025  1
 Au  Au4  1  0.56975  0.93025  0.25000  1
 Au  Au5  1  0.93025  0.25000  0.56975  1
 Au  Au6  1  0.25000  0.56975  0.93025  1
 Ce  Ce1  1  0.50000  0.50000  0.50000  1
 Ce  Ce2  1  0.00000  0.00000  0.00000  1
