CIF file written using JARVIS-Tools package.
data_CrCuO2
_symmetry_space_group_name_H-M  'P6_3/mmc'
_cell_length_a       2.99951
_cell_length_b       11.4341
_cell_length_c       2.99951
_cell_angle_alpha    90
_cell_angle_beta     120
_cell_angle_gamma    90

_symmetry_Int_Tables_number  194
_chemical_formula_structural  CrCuO2
_chemical_formula_sum  Cr2Cu2O4
_cell_volume  89.09052325988092
_cell_formula_units_Z  2
loop_
  _symmetry_equiv_pos_site_id
 _symmetry_equiv_pos_as_xyz
 1  'x, y, z'
loop_
 _atom_site_type_symbol
 _atom_site_label
 _atom_site_symmetry_multiplicity
 _atom_site_fract_x
 _atom_site_fract_y
 _atom_site_fract_z
 _atom_site_fract_occupancy
 Cr  Cr1  1  0.00000  0.50000  0.00000  1
 Cr  Cr2  1  0.00000  0.00000  0.00000  1
 Cu  Cu1  1  0.33333  0.75000  0.66667  1
 Cu  Cu2  1  0.66667  0.25000  0.33333  1
 O  O1  1  0.66667  0.41237  0.33333  1
 O  O2  1  0.33333  0.91237  0.66667  1
 O  O3  1  0.33333  0.58763  0.66667  1
 O  O4  1  0.66667  0.08763  0.33333  1
