CIF file written using JARVIS-Tools package.
data_Ca5Au3
_symmetry_space_group_name_H-M  'I4/mcm'
_cell_length_a       9.0566
_cell_length_b       9.0566
_cell_length_c       9.0566
_cell_angle_alpha    128.865
_cell_angle_beta     128.865
_cell_angle_gamma    75.2274

_symmetry_Int_Tables_number  140
_chemical_formula_structural  Ca5Au3
_chemical_formula_sum  Ca0Au6
_cell_volume  438.39396610696105
_cell_formula_units_Z  2
loop_
  _symmetry_equiv_pos_site_id
 _symmetry_equiv_pos_as_xyz
 1  'x, y, z'
loop_
 _atom_site_type_symbol
 _atom_site_label
 _atom_site_symmetry_multiplicity
 _atom_site_fract_x
 _atom_site_fract_y
 _atom_site_fract_z
 _atom_site_fract_occupancy
 Au  Au1  1  0.75000  0.75000  0.00000  1
 Au  Au2  1  0.25000  0.25000  0.00000  1
 Au  Au3  1  0.36801  0.86801  0.23602  1
 Au  Au4  1  0.63199  0.13199  0.76398  1
 Au  Au5  1  0.13199  0.36801  0.50000  1
 Au  Au6  1  0.86801  0.63199  0.50000  1
 Ca  Ca1  1  0.00000  0.00000  0.00000  1
 Ca  Ca2  1  0.50000  0.50000  0.00000  1
 Ca  Ca3  1  0.02344  0.52344  0.83601  1
 Ca  Ca4  1  0.68743  0.18743  0.16399  1
 Ca  Ca5  1  0.18743  0.02344  0.50000  1
 Ca  Ca6  1  0.52344  0.68743  0.50000  1
 Ca  Ca7  1  0.47656  0.31257  0.50000  1
 Ca  Ca8  1  0.81257  0.97656  0.50000  1
 Ca  Ca9  1  0.31257  0.81257  0.83601  1
 Ca  Ca10  1  0.97656  0.47656  0.16399  1
