CIF file written using JARVIS-Tools package.
data_MnSb4O12
_symmetry_space_group_name_H-M  'P1'
_cell_length_a       5.02978
_cell_length_b       5.47935
_cell_length_c       7.51054
_cell_angle_alpha    96.0192
_cell_angle_beta     90.6599
_cell_angle_gamma    90.8894

_symmetry_Int_Tables_number  1
_chemical_formula_structural  MnSb4O12
_chemical_formula_sum  MnSb4O2
_cell_volume  205.80599448743388
_cell_formula_units_Z  1
loop_
  _symmetry_equiv_pos_site_id
 _symmetry_equiv_pos_as_xyz
 1  'x, y, z'
loop_
 _atom_site_type_symbol
 _atom_site_label
 _atom_site_symmetry_multiplicity
 _atom_site_fract_x
 _atom_site_fract_y
 _atom_site_fract_z
 _atom_site_fract_occupancy
 Mn  Mn1  1  0.00129  0.60279  0.70882  1
 O  O1  1  0.28844  0.76386  0.59653  1
 O  O2  1  0.16068  0.98332  0.27062  1
 O  O3  1  0.31913  0.15497  0.93711  1
 O  O4  1  0.88109  0.92558  0.75629  1
 O  O5  1  0.17087  0.30890  0.60239  1
 O  O6  1  0.34549  0.48858  0.25838  1
 O  O7  1  0.82802  0.30367  0.09052  1
 O  O8  1  0.66750  0.46063  0.75293  1
 O  O9  1  0.84121  0.63832  0.47377  1
 O  O10  1  0.68265  0.79291  0.08200  1
 O  O11  1  0.16985  0.64942  0.93129  1
 O  O12  1  0.64919  0.13214  0.44353  1
 Sb  Sb1  1  0.50871  0.46736  0.01803  1
 Sb  Sb2  1  0.98972  0.99307  0.49796  1
 Sb  Sb3  1  0.49530  0.45988  0.49076  1
 Sb  Sb4  1  0.00085  0.99318  0.02977  1
