CIF file written using JARVIS-Tools package.
data_Mn3O5F
_symmetry_space_group_name_H-M  'C2/m'
_cell_length_a       7.11675
_cell_length_b       5.33951
_cell_length_c       5.33951
_cell_angle_alpha    71.6336
_cell_angle_beta     71.191
_cell_angle_gamma    71.191

_symmetry_Int_Tables_number  12
_chemical_formula_structural  Mn3O5F
_chemical_formula_sum  Mn6O0F2
_cell_volume  176.69017176411143
_cell_formula_units_Z  2
loop_
  _symmetry_equiv_pos_site_id
 _symmetry_equiv_pos_as_xyz
 1  'x, y, z'
loop_
 _atom_site_type_symbol
 _atom_site_label
 _atom_site_symmetry_multiplicity
 _atom_site_fract_x
 _atom_site_fract_y
 _atom_site_fract_z
 _atom_site_fract_occupancy
 F  F1  1  0.68244  0.11505  0.11505  1
 F  F2  1  0.31756  0.88495  0.88495  1
 Mn  Mn1  1  0.00000  0.00000  0.00000  1
 Mn  Mn2  1  0.50000  0.00000  -0.00000  1
 Mn  Mn3  1  0.84278  0.66876  0.66876  1
 Mn  Mn4  1  0.32882  0.65155  0.65155  1
 Mn  Mn5  1  0.67118  0.34845  0.34845  1
 Mn  Mn6  1  0.15722  0.33124  0.33124  1
 O  O1  1  0.00000  0.69643  0.30357  1
 O  O2  1  -0.00000  0.30357  0.69643  1
 O  O3  1  0.32911  0.96819  0.35860  1
 O  O4  1  0.37199  0.43099  0.43099  1
 O  O5  1  0.62801  0.56901  0.56901  1
 O  O6  1  0.95808  0.23481  0.23481  1
 O  O7  1  0.32911  0.35860  0.96819  1
 O  O8  1  0.67089  0.03181  0.64140  1
 O  O9  1  0.04192  0.76519  0.76519  1
 O  O10  1  0.67089  0.64140  0.03181  1
