CIF file written using JARVIS-Tools package.
data_Fe3P2H16O16
_symmetry_space_group_name_H-M  'C2/m'
_cell_length_a       8.82146
_cell_length_b       8.1583
_cell_length_c       8.82146
_cell_angle_alpha    106.953
_cell_angle_beta     87.122
_cell_angle_gamma    147.564

_symmetry_Int_Tables_number  12
_chemical_formula_structural  Fe3P2H16O16
_chemical_formula_sum  Fe3P2H6O6
_cell_volume  301.0431682927137
_cell_formula_units_Z  1
loop_
  _symmetry_equiv_pos_site_id
 _symmetry_equiv_pos_as_xyz
 1  'x, y, z'
loop_
 _atom_site_type_symbol
 _atom_site_label
 _atom_site_symmetry_multiplicity
 _atom_site_fract_x
 _atom_site_fract_y
 _atom_site_fract_z
 _atom_site_fract_occupancy
 Fe  Fe1  1  0.00000  0.00000  0.00000  1
 Fe  Fe2  1  0.40255  -0.00000  0.40255  1
 Fe  Fe3  1  0.59745  -0.00000  0.59745  1
 H  H1  1  0.41869  0.37787  0.78504  1
 H  H2  1  0.88871  0.56151  0.94480  1
 H  H3  1  0.11129  0.43849  0.05520  1
 H  H4  1  0.61670  0.56151  0.67279  1
 H  H5  1  0.59284  0.37787  0.95918  1
 H  H6  1  0.58131  0.62213  0.21496  1
 H  H7  1  0.40716  0.62213  0.04082  1
 H  H8  1  0.53883  0.78843  0.80951  1
 H  H9  1  0.38330  0.43849  0.32721  1
 H  H10  1  0.34548  0.77264  0.82443  1
 H  H11  1  0.94821  0.77264  0.42715  1
 H  H12  1  0.65452  0.22736  0.17557  1
 H  H13  1  0.02108  0.21157  0.75039  1
 H  H14  1  0.97892  0.78843  0.24961  1
 H  H15  1  0.46117  0.21157  0.19049  1
 H  H16  1  0.05179  0.22736  0.57285  1
 O  O1  1  0.09612  0.91925  0.37404  1
 O  O2  1  0.78607  0.93812  0.15205  1
 O  O3  1  0.21393  0.06188  0.84795  1
 O  O4  1  0.69495  0.07947  0.38452  1
 O  O5  1  0.02124  0.46271  0.23956  1
 O  O6  1  0.77685  0.53729  0.55853  1
 O  O7  1  0.30505  0.92053  0.61548  1
 O  O8  1  0.22315  0.46271  0.44147  1
 O  O9  1  0.57572  0.59428  0.77462  1
 O  O10  1  0.81966  0.59428  0.01856  1
 O  O11  1  0.18034  0.40572  0.98144  1
 O  O12  1  0.90388  0.08075  0.62596  1
 O  O13  1  0.54521  0.91925  0.82313  1
 O  O14  1  0.97876  0.53729  0.76044  1
 O  O15  1  0.42428  0.40572  0.22538  1
 O  O16  1  0.45479  0.08075  0.17687  1
 P  P1  1  0.93926  0.24680  0.30754  1
 P  P2  1  0.06074  0.75320  0.69246  1
