CIF file written using JARVIS-Tools package.
data_WOF4
_symmetry_space_group_name_H-M  'C2/m'
_cell_length_a       5.05161
_cell_length_b       8.3931
_cell_length_c       8.3931
_cell_angle_alpha    112.318
_cell_angle_beta     93.3996
_cell_angle_gamma    93.3996

_symmetry_Int_Tables_number  12
_chemical_formula_structural  WOF4
_chemical_formula_sum  W4O4F6
_cell_volume  327.3261607096361
_cell_formula_units_Z  4
loop_
  _symmetry_equiv_pos_site_id
 _symmetry_equiv_pos_as_xyz
 1  'x, y, z'
loop_
 _atom_site_type_symbol
 _atom_site_label
 _atom_site_symmetry_multiplicity
 _atom_site_fract_x
 _atom_site_fract_y
 _atom_site_fract_z
 _atom_site_fract_occupancy
 F  F1  1  0.12281  0.17141  0.59453  1
 F  F2  1  0.63923  0.26927  0.45818  1
 F  F3  1  0.90996  0.64265  0.64265  1
 F  F4  1  0.66937  0.08431  0.69361  1
 F  F5  1  0.33063  0.30639  0.91569  1
 F  F6  1  0.12281  0.59453  0.17141  1
 F  F7  1  0.87719  0.82859  0.40547  1
 F  F8  1  0.87719  0.40547  0.82859  1
 F  F9  1  0.42466  0.13744  0.13744  1
 F  F10  1  0.36077  0.54182  0.73073  1
 F  F11  1  0.63923  0.45818  0.26927  1
 F  F12  1  0.66937  0.69361  0.08431  1
 F  F13  1  0.57534  0.86256  0.86256  1
 F  F14  1  0.09004  0.35735  0.35735  1
 F  F15  1  0.33063  0.91569  0.30639  1
 F  F16  1  0.36077  0.73073  0.54182  1
 O  O1  1  0.87902  0.21913  0.02576  1
 O  O2  1  0.12098  0.97424  0.78087  1
 O  O3  1  0.12098  0.78087  0.97424  1
 O  O4  1  0.87902  0.02576  0.21913  1
 W  W1  1  1.00000  0.19256  0.80744  1
 W  W2  1  0.00000  0.80744  0.19256  1
 W  W3  1  0.76159  0.24504  0.24504  1
 W  W4  1  0.23841  0.75496  0.75496  1
