CIF file written using JARVIS-Tools package.
data_Ce2Zn4Ru
_symmetry_space_group_name_H-M  'P4/nmm'
_cell_length_a       5.17804
_cell_length_b       7.17165
_cell_length_c       7.17165
_cell_angle_alpha    90
_cell_angle_beta     90
_cell_angle_gamma    90

_symmetry_Int_Tables_number  129
_chemical_formula_structural  Ce2Zn4Ru
_chemical_formula_sum  Ce4Zn8Ru2
_cell_volume  266.32010505274116
_cell_formula_units_Z  2
loop_
  _symmetry_equiv_pos_site_id
 _symmetry_equiv_pos_as_xyz
 1  'x, y, z'
loop_
 _atom_site_type_symbol
 _atom_site_label
 _atom_site_symmetry_multiplicity
 _atom_site_fract_x
 _atom_site_fract_y
 _atom_site_fract_z
 _atom_site_fract_occupancy
 Ce  Ce1  1  0.78004  0.25000  0.25000  1
 Ce  Ce2  1  0.00000  0.75000  0.25000  1
 Ce  Ce3  1  0.21996  0.75000  0.75000  1
 Ce  Ce4  1  0.00000  0.25000  0.75000  1
 Ru  Ru1  1  0.50000  0.25000  0.75000  1
 Ru  Ru2  1  0.50000  0.75000  0.25000  1
 Zn  Zn1  1  0.28979  0.43458  0.43458  1
 Zn  Zn2  1  0.28979  0.43458  0.06542  1
 Zn  Zn3  1  0.28979  0.06542  0.06542  1
 Zn  Zn4  1  0.71021  0.93458  0.56542  1
 Zn  Zn5  1  0.28979  0.06542  0.43458  1
 Zn  Zn6  1  0.71021  0.93458  0.93458  1
 Zn  Zn7  1  0.71021  0.56542  0.93458  1
 Zn  Zn8  1  0.71021  0.56542  0.56542  1
