CIF file written using JARVIS-Tools package.
data_YN3O9
_symmetry_space_group_name_H-M  'P2_1/c'
_cell_length_a       10.9339
_cell_length_b       6.12973
_cell_length_c       9.50114
_cell_angle_alpha    90
_cell_angle_beta     93.9425
_cell_angle_gamma    90

_symmetry_Int_Tables_number  14
_chemical_formula_structural  YN3O9
_chemical_formula_sum  Y4N2O36
_cell_volume  635.2753537223132
_cell_formula_units_Z  4
loop_
  _symmetry_equiv_pos_site_id
 _symmetry_equiv_pos_as_xyz
 1  'x, y, z'
loop_
 _atom_site_type_symbol
 _atom_site_label
 _atom_site_symmetry_multiplicity
 _atom_site_fract_x
 _atom_site_fract_y
 _atom_site_fract_z
 _atom_site_fract_occupancy
 N  N1  1  0.79085  0.78082  0.70352  1
 N  N2  1  0.49306  0.62207  0.83248  1
 N  N3  1  0.50694  0.12207  0.66752  1
 N  N4  1  0.50694  0.37793  0.16752  1
 N  N5  1  0.49306  0.87793  0.33248  1
 N  N6  1  0.20915  0.28082  0.79648  1
 N  N7  1  0.79085  0.71918  0.20352  1
 N  N8  1  0.20915  0.21918  0.29648  1
 N  N9  1  0.11099  0.78363  0.02160  1
 N  N10  1  0.11099  0.71637  0.52160  1
 N  N11  1  0.88901  0.21637  0.97840  1
 N  N12  1  0.88901  0.28363  0.47840  1
 O  O1  1  0.54616  0.25447  0.57777  1
 O  O2  1  0.57884  0.07655  0.77569  1
 O  O3  1  0.42116  0.57655  0.72431  1
 O  O4  1  0.27789  0.30949  0.39406  1
 O  O5  1  0.57884  0.42345  0.27569  1
 O  O6  1  0.42116  0.92345  0.22431  1
 O  O7  1  0.45384  0.75447  0.92223  1
 O  O8  1  0.54616  0.24553  0.07777  1
 O  O9  1  0.93014  0.35533  0.59636  1
 O  O10  1  0.59826  0.54105  0.85008  1
 O  O11  1  0.04877  0.77340  0.61888  1
 O  O12  1  0.40174  0.45895  0.14992  1
 O  O13  1  0.59826  0.95895  0.35008  1
 O  O14  1  0.40174  0.04105  0.64992  1
 O  O15  1  0.27789  0.19051  0.89406  1
 O  O16  1  0.72211  0.69051  0.60594  1
 O  O17  1  0.72211  0.80949  0.10594  1
 O  O18  1  0.45384  0.74553  0.42223  1
 O  O19  1  0.81807  0.97955  0.69801  1
 O  O20  1  0.95123  0.27340  0.88112  1
 O  O21  1  0.81807  0.52045  0.19801  1
 O  O22  1  0.76834  0.26828  0.46002  1
 O  O23  1  0.18193  0.02045  0.30199  1
 O  O24  1  0.16717  0.16319  0.69436  1
 O  O25  1  0.83283  0.66319  0.80564  1
 O  O26  1  0.83283  0.83681  0.30564  1
 O  O27  1  0.23166  0.73172  0.53998  1
 O  O28  1  0.23166  0.76828  0.03998  1
 O  O29  1  0.16717  0.33681  0.19436  1
 O  O30  1  0.76834  0.23172  0.96002  1
 O  O31  1  0.18193  0.47955  0.80199  1
 O  O32  1  0.06986  0.85533  0.90364  1
 O  O33  1  0.06986  0.64467  0.40364  1
 O  O34  1  0.93014  0.14467  0.09636  1
 O  O35  1  0.95123  0.22660  0.38112  1
 O  O36  1  0.04877  0.72660  0.11888  1
 Y  Y1  1  0.73695  0.16824  0.21446  1
 Y  Y2  1  0.26305  0.66824  0.28554  1
 Y  Y3  1  0.26305  0.83176  0.78554  1
 Y  Y4  1  0.73695  0.33176  0.71446  1
