CIF file written using JARVIS-Tools package.
data_K4Nb11Al2O20F
_symmetry_space_group_name_H-M  'I4/mmm'
_cell_length_a       8.97208
_cell_length_b       8.97208
_cell_length_c       8.97208
_cell_angle_alpha    120.57
_cell_angle_beta     120.57
_cell_angle_gamma    89.016

_symmetry_Int_Tables_number  139
_chemical_formula_structural  K4Nb11Al2O20F
_chemical_formula_sum  K4NbAl2O20F
_cell_volume  506.2194880297661
_cell_formula_units_Z  1
loop_
  _symmetry_equiv_pos_site_id
 _symmetry_equiv_pos_as_xyz
 1  'x, y, z'
loop_
 _atom_site_type_symbol
 _atom_site_label
 _atom_site_symmetry_multiplicity
 _atom_site_fract_x
 _atom_site_fract_y
 _atom_site_fract_z
 _atom_site_fract_occupancy
 Al  Al1  1  0.75000  0.25000  0.50000  1
 Al  Al2  1  0.25000  0.75000  0.50000  1
 F  F1  1  0.50000  0.50000  0.00000  1
 K  K1  1  0.19192  0.50000  0.69192  1
 K  K2  1  0.50000  0.19192  0.69192  1
 K  K3  1  0.50000  0.80808  0.30808  1
 K  K4  1  0.80808  0.50000  0.30808  1
 Nb  Nb1  1  0.32416  0.00066  -0.00000  1
 Nb  Nb2  1  0.67584  0.99934  0.00000  1
 Nb  Nb3  1  0.00066  0.32416  0.00000  1
 Nb  Nb4  1  0.99934  0.99934  0.32350  1
 Nb  Nb5  1  0.99934  0.67584  -0.00000  1
 Nb  Nb6  1  0.31637  0.31637  0.00000  1
 Nb  Nb7  1  0.68363  0.68363  0.00000  1
 Nb  Nb8  1  0.00000  0.00000  0.00000  1
 Nb  Nb9  1  0.00066  0.00066  0.67650  1
 Nb  Nb10  1  0.32416  0.32416  0.32350  1
 Nb  Nb11  1  0.67584  0.67584  0.67650  1
 O  O1  1  0.49170  0.49170  0.33101  1
 O  O2  1  0.49474  0.83420  0.66054  1
 O  O3  1  0.17022  0.17022  0.34043  1
 O  O4  1  0.50830  0.50830  0.66899  1
 O  O5  1  0.50830  0.83931  0.00000  1
 O  O6  1  0.83931  0.50830  -0.00000  1
 O  O7  1  0.16069  0.49170  -0.00000  1
 O  O8  1  0.49170  0.16069  0.00000  1
 O  O9  1  0.16069  0.16069  0.66899  1
 O  O10  1  0.16580  0.82634  0.66054  1
 O  O11  1  0.17366  0.83420  0.33946  1
 O  O12  1  0.83420  0.49474  0.66054  1
 O  O13  1  0.83420  0.17366  0.33946  1
 O  O14  1  0.50526  0.16580  0.33946  1
 O  O15  1  0.82634  0.16580  0.66054  1
 O  O16  1  0.16580  0.50526  0.33946  1
 O  O17  1  0.82978  0.82978  0.65957  1
 O  O18  1  0.82978  0.17022  -0.00000  1
 O  O19  1  0.83931  0.83931  0.33101  1
 O  O20  1  0.17022  0.82978  0.00000  1
