CIF file written using JARVIS-Tools package.
data_FeOF
_symmetry_space_group_name_H-M  'Pmc2_1'
_cell_length_a       3.01201
_cell_length_b       6.57044
_cell_length_c       6.55996
_cell_angle_alpha    90
_cell_angle_beta     90
_cell_angle_gamma    90

_symmetry_Int_Tables_number  26
_chemical_formula_structural  FeOF
_chemical_formula_sum  Fe4O4F4
_cell_volume  129.82337117583165
_cell_formula_units_Z  4
loop_
  _symmetry_equiv_pos_site_id
 _symmetry_equiv_pos_as_xyz
 1  'x, y, z'
loop_
 _atom_site_type_symbol
 _atom_site_label
 _atom_site_symmetry_multiplicity
 _atom_site_fract_x
 _atom_site_fract_y
 _atom_site_fract_z
 _atom_site_fract_occupancy
 F  F1  1  0.50000  0.00167  0.45034  1
 F  F2  1  0.00000  0.29801  0.25778  1
 F  F3  1  0.00000  0.79801  0.74222  1
 F  F4  1  0.50000  0.50167  0.54966  1
 Fe  Fe1  1  0.00000  0.97759  0.22842  1
 Fe  Fe2  1  0.00000  0.47759  0.77158  1
 Fe  Fe3  1  0.50000  0.52160  0.23112  1
 Fe  Fe4  1  0.50000  0.02160  0.76888  1
 O  O1  1  0.50000  0.50045  0.95211  1
 O  O2  1  0.00000  0.70069  0.25523  1
 O  O3  1  0.00000  0.20069  0.74477  1
 O  O4  1  0.50000  0.00045  0.04789  1
