CIF file written using JARVIS-Tools package.
data_Li3Co4O8
_symmetry_space_group_name_H-M  'R-3m'
_cell_length_a       5.65922
_cell_length_b       5.65922
_cell_length_c       5.70192
_cell_angle_alpha    119.753
_cell_angle_beta     90
_cell_angle_gamma    60

_symmetry_Int_Tables_number  166
_chemical_formula_structural  Li3Co4O8
_chemical_formula_sum  Li3Co4O8
_cell_volume  129.60847270624475
_cell_formula_units_Z  1
loop_
  _symmetry_equiv_pos_site_id
 _symmetry_equiv_pos_as_xyz
 1  'x, y, z'
loop_
 _atom_site_type_symbol
 _atom_site_label
 _atom_site_symmetry_multiplicity
 _atom_site_fract_x
 _atom_site_fract_y
 _atom_site_fract_z
 _atom_site_fract_occupancy
 Co  Co1  1  -0.00000  0.00000  0.50000  1
 Co  Co2  1  0.00000  0.50000  0.50000  1
 Co  Co3  1  0.50000  0.00000  0.50000  1
 Co  Co4  1  0.50000  0.50000  0.50000  1
 Li  Li1  1  0.00000  0.50000  0.00000  1
 Li  Li2  1  0.50000  0.00000  0.00000  1
 Li  Li3  1  0.50000  0.50000  0.00000  1
 O  O1  1  0.24062  0.02392  0.28846  1
 O  O2  1  0.26454  0.47092  0.71154  1
 O  O3  1  0.23947  0.52105  0.28158  1
 O  O4  1  0.73546  0.02392  0.28846  1
 O  O5  1  0.26454  0.97608  0.71154  1
 O  O6  1  0.76053  0.47895  0.71842  1
 O  O7  1  0.73546  0.52908  0.28846  1
 O  O8  1  0.75938  0.97608  0.71154  1
