CIF file written using JARVIS-Tools package.
data_TeC4Cl2F6
_symmetry_space_group_name_H-M  'C2/c'
_cell_length_a       7.03928
_cell_length_b       7.03928
_cell_length_c       8.95309
_cell_angle_alpha    100.629
_cell_angle_beta     100.629
_cell_angle_gamma    96.0051

_symmetry_Int_Tables_number  15
_chemical_formula_structural  TeC4Cl2F6
_chemical_formula_sum  Te2C8Cl4F2
_cell_volume  424.1072516022078
_cell_formula_units_Z  2
loop_
  _symmetry_equiv_pos_site_id
 _symmetry_equiv_pos_as_xyz
 1  'x, y, z'
loop_
 _atom_site_type_symbol
 _atom_site_label
 _atom_site_symmetry_multiplicity
 _atom_site_fract_x
 _atom_site_fract_y
 _atom_site_fract_z
 _atom_site_fract_occupancy
 C  C1  1  0.02225  0.42891  0.79742  1
 C  C2  1  0.57109  0.97775  0.70258  1
 C  C3  1  0.15376  0.58666  0.81721  1
 C  C4  1  0.41334  0.84624  0.68279  1
 C  C5  1  0.97775  0.57109  0.20258  1
 C  C6  1  0.42891  0.02225  0.29742  1
 C  C7  1  0.84624  0.41334  0.18279  1
 C  C8  1  0.58666  0.15376  0.31721  1
 Cl  Cl1  1  0.41641  0.24107  0.97582  1
 Cl  Cl2  1  0.75893  0.58359  0.52418  1
 Cl  Cl3  1  0.58359  0.75893  0.02418  1
 Cl  Cl4  1  0.24107  0.41641  0.47582  1
 F  F1  1  0.88005  0.23773  0.10936  1
 F  F2  1  0.23773  0.88005  0.60936  1
 F  F3  1  0.76227  0.11995  0.39064  1
 F  F4  1  0.56757  0.14436  0.65167  1
 F  F5  1  0.43243  0.85564  0.34833  1
 F  F6  1  0.95923  0.74859  0.27394  1
 F  F7  1  0.11995  0.76227  0.89064  1
 F  F8  1  0.25141  0.04077  0.22606  1
 F  F9  1  0.74859  0.95923  0.77394  1
 F  F10  1  0.14436  0.56757  0.15167  1
 F  F11  1  0.85564  0.43243  0.84833  1
 F  F12  1  0.04077  0.25141  0.72606  1
 Te  Te1  1  0.57150  0.42850  0.25000  1
 Te  Te2  1  0.42850  0.57150  0.75000  1
