CIF file written using JARVIS-Tools package.
data_Li2U3P4O20
_symmetry_space_group_name_H-M  'P-1'
_cell_length_a       5.30437
_cell_length_b       6.74346
_cell_length_c       12.5632
_cell_angle_alpha    95.1823
_cell_angle_beta     99.1846
_cell_angle_gamma    110.578

_symmetry_Int_Tables_number  2
_chemical_formula_structural  Li2U3P4O20
_chemical_formula_sum  Li2U3P4O20
_cell_volume  410.0708529201915
_cell_formula_units_Z  1
loop_
  _symmetry_equiv_pos_site_id
 _symmetry_equiv_pos_as_xyz
 1  'x, y, z'
loop_
 _atom_site_type_symbol
 _atom_site_label
 _atom_site_symmetry_multiplicity
 _atom_site_fract_x
 _atom_site_fract_y
 _atom_site_fract_z
 _atom_site_fract_occupancy
 Li  Li1  1  0.38615  0.92664  0.18579  1
 Li  Li2  1  0.61385  0.07336  0.81421  1
 O  O1  1  0.31240  0.21723  0.21081  1
 O  O2  1  0.98374  0.18839  0.53881  1
 O  O3  1  0.94323  0.22006  0.95267  1
 O  O4  1  0.76629  0.04484  0.28618  1
 O  O5  1  0.71964  0.37665  0.12086  1
 O  O6  1  0.53643  0.75638  0.55361  1
 O  O7  1  0.38093  0.56317  0.13176  1
 O  O8  1  0.61907  0.43683  0.86824  1
 O  O9  1  0.46357  0.24362  0.44639  1
 O  O10  1  0.11675  0.48885  0.37433  1
 O  O11  1  0.68760  0.78277  0.78919  1
 O  O12  1  0.28036  0.62335  0.87914  1
 O  O13  1  0.88325  0.51115  0.62567  1
 O  O14  1  0.31069  0.43928  0.69742  1
 O  O15  1  0.01626  0.81161  0.46119  1
 O  O16  1  0.68931  0.56072  0.30258  1
 O  O17  1  0.23371  0.95516  0.71382  1
 O  O18  1  0.84300  0.17556  0.71289  1
 O  O19  1  0.05677  0.77994  0.04733  1
 O  O20  1  0.15700  0.82444  0.28711  1
 P  P1  1  0.47940  0.57810  0.81418  1
 P  P2  1  0.98825  0.33272  0.64194  1
 P  P3  1  0.01175  0.66728  0.35806  1
 P  P4  1  0.52060  0.42190  0.18582  1
 U  U1  1  0.00000  0.50000  -0.00000  1
 U  U2  1  0.11740  0.15208  0.36839  1
 U  U3  1  0.88260  0.84792  0.63161  1
