CIF file written using JARVIS-Tools package.
data_Y4Si2S3O7
_symmetry_space_group_name_H-M  'I4_1/amd'
_cell_length_a       10.7255
_cell_length_b       10.7255
_cell_length_c       10.7255
_cell_angle_alpha    78.9995
_cell_angle_beta     66.1345
_cell_angle_gamma    113.865

_symmetry_Int_Tables_number  141
_chemical_formula_structural  Y4Si2S3O7
_chemical_formula_sum  Y6Si8S2O28
_cell_volume  934.5519318629667
_cell_formula_units_Z  4
loop_
  _symmetry_equiv_pos_site_id
 _symmetry_equiv_pos_as_xyz
 1  'x, y, z'
loop_
 _atom_site_type_symbol
 _atom_site_label
 _atom_site_symmetry_multiplicity
 _atom_site_fract_x
 _atom_site_fract_y
 _atom_site_fract_z
 _atom_site_fract_occupancy
 O  O1  1  0.75000  0.14980  0.10020  1
 O  O2  1  0.76766  0.91788  0.06758  1
 O  O3  1  0.98291  0.80901  0.67390  1
 O  O4  1  0.48291  0.82610  0.69099  1
 O  O5  1  0.01709  0.82610  0.15681  1
 O  O6  1  0.51709  0.34319  0.67390  1
 O  O7  1  0.51709  0.17390  0.30901  1
 O  O8  1  0.48546  0.91788  0.34978  1
 O  O9  1  0.98291  0.17390  0.84319  1
 O  O10  1  0.48291  0.65681  0.32610  1
 O  O11  1  0.75000  0.60020  0.64980  1
 O  O12  1  0.25000  0.85020  0.89980  1
 O  O13  1  0.26766  0.43242  0.58212  1
 O  O14  1  0.01709  0.19099  0.32610  1
 O  O15  1  0.01454  0.16476  0.06758  1
 O  O16  1  0.25000  0.39980  0.35020  1
 O  O17  1  0.76766  0.84978  0.66476  1
 O  O18  1  0.01454  0.84978  0.41788  1
 O  O19  1  0.26766  0.83524  0.65022  1
 O  O20  1  0.73234  0.16476  0.34978  1
 O  O21  1  0.48546  0.56758  0.66476  1
 O  O22  1  0.98546  0.83524  0.93242  1
 O  O23  1  0.51454  0.08212  0.65022  1
 O  O24  1  0.23234  0.08212  0.93242  1
 O  O25  1  0.23234  0.15022  0.33524  1
 O  O26  1  0.98546  0.15022  0.58212  1
 O  O27  1  0.73234  0.56758  0.41788  1
 O  O28  1  0.51454  0.43242  0.33524  1
 S  S1  1  0.64618  0.64618  -0.00000  1
 S  S2  1  0.64618  -0.00000  0.85382  1
 S  S3  1  0.35382  0.00000  0.14618  1
 S  S4  1  0.14618  0.64618  0.50000  1
 S  S5  1  0.85382  0.50000  0.14618  1
 S  S6  1  0.35382  0.35382  -0.00000  1
 S  S7  1  0.85382  0.35382  0.50000  1
 S  S8  1  0.25000  0.62500  0.12500  1
 S  S9  1  0.25000  0.12500  0.62500  1
 S  S10  1  0.75000  0.87500  0.37500  1
 S  S11  1  0.75000  0.37500  0.87500  1
 S  S12  1  0.14618  0.50000  0.85382  1
 Si  Si1  1  0.37499  0.47090  0.40409  1
 Si  Si2  1  0.87499  0.09591  0.02910  1
 Si  Si3  1  0.62501  0.09591  0.27908  1
 Si  Si4  1  0.12501  0.22092  0.40409  1
 Si  Si5  1  0.12501  0.90409  0.97090  1
 Si  Si6  1  0.37499  0.90409  0.72092  1
 Si  Si7  1  0.87499  0.77908  0.59591  1
 Si  Si8  1  0.62501  0.52910  0.59591  1
 Y  Y1  1  0.59417  0.29708  0.45292  1
 Y  Y2  1  0.09417  0.04708  0.20292  1
 Y  Y3  1  0.75000  0.04708  0.54708  1
 Y  Y4  1  0.25000  0.95292  0.45292  1
 Y  Y5  1  0.90583  0.95292  0.79708  1
 Y  Y6  1  0.75000  0.70292  0.20292  1
 Y  Y7  1  0.40583  0.70292  0.54708  1
 Y  Y8  1  0.48556  0.65876  0.85568  1
 Y  Y9  1  0.98556  0.34124  0.67320  1
 Y  Y10  1  0.51444  0.34124  0.14432  1
 Y  Y11  1  0.01444  0.35568  0.15876  1
 Y  Y12  1  0.51444  0.17320  0.84124  1
 Y  Y13  1  0.01444  0.65876  0.32680  1
 Y  Y14  1  0.48556  0.82680  0.15876  1
 Y  Y15  1  0.25000  0.29708  0.79708  1
 Y  Y16  1  0.98556  0.64432  0.84124  1
