CIF file written using JARVIS-Tools package.
data_Li2TiNi2O5
_symmetry_space_group_name_H-M  'C2/c'
_cell_length_a       4.97253
_cell_length_b       7.80243
_cell_length_c       5.06031
_cell_angle_alpha    95.9156
_cell_angle_beta     108.878
_cell_angle_gamma    71.4184

_symmetry_Int_Tables_number  15
_chemical_formula_structural  Li2TiNi2O5
_chemical_formula_sum  Li4Ti2Ni4O0
_cell_volume  176.0850999566731
_cell_formula_units_Z  2
loop_
  _symmetry_equiv_pos_site_id
 _symmetry_equiv_pos_as_xyz
 1  'x, y, z'
loop_
 _atom_site_type_symbol
 _atom_site_label
 _atom_site_symmetry_multiplicity
 _atom_site_fract_x
 _atom_site_fract_y
 _atom_site_fract_z
 _atom_site_fract_occupancy
 Li  Li1  1  0.90373  0.19253  0.50000  1
 Li  Li2  1  0.09946  0.80108  0.50000  1
 Li  Li3  1  0.60055  0.79892  0.00000  1
 Li  Li4  1  0.79627  0.40746  0.00000  1
 Ni  Ni1  1  0.30027  0.39948  0.50000  1
 Ni  Ni2  1  0.39973  0.20053  0.00000  1
 Ni  Ni3  1  0.50155  0.99690  0.50000  1
 Ni  Ni4  1  0.19846  0.60310  -0.00000  1
 O  O1  1  0.75684  0.00230  0.23580  1
 O  O2  1  0.54737  0.41065  0.25420  1
 O  O3  1  0.85000  0.80000  0.75000  1
 O  O4  1  0.65801  0.18935  0.75419  1
 O  O5  1  0.45915  0.59769  0.73579  1
 O  O6  1  0.94316  0.59770  0.26420  1
 O  O7  1  0.04199  0.41065  0.74581  1
 O  O8  1  0.24085  0.00230  0.76421  1
 O  O9  1  0.35000  0.80000  0.25000  1
 O  O10  1  0.15263  0.18935  0.24580  1
 Ti  Ti1  1  0.99746  0.00507  0.00000  1
 Ti  Ti2  1  0.70253  0.59493  0.50000  1
