CIF file written using JARVIS-Tools package.
data_KNaNdNbO5
_symmetry_space_group_name_H-M  'P4/nmm'
_cell_length_a       5.76947
_cell_length_b       5.76947
_cell_length_c       8.30388
_cell_angle_alpha    90
_cell_angle_beta     90
_cell_angle_gamma    90

_symmetry_Int_Tables_number  129
_chemical_formula_structural  KNaNdNbO5
_chemical_formula_sum  K2Na2Nd2Nb2O0
_cell_volume  276.4091496334746
_cell_formula_units_Z  2
loop_
  _symmetry_equiv_pos_site_id
 _symmetry_equiv_pos_as_xyz
 1  'x, y, z'
loop_
 _atom_site_type_symbol
 _atom_site_label
 _atom_site_symmetry_multiplicity
 _atom_site_fract_x
 _atom_site_fract_y
 _atom_site_fract_z
 _atom_site_fract_occupancy
 K  K1  1  0.25000  0.75000  0.00000  1
 K  K2  1  0.75000  0.25000  0.00000  1
 Na  Na1  1  0.25000  0.25000  0.75786  1
 Na  Na2  1  0.75000  0.75000  0.24214  1
 Nb  Nb1  1  0.25000  0.25000  0.25583  1
 Nb  Nb2  1  0.75000  0.75000  0.74417  1
 Nd  Nd1  1  0.25000  0.75000  0.50000  1
 Nd  Nd2  1  0.75000  0.25000  0.50000  1
 O  O1  1  0.01801  0.01801  0.32846  1
 O  O2  1  0.51801  0.51801  0.67154  1
 O  O3  1  0.75000  0.75000  0.96948  1
 O  O4  1  0.98199  0.98199  0.67154  1
 O  O5  1  0.98199  0.51801  0.67154  1
 O  O6  1  0.25000  0.25000  0.03052  1
 O  O7  1  0.51801  0.98199  0.67154  1
 O  O8  1  0.48199  0.01801  0.32846  1
 O  O9  1  0.48199  0.48199  0.32846  1
 O  O10  1  0.01801  0.48199  0.32846  1
