CIF file written using JARVIS-Tools package.
data_TcN2F6
_symmetry_space_group_name_H-M  'C2/m'
_cell_length_a       4.7544
_cell_length_b       5.80745
_cell_length_c       5.80668
_cell_angle_alpha    119.769
_cell_angle_beta     90.0489
_cell_angle_gamma    89.9449

_symmetry_Int_Tables_number  12
_chemical_formula_structural  TcN2F6
_chemical_formula_sum  TcN2F6
_cell_volume  139.1699282256669
_cell_formula_units_Z  1
loop_
  _symmetry_equiv_pos_site_id
 _symmetry_equiv_pos_as_xyz
 1  'x, y, z'
loop_
 _atom_site_type_symbol
 _atom_site_label
 _atom_site_symmetry_multiplicity
 _atom_site_fract_x
 _atom_site_fract_y
 _atom_site_fract_z
 _atom_site_fract_occupancy
 F  F1  1  0.22286  0.85061  0.70006  1
 F  F2  1  0.22272  0.29996  0.14941  1
 F  F3  1  0.22338  0.84963  0.15053  1
 F  F4  1  0.77714  0.14939  0.29994  1
 F  F5  1  0.77728  0.70004  0.85059  1
 F  F6  1  0.77662  0.15037  0.84947  1
 N  N1  1  0.29322  0.33408  0.66611  1
 N  N2  1  0.70678  0.66592  0.33389  1
 Tc  Tc1  1  0.00000  0.00000  0.00000  1
