CIF file written using JARVIS-Tools package.
data_NaLiMnPCO7
_symmetry_space_group_name_H-M  'P2_1'
_cell_length_a       5.23479
_cell_length_b       6.28183
_cell_length_c       8.77263
_cell_angle_alpha    90
_cell_angle_beta     89.9793
_cell_angle_gamma    90

_symmetry_Int_Tables_number  4
_chemical_formula_structural  NaLiMnPCO7
_chemical_formula_sum  Na2Li2Mn2P2C2O4
_cell_volume  288.47929496574625
_cell_formula_units_Z  2
loop_
  _symmetry_equiv_pos_site_id
 _symmetry_equiv_pos_as_xyz
 1  'x, y, z'
loop_
 _atom_site_type_symbol
 _atom_site_label
 _atom_site_symmetry_multiplicity
 _atom_site_fract_x
 _atom_site_fract_y
 _atom_site_fract_z
 _atom_site_fract_occupancy
 C  C1  1  0.28940  0.27070  0.06282  1
 C  C2  1  0.71060  0.77070  0.93718  1
 Li  Li1  1  0.76850  0.06682  0.18757  1
 Li  Li2  1  0.23150  0.56682  0.81243  1
 Mn  Mn1  1  0.22716  0.22649  0.35375  1
 Mn  Mn2  1  0.77284  0.72649  0.64625  1
 Na  Na1  1  0.78772  0.52926  0.23614  1
 Na  Na2  1  0.21228  0.02926  0.76386  1
 O  O1  1  0.73005  0.80779  0.07791  1
 O  O2  1  0.91945  0.73698  0.85342  1
 O  O3  1  0.49959  0.26457  0.13900  1
 O  O4  1  0.22474  0.92379  0.34018  1
 O  O5  1  0.21745  0.53413  0.34112  1
 O  O6  1  0.08055  0.23698  0.14658  1
 O  O7  1  0.60319  0.72370  0.45233  1
 O  O8  1  0.77526  0.42379  0.65982  1
 O  O9  1  0.18420  0.72727  0.59600  1
 O  O10  1  0.78255  0.03413  0.65888  1
 O  O11  1  0.81580  0.22727  0.40400  1
 O  O12  1  0.50041  0.76457  0.86100  1
 O  O13  1  0.39681  0.22370  0.54767  1
 O  O14  1  0.26995  0.30779  0.92209  1
 P  P1  1  0.69599  0.22847  0.56379  1
 P  P2  1  0.30401  0.72847  0.43621  1
