CIF file written using JARVIS-Tools package.
data_KH3Se2O6
_symmetry_space_group_name_H-M  'Pbcn'
_cell_length_a       15.9553
_cell_length_b       6.14428
_cell_length_c       6.29512
_cell_angle_alpha    90
_cell_angle_beta     90
_cell_angle_gamma    90

_symmetry_Int_Tables_number  60
_chemical_formula_structural  KH3Se2O6
_chemical_formula_sum  K4H2Se8O24
_cell_volume  617.1341758894108
_cell_formula_units_Z  4
loop_
  _symmetry_equiv_pos_site_id
 _symmetry_equiv_pos_as_xyz
 1  'x, y, z'
loop_
 _atom_site_type_symbol
 _atom_site_label
 _atom_site_symmetry_multiplicity
 _atom_site_fract_x
 _atom_site_fract_y
 _atom_site_fract_z
 _atom_site_fract_occupancy
 H  H1  1  0.17569  0.56393  0.96431  1
 H  H2  1  0.32431  0.93607  0.46431  1
 H  H3  1  0.67569  0.93607  0.03569  1
 H  H4  1  0.82431  0.56393  0.53569  1
 H  H5  1  0.50000  0.38395  0.75000  1
 H  H6  1  0.00000  0.11605  0.25000  1
 H  H7  1  0.50000  0.61605  0.25000  1
 H  H8  1  0.00000  0.88395  0.75000  1
 H  H9  1  0.17569  0.43607  0.46431  1
 H  H10  1  0.32431  0.06393  0.96431  1
 H  H11  1  0.67569  0.06393  0.53569  1
 H  H12  1  0.82431  0.43607  0.03569  1
 K  K1  1  0.50000  0.81922  0.75000  1
 K  K2  1  0.50000  0.18078  0.25000  1
 K  K3  1  0.00000  0.68078  0.25000  1
 K  K4  1  0.00000  0.31922  0.75000  1
 O  O1  1  0.93535  0.10549  0.14546  1
 O  O2  1  0.93535  0.89451  0.64546  1
 O  O3  1  0.43535  0.60549  0.35454  1
 O  O4  1  0.06465  0.89451  0.85454  1
 O  O5  1  0.11189  0.39299  0.06287  1
 O  O6  1  0.38811  0.10701  0.56287  1
 O  O7  1  0.88811  0.39299  0.43713  1
 O  O8  1  0.88811  0.60701  0.93713  1
 O  O9  1  0.61189  0.89299  0.43713  1
 O  O10  1  0.38811  0.89299  0.06287  1
 O  O11  1  0.11189  0.60701  0.56287  1
 O  O12  1  0.28764  0.18601  0.90271  1
 O  O13  1  0.56465  0.39451  0.64546  1
 O  O14  1  0.61189  0.10701  0.93713  1
 O  O15  1  0.43535  0.39451  0.85454  1
 O  O16  1  0.21236  0.31399  0.40271  1
 O  O17  1  0.21236  0.68601  0.90271  1
 O  O18  1  0.28764  0.81399  0.40271  1
 O  O19  1  0.71236  0.81399  0.09729  1
 O  O20  1  0.78764  0.68601  0.59729  1
 O  O21  1  0.78764  0.31399  0.09729  1
 O  O22  1  0.71236  0.18601  0.59729  1
 O  O23  1  0.56465  0.60549  0.14546  1
 O  O24  1  0.06465  0.10549  0.35454  1
 Se  Se1  1  0.15203  0.82067  0.69915  1
 Se  Se2  1  0.34797  0.67933  0.19915  1
 Se  Se3  1  0.65203  0.67933  0.30085  1
 Se  Se4  1  0.15203  0.17933  0.19915  1
 Se  Se5  1  0.84797  0.17933  0.30085  1
 Se  Se6  1  0.65203  0.32067  0.80085  1
 Se  Se7  1  0.34797  0.32067  0.69915  1
 Se  Se8  1  0.84797  0.82067  0.80085  1
