CIF file written using JARVIS-Tools package.
data_TiPOs
_symmetry_space_group_name_H-M  'P-62m'
_cell_length_a       3.7248
_cell_length_b       6.2907
_cell_length_c       6.29068
_cell_angle_alpha    120
_cell_angle_beta     90
_cell_angle_gamma    90

_symmetry_Int_Tables_number  189
_chemical_formula_structural  TiPOs
_chemical_formula_sum  Ti3P3Os3
_cell_volume  127.65287343354686
_cell_formula_units_Z  3
loop_
  _symmetry_equiv_pos_site_id
 _symmetry_equiv_pos_as_xyz
 1  'x, y, z'
loop_
 _atom_site_type_symbol
 _atom_site_label
 _atom_site_symmetry_multiplicity
 _atom_site_fract_x
 _atom_site_fract_y
 _atom_site_fract_z
 _atom_site_fract_occupancy
 Os  Os1  1  0.00000  0.25320  0.00000  1
 Os  Os2  1  0.00000  0.74678  0.74679  1
 Os  Os3  1  0.00000  -0.00001  0.25321  1
 P  P1  1  0.00000  0.33333  0.66666  1
 P  P2  1  0.00000  0.66666  0.33334  1
 P  P3  1  0.50000  0.99998  0.00000  1
 Ti  Ti1  1  0.50000  0.58386  -0.00000  1
 Ti  Ti2  1  0.50000  0.41611  0.41611  1
 Ti  Ti3  1  0.50000  0.00000  0.58389  1
