CIF file written using JARVIS-Tools package.
data_LiGaAs2O7
_symmetry_space_group_name_H-M  'C2'
_cell_length_a       4.76907
_cell_length_b       5.31977
_cell_length_c       5.3198
_cell_angle_alpha    101.816
_cell_angle_beta     98.9402
_cell_angle_gamma    98.9398

_symmetry_Int_Tables_number  5
_chemical_formula_structural  LiGaAs2O7
_chemical_formula_sum  LiGaAs2O7
_cell_volume  128.030331591829
_cell_formula_units_Z  1
loop_
  _symmetry_equiv_pos_site_id
 _symmetry_equiv_pos_as_xyz
 1  'x, y, z'
loop_
 _atom_site_type_symbol
 _atom_site_label
 _atom_site_symmetry_multiplicity
 _atom_site_fract_x
 _atom_site_fract_y
 _atom_site_fract_z
 _atom_site_fract_occupancy
 As  As1  1  0.90611  0.18064  0.25105  1
 As  As2  1  0.09390  0.74895  0.81936  1
 Ga  Ga1  1  0.50000  0.62443  0.37557  1
 Li  Li1  1  0.50000  0.24856  0.75144  1
 O  O1  1  0.65994  0.35443  0.13916  1
 O  O2  1  0.34006  0.86084  0.64557  1
 O  O3  1  0.23044  0.61475  0.06060  1
 O  O4  1  0.76956  0.93940  0.38525  1
 O  O5  1  0.77273  0.54524  0.66098  1
 O  O6  1  0.22727  0.33902  0.45476  1
 O  O7  1  0.00000  0.05443  0.94557  1
