CIF file written using JARVIS-Tools package.
data_PrAlPd
_symmetry_space_group_name_H-M  'P-62m'
_cell_length_a       4.23918
_cell_length_b       7.3011
_cell_length_c       7.30092
_cell_angle_alpha    120.001
_cell_angle_beta     90
_cell_angle_gamma    90

_symmetry_Int_Tables_number  189
_chemical_formula_structural  PrAlPd
_chemical_formula_sum  Pr3Al3Pd3
_cell_volume  195.69276060625873
_cell_formula_units_Z  3
loop_
  _symmetry_equiv_pos_site_id
 _symmetry_equiv_pos_as_xyz
 1  'x, y, z'
loop_
 _atom_site_type_symbol
 _atom_site_label
 _atom_site_symmetry_multiplicity
 _atom_site_fract_x
 _atom_site_fract_y
 _atom_site_fract_z
 _atom_site_fract_occupancy
 Al  Al1  1  0.00000  0.22904  0.00000  1
 Al  Al2  1  0.00000  0.77092  0.77092  1
 Al  Al3  1  0.00000  -0.00000  0.22908  1
 Pd  Pd1  1  0.00000  0.33334  0.66668  1
 Pd  Pd2  1  0.00000  0.66666  0.33332  1
 Pd  Pd3  1  0.50000  0.99996  0.00000  1
 Pr  Pr1  1  0.50000  0.58068  0.00000  1
 Pr  Pr2  1  0.50000  0.41931  0.41931  1
 Pr  Pr3  1  0.50000  0.00000  0.58069  1
