CIF file written using JARVIS-Tools package.
data_Al5BO9
_symmetry_space_group_name_H-M  'Cmc2_1'
_cell_length_a       8.08393
_cell_length_b       8.08393
_cell_length_c       7.76101
_cell_angle_alpha    90
_cell_angle_beta     90
_cell_angle_gamma    138.501

_symmetry_Int_Tables_number  36
_chemical_formula_structural  Al5BO9
_chemical_formula_sum  Al0B2O8
_cell_volume  336.05859790071133
_cell_formula_units_Z  2
loop_
  _symmetry_equiv_pos_site_id
 _symmetry_equiv_pos_as_xyz
 1  'x, y, z'
loop_
 _atom_site_type_symbol
 _atom_site_label
 _atom_site_symmetry_multiplicity
 _atom_site_fract_x
 _atom_site_fract_y
 _atom_site_fract_z
 _atom_site_fract_occupancy
 Al  Al1  1  0.36749  0.13589  0.66793  1
 Al  Al2  1  0.63251  0.86411  0.16793  1
 Al  Al3  1  0.13589  0.36749  0.16793  1
 Al  Al4  1  0.86411  0.63251  0.66793  1
 Al  Al5  1  0.70294  0.29706  0.33379  1
 Al  Al6  1  0.25527  0.74473  0.48168  1
 Al  Al7  1  0.44387  0.55613  0.48361  1
 Al  Al8  1  0.55613  0.44387  0.98361  1
 Al  Al9  1  0.29706  0.70294  0.83379  1
 Al  Al10  1  0.74473  0.25527  0.98168  1
 B  B1  1  0.01552  0.98448  0.94601  1
 B  B2  1  0.98448  0.01552  0.44601  1
 O  O1  1  0.45454  0.54546  0.09565  1
 O  O2  1  0.33043  0.66957  0.29858  1
 O  O3  1  0.66957  0.33043  0.79858  1
 O  O4  1  0.16219  0.25774  0.38170  1
 O  O5  1  0.55332  0.93281  0.96718  1
 O  O6  1  0.06719  0.44668  0.96718  1
 O  O7  1  0.93281  0.55332  0.46718  1
 O  O8  1  0.44668  0.06719  0.46718  1
 O  O9  1  0.25774  0.16219  0.88170  1
 O  O10  1  0.35186  0.64814  0.62960  1
 O  O11  1  0.64814  0.35186  0.12960  1
 O  O12  1  0.19101  0.80899  0.73229  1
 O  O13  1  0.80899  0.19101  0.23229  1
 O  O14  1  0.54546  0.45454  0.59565  1
 O  O15  1  0.74226  0.83781  0.38170  1
 O  O16  1  0.95396  0.04604  0.07458  1
 O  O17  1  0.04604  0.95396  0.57458  1
 O  O18  1  0.83781  0.74226  0.88170  1
