CIF file written using JARVIS-Tools package.
data_Ca3B6Rh8
_symmetry_space_group_name_H-M  'Fmmm'
_cell_length_a       5.52772
_cell_length_b       5.61167
_cell_length_c       8.99484
_cell_angle_alpha    81.2955
_cell_angle_beta     72.1052
_cell_angle_gamma    60.4937

_symmetry_Int_Tables_number  69
_chemical_formula_structural  Ca3B6Rh8
_chemical_formula_sum  Ca3B6Rh8
_cell_volume  231.0814331913175
_cell_formula_units_Z  1
loop_
  _symmetry_equiv_pos_site_id
 _symmetry_equiv_pos_as_xyz
 1  'x, y, z'
loop_
 _atom_site_type_symbol
 _atom_site_label
 _atom_site_symmetry_multiplicity
 _atom_site_fract_x
 _atom_site_fract_y
 _atom_site_fract_z
 _atom_site_fract_occupancy
 B  B1  1  0.66944  0.31752  0.34359  1
 B  B2  1  0.33056  0.68248  0.65641  1
 B  B3  1  0.01304  0.31752  0.65641  1
 B  B4  1  0.83292  0.33416  -0.00000  1
 B  B5  1  0.98696  0.68248  0.34359  1
 B  B6  1  0.16708  0.66584  -0.00000  1
 Ca  Ca1  1  0.68158  0.00000  0.63684  1
 Ca  Ca2  1  0.31842  0.00000  0.36316  1
 Ca  Ca3  1  0.50000  0.00000  0.00000  1
 Rh  Rh1  1  0.75000  0.50000  0.50000  1
 Rh  Rh2  1  0.91322  0.00000  0.17356  1
 Rh  Rh3  1  0.41511  0.50000  0.16978  1
 Rh  Rh4  1  0.08678  0.00000  0.82644  1
 Rh  Rh5  1  0.58489  0.50000  0.83022  1
 Rh  Rh6  1  0.91511  0.50000  0.16978  1
 Rh  Rh7  1  0.08489  0.50000  0.83022  1
 Rh  Rh8  1  0.25000  0.50000  0.50000  1
