CIF file written using JARVIS-Tools package.
data_NbCuO3
_symmetry_space_group_name_H-M  'C2/m'
_cell_length_a       6.4499
_cell_length_b       6.4499
_cell_length_c       6.77072
_cell_angle_alpha    88.7526
_cell_angle_beta     88.7526
_cell_angle_gamma    83.9221

_symmetry_Int_Tables_number  12
_chemical_formula_structural  NbCuO3
_chemical_formula_sum  Nb4Cu4O2
_cell_volume  279.96687067268937
_cell_formula_units_Z  4
loop_
  _symmetry_equiv_pos_site_id
 _symmetry_equiv_pos_as_xyz
 1  'x, y, z'
loop_
 _atom_site_type_symbol
 _atom_site_label
 _atom_site_symmetry_multiplicity
 _atom_site_fract_x
 _atom_site_fract_y
 _atom_site_fract_z
 _atom_site_fract_occupancy
 Cu  Cu1  1  0.22570  0.22570  0.28504  1
 Cu  Cu2  1  0.77430  0.77430  0.71496  1
 Cu  Cu3  1  0.84266  0.15734  0.50000  1
 Cu  Cu4  1  0.15734  0.84266  0.50000  1
 Nb  Nb1  1  0.74478  0.74478  0.23810  1
 Nb  Nb2  1  0.79888  0.20112  0.00000  1
 Nb  Nb3  1  0.20112  0.79888  -0.00000  1
 Nb  Nb4  1  0.25522  0.25522  0.76190  1
 O  O1  1  0.32485  0.32485  0.50759  1
 O  O2  1  0.87091  0.87091  0.94574  1
 O  O3  1  0.12909  0.12909  0.05426  1
 O  O4  1  0.26327  0.93423  0.73361  1
 O  O5  1  0.06577  0.73673  0.26639  1
 O  O6  1  0.46825  0.79144  0.11194  1
 O  O7  1  0.93423  0.26327  0.73361  1
 O  O8  1  0.67515  0.67515  0.49241  1
 O  O9  1  0.53175  0.20856  0.88806  1
 O  O10  1  0.20856  0.53175  0.88806  1
 O  O11  1  0.73673  0.06577  0.26639  1
 O  O12  1  0.79144  0.46825  0.11194  1
