CIF file written using JARVIS-Tools package.
data_MnSbO4
_symmetry_space_group_name_H-M  'I-4m2'
_cell_length_a       5.57386
_cell_length_b       5.57386
_cell_length_c       5.57386
_cell_angle_alpha    138.386
_cell_angle_beta     138.386
_cell_angle_gamma    60.3121

_symmetry_Int_Tables_number  119
_chemical_formula_structural  MnSbO4
_chemical_formula_sum  MnSbO4
_cell_volume  75.5731343261727
_cell_formula_units_Z  1
loop_
  _symmetry_equiv_pos_site_id
 _symmetry_equiv_pos_as_xyz
 1  'x, y, z'
loop_
 _atom_site_type_symbol
 _atom_site_label
 _atom_site_symmetry_multiplicity
 _atom_site_fract_x
 _atom_site_fract_y
 _atom_site_fract_z
 _atom_site_fract_occupancy
 Mn  Mn1  1  0.00000  0.00000  0.00000  1
 O  O1  1  0.54318  0.04318  0.50000  1
 O  O2  1  0.20880  0.20880  0.00000  1
 O  O3  1  0.95682  0.45682  0.50000  1
 O  O4  1  0.79120  0.79120  -0.00000  1
 Sb  Sb1  1  0.75000  0.25000  0.50000  1
