CIF file written using JARVIS-Tools package.
data_Li3Ti4O8
_symmetry_space_group_name_H-M  'P2/m'
_cell_length_a       4.92441
_cell_length_b       4.95889
_cell_length_c       5.69978
_cell_angle_alpha    90
_cell_angle_beta     90
_cell_angle_gamma    90.5784

_symmetry_Int_Tables_number  10
_chemical_formula_structural  Li3Ti4O8
_chemical_formula_sum  Li3Ti4O8
_cell_volume  139.17927346513667
_cell_formula_units_Z  1
loop_
  _symmetry_equiv_pos_site_id
 _symmetry_equiv_pos_as_xyz
 1  'x, y, z'
loop_
 _atom_site_type_symbol
 _atom_site_label
 _atom_site_symmetry_multiplicity
 _atom_site_fract_x
 _atom_site_fract_y
 _atom_site_fract_z
 _atom_site_fract_occupancy
 Li  Li1  1  -0.00000  0.50000  0.01647  1
 Li  Li2  1  0.50000  -0.00000  0.76934  1
 Li  Li3  1  0.50000  -0.00000  0.26232  1
 O  O1  1  0.18523  0.23013  0.77272  1
 O  O2  1  0.18518  0.23017  0.25906  1
 O  O3  1  0.68246  0.26447  0.01594  1
 O  O4  1  0.81477  0.76987  0.77272  1
 O  O5  1  0.81482  0.76983  0.25906  1
 O  O6  1  0.67105  0.25067  0.51591  1
 O  O7  1  0.32895  0.74933  0.51591  1
 O  O8  1  0.31754  0.73553  0.01594  1
 Ti  Ti1  1  0.50000  0.50000  0.75547  1
 Ti  Ti2  1  0.00000  0.00000  0.51590  1
 Ti  Ti3  1  0.50000  0.50000  0.27641  1
 Ti  Ti4  1  0.00000  0.00000  0.01583  1
