CIF file written using JARVIS-Tools package.
data_Mg6VW
_symmetry_space_group_name_H-M  'Amm2'
_cell_length_a       6.15162
_cell_length_b       5.77354
_cell_length_c       4.90509
_cell_angle_alpha    90
_cell_angle_beta     90
_cell_angle_gamma    117.987

_symmetry_Int_Tables_number  38
_chemical_formula_structural  Mg6VW
_chemical_formula_sum  Mg6VW
_cell_volume  153.83872358391835
_cell_formula_units_Z  1
loop_
  _symmetry_equiv_pos_site_id
 _symmetry_equiv_pos_as_xyz
 1  'x, y, z'
loop_
 _atom_site_type_symbol
 _atom_site_label
 _atom_site_symmetry_multiplicity
 _atom_site_fract_x
 _atom_site_fract_y
 _atom_site_fract_z
 _atom_site_fract_occupancy
 Mg  Mg1  1  0.65257  0.32641  0.25000  1
 Mg  Mg2  1  0.65257  0.82615  0.25000  1
 Mg  Mg3  1  0.33021  0.15930  0.75000  1
 Mg  Mg4  1  0.33021  0.67092  0.75000  1
 Mg  Mg5  1  0.86318  0.18159  0.75000  1
 Mg  Mg6  1  0.86403  0.68202  0.75000  1
 V  V1  1  0.15681  0.32841  0.25000  1
 W  W1  1  0.15041  0.82521  0.25000  1
