CIF file written using JARVIS-Tools package.
data_K2NiN4O12
_symmetry_space_group_name_H-M  'Cc'
_cell_length_a       6.94225
_cell_length_b       9.05645
_cell_length_c       9.08654
_cell_angle_alpha    98.231
_cell_angle_beta     112.458
_cell_angle_gamma    90

_symmetry_Int_Tables_number  9
_chemical_formula_structural  K2NiN4O12
_chemical_formula_sum  K4Ni2N8O24
_cell_volume  521.5904913345179
_cell_formula_units_Z  2
loop_
  _symmetry_equiv_pos_site_id
 _symmetry_equiv_pos_as_xyz
 1  'x, y, z'
loop_
 _atom_site_type_symbol
 _atom_site_label
 _atom_site_symmetry_multiplicity
 _atom_site_fract_x
 _atom_site_fract_y
 _atom_site_fract_z
 _atom_site_fract_occupancy
 K  K1  1  0.10109  0.28294  0.52040  1
 K  K2  1  0.41931  0.78294  0.52040  1
 K  K3  1  0.43230  0.35226  0.12021  1
 K  K4  1  0.68791  0.85226  0.12021  1
 N  N1  1  0.66392  0.47470  0.66604  1
 N  N2  1  0.53505  0.09952  0.40694  1
 N  N3  1  0.98507  0.21212  0.12247  1
 N  N4  1  0.87188  0.59952  0.40694  1
 N  N5  1  0.00213  0.97470  0.66604  1
 N  N6  1  0.48035  0.08104  0.87389  1
 N  N7  1  0.13740  0.71212  0.12247  1
 N  N8  1  0.39354  0.58104  0.87389  1
 Ni  Ni1  1  0.72256  0.17695  0.76060  1
 Ni  Ni2  1  0.03804  0.67695  0.76060  1
 O  O1  1  0.48043  0.21452  0.83908  1
 O  O2  1  0.62745  0.21163  0.39258  1
 O  O3  1  0.50093  0.09606  0.53849  1
 O  O4  1  0.03756  0.59606  0.53849  1
 O  O5  1  0.37592  0.04358  0.94740  1
 O  O6  1  0.76514  0.71163  0.39258  1
 O  O7  1  0.83718  0.15354  0.14547  1
 O  O8  1  0.96561  0.23688  0.98100  1
 O  O9  1  0.30829  0.65354  0.14547  1
 O  O10  1  0.94169  0.10910  0.67270  1
 O  O11  1  0.79893  0.38252  0.72730  1
 O  O12  1  0.22903  0.49426  0.83215  1
 O  O13  1  0.60313  0.99426  0.83215  1
 O  O14  1  0.47344  0.44185  0.60084  1
 O  O15  1  0.15816  0.25058  0.23664  1
 O  O16  1  0.47178  0.98658  0.30017  1
 O  O17  1  0.01540  0.73688  0.98100  1
 O  O18  1  0.82839  0.48658  0.30017  1
 O  O19  1  0.35865  0.71452  0.83908  1
 O  O20  1  0.12740  0.94185  0.60084  1
 O  O21  1  0.73101  0.60910  0.67270  1
 O  O22  1  0.92837  0.88252  0.72730  1
 O  O23  1  0.07848  0.75058  0.23664  1
 O  O24  1  0.57148  0.54358  0.94740  1
