CIF file written using JARVIS-Tools package.
data_CaGa2Ni
_symmetry_space_group_name_H-M  'Cmcm'
_cell_length_a       4.04483
_cell_length_b       5.53175
_cell_length_c       6.92749
_cell_angle_alpha    90
_cell_angle_beta     90
_cell_angle_gamma    111.445

_symmetry_Int_Tables_number  63
_chemical_formula_structural  CaGa2Ni
_chemical_formula_sum  Ca2Ga4Ni2
_cell_volume  144.27178728112338
_cell_formula_units_Z  2
loop_
  _symmetry_equiv_pos_site_id
 _symmetry_equiv_pos_as_xyz
 1  'x, y, z'
loop_
 _atom_site_type_symbol
 _atom_site_label
 _atom_site_symmetry_multiplicity
 _atom_site_fract_x
 _atom_site_fract_y
 _atom_site_fract_z
 _atom_site_fract_occupancy
 Ca  Ca1  1  0.44148  0.88296  0.75000  1
 Ca  Ca2  1  0.55852  0.11704  0.25000  1
 Ga  Ga1  1  0.15785  0.31570  0.94460  1
 Ga  Ga2  1  0.84215  0.68430  0.05540  1
 Ga  Ga3  1  0.15785  0.31570  0.55540  1
 Ga  Ga4  1  0.84215  0.68430  0.44460  1
 Ni  Ni1  1  0.28236  0.56472  0.25000  1
 Ni  Ni2  1  0.71764  0.43528  0.75000  1
