CIF file written using JARVIS-Tools package.
data_Fe3N
_symmetry_space_group_name_H-M  'P6_322'
_cell_length_a       4.30636
_cell_length_b       4.6364
_cell_length_c       4.63637
_cell_angle_alpha    120
_cell_angle_beta     89.9998
_cell_angle_gamma    89.9999

_symmetry_Int_Tables_number  182
_chemical_formula_structural  Fe3N
_chemical_formula_sum  Fe6N2
_cell_volume  80.16763849036785
_cell_formula_units_Z  2
loop_
  _symmetry_equiv_pos_site_id
 _symmetry_equiv_pos_as_xyz
 1  'x, y, z'
loop_
 _atom_site_type_symbol
 _atom_site_label
 _atom_site_symmetry_multiplicity
 _atom_site_fract_x
 _atom_site_fract_y
 _atom_site_fract_z
 _atom_site_fract_occupancy
 Fe  Fe1  1  0.50000  0.67477  0.00000  1
 Fe  Fe2  1  0.50000  0.32524  0.32523  1
 Fe  Fe3  1  0.50000  0.00001  0.67477  1
 Fe  Fe4  1  -0.00000  0.32525  -0.00000  1
 Fe  Fe5  1  -0.00000  0.67478  0.67477  1
 Fe  Fe6  1  0.00000  0.00001  0.32523  1
 N  N1  1  0.25000  0.66668  0.33333  1
 N  N2  1  0.75000  0.33335  0.66667  1
