CIF file written using JARVIS-Tools package.
data_BaZn4Br
_symmetry_space_group_name_H-M  'F-43m'
_cell_length_a       5.96351
_cell_length_b       5.96351
_cell_length_c       5.96351
_cell_angle_alpha    60
_cell_angle_beta     60
_cell_angle_gamma    60

_symmetry_Int_Tables_number  216
_chemical_formula_structural  BaZn4Br
_chemical_formula_sum  BaZn4Br
_cell_volume  149.96544418873395
_cell_formula_units_Z  1
loop_
  _symmetry_equiv_pos_site_id
 _symmetry_equiv_pos_as_xyz
 1  'x, y, z'
loop_
 _atom_site_type_symbol
 _atom_site_label
 _atom_site_symmetry_multiplicity
 _atom_site_fract_x
 _atom_site_fract_y
 _atom_site_fract_z
 _atom_site_fract_occupancy
 Ba  Ba1  1  0.25000  0.25000  0.25000  1
 Br  Br1  1  0.00000  0.00000  0.00000  1
 Zn  Zn1  1  0.11597  0.62801  0.62801  1
 Zn  Zn2  1  0.62801  0.62801  0.62801  1
 Zn  Zn3  1  0.62801  0.11597  0.62801  1
 Zn  Zn4  1  0.62801  0.62801  0.11597  1
