CIF file written using JARVIS-Tools package.
data_Ba2MnO3
_symmetry_space_group_name_H-M  'C2/c'
_cell_length_a       5.86529
_cell_length_b       6.51176
_cell_length_c       12.7994
_cell_angle_alpha    88.4621
_cell_angle_beta     86.5835
_cell_angle_gamma    63.2332

_symmetry_Int_Tables_number  15
_chemical_formula_structural  Ba2MnO3
_chemical_formula_sum  Ba8Mn4O2
_cell_volume  435.69403895739924
_cell_formula_units_Z  4
loop_
  _symmetry_equiv_pos_site_id
 _symmetry_equiv_pos_as_xyz
 1  'x, y, z'
loop_
 _atom_site_type_symbol
 _atom_site_label
 _atom_site_symmetry_multiplicity
 _atom_site_fract_x
 _atom_site_fract_y
 _atom_site_fract_z
 _atom_site_fract_occupancy
 Ba  Ba1  1  0.21263  0.59033  0.25097  1
 Ba  Ba2  1  0.67428  0.59034  0.05341  1
 Ba  Ba3  1  0.26462  0.40966  0.55341  1
 Ba  Ba4  1  0.58306  0.79020  0.47695  1
 Ba  Ba5  1  0.10398  0.79021  0.82743  1
 Ba  Ba6  1  0.89420  0.20979  0.32743  1
 Ba  Ba7  1  0.37326  0.20980  0.97695  1
 Ba  Ba8  1  0.80296  0.40967  0.75097  1
 Mn  Mn1  1  0.51975  0.99344  0.23816  1
 Mn  Mn2  1  0.96406  0.99345  0.06622  1
 Mn  Mn3  1  0.51319  0.00656  0.73816  1
 Mn  Mn4  1  0.95751  0.00655  0.56622  1
 O  O1  1  0.56691  0.80252  0.86595  1
 O  O2  1  0.72230  0.65600  0.26923  1
 O  O3  1  0.09894  0.65601  0.03516  1
 O  O4  1  0.75495  0.34399  0.53516  1
 O  O5  1  0.36943  0.19748  0.36595  1
 O  O6  1  0.63618  0.20488  0.15219  1
 O  O7  1  0.10783  0.80251  0.43843  1
 O  O8  1  0.91034  0.19749  0.93843  1
 O  O9  1  0.24215  0.99294  0.15219  1
 O  O10  1  0.23510  0.00706  0.65219  1
 O  O11  1  0.37830  0.34400  0.76923  1
 O  O12  1  0.84106  0.79512  0.65219  1
