CIF file written using JARVIS-Tools package.
data_Hg2PCl2
_symmetry_space_group_name_H-M  'C2/m'
_cell_length_a       5.96242
_cell_length_b       5.96242
_cell_length_c       7.78195
_cell_angle_alpha    70.3647
_cell_angle_beta     70.3647
_cell_angle_gamma    85.492

_symmetry_Int_Tables_number  12
_chemical_formula_structural  Hg2PCl2
_chemical_formula_sum  Hg4P2Cl4
_cell_volume  245.22955434491118
_cell_formula_units_Z  2
loop_
  _symmetry_equiv_pos_site_id
 _symmetry_equiv_pos_as_xyz
 1  'x, y, z'
loop_
 _atom_site_type_symbol
 _atom_site_label
 _atom_site_symmetry_multiplicity
 _atom_site_fract_x
 _atom_site_fract_y
 _atom_site_fract_z
 _atom_site_fract_occupancy
 Cl  Cl1  1  0.27311  0.72689  0.50000  1
 Cl  Cl2  1  0.72689  0.27311  0.50000  1
 Cl  Cl3  1  0.89463  0.89463  0.21691  1
 Cl  Cl4  1  0.10537  0.10537  0.78309  1
 Hg  Hg1  1  0.50000  0.00000  -0.00000  1
 Hg  Hg2  1  0.00000  0.50000  -0.00000  1
 Hg  Hg3  1  0.28745  0.28745  0.43006  1
 Hg  Hg4  1  0.71255  0.71255  0.56994  1
 P  P1  1  0.35963  0.35963  0.08670  1
 P  P2  1  0.64037  0.64037  0.91330  1
