CIF file written using JARVIS-Tools package.
data_Sc6Al16Os7
_symmetry_space_group_name_H-M  'Fm-3m'
_cell_length_a       8.77852
_cell_length_b       8.77852
_cell_length_c       8.77852
_cell_angle_alpha    60
_cell_angle_beta     60
_cell_angle_gamma    60

_symmetry_Int_Tables_number  225
_chemical_formula_structural  Sc6Al16Os7
_chemical_formula_sum  Sc6Al6Os7
_cell_volume  478.35349270018196
_cell_formula_units_Z  1
loop_
  _symmetry_equiv_pos_site_id
 _symmetry_equiv_pos_as_xyz
 1  'x, y, z'
loop_
 _atom_site_type_symbol
 _atom_site_label
 _atom_site_symmetry_multiplicity
 _atom_site_fract_x
 _atom_site_fract_y
 _atom_site_fract_z
 _atom_site_fract_occupancy
 Al  Al1  1  0.63772  0.12076  0.12076  1
 Al  Al2  1  0.87924  0.36228  0.87924  1
 Al  Al3  1  0.66175  0.66175  0.01475  1
 Al  Al4  1  0.33825  0.33825  0.98525  1
 Al  Al5  1  0.87924  0.87924  0.87924  1
 Al  Al6  1  0.33825  0.98525  0.33825  1
 Al  Al7  1  0.12076  0.12076  0.63772  1
 Al  Al8  1  0.12076  0.12076  0.12076  1
 Al  Al9  1  0.33825  0.33825  0.33825  1
 Al  Al10  1  0.87924  0.87924  0.36228  1
 Al  Al11  1  0.12076  0.63772  0.12076  1
 Al  Al12  1  0.66175  0.66175  0.66175  1
 Al  Al13  1  0.66175  0.01475  0.66175  1
 Al  Al14  1  0.01475  0.66175  0.66175  1
 Al  Al15  1  0.98525  0.33825  0.33825  1
 Al  Al16  1  0.36228  0.87924  0.87924  1
 Os  Os1  1  0.00000  -0.00000  0.50000  1
 Os  Os2  1  0.00000  0.00000  0.00000  1
 Os  Os3  1  0.50000  0.00000  -0.00000  1
 Os  Os4  1  0.00000  0.50000  -0.00000  1
 Os  Os5  1  0.50000  -0.00000  0.50000  1
 Os  Os6  1  0.00000  0.50000  0.50000  1
 Os  Os7  1  0.50000  0.50000  -0.00000  1
 Sc  Sc1  1  0.28607  0.71393  0.28607  1
 Sc  Sc2  1  0.71393  0.71393  0.28607  1
 Sc  Sc3  1  0.28607  0.28607  0.71393  1
 Sc  Sc4  1  0.28607  0.71393  0.71393  1
 Sc  Sc5  1  0.71393  0.28607  0.28607  1
 Sc  Sc6  1  0.71393  0.28607  0.71393  1
