CIF file written using JARVIS-Tools package.
data_WS2
_symmetry_space_group_name_H-M  'P-3m1'
_cell_length_a       3.19281
_cell_length_b       3.1928
_cell_length_c       21.5056
_cell_angle_alpha    90
_cell_angle_beta     90
_cell_angle_gamma    60

_symmetry_Int_Tables_number  164
_chemical_formula_structural  WS2
_chemical_formula_sum  W2S4
_cell_volume  189.85775056924294
_cell_formula_units_Z  2
loop_
  _symmetry_equiv_pos_site_id
 _symmetry_equiv_pos_as_xyz
 1  'x, y, z'
loop_
 _atom_site_type_symbol
 _atom_site_label
 _atom_site_symmetry_multiplicity
 _atom_site_fract_x
 _atom_site_fract_y
 _atom_site_fract_z
 _atom_site_fract_occupancy
 S  S1  1  0.66667  0.66667  0.07447  1
 S  S2  1  0.33333  0.33333  0.36589  1
 S  S3  1  0.66667  0.66667  0.22092  1
 S  S4  1  0.33333  0.33333  0.51235  1
 W  W1  1  0.66667  0.66667  0.43915  1
 W  W2  1  0.33333  0.33333  0.14767  1
