CIF file written using JARVIS-Tools package.
data_Li2Fe3TeO8
_symmetry_space_group_name_H-M  'R-3m'
_cell_length_a       5.97935
_cell_length_b       5.97935
_cell_length_c       5.97936
_cell_angle_alpha    57.3546
_cell_angle_beta     57.3546
_cell_angle_gamma    57.3546

_symmetry_Int_Tables_number  166
_chemical_formula_structural  Li2Fe3TeO8
_chemical_formula_sum  Li2Fe3TeO8
_cell_volume  141.95977423541538
_cell_formula_units_Z  1
loop_
  _symmetry_equiv_pos_site_id
 _symmetry_equiv_pos_as_xyz
 1  'x, y, z'
loop_
 _atom_site_type_symbol
 _atom_site_label
 _atom_site_symmetry_multiplicity
 _atom_site_fract_x
 _atom_site_fract_y
 _atom_site_fract_z
 _atom_site_fract_occupancy
 Fe  Fe1  1  0.00000  0.50000  0.50000  1
 Fe  Fe2  1  0.50000  0.00000  0.50000  1
 Fe  Fe3  1  0.50000  0.50000  -0.00000  1
 Li  Li1  1  0.12813  0.12813  0.12813  1
 Li  Li2  1  0.87187  0.87187  0.87187  1
 O  O1  1  0.26515  0.26515  0.26515  1
 O  O2  1  0.25408  0.25408  0.71760  1
 O  O3  1  0.25408  0.71760  0.25408  1
 O  O4  1  0.71760  0.25408  0.25408  1
 O  O5  1  0.28240  0.74592  0.74592  1
 O  O6  1  0.74592  0.28240  0.74592  1
 O  O7  1  0.74592  0.74592  0.28240  1
 O  O8  1  0.73485  0.73485  0.73485  1
 Te  Te1  1  0.50000  0.50000  0.50000  1
