CIF file written using JARVIS-Tools package.
data_CaB2Rh2
_symmetry_space_group_name_H-M  'Fddd'
_cell_length_a       5.50132
_cell_length_b       5.50132
_cell_length_c       6.06744
_cell_angle_alpha    105.297
_cell_angle_beta     105.297
_cell_angle_gamma    114.712

_symmetry_Int_Tables_number  70
_chemical_formula_structural  CaB2Rh2
_chemical_formula_sum  Ca2B4Rh4
_cell_volume  145.4989063435922
_cell_formula_units_Z  2
loop_
  _symmetry_equiv_pos_site_id
 _symmetry_equiv_pos_as_xyz
 1  'x, y, z'
loop_
 _atom_site_type_symbol
 _atom_site_label
 _atom_site_symmetry_multiplicity
 _atom_site_fract_x
 _atom_site_fract_y
 _atom_site_fract_z
 _atom_site_fract_occupancy
 B  B1  1  0.55169  0.44831  0.25000  1
 B  B2  1  0.80169  0.19831  0.75000  1
 B  B3  1  0.19831  0.80169  0.25000  1
 B  B4  1  0.44831  0.55169  0.75000  1
 Ca  Ca1  1  0.87500  0.12500  0.25000  1
 Ca  Ca2  1  0.12500  0.87500  0.75000  1
 Rh  Rh1  1  0.50546  0.75546  0.51092  1
 Rh  Rh2  1  0.75546  0.50546  0.01092  1
 Rh  Rh3  1  0.49454  0.24454  0.48908  1
 Rh  Rh4  1  0.24454  0.49454  0.98908  1
