CIF file written using JARVIS-Tools package.
data_LaNiPO
_symmetry_space_group_name_H-M  'P4/nmm'
_cell_length_a       4.04217
_cell_length_b       4.04217
_cell_length_c       8.16857
_cell_angle_alpha    90
_cell_angle_beta     90
_cell_angle_gamma    90

_symmetry_Int_Tables_number  129
_chemical_formula_structural  LaNiPO
_chemical_formula_sum  La2Ni2P2O2
_cell_volume  133.46727455047548
_cell_formula_units_Z  2
loop_
  _symmetry_equiv_pos_site_id
 _symmetry_equiv_pos_as_xyz
 1  'x, y, z'
loop_
 _atom_site_type_symbol
 _atom_site_label
 _atom_site_symmetry_multiplicity
 _atom_site_fract_x
 _atom_site_fract_y
 _atom_site_fract_z
 _atom_site_fract_occupancy
 La  La1  1  0.75000  0.75000  0.84758  1
 La  La2  1  0.25000  0.25000  0.15242  1
 Ni  Ni1  1  0.75000  0.25000  0.50000  1
 Ni  Ni2  1  0.25000  0.75000  0.50000  1
 O  O1  1  0.75000  0.25000  0.00000  1
 O  O2  1  0.25000  0.75000  0.00000  1
 P  P1  1  0.75000  0.75000  0.37290  1
 P  P2  1  0.25000  0.25000  0.62710  1
