CIF file written using JARVIS-Tools package.
data_KW3Cl9
_symmetry_space_group_name_H-M  'P-31m'
_cell_length_a       9.29812
_cell_length_b       9.29812
_cell_length_c       8.29705
_cell_angle_alpha    90
_cell_angle_beta     90
_cell_angle_gamma    120

_symmetry_Int_Tables_number  162
_chemical_formula_structural  KW3Cl9
_chemical_formula_sum  K2W6Cl8
_cell_volume  621.2191973789248
_cell_formula_units_Z  2
loop_
  _symmetry_equiv_pos_site_id
 _symmetry_equiv_pos_as_xyz
 1  'x, y, z'
loop_
 _atom_site_type_symbol
 _atom_site_label
 _atom_site_symmetry_multiplicity
 _atom_site_fract_x
 _atom_site_fract_y
 _atom_site_fract_z
 _atom_site_fract_occupancy
 Cl  Cl1  1  0.40234  0.40234  0.30785  1
 Cl  Cl2  1  0.40234  0.00000  0.69215  1
 Cl  Cl3  1  0.59766  0.59766  0.69215  1
 Cl  Cl4  1  0.43081  0.21540  0.00000  1
 Cl  Cl5  1  0.78460  0.56919  0.00000  1
 Cl  Cl6  1  0.00000  0.20543  0.32339  1
 Cl  Cl7  1  0.56919  0.78460  0.00000  1
 Cl  Cl8  1  0.79457  0.00000  0.67661  1
 Cl  Cl9  1  0.21540  0.78460  0.00000  1
 Cl  Cl10  1  -0.00000  0.59766  0.30785  1
 Cl  Cl11  1  0.59766  0.00000  0.30785  1
 Cl  Cl12  1  0.00000  0.40234  0.69215  1
 Cl  Cl13  1  0.79457  0.79457  0.32339  1
 Cl  Cl14  1  -0.00000  0.79457  0.67661  1
 Cl  Cl15  1  0.21540  0.43081  0.00000  1
 Cl  Cl16  1  0.78460  0.21540  0.00000  1
 Cl  Cl17  1  0.20543  0.20543  0.67661  1
 Cl  Cl18  1  0.20543  0.00000  0.32339  1
 K  K1  1  0.66667  0.33333  0.50000  1
 K  K2  1  0.33333  0.66667  0.50000  1
 W  W1  1  -0.00000  0.81521  0.12690  1
 W  W2  1  0.00000  0.18479  0.87310  1
 W  W3  1  0.18479  0.18479  0.12690  1
 W  W4  1  0.81521  0.00000  0.12690  1
 W  W5  1  0.18479  0.00000  0.87310  1
 W  W6  1  0.81521  0.81521  0.87310  1
