CIF file written using JARVIS-Tools package.
data_ZrTe5
_symmetry_space_group_name_H-M  'Cmcm'
_cell_length_a       4.03668
_cell_length_b       7.66102
_cell_length_c       13.8559
_cell_angle_alpha    90
_cell_angle_beta     90
_cell_angle_gamma    105.275

_symmetry_Int_Tables_number  63
_chemical_formula_structural  ZrTe5
_chemical_formula_sum  Zr2Te0
_cell_volume  413.35613836320994
_cell_formula_units_Z  2
loop_
  _symmetry_equiv_pos_site_id
 _symmetry_equiv_pos_as_xyz
 1  'x, y, z'
loop_
 _atom_site_type_symbol
 _atom_site_label
 _atom_site_symmetry_multiplicity
 _atom_site_fract_x
 _atom_site_fract_y
 _atom_site_fract_z
 _atom_site_fract_occupancy
 Te  Te1  1  0.66420  0.32839  0.75000  1
 Te  Te2  1  0.33580  0.67161  0.25000  1
 Te  Te3  1  0.92978  0.85955  0.85079  1
 Te  Te4  1  0.07022  0.14045  0.14921  1
 Te  Te5  1  0.07022  0.14045  0.35079  1
 Te  Te6  1  0.92978  0.85955  0.64921  1
 Te  Te7  1  0.20924  0.41849  0.56520  1
 Te  Te8  1  0.79076  0.58151  0.43480  1
 Te  Te9  1  0.79076  0.58151  0.06520  1
 Te  Te10  1  0.20924  0.41849  0.93480  1
 Zr  Zr1  1  0.31548  0.63097  0.75000  1
 Zr  Zr2  1  0.68452  0.36903  0.25000  1
