CIF file written using JARVIS-Tools package.
data_ErCoGe2
_symmetry_space_group_name_H-M  'Cmcm'
_cell_length_a       4.15131
_cell_length_b       4.08598
_cell_length_c       8.52764
_cell_angle_alpha    103.861
_cell_angle_beta     90
_cell_angle_gamma    90

_symmetry_Int_Tables_number  63
_chemical_formula_structural  ErCoGe2
_chemical_formula_sum  Er2Co2Ge4
_cell_volume  140.43458088109776
_cell_formula_units_Z  2
loop_
  _symmetry_equiv_pos_site_id
 _symmetry_equiv_pos_as_xyz
 1  'x, y, z'
loop_
 _atom_site_type_symbol
 _atom_site_label
 _atom_site_symmetry_multiplicity
 _atom_site_fract_x
 _atom_site_fract_y
 _atom_site_fract_z
 _atom_site_fract_occupancy
 Co  Co1  1  0.75000  0.32023  0.64045  1
 Co  Co2  1  0.25000  0.67977  0.35955  1
 Er  Er1  1  0.75000  0.10989  0.21977  1
 Er  Er2  1  0.25000  0.89011  0.78023  1
 Ge  Ge1  1  0.75000  0.45598  0.91196  1
 Ge  Ge2  1  0.25000  0.54402  0.08804  1
 Ge  Ge3  1  0.75000  0.74875  0.49751  1
 Ge  Ge4  1  0.25000  0.25125  0.50249  1
