CIF file written using JARVIS-Tools package.
data_PrCdPd
_symmetry_space_group_name_H-M  'P-62m'
_cell_length_a       7.76136
_cell_length_b       7.76136
_cell_length_c       4.0531
_cell_angle_alpha    90
_cell_angle_beta     90
_cell_angle_gamma    120

_symmetry_Int_Tables_number  189
_chemical_formula_structural  PrCdPd
_chemical_formula_sum  Pr3Cd3Pd3
_cell_volume  211.44321832297686
_cell_formula_units_Z  3
loop_
  _symmetry_equiv_pos_site_id
 _symmetry_equiv_pos_as_xyz
 1  'x, y, z'
loop_
 _atom_site_type_symbol
 _atom_site_label
 _atom_site_symmetry_multiplicity
 _atom_site_fract_x
 _atom_site_fract_y
 _atom_site_fract_z
 _atom_site_fract_occupancy
 Cd  Cd1  1  0.74731  0.74731  0.00000  1
 Cd  Cd2  1  0.25269  -0.00000  0.00000  1
 Cd  Cd3  1  -0.00000  0.25269  0.00000  1
 Pd  Pd1  1  0.66667  0.33333  0.00000  1
 Pd  Pd2  1  0.00000  0.00000  0.50000  1
 Pd  Pd3  1  0.33333  0.66667  0.00000  1
 Pr  Pr1  1  0.40628  0.40628  0.50000  1
 Pr  Pr2  1  -0.00000  0.59372  0.50000  1
 Pr  Pr3  1  0.59372  -0.00000  0.50000  1
