CIF file written using JARVIS-Tools package.
data_ZnNi2O4
_symmetry_space_group_name_H-M  'Fd-3m'
_cell_length_a       5.83707
_cell_length_b       5.83707
_cell_length_c       5.83692
_cell_angle_alpha    60.0003
_cell_angle_beta     59.9989
_cell_angle_gamma    59.9986

_symmetry_Int_Tables_number  227
_chemical_formula_structural  ZnNi2O4
_chemical_formula_sum  Zn2Ni4O8
_cell_volume  140.62119845613432
_cell_formula_units_Z  2
loop_
  _symmetry_equiv_pos_site_id
 _symmetry_equiv_pos_as_xyz
 1  'x, y, z'
loop_
 _atom_site_type_symbol
 _atom_site_label
 _atom_site_symmetry_multiplicity
 _atom_site_fract_x
 _atom_site_fract_y
 _atom_site_fract_z
 _atom_site_fract_occupancy
 Ni  Ni1  1  0.50000  0.50000  1.00000  1
 Ni  Ni2  1  0.50000  1.00000  0.50000  1
 Ni  Ni3  1  1.00000  0.50000  0.50000  1
 Ni  Ni4  1  0.50000  0.50000  0.50000  1
 O  O1  1  0.26333  0.26334  0.26337  1
 O  O2  1  0.70998  0.26334  0.26337  1
 O  O3  1  0.26332  0.71001  0.26337  1
 O  O4  1  0.26333  0.26333  0.71004  1
 O  O5  1  0.73667  0.73667  0.28996  1
 O  O6  1  0.73668  0.28999  0.73663  1
 O  O7  1  0.73667  0.73666  0.73663  1
 O  O8  1  0.29002  0.73666  0.73663  1
 Zn  Zn1  1  0.12499  0.12501  0.12504  1
 Zn  Zn2  1  0.87501  0.87499  0.87496  1
