CIF file written using JARVIS-Tools package.
data_CaSi2
_symmetry_space_group_name_H-M  'R-3m'
_cell_length_a       3.89211
_cell_length_b       3.89211
_cell_length_c       10.3452
_cell_angle_alpha    79.1573
_cell_angle_beta     79.1573
_cell_angle_gamma    59.9998

_symmetry_Int_Tables_number  166
_chemical_formula_structural  CaSi2
_chemical_formula_sum  Ca2Si4
_cell_volume  132.4779055554812
_cell_formula_units_Z  2
loop_
  _symmetry_equiv_pos_site_id
 _symmetry_equiv_pos_as_xyz
 1  'x, y, z'
loop_
 _atom_site_type_symbol
 _atom_site_label
 _atom_site_symmetry_multiplicity
 _atom_site_fract_x
 _atom_site_fract_y
 _atom_site_fract_z
 _atom_site_fract_occupancy
 Ca  Ca1  1  0.08027  0.08027  0.75919  1
 Ca  Ca2  1  0.91973  0.91973  0.24081  1
 Si  Si1  1  0.18300  0.18300  0.45101  1
 Si  Si2  1  0.81700  0.81700  0.54899  1
 Si  Si3  1  0.34751  0.34751  0.95747  1
 Si  Si4  1  0.65249  0.65249  0.04253  1
