CIF file written using JARVIS-Tools package.
data_Hf6Si7Ni16
_symmetry_space_group_name_H-M  'Fm-3m'
_cell_length_a       8.059
_cell_length_b       8.059
_cell_length_c       8.059
_cell_angle_alpha    60
_cell_angle_beta     60
_cell_angle_gamma    60

_symmetry_Int_Tables_number  225
_chemical_formula_structural  Hf6Si7Ni16
_chemical_formula_sum  Hf6Si7Ni6
_cell_volume  370.1084980843712
_cell_formula_units_Z  1
loop_
  _symmetry_equiv_pos_site_id
 _symmetry_equiv_pos_as_xyz
 1  'x, y, z'
loop_
 _atom_site_type_symbol
 _atom_site_label
 _atom_site_symmetry_multiplicity
 _atom_site_fract_x
 _atom_site_fract_y
 _atom_site_fract_z
 _atom_site_fract_occupancy
 Hf  Hf1  1  0.20535  0.79465  0.20535  1
 Hf  Hf2  1  0.20535  0.79465  0.79465  1
 Hf  Hf3  1  0.79465  0.79465  0.20535  1
 Hf  Hf4  1  0.79465  0.20535  0.20535  1
 Hf  Hf5  1  0.20535  0.20535  0.79465  1
 Hf  Hf6  1  0.79465  0.20535  0.79465  1
 Ni  Ni1  1  0.83240  0.50279  0.83240  1
 Ni  Ni2  1  0.50279  0.83240  0.83240  1
 Ni  Ni3  1  0.61794  0.14619  0.61794  1
 Ni  Ni4  1  0.83240  0.83240  0.83240  1
 Ni  Ni5  1  0.83240  0.83240  0.50279  1
 Ni  Ni6  1  0.85381  0.38206  0.38206  1
 Ni  Ni7  1  0.38206  0.38206  0.85381  1
 Ni  Ni8  1  0.16760  0.49721  0.16760  1
 Ni  Ni9  1  0.14619  0.61794  0.61794  1
 Ni  Ni10  1  0.61794  0.61794  0.14619  1
 Ni  Ni11  1  0.38206  0.85381  0.38206  1
 Ni  Ni12  1  0.49721  0.16760  0.16760  1
 Ni  Ni13  1  0.38206  0.38206  0.38206  1
 Ni  Ni14  1  0.16760  0.16760  0.49721  1
 Ni  Ni15  1  0.61794  0.61794  0.61794  1
 Ni  Ni16  1  0.16760  0.16760  0.16760  1
 Si  Si1  1  0.00000  0.50000  0.00000  1
 Si  Si2  1  0.50000  0.50000  0.50000  1
 Si  Si3  1  0.50000  0.00000  0.00000  1
 Si  Si4  1  0.50000  0.00000  0.50000  1
 Si  Si5  1  0.00000  0.00000  0.50000  1
 Si  Si6  1  0.00000  0.50000  0.50000  1
 Si  Si7  1  0.50000  0.50000  0.00000  1
