CIF file written using JARVIS-Tools package.
data_TmAl3B4O12
_symmetry_space_group_name_H-M  'R32'
_cell_length_a       5.90081
_cell_length_b       5.90082
_cell_length_c       5.90082
_cell_angle_alpha    104.481
_cell_angle_beta     104.481
_cell_angle_gamma    104.481

_symmetry_Int_Tables_number  155
_chemical_formula_structural  TmAl3B4O12
_chemical_formula_sum  TmAl3B4O2
_cell_volume  181.5950347664515
_cell_formula_units_Z  1
loop_
  _symmetry_equiv_pos_site_id
 _symmetry_equiv_pos_as_xyz
 1  'x, y, z'
loop_
 _atom_site_type_symbol
 _atom_site_label
 _atom_site_symmetry_multiplicity
 _atom_site_fract_x
 _atom_site_fract_y
 _atom_site_fract_z
 _atom_site_fract_occupancy
 Al  Al1  1  0.44472  0.55528  0.00000  1
 Al  Al2  1  0.00000  0.44472  0.55528  1
 Al  Al3  1  0.55528  -0.00000  0.44472  1
 B  B1  1  0.05591  0.94409  0.50000  1
 B  B2  1  0.50000  0.50000  0.50000  1
 B  B3  1  0.50000  0.05591  0.94409  1
 B  B4  1  0.94409  0.50000  0.05591  1
 O  O1  1  0.90800  0.09200  0.50000  1
 O  O2  1  0.36882  0.21811  0.97080  1
 O  O3  1  0.21811  0.97080  0.36882  1
 O  O4  1  0.97080  0.36882  0.21811  1
 O  O5  1  0.02920  0.78189  0.63118  1
 O  O6  1  0.78189  0.63118  0.02920  1
 O  O7  1  0.64854  0.35146  0.50000  1
 O  O8  1  0.35146  0.50000  0.64854  1
 O  O9  1  0.50000  0.64854  0.35146  1
 O  O10  1  0.50000  0.90800  0.09200  1
 O  O11  1  0.09200  0.50000  0.90800  1
 O  O12  1  0.63118  0.02920  0.78189  1
 Tm  Tm1  1  0.00000  0.00000  0.00000  1
