CIF file written using JARVIS-Tools package.
data_RhCl3
_symmetry_space_group_name_H-M  'C2/m'
_cell_length_a       6.01209
_cell_length_b       6.0121
_cell_length_c       5.98062
_cell_angle_alpha    99.174
_cell_angle_beta     99.174
_cell_angle_gamma    120.011

_symmetry_Int_Tables_number  12
_chemical_formula_structural  RhCl3
_chemical_formula_sum  Rh2Cl6
_cell_volume  177.41402139765694
_cell_formula_units_Z  2
loop_
  _symmetry_equiv_pos_site_id
 _symmetry_equiv_pos_as_xyz
 1  'x, y, z'
loop_
 _atom_site_type_symbol
 _atom_site_label
 _atom_site_symmetry_multiplicity
 _atom_site_fract_x
 _atom_site_fract_y
 _atom_site_fract_z
 _atom_site_fract_occupancy
 Cl  Cl1  1  0.92202  0.57324  0.23175  1
 Cl  Cl2  1  0.42676  0.07798  0.76825  1
 Cl  Cl3  1  0.77559  0.77559  0.76622  1
 Cl  Cl4  1  0.22441  0.22441  0.23378  1
 Cl  Cl5  1  0.57324  0.92202  0.23175  1
 Cl  Cl6  1  0.07798  0.42676  0.76825  1
 Rh  Rh1  1  0.16658  0.83342  0.00000  1
 Rh  Rh2  1  0.83342  0.16658  -0.00000  1
