CIF file written using JARVIS-Tools package.
data_Nd2InRh2
_symmetry_space_group_name_H-M  'P4/mbm'
_cell_length_a       3.95546
_cell_length_b       7.599
_cell_length_c       7.599
_cell_angle_alpha    90
_cell_angle_beta     90
_cell_angle_gamma    90

_symmetry_Int_Tables_number  127
_chemical_formula_structural  Nd2InRh2
_chemical_formula_sum  Nd4In2Rh4
_cell_volume  228.4070422183593
_cell_formula_units_Z  2
loop_
  _symmetry_equiv_pos_site_id
 _symmetry_equiv_pos_as_xyz
 1  'x, y, z'
loop_
 _atom_site_type_symbol
 _atom_site_label
 _atom_site_symmetry_multiplicity
 _atom_site_fract_x
 _atom_site_fract_y
 _atom_site_fract_z
 _atom_site_fract_occupancy
 In  In1  1  0.00000  0.50000  0.50000  1
 In  In2  1  0.00000  0.00000  0.00000  1
 Nd  Nd1  1  0.50000  0.17190  0.67190  1
 Nd  Nd2  1  0.50000  0.82810  0.32810  1
 Nd  Nd3  1  0.50000  0.67190  0.82810  1
 Nd  Nd4  1  0.50000  0.32810  0.17190  1
 Rh  Rh1  1  0.00000  0.13092  0.36908  1
 Rh  Rh2  1  0.00000  0.63092  0.13092  1
 Rh  Rh3  1  0.00000  0.36908  0.86908  1
 Rh  Rh4  1  0.00000  0.86908  0.63092  1
