CIF file written using JARVIS-Tools package.
data_TiGeTe6
_symmetry_space_group_name_H-M  'C2/m'
_cell_length_a       3.9436
_cell_length_b       7.42841
_cell_length_c       17.5015
_cell_angle_alpha    80.2012
_cell_angle_beta     83.5321
_cell_angle_gamma    74.609

_symmetry_Int_Tables_number  12
_chemical_formula_structural  TiGeTe6
_chemical_formula_sum  Ti2Ge2Te2
_cell_volume  485.87212724078216
_cell_formula_units_Z  2
loop_
  _symmetry_equiv_pos_site_id
 _symmetry_equiv_pos_as_xyz
 1  'x, y, z'
loop_
 _atom_site_type_symbol
 _atom_site_label
 _atom_site_symmetry_multiplicity
 _atom_site_fract_x
 _atom_site_fract_y
 _atom_site_fract_z
 _atom_site_fract_occupancy
 Ge  Ge1  1  0.28019  0.03348  0.40637  1
 Ge  Ge2  1  0.71981  0.96652  0.59363  1
 Te  Te1  1  0.91414  0.91706  0.25465  1
 Te  Te2  1  0.15532  0.70691  0.98245  1
 Te  Te3  1  0.41108  0.06186  0.11599  1
 Te  Te4  1  0.62713  0.40047  0.34537  1
 Te  Te5  1  0.08586  0.08294  0.74535  1
 Te  Te6  1  0.58892  0.93814  0.88401  1
 Te  Te7  1  0.84468  0.29309  0.01755  1
 Te  Te8  1  0.12254  0.21842  0.53644  1
 Te  Te9  1  0.87746  0.78158  0.46356  1
 Te  Te10  1  0.31790  0.54332  0.82080  1
 Te  Te11  1  0.68210  0.45668  0.17920  1
 Te  Te12  1  0.37287  0.59953  0.65463  1
 Ti  Ti1  1  0.73658  0.78600  0.74078  1
 Ti  Ti2  1  0.26342  0.21400  0.25922  1
