CIF file written using JARVIS-Tools package.
data_CaBi2B2O7
_symmetry_space_group_name_H-M  'Pnma'
_cell_length_a       5.46151
_cell_length_b       8.91244
_cell_length_c       12.5183
_cell_angle_alpha    90
_cell_angle_beta     90
_cell_angle_gamma    90

_symmetry_Int_Tables_number  62
_chemical_formula_structural  CaBi2B2O7
_chemical_formula_sum  Ca4Bi8B8O28
_cell_volume  609.3324658021965
_cell_formula_units_Z  4
loop_
  _symmetry_equiv_pos_site_id
 _symmetry_equiv_pos_as_xyz
 1  'x, y, z'
loop_
 _atom_site_type_symbol
 _atom_site_label
 _atom_site_symmetry_multiplicity
 _atom_site_fract_x
 _atom_site_fract_y
 _atom_site_fract_z
 _atom_site_fract_occupancy
 B  B1  1  0.00910  0.98503  0.13040  1
 B  B2  1  0.50910  0.51497  0.63040  1
 B  B3  1  0.49090  0.48503  0.13040  1
 B  B4  1  0.50911  0.51498  0.36604  1
 B  B5  1  0.99090  0.01497  0.63040  1
 B  B6  1  0.99089  0.01498  0.36604  1
 B  B7  1  0.00911  0.98502  0.86604  1
 B  B8  1  0.49089  0.48502  0.86604  1
 Bi  Bi1  1  0.05772  0.67053  0.16087  1
 Bi  Bi2  1  0.55772  0.82947  0.66087  1
 Bi  Bi3  1  0.94228  0.32947  0.66087  1
 Bi  Bi4  1  0.44228  0.17053  0.83558  1
 Bi  Bi5  1  0.55772  0.82947  0.33558  1
 Bi  Bi6  1  0.05772  0.67053  0.83558  1
 Bi  Bi7  1  0.44228  0.17053  0.16087  1
 Bi  Bi8  1  0.94228  0.32947  0.33558  1
 Ca  Ca1  1  0.54617  0.83312  0.99823  1
 Ca  Ca2  1  0.45383  0.16688  0.49823  1
 Ca  Ca3  1  0.04617  0.66688  0.49823  1
 Ca  Ca4  1  0.95383  0.33312  0.99823  1
 O  O1  1  0.77398  0.09969  0.62814  1
 O  O2  1  0.22604  0.90031  0.86829  1
 O  O3  1  0.27396  0.40031  0.86829  1
 O  O4  1  0.27398  0.40031  0.12814  1
 O  O5  1  0.04072  0.36630  0.49823  1
 O  O6  1  0.22602  0.90031  0.12814  1
 O  O7  1  0.70686  0.40820  0.85565  1
 O  O8  1  0.72604  0.59969  0.36829  1
 O  O9  1  0.03276  0.13868  0.86914  1
 O  O10  1  0.96724  0.86132  0.36914  1
 O  O11  1  0.53276  0.36132  0.36914  1
 O  O12  1  0.46724  0.63868  0.12731  1
 O  O13  1  0.79313  0.90821  0.14082  1
 O  O14  1  0.29313  0.59179  0.64082  1
 O  O15  1  0.95928  0.63370  0.99823  1
 O  O16  1  0.96724  0.86132  0.62731  1
 O  O17  1  0.79314  0.90820  0.85565  1
 O  O18  1  0.29314  0.59180  0.35565  1
 O  O19  1  0.53276  0.36132  0.62731  1
 O  O20  1  0.77396  0.09969  0.36829  1
 O  O21  1  0.45928  0.86630  0.49823  1
 O  O22  1  0.72602  0.59969  0.62814  1
 O  O23  1  0.20686  0.09180  0.35565  1
 O  O24  1  0.20687  0.09179  0.64082  1
 O  O25  1  0.54072  0.13370  0.99823  1
 O  O26  1  0.46724  0.63868  0.86914  1
 O  O27  1  0.70687  0.40821  0.14082  1
 O  O28  1  0.03276  0.13868  0.12731  1
