CIF file written using JARVIS-Tools package.
data_LaCO3F
_symmetry_space_group_name_H-M  'P-62m'
_cell_length_a       7.26262
_cell_length_b       7.26262
_cell_length_c       4.94312
_cell_angle_alpha    90
_cell_angle_beta     90
_cell_angle_gamma    120

_symmetry_Int_Tables_number  189
_chemical_formula_structural  LaCO3F
_chemical_formula_sum  La3C3O9F3
_cell_volume  225.79697115277793
_cell_formula_units_Z  3
loop_
  _symmetry_equiv_pos_site_id
 _symmetry_equiv_pos_as_xyz
 1  'x, y, z'
loop_
 _atom_site_type_symbol
 _atom_site_label
 _atom_site_symmetry_multiplicity
 _atom_site_fract_x
 _atom_site_fract_y
 _atom_site_fract_z
 _atom_site_fract_occupancy
 C  C1  1  0.60268  -0.00000  0.50000  1
 C  C2  1  -0.00000  0.60268  0.50000  1
 C  C3  1  0.39732  0.39732  0.50000  1
 F  F1  1  0.33333  0.66667  0.00000  1
 F  F2  1  0.66667  0.33333  0.00000  1
 F  F3  1  0.00000  0.00000  0.00000  1
 La  La1  1  0.67365  0.67365  0.00000  1
 La  La2  1  0.00000  0.32635  0.00000  1
 La  La3  1  0.32635  0.00000  0.00000  1
 O  O1  1  0.57697  0.57697  0.50000  1
 O  O2  1  0.68700  0.00000  0.72929  1
 O  O3  1  0.68700  0.00000  0.27071  1
 O  O4  1  0.42303  -0.00000  0.50000  1
 O  O5  1  0.31300  0.31300  0.72929  1
 O  O6  1  0.00000  0.68700  0.27071  1
 O  O7  1  0.00000  0.68700  0.72929  1
 O  O8  1  -0.00000  0.42303  0.50000  1
 O  O9  1  0.31300  0.31300  0.27071  1
