CIF file written using JARVIS-Tools package.
data_Li2Ni3SnO8
_symmetry_space_group_name_H-M  'R-3m'
_cell_length_a       5.96891
_cell_length_b       5.96891
_cell_length_c       5.96891
_cell_angle_alpha    58.3218
_cell_angle_beta     58.3218
_cell_angle_gamma    58.3218

_symmetry_Int_Tables_number  166
_chemical_formula_structural  Li2Ni3SnO8
_chemical_formula_sum  Li2Ni3SnO8
_cell_volume  144.59451670817666
_cell_formula_units_Z  1
loop_
  _symmetry_equiv_pos_site_id
 _symmetry_equiv_pos_as_xyz
 1  'x, y, z'
loop_
 _atom_site_type_symbol
 _atom_site_label
 _atom_site_symmetry_multiplicity
 _atom_site_fract_x
 _atom_site_fract_y
 _atom_site_fract_z
 _atom_site_fract_occupancy
 Li  Li1  1  0.11831  0.11831  0.11831  1
 Li  Li2  1  0.88169  0.88169  0.88169  1
 Ni  Ni1  1  0.00000  0.50000  0.50000  1
 Ni  Ni2  1  0.50000  -0.00000  0.50000  1
 Ni  Ni3  1  0.50000  0.50000  -0.00000  1
 O  O1  1  0.26514  0.26514  0.26514  1
 O  O2  1  0.25211  0.25211  0.71433  1
 O  O3  1  0.25211  0.71433  0.25211  1
 O  O4  1  0.71433  0.25211  0.25211  1
 O  O5  1  0.28567  0.74789  0.74789  1
 O  O6  1  0.74789  0.28567  0.74789  1
 O  O7  1  0.74789  0.74789  0.28567  1
 O  O8  1  0.73486  0.73486  0.73486  1
 Sn  Sn1  1  0.50000  0.50000  0.50000  1
