CIF file written using JARVIS-Tools package.
data_Tb6FeBi2
_symmetry_space_group_name_H-M  'P-62m'
_cell_length_a       4.13117
_cell_length_b       8.35473
_cell_length_c       8.35483
_cell_angle_alpha    119.998
_cell_angle_beta     90
_cell_angle_gamma    90

_symmetry_Int_Tables_number  189
_chemical_formula_structural  Tb6FeBi2
_chemical_formula_sum  Tb6FeBi2
_cell_volume  249.73765174611745
_cell_formula_units_Z  1
loop_
  _symmetry_equiv_pos_site_id
 _symmetry_equiv_pos_as_xyz
 1  'x, y, z'
loop_
 _atom_site_type_symbol
 _atom_site_label
 _atom_site_symmetry_multiplicity
 _atom_site_fract_x
 _atom_site_fract_y
 _atom_site_fract_z
 _atom_site_fract_occupancy
 Bi  Bi1  1  0.00000  0.34334  0.65826  1
 Bi  Bi2  1  0.00000  0.67672  0.32490  1
 Fe  Fe1  1  0.50000  0.01019  0.99173  1
 Tb  Tb1  1  0.00000  0.01001  0.76109  1
 Tb  Tb2  1  0.00000  0.24060  0.22215  1
 Tb  Tb3  1  0.00000  0.77954  0.99156  1
 Tb  Tb4  1  0.50000  0.61558  0.59714  1
 Tb  Tb5  1  0.50000  0.01002  0.38596  1
 Tb  Tb6  1  0.50000  0.40441  0.99158  1
