CIF file written using JARVIS-Tools package.
data_V2PO5
_symmetry_space_group_name_H-M  'I4_1/amd'
_cell_length_a       5.40467
_cell_length_b       5.40467
_cell_length_c       7.25938
_cell_angle_alpha    111.855
_cell_angle_beta     111.855
_cell_angle_gamma    90.0001

_symmetry_Int_Tables_number  141
_chemical_formula_structural  V2PO5
_chemical_formula_sum  V4P2O0
_cell_volume  180.28676752738298
_cell_formula_units_Z  2
loop_
  _symmetry_equiv_pos_site_id
 _symmetry_equiv_pos_as_xyz
 1  'x, y, z'
loop_
 _atom_site_type_symbol
 _atom_site_label
 _atom_site_symmetry_multiplicity
 _atom_site_fract_x
 _atom_site_fract_y
 _atom_site_fract_z
 _atom_site_fract_occupancy
 O  O1  1  0.37500  0.62500  0.75000  1
 O  O2  1  0.62500  0.37500  0.25000  1
 O  O3  1  0.19300  0.70362  0.38599  1
 O  O4  1  0.81763  0.80700  0.11401  1
 O  O5  1  0.29638  0.80700  0.11401  1
 O  O6  1  0.80700  0.29638  0.61401  1
 O  O7  1  0.19300  0.18237  0.38599  1
 O  O8  1  0.70362  0.19300  0.88599  1
 O  O9  1  0.18237  0.19300  0.88599  1
 O  O10  1  0.80700  0.81763  0.61401  1
 P  P1  1  0.87500  0.12500  0.75000  1
 P  P2  1  0.12500  0.87500  0.25000  1
 V  V1  1  -0.00000  0.50000  0.50000  1
 V  V2  1  0.50000  0.00000  -0.00000  1
 V  V3  1  0.50000  0.50000  0.00000  1
 V  V4  1  0.50000  0.50000  0.50000  1
