CIF file written using JARVIS-Tools package.
data_S
_symmetry_space_group_name_H-M  'P3'
_cell_length_a       11.6454
_cell_length_b       11.6454
_cell_length_c       3.6032
_cell_angle_alpha    90
_cell_angle_beta     90
_cell_angle_gamma    120

_symmetry_Int_Tables_number  143
_chemical_formula_structural  S
_chemical_formula_sum  S8
_cell_volume  423.181503074849
_cell_formula_units_Z  18
loop_
  _symmetry_equiv_pos_site_id
 _symmetry_equiv_pos_as_xyz
 1  'x, y, z'
loop_
 _atom_site_type_symbol
 _atom_site_label
 _atom_site_symmetry_multiplicity
 _atom_site_fract_x
 _atom_site_fract_y
 _atom_site_fract_z
 _atom_site_fract_occupancy
 S  S1  1  0.22209  0.65606  0.76132  1
 S  S2  1  0.14558  0.16501  0.57213  1
 S  S3  1  0.01943  0.85442  0.57213  1
 S  S4  1  0.83499  0.98057  0.57213  1
 S  S5  1  0.12580  0.31895  0.57746  1
 S  S6  1  0.34394  0.56603  0.76132  1
 S  S7  1  0.63760  0.07756  0.13965  1
 S  S8  1  0.43397  0.77791  0.76132  1
 S  S9  1  0.60685  0.47413  -0.17853  1
 S  S10  1  0.92244  0.56004  0.13965  1
 S  S11  1  0.19314  0.87420  0.57746  1
 S  S12  1  0.52587  0.13272  -0.17853  1
 S  S13  1  0.43996  0.36240  0.13965  1
 S  S14  1  0.86728  0.39315  -0.17853  1
 S  S15  1  0.68105  0.80686  0.57746  1
 S  S16  1  0.76423  0.60887  0.14196  1
 S  S17  1  0.39113  0.15536  0.14196  1
 S  S18  1  0.84464  0.23577  0.14196  1
