CIF file written using JARVIS-Tools package.
data_NaSn2As2
_symmetry_space_group_name_H-M  'R-3m'
_cell_length_a       9.51681
_cell_length_b       9.51681
_cell_length_c       9.5168
_cell_angle_alpha    24.758
_cell_angle_beta     24.7579
_cell_angle_gamma    24.758

_symmetry_Int_Tables_number  166
_chemical_formula_structural  NaSn2As2
_chemical_formula_sum  NaSn2As2
_cell_volume  132.9501566348767
_cell_formula_units_Z  1
loop_
  _symmetry_equiv_pos_site_id
 _symmetry_equiv_pos_as_xyz
 1  'x, y, z'
loop_
 _atom_site_type_symbol
 _atom_site_label
 _atom_site_symmetry_multiplicity
 _atom_site_fract_x
 _atom_site_fract_y
 _atom_site_fract_z
 _atom_site_fract_occupancy
 As  As1  1  0.40510  0.40510  0.40510  1
 As  As2  1  0.59490  0.59490  0.59490  1
 Na  Na1  1  0.00000  0.00000  0.00000  1
 Sn  Sn1  1  0.21165  0.21165  0.21165  1
 Sn  Sn2  1  0.78835  0.78835  0.78835  1
