CIF file written using JARVIS-Tools package.
data_CoAgO2
_symmetry_space_group_name_H-M  'P6_3/mmc'
_cell_length_a       3.21813
_cell_length_b       3.21813
_cell_length_c       12.1008
_cell_angle_alpha    90
_cell_angle_beta     90
_cell_angle_gamma    119.944

_symmetry_Int_Tables_number  194
_chemical_formula_structural  CoAgO2
_chemical_formula_sum  Co2Ag2O4
_cell_volume  108.59142063915684
_cell_formula_units_Z  2
loop_
  _symmetry_equiv_pos_site_id
 _symmetry_equiv_pos_as_xyz
 1  'x, y, z'
loop_
 _atom_site_type_symbol
 _atom_site_label
 _atom_site_symmetry_multiplicity
 _atom_site_fract_x
 _atom_site_fract_y
 _atom_site_fract_z
 _atom_site_fract_occupancy
 Ag  Ag1  1  0.00000  0.00000  0.50000  1
 Ag  Ag2  1  0.00000  0.00000  0.00000  1
 Co  Co1  1  0.66698  0.33302  0.75000  1
 Co  Co2  1  0.33302  0.66698  0.25000  1
 O  O1  1  0.66693  0.33307  0.60837  1
 O  O2  1  0.33307  0.66693  0.39163  1
 O  O3  1  0.33307  0.66693  0.10837  1
 O  O4  1  0.66693  0.33307  0.89163  1
