CIF file written using JARVIS-Tools package.
data_BaSbBr2
_symmetry_space_group_name_H-M  'Pmm2'
_cell_length_a       4.07567
_cell_length_b       5.35754
_cell_length_c       6.39846
_cell_angle_alpha    90
_cell_angle_beta     90
_cell_angle_gamma    90

_symmetry_Int_Tables_number  25
_chemical_formula_structural  BaSbBr2
_chemical_formula_sum  BaSbBr2
_cell_volume  139.71403096063048
_cell_formula_units_Z  1
loop_
  _symmetry_equiv_pos_site_id
 _symmetry_equiv_pos_as_xyz
 1  'x, y, z'
loop_
 _atom_site_type_symbol
 _atom_site_label
 _atom_site_symmetry_multiplicity
 _atom_site_fract_x
 _atom_site_fract_y
 _atom_site_fract_z
 _atom_site_fract_occupancy
 Ba  Ba1  1  0.50000  0.50000  0.75053  1
 Br  Br1  1  0.00000  0.00000  0.96226  1
 Br  Br2  1  0.50000  0.50000  0.24676  1
 Sb  Sb1  1  0.00000  0.00000  0.54044  1
