CIF file written using JARVIS-Tools package.
data_AsC3N3
_symmetry_space_group_name_H-M  'C2'
_cell_length_a       5.69672
_cell_length_b       5.69672
_cell_length_c       8.60688
_cell_angle_alpha    79.042
_cell_angle_beta     79.042
_cell_angle_gamma    73.5269

_symmetry_Int_Tables_number  5
_chemical_formula_structural  AsC3N3
_chemical_formula_sum  As2C6N6
_cell_volume  260.2008025405192
_cell_formula_units_Z  2
loop_
  _symmetry_equiv_pos_site_id
 _symmetry_equiv_pos_as_xyz
 1  'x, y, z'
loop_
 _atom_site_type_symbol
 _atom_site_label
 _atom_site_symmetry_multiplicity
 _atom_site_fract_x
 _atom_site_fract_y
 _atom_site_fract_z
 _atom_site_fract_occupancy
 As  As1  1  0.29956  0.29693  0.73297  1
 As  As2  1  0.70307  0.70044  0.26703  1
 C  C1  1  0.96609  0.23831  0.74984  1
 C  C2  1  0.89988  0.66833  0.05206  1
 C  C3  1  0.33167  0.10012  0.94794  1
 C  C4  1  0.76169  0.03391  0.25016  1
 C  C5  1  0.44343  0.98561  0.63873  1
 C  C6  1  0.01439  0.55657  0.36127  1
 N  N1  1  0.53952  0.81595  0.57222  1
 N  N2  1  0.36817  0.99239  0.07365  1
 N  N3  1  0.77800  0.23314  0.24771  1
 N  N4  1  0.76686  0.22200  0.75229  1
 N  N5  1  0.00761  0.63183  0.92635  1
 N  N6  1  0.18405  0.46048  0.42778  1
