data_image0
_chemical_formula_structural       Ba2F2Fe2OS2
_chemical_formula_sum              "Ba2 F2 Fe2 O1 S2"
_cell_length_a       9.9862
_cell_length_b       4.13728
_cell_length_c       4.13728
_cell_angle_alpha    90
_cell_angle_beta     101.955
_cell_angle_gamma    101.955

_space_group_name_H-M_alt    "P 1"
_space_group_IT_number       1

loop_
  _space_group_symop_operation_xyz
  'x, y, z'

loop_
  _atom_site_type_symbol
  _atom_site_label
  _atom_site_symmetry_multiplicity
  _atom_site_fract_x
  _atom_site_fract_y
  _atom_site_fract_z
  _atom_site_occupancy
  Ba  Ba1       1.0  0.66900  0.33400  0.33400  1.0000
  Ba  Ba2       1.0  0.33100  0.66600  0.66600  1.0000
  F   F1        1.0  0.50000  0.75000  0.25000  1.0000
  F   F2        1.0  0.50000  0.25000  0.75000  1.0000
  Fe  Fe1       1.0  0.00000  0.50000  0.00000  1.0000
  Fe  Fe2       1.0  0.00000  0.00000  0.50000  1.0000
  O   O1        1.0  0.00000  0.50000  0.50000  1.0000
  S   S1        1.0  0.17400  0.08720  0.08720  1.0000
  S   S2        1.0  0.82600  0.91300  0.91300  1.0000
