CIF file written using JARVIS-Tools package.
data_KAs
_symmetry_space_group_name_H-M  'Pmma'
_cell_length_a       5.97996
_cell_length_b       9.88264
_cell_length_c       4.20891
_cell_angle_alpha    90
_cell_angle_beta     90
_cell_angle_gamma    90

_symmetry_Int_Tables_number  51
_chemical_formula_structural  KAs
_chemical_formula_sum  K4As4
_cell_volume  248.7374151718325
_cell_formula_units_Z  4
loop_
  _symmetry_equiv_pos_site_id
 _symmetry_equiv_pos_as_xyz
 1  'x, y, z'
loop_
 _atom_site_type_symbol
 _atom_site_label
 _atom_site_symmetry_multiplicity
 _atom_site_fract_x
 _atom_site_fract_y
 _atom_site_fract_z
 _atom_site_fract_occupancy
 As  As1  1  0.12759  0.75000  0.25001  1
 As  As2  1  0.87241  0.75000  0.75001  1
 As  As3  1  0.87241  0.25000  0.74999  1
 As  As4  1  0.12759  0.25000  0.24999  1
 K  K1  1  0.26217  0.50000  0.75000  1
 K  K2  1  0.73783  0.00000  0.25000  1
 K  K3  1  0.73783  0.50000  0.25000  1
 K  K4  1  0.26217  0.00000  0.75000  1
