CIF file written using JARVIS-Tools package.
data_TbNiC2
_symmetry_space_group_name_H-M  'Amm2'
_cell_length_a       3.61012
_cell_length_b       3.77607
_cell_length_c       3.77606
_cell_angle_alpha    106.568
_cell_angle_beta     90
_cell_angle_gamma    90

_symmetry_Int_Tables_number  38
_chemical_formula_structural  TbNiC2
_chemical_formula_sum  TbNiC2
_cell_volume  49.33819919777538
_cell_formula_units_Z  1
loop_
  _symmetry_equiv_pos_site_id
 _symmetry_equiv_pos_as_xyz
 1  'x, y, z'
loop_
 _atom_site_type_symbol
 _atom_site_label
 _atom_site_symmetry_multiplicity
 _atom_site_fract_x
 _atom_site_fract_y
 _atom_site_fract_z
 _atom_site_fract_occupancy
 C  C1  1  0.50000  0.45157  0.85023  1
 C  C2  1  0.50000  0.14977  0.54843  1
 Ni  Ni1  1  0.50000  0.61197  0.38803  1
 Tb  Tb1  1  0.00000  -0.00131  0.00131  1
