CIF file written using JARVIS-Tools package.
data_V2CoO6
_symmetry_space_group_name_H-M  'C2/m'
_cell_length_a       3.45694
_cell_length_b       9.56165
_cell_length_c       6.66956
_cell_angle_alpha    150.501
_cell_angle_beta     90
_cell_angle_gamma    100.415

_symmetry_Int_Tables_number  12
_chemical_formula_structural  V2CoO6
_chemical_formula_sum  V2CoO6
_cell_volume  100.9741957021723
_cell_formula_units_Z  1
loop_
  _symmetry_equiv_pos_site_id
 _symmetry_equiv_pos_as_xyz
 1  'x, y, z'
loop_
 _atom_site_type_symbol
 _atom_site_label
 _atom_site_symmetry_multiplicity
 _atom_site_fract_x
 _atom_site_fract_y
 _atom_site_fract_z
 _atom_site_fract_occupancy
 Co  Co1  1  0.00000  0.00000  0.00000  1
 O  O1  1  0.04140  0.08280  0.82292  1
 O  O2  1  0.95860  0.91720  0.17708  1
 O  O3  1  0.35339  0.70679  0.59887  1
 O  O4  1  0.64661  0.29321  0.40113  1
 O  O5  1  0.68757  0.37514  0.93549  1
 O  O6  1  0.31243  0.62486  0.06451  1
 V  V1  1  0.19718  0.39437  0.05782  1
 V  V2  1  0.80282  0.60563  0.94218  1
