CIF file written using JARVIS-Tools package.
data_CuPN2
_symmetry_space_group_name_H-M  'I-42d'
_cell_length_a       4.49029
_cell_length_b       4.49029
_cell_length_c       5.01003
_cell_angle_alpha    116.624
_cell_angle_beta     116.624
_cell_angle_gamma    90

_symmetry_Int_Tables_number  122
_chemical_formula_structural  CuPN2
_chemical_formula_sum  Cu2P2N4
_cell_volume  78.13933110740128
_cell_formula_units_Z  2
loop_
  _symmetry_equiv_pos_site_id
 _symmetry_equiv_pos_as_xyz
 1  'x, y, z'
loop_
 _atom_site_type_symbol
 _atom_site_label
 _atom_site_symmetry_multiplicity
 _atom_site_fract_x
 _atom_site_fract_y
 _atom_site_fract_z
 _atom_site_fract_occupancy
 Cu  Cu1  1  0.25000  0.75000  0.50000  1
 Cu  Cu2  1  0.50000  0.50000  0.00000  1
 N  N1  1  0.87500  0.96017  0.25000  1
 N  N2  1  0.37500  0.28983  0.25000  1
 N  N3  1  0.71017  0.12500  0.75000  1
 N  N4  1  0.03983  0.62500  0.75000  1
 P  P1  1  0.75000  0.25000  0.50000  1
 P  P2  1  0.00000  0.00000  0.00000  1
