CIF file written using JARVIS-Tools package.
data_TeN2O6
_symmetry_space_group_name_H-M  'C2/m'
_cell_length_a       4.33435
_cell_length_b       4.33435
_cell_length_c       6.65588
_cell_angle_alpha    77.7009
_cell_angle_beta     77.7009
_cell_angle_gamma    83.2213

_symmetry_Int_Tables_number  12
_chemical_formula_structural  TeN2O6
_chemical_formula_sum  TeN2O6
_cell_volume  119.02110739897586
_cell_formula_units_Z  1
loop_
  _symmetry_equiv_pos_site_id
 _symmetry_equiv_pos_as_xyz
 1  'x, y, z'
loop_
 _atom_site_type_symbol
 _atom_site_label
 _atom_site_symmetry_multiplicity
 _atom_site_fract_x
 _atom_site_fract_y
 _atom_site_fract_z
 _atom_site_fract_occupancy
 N  N1  1  0.32876  0.32876  0.28207  1
 N  N2  1  0.67124  0.67124  0.71793  1
 O  O1  1  0.70547  0.70547  0.54141  1
 O  O2  1  0.29453  0.29453  0.45859  1
 O  O3  1  0.28311  0.82562  0.18420  1
 O  O4  1  0.82562  0.28311  0.18420  1
 O  O5  1  0.71689  0.17438  0.81580  1
 O  O6  1  0.17438  0.71689  0.81580  1
 Te  Te1  1  0.00000  0.00000  0.00000  1
