CIF file written using JARVIS-Tools package.
data_Sr2AuN
_symmetry_space_group_name_H-M  'Cmcm'
_cell_length_a       3.75398
_cell_length_b       5.26957
_cell_length_c       9.70479
_cell_angle_alpha    90
_cell_angle_beta     101.152
_cell_angle_gamma    90

_symmetry_Int_Tables_number  63
_chemical_formula_structural  Sr2AuN
_chemical_formula_sum  Sr4Au2N2
_cell_volume  188.3542346171374
_cell_formula_units_Z  2
loop_
  _symmetry_equiv_pos_site_id
 _symmetry_equiv_pos_as_xyz
 1  'x, y, z'
loop_
 _atom_site_type_symbol
 _atom_site_label
 _atom_site_symmetry_multiplicity
 _atom_site_fract_x
 _atom_site_fract_y
 _atom_site_fract_z
 _atom_site_fract_occupancy
 Au  Au1  1  0.04216  0.75000  0.08433  1
 Au  Au2  1  0.95784  0.25000  0.91567  1
 N  N1  1  0.19216  0.25000  0.38432  1
 N  N2  1  0.80784  0.75000  0.61568  1
 Sr  Sr1  1  0.21406  0.75000  0.42812  1
 Sr  Sr2  1  0.78594  0.25000  0.57188  1
 Sr  Sr3  1  0.59926  0.25000  0.19851  1
 Sr  Sr4  1  0.40074  0.75000  0.80149  1
