CIF file written using JARVIS-Tools package.
data_SiO2
_symmetry_space_group_name_H-M  'Cmc2_1'
_cell_length_a       5.00723
_cell_length_b       11.1521
_cell_length_c       11.1521
_cell_angle_alpha    101.694
_cell_angle_beta     90
_cell_angle_gamma    90

_symmetry_Int_Tables_number  36
_chemical_formula_structural  SiO2
_chemical_formula_sum  Si2O24
_cell_volume  609.8231787097561
_cell_formula_units_Z  12
loop_
  _symmetry_equiv_pos_site_id
 _symmetry_equiv_pos_as_xyz
 1  'x, y, z'
loop_
 _atom_site_type_symbol
 _atom_site_label
 _atom_site_symmetry_multiplicity
 _atom_site_fract_x
 _atom_site_fract_y
 _atom_site_fract_z
 _atom_site_fract_occupancy
 O  O1  1  0.53344  0.70742  0.75426  1
 O  O2  1  0.83784  0.69644  0.30356  1
 O  O3  1  0.20649  0.34033  0.47456  1
 O  O4  1  0.83776  0.35198  0.64802  1
 O  O5  1  0.70649  0.47456  0.34033  1
 O  O6  1  0.33776  0.64802  0.35198  1
 O  O7  1  0.70649  0.65967  0.52544  1
 O  O8  1  0.64690  0.89115  0.64380  1
 O  O9  1  0.64690  0.35620  0.10885  1
 O  O10  1  0.53344  0.24574  0.29258  1
 O  O11  1  0.33784  0.30356  0.69644  1
 O  O12  1  0.20649  0.52544  0.65967  1
 O  O13  1  0.70553  0.31427  0.87018  1
 O  O14  1  0.03675  0.46659  0.01195  1
 O  O15  1  0.70553  0.12982  0.68573  1
 O  O16  1  0.14690  0.64380  0.89115  1
 O  O17  1  0.53675  0.01195  0.46659  1
 O  O18  1  0.20553  0.68573  0.12982  1
 O  O19  1  0.14690  0.10885  0.35620  1
 O  O20  1  0.20553  0.87018  0.31427  1
 O  O21  1  0.03344  0.75426  0.70742  1
 O  O22  1  0.03675  0.98805  0.53341  1
 O  O23  1  0.03344  0.29258  0.24574  1
 O  O24  1  0.53675  0.53341  0.98805  1
 Si  Si1  1  0.14823  0.38031  0.61969  1
 Si  Si2  1  0.23047  0.58248  0.00566  1
 Si  Si3  1  0.22948  0.24617  0.34321  1
 Si  Si4  1  0.64823  0.61969  0.38031  1
 Si  Si5  1  0.64809  0.27518  0.72482  1
 Si  Si6  1  0.72948  0.34321  0.24617  1
 Si  Si7  1  0.72948  0.75383  0.65679  1
 Si  Si8  1  0.73047  0.00566  0.58248  1
 Si  Si9  1  0.14809  0.72482  0.27518  1
 Si  Si10  1  0.22948  0.65679  0.75383  1
 Si  Si11  1  0.73047  0.41752  0.99434  1
 Si  Si12  1  0.23047  0.99434  0.41752  1
