CIF file written using JARVIS-Tools package.
data_EuAu
_symmetry_space_group_name_H-M  'Pnma'
_cell_length_a       4.73798
_cell_length_b       5.72588
_cell_length_c       7.27802
_cell_angle_alpha    90
_cell_angle_beta     90
_cell_angle_gamma    90

_symmetry_Int_Tables_number  62
_chemical_formula_structural  EuAu
_chemical_formula_sum  Eu4Au4
_cell_volume  197.4458802592375
_cell_formula_units_Z  4
loop_
  _symmetry_equiv_pos_site_id
 _symmetry_equiv_pos_as_xyz
 1  'x, y, z'
loop_
 _atom_site_type_symbol
 _atom_site_label
 _atom_site_symmetry_multiplicity
 _atom_site_fract_x
 _atom_site_fract_y
 _atom_site_fract_z
 _atom_site_fract_occupancy
 Au  Au1  1  0.25000  0.84135  0.54209  1
 Au  Au2  1  0.25000  0.65865  0.04209  1
 Au  Au3  1  0.75000  0.15865  0.45791  1
 Au  Au4  1  0.75000  0.34135  0.95791  1
 Eu  Eu1  1  0.25000  0.35023  0.68617  1
 Eu  Eu2  1  0.25000  0.14977  0.18617  1
 Eu  Eu3  1  0.75000  0.64977  0.31383  1
 Eu  Eu4  1  0.75000  0.85023  0.81383  1
