CIF file written using JARVIS-Tools package.
data_SrFe2P2
_symmetry_space_group_name_H-M  'I4/mmm'
_cell_length_a       3.81615
_cell_length_b       3.81615
_cell_length_c       6.29263
_cell_angle_alpha    107.651
_cell_angle_beta     107.651
_cell_angle_gamma    90

_symmetry_Int_Tables_number  139
_chemical_formula_structural  SrFe2P2
_chemical_formula_sum  SrFe2P2
_cell_volume  82.78630344403969
_cell_formula_units_Z  1
loop_
  _symmetry_equiv_pos_site_id
 _symmetry_equiv_pos_as_xyz
 1  'x, y, z'
loop_
 _atom_site_type_symbol
 _atom_site_label
 _atom_site_symmetry_multiplicity
 _atom_site_fract_x
 _atom_site_fract_y
 _atom_site_fract_z
 _atom_site_fract_occupancy
 Fe  Fe1  1  0.25000  0.75000  0.50000  1
 Fe  Fe2  1  0.75000  0.25000  0.50000  1
 P  P1  1  0.65318  0.65318  0.30635  1
 P  P2  1  0.34682  0.34682  0.69365  1
 Sr  Sr1  1  0.00000  0.00000  0.00000  1
