CIF file written using JARVIS-Tools package.
data_GaFeO3
_symmetry_space_group_name_H-M  'Pna2_1'
_cell_length_a       5.05261
_cell_length_b       8.73589
_cell_length_c       9.34732
_cell_angle_alpha    90
_cell_angle_beta     90
_cell_angle_gamma    90

_symmetry_Int_Tables_number  33
_chemical_formula_structural  GaFeO3
_chemical_formula_sum  Ga8Fe8O24
_cell_volume  412.5816175819767
_cell_formula_units_Z  8
loop_
  _symmetry_equiv_pos_site_id
 _symmetry_equiv_pos_as_xyz
 1  'x, y, z'
loop_
 _atom_site_type_symbol
 _atom_site_label
 _atom_site_symmetry_multiplicity
 _atom_site_fract_x
 _atom_site_fract_y
 _atom_site_fract_z
 _atom_site_fract_occupancy
 Fe  Fe1  1  0.18427  0.16419  0.57248  1
 Fe  Fe2  1  0.81573  0.83581  0.07248  1
 Fe  Fe3  1  0.33234  0.95616  0.28924  1
 Fe  Fe4  1  0.68427  0.33581  0.57248  1
 Fe  Fe5  1  0.16766  0.45616  0.78924  1
 Fe  Fe6  1  0.83234  0.54384  0.28924  1
 Fe  Fe7  1  0.66766  0.04384  0.78924  1
 Fe  Fe8  1  0.31573  0.66419  0.07248  1
 Ga  Ga1  1  0.82971  0.84958  0.50321  1
 Ga  Ga2  1  0.17029  0.15042  0.00321  1
 Ga  Ga3  1  0.67029  0.34958  0.00321  1
 Ga  Ga4  1  0.82663  0.15388  0.30685  1
 Ga  Ga5  1  0.32663  0.34612  0.30685  1
 Ga  Ga6  1  0.32971  0.65042  0.50321  1
 Ga  Ga7  1  0.17337  0.84612  0.80685  1
 Ga  Ga8  1  0.67337  0.65388  0.80685  1
 O  O1  1  0.33012  0.01119  0.69731  1
 O  O2  1  0.83012  0.48881  0.69731  1
 O  O3  1  0.13939  0.82336  0.16883  1
 O  O4  1  0.67071  0.33706  0.20366  1
 O  O5  1  0.17071  0.16294  0.20366  1
 O  O6  1  0.01185  0.32995  0.94076  1
 O  O7  1  0.49163  0.81104  0.93934  1
 O  O8  1  0.51185  0.17005  0.94076  1
 O  O9  1  0.16988  0.51119  0.19731  1
 O  O10  1  0.52867  0.48611  0.43809  1
 O  O11  1  0.47133  0.51389  0.93809  1
 O  O12  1  0.00837  0.31104  0.43934  1
 O  O13  1  0.97133  0.98611  0.93809  1
 O  O14  1  0.86061  0.17664  0.66883  1
 O  O15  1  0.48815  0.82995  0.44076  1
 O  O16  1  0.50837  0.18896  0.43934  1
 O  O17  1  0.82929  0.83706  0.70366  1
 O  O18  1  0.66988  -0.01119  0.19731  1
 O  O19  1  0.36061  0.32336  0.66883  1
 O  O20  1  0.02867  0.01389  0.43809  1
 O  O21  1  0.98815  0.67005  0.44076  1
 O  O22  1  0.63939  0.67664  0.16883  1
 O  O23  1  0.32929  0.66294  0.70366  1
 O  O24  1  -0.00837  0.68896  0.93934  1
