CIF file written using JARVIS-Tools package.
data_BeCdHg
_symmetry_space_group_name_H-M  'I4mm'
_cell_length_a       6.19254
_cell_length_b       6.19254
_cell_length_c       6.19254
_cell_angle_alpha    151.536
_cell_angle_beta     151.536
_cell_angle_gamma    40.6913

_symmetry_Int_Tables_number  107
_chemical_formula_structural  BeCdHg
_chemical_formula_sum  BeCdHg
_cell_volume  53.83003127622885
_cell_formula_units_Z  1
loop_
  _symmetry_equiv_pos_site_id
 _symmetry_equiv_pos_as_xyz
 1  'x, y, z'
loop_
 _atom_site_type_symbol
 _atom_site_label
 _atom_site_symmetry_multiplicity
 _atom_site_fract_x
 _atom_site_fract_y
 _atom_site_fract_z
 _atom_site_fract_occupancy
 Be  Be1  1  0.00178  0.00178  -0.00000  1
 Cd  Cd1  1  0.35783  0.35783  -0.00000  1
 Hg  Hg1  1  0.64039  0.64039  -0.00000  1
