CIF file written using JARVIS-Tools package.
data_Tb6Al3Si
_symmetry_space_group_name_H-M  'I4/mcm'
_cell_length_a       11.2106
_cell_length_b       11.2106
_cell_length_c       11.2106
_cell_angle_alpha    93.7378
_cell_angle_beta     117.866
_cell_angle_gamma    117.866

_symmetry_Int_Tables_number  140
_chemical_formula_structural  Tb6Al3Si
_chemical_formula_sum  Tb24Al2Si4
_cell_volume  1026.0228905248027
_cell_formula_units_Z  4
loop_
  _symmetry_equiv_pos_site_id
 _symmetry_equiv_pos_as_xyz
 1  'x, y, z'
loop_
 _atom_site_type_symbol
 _atom_site_label
 _atom_site_symmetry_multiplicity
 _atom_site_fract_x
 _atom_site_fract_y
 _atom_site_fract_z
 _atom_site_fract_occupancy
 Al  Al1  1  0.50000  0.02624  0.88254  1
 Al  Al2  1  0.26085  0.88042  0.38042  1
 Al  Al3  1  0.73915  0.11958  0.61958  1
 Al  Al4  1  0.50000  0.61958  0.88042  1
 Al  Al5  1  0.85630  0.47376  0.97376  1
 Al  Al6  1  0.50000  0.38254  0.52624  1
 Al  Al7  1  0.14370  0.52624  0.02624  1
 Al  Al8  1  0.85630  0.88254  0.38254  1
 Al  Al9  1  0.14370  0.11746  0.61746  1
 Al  Al10  1  0.50000  0.38042  0.11958  1
 Al  Al11  1  0.50000  0.97376  0.11746  1
 Al  Al12  1  0.50000  0.61746  0.47376  1
 Si  Si1  1  0.00000  0.75000  0.75000  1
 Si  Si2  1  -0.00000  0.50000  0.50000  1
 Si  Si3  1  0.00000  0.00000  0.00000  1
 Si  Si4  1  -0.00000  0.25000  0.25000  1
 Tb  Tb1  1  0.50000  0.85099  0.35099  1
 Tb  Tb2  1  0.13191  0.82931  0.57028  1
 Tb  Tb3  1  0.25904  0.06163  0.92972  1
 Tb  Tb4  1  0.25904  0.69741  0.82931  1
 Tb  Tb5  1  0.74096  0.57028  0.43837  1
 Tb  Tb6  1  0.74096  0.93837  0.07028  1
 Tb  Tb7  1  0.83698  0.66849  0.16849  1
 Tb  Tb8  1  0.50000  0.83151  0.66849  1
 Tb  Tb9  1  0.86809  0.43837  0.69741  1
 Tb  Tb10  1  0.86809  0.92972  0.67069  1
 Tb  Tb11  1  0.13191  0.80259  0.06163  1
 Tb  Tb12  1  0.74096  0.67069  0.80259  1
 Tb  Tb13  1  0.25904  0.42972  0.56163  1
 Tb  Tb14  1  0.50000  0.16849  0.33151  1
 Tb  Tb15  1  0.16302  0.33151  0.83151  1
 Tb  Tb16  1  0.86809  0.17069  0.42972  1
 Tb  Tb17  1  0.13191  0.56163  0.30259  1
 Tb  Tb18  1  0.13191  0.07028  0.32931  1
 Tb  Tb19  1  0.86809  0.19741  0.93837  1
 Tb  Tb20  1  0.25904  0.32931  0.19741  1
 Tb  Tb21  1  0.50000  0.64901  0.14901  1
 Tb  Tb22  1  0.50000  0.14901  0.64901  1
 Tb  Tb23  1  0.74096  0.30259  0.17069  1
 Tb  Tb24  1  0.50000  0.35099  0.85099  1
