CIF file written using JARVIS-Tools package.
data_Sc2PbS4
_symmetry_space_group_name_H-M  'Pnma'
_cell_length_a       3.76623
_cell_length_b       11.735
_cell_length_c       13.7325
_cell_angle_alpha    90
_cell_angle_beta     90
_cell_angle_gamma    90

_symmetry_Int_Tables_number  62
_chemical_formula_structural  Sc2PbS4
_chemical_formula_sum  Sc8Pb4S6
_cell_volume  606.9322345005393
_cell_formula_units_Z  4
loop_
  _symmetry_equiv_pos_site_id
 _symmetry_equiv_pos_as_xyz
 1  'x, y, z'
loop_
 _atom_site_type_symbol
 _atom_site_label
 _atom_site_symmetry_multiplicity
 _atom_site_fract_x
 _atom_site_fract_y
 _atom_site_fract_z
 _atom_site_fract_occupancy
 Pb  Pb1  1  0.25000  0.25970  0.17106  1
 Pb  Pb2  1  0.25000  0.75970  0.32894  1
 Pb  Pb3  1  0.75000  0.24030  0.67106  1
 Pb  Pb4  1  0.75000  0.74030  0.82894  1
 S  S1  1  0.75000  0.29723  0.34350  1
 S  S2  1  0.75000  0.08805  0.07255  1
 S  S3  1  0.25000  0.41195  0.57255  1
 S  S4  1  0.75000  0.58805  0.42745  1
 S  S5  1  0.25000  0.03175  0.28429  1
 S  S6  1  0.75000  0.96825  0.71571  1
 S  S7  1  0.25000  0.53175  0.21571  1
 S  S8  1  0.75000  0.46825  0.78429  1
 S  S9  1  0.25000  0.62157  0.97105  1
 S  S10  1  0.75000  0.37843  0.02895  1
 S  S11  1  0.25000  0.12157  0.52895  1
 S  S12  1  0.25000  0.20277  0.84350  1
 S  S13  1  0.25000  0.91195  0.92745  1
 S  S14  1  0.75000  0.79723  0.15650  1
 S  S15  1  0.25000  0.70277  0.65650  1
 S  S16  1  0.75000  0.87843  0.47105  1
 Sc  Sc1  1  0.75000  0.55675  0.61084  1
 Sc  Sc2  1  0.25000  0.44325  0.38916  1
 Sc  Sc3  1  0.75000  0.05675  0.88916  1
 Sc  Sc4  1  0.25000  0.94325  0.11084  1
 Sc  Sc5  1  0.25000  0.91719  0.59640  1
 Sc  Sc6  1  0.75000  0.08281  0.40360  1
 Sc  Sc7  1  0.25000  0.41719  0.90360  1
 Sc  Sc8  1  0.75000  0.58281  0.09640  1
