CIF file written using JARVIS-Tools package.
data_TeAsHO5
_symmetry_space_group_name_H-M  'P2_1/c'
_cell_length_a       7.43024
_cell_length_b       6.04788
_cell_length_c       9.37272
_cell_angle_alpha    90
_cell_angle_beta     102.98
_cell_angle_gamma    90

_symmetry_Int_Tables_number  14
_chemical_formula_structural  TeAsHO5
_chemical_formula_sum  Te4As4H4O20
_cell_volume  410.4226034326256
_cell_formula_units_Z  4
loop_
  _symmetry_equiv_pos_site_id
 _symmetry_equiv_pos_as_xyz
 1  'x, y, z'
loop_
 _atom_site_type_symbol
 _atom_site_label
 _atom_site_symmetry_multiplicity
 _atom_site_fract_x
 _atom_site_fract_y
 _atom_site_fract_z
 _atom_site_fract_occupancy
 As  As1  1  0.80297  0.36603  0.58601  1
 As  As2  1  0.19703  0.86603  0.91399  1
 As  As3  1  0.19703  0.63397  0.41399  1
 As  As4  1  0.80297  0.13397  0.08601  1
 H  H1  1  0.06719  0.66306  0.16731  1
 H  H2  1  0.93281  0.16306  0.33269  1
 H  H3  1  0.93281  0.33694  0.83269  1
 H  H4  1  0.06719  0.83694  0.66731  1
 O  O1  1  0.81293  0.89610  0.99022  1
 O  O2  1  0.18707  0.39610  0.50978  1
 O  O3  1  0.18707  0.10390  0.00978  1
 O  O4  1  0.81293  0.60390  0.49022  1
 O  O5  1  0.82468  0.35718  0.97720  1
 O  O6  1  0.41976  0.38150  0.89333  1
 O  O7  1  0.58024  0.88150  0.60667  1
 O  O8  1  0.58024  0.61850  0.10667  1
 O  O9  1  0.41976  0.11850  0.39333  1
 O  O10  1  0.01871  0.63442  0.25777  1
 O  O11  1  0.40193  0.85629  0.85236  1
 O  O12  1  0.98129  0.13442  0.24223  1
 O  O13  1  0.82468  0.14282  0.47720  1
 O  O14  1  0.17532  0.64282  0.02280  1
 O  O15  1  0.17532  0.85718  0.52280  1
 O  O16  1  0.59807  0.35629  0.64764  1
 O  O17  1  0.98129  0.36558  0.74223  1
 O  O18  1  0.01871  0.86558  0.75777  1
 O  O19  1  0.40193  0.64371  0.35236  1
 O  O20  1  0.59807  0.14371  0.14764  1
 Te  Te1  1  0.38082  0.37341  0.09164  1
 Te  Te2  1  0.61918  0.87341  0.40836  1
 Te  Te3  1  0.61918  0.62659  0.90836  1
 Te  Te4  1  0.38082  0.12659  0.59164  1
