CIF file written using JARVIS-Tools package.
data_RbBSe3
_symmetry_space_group_name_H-M  'P2_1/c'
_cell_length_a       6.20887
_cell_length_b       7.22851
_cell_length_c       12.3977
_cell_angle_alpha    90
_cell_angle_beta     90
_cell_angle_gamma    105.623

_symmetry_Int_Tables_number  14
_chemical_formula_structural  RbBSe3
_chemical_formula_sum  Rb4B4Se2
_cell_volume  535.8602801598313
_cell_formula_units_Z  4
loop_
  _symmetry_equiv_pos_site_id
 _symmetry_equiv_pos_as_xyz
 1  'x, y, z'
loop_
 _atom_site_type_symbol
 _atom_site_label
 _atom_site_symmetry_multiplicity
 _atom_site_fract_x
 _atom_site_fract_y
 _atom_site_fract_z
 _atom_site_fract_occupancy
 B  B1  1  0.67498  0.69718  0.22918  1
 B  B2  1  0.17498  0.69718  0.27082  1
 B  B3  1  0.32502  0.30282  0.77082  1
 B  B4  1  0.82502  0.30282  0.72918  1
 Rb  Rb1  1  0.20830  0.25625  0.42454  1
 Rb  Rb2  1  0.79170  0.74375  0.57546  1
 Rb  Rb3  1  0.70830  0.25625  0.07546  1
 Rb  Rb4  1  0.29170  0.74375  0.92454  1
 Se  Se1  1  0.85688  0.53240  0.30851  1
 Se  Se2  1  0.64312  0.46760  0.80851  1
 Se  Se3  1  0.14312  0.46760  0.69149  1
 Se  Se4  1  0.35688  0.53240  0.19149  1
 Se  Se5  1  0.83378  0.79472  0.08623  1
 Se  Se6  1  0.82217  0.05503  0.81852  1
 Se  Se7  1  0.33378  0.79472  0.41377  1
 Se  Se8  1  0.67783  0.94497  0.31852  1
 Se  Se9  1  0.17783  0.94497  0.18148  1
 Se  Se10  1  0.32217  0.05503  0.68148  1
 Se  Se11  1  0.66622  0.20528  0.58623  1
 Se  Se12  1  0.16622  0.20528  0.91377  1
