CIF file written using JARVIS-Tools package.
data_K3FeO4
_symmetry_space_group_name_H-M  'Pnma'
_cell_length_a       7.62191
_cell_length_b       7.84131
_cell_length_c       8.9871
_cell_angle_alpha    90
_cell_angle_beta     90
_cell_angle_gamma    90

_symmetry_Int_Tables_number  62
_chemical_formula_structural  K3FeO4
_chemical_formula_sum  K2Fe4O6
_cell_volume  537.1212070285361
_cell_formula_units_Z  4
loop_
  _symmetry_equiv_pos_site_id
 _symmetry_equiv_pos_as_xyz
 1  'x, y, z'
loop_
 _atom_site_type_symbol
 _atom_site_label
 _atom_site_symmetry_multiplicity
 _atom_site_fract_x
 _atom_site_fract_y
 _atom_site_fract_z
 _atom_site_fract_occupancy
 Fe  Fe1  1  0.22384  0.50971  0.75000  1
 Fe  Fe2  1  0.27616  0.00971  0.25000  1
 Fe  Fe3  1  0.77616  0.49029  0.25000  1
 Fe  Fe4  1  0.72384  0.99029  0.75000  1
 K  K1  1  0.03768  0.28170  0.03632  1
 K  K2  1  0.83483  0.93927  0.25000  1
 K  K3  1  0.16517  0.06073  0.75000  1
 K  K4  1  0.66517  0.43927  0.75000  1
 K  K5  1  0.33483  0.56073  0.25000  1
 K  K6  1  0.46232  0.78170  0.53632  1
 K  K7  1  0.53768  0.21830  0.03632  1
 K  K8  1  0.03768  0.28170  0.46368  1
 K  K9  1  0.96232  0.71830  0.53632  1
 K  K10  1  0.53768  0.21830  0.46368  1
 K  K11  1  0.46232  0.78170  0.96368  1
 K  K12  1  0.96232  0.71830  0.96368  1
 O  O1  1  0.78488  0.27053  0.25000  1
 O  O2  1  0.21512  0.72947  0.75000  1
 O  O3  1  0.71512  0.77053  0.75000  1
 O  O4  1  0.98157  0.58379  0.25000  1
 O  O5  1  0.48157  0.91621  0.25000  1
 O  O6  1  0.51843  0.08379  0.75000  1
 O  O7  1  0.01843  0.41621  0.75000  1
 O  O8  1  0.68116  0.54227  0.41915  1
 O  O9  1  0.31884  0.45773  0.91915  1
 O  O10  1  0.18116  0.95773  0.08085  1
 O  O11  1  0.18116  0.95773  0.41915  1
 O  O12  1  0.81884  0.04227  0.91915  1
 O  O13  1  0.28488  0.22947  0.25000  1
 O  O14  1  0.31884  0.45773  0.58085  1
 O  O15  1  0.81884  0.04227  0.58085  1
 O  O16  1  0.68116  0.54227  0.08085  1
