CIF file written using JARVIS-Tools package.
data_Li5VP2O9
_symmetry_space_group_name_H-M  'I4/mcm'
_cell_length_a       7.61057
_cell_length_b       7.61057
_cell_length_c       7.61057
_cell_angle_alpha    105.412
_cell_angle_beta     105.412
_cell_angle_gamma    117.937

_symmetry_Int_Tables_number  140
_chemical_formula_structural  Li5VP2O9
_chemical_formula_sum  Li0V2P4O8
_cell_volume  333.70417564565383
_cell_formula_units_Z  2
loop_
  _symmetry_equiv_pos_site_id
 _symmetry_equiv_pos_as_xyz
 1  'x, y, z'
loop_
 _atom_site_type_symbol
 _atom_site_label
 _atom_site_symmetry_multiplicity
 _atom_site_fract_x
 _atom_site_fract_y
 _atom_site_fract_z
 _atom_site_fract_occupancy
 Li  Li1  1  0.25000  0.75000  0.50000  1
 Li  Li2  1  0.25000  0.02481  0.77481  1
 Li  Li3  1  0.47519  0.25000  0.22519  1
 Li  Li4  1  0.02481  0.25000  0.77481  1
 Li  Li5  1  0.75000  0.52481  0.77481  1
 Li  Li6  1  0.52481  0.75000  0.77481  1
 Li  Li7  1  0.75000  0.25000  0.50000  1
 Li  Li8  1  0.75000  0.97519  0.22519  1
 Li  Li9  1  0.25000  0.47519  0.22519  1
 Li  Li10  1  0.97519  0.75000  0.22519  1
 O  O1  1  0.18449  0.87721  0.06170  1
 O  O2  1  0.87721  0.81551  0.69272  1
 O  O3  1  0.80284  0.01955  0.50000  1
 O  O4  1  0.01955  0.51955  0.21670  1
 O  O5  1  0.48045  0.69716  0.50000  1
 O  O6  1  0.37721  0.68449  0.06170  1
 O  O7  1  0.69716  0.19716  0.21670  1
 O  O8  1  0.19716  0.98045  0.50000  1
 O  O9  1  0.75000  0.75000  -0.00000  1
 O  O10  1  0.31551  0.37721  0.69272  1
 O  O11  1  0.30284  0.80284  0.78330  1
 O  O12  1  0.51955  0.30284  0.50000  1
 O  O13  1  0.81551  0.12279  0.93830  1
 O  O14  1  0.25000  0.25000  -0.00000  1
 O  O15  1  0.98045  0.48045  0.78330  1
 O  O16  1  0.12279  0.18449  0.30728  1
 O  O17  1  0.68449  0.62279  0.30728  1
 O  O18  1  0.62279  0.31551  0.93830  1
 P  P1  1  0.70963  0.79037  0.50000  1
 P  P2  1  0.29037  0.20963  0.50000  1
 P  P3  1  0.20963  0.70963  0.91925  1
 P  P4  1  0.79037  0.29037  0.08075  1
 V  V1  1  0.50000  0.50000  -0.00000  1
 V  V2  1  0.00000  0.00000  0.00000  1
