CIF file written using JARVIS-Tools package.
data_Fe12N5
_symmetry_space_group_name_H-M  'P-31m'
_cell_length_a       9.34493
_cell_length_b       9.34492
_cell_length_c       4.30037
_cell_angle_alpha    90
_cell_angle_beta     90
_cell_angle_gamma    120

_symmetry_Int_Tables_number  162
_chemical_formula_structural  Fe12N5
_chemical_formula_sum  Fe24N0
_cell_volume  325.22817053115034
_cell_formula_units_Z  2
loop_
  _symmetry_equiv_pos_site_id
 _symmetry_equiv_pos_as_xyz
 1  'x, y, z'
loop_
 _atom_site_type_symbol
 _atom_site_label
 _atom_site_symmetry_multiplicity
 _atom_site_fract_x
 _atom_site_fract_y
 _atom_site_fract_z
 _atom_site_fract_occupancy
 Fe  Fe1  1  0.84176  0.84037  0.74865  1
 Fe  Fe2  1  0.66974  0.66667  0.24677  1
 Fe  Fe3  1  0.82491  0.33194  0.74865  1
 Fe  Fe4  1  0.50704  0.17509  0.74865  1
 Fe  Fe5  1  0.99861  0.84037  0.25135  1
 Fe  Fe6  1  0.15963  0.15824  0.25135  1
 Fe  Fe7  1  0.84176  0.00139  0.25135  1
 Fe  Fe8  1  0.15963  0.00139  0.74865  1
 Fe  Fe9  1  0.99861  0.15824  0.74865  1
 Fe  Fe10  1  0.49971  0.83305  0.24716  1
 Fe  Fe11  1  0.16695  0.66667  0.24716  1
 Fe  Fe12  1  0.33333  0.50029  0.24716  1
 Fe  Fe13  1  0.99693  0.33026  0.24677  1
 Fe  Fe14  1  0.33333  0.83305  0.75284  1
 Fe  Fe15  1  0.16695  0.50029  0.75284  1
 Fe  Fe16  1  0.66974  0.00307  0.75323  1
 Fe  Fe17  1  0.33333  0.33026  0.75323  1
 Fe  Fe18  1  0.99693  0.66667  0.75323  1
 Fe  Fe19  1  0.50704  0.33194  0.25135  1
 Fe  Fe20  1  0.33333  0.00307  0.24677  1
 Fe  Fe21  1  0.82491  0.49296  0.25135  1
 Fe  Fe22  1  0.66806  0.49296  0.74865  1
 Fe  Fe23  1  0.49971  0.66667  0.75284  1
 Fe  Fe24  1  0.66806  0.17509  0.25135  1
 N  N1  1  0.50477  0.49523  0.00000  1
 N  N2  1  0.16190  0.32380  0.00000  1
 N  N3  1  0.16190  0.83810  0.00000  1
 N  N4  1  0.99047  0.49523  0.00000  1
 N  N5  1  0.50477  0.00953  0.00000  1
 N  N6  1  0.83333  0.66667  0.50000  1
 N  N7  1  0.33333  0.16667  0.50000  1
 N  N8  1  0.83333  0.16667  0.50000  1
 N  N9  1  0.33333  0.66667  0.50000  1
 N  N10  1  0.67620  0.83810  0.00000  1
