CIF file written using JARVIS-Tools package.
data_ZrBeIn
_symmetry_space_group_name_H-M  'I4mm'
_cell_length_a       6.00923
_cell_length_b       6.00923
_cell_length_c       6.00923
_cell_angle_alpha    150.014
_cell_angle_beta     150.014
_cell_angle_gamma    42.9213

_symmetry_Int_Tables_number  107
_chemical_formula_structural  ZrBeIn
_chemical_formula_sum  ZrBeIn
_cell_volume  54.064881270440786
_cell_formula_units_Z  1
loop_
  _symmetry_equiv_pos_site_id
 _symmetry_equiv_pos_as_xyz
 1  'x, y, z'
loop_
 _atom_site_type_symbol
 _atom_site_label
 _atom_site_symmetry_multiplicity
 _atom_site_fract_x
 _atom_site_fract_y
 _atom_site_fract_z
 _atom_site_fract_occupancy
 Be  Be1  1  -0.00155  -0.00155  -0.00000  1
 In  In1  1  0.35390  0.35390  0.00000  1
 Zr  Zr1  1  0.64765  0.64765  0.00000  1
