CIF file written using JARVIS-Tools package.
data_RbAuN12
_symmetry_space_group_name_H-M  'C2/c'
_cell_length_a       7.46142
_cell_length_b       7.46142
_cell_length_c       7.88674
_cell_angle_alpha    89.0484
_cell_angle_beta     89.0484
_cell_angle_gamma    91.502

_symmetry_Int_Tables_number  15
_chemical_formula_structural  RbAuN12
_chemical_formula_sum  Rb2Au2N24
_cell_volume  438.80146405986414
_cell_formula_units_Z  2
loop_
  _symmetry_equiv_pos_site_id
 _symmetry_equiv_pos_as_xyz
 1  'x, y, z'
loop_
 _atom_site_type_symbol
 _atom_site_label
 _atom_site_symmetry_multiplicity
 _atom_site_fract_x
 _atom_site_fract_y
 _atom_site_fract_z
 _atom_site_fract_occupancy
 Au  Au1  1  0.51192  0.48808  0.25000  1
 Au  Au2  1  0.48808  0.51192  0.75000  1
 N  N1  1  0.47439  0.24834  0.68177  1
 N  N2  1  0.22348  0.53448  0.67913  1
 N  N3  1  0.46552  0.77652  0.82087  1
 N  N4  1  0.84290  0.59275  0.39330  1
 N  N5  1  0.40725  0.15710  0.10670  1
 N  N6  1  0.15710  0.40725  0.60670  1
 N  N7  1  0.59275  0.84290  0.89330  1
 N  N8  1  0.91381  0.70985  0.46205  1
 N  N9  1  0.29015  0.08619  0.03795  1
 N  N10  1  0.08619  0.29015  0.53795  1
 N  N11  1  0.24834  0.47439  0.18177  1
 N  N12  1  0.52561  0.75166  0.31823  1
 N  N13  1  0.70985  0.91381  0.96205  1
 N  N14  1  0.77652  0.46552  0.32087  1
 N  N15  1  0.16981  0.60523  0.13213  1
 N  N16  1  0.39477  0.83019  0.36787  1
 N  N17  1  0.83019  0.39477  0.86787  1
 N  N18  1  0.60523  0.16981  0.63213  1
 N  N19  1  0.08023  0.71936  0.08410  1
 N  N20  1  0.28064  0.91977  0.41590  1
 N  N21  1  0.91977  0.28064  0.91590  1
 N  N22  1  0.71936  0.08023  0.58410  1
 N  N23  1  0.53448  0.22348  0.17913  1
 N  N24  1  0.75166  0.52561  0.81823  1
 Rb  Rb1  1  0.92222  0.07778  0.25000  1
 Rb  Rb2  1  0.07778  0.92222  0.75000  1
