CIF file written using JARVIS-Tools package.
data_ReO3
_symmetry_space_group_name_H-M  'Pm-3m'
_cell_length_a       5.36395
_cell_length_b       5.36395
_cell_length_c       5.36395
_cell_angle_alpha    60.0037
_cell_angle_beta     60.0037
_cell_angle_gamma    60.0035

_symmetry_Int_Tables_number  221
_chemical_formula_structural  ReO3
_chemical_formula_sum  Re2O6
_cell_volume  109.13807840006304
_cell_formula_units_Z  2
loop_
  _symmetry_equiv_pos_site_id
 _symmetry_equiv_pos_as_xyz
 1  'x, y, z'
loop_
 _atom_site_type_symbol
 _atom_site_label
 _atom_site_symmetry_multiplicity
 _atom_site_fract_x
 _atom_site_fract_y
 _atom_site_fract_z
 _atom_site_fract_occupancy
 O  O1  1  0.24706  0.74756  0.74658  1
 O  O2  1  0.24756  0.74706  0.24658  1
 O  O3  1  0.24658  0.24756  0.74706  1
 O  O4  1  0.74756  0.74658  0.24706  1
 O  O5  1  0.74658  0.24706  0.74756  1
 O  O6  1  0.74706  0.24658  0.24756  1
 Re  Re1  1  0.99707  0.99707  0.99707  1
 Re  Re2  1  0.49707  0.49707  0.49707  1
