CIF file written using JARVIS-Tools package.
data_LaGaO3
_symmetry_space_group_name_H-M  'Pnma'
_cell_length_a       5.5514
_cell_length_b       5.55471
_cell_length_c       7.84777
_cell_angle_alpha    90
_cell_angle_beta     90
_cell_angle_gamma    90

_symmetry_Int_Tables_number  62
_chemical_formula_structural  LaGaO3
_chemical_formula_sum  La4Ga4O2
_cell_volume  241.99690846311344
_cell_formula_units_Z  4
loop_
  _symmetry_equiv_pos_site_id
 _symmetry_equiv_pos_as_xyz
 1  'x, y, z'
loop_
 _atom_site_type_symbol
 _atom_site_label
 _atom_site_symmetry_multiplicity
 _atom_site_fract_x
 _atom_site_fract_y
 _atom_site_fract_z
 _atom_site_fract_occupancy
 Ga  Ga1  1  0.00000  0.50000  0.00000  1
 Ga  Ga2  1  0.50000  0.00000  0.00000  1
 Ga  Ga3  1  0.50000  0.00000  0.50000  1
 Ga  Ga4  1  0.00000  0.50000  0.50000  1
 La  La1  1  0.50644  0.52995  0.25000  1
 La  La2  1  0.99356  0.02995  0.25000  1
 La  La3  1  0.49356  0.47005  0.75000  1
 La  La4  1  0.00644  0.97005  0.75000  1
 O  O1  1  0.21818  0.21757  0.53931  1
 O  O2  1  0.78182  0.78243  0.03931  1
 O  O3  1  0.28182  0.71757  0.96069  1
 O  O4  1  0.28182  0.71757  0.53931  1
 O  O5  1  0.78182  0.78243  0.46069  1
 O  O6  1  0.42667  0.98763  0.25000  1
 O  O7  1  0.71818  0.28243  0.03931  1
 O  O8  1  0.71818  0.28243  0.46069  1
 O  O9  1  0.07333  0.48763  0.25000  1
 O  O10  1  0.92667  0.51237  0.75000  1
 O  O11  1  0.21818  0.21757  0.96069  1
 O  O12  1  0.57333  0.01237  0.75000  1
