CIF file written using JARVIS-Tools package.
data_Al2S3
_symmetry_space_group_name_H-M  'P6_1'
_cell_length_a       6.53841
_cell_length_b       6.53841
_cell_length_c       17.2366
_cell_angle_alpha    90
_cell_angle_beta     90
_cell_angle_gamma    120

_symmetry_Int_Tables_number  169
_chemical_formula_structural  Al2S3
_chemical_formula_sum  Al2S8
_cell_volume  638.1542604701309
_cell_formula_units_Z  6
loop_
  _symmetry_equiv_pos_site_id
 _symmetry_equiv_pos_as_xyz
 1  'x, y, z'
loop_
 _atom_site_type_symbol
 _atom_site_label
 _atom_site_symmetry_multiplicity
 _atom_site_fract_x
 _atom_site_fract_y
 _atom_site_fract_z
 _atom_site_fract_occupancy
 Al  Al1  1  0.98773  0.64803  0.54905  1
 Al  Al2  1  0.30495  0.30166  0.51744  1
 Al  Al3  1  0.99671  0.69505  0.18411  1
 Al  Al4  1  0.35197  0.33970  0.88238  1
 Al  Al5  1  0.64803  0.66030  0.38238  1
 Al  Al6  1  0.00329  0.30495  0.68411  1
 Al  Al7  1  0.69505  0.69834  0.01744  1
 Al  Al8  1  0.30166  0.99671  0.35077  1
 Al  Al9  1  0.69834  0.00329  0.85077  1
 Al  Al10  1  0.66030  0.01227  0.21572  1
 Al  Al11  1  0.01227  0.35197  0.04905  1
 Al  Al12  1  0.33970  0.98773  0.71572  1
 S  S1  1  -0.00487  0.65841  0.68155  1
 S  S2  1  0.66328  0.00487  0.34821  1
 S  S3  1  0.04845  0.71230  0.04005  1
 S  S4  1  0.66385  0.95155  0.70671  1
 S  S5  1  0.30660  0.95557  0.49593  1
 S  S6  1  0.95155  0.28770  0.54005  1
 S  S7  1  0.33672  -0.00487  0.84821  1
 S  S8  1  0.28770  0.33615  0.37338  1
 S  S9  1  0.69340  0.04443  0.99593  1
 S  S10  1  0.00487  0.34159  0.18155  1
 S  S11  1  0.95557  0.64897  0.32927  1
 S  S12  1  0.33615  0.04845  0.20671  1
 S  S13  1  0.34159  0.33672  0.01488  1
 S  S14  1  0.04443  0.35103  0.82927  1
 S  S15  1  0.71230  0.66385  0.87338  1
 S  S16  1  0.35103  0.30660  0.66260  1
 S  S17  1  0.64897  0.69340  0.16260  1
 S  S18  1  0.65841  0.66328  0.51488  1
