CIF file written using JARVIS-Tools package.
data_HfBeCd
_symmetry_space_group_name_H-M  'I4mm'
_cell_length_a       6.05796
_cell_length_b       6.05796
_cell_length_c       6.05796
_cell_angle_alpha    151.453
_cell_angle_beta     151.453
_cell_angle_gamma    40.8122

_symmetry_Int_Tables_number  107
_chemical_formula_structural  HfBeCd
_chemical_formula_sum  HfBeCd
_cell_volume  50.66389468210526
_cell_formula_units_Z  1
loop_
  _symmetry_equiv_pos_site_id
 _symmetry_equiv_pos_as_xyz
 1  'x, y, z'
loop_
 _atom_site_type_symbol
 _atom_site_label
 _atom_site_symmetry_multiplicity
 _atom_site_fract_x
 _atom_site_fract_y
 _atom_site_fract_z
 _atom_site_fract_occupancy
 Be  Be1  1  0.00027  0.00027  -0.00000  1
 Cd  Cd1  1  0.35430  0.35430  0.00000  1
 Hf  Hf1  1  0.64543  0.64543  0.00000  1
