CIF file written using JARVIS-Tools package.
data_DyPS4
_symmetry_space_group_name_H-M  'I4_1/acd'
_cell_length_a       10.6774
_cell_length_b       10.6774
_cell_length_c       12.162
_cell_angle_alpha    116.038
_cell_angle_beta     116.038
_cell_angle_gamma    90

_symmetry_Int_Tables_number  142
_chemical_formula_structural  DyPS4
_chemical_formula_sum  Dy8P8S32
_cell_volume  1087.0232078536274
_cell_formula_units_Z  8
loop_
  _symmetry_equiv_pos_site_id
 _symmetry_equiv_pos_as_xyz
 1  'x, y, z'
loop_
 _atom_site_type_symbol
 _atom_site_label
 _atom_site_symmetry_multiplicity
 _atom_site_fract_x
 _atom_site_fract_y
 _atom_site_fract_z
 _atom_site_fract_occupancy
 Dy  Dy1  1  0.12500  0.37500  0.25000  1
 Dy  Dy2  1  0.87500  0.62500  0.75000  1
 Dy  Dy3  1  0.62500  0.87500  0.25000  1
 Dy  Dy4  1  0.37500  0.62500  0.75000  1
 Dy  Dy5  1  0.62500  0.37500  0.25000  1
 Dy  Dy6  1  0.12500  0.87500  0.25000  1
 Dy  Dy7  1  0.87500  0.12500  0.75000  1
 Dy  Dy8  1  0.37500  0.12500  0.75000  1
 P  P1  1  0.25000  0.21246  0.00000  1
 P  P2  1  0.21246  0.75000  0.50000  1
 P  P3  1  0.71246  0.75000  0.50000  1
 P  P4  1  0.75000  0.28754  -0.00000  1
 P  P5  1  0.75000  0.78754  -0.00000  1
 P  P6  1  0.78754  0.25000  0.50000  1
 P  P7  1  0.28754  0.25000  0.50000  1
 P  P8  1  0.25000  0.71246  0.00000  1
 S  S1  1  0.59025  0.89203  0.00725  1
 S  S2  1  0.89203  0.41700  0.50725  1
 S  S3  1  0.61522  0.59025  0.50725  1
 S  S4  1  0.34387  0.40785  0.17879  1
 S  S5  1  0.08300  0.60797  0.99275  1
 S  S6  1  0.27095  0.34387  0.67879  1
 S  S7  1  0.15613  0.22905  0.82121  1
 S  S8  1  0.22905  0.66508  0.32121  1
 S  S9  1  0.09215  0.15613  0.32121  1
 S  S10  1  0.65613  0.59215  0.82121  1
 S  S11  1  0.72905  0.65613  0.32121  1
 S  S12  1  0.59215  0.16508  0.32121  1
 S  S13  1  0.41700  0.61522  0.00725  1
 S  S14  1  0.66508  0.09215  0.82121  1
 S  S15  1  0.88478  0.08300  0.49275  1
 S  S16  1  0.90785  0.84387  0.67879  1
 S  S17  1  0.33492  0.90785  0.17879  1
 S  S18  1  0.84387  0.77095  0.17879  1
 S  S19  1  0.77095  0.33492  0.67879  1
 S  S20  1  0.58300  0.38478  0.99275  1
 S  S21  1  0.91700  0.39203  0.00725  1
 S  S22  1  0.38478  0.40975  0.49275  1
 S  S23  1  0.40785  0.83492  0.67879  1
 S  S24  1  0.40975  0.10797  0.99275  1
 S  S25  1  0.10797  0.58300  0.49275  1
 S  S26  1  0.11522  0.91700  0.50725  1
 S  S27  1  0.39203  0.09025  0.50725  1
 S  S28  1  0.09025  0.11522  0.00725  1
 S  S29  1  0.16508  0.72905  0.82121  1
 S  S30  1  0.90975  0.88478  0.99275  1
 S  S31  1  0.60797  0.90975  0.49275  1
 S  S32  1  0.83492  0.27095  0.17879  1
