CIF file written using JARVIS-Tools package.
data_Hf3Al2
_symmetry_space_group_name_H-M  'P4_2/mnm'
_cell_length_a       6.93261
_cell_length_b       7.53793
_cell_length_c       7.53793
_cell_angle_alpha    90
_cell_angle_beta     90
_cell_angle_gamma    90

_symmetry_Int_Tables_number  136
_chemical_formula_structural  Hf3Al2
_chemical_formula_sum  Hf2Al8
_cell_volume  393.9139051330144
_cell_formula_units_Z  4
loop_
  _symmetry_equiv_pos_site_id
 _symmetry_equiv_pos_as_xyz
 1  'x, y, z'
loop_
 _atom_site_type_symbol
 _atom_site_label
 _atom_site_symmetry_multiplicity
 _atom_site_fract_x
 _atom_site_fract_y
 _atom_site_fract_z
 _atom_site_fract_occupancy
 Al  Al1  1  0.20466  0.12161  0.12161  1
 Al  Al2  1  0.70466  0.62161  0.37839  1
 Al  Al3  1  0.20466  0.87839  0.87839  1
 Al  Al4  1  0.29534  0.62161  0.37839  1
 Al  Al5  1  0.29534  0.37839  0.62161  1
 Al  Al6  1  0.79534  0.12161  0.12161  1
 Al  Al7  1  0.79534  0.87839  0.87839  1
 Al  Al8  1  0.70466  0.37839  0.62161  1
 Hf  Hf1  1  0.25000  0.50000  0.00000  1
 Hf  Hf2  1  0.00000  0.34903  0.34903  1
 Hf  Hf3  1  0.50000  0.15097  0.84903  1
 Hf  Hf4  1  0.00000  0.65097  0.65097  1
 Hf  Hf5  1  0.00000  0.20771  0.79229  1
 Hf  Hf6  1  0.50000  0.70771  0.70771  1
 Hf  Hf7  1  0.50000  0.29229  0.29229  1
 Hf  Hf8  1  0.00000  0.79229  0.20771  1
 Hf  Hf9  1  0.25000  0.00000  0.50000  1
 Hf  Hf10  1  0.75000  0.00000  0.50000  1
 Hf  Hf11  1  0.50000  0.84903  0.15097  1
 Hf  Hf12  1  0.75000  0.50000  0.00000  1
