CIF file written using JARVIS-Tools package.
data_Nd2InGe2
_symmetry_space_group_name_H-M  'P4/mbm'
_cell_length_a       4.32243
_cell_length_b       7.60638
_cell_length_c       7.60638
_cell_angle_alpha    90
_cell_angle_beta     90
_cell_angle_gamma    90

_symmetry_Int_Tables_number  127
_chemical_formula_structural  Nd2InGe2
_chemical_formula_sum  Nd4In2Ge4
_cell_volume  250.0831056877886
_cell_formula_units_Z  2
loop_
  _symmetry_equiv_pos_site_id
 _symmetry_equiv_pos_as_xyz
 1  'x, y, z'
loop_
 _atom_site_type_symbol
 _atom_site_label
 _atom_site_symmetry_multiplicity
 _atom_site_fract_x
 _atom_site_fract_y
 _atom_site_fract_z
 _atom_site_fract_occupancy
 Ge  Ge1  1  0.00000  0.11832  0.38168  1
 Ge  Ge2  1  0.00000  0.38168  0.88168  1
 Ge  Ge3  1  0.00000  0.61832  0.11832  1
 Ge  Ge4  1  0.00000  0.88168  0.61832  1
 In  In1  1  0.00000  0.00000  0.00000  1
 In  In2  1  0.00000  0.50000  0.50000  1
 Nd  Nd1  1  0.50000  0.81988  0.31988  1
 Nd  Nd2  1  0.50000  0.68012  0.81988  1
 Nd  Nd3  1  0.50000  0.31988  0.18012  1
 Nd  Nd4  1  0.50000  0.18012  0.68012  1
