CIF file written using JARVIS-Tools package.
data_BaInBr2
_symmetry_space_group_name_H-M  'P4/mmm'
_cell_length_a       4.18043
_cell_length_b       4.18043
_cell_length_c       7.60441
_cell_angle_alpha    90
_cell_angle_beta     90
_cell_angle_gamma    90

_symmetry_Int_Tables_number  123
_chemical_formula_structural  BaInBr2
_chemical_formula_sum  BaInBr2
_cell_volume  132.89458789026796
_cell_formula_units_Z  1
loop_
  _symmetry_equiv_pos_site_id
 _symmetry_equiv_pos_as_xyz
 1  'x, y, z'
loop_
 _atom_site_type_symbol
 _atom_site_label
 _atom_site_symmetry_multiplicity
 _atom_site_fract_x
 _atom_site_fract_y
 _atom_site_fract_z
 _atom_site_fract_occupancy
 Ba  Ba1  1  0.50000  0.50000  0.50000  1
 Br  Br1  1  0.00000  0.00000  0.72946  1
 Br  Br2  1  0.00000  0.00000  0.27054  1
 In  In1  1  0.50000  0.50000  0.00000  1
