CIF file written using JARVIS-Tools package.
data_YbInRh
_symmetry_space_group_name_H-M  'Pnma'
_cell_length_a       4.1651
_cell_length_b       7.14103
_cell_length_c       8.47969
_cell_angle_alpha    90
_cell_angle_beta     90
_cell_angle_gamma    90

_symmetry_Int_Tables_number  62
_chemical_formula_structural  YbInRh
_chemical_formula_sum  Yb4In4Rh4
_cell_volume  252.21250685570783
_cell_formula_units_Z  4
loop_
  _symmetry_equiv_pos_site_id
 _symmetry_equiv_pos_as_xyz
 1  'x, y, z'
loop_
 _atom_site_type_symbol
 _atom_site_label
 _atom_site_symmetry_multiplicity
 _atom_site_fract_x
 _atom_site_fract_y
 _atom_site_fract_z
 _atom_site_fract_occupancy
 In  In1  1  0.75000  0.85112  0.56325  1
 In  In2  1  0.25000  0.14888  0.43675  1
 In  In3  1  0.75000  0.35112  0.93675  1
 In  In4  1  0.25000  0.64888  0.06325  1
 Rh  Rh1  1  0.25000  0.26422  0.13221  1
 Rh  Rh2  1  0.75000  0.73578  0.86779  1
 Rh  Rh3  1  0.25000  0.76422  0.36779  1
 Rh  Rh4  1  0.75000  0.23578  0.63221  1
 Yb  Yb1  1  0.25000  0.52846  0.67587  1
 Yb  Yb2  1  0.75000  0.47154  0.32413  1
 Yb  Yb3  1  0.25000  0.02846  0.82413  1
 Yb  Yb4  1  0.75000  0.97154  0.17587  1
