CIF file written using JARVIS-Tools package.
data_K2Hg7
_symmetry_space_group_name_H-M  'P-3m1'
_cell_length_a       7.08995
_cell_length_b       7.08995
_cell_length_c       6.3155
_cell_angle_alpha    90
_cell_angle_beta     90
_cell_angle_gamma    120

_symmetry_Int_Tables_number  164
_chemical_formula_structural  K2Hg7
_chemical_formula_sum  K2Hg7
_cell_volume  274.9316613897505
_cell_formula_units_Z  1
loop_
  _symmetry_equiv_pos_site_id
 _symmetry_equiv_pos_as_xyz
 1  'x, y, z'
loop_
 _atom_site_type_symbol
 _atom_site_label
 _atom_site_symmetry_multiplicity
 _atom_site_fract_x
 _atom_site_fract_y
 _atom_site_fract_z
 _atom_site_fract_occupancy
 Hg  Hg1  1  0.18302  0.81698  0.67186  1
 Hg  Hg2  1  0.63397  0.81698  0.67186  1
 Hg  Hg3  1  0.18302  0.36603  0.67186  1
 Hg  Hg4  1  0.81698  0.18302  0.32814  1
 Hg  Hg5  1  0.81698  0.63397  0.32814  1
 Hg  Hg6  1  0.36603  0.18302  0.32814  1
 Hg  Hg7  1  0.00000  0.00000  0.00000  1
 K  K1  1  0.33333  0.66667  0.16811  1
 K  K2  1  0.66667  0.33333  0.83189  1
