CIF file written using JARVIS-Tools package.
data_MnCu2SnS4
_symmetry_space_group_name_H-M  'I-42m'
_cell_length_a       5.50071
_cell_length_b       5.50071
_cell_length_c       6.67392
_cell_angle_alpha    114.337
_cell_angle_beta     114.337
_cell_angle_gamma    90

_symmetry_Int_Tables_number  121
_chemical_formula_structural  MnCu2SnS4
_chemical_formula_sum  MnCu2SnS4
_cell_volume  164.09723442085883
_cell_formula_units_Z  1
loop_
  _symmetry_equiv_pos_site_id
 _symmetry_equiv_pos_as_xyz
 1  'x, y, z'
loop_
 _atom_site_type_symbol
 _atom_site_label
 _atom_site_symmetry_multiplicity
 _atom_site_fract_x
 _atom_site_fract_y
 _atom_site_fract_z
 _atom_site_fract_occupancy
 Cu  Cu1  1  0.75000  0.25000  0.50000  1
 Cu  Cu2  1  0.25000  0.75000  0.50000  1
 Mn  Mn1  1  0.00000  0.00000  0.00000  1
 S  S1  1  0.89243  0.89243  0.26827  1
 S  S2  1  0.37584  0.37584  0.26827  1
 S  S3  1  0.10757  0.62416  0.73173  1
 S  S4  1  0.62416  0.10757  0.73173  1
 Sn  Sn1  1  0.50000  0.50000  0.00000  1
