CIF file written using JARVIS-Tools package.
data_Ce4C2Br5
_symmetry_space_group_name_H-M  'Immm'
_cell_length_a       3.84209
_cell_length_b       8.17388
_cell_length_c       9.98838
_cell_angle_alpha    114.171
_cell_angle_beta     101.088
_cell_angle_gamma    89.9985

_symmetry_Int_Tables_number  71
_chemical_formula_structural  Ce4C2Br5
_chemical_formula_sum  Ce4C2Br5
_cell_volume  279.75208585920996
_cell_formula_units_Z  1
loop_
  _symmetry_equiv_pos_site_id
 _symmetry_equiv_pos_as_xyz
 1  'x, y, z'
loop_
 _atom_site_type_symbol
 _atom_site_label
 _atom_site_symmetry_multiplicity
 _atom_site_fract_x
 _atom_site_fract_y
 _atom_site_fract_z
 _atom_site_fract_occupancy
 Br  Br1  1  0.83517  0.61935  0.67035  1
 Br  Br2  1  0.50000  0.00000  -0.00000  1
 Br  Br3  1  0.83519  0.05086  0.67032  1
 Br  Br4  1  0.16481  0.94914  0.32968  1
 Br  Br5  1  0.16483  0.38065  0.32965  1
 C  C1  1  0.53963  0.53964  0.07926  1
 C  C2  1  0.46037  0.46036  0.92074  1
 Ce  Ce1  1  0.33175  0.33168  0.66345  1
 Ce  Ce2  1  0.66825  0.66832  0.33655  1
 Ce  Ce3  1  1.00000  0.29900  -0.00001  1
 Ce  Ce4  1  -0.00000  0.70100  1.00001  1
