CIF file written using JARVIS-Tools package.
data_Zr6Al16Pt7
_symmetry_space_group_name_H-M  'Fm-3m'
_cell_length_a       8.79437
_cell_length_b       8.79437
_cell_length_c       8.79437
_cell_angle_alpha    60
_cell_angle_beta     60
_cell_angle_gamma    60

_symmetry_Int_Tables_number  225
_chemical_formula_structural  Zr6Al16Pt7
_chemical_formula_sum  Zr6Al6Pt7
_cell_volume  480.94918740125644
_cell_formula_units_Z  1
loop_
  _symmetry_equiv_pos_site_id
 _symmetry_equiv_pos_as_xyz
 1  'x, y, z'
loop_
 _atom_site_type_symbol
 _atom_site_label
 _atom_site_symmetry_multiplicity
 _atom_site_fract_x
 _atom_site_fract_y
 _atom_site_fract_z
 _atom_site_fract_occupancy
 Al  Al1  1  0.63981  0.12006  0.12006  1
 Al  Al2  1  0.87994  0.36019  0.87994  1
 Al  Al3  1  0.66475  0.66475  0.00575  1
 Al  Al4  1  0.33525  0.33525  0.99425  1
 Al  Al5  1  0.87994  0.87994  0.87994  1
 Al  Al6  1  0.33525  0.99425  0.33525  1
 Al  Al7  1  0.12006  0.12006  0.63981  1
 Al  Al8  1  0.12006  0.12006  0.12006  1
 Al  Al9  1  0.33525  0.33525  0.33525  1
 Al  Al10  1  0.87994  0.87994  0.36019  1
 Al  Al11  1  0.12006  0.63981  0.12006  1
 Al  Al12  1  0.66475  0.66475  0.66475  1
 Al  Al13  1  0.66475  0.00575  0.66475  1
 Al  Al14  1  0.00575  0.66475  0.66475  1
 Al  Al15  1  0.99425  0.33525  0.33525  1
 Al  Al16  1  0.36019  0.87994  0.87994  1
 Pt  Pt1  1  -0.00000  0.00000  0.50000  1
 Pt  Pt2  1  0.00000  0.00000  0.00000  1
 Pt  Pt3  1  0.50000  -0.00000  0.00000  1
 Pt  Pt4  1  -0.00000  0.50000  0.00000  1
 Pt  Pt5  1  0.50000  0.00000  0.50000  1
 Pt  Pt6  1  -0.00000  0.50000  0.50000  1
 Pt  Pt7  1  0.50000  0.50000  0.00000  1
 Zr  Zr1  1  0.31460  0.68540  0.31460  1
 Zr  Zr2  1  0.68540  0.68540  0.31460  1
 Zr  Zr3  1  0.31460  0.31460  0.68540  1
 Zr  Zr4  1  0.31460  0.68540  0.68540  1
 Zr  Zr5  1  0.68540  0.31460  0.31460  1
 Zr  Zr6  1  0.68540  0.31460  0.68540  1
