CIF file written using JARVIS-Tools package.
data_Na2MgInF7
_symmetry_space_group_name_H-M  'Pnma'
_cell_length_a       7.3377
_cell_length_b       7.50526
_cell_length_c       10.2767
_cell_angle_alpha    90
_cell_angle_beta     90
_cell_angle_gamma    90

_symmetry_Int_Tables_number  62
_chemical_formula_structural  Na2MgInF7
_chemical_formula_sum  Na8Mg4In4F28
_cell_volume  565.9490359630569
_cell_formula_units_Z  4
loop_
  _symmetry_equiv_pos_site_id
 _symmetry_equiv_pos_as_xyz
 1  'x, y, z'
loop_
 _atom_site_type_symbol
 _atom_site_label
 _atom_site_symmetry_multiplicity
 _atom_site_fract_x
 _atom_site_fract_y
 _atom_site_fract_z
 _atom_site_fract_occupancy
 F  F1  1  0.75000  0.51648  0.34917  1
 F  F2  1  0.94586  0.29314  0.88464  1
 F  F3  1  0.55414  0.20686  0.38464  1
 F  F4  1  0.05414  0.79314  0.61536  1
 F  F5  1  0.55414  0.29314  0.88464  1
 F  F6  1  0.05414  0.70686  0.11536  1
 F  F7  1  0.44586  0.79314  0.61536  1
 F  F8  1  0.94586  0.20686  0.38464  1
 F  F9  1  0.49252  0.32445  0.14464  1
 F  F10  1  0.25000  0.96219  0.85969  1
 F  F11  1  0.25000  0.01648  0.15083  1
 F  F12  1  0.00748  0.17555  0.64464  1
 F  F13  1  0.50748  0.67555  0.85536  1
 F  F14  1  0.00748  0.32445  0.14464  1
 F  F15  1  0.49252  0.17555  0.64464  1
 F  F16  1  -0.00748  0.82445  0.35536  1
 F  F17  1  0.25000  0.53781  0.35969  1
 F  F18  1  0.75000  0.46219  0.64031  1
 F  F19  1  0.75000  0.03781  0.14031  1
 F  F20  1  -0.00748  0.67555  0.85536  1
 F  F21  1  0.44586  0.70686  0.11536  1
 F  F22  1  0.75000  -0.01648  0.84917  1
 F  F23  1  0.25000  0.48352  0.65083  1
 F  F24  1  0.25000  0.02956  0.44092  1
 F  F25  1  0.75000  0.97044  0.55908  1
 F  F26  1  0.75000  0.52956  0.05908  1
 F  F27  1  0.25000  0.47044  0.94092  1
 F  F28  1  0.50748  0.82445  0.35536  1
 In  In1  1  0.75000  0.28303  0.23959  1
 In  In2  1  0.75000  0.21697  0.73959  1
 In  In3  1  0.25000  0.78303  0.26041  1
 In  In4  1  0.25000  0.71697  0.76041  1
 Mg  Mg1  1  0.00000  0.50000  0.00000  1
 Mg  Mg2  1  0.50000  0.50000  0.00000  1
 Mg  Mg3  1  0.50000  0.00000  0.50000  1
 Mg  Mg4  1  0.00000  0.00000  0.50000  1
 Na  Na1  1  0.50000  0.50000  0.50000  1
 Na  Na2  1  0.00000  0.50000  0.50000  1
 Na  Na3  1  0.25000  0.24423  0.77789  1
 Na  Na4  1  0.75000  0.75577  0.22211  1
 Na  Na5  1  0.75000  0.74423  0.72211  1
 Na  Na6  1  0.50000  0.00000  0.00000  1
 Na  Na7  1  0.00000  0.00000  0.00000  1
 Na  Na8  1  0.25000  0.25577  0.27789  1
