CIF file written using JARVIS-Tools package.
data_K4CO4
_symmetry_space_group_name_H-M  'P-43m'
_cell_length_a       5.26056
_cell_length_b       5.26057
_cell_length_c       5.26054
_cell_angle_alpha    89.9515
_cell_angle_beta     89.9509
_cell_angle_gamma    89.9517

_symmetry_Int_Tables_number  215
_chemical_formula_structural  K4CO4
_chemical_formula_sum  K4CO4
_cell_volume  145.5773065845663
_cell_formula_units_Z  1
loop_
  _symmetry_equiv_pos_site_id
 _symmetry_equiv_pos_as_xyz
 1  'x, y, z'
loop_
 _atom_site_type_symbol
 _atom_site_label
 _atom_site_symmetry_multiplicity
 _atom_site_fract_x
 _atom_site_fract_y
 _atom_site_fract_z
 _atom_site_fract_occupancy
 C  C1  1  0.08969  0.08969  0.08969  1
 K  K1  1  0.80269  0.37733  0.37733  1
 K  K2  1  0.37732  0.80269  0.37733  1
 K  K3  1  0.37733  0.37733  0.80269  1
 K  K4  1  0.80251  0.80251  0.80251  1
 O  O1  1  0.24891  0.93063  0.93063  1
 O  O2  1  0.24863  0.24863  0.24863  1
 O  O3  1  0.93063  0.24891  0.93063  1
 O  O4  1  0.93063  0.93063  0.24891  1
