CIF file written using JARVIS-Tools package.
data_CdPdC6N6
_symmetry_space_group_name_H-M  'Fm-3m'
_cell_length_a       7.79035
_cell_length_b       7.79036
_cell_length_c       7.79035
_cell_angle_alpha    60
_cell_angle_beta     60.0001
_cell_angle_gamma    59.9999

_symmetry_Int_Tables_number  225
_chemical_formula_structural  CdPdC6N6
_chemical_formula_sum  CdPdC6N6
_cell_volume  334.31527049705477
_cell_formula_units_Z  1
loop_
  _symmetry_equiv_pos_site_id
 _symmetry_equiv_pos_as_xyz
 1  'x, y, z'
loop_
 _atom_site_type_symbol
 _atom_site_label
 _atom_site_symmetry_multiplicity
 _atom_site_fract_x
 _atom_site_fract_y
 _atom_site_fract_z
 _atom_site_fract_occupancy
 C  C1  1  0.31746  0.68254  0.31746  1
 C  C2  1  0.31746  0.68254  0.68254  1
 C  C3  1  0.68254  0.31746  0.31746  1
 C  C4  1  0.31746  0.31746  0.68254  1
 C  C5  1  0.68254  0.68254  0.31746  1
 C  C6  1  0.68254  0.31746  0.68254  1
 Cd  Cd1  1  0.00000  0.00000  0.00000  1
 N  N1  1  0.78782  0.78782  0.21218  1
 N  N2  1  0.78782  0.21218  0.78782  1
 N  N3  1  0.21218  0.78782  0.78782  1
 N  N4  1  0.78782  0.21218  0.21218  1
 N  N5  1  0.21218  0.78782  0.21218  1
 N  N6  1  0.21218  0.21218  0.78782  1
 Pd  Pd1  1  0.50000  0.50000  0.50000  1
