CIF file written using JARVIS-Tools package.
data_SrCd11
_symmetry_space_group_name_H-M  'I4_1/amd'
_cell_length_a       7.82055
_cell_length_b       9.40629
_cell_length_c       9.40629
_cell_angle_alpha    80.0485
_cell_angle_beta     65.436
_cell_angle_gamma    65.436

_symmetry_Int_Tables_number  141
_chemical_formula_structural  SrCd11
_chemical_formula_sum  Sr2Cd22
_cell_volume  572.3711853048313
_cell_formula_units_Z  2
loop_
  _symmetry_equiv_pos_site_id
 _symmetry_equiv_pos_as_xyz
 1  'x, y, z'
loop_
 _atom_site_type_symbol
 _atom_site_label
 _atom_site_symmetry_multiplicity
 _atom_site_fract_x
 _atom_site_fract_y
 _atom_site_fract_z
 _atom_site_fract_occupancy
 Cd  Cd1  1  0.55076  0.57200  0.66857  1
 Cd  Cd2  1  0.71933  0.83143  0.57200  1
 Cd  Cd3  1  0.00000  0.00000  0.00000  1
 Cd  Cd4  1  0.20866  0.07200  0.16857  1
 Cd  Cd5  1  0.12277  0.42800  0.16857  1
 Cd  Cd6  1  0.20866  0.66857  0.57200  1
 Cd  Cd7  1  0.87723  0.57200  0.83143  1
 Cd  Cd8  1  0.12277  0.66857  0.92800  1
 Cd  Cd9  1  0.12500  0.75000  0.25000  1
 Cd  Cd10  1  0.87723  0.33143  0.07200  1
 Cd  Cd11  1  0.87500  0.25000  0.75000  1
 Cd  Cd12  1  0.00000  0.50000  0.50000  1
 Cd  Cd13  1  0.50000  0.50000  0.00000  1
 Cd  Cd14  1  0.28067  0.16857  0.42800  1
 Cd  Cd15  1  0.79134  0.33143  0.42800  1
 Cd  Cd16  1  0.71933  0.07200  0.33143  1
 Cd  Cd17  1  0.44924  0.42800  0.33143  1
 Cd  Cd18  1  0.55076  0.16857  0.07200  1
 Cd  Cd19  1  0.28067  0.92800  0.66857  1
 Cd  Cd20  1  0.79134  0.92800  0.83143  1
 Cd  Cd21  1  0.44924  0.83143  0.92800  1
 Cd  Cd22  1  0.00000  0.00000  0.50000  1
 Sr  Sr1  1  0.62500  0.75000  0.25000  1
 Sr  Sr2  1  0.37500  0.25000  0.75000  1
