CIF file written using JARVIS-Tools package.
data_BaCdS2
_symmetry_space_group_name_H-M  'Pnma'
_cell_length_a       4.20678
_cell_length_b       7.325
_cell_length_c       14.0764
_cell_angle_alpha    90
_cell_angle_beta     90
_cell_angle_gamma    90

_symmetry_Int_Tables_number  62
_chemical_formula_structural  BaCdS2
_chemical_formula_sum  Ba4Cd4S8
_cell_volume  433.75897624724973
_cell_formula_units_Z  4
loop_
  _symmetry_equiv_pos_site_id
 _symmetry_equiv_pos_as_xyz
 1  'x, y, z'
loop_
 _atom_site_type_symbol
 _atom_site_label
 _atom_site_symmetry_multiplicity
 _atom_site_fract_x
 _atom_site_fract_y
 _atom_site_fract_z
 _atom_site_fract_occupancy
 Ba  Ba1  1  0.75000  0.63419  0.14258  1
 Ba  Ba2  1  0.25000  0.36581  0.85742  1
 Ba  Ba3  1  0.75000  0.13419  0.35742  1
 Ba  Ba4  1  0.25000  0.86581  0.64258  1
 Cd  Cd1  1  0.75000  0.87708  0.89160  1
 Cd  Cd2  1  0.75000  0.37708  0.60840  1
 Cd  Cd3  1  0.25000  0.12292  0.10840  1
 Cd  Cd4  1  0.25000  0.62292  0.39160  1
 S  S1  1  0.75000  0.74268  0.47537  1
 S  S2  1  0.25000  0.25732  0.52463  1
 S  S3  1  0.75000  0.24268  0.02463  1
 S  S4  1  0.25000  0.75732  0.97537  1
 S  S5  1  0.25000  0.89720  0.24230  1
 S  S6  1  0.75000  0.60280  0.74230  1
 S  S7  1  0.25000  0.39720  0.25770  1
 S  S8  1  0.75000  0.10280  0.75770  1
