CIF file written using JARVIS-Tools package.
data_Rh3S4
_symmetry_space_group_name_H-M  'C2/m'
_cell_length_a       6.30296
_cell_length_b       7.5668
_cell_length_c       7.5668
_cell_angle_alpha    92.1097
_cell_angle_beta     102.392
_cell_angle_gamma    102.392

_symmetry_Int_Tables_number  12
_chemical_formula_structural  Rh3S4
_chemical_formula_sum  Rh9S2
_cell_volume  342.96466941684304
_cell_formula_units_Z  3
loop_
  _symmetry_equiv_pos_site_id
 _symmetry_equiv_pos_as_xyz
 1  'x, y, z'
loop_
 _atom_site_type_symbol
 _atom_site_label
 _atom_site_symmetry_multiplicity
 _atom_site_fract_x
 _atom_site_fract_y
 _atom_site_fract_z
 _atom_site_fract_occupancy
 Rh  Rh1  1  0.54850  0.49071  0.78279  1
 Rh  Rh2  1  0.45150  0.50929  0.21721  1
 Rh  Rh3  1  0.54850  0.78279  0.49071  1
 Rh  Rh4  1  0.94516  0.64964  0.64964  1
 Rh  Rh5  1  0.05484  0.35036  0.35036  1
 Rh  Rh6  1  0.50000  0.00000  0.00000  1
 Rh  Rh7  1  -0.00000  0.83924  0.16076  1
 Rh  Rh8  1  -0.00000  0.16076  0.83924  1
 Rh  Rh9  1  0.45150  0.21721  0.50929  1
 S  S1  1  0.10151  0.56058  0.14270  1
 S  S2  1  0.10151  0.14270  0.56058  1
 S  S3  1  0.89849  0.43942  0.85730  1
 S  S4  1  0.88962  0.11792  0.11792  1
 S  S5  1  0.11038  0.88208  0.88208  1
 S  S6  1  0.89849  0.85730  0.43942  1
 S  S7  1  0.38680  0.28430  0.96850  1
 S  S8  1  0.38680  0.96850  0.28430  1
 S  S9  1  0.27180  0.58475  0.58475  1
 S  S10  1  0.61320  0.71570  0.03150  1
 S  S11  1  0.61320  0.03150  0.71570  1
 S  S12  1  0.72820  0.41525  0.41525  1
