CIF file written using JARVIS-Tools package.
data_EuSn
_symmetry_space_group_name_H-M  'Cmcm'
_cell_length_a       4.34012
_cell_length_b       4.54685
_cell_length_c       6.1996
_cell_angle_alpha    111.513
_cell_angle_beta     90
_cell_angle_gamma    90

_symmetry_Int_Tables_number  63
_chemical_formula_structural  EuSn
_chemical_formula_sum  Eu2Sn2
_cell_volume  113.819714276784
_cell_formula_units_Z  2
loop_
  _symmetry_equiv_pos_site_id
 _symmetry_equiv_pos_as_xyz
 1  'x, y, z'
loop_
 _atom_site_type_symbol
 _atom_site_label
 _atom_site_symmetry_multiplicity
 _atom_site_fract_x
 _atom_site_fract_y
 _atom_site_fract_z
 _atom_site_fract_occupancy
 Eu  Eu1  1  0.75000  0.13437  0.26874  1
 Eu  Eu2  1  0.25000  0.86563  0.73126  1
 Sn  Sn1  1  0.25000  0.59333  0.18667  1
 Sn  Sn2  1  0.75000  0.40667  0.81333  1
