CIF file written using JARVIS-Tools package.
data_CoP3NO9
_symmetry_space_group_name_H-M  'Pbcm'
_cell_length_a       4.84513
_cell_length_b       11.6128
_cell_length_c       12.7877
_cell_angle_alpha    90
_cell_angle_beta     90
_cell_angle_gamma    90

_symmetry_Int_Tables_number  57
_chemical_formula_structural  CoP3NO9
_chemical_formula_sum  Co4P2N4O36
_cell_volume  719.5092013775152
_cell_formula_units_Z  4
loop_
  _symmetry_equiv_pos_site_id
 _symmetry_equiv_pos_as_xyz
 1  'x, y, z'
loop_
 _atom_site_type_symbol
 _atom_site_label
 _atom_site_symmetry_multiplicity
 _atom_site_fract_x
 _atom_site_fract_y
 _atom_site_fract_z
 _atom_site_fract_occupancy
 Co  Co1  1  0.00000  0.50000  0.50000  1
 Co  Co2  1  0.00000  0.50000  0.00000  1
 Co  Co3  1  0.00000  0.00000  0.50000  1
 Co  Co4  1  0.00000  0.00000  0.00000  1
 N  N1  1  0.12186  0.30303  0.75000  1
 N  N2  1  0.87814  0.69697  0.25000  1
 N  N3  1  0.12186  0.19697  0.25000  1
 N  N4  1  0.87814  0.80303  0.75000  1
 O  O1  1  0.32645  0.48732  0.91672  1
 O  O2  1  0.92343  0.15155  0.04644  1
 O  O3  1  0.55775  0.20438  0.58838  1
 O  O4  1  0.44225  0.79562  0.08838  1
 O  O5  1  0.55775  0.29562  0.41162  1
 O  O6  1  0.43316  0.90507  0.25000  1
 O  O7  1  0.56684  0.09493  0.75000  1
 O  O8  1  0.81909  0.94291  0.12340  1
 O  O9  1  0.55775  0.29562  0.08838  1
 O  O10  1  0.44225  0.70438  0.91162  1
 O  O11  1  0.44225  0.79562  0.41162  1
 O  O12  1  0.55775  0.20438  0.91162  1
 O  O13  1  0.44225  0.70438  0.58838  1
 O  O14  1  0.56684  0.40507  0.25000  1
 O  O15  1  0.92343  0.34845  0.54644  1
 O  O16  1  0.07657  0.65155  0.04644  1
 O  O17  1  0.92343  0.15155  0.45356  1
 O  O18  1  0.07657  0.84845  0.95356  1
 O  O19  1  0.07657  0.65155  0.45356  1
 O  O20  1  0.92343  0.34845  0.95356  1
 O  O21  1  0.07657  0.84845  0.54644  1
 O  O22  1  0.67355  0.51268  0.08328  1
 O  O23  1  0.32645  0.48732  0.58328  1
 O  O24  1  0.32645  0.01268  0.08328  1
 O  O25  1  0.32645  0.01268  0.41672  1
 O  O26  1  0.67355  0.98732  0.91672  1
 O  O27  1  0.18091  0.44291  0.37660  1
 O  O28  1  0.81909  0.55709  0.87660  1
 O  O29  1  0.81909  0.94291  0.37660  1
 O  O30  1  0.18091  0.05709  0.87660  1
 O  O31  1  0.43316  0.59493  0.75000  1
 O  O32  1  0.18091  0.44291  0.12340  1
 O  O33  1  0.67355  0.98732  0.58328  1
 O  O34  1  0.18091  0.05709  0.62340  1
 O  O35  1  0.67355  0.51268  0.41672  1
 O  O36  1  0.81909  0.55709  0.62340  1
 P  P1  1  0.51200  0.57752  0.63064  1
 P  P2  1  0.48800  0.07752  0.86936  1
 P  P3  1  0.51200  0.92248  0.36936  1
 P  P4  1  0.51200  0.57752  0.86936  1
 P  P5  1  0.48800  0.42248  0.36936  1
 P  P6  1  0.48800  0.42248  0.13064  1
 P  P7  1  0.76434  0.25000  0.00000  1
 P  P8  1  0.23566  0.75000  0.50000  1
 P  P9  1  0.23566  0.75000  0.00000  1
 P  P10  1  0.51200  0.92248  0.13064  1
 P  P11  1  0.48800  0.07752  0.63064  1
 P  P12  1  0.76434  0.25000  0.50000  1
