CIF file written using JARVIS-Tools package.
data_Tl2CdGeTe4
_symmetry_space_group_name_H-M  'I-42m'
_cell_length_a       7.00852
_cell_length_b       7.0085
_cell_length_c       7.00852
_cell_angle_alpha    105.189
_cell_angle_beta     105.19
_cell_angle_gamma    118.423

_symmetry_Int_Tables_number  121
_chemical_formula_structural  Tl2CdGeTe4
_chemical_formula_sum  Tl2CdGeTe4
_cell_volume  260.08618437670634
_cell_formula_units_Z  1
loop_
  _symmetry_equiv_pos_site_id
 _symmetry_equiv_pos_as_xyz
 1  'x, y, z'
loop_
 _atom_site_type_symbol
 _atom_site_label
 _atom_site_symmetry_multiplicity
 _atom_site_fract_x
 _atom_site_fract_y
 _atom_site_fract_z
 _atom_site_fract_occupancy
 Cd  Cd1  1  0.50000  0.50000  -0.00000  1
 Ge  Ge1  1  -0.00000  -0.00000  -0.00000  1
 Te  Te1  1  0.94941  0.94941  0.35085  1
 Te  Te2  1  0.59856  0.59856  0.64915  1
 Te  Te3  1  0.40144  0.05059  0.00000  1
 Te  Te4  1  0.05059  0.40144  0.00000  1
 Tl  Tl1  1  -0.00000  0.50000  0.50000  1
 Tl  Tl2  1  0.50000  0.00000  0.50000  1
