CIF file written using JARVIS-Tools package.
data_BMo2C
_symmetry_space_group_name_H-M  'Cmcm'
_cell_length_a       3.07275
_cell_length_b       3.11345
_cell_length_c       8.91597
_cell_angle_alpha    100.055
_cell_angle_beta     90
_cell_angle_gamma    90

_symmetry_Int_Tables_number  63
_chemical_formula_structural  BMo2C
_chemical_formula_sum  B2Mo4C2
_cell_volume  83.987562441954
_cell_formula_units_Z  2
loop_
  _symmetry_equiv_pos_site_id
 _symmetry_equiv_pos_as_xyz
 1  'x, y, z'
loop_
 _atom_site_type_symbol
 _atom_site_label
 _atom_site_symmetry_multiplicity
 _atom_site_fract_x
 _atom_site_fract_y
 _atom_site_fract_z
 _atom_site_fract_occupancy
 B  B1  1  0.75000  0.47242  0.94485  1
 B  B2  1  0.25000  0.52758  0.05515  1
 C  C1  1  0.75000  0.19144  0.38289  1
 C  C2  1  0.25000  0.80856  0.61711  1
 Mo  Mo1  1  0.25000  0.68522  0.37043  1
 Mo  Mo2  1  0.75000  0.31478  0.62957  1
 Mo  Mo3  1  0.25000  0.92774  0.85548  1
 Mo  Mo4  1  0.75000  0.07226  0.14452  1
