CIF file written using JARVIS-Tools package.
data_Ba4Zr3S10
_symmetry_space_group_name_H-M  'I4/mmm'
_cell_length_a       5.02107
_cell_length_b       5.02107
_cell_length_c       18.2438
_cell_angle_alpha    97.9095
_cell_angle_beta     97.9095
_cell_angle_gamma    90.0005

_symmetry_Int_Tables_number  139
_chemical_formula_structural  Ba4Zr3S10
_chemical_formula_sum  Ba4Zr3S0
_cell_volume  451.1533390938213
_cell_formula_units_Z  1
loop_
  _symmetry_equiv_pos_site_id
 _symmetry_equiv_pos_as_xyz
 1  'x, y, z'
loop_
 _atom_site_type_symbol
 _atom_site_label
 _atom_site_symmetry_multiplicity
 _atom_site_fract_x
 _atom_site_fract_y
 _atom_site_fract_z
 _atom_site_fract_occupancy
 Ba  Ba1  1  0.69988  0.69988  0.39976  1
 Ba  Ba2  1  0.56771  0.56771  0.13541  1
 Ba  Ba3  1  0.43229  0.43229  0.86459  1
 Ba  Ba4  1  0.30012  0.30012  0.60024  1
 S  S1  1  0.63902  0.13902  0.27804  1
 S  S2  1  0.13902  0.63902  0.27804  1
 S  S3  1  0.36098  0.86098  0.72196  1
 S  S4  1  -0.00000  0.50000  0.00000  1
 S  S5  1  0.50000  0.00000  -0.00000  1
 S  S6  1  0.86098  0.36098  0.72196  1
 S  S7  1  0.92953  0.92953  0.85907  1
 S  S8  1  0.78687  0.78687  0.57375  1
 S  S9  1  0.21313  0.21313  0.42625  1
 S  S10  1  0.07047  0.07047  0.14093  1
 Zr  Zr1  1  0.00000  0.00000  0.00000  1
 Zr  Zr2  1  0.85713  0.85713  0.71425  1
 Zr  Zr3  1  0.14287  0.14287  0.28575  1
