CIF file written using JARVIS-Tools package.
data_Te2W
_symmetry_space_group_name_H-M  'P-6m2'
_cell_length_a       3.56631
_cell_length_b       3.5669
_cell_length_c       17.516
_cell_angle_alpha    89.9997
_cell_angle_beta     89.9999
_cell_angle_gamma    119.994

_symmetry_Int_Tables_number  187
_chemical_formula_structural  Te2W
_chemical_formula_sum  Te2W
_cell_volume  192.97600886788396
_cell_formula_units_Z  1
loop_
  _symmetry_equiv_pos_site_id
 _symmetry_equiv_pos_as_xyz
 1  'x, y, z'
loop_
 _atom_site_type_symbol
 _atom_site_label
 _atom_site_symmetry_multiplicity
 _atom_site_fract_x
 _atom_site_fract_y
 _atom_site_fract_z
 _atom_site_fract_occupancy
 Te  Te1  1  0.66662  0.33323  0.11153  1
 Te  Te2  1  0.66661  0.33323  0.31893  1
 W  W1  1  0.33337  0.66674  0.21526  1
