CIF file written using JARVIS-Tools package.
data_Rb3V2Br9
_symmetry_space_group_name_H-M  'P6_3/mmc'
_cell_length_a       7.35794
_cell_length_b       7.35794
_cell_length_c       18.3235
_cell_angle_alpha    90
_cell_angle_beta     90
_cell_angle_gamma    120

_symmetry_Int_Tables_number  194
_chemical_formula_structural  Rb3V2Br9
_chemical_formula_sum  Rb6V4Br8
_cell_volume  859.1120001634631
_cell_formula_units_Z  2
loop_
  _symmetry_equiv_pos_site_id
 _symmetry_equiv_pos_as_xyz
 1  'x, y, z'
loop_
 _atom_site_type_symbol
 _atom_site_label
 _atom_site_symmetry_multiplicity
 _atom_site_fract_x
 _atom_site_fract_y
 _atom_site_fract_z
 _atom_site_fract_occupancy
 Br  Br1  1  0.16984  0.83016  0.91209  1
 Br  Br2  1  0.83016  0.66033  0.41209  1
 Br  Br3  1  0.16984  0.83016  0.58791  1
 Br  Br4  1  0.66033  0.83016  0.58791  1
 Br  Br5  1  0.50459  0.00919  0.25000  1
 Br  Br6  1  0.33967  0.16984  0.41209  1
 Br  Br7  1  0.16984  0.33967  0.91209  1
 Br  Br8  1  0.00919  0.50459  0.75000  1
 Br  Br9  1  0.83016  0.16984  0.41209  1
 Br  Br10  1  0.83016  0.66033  0.08791  1
 Br  Br11  1  0.49541  0.99081  0.75000  1
 Br  Br12  1  0.50459  0.49541  0.25000  1
 Br  Br13  1  0.49541  0.50459  0.75000  1
 Br  Br14  1  0.83016  0.16984  0.08791  1
 Br  Br15  1  0.33967  0.16984  0.08791  1
 Br  Br16  1  0.99081  0.49541  0.25000  1
 Br  Br17  1  0.16984  0.33967  0.58791  1
 Br  Br18  1  0.66033  0.83016  0.91209  1
 Rb  Rb1  1  0.00000  0.00000  0.75000  1
 Rb  Rb2  1  0.00000  0.00000  0.25000  1
 Rb  Rb3  1  0.66667  0.33333  0.92747  1
 Rb  Rb4  1  0.33333  0.66667  0.42747  1
 Rb  Rb5  1  0.33333  0.66667  0.07253  1
 Rb  Rb6  1  0.66667  0.33333  0.57253  1
 V  V1  1  0.66667  0.33333  0.33867  1
 V  V2  1  0.33333  0.66667  0.66133  1
 V  V3  1  0.33333  0.66667  0.83867  1
 V  V4  1  0.66667  0.33333  0.16133  1
