CIF file written using JARVIS-Tools package.
data_KB5H8O12
_symmetry_space_group_name_H-M  'Aea2'
_cell_length_a       11.0071
_cell_length_b       7.10479
_cell_length_c       7.10479
_cell_angle_alpha    104.046
_cell_angle_beta     90
_cell_angle_gamma    90

_symmetry_Int_Tables_number  41
_chemical_formula_structural  KB5H8O12
_chemical_formula_sum  K2B0H6O24
_cell_volume  539.0054929019748
_cell_formula_units_Z  2
loop_
  _symmetry_equiv_pos_site_id
 _symmetry_equiv_pos_as_xyz
 1  'x, y, z'
loop_
 _atom_site_type_symbol
 _atom_site_label
 _atom_site_symmetry_multiplicity
 _atom_site_fract_x
 _atom_site_fract_y
 _atom_site_fract_z
 _atom_site_fract_occupancy
 B  B1  1  0.69163  0.70379  0.89333  1
 B  B2  1  0.20698  0.43390  0.54783  1
 B  B3  1  0.79302  0.54783  0.43390  1
 B  B4  1  0.70698  0.04783  0.93390  1
 B  B5  1  0.19163  0.39333  0.20379  1
 B  B6  1  0.29302  0.93390  0.04783  1
 B  B7  1  0.30837  0.89333  0.70379  1
 B  B8  1  0.00000  0.39399  0.39399  1
 B  B9  1  0.50000  0.89399  0.89399  1
 B  B10  1  0.80837  0.20379  0.39333  1
 H  H1  1  0.02413  0.50916  0.79931  1
 H  H2  1  0.52413  0.29931  0.00916  1
 H  H3  1  0.51193  0.52224  0.00198  1
 H  H4  1  0.24765  0.94389  0.32464  1
 H  H5  1  0.98807  0.02224  0.50198  1
 H  H6  1  0.47587  0.00916  0.29931  1
 H  H7  1  0.65804  0.05002  0.39568  1
 H  H8  1  0.34196  0.39568  0.05002  1
 H  H9  1  0.15804  0.89568  0.55002  1
 H  H10  1  0.75235  0.32464  0.94389  1
 H  H11  1  0.74765  0.82464  0.44389  1
 H  H12  1  0.25235  0.44389  0.82464  1
 H  H13  1  0.01193  0.50198  0.02224  1
 H  H14  1  0.97587  0.79931  0.50916  1
 H  H15  1  0.84196  0.55002  0.89568  1
 H  H16  1  0.48807  0.00198  0.52224  1
 K  K1  1  0.50000  0.48736  0.48736  1
 K  K2  1  0.00000  0.98736  0.98736  1
 O  O1  1  0.98566  0.57293  0.92541  1
 O  O2  1  0.56772  0.71002  0.88034  1
 O  O3  1  0.43228  0.88034  0.71002  1
 O  O4  1  0.93228  0.21002  0.38034  1
 O  O5  1  0.06772  0.38034  0.21002  1
 O  O6  1  0.58332  0.06283  0.92303  1
 O  O7  1  0.41668  0.92303  0.06283  1
 O  O8  1  0.91668  0.56283  0.42303  1
 O  O9  1  0.76211  0.86927  0.91993  1
 O  O10  1  0.23789  0.91993  0.86927  1
 O  O11  1  0.73789  0.36927  0.41993  1
 O  O12  1  0.08332  0.42303  0.56283  1
 O  O13  1  0.21447  0.96196  0.20011  1
 O  O14  1  0.48566  0.42541  0.07293  1
 O  O15  1  0.51434  0.07293  0.42541  1
 O  O16  1  0.75041  0.53158  0.88044  1
 O  O17  1  0.71447  0.70011  0.46196  1
 O  O18  1  0.28553  0.46196  0.70011  1
 O  O19  1  0.78553  0.20011  0.96196  1
 O  O20  1  0.25041  0.38044  0.03158  1
 O  O21  1  0.74959  0.03158  0.38044  1
 O  O22  1  0.24959  0.88044  0.53158  1
 O  O23  1  0.26211  0.41993  0.36927  1
 O  O24  1  0.01434  0.92541  0.57293  1
