CIF file written using JARVIS-Tools package.
data_SiO2
_symmetry_space_group_name_H-M  'I432'
_cell_length_a       9.24003
_cell_length_b       9.24003
_cell_length_c       9.24003
_cell_angle_alpha    109.471
_cell_angle_beta     109.471
_cell_angle_gamma    109.471

_symmetry_Int_Tables_number  211
_chemical_formula_structural  SiO2
_chemical_formula_sum  Si2O24
_cell_volume  607.2920024421787
_cell_formula_units_Z  12
loop_
  _symmetry_equiv_pos_site_id
 _symmetry_equiv_pos_as_xyz
 1  'x, y, z'
loop_
 _atom_site_type_symbol
 _atom_site_label
 _atom_site_symmetry_multiplicity
 _atom_site_fract_x
 _atom_site_fract_y
 _atom_site_fract_z
 _atom_site_fract_occupancy
 O  O1  1  0.91245  0.08755  0.50000  1
 O  O2  1  0.82490  0.41245  0.91245  1
 O  O3  1  0.73766  0.36883  0.36883  1
 O  O4  1  0.63117  0.36883  -0.00000  1
 O  O5  1  0.08755  0.50000  0.91245  1
 O  O6  1  0.00000  0.36883  0.63117  1
 O  O7  1  0.41245  0.50000  0.58755  1
 O  O8  1  0.50000  0.58755  0.41245  1
 O  O9  1  0.58755  0.17510  0.08755  1
 O  O10  1  0.63117  0.63117  0.26234  1
 O  O11  1  0.08755  0.58755  0.17510  1
 O  O12  1  0.36883  0.36883  0.73766  1
 O  O13  1  0.63117  0.26234  0.63117  1
 O  O14  1  0.91245  0.82490  0.41245  1
 O  O15  1  0.41245  0.91245  0.82490  1
 O  O16  1  0.58755  0.41245  0.50000  1
 O  O17  1  0.36883  0.73766  0.36883  1
 O  O18  1  0.36883  0.00000  0.63117  1
 O  O19  1  -0.00000  0.63117  0.36883  1
 O  O20  1  0.63117  -0.00000  0.36883  1
 O  O21  1  0.50000  0.91245  0.08755  1
 O  O22  1  0.36883  0.63117  0.00000  1
 O  O23  1  0.26234  0.63117  0.63117  1
 O  O24  1  0.17510  0.08755  0.58755  1
 Si  Si1  1  0.62462  0.50000  0.37538  1
 Si  Si2  1  0.87538  0.50000  0.12462  1
 Si  Si3  1  0.87538  0.37538  0.75076  1
 Si  Si4  1  0.62462  0.12462  0.24924  1
 Si  Si5  1  0.12462  0.87538  0.50000  1
 Si  Si6  1  0.75076  0.87538  0.37538  1
 Si  Si7  1  0.50000  0.37538  0.62462  1
 Si  Si8  1  0.37538  0.75076  0.87538  1
 Si  Si9  1  0.12462  0.24924  0.62462  1
 Si  Si10  1  0.37538  0.62462  0.50000  1
 Si  Si11  1  0.50000  0.12462  0.87538  1
 Si  Si12  1  0.24924  0.62462  0.12462  1
