CIF file written using JARVIS-Tools package.
data_Fe3Pt
_symmetry_space_group_name_H-M  'Pm-3m'
_cell_length_a       5.08928
_cell_length_b       5.08928
_cell_length_c       5.08929
_cell_angle_alpha    90.0073
_cell_angle_beta     119.996
_cell_angle_gamma    119.996

_symmetry_Int_Tables_number  221
_chemical_formula_structural  Fe3Pt
_chemical_formula_sum  Fe6Pt2
_cell_volume  93.21412090924125
_cell_formula_units_Z  2
loop_
  _symmetry_equiv_pos_site_id
 _symmetry_equiv_pos_as_xyz
 1  'x, y, z'
loop_
 _atom_site_type_symbol
 _atom_site_label
 _atom_site_symmetry_multiplicity
 _atom_site_fract_x
 _atom_site_fract_y
 _atom_site_fract_z
 _atom_site_fract_occupancy
 Fe  Fe1  1  0.50001  0.25001  0.25001  1
 Fe  Fe2  1  0.00000  0.25001  0.74999  1
 Fe  Fe3  1  -0.00000  0.75001  0.75001  1
 Fe  Fe4  1  0.00000  0.24999  0.24999  1
 Fe  Fe5  1  0.49999  0.74999  0.74999  1
 Fe  Fe6  1  -0.00000  0.74999  0.25001  1
 Pt  Pt1  1  0.50000  0.25000  0.75000  1
 Pt  Pt2  1  0.50000  0.75000  0.25000  1
