CIF file written using JARVIS-Tools package.
data_LiAsSe2
_symmetry_space_group_name_H-M  'Cc'
_cell_length_a       5.529
_cell_length_b       5.58909
_cell_length_c       6.80924
_cell_angle_alpha    110.858
_cell_angle_beta     113.954
_cell_angle_gamma    90.0003

_symmetry_Int_Tables_number  9
_chemical_formula_structural  LiAsSe2
_chemical_formula_sum  Li2As2Se4
_cell_volume  177.10146375314363
_cell_formula_units_Z  2
loop_
  _symmetry_equiv_pos_site_id
 _symmetry_equiv_pos_as_xyz
 1  'x, y, z'
loop_
 _atom_site_type_symbol
 _atom_site_label
 _atom_site_symmetry_multiplicity
 _atom_site_fract_x
 _atom_site_fract_y
 _atom_site_fract_z
 _atom_site_fract_occupancy
 As  As1  1  0.99029  0.66855  0.43145  1
 As  As2  1  0.44118  0.16854  0.43145  1
 Li  Li1  1  0.73426  0.99243  0.99416  1
 Li  Li2  1  0.25987  0.49240  0.99415  1
 Se  Se1  1  0.02793  0.26359  0.51709  1
 Se  Se2  1  0.48918  0.76359  0.51710  1
 Se  Se3  1  0.77002  0.51066  0.02015  1
 Se  Se4  1  0.25012  0.01065  0.02014  1
