CIF file written using JARVIS-Tools package.
data_Np5Ge4
_symmetry_space_group_name_H-M  'P6_3/mcm'
_cell_length_a       8.63763
_cell_length_b       8.63762
_cell_length_c       5.76008
_cell_angle_alpha    90
_cell_angle_beta     90
_cell_angle_gamma    120

_symmetry_Int_Tables_number  193
_chemical_formula_structural  Np5Ge4
_chemical_formula_sum  Np0Ge8
_cell_volume  372.1758813770189
_cell_formula_units_Z  2
loop_
  _symmetry_equiv_pos_site_id
 _symmetry_equiv_pos_as_xyz
 1  'x, y, z'
loop_
 _atom_site_type_symbol
 _atom_site_label
 _atom_site_symmetry_multiplicity
 _atom_site_fract_x
 _atom_site_fract_y
 _atom_site_fract_z
 _atom_site_fract_occupancy
 Ge  Ge1  1  0.00000  0.00000  0.50000  1
 Ge  Ge2  1  0.37145  0.37145  0.25000  1
 Ge  Ge3  1  0.00000  0.62855  0.25000  1
 Ge  Ge4  1  -0.00000  0.37145  0.75000  1
 Ge  Ge5  1  0.62855  0.62855  0.75000  1
 Ge  Ge6  1  0.62855  0.00000  0.25000  1
 Ge  Ge7  1  0.00000  0.00000  0.00000  1
 Ge  Ge8  1  0.37145  -0.00000  0.75000  1
 Np  Np1  1  0.29382  0.00000  0.25000  1
 Np  Np2  1  0.33333  0.66667  0.00000  1
 Np  Np3  1  0.33333  0.66667  0.50000  1
 Np  Np4  1  0.70618  0.70618  0.25000  1
 Np  Np5  1  0.29382  0.29382  0.75000  1
 Np  Np6  1  -0.00000  0.70618  0.75000  1
 Np  Np7  1  0.00000  0.29382  0.25000  1
 Np  Np8  1  0.70618  -0.00000  0.75000  1
 Np  Np9  1  0.66667  0.33333  0.00000  1
 Np  Np10  1  0.66667  0.33333  0.50000  1
