CIF file written using JARVIS-Tools package.
data_EuB2Ir2
_symmetry_space_group_name_H-M  'Fddd'
_cell_length_a       5.54066
_cell_length_b       5.54066
_cell_length_c       6.15833
_cell_angle_alpha    104.838
_cell_angle_beta     104.838
_cell_angle_gamma    115.514

_symmetry_Int_Tables_number  70
_chemical_formula_structural  EuB2Ir2
_chemical_formula_sum  Eu2B4Ir4
_cell_volume  149.6769443170405
_cell_formula_units_Z  2
loop_
  _symmetry_equiv_pos_site_id
 _symmetry_equiv_pos_as_xyz
 1  'x, y, z'
loop_
 _atom_site_type_symbol
 _atom_site_label
 _atom_site_symmetry_multiplicity
 _atom_site_fract_x
 _atom_site_fract_y
 _atom_site_fract_z
 _atom_site_fract_occupancy
 B  B1  1  0.80535  0.19465  0.75000  1
 B  B2  1  0.55535  0.44465  0.25000  1
 B  B3  1  0.44465  0.55535  0.75000  1
 B  B4  1  0.19465  0.80535  0.25000  1
 Eu  Eu1  1  0.12500  0.87500  0.75000  1
 Eu  Eu2  1  0.87500  0.12500  0.25000  1
 Ir  Ir1  1  0.75378  0.50378  0.00756  1
 Ir  Ir2  1  0.50378  0.75378  0.50756  1
 Ir  Ir3  1  0.24622  0.49622  0.99244  1
 Ir  Ir4  1  0.49622  0.24622  0.49244  1
