CIF file written using JARVIS-Tools package.
data_ErAlNi
_symmetry_space_group_name_H-M  'P-62m'
_cell_length_a       6.94887
_cell_length_b       6.94887
_cell_length_c       3.81506
_cell_angle_alpha    90
_cell_angle_beta     90
_cell_angle_gamma    120

_symmetry_Int_Tables_number  189
_chemical_formula_structural  ErAlNi
_chemical_formula_sum  Er3Al3Ni3
_cell_volume  159.53691772488122
_cell_formula_units_Z  3
loop_
  _symmetry_equiv_pos_site_id
 _symmetry_equiv_pos_as_xyz
 1  'x, y, z'
loop_
 _atom_site_type_symbol
 _atom_site_label
 _atom_site_symmetry_multiplicity
 _atom_site_fract_x
 _atom_site_fract_y
 _atom_site_fract_z
 _atom_site_fract_occupancy
 Al  Al1  1  -0.00000  0.23812  0.00000  1
 Al  Al2  1  0.23812  -0.00000  0.00000  1
 Al  Al3  1  0.76188  0.76188  0.00000  1
 Er  Er1  1  -0.00000  0.58359  0.50000  1
 Er  Er2  1  0.58359  -0.00000  0.50000  1
 Er  Er3  1  0.41641  0.41641  0.50000  1
 Ni  Ni1  1  0.66667  0.33333  0.00000  1
 Ni  Ni2  1  0.33333  0.66667  0.00000  1
 Ni  Ni3  1  0.00000  0.00000  0.50000  1
