CIF file written using JARVIS-Tools package.
data_Ti3Ni3O
_symmetry_space_group_name_H-M  'Fd-3m'
_cell_length_a       7.78213
_cell_length_b       7.78213
_cell_length_c       7.78213
_cell_angle_alpha    60
_cell_angle_beta     60
_cell_angle_gamma    60

_symmetry_Int_Tables_number  227
_chemical_formula_structural  Ti3Ni3O
_chemical_formula_sum  Ti2Ni2O4
_cell_volume  333.2580565924587
_cell_formula_units_Z  4
loop_
  _symmetry_equiv_pos_site_id
 _symmetry_equiv_pos_as_xyz
 1  'x, y, z'
loop_
 _atom_site_type_symbol
 _atom_site_label
 _atom_site_symmetry_multiplicity
 _atom_site_fract_x
 _atom_site_fract_y
 _atom_site_fract_z
 _atom_site_fract_occupancy
 Ni  Ni1  1  0.71108  0.71108  0.36675  1
 Ni  Ni2  1  0.28892  0.28892  0.28892  1
 Ni  Ni3  1  0.50000  0.50000  0.00000  1
 Ni  Ni4  1  -0.00000  0.50000  0.50000  1
 Ni  Ni5  1  0.50000  0.00000  0.50000  1
 Ni  Ni6  1  0.71108  0.71108  0.71108  1
 Ni  Ni7  1  0.28892  0.28892  0.63325  1
 Ni  Ni8  1  0.63325  0.28892  0.28892  1
 Ni  Ni9  1  0.28892  0.63325  0.28892  1
 Ni  Ni10  1  0.36675  0.71108  0.71108  1
 Ni  Ni11  1  0.50000  0.50000  0.50000  1
 Ni  Ni12  1  0.71108  0.36675  0.71108  1
 O  O1  1  0.00000  0.00000  0.00000  1
 O  O2  1  0.50000  0.00000  0.00000  1
 O  O3  1  -0.00000  0.50000  0.00000  1
 O  O4  1  0.00000  0.00000  0.50000  1
 Ti  Ti1  1  0.68059  0.06941  0.06941  1
 Ti  Ti2  1  0.31941  0.31941  0.93059  1
 Ti  Ti3  1  0.93059  0.31941  0.31941  1
 Ti  Ti4  1  0.93059  0.31941  0.93059  1
 Ti  Ti5  1  0.31941  0.93059  0.31941  1
 Ti  Ti6  1  0.06941  0.68059  0.06941  1
 Ti  Ti7  1  0.06941  0.06941  0.68059  1
 Ti  Ti8  1  0.68059  0.68059  0.06941  1
 Ti  Ti9  1  0.68059  0.06941  0.68059  1
 Ti  Ti10  1  0.31941  0.93059  0.93059  1
 Ti  Ti11  1  0.06941  0.68059  0.68059  1
 Ti  Ti12  1  0.93059  0.93059  0.31941  1
