CIF file written using JARVIS-Tools package.
data_NiS2
_symmetry_space_group_name_H-M  'R-3m'
_cell_length_a       4.49485
_cell_length_b       4.49485
_cell_length_c       5.67865
_cell_angle_alpha    66.6861
_cell_angle_beta     90
_cell_angle_gamma    120

_symmetry_Int_Tables_number  166
_chemical_formula_structural  NiS2
_chemical_formula_sum  Ni2S4
_cell_volume  88.37705620875107
_cell_formula_units_Z  2
loop_
  _symmetry_equiv_pos_site_id
 _symmetry_equiv_pos_as_xyz
 1  'x, y, z'
loop_
 _atom_site_type_symbol
 _atom_site_label
 _atom_site_symmetry_multiplicity
 _atom_site_fract_x
 _atom_site_fract_y
 _atom_site_fract_z
 _atom_site_fract_occupancy
 Ni  Ni1  1  0.00000  0.00000  0.00000  1
 Ni  Ni2  1  0.50000  0.00000  0.50000  1
 S  S1  1  0.64720  0.29440  0.05840  1
 S  S2  1  0.14721  0.29441  0.55838  1
 S  S3  1  0.85279  0.70559  0.44162  1
 S  S4  1  0.35280  0.70560  0.94160  1
