CIF file written using JARVIS-Tools package.
data_AlHO2
_symmetry_space_group_name_H-M  'Pnnm'
_cell_length_a       2.85843
_cell_length_b       4.18493
_cell_length_c       4.72518
_cell_angle_alpha    90
_cell_angle_beta     90
_cell_angle_gamma    90

_symmetry_Int_Tables_number  58
_chemical_formula_structural  AlHO2
_chemical_formula_sum  Al2H2O4
_cell_volume  56.524197802345064
_cell_formula_units_Z  2
loop_
  _symmetry_equiv_pos_site_id
 _symmetry_equiv_pos_as_xyz
 1  'x, y, z'
loop_
 _atom_site_type_symbol
 _atom_site_label
 _atom_site_symmetry_multiplicity
 _atom_site_fract_x
 _atom_site_fract_y
 _atom_site_fract_z
 _atom_site_fract_occupancy
 Al  Al1  1  0.50000  0.50000  0.50000  1
 Al  Al2  1  0.00000  0.00000  0.00000  1
 H  H1  1  0.50000  0.50000  0.00000  1
 H  H2  1  0.00000  0.00000  0.50000  1
 O  O1  1  0.50000  0.73909  0.14598  1
 O  O2  1  0.50000  0.26091  0.85402  1
 O  O3  1  0.00000  0.76091  0.64598  1
 O  O4  1  0.00000  0.23909  0.35402  1
