CIF file written using JARVIS-Tools package.
data_HPbBrO
_symmetry_space_group_name_H-M  'Pnma'
_cell_length_a       7.3903
_cell_length_b       4.10819
_cell_length_c       10.1054
_cell_angle_alpha    90
_cell_angle_beta     90
_cell_angle_gamma    90

_symmetry_Int_Tables_number  62
_chemical_formula_structural  HPbBrO
_chemical_formula_sum  H4Pb4Br4O4
_cell_volume  306.80730268194276
_cell_formula_units_Z  4
loop_
  _symmetry_equiv_pos_site_id
 _symmetry_equiv_pos_as_xyz
 1  'x, y, z'
loop_
 _atom_site_type_symbol
 _atom_site_label
 _atom_site_symmetry_multiplicity
 _atom_site_fract_x
 _atom_site_fract_y
 _atom_site_fract_z
 _atom_site_fract_occupancy
 Br  Br1  1  0.55318  0.75000  0.17985  1
 Br  Br2  1  0.05318  0.75000  0.32015  1
 Br  Br3  1  0.44682  0.25000  0.82015  1
 Br  Br4  1  0.94682  0.25000  0.67985  1
 H  H1  1  0.79165  0.25000  0.11515  1
 H  H2  1  0.29165  0.25000  0.38485  1
 H  H3  1  0.20835  0.75000  0.88485  1
 H  H4  1  0.70835  0.75000  0.61515  1
 O  O1  1  0.87473  0.25000  0.03944  1
 O  O2  1  0.37473  0.25000  0.46056  1
 O  O3  1  0.12527  0.75000  0.96056  1
 O  O4  1  0.62527  0.75000  0.53944  1
 Pb  Pb1  1  0.69668  0.25000  0.41448  1
 Pb  Pb2  1  0.19668  0.25000  0.08552  1
 Pb  Pb3  1  0.30332  0.75000  0.58552  1
 Pb  Pb4  1  0.80332  0.75000  0.91448  1
