CIF file written using JARVIS-Tools package.
data_RbMg6Mo
_symmetry_space_group_name_H-M  'P4/mmm'
_cell_length_a       6.94125
_cell_length_b       9.81634
_cell_length_c       4.13792
_cell_angle_alpha    90
_cell_angle_beta     90
_cell_angle_gamma    135

_symmetry_Int_Tables_number  123
_chemical_formula_structural  RbMg6Mo
_chemical_formula_sum  RbMg6Mo
_cell_volume  199.36890493005737
_cell_formula_units_Z  1
loop_
  _symmetry_equiv_pos_site_id
 _symmetry_equiv_pos_as_xyz
 1  'x, y, z'
loop_
 _atom_site_type_symbol
 _atom_site_label
 _atom_site_symmetry_multiplicity
 _atom_site_fract_x
 _atom_site_fract_y
 _atom_site_fract_z
 _atom_site_fract_occupancy
 Mg  Mg1  1  0.74992  0.37489  0.25000  1
 Mg  Mg2  1  0.74992  0.87503  0.25000  1
 Mg  Mg3  1  0.24995  0.07981  0.75000  1
 Mg  Mg4  1  0.24995  0.67015  0.75000  1
 Mg  Mg5  1  0.65964  0.07982  0.75000  1
 Mg  Mg6  1  0.84043  0.67021  0.75000  1
 Mo  Mo1  1  0.25008  0.87504  0.25000  1
 Rb  Rb1  1  0.25009  0.37504  0.25000  1
