CIF file written using JARVIS-Tools package.
data_P4S3I2
_symmetry_space_group_name_H-M  'Pnma'
_cell_length_a       6.61915
_cell_length_b       9.33402
_cell_length_c       16.3792
_cell_angle_alpha    90
_cell_angle_beta     90
_cell_angle_gamma    90

_symmetry_Int_Tables_number  62
_chemical_formula_structural  P4S3I2
_chemical_formula_sum  P6S2I8
_cell_volume  1011.9594238525932
_cell_formula_units_Z  4
loop_
  _symmetry_equiv_pos_site_id
 _symmetry_equiv_pos_as_xyz
 1  'x, y, z'
loop_
 _atom_site_type_symbol
 _atom_site_label
 _atom_site_symmetry_multiplicity
 _atom_site_fract_x
 _atom_site_fract_y
 _atom_site_fract_z
 _atom_site_fract_occupancy
 I  I1  1  0.73038  0.64827  0.53742  1
 I  I2  1  0.76962  0.14827  0.53742  1
 I  I3  1  0.76962  0.14827  0.96258  1
 I  I4  1  0.26962  0.35173  0.46258  1
 I  I5  1  0.26962  0.35173  0.03742  1
 I  I6  1  0.73038  0.64827  0.96258  1
 I  I7  1  0.23038  0.85173  0.46258  1
 I  I8  1  0.23038  0.85173  0.03742  1
 P  P1  1  0.54509  0.50884  0.85380  1
 P  P2  1  0.04509  0.99116  0.35380  1
 P  P3  1  0.80066  0.12678  0.75000  1
 P  P4  1  0.30066  0.37322  0.25000  1
 P  P5  1  0.45491  0.49116  0.35380  1
 P  P6  1  0.25880  0.24936  0.75000  1
 P  P7  1  0.54509  0.50884  0.64620  1
 P  P8  1  0.95491  0.00884  0.85380  1
 P  P9  1  0.04509  0.99116  0.14620  1
 P  P10  1  0.75880  0.25064  0.25000  1
 P  P11  1  0.19934  0.87322  0.25000  1
 P  P12  1  0.69934  0.62678  0.75000  1
 P  P13  1  0.74120  0.75064  0.25000  1
 P  P14  1  0.45491  0.49116  0.14620  1
 P  P15  1  0.24120  0.74936  0.75000  1
 P  P16  1  0.95491  0.00884  0.64620  1
 S  S1  1  0.75076  0.89343  0.35314  1
 S  S2  1  0.75076  0.89343  0.14686  1
 S  S3  1  0.54327  0.82490  0.75000  1
 S  S4  1  0.25076  0.60657  0.85314  1
 S  S5  1  0.74924  0.39343  0.14686  1
 S  S6  1  0.04327  0.67510  0.25000  1
 S  S7  1  0.74924  0.39343  0.35314  1
 S  S8  1  0.95673  0.32490  0.75000  1
 S  S9  1  0.45673  0.17510  0.25000  1
 S  S10  1  0.25076  0.60657  0.64686  1
 S  S11  1  0.24924  0.10657  0.85314  1
 S  S12  1  0.24924  0.10657  0.64686  1
