CIF file written using JARVIS-Tools package.
data_MnVBiO5
_symmetry_space_group_name_H-M  'P-1'
_cell_length_a       5.33956
_cell_length_b       6.92199
_cell_length_c       6.97857
_cell_angle_alpha    109.942
_cell_angle_beta     108.636
_cell_angle_gamma    95.6714

_symmetry_Int_Tables_number  2
_chemical_formula_structural  MnVBiO5
_chemical_formula_sum  Mn2V2Bi2O0
_cell_volume  223.4123023199308
_cell_formula_units_Z  2
loop_
  _symmetry_equiv_pos_site_id
 _symmetry_equiv_pos_as_xyz
 1  'x, y, z'
loop_
 _atom_site_type_symbol
 _atom_site_label
 _atom_site_symmetry_multiplicity
 _atom_site_fract_x
 _atom_site_fract_y
 _atom_site_fract_z
 _atom_site_fract_occupancy
 Bi  Bi1  1  0.08929  0.75846  0.52471  1
 Bi  Bi2  1  0.91071  0.24154  0.47529  1
 Mn  Mn1  1  0.32457  0.36172  0.22496  1
 Mn  Mn2  1  0.67543  0.63828  0.77504  1
 O  O1  1  0.22860  0.64960  0.22480  1
 O  O2  1  0.42932  0.08614  0.29396  1
 O  O3  1  0.63255  0.75781  0.07348  1
 O  O4  1  0.57068  0.91386  0.70604  1
 O  O5  1  0.72793  0.50044  0.44463  1
 O  O6  1  0.77140  0.35040  0.77520  1
 O  O7  1  0.91573  0.21709  0.13292  1
 O  O8  1  0.08427  0.78291  0.86708  1
 O  O9  1  0.36745  0.24219  0.92652  1
 O  O10  1  0.27207  0.49956  0.55537  1
 V  V1  1  0.65496  0.18209  0.88516  1
 V  V2  1  0.34504  0.81791  0.11484  1
