CIF file written using JARVIS-Tools package.
data_Ba3Sn2As4
_symmetry_space_group_name_H-M  'P2_1/c'
_cell_length_a       8.04108
_cell_length_b       8.12464
_cell_length_c       20.073
_cell_angle_alpha    90
_cell_angle_beta     90
_cell_angle_gamma    112.272

_symmetry_Int_Tables_number  14
_chemical_formula_structural  Ba3Sn2As4
_chemical_formula_sum  Ba2Sn8As6
_cell_volume  1213.5494234026735
_cell_formula_units_Z  4
loop_
  _symmetry_equiv_pos_site_id
 _symmetry_equiv_pos_as_xyz
 1  'x, y, z'
loop_
 _atom_site_type_symbol
 _atom_site_label
 _atom_site_symmetry_multiplicity
 _atom_site_fract_x
 _atom_site_fract_y
 _atom_site_fract_z
 _atom_site_fract_occupancy
 As  As1  1  0.74798  0.50092  0.56426  1
 As  As2  1  0.71707  0.51540  0.80165  1
 As  As3  1  0.78293  0.48460  0.30165  1
 As  As4  1  0.28293  0.48460  0.19835  1
 As  As5  1  0.71610  0.03209  0.68267  1
 As  As6  1  0.78390  0.96791  0.18267  1
 As  As7  1  0.28390  0.96791  0.31733  1
 As  As8  1  0.74733  -0.00046  0.94611  1
 As  As9  1  0.75267  0.00046  0.44611  1
 As  As10  1  0.25267  0.00046  0.05389  1
 As  As11  1  0.24733  -0.00046  0.55389  1
 As  As12  1  0.24798  0.50092  0.93574  1
 As  As13  1  0.25202  0.49908  0.43574  1
 As  As14  1  0.75202  0.49908  0.06426  1
 As  As15  1  0.21707  0.51540  0.69835  1
 As  As16  1  0.21610  0.03209  0.81733  1
 Ba  Ba1  1  0.98746  0.74083  0.93616  1
 Ba  Ba2  1  0.48746  0.74083  0.56384  1
 Ba  Ba3  1  0.99073  0.78900  0.68303  1
 Ba  Ba4  1  0.50927  0.21100  0.18303  1
 Ba  Ba5  1  0.49073  0.78900  0.81697  1
 Ba  Ba6  1  0.00609  0.26219  0.56110  1
 Ba  Ba7  1  0.00927  0.21100  0.31697  1
 Ba  Ba8  1  0.51254  0.25917  0.43616  1
 Ba  Ba9  1  0.49391  0.73781  0.06110  1
 Ba  Ba10  1  0.01254  0.25917  0.06384  1
 Ba  Ba11  1  0.99391  0.73781  0.43890  1
 Ba  Ba12  1  0.50609  0.26219  0.93890  1
 Sn  Sn1  1  0.09823  0.68329  0.24181  1
 Sn  Sn2  1  0.52511  0.20946  0.62281  1
 Sn  Sn3  1  0.90177  0.31671  0.75819  1
 Sn  Sn4  1  0.40177  0.31671  0.74181  1
 Sn  Sn5  1  0.47489  0.79054  0.37719  1
 Sn  Sn6  1  0.02511  0.20946  0.87719  1
 Sn  Sn7  1  0.59823  0.68329  0.25819  1
 Sn  Sn8  1  0.97489  0.79054  0.12281  1
