CIF file written using JARVIS-Tools package.
data_SnP2PbO8
_symmetry_space_group_name_H-M  'P2_1/c'
_cell_length_a       4.86771
_cell_length_b       8.9327
_cell_length_c       14.7831
_cell_angle_alpha    90
_cell_angle_beta     90
_cell_angle_gamma    93.1594

_symmetry_Int_Tables_number  14
_chemical_formula_structural  SnP2PbO8
_chemical_formula_sum  Sn4P8Pb4O32
_cell_volume  641.8170959183216
_cell_formula_units_Z  4
loop_
  _symmetry_equiv_pos_site_id
 _symmetry_equiv_pos_as_xyz
 1  'x, y, z'
loop_
 _atom_site_type_symbol
 _atom_site_label
 _atom_site_symmetry_multiplicity
 _atom_site_fract_x
 _atom_site_fract_y
 _atom_site_fract_z
 _atom_site_fract_occupancy
 O  O1  1  0.89513  0.91355  0.32167  1
 O  O2  1  0.59934  0.16262  0.38944  1
 O  O3  1  0.09934  0.66262  0.11056  1
 O  O4  1  0.40066  0.83738  0.61056  1
 O  O5  1  0.43841  0.33894  0.96354  1
 O  O6  1  0.06159  0.16106  0.46354  1
 O  O7  1  0.56159  0.66106  0.03646  1
 O  O8  1  0.93841  0.83894  0.53646  1
 O  O9  1  0.86288  0.37623  0.06186  1
 O  O10  1  0.63712  0.12377  0.56186  1
 O  O11  1  0.06447  0.53386  0.74613  1
 O  O12  1  0.56447  0.03386  0.75387  1
 O  O13  1  0.75121  0.37352  0.49628  1
 O  O14  1  0.74879  0.12648  0.99628  1
 O  O15  1  0.24879  0.62648  0.50372  1
 O  O16  1  0.25121  0.87352  0.00372  1
 O  O17  1  0.84532  0.94425  0.14840  1
 O  O18  1  0.65468  0.55575  0.64840  1
 O  O19  1  0.15468  0.05575  0.85160  1
 O  O20  1  0.34532  0.44425  0.35160  1
 O  O21  1  0.43553  0.96614  0.24613  1
 O  O22  1  0.13712  0.62377  0.93814  1
 O  O23  1  0.90066  0.33738  0.88944  1
 O  O24  1  0.93553  0.46614  0.25387  1
 O  O25  1  0.60487  0.58645  0.82167  1
 O  O26  1  0.10487  0.08645  0.67833  1
 O  O27  1  0.39513  0.41355  0.17833  1
 O  O28  1  0.86195  0.78504  0.73402  1
 O  O29  1  0.63805  0.71496  0.23402  1
 O  O30  1  0.13805  0.21496  0.26598  1
 O  O31  1  0.36195  0.28504  0.76598  1
 O  O32  1  0.36288  0.87623  0.43814  1
 P  P1  1  0.24202  0.79538  0.52369  1
 P  P2  1  0.74202  0.29538  0.97631  1
 P  P3  1  0.75798  0.20462  0.47631  1
 P  P4  1  0.71472  0.88800  0.23551  1
 P  P5  1  0.78528  0.61200  0.73551  1
 P  P6  1  0.25798  0.70462  0.02369  1
 P  P7  1  0.21472  0.38800  0.26449  1
 P  P8  1  0.28528  0.11200  0.76449  1
 Pb  Pb1  1  0.78053  0.90495  0.90203  1
 Pb  Pb2  1  0.28053  0.40495  0.59797  1
 Pb  Pb3  1  0.21947  0.09505  0.09797  1
 Pb  Pb4  1  0.71947  0.59505  0.40203  1
 Sn  Sn1  1  0.26373  0.45114  0.85816  1
 Sn  Sn2  1  0.23627  0.04886  0.35816  1
 Sn  Sn3  1  0.73627  0.54886  0.14184  1
 Sn  Sn4  1  0.76373  0.95114  0.64184  1
