CIF file written using JARVIS-Tools package.
data_Na2B4H20O17
_symmetry_space_group_name_H-M  'C2/c'
_cell_length_a       7.85589
_cell_length_b       7.85589
_cell_length_c       12.1345
_cell_angle_alpha    76.9554
_cell_angle_beta     103.045
_cell_angle_gamma    97.138

_symmetry_Int_Tables_number  15
_chemical_formula_structural  Na2B4H20O17
_chemical_formula_sum  Na4B8H40O34
_cell_volume  708.6063861986927
_cell_formula_units_Z  2
loop_
  _symmetry_equiv_pos_site_id
 _symmetry_equiv_pos_as_xyz
 1  'x, y, z'
loop_
 _atom_site_type_symbol
 _atom_site_label
 _atom_site_symmetry_multiplicity
 _atom_site_fract_x
 _atom_site_fract_y
 _atom_site_fract_z
 _atom_site_fract_occupancy
 B  B1  1  0.25542  0.43170  0.28276  1
 B  B2  1  0.55694  0.35660  0.39632  1
 B  B3  1  0.35660  0.55694  0.10368  1
 B  B4  1  0.64340  0.44306  0.89632  1
 B  B5  1  0.44306  0.64340  0.60368  1
 B  B6  1  0.43170  0.25542  0.21724  1
 B  B7  1  0.56830  0.74458  0.78276  1
 B  B8  1  0.74458  0.56830  0.71724  1
 H  H1  1  0.99254  0.50092  0.72502  1
 H  H2  1  0.50092  0.99254  0.77498  1
 H  H3  1  0.77048  0.17656  0.30828  1
 H  H4  1  0.49908  0.00746  0.22502  1
 H  H5  1  0.17656  0.77048  0.19172  1
 H  H6  1  0.32205  0.93083  0.46403  1
 H  H7  1  0.03304  0.77107  0.69848  1
 H  H8  1  0.00746  0.49908  0.27498  1
 H  H9  1  0.65297  0.42471  0.54640  1
 H  H10  1  0.91118  0.31512  0.53710  1
 H  H11  1  0.34703  0.57529  0.45360  1
 H  H12  1  0.57529  0.34703  0.04640  1
 H  H13  1  0.93083  0.32205  0.03597  1
 H  H14  1  0.35052  0.07460  0.01931  1
 H  H15  1  0.31512  0.91118  0.96290  1
 H  H16  1  0.08882  0.68488  0.46290  1
 H  H17  1  0.68488  0.08882  0.03710  1
 H  H18  1  0.42471  0.65297  0.95360  1
 H  H19  1  0.86052  0.62502  0.09330  1
 H  H20  1  0.71576  0.52044  0.16030  1
 H  H21  1  0.13948  0.37498  0.90670  1
 H  H22  1  0.22952  0.82344  0.69172  1
 H  H23  1  0.82344  0.22952  0.80828  1
 H  H24  1  0.07460  0.35052  0.48069  1
 H  H25  1  0.67795  0.06917  0.53597  1
 H  H26  1  0.96696  0.22893  0.30152  1
 H  H27  1  0.22893  0.96696  0.19848  1
 H  H28  1  0.72497  0.88620  0.61885  1
 H  H29  1  0.88620  0.72497  0.88115  1
 H  H30  1  0.27503  0.11380  0.38115  1
 H  H31  1  0.11380  0.27503  0.11885  1
 H  H32  1  0.06917  0.67795  0.96403  1
 H  H33  1  0.37498  0.13948  0.59330  1
 H  H34  1  0.28424  0.47956  0.83970  1
 H  H35  1  0.47956  0.28424  0.66030  1
 H  H36  1  0.64948  0.92540  0.98069  1
 H  H37  1  0.52044  0.71576  0.33970  1
 H  H38  1  0.77107  0.03304  0.80152  1
 H  H39  1  0.62502  0.86052  0.40670  1
 H  H40  1  0.92540  0.64948  0.51931  1
 Na  Na1  1  -0.00000  -0.00000  0.50000  1
 Na  Na2  1  0.85072  0.85072  0.25000  1
 Na  Na3  1  0.14928  0.14928  0.75000  1
 Na  Na4  1  0.00000  0.00000  0.00000  1
 O  O1  1  0.59085  0.82824  0.32974  1
 O  O2  1  0.73624  0.73624  0.75000  1
 O  O3  1  0.26376  0.26376  0.25000  1
 O  O4  1  0.73900  0.42278  0.81938  1
 O  O5  1  0.42278  0.73900  0.68062  1
 O  O6  1  0.26100  0.57722  0.18062  1
 O  O7  1  0.32054  0.65281  0.50160  1
 O  O8  1  0.57722  0.26100  0.31938  1
 O  O9  1  0.41662  0.45830  0.37524  1
 O  O10  1  0.45830  0.41662  0.12476  1
 O  O11  1  0.89838  0.56843  0.67063  1
 O  O12  1  0.56843  0.89838  0.82937  1
 O  O13  1  0.10162  0.43157  0.32937  1
 O  O14  1  0.43157  0.10162  0.17063  1
 O  O15  1  0.65281  0.32054  0.99840  1
 O  O16  1  0.58338  0.54170  0.62476  1
 O  O17  1  0.34719  0.67946  0.00160  1
 O  O18  1  0.12801  0.87811  0.19744  1
 O  O19  1  0.28259  0.03259  0.95007  1
 O  O20  1  0.03259  0.28259  0.54993  1
 O  O21  1  0.71741  0.96741  0.04993  1
 O  O22  1  0.96741  0.71741  0.45007  1
 O  O23  1  0.12189  0.87199  0.69744  1
 O  O24  1  0.87199  0.12189  0.80256  1
 O  O25  1  0.54170  0.58338  0.87524  1
 O  O26  1  0.87811  0.12801  0.30256  1
 O  O27  1  0.95305  0.71265  0.96279  1
 O  O28  1  0.17176  0.40915  0.82974  1
 O  O29  1  0.04695  0.28735  0.03721  1
 O  O30  1  0.28735  0.04695  0.46279  1
 O  O31  1  0.40915  0.17176  0.67026  1
 O  O32  1  0.67946  0.34719  0.49840  1
 O  O33  1  0.71265  0.95305  0.53721  1
 O  O34  1  0.82824  0.59085  0.17026  1
