CIF file written using JARVIS-Tools package.
data_U3Si
_symmetry_space_group_name_H-M  'I4/mmm'
_cell_length_a       6.0491
_cell_length_b       6.04912
_cell_length_c       6.04943
_cell_angle_alpha    120.053
_cell_angle_beta     120.053
_cell_angle_gamma    89.9058

_symmetry_Int_Tables_number  139
_chemical_formula_structural  U3Si
_chemical_formula_sum  U6Si2
_cell_volume  156.403551934617
_cell_formula_units_Z  2
loop_
  _symmetry_equiv_pos_site_id
 _symmetry_equiv_pos_as_xyz
 1  'x, y, z'
loop_
 _atom_site_type_symbol
 _atom_site_label
 _atom_site_symmetry_multiplicity
 _atom_site_fract_x
 _atom_site_fract_y
 _atom_site_fract_z
 _atom_site_fract_occupancy
 Si  Si1  1  0.25006  0.75005  0.50010  1
 Si  Si2  1  0.74994  0.24995  0.49990  1
 U  U1  1  0.71441  0.71432  0.00000  1
 U  U2  1  0.28559  0.28568  1.00000  1
 U  U3  1  0.23310  0.76683  0.99999  1
 U  U4  1  0.76690  0.23316  0.00000  1
 U  U5  1  0.23327  0.23327  0.46654  1
 U  U6  1  0.76674  0.76673  0.53347  1
