CIF file written using JARVIS-Tools package.
data_Fe3O2F4
_symmetry_space_group_name_H-M  'P2_1/c'
_cell_length_a       5.70824
_cell_length_b       4.7283
_cell_length_c       7.76477
_cell_angle_alpha    90
_cell_angle_beta     95.2494
_cell_angle_gamma    90

_symmetry_Int_Tables_number  14
_chemical_formula_structural  Fe3O2F4
_chemical_formula_sum  Fe6O4F8
_cell_volume  208.6944325729674
_cell_formula_units_Z  2
loop_
  _symmetry_equiv_pos_site_id
 _symmetry_equiv_pos_as_xyz
 1  'x, y, z'
loop_
 _atom_site_type_symbol
 _atom_site_label
 _atom_site_symmetry_multiplicity
 _atom_site_fract_x
 _atom_site_fract_y
 _atom_site_fract_z
 _atom_site_fract_occupancy
 F  F1  1  0.21176  0.21842  0.39282  1
 F  F2  1  0.71176  0.28158  0.39282  1
 F  F3  1  0.28824  0.71842  0.60718  1
 F  F4  1  0.62619  0.70619  0.93214  1
 F  F5  1  0.12619  0.79381  0.93214  1
 F  F6  1  0.78824  0.78158  0.60718  1
 F  F7  1  0.87381  0.20619  0.06786  1
 F  F8  1  0.37381  0.29381  0.06786  1
 Fe  Fe1  1  -0.00000  0.50000  0.50000  1
 Fe  Fe2  1  0.82730  0.04560  0.82403  1
 Fe  Fe3  1  0.17270  0.95440  0.17597  1
 Fe  Fe4  1  0.50000  0.00000  0.50000  1
 Fe  Fe5  1  0.67270  0.54560  0.17597  1
 Fe  Fe6  1  0.32730  0.45440  0.82403  1
 O  O1  1  0.96163  0.70614  0.27582  1
 O  O2  1  0.53837  0.20614  0.72418  1
 O  O3  1  0.03837  0.29386  0.72418  1
 O  O4  1  0.46163  0.79386  0.27582  1
