CIF file written using JARVIS-Tools package.
data_BeHg4Pt
_symmetry_space_group_name_H-M  'F-43m'
_cell_length_a       5.66494
_cell_length_b       5.66494
_cell_length_c       5.66494
_cell_angle_alpha    60
_cell_angle_beta     60
_cell_angle_gamma    60

_symmetry_Int_Tables_number  216
_chemical_formula_structural  BeHg4Pt
_chemical_formula_sum  BeHg4Pt
_cell_volume  128.55001555759486
_cell_formula_units_Z  1
loop_
  _symmetry_equiv_pos_site_id
 _symmetry_equiv_pos_as_xyz
 1  'x, y, z'
loop_
 _atom_site_type_symbol
 _atom_site_label
 _atom_site_symmetry_multiplicity
 _atom_site_fract_x
 _atom_site_fract_y
 _atom_site_fract_z
 _atom_site_fract_occupancy
 Be  Be1  1  0.00000  0.00000  0.00000  1
 Hg  Hg1  1  0.12548  0.62484  0.62484  1
 Hg  Hg2  1  0.62484  0.62484  0.62484  1
 Hg  Hg3  1  0.62484  0.12548  0.62484  1
 Hg  Hg4  1  0.62484  0.62484  0.12548  1
 Pt  Pt1  1  0.25000  0.25000  0.25000  1
