CIF file written using JARVIS-Tools package.
data_NaAl6Fe3Si6B3O30F
_symmetry_space_group_name_H-M  'R3m'
_cell_length_a       9.46574
_cell_length_b       9.46575
_cell_length_c       9.46575
_cell_angle_alpha    113.833
_cell_angle_beta     113.833
_cell_angle_gamma    113.833

_symmetry_Int_Tables_number  160
_chemical_formula_structural  NaAl6Fe3Si6B3O30F
_chemical_formula_sum  NaAl6Fe3Si6B3O30F
_cell_volume  521.6007386022827
_cell_formula_units_Z  1
loop_
  _symmetry_equiv_pos_site_id
 _symmetry_equiv_pos_as_xyz
 1  'x, y, z'
loop_
 _atom_site_type_symbol
 _atom_site_label
 _atom_site_symmetry_multiplicity
 _atom_site_fract_x
 _atom_site_fract_y
 _atom_site_fract_z
 _atom_site_fract_occupancy
 Al  Al1  1  0.89493  0.55894  0.34244  1
 Al  Al2  1  0.89493  0.34244  0.55894  1
 Al  Al3  1  0.34244  0.89493  0.55894  1
 Al  Al4  1  0.55894  0.34244  0.89493  1
 Al  Al5  1  0.34244  0.55894  0.89493  1
 Al  Al6  1  0.55894  0.89493  0.34244  1
 B  B1  1  0.23234  0.56222  0.56222  1
 B  B2  1  0.56222  0.23234  0.56222  1
 B  B3  1  0.56222  0.56222  0.23234  1
 F  F1  1  0.77430  0.77430  0.77430  1
 Fe  Fe1  1  0.56289  0.56289  0.75892  1
 Fe  Fe2  1  0.56289  0.75892  0.56289  1
 Fe  Fe3  1  0.75892  0.56289  0.56289  1
 Na  Na1  1  0.23726  0.23726  0.23726  1
 O  O1  1  0.36134  0.06926  0.78616  1
 O  O2  1  0.99834  0.99834  0.26484  1
 O  O3  1  0.99834  0.26484  0.99834  1
 O  O4  1  0.26484  0.99834  0.99834  1
 O  O5  1  0.17499  0.88495  0.17499  1
 O  O6  1  0.88495  0.17499  0.17499  1
 O  O7  1  0.17499  0.17499  0.88495  1
 O  O8  1  0.39139  0.77578  0.39139  1
 O  O9  1  0.39139  0.39139  0.77578  1
 O  O10  1  0.77578  0.39139  0.39139  1
 O  O11  1  0.55441  0.37409  0.55441  1
 O  O12  1  0.37409  0.55441  0.55441  1
 O  O13  1  0.55441  0.55441  0.37409  1
 O  O14  1  0.58670  0.96407  0.76499  1
 O  O15  1  0.76499  0.58670  0.96407  1
 O  O16  1  0.96407  0.58670  0.76499  1
 O  O17  1  0.58670  0.76499  0.96407  1
 O  O18  1  0.16401  0.64245  0.49371  1
 O  O19  1  0.78616  0.36134  0.06926  1
 O  O20  1  0.76499  0.96407  0.58670  1
 O  O21  1  0.64245  0.16401  0.49371  1
 O  O22  1  0.16401  0.49371  0.64245  1
 O  O23  1  0.49371  0.16401  0.64245  1
 O  O24  1  0.96407  0.76499  0.58670  1
 O  O25  1  0.49371  0.64245  0.16401  1
 O  O26  1  0.36134  0.78616  0.06926  1
 O  O27  1  0.78616  0.06926  0.36134  1
 O  O28  1  0.06926  0.36134  0.78616  1
 O  O29  1  0.06926  0.78616  0.36134  1
 O  O30  1  0.64245  0.49371  0.16401  1
 Si  Si1  1  0.99803  0.80871  0.19132  1
 Si  Si2  1  0.99803  0.19132  0.80871  1
 Si  Si3  1  0.19132  0.99803  0.80871  1
 Si  Si4  1  0.80871  0.19132  0.99803  1
 Si  Si5  1  0.80871  0.99803  0.19132  1
 Si  Si6  1  0.19132  0.80871  0.99803  1
