CIF file written using JARVIS-Tools package.
data_HoInCo2
_symmetry_space_group_name_H-M  'Pmma'
_cell_length_a       3.97906
_cell_length_b       5.00144
_cell_length_c       7.07814
_cell_angle_alpha    90
_cell_angle_beta     90
_cell_angle_gamma    90

_symmetry_Int_Tables_number  51
_chemical_formula_structural  HoInCo2
_chemical_formula_sum  Ho2In2Co4
_cell_volume  140.8623784486408
_cell_formula_units_Z  2
loop_
  _symmetry_equiv_pos_site_id
 _symmetry_equiv_pos_as_xyz
 1  'x, y, z'
loop_
 _atom_site_type_symbol
 _atom_site_label
 _atom_site_symmetry_multiplicity
 _atom_site_fract_x
 _atom_site_fract_y
 _atom_site_fract_z
 _atom_site_fract_occupancy
 Co  Co1  1  0.00000  0.50000  0.00000  1
 Co  Co2  1  0.00000  0.00000  0.00000  1
 Co  Co3  1  0.50000  0.75000  0.90408  1
 Co  Co4  1  0.50000  0.25000  0.09592  1
 Ho  Ho1  1  0.50000  0.75000  0.27463  1
 Ho  Ho2  1  0.50000  0.25000  0.72537  1
 In  In1  1  0.00000  0.75000  0.64606  1
 In  In2  1  0.00000  0.25000  0.35394  1
