CIF file written using JARVIS-Tools package.
data_TlPd3
_symmetry_space_group_name_H-M  'I4/mmm'
_cell_length_a       4.17477
_cell_length_b       4.17477
_cell_length_c       8.32253
_cell_angle_alpha    104.525
_cell_angle_beta     104.525
_cell_angle_gamma    90

_symmetry_Int_Tables_number  139
_chemical_formula_structural  TlPd3
_chemical_formula_sum  Tl2Pd6
_cell_volume  135.61964633996186
_cell_formula_units_Z  2
loop_
  _symmetry_equiv_pos_site_id
 _symmetry_equiv_pos_as_xyz
 1  'x, y, z'
loop_
 _atom_site_type_symbol
 _atom_site_label
 _atom_site_symmetry_multiplicity
 _atom_site_fract_x
 _atom_site_fract_y
 _atom_site_fract_z
 _atom_site_fract_occupancy
 Pd  Pd1  1  0.50000  0.00000  0.00000  1
 Pd  Pd2  1  0.00000  0.50000  0.00000  1
 Pd  Pd3  1  0.25000  0.75000  0.50000  1
 Pd  Pd4  1  0.75000  0.25000  0.50000  1
 Pd  Pd5  1  0.62550  0.62550  0.25100  1
 Pd  Pd6  1  0.37450  0.37450  0.74900  1
 Tl  Tl1  1  0.87459  0.87459  0.74919  1
 Tl  Tl2  1  0.12541  0.12541  0.25081  1
