CIF file written using JARVIS-Tools package.
data_MgB2H8
_symmetry_space_group_name_H-M  'P-3m1'
_cell_length_a       4.28738
_cell_length_b       4.28738
_cell_length_c       5.34505
_cell_angle_alpha    90
_cell_angle_beta     90
_cell_angle_gamma    120

_symmetry_Int_Tables_number  164
_chemical_formula_structural  MgB2H8
_chemical_formula_sum  MgB2H8
_cell_volume  85.0878673120058
_cell_formula_units_Z  1
loop_
  _symmetry_equiv_pos_site_id
 _symmetry_equiv_pos_as_xyz
 1  'x, y, z'
loop_
 _atom_site_type_symbol
 _atom_site_label
 _atom_site_symmetry_multiplicity
 _atom_site_fract_x
 _atom_site_fract_y
 _atom_site_fract_z
 _atom_site_fract_occupancy
 B  B1  1  0.33333  0.66667  0.20205  1
 B  B2  1  0.66667  0.33333  0.79795  1
 H  H1  1  0.18007  0.81993  0.28833  1
 H  H2  1  0.18007  0.36014  0.28833  1
 H  H3  1  0.63986  0.81993  0.28833  1
 H  H4  1  0.81993  0.18007  0.71167  1
 H  H5  1  0.36014  0.18007  0.71167  1
 H  H6  1  0.81993  0.63986  0.71167  1
 H  H7  1  0.33333  0.66667  0.97456  1
 H  H8  1  0.66667  0.33333  0.02544  1
 Mg  Mg1  1  0.00000  0.00000  0.00000  1
