CIF file written using JARVIS-Tools package.
data_SmGeRu
_symmetry_space_group_name_H-M  'Pnma'
_cell_length_a       4.51592
_cell_length_b       7.21085
_cell_length_c       7.17922
_cell_angle_alpha    90
_cell_angle_beta     90
_cell_angle_gamma    90

_symmetry_Int_Tables_number  62
_chemical_formula_structural  SmGeRu
_chemical_formula_sum  Sm4Ge4Ru4
_cell_volume  233.78154797530289
_cell_formula_units_Z  4
loop_
  _symmetry_equiv_pos_site_id
 _symmetry_equiv_pos_as_xyz
 1  'x, y, z'
loop_
 _atom_site_type_symbol
 _atom_site_label
 _atom_site_symmetry_multiplicity
 _atom_site_fract_x
 _atom_site_fract_y
 _atom_site_fract_z
 _atom_site_fract_occupancy
 Ge  Ge1  1  0.25000  0.89372  0.30226  1
 Ge  Ge2  1  0.75000  0.10628  0.69774  1
 Ge  Ge3  1  0.75000  0.39372  0.19774  1
 Ge  Ge4  1  0.25000  0.60628  0.80226  1
 Ru  Ru1  1  0.25000  0.56610  0.15293  1
 Ru  Ru2  1  0.75000  0.43390  0.84707  1
 Ru  Ru3  1  0.75000  0.06610  0.34707  1
 Ru  Ru4  1  0.25000  0.93390  0.65293  1
 Sm  Sm1  1  0.25000  0.18845  0.97943  1
 Sm  Sm2  1  0.75000  0.81155  0.02057  1
 Sm  Sm3  1  0.75000  0.68845  0.52057  1
 Sm  Sm4  1  0.25000  0.31155  0.47943  1
