CIF file written using JARVIS-Tools package.
data_NaMg6Nb
_symmetry_space_group_name_H-M  'P-6m2'
_cell_length_a       6.34912
_cell_length_b       6.34911
_cell_length_c       5.01999
_cell_angle_alpha    90
_cell_angle_beta     90
_cell_angle_gamma    119.991

_symmetry_Int_Tables_number  187
_chemical_formula_structural  NaMg6Nb
_chemical_formula_sum  NaMg6Nb
_cell_volume  175.26641269081125
_cell_formula_units_Z  1
loop_
  _symmetry_equiv_pos_site_id
 _symmetry_equiv_pos_as_xyz
 1  'x, y, z'
loop_
 _atom_site_type_symbol
 _atom_site_label
 _atom_site_symmetry_multiplicity
 _atom_site_fract_x
 _atom_site_fract_y
 _atom_site_fract_z
 _atom_site_fract_occupancy
 Mg  Mg1  1  0.10147  0.92568  0.25000  1
 Mg  Mg2  1  0.57432  0.39853  0.25000  1
 Mg  Mg3  1  0.57427  0.92573  0.25000  1
 Mg  Mg4  1  0.42280  0.58645  0.75000  1
 Mg  Mg5  1  0.91355  0.07720  0.75000  1
 Mg  Mg6  1  0.91356  0.58644  0.75000  1
 Na  Na1  1  0.08338  0.41662  0.25000  1
 Nb  Nb1  1  0.41665  0.08335  0.75000  1
