CIF file written using JARVIS-Tools package.
data_Na3LiMnBPO7
_symmetry_space_group_name_H-M  'P2_1/m'
_cell_length_a       5.12413
_cell_length_b       6.51391
_cell_length_c       9.98889
_cell_angle_alpha    90
_cell_angle_beta     94.5643
_cell_angle_gamma    90

_symmetry_Int_Tables_number  11
_chemical_formula_structural  Na3LiMnBPO7
_chemical_formula_sum  Na6Li2Mn2B2P2O4
_cell_volume  332.352416639993
_cell_formula_units_Z  2
loop_
  _symmetry_equiv_pos_site_id
 _symmetry_equiv_pos_as_xyz
 1  'x, y, z'
loop_
 _atom_site_type_symbol
 _atom_site_label
 _atom_site_symmetry_multiplicity
 _atom_site_fract_x
 _atom_site_fract_y
 _atom_site_fract_z
 _atom_site_fract_occupancy
 B  B1  1  0.72525  0.75000  0.93946  1
 B  B2  1  0.27475  0.25000  0.06054  1
 Li  Li1  1  0.00000  0.50000  0.50000  1
 Li  Li2  1  0.00000  0.00000  0.50000  1
 Mn  Mn1  1  0.67270  0.75000  0.68823  1
 Mn  Mn2  1  0.32730  0.25000  0.31177  1
 Na  Na1  1  0.24488  0.75000  0.05299  1
 Na  Na2  1  0.20071  0.99898  0.77393  1
 Na  Na3  1  0.20071  0.50102  0.77393  1
 Na  Na4  1  0.79929  0.49898  0.22607  1
 Na  Na5  1  0.79929  0.00102  0.22607  1
 Na  Na6  1  0.75512  0.25000  0.94701  1
 O  O1  1  0.73630  0.25000  0.43458  1
 O  O2  1  0.77460  0.05736  0.65230  1
 O  O3  1  0.77460  0.44264  0.65230  1
 O  O4  1  0.26370  0.75000  0.56542  1
 O  O5  1  0.34426  0.25000  0.58271  1
 O  O6  1  0.65574  0.75000  0.41729  1
 O  O7  1  0.22540  0.55736  0.34770  1
 O  O8  1  0.25622  0.25000  0.92382  1
 O  O9  1  0.51560  0.25000  0.13755  1
 O  O10  1  0.05904  0.25000  0.13685  1
 O  O11  1  0.74378  0.75000  0.07618  1
 O  O12  1  0.94096  0.75000  0.86315  1
 O  O13  1  0.48440  0.75000  0.86245  1
 O  O14  1  0.22540  0.94264  0.34770  1
 P  P1  1  0.64455  0.25000  0.58182  1
 P  P2  1  0.35545  0.75000  0.41818  1
