CIF file written using JARVIS-Tools package.
data_BH2NCl2
_symmetry_space_group_name_H-M  'Pnma'
_cell_length_a       10.2457
_cell_length_b       11.946
_cell_length_c       8.10535
_cell_angle_alpha    90
_cell_angle_beta     90
_cell_angle_gamma    90

_symmetry_Int_Tables_number  62
_chemical_formula_structural  BH2NCl2
_chemical_formula_sum  B2H24N2Cl24
_cell_volume  992.0595523499406
_cell_formula_units_Z  12
loop_
  _symmetry_equiv_pos_site_id
 _symmetry_equiv_pos_as_xyz
 1  'x, y, z'
loop_
 _atom_site_type_symbol
 _atom_site_label
 _atom_site_symmetry_multiplicity
 _atom_site_fract_x
 _atom_site_fract_y
 _atom_site_fract_z
 _atom_site_fract_occupancy
 B  B1  1  0.53739  0.25000  0.79528  1
 B  B2  1  0.16786  0.36470  0.46354  1
 B  B3  1  0.46261  0.75000  0.20472  1
 B  B4  1  0.96261  0.75000  0.29528  1
 B  B5  1  0.66786  0.13530  0.03646  1
 B  B6  1  0.16786  0.13530  0.46354  1
 B  B7  1  0.03739  0.25000  0.70472  1
 B  B8  1  0.83214  0.86470  0.53646  1
 B  B9  1  0.33214  0.86470  0.96354  1
 B  B10  1  0.83214  0.63530  0.53646  1
 B  B11  1  0.66786  0.36470  0.03646  1
 B  B12  1  0.33214  0.63530  0.96354  1
 Cl  Cl1  1  0.86803  0.25000  0.62593  1
 Cl  Cl2  1  0.79296  0.47731  0.03582  1
 Cl  Cl3  1  0.29296  0.02269  0.46418  1
 Cl  Cl4  1  0.36803  0.25000  0.87407  1
 Cl  Cl5  1  0.63197  0.75000  0.12593  1
 Cl  Cl6  1  0.20704  0.97731  0.96418  1
 Cl  Cl7  1  0.13197  0.75000  0.37407  1
 Cl  Cl8  1  0.53850  0.25000  0.56501  1
 Cl  Cl9  1  0.03850  0.25000  0.93499  1
 Cl  Cl10  1  0.70704  0.97731  0.53582  1
 Cl  Cl11  1  0.46439  0.89471  0.81516  1
 Cl  Cl12  1  0.29296  0.47731  0.46418  1
 Cl  Cl13  1  0.03561  0.10529  0.31516  1
 Cl  Cl14  1  0.53561  0.39471  0.18484  1
 Cl  Cl15  1  0.96439  0.60529  0.68484  1
 Cl  Cl16  1  0.70704  0.52269  0.53582  1
 Cl  Cl17  1  0.96439  0.89471  0.68484  1
 Cl  Cl18  1  0.46439  0.60529  0.81516  1
 Cl  Cl19  1  0.03561  0.39471  0.31516  1
 Cl  Cl20  1  0.53561  0.10529  0.18484  1
 Cl  Cl21  1  0.46150  0.75000  0.43499  1
 Cl  Cl22  1  0.79296  0.02269  0.03582  1
 Cl  Cl23  1  0.20704  0.52269  0.96418  1
 Cl  Cl24  1  0.96150  0.75000  0.06501  1
 H  H1  1  0.67170  0.75000  0.52660  1
 H  H2  1  0.80948  0.86965  0.27555  1
 H  H3  1  0.30948  0.63035  0.22445  1
 H  H4  1  0.05412  0.07360  0.66330  1
 H  H5  1  0.30948  0.86965  0.22445  1
 H  H6  1  0.69052  0.36965  0.77555  1
 H  H7  1  0.19052  0.13035  0.72445  1
 H  H8  1  0.82830  0.25000  0.02660  1
 H  H9  1  0.55412  0.07360  0.83670  1
 H  H10  1  0.44588  0.57360  0.16330  1
 H  H11  1  0.94588  0.92640  0.33670  1
 H  H12  1  0.44588  0.92640  0.16330  1
 H  H13  1  0.94588  0.57360  0.33670  1
 H  H14  1  0.55412  0.42640  0.83670  1
 H  H15  1  0.80948  0.63035  0.27555  1
 H  H16  1  0.05412  0.42640  0.66330  1
 H  H17  1  0.32830  0.25000  0.47340  1
 H  H18  1  0.25627  0.25000  0.29378  1
 H  H19  1  0.75627  0.25000  0.20622  1
 H  H20  1  0.17170  0.75000  0.97340  1
 H  H21  1  0.24373  0.75000  0.79378  1
 H  H22  1  0.74373  0.75000  0.70622  1
 H  H23  1  0.69052  0.13035  0.77555  1
 H  H24  1  0.19052  0.36965  0.72445  1
 N  N1  1  0.61292  0.35690  0.85510  1
 N  N2  1  0.88708  0.64310  0.35510  1
 N  N3  1  0.38708  0.85690  0.14490  1
 N  N4  1  0.38708  0.64310  0.14490  1
 N  N5  1  0.11292  0.14310  0.64490  1
 N  N6  1  0.26347  0.75000  0.91850  1
 N  N7  1  0.76347  0.75000  0.58150  1
 N  N8  1  0.23653  0.25000  0.41850  1
 N  N9  1  0.73653  0.25000  0.08150  1
 N  N10  1  0.11292  0.35690  0.64490  1
 N  N11  1  0.61292  0.14310  0.85510  1
 N  N12  1  0.88708  0.85690  0.35510  1
