CIF file written using JARVIS-Tools package.
data_NbTlB2O6
_symmetry_space_group_name_H-M  'Pna2_1'
_cell_length_a       7.43177
_cell_length_b       7.82311
_cell_length_c       9.46091
_cell_angle_alpha    90
_cell_angle_beta     90
_cell_angle_gamma    90

_symmetry_Int_Tables_number  33
_chemical_formula_structural  NbTlB2O6
_chemical_formula_sum  Nb4Tl4B8O24
_cell_volume  550.0526379464858
_cell_formula_units_Z  4
loop_
  _symmetry_equiv_pos_site_id
 _symmetry_equiv_pos_as_xyz
 1  'x, y, z'
loop_
 _atom_site_type_symbol
 _atom_site_label
 _atom_site_symmetry_multiplicity
 _atom_site_fract_x
 _atom_site_fract_y
 _atom_site_fract_z
 _atom_site_fract_occupancy
 B  B1  1  0.90706  0.73272  0.07569  1
 B  B2  1  0.40706  0.76728  0.57569  1
 B  B3  1  0.42292  0.20880  0.57889  1
 B  B4  1  0.09294  0.26728  0.57569  1
 B  B5  1  0.57708  0.79120  0.07889  1
 B  B6  1  0.07708  0.70880  0.57889  1
 B  B7  1  0.92292  0.29120  0.07889  1
 B  B8  1  0.59294  0.23272  0.07569  1
 Nb  Nb1  1  0.23793  0.84517  0.86558  1
 Nb  Nb2  1  0.26207  0.34517  0.86558  1
 Nb  Nb3  1  0.76207  0.15483  0.36558  1
 Nb  Nb4  1  0.73793  0.65483  0.36558  1
 O  O1  1  0.09206  0.35697  0.69900  1
 O  O2  1  0.68205  0.42693  0.36422  1
 O  O3  1  0.44028  0.86431  0.00286  1
 O  O4  1  0.40794  0.85697  0.69900  1
 O  O5  1  0.25401  0.21441  0.51163  1
 O  O6  1  0.05972  0.36431  0.00286  1
 O  O7  1  0.05295  0.76859  0.71304  1
 O  O8  1  0.74599  0.78559  0.01163  1
 O  O9  1  0.43643  0.27505  0.01147  1
 O  O10  1  0.44705  0.26859  0.71304  1
 O  O11  1  0.59206  0.14303  0.19900  1
 O  O12  1  0.55972  0.13569  0.50286  1
 O  O13  1  0.94028  0.63569  0.50286  1
 O  O14  1  0.75401  0.28559  0.01163  1
 O  O15  1  0.18205  0.07307  0.86422  1
 O  O16  1  0.81795  0.92693  0.36422  1
 O  O17  1  0.31795  0.57307  0.86422  1
 O  O18  1  0.55295  0.73141  0.21304  1
 O  O19  1  0.06357  0.77505  0.01147  1
 O  O20  1  0.56357  0.72495  0.51147  1
 O  O21  1  0.24599  0.71441  0.51163  1
 O  O22  1  0.94705  0.23141  0.21304  1
 O  O23  1  0.93643  0.22495  0.51147  1
 O  O24  1  0.90794  0.64303  0.19900  1
 Tl  Tl1  1  0.24508  0.49794  0.25783  1
 Tl  Tl2  1  0.74508  0.00206  0.75783  1
 Tl  Tl3  1  0.75492  0.50206  0.75783  1
 Tl  Tl4  1  0.25492  -0.00206  0.25783  1
