CIF file written using JARVIS-Tools package.
data_K4GeS4
_symmetry_space_group_name_H-M  'P-43n'
_cell_length_a       12.7371
_cell_length_b       12.7371
_cell_length_c       12.7371
_cell_angle_alpha    90
_cell_angle_beta     90
_cell_angle_gamma    90

_symmetry_Int_Tables_number  218
_chemical_formula_structural  K4GeS4
_chemical_formula_sum  K32Ge8S32
_cell_volume  2066.37388892361
_cell_formula_units_Z  8
loop_
  _symmetry_equiv_pos_site_id
 _symmetry_equiv_pos_as_xyz
 1  'x, y, z'
loop_
 _atom_site_type_symbol
 _atom_site_label
 _atom_site_symmetry_multiplicity
 _atom_site_fract_x
 _atom_site_fract_y
 _atom_site_fract_z
 _atom_site_fract_occupancy
 Ge  Ge1  1  0.00000  0.25000  0.50000  1
 Ge  Ge2  1  0.00000  0.75000  0.50000  1
 Ge  Ge3  1  0.50000  0.00000  0.25000  1
 Ge  Ge4  1  0.50000  0.00000  0.75000  1
 Ge  Ge5  1  0.25000  0.50000  0.00000  1
 Ge  Ge6  1  0.50000  0.50000  0.50000  1
 Ge  Ge7  1  0.75000  0.50000  0.00000  1
 Ge  Ge8  1  0.00000  0.00000  0.00000  1
 K  K1  1  0.84799  0.15201  0.84799  1
 K  K2  1  0.65101  0.13492  0.08656  1
 K  K3  1  0.84899  0.58656  0.36508  1
 K  K4  1  0.41344  0.36508  0.15101  1
 K  K5  1  0.15101  0.41344  0.36508  1
 K  K6  1  0.91344  0.34899  0.13492  1
 K  K7  1  0.15201  0.84799  0.84799  1
 K  K8  1  0.65201  0.65201  0.65201  1
 K  K9  1  0.84899  0.41344  0.63492  1
 K  K10  1  0.15101  0.58656  0.63492  1
 K  K11  1  0.63492  0.84899  0.41344  1
 K  K12  1  0.65201  0.34799  0.34799  1
 K  K13  1  0.36508  0.15101  0.41344  1
 K  K14  1  0.13492  0.08656  0.65101  1
 K  K15  1  0.65101  0.86508  0.91344  1
 K  K16  1  0.84799  0.84799  0.15201  1
 K  K17  1  0.58656  0.63492  0.15101  1
 K  K18  1  0.58656  0.36508  0.84899  1
 K  K19  1  0.91344  0.65101  0.86508  1
 K  K20  1  0.34799  0.65201  0.34799  1
 K  K21  1  0.86508  0.91344  0.65101  1
 K  K22  1  0.13492  0.91344  0.34899  1
 K  K23  1  0.08656  0.65101  0.13492  1
 K  K24  1  0.41344  0.63492  0.84899  1
 K  K25  1  0.08656  0.34899  0.86508  1
 K  K26  1  0.34899  0.13492  0.91344  1
 K  K27  1  0.34899  0.86508  0.08656  1
 K  K28  1  0.63492  0.15101  0.58656  1
 K  K29  1  0.15201  0.15201  0.15201  1
 K  K30  1  0.34799  0.34799  0.65201  1
 K  K31  1  0.36508  0.84899  0.58656  1
 K  K32  1  0.86508  0.08656  0.34899  1
 S  S1  1  0.59752  0.88830  0.15380  1
 S  S2  1  0.11170  0.84620  0.59752  1
 S  S3  1  0.88830  0.84620  0.40248  1
 S  S4  1  0.34620  0.38830  0.90248  1
 S  S5  1  0.09752  0.65380  0.38830  1
 S  S6  1  0.11170  0.15380  0.40248  1
 S  S7  1  0.65380  0.38830  0.09752  1
 S  S8  1  0.60172  0.39828  0.60172  1
 S  S9  1  0.89828  0.89828  0.89828  1
 S  S10  1  0.38830  0.09752  0.65380  1
 S  S11  1  0.89828  0.10172  0.10172  1
 S  S12  1  0.61170  0.90248  0.65380  1
 S  S13  1  0.84620  0.59752  0.11170  1
 S  S14  1  0.34620  0.61170  0.09752  1
 S  S15  1  0.15380  0.40248  0.11170  1
 S  S16  1  0.90248  0.65380  0.61170  1
 S  S17  1  0.10172  0.89828  0.10172  1
 S  S18  1  0.40248  0.88830  0.84620  1
 S  S19  1  0.09752  0.34620  0.61170  1
 S  S20  1  0.38830  0.90248  0.34620  1
 S  S21  1  0.84620  0.40248  0.88830  1
 S  S22  1  0.10172  0.10172  0.89828  1
 S  S23  1  0.61170  0.09752  0.34620  1
 S  S24  1  0.65380  0.61170  0.90248  1
 S  S25  1  0.39828  0.60172  0.60172  1
 S  S26  1  0.88830  0.15380  0.59752  1
 S  S27  1  0.59752  0.11170  0.84620  1
 S  S28  1  0.39828  0.39828  0.39828  1
 S  S29  1  0.40248  0.11170  0.15380  1
 S  S30  1  0.15380  0.59752  0.88830  1
 S  S31  1  0.90248  0.34620  0.38830  1
 S  S32  1  0.60172  0.60172  0.39828  1
