CIF file written using JARVIS-Tools package.
data_Ba2P2O7
_symmetry_space_group_name_H-M  'Pnma'
_cell_length_a       9.3547
_cell_length_b       5.64082
_cell_length_c       13.8697
_cell_angle_alpha    90
_cell_angle_beta     90
_cell_angle_gamma    90

_symmetry_Int_Tables_number  62
_chemical_formula_structural  Ba2P2O7
_chemical_formula_sum  Ba8P8O28
_cell_volume  731.8791338944425
_cell_formula_units_Z  4
loop_
  _symmetry_equiv_pos_site_id
 _symmetry_equiv_pos_as_xyz
 1  'x, y, z'
loop_
 _atom_site_type_symbol
 _atom_site_label
 _atom_site_symmetry_multiplicity
 _atom_site_fract_x
 _atom_site_fract_y
 _atom_site_fract_z
 _atom_site_fract_occupancy
 Ba  Ba1  1  0.36388  0.25000  0.08312  1
 Ba  Ba2  1  0.86388  0.25000  0.41688  1
 Ba  Ba3  1  0.63612  0.75000  0.91688  1
 Ba  Ba4  1  0.13612  0.75000  0.58312  1
 Ba  Ba5  1  0.34078  0.25000  0.75425  1
 Ba  Ba6  1  0.84078  0.25000  0.74575  1
 Ba  Ba7  1  0.65922  0.75000  0.24575  1
 Ba  Ba8  1  0.15922  0.75000  0.25425  1
 O  O1  1  0.09513  0.97498  0.76412  1
 O  O2  1  0.38519  0.25000  0.42484  1
 O  O3  1  0.85466  0.52608  0.58121  1
 O  O4  1  0.77711  0.75000  0.43155  1
 O  O5  1  0.27711  0.75000  0.06845  1
 O  O6  1  0.22289  0.25000  0.56845  1
 O  O7  1  0.72289  0.25000  0.93155  1
 O  O8  1  0.35466  0.97392  0.91879  1
 O  O9  1  0.64534  0.47392  0.08121  1
 O  O10  1  0.88434  0.75000  0.83267  1
 O  O11  1  0.11481  0.75000  0.92484  1
 O  O12  1  0.85466  0.97392  0.58121  1
 O  O13  1  0.35466  0.52608  0.91879  1
 O  O14  1  0.14534  0.47392  0.41879  1
 O  O15  1  0.64534  0.02608  0.08121  1
 O  O16  1  0.14534  0.02608  0.41879  1
 O  O17  1  0.61566  0.25000  0.33267  1
 O  O18  1  0.59513  0.52502  0.73588  1
 O  O19  1  0.40487  0.02502  0.26412  1
 O  O20  1  0.11566  0.25000  0.16733  1
 O  O21  1  0.61481  0.75000  0.57516  1
 O  O22  1  0.90487  0.02502  0.23588  1
 O  O23  1  0.40487  0.47498  0.26412  1
 O  O24  1  0.38434  0.75000  0.66733  1
 O  O25  1  0.59513  0.97498  0.73588  1
 O  O26  1  0.88519  0.25000  0.07516  1
 O  O27  1  0.90487  0.47498  0.23588  1
 O  O28  1  0.09513  0.52502  0.76412  1
 P  P1  1  0.71911  0.25000  0.04214  1
 P  P2  1  0.21911  0.25000  0.45786  1
 P  P3  1  0.28089  0.75000  0.95786  1
 P  P4  1  0.04546  0.75000  0.81663  1
 P  P5  1  0.95454  0.25000  0.18337  1
 P  P6  1  0.45454  0.25000  0.31663  1
 P  P7  1  0.54546  0.75000  0.68337  1
 P  P8  1  0.78089  0.75000  0.54214  1
