CIF file written using JARVIS-Tools package.
data_HgBiO3
_symmetry_space_group_name_H-M  'R-3c'
_cell_length_a       5.93418
_cell_length_b       6.10319
_cell_length_c       5.93418
_cell_angle_alpha    119.088
_cell_angle_beta     60
_cell_angle_gamma    119.088

_symmetry_Int_Tables_number  167
_chemical_formula_structural  HgBiO3
_chemical_formula_sum  Hg2Bi2O6
_cell_volume  154.0328952396922
_cell_formula_units_Z  2
loop_
  _symmetry_equiv_pos_site_id
 _symmetry_equiv_pos_as_xyz
 1  'x, y, z'
loop_
 _atom_site_type_symbol
 _atom_site_label
 _atom_site_symmetry_multiplicity
 _atom_site_fract_x
 _atom_site_fract_y
 _atom_site_fract_z
 _atom_site_fract_occupancy
 Bi  Bi1  1  0.00000  0.00000  0.00000  1
 Bi  Bi2  1  0.50000  0.50000  0.50000  1
 Hg  Hg1  1  0.25000  0.75000  0.25000  1
 Hg  Hg2  1  0.75000  0.25000  0.75000  1
 O  O1  1  0.12498  0.25000  0.37502  1
 O  O2  1  0.25000  0.75000  0.87502  1
 O  O3  1  0.62498  0.75000  0.25000  1
 O  O4  1  0.37502  0.25000  0.75000  1
 O  O5  1  0.75000  0.25000  0.12498  1
 O  O6  1  0.87502  0.75000  0.62498  1
