CIF file written using JARVIS-Tools package.
data_LiAgF2
_symmetry_space_group_name_H-M  'C2/m'
_cell_length_a       2.98131
_cell_length_b       2.98126
_cell_length_c       6.48275
_cell_angle_alpha    77.3602
_cell_angle_beta     77.1718
_cell_angle_gamma    59.993

_symmetry_Int_Tables_number  12
_chemical_formula_structural  LiAgF2
_chemical_formula_sum  LiAgF2
_cell_volume  48.25272191795624
_cell_formula_units_Z  1
loop_
  _symmetry_equiv_pos_site_id
 _symmetry_equiv_pos_as_xyz
 1  'x, y, z'
loop_
 _atom_site_type_symbol
 _atom_site_label
 _atom_site_symmetry_multiplicity
 _atom_site_fract_x
 _atom_site_fract_y
 _atom_site_fract_z
 _atom_site_fract_occupancy
 Ag  Ag1  1  0.00332  -0.00257  0.99754  1
 F  F1  1  0.89184  0.88369  0.32803  1
 F  F2  1  0.11456  0.11140  0.66705  1
 Li  Li1  1  0.50312  0.49762  0.49753  1
