CIF file written using JARVIS-Tools package.
data_LaMg2Ni
_symmetry_space_group_name_H-M  'Cmcm'
_cell_length_a       4.18086
_cell_length_b       5.49308
_cell_length_c       8.28189
_cell_angle_alpha    90
_cell_angle_beta     90
_cell_angle_gamma    112.368

_symmetry_Int_Tables_number  63
_chemical_formula_structural  LaMg2Ni
_chemical_formula_sum  La2Mg4Ni2
_cell_volume  175.8891218541968
_cell_formula_units_Z  2
loop_
  _symmetry_equiv_pos_site_id
 _symmetry_equiv_pos_as_xyz
 1  'x, y, z'
loop_
 _atom_site_type_symbol
 _atom_site_label
 _atom_site_symmetry_multiplicity
 _atom_site_fract_x
 _atom_site_fract_y
 _atom_site_fract_z
 _atom_site_fract_occupancy
 La  La1  1  0.55974  0.11948  0.25000  1
 La  La2  1  0.44026  0.88052  0.75000  1
 Mg  Mg1  1  0.15444  0.30888  0.55521  1
 Mg  Mg2  1  0.84556  0.69112  0.44479  1
 Mg  Mg3  1  0.15444  0.30888  0.94479  1
 Mg  Mg4  1  0.84556  0.69112  0.05521  1
 Ni  Ni1  1  0.72566  0.45132  0.75000  1
 Ni  Ni2  1  0.27434  0.54868  0.25000  1
