CIF file written using JARVIS-Tools package.
data_PNO
_symmetry_space_group_name_H-M  'P3_2'
_cell_length_a       4.72852
_cell_length_b       4.72852
_cell_length_c       5.25653
_cell_angle_alpha    90
_cell_angle_beta     90
_cell_angle_gamma    120

_symmetry_Int_Tables_number  145
_chemical_formula_structural  PNO
_chemical_formula_sum  P3N3O3
_cell_volume  101.78418274533492
_cell_formula_units_Z  3
loop_
  _symmetry_equiv_pos_site_id
 _symmetry_equiv_pos_as_xyz
 1  'x, y, z'
loop_
 _atom_site_type_symbol
 _atom_site_label
 _atom_site_symmetry_multiplicity
 _atom_site_fract_x
 _atom_site_fract_y
 _atom_site_fract_z
 _atom_site_fract_occupancy
 N  N1  1  0.38704  0.26883  0.77717  1
 N  N2  1  0.88178  0.61296  0.11050  1
 N  N3  1  0.73117  0.11822  0.44384  1
 O  O1  1  0.13763  0.71270  0.56164  1
 O  O2  1  0.28730  0.42493  0.22831  1
 O  O3  1  0.57507  0.86237  0.89497  1
 P  P1  1  0.98635  0.45723  0.32786  1
 P  P2  1  0.54277  0.52912  0.99452  1
 P  P3  1  0.47088  0.01365  0.66119  1
