CIF file written using JARVIS-Tools package.
data_Li2Mg2MnFeP4O16
_symmetry_space_group_name_H-M  'P1'
_cell_length_a       4.78355
_cell_length_b       5.9012
_cell_length_c       10.0116
_cell_angle_alpha    90.0662
_cell_angle_beta     90.6818
_cell_angle_gamma    90.7698

_symmetry_Int_Tables_number  1
_chemical_formula_structural  Li2Mg2MnFeP4O16
_chemical_formula_sum  Li2Mg2MnFeP4O6
_cell_volume  282.5686208637481
_cell_formula_units_Z  1
loop_
  _symmetry_equiv_pos_site_id
 _symmetry_equiv_pos_as_xyz
 1  'x, y, z'
loop_
 _atom_site_type_symbol
 _atom_site_label
 _atom_site_symmetry_multiplicity
 _atom_site_fract_x
 _atom_site_fract_y
 _atom_site_fract_z
 _atom_site_fract_occupancy
 Fe  Fe1  1  0.96837  0.24753  0.72376  1
 Li  Li1  1  -0.00097  0.53938  -0.00830  1
 Li  Li2  1  0.48982  0.95836  0.49297  1
 Mg  Mg1  1  0.02880  0.74898  0.27797  1
 Mg  Mg2  1  0.47282  0.74959  0.77629  1
 Mn  Mn1  1  0.55487  0.25011  0.21868  1
 O  O1  1  0.16191  0.25208  0.55190  1
 O  O2  1  0.23781  0.03934  0.33965  1
 O  O3  1  0.77141  0.95655  0.66693  1
 O  O4  1  0.23612  0.76150  0.60768  1
 O  O5  1  0.25751  0.73874  0.10567  1
 O  O6  1  0.27384  0.04973  0.82975  1
 O  O7  1  0.22861  0.45268  0.32637  1
 O  O8  1  0.33738  0.24711  0.05765  1
 O  O9  1  0.72664  0.54577  0.16638  1
 O  O10  1  0.77001  0.24159  0.38056  1
 O  O11  1  0.73268  0.26268  0.89047  1
 O  O12  1  0.26076  0.45755  0.84266  1
 O  O13  1  0.78949  0.54509  0.67641  1
 O  O14  1  0.67968  0.75102  0.95143  1
 O  O15  1  0.70926  0.95320  0.17650  1
 O  O16  1  0.81219  0.75054  0.45105  1
 P  P1  1  0.41515  0.24930  0.90704  1
 P  P2  1  0.09355  0.25171  0.40084  1
 P  P3  1  0.57295  0.75197  0.09444  1
 P  P4  1  0.91934  0.74787  0.59526  1
