CIF file written using JARVIS-Tools package.
data_NbBr5
_symmetry_space_group_name_H-M  'P-1'
_cell_length_a       6.50415
_cell_length_b       7.09251
_cell_length_c       9.66043
_cell_angle_alpha    108.856
_cell_angle_beta     90.8624
_cell_angle_gamma    116.198

_symmetry_Int_Tables_number  2
_chemical_formula_structural  NbBr5
_chemical_formula_sum  Nb2Br0
_cell_volume  371.8167126501365
_cell_formula_units_Z  2
loop_
  _symmetry_equiv_pos_site_id
 _symmetry_equiv_pos_as_xyz
 1  'x, y, z'
loop_
 _atom_site_type_symbol
 _atom_site_label
 _atom_site_symmetry_multiplicity
 _atom_site_fract_x
 _atom_site_fract_y
 _atom_site_fract_z
 _atom_site_fract_occupancy
 Br  Br1  1  0.87542  0.38532  0.64807  1
 Br  Br2  1  0.24908  0.18810  0.45445  1
 Br  Br3  1  0.12458  0.61468  0.35193  1
 Br  Br4  1  0.54154  0.41207  0.16475  1
 Br  Br5  1  0.45846  0.58793  0.83525  1
 Br  Br6  1  0.68837  0.99598  0.25173  1
 Br  Br7  1  0.75092  0.81190  0.54555  1
 Br  Br8  1  0.07683  0.81342  0.06085  1
 Br  Br9  1  0.92317  0.18658  0.93915  1
 Br  Br10  1  0.31163  0.00402  0.74827  1
 Nb  Nb1  1  0.10767  0.22282  0.72386  1
 Nb  Nb2  1  0.89233  0.77718  0.27614  1
