CIF file written using JARVIS-Tools package.
data_Cu4H3C2N5
_symmetry_space_group_name_H-M  'P6_3mc'
_cell_length_a       5.63794
_cell_length_b       5.63794
_cell_length_c       10.9382
_cell_angle_alpha    90
_cell_angle_beta     90
_cell_angle_gamma    120

_symmetry_Int_Tables_number  186
_chemical_formula_structural  Cu4H3C2N5
_chemical_formula_sum  Cu8H6C4N0
_cell_volume  301.10552214596134
_cell_formula_units_Z  2
loop_
  _symmetry_equiv_pos_site_id
 _symmetry_equiv_pos_as_xyz
 1  'x, y, z'
loop_
 _atom_site_type_symbol
 _atom_site_label
 _atom_site_symmetry_multiplicity
 _atom_site_fract_x
 _atom_site_fract_y
 _atom_site_fract_z
 _atom_site_fract_occupancy
 C  C1  1  0.00000  0.00000  0.44210  1
 C  C2  1  0.33333  0.66667  0.52731  1
 C  C3  1  0.00000  0.00000  0.94210  1
 C  C4  1  0.66667  0.33333  0.02731  1
 Cu  Cu1  1  0.83179  0.66358  0.23631  1
 Cu  Cu2  1  0.33642  0.16821  0.23631  1
 Cu  Cu3  1  0.83179  0.16821  0.23631  1
 Cu  Cu4  1  0.66667  0.33333  0.74953  1
 Cu  Cu5  1  0.66358  0.83179  0.73631  1
 Cu  Cu6  1  0.16821  0.33642  0.73631  1
 Cu  Cu7  1  0.33333  0.66667  0.24953  1
 Cu  Cu8  1  0.16821  0.83179  0.73631  1
 H  H1  1  0.76505  0.53010  0.53708  1
 H  H2  1  0.46990  0.23495  0.53708  1
 H  H3  1  0.23495  0.76505  0.03708  1
 H  H4  1  0.53010  0.76505  0.03708  1
 H  H5  1  0.23495  0.46990  0.03708  1
 H  H6  1  0.76505  0.23495  0.53708  1
 N  N1  1  0.00000  0.00000  0.05132  1
 N  N2  1  0.33333  0.66667  0.41890  1
 N  N3  1  0.66667  0.33333  0.14485  1
 N  N4  1  0.00000  0.00000  0.32450  1
 N  N5  1  0.66667  0.33333  0.91890  1
 N  N6  1  0.00000  0.00000  0.82450  1
 N  N7  1  0.00000  0.00000  0.55132  1
 N  N8  1  0.66667  0.33333  0.57052  1
 N  N9  1  0.33333  0.66667  0.07052  1
 N  N10  1  0.33333  0.66667  0.64485  1
