CIF file written using JARVIS-Tools package.
data_Sr3Al2N4
_symmetry_space_group_name_H-M  'Pnna'
_cell_length_a       5.9364
_cell_length_b       9.57495
_cell_length_c       10.0356
_cell_angle_alpha    90
_cell_angle_beta     90
_cell_angle_gamma    90

_symmetry_Int_Tables_number  52
_chemical_formula_structural  Sr3Al2N4
_chemical_formula_sum  Sr2Al8N6
_cell_volume  570.4282165332344
_cell_formula_units_Z  4
loop_
  _symmetry_equiv_pos_site_id
 _symmetry_equiv_pos_as_xyz
 1  'x, y, z'
loop_
 _atom_site_type_symbol
 _atom_site_label
 _atom_site_symmetry_multiplicity
 _atom_site_fract_x
 _atom_site_fract_y
 _atom_site_fract_z
 _atom_site_fract_occupancy
 Al  Al1  1  0.75000  0.27039  0.50000  1
 Al  Al2  1  0.75000  0.22961  0.00000  1
 Al  Al3  1  0.25000  0.77039  0.00000  1
 Al  Al4  1  0.66796  0.25000  0.25000  1
 Al  Al5  1  0.83204  0.25000  0.75000  1
 Al  Al6  1  0.16796  0.75000  0.25000  1
 Al  Al7  1  0.33204  0.75000  0.75000  1
 Al  Al8  1  0.25000  0.72961  0.50000  1
 N  N1  1  0.98101  0.17060  0.59666  1
 N  N2  1  0.51899  0.17060  0.40334  1
 N  N3  1  0.51899  0.32940  0.09666  1
 N  N4  1  0.36733  0.62724  0.35353  1
 N  N5  1  0.13267  0.87276  0.85353  1
 N  N6  1  0.36733  0.87276  0.14647  1
 N  N7  1  0.63267  0.37276  0.64647  1
 N  N8  1  0.86733  0.37276  0.35353  1
 N  N9  1  0.86733  0.12724  0.14647  1
 N  N10  1  0.63267  0.12724  0.85353  1
 N  N11  1  0.48101  0.82940  0.59666  1
 N  N12  1  0.98101  0.32940  0.90334  1
 N  N13  1  0.01899  0.67060  0.09666  1
 N  N14  1  0.01899  0.82940  0.40334  1
 N  N15  1  0.13267  0.62724  0.64647  1
 N  N16  1  0.48101  0.67060  0.90334  1
 Sr  Sr1  1  0.25000  0.40429  0.50000  1
 Sr  Sr2  1  0.25000  0.09571  0.00000  1
 Sr  Sr3  1  0.75000  0.59571  0.50000  1
 Sr  Sr4  1  0.75000  0.90429  0.00000  1
 Sr  Sr5  1  0.11724  0.41530  0.15533  1
 Sr  Sr6  1  0.38276  0.41530  0.84467  1
 Sr  Sr7  1  0.38276  0.08470  0.65533  1
 Sr  Sr8  1  0.11724  0.08470  0.34467  1
 Sr  Sr9  1  0.88276  0.58470  0.84467  1
 Sr  Sr10  1  0.61724  0.58470  0.15533  1
 Sr  Sr11  1  0.61724  0.91530  0.34467  1
 Sr  Sr12  1  0.88276  0.91530  0.65533  1
