CIF file written using JARVIS-Tools package.
data_DySiAg
_symmetry_space_group_name_H-M  'P-62m'
_cell_length_a       4.1813
_cell_length_b       7.0561
_cell_length_c       7.05628
_cell_angle_alpha    119.999
_cell_angle_beta     90
_cell_angle_gamma    90

_symmetry_Int_Tables_number  189
_chemical_formula_structural  DySiAg
_chemical_formula_sum  Dy3Si3Ag3
_cell_volume  180.2959730925381
_cell_formula_units_Z  3
loop_
  _symmetry_equiv_pos_site_id
 _symmetry_equiv_pos_as_xyz
 1  'x, y, z'
loop_
 _atom_site_type_symbol
 _atom_site_label
 _atom_site_symmetry_multiplicity
 _atom_site_fract_x
 _atom_site_fract_y
 _atom_site_fract_z
 _atom_site_fract_occupancy
 Ag  Ag1  1  0.00000  0.25165  0.00000  1
 Ag  Ag2  1  0.00000  0.74830  0.74831  1
 Ag  Ag3  1  0.00000  -0.00001  0.25169  1
 Dy  Dy1  1  0.50000  0.58330  0.00000  1
 Dy  Dy2  1  0.50000  0.41669  0.41669  1
 Dy  Dy3  1  0.50000  0.00000  0.58331  1
 Si  Si1  1  0.00000  0.33332  0.66667  1
 Si  Si2  1  0.00000  0.66665  0.33333  1
 Si  Si3  1  0.50000  -0.00001  0.00000  1
