CIF file written using JARVIS-Tools package.
data_Li3NbO4
_symmetry_space_group_name_H-M  'I4/mmm'
_cell_length_a       5.87511
_cell_length_b       7.80851
_cell_length_c       5.14322
_cell_angle_alpha    29.124
_cell_angle_beta     55.1694
_cell_angle_gamma    41.2014

_symmetry_Int_Tables_number  139
_chemical_formula_structural  Li3NbO4
_chemical_formula_sum  Li3NbO4
_cell_volume  72.86394022577582
_cell_formula_units_Z  1
loop_
  _symmetry_equiv_pos_site_id
 _symmetry_equiv_pos_as_xyz
 1  'x, y, z'
loop_
 _atom_site_type_symbol
 _atom_site_label
 _atom_site_symmetry_multiplicity
 _atom_site_fract_x
 _atom_site_fract_y
 _atom_site_fract_z
 _atom_site_fract_occupancy
 Li  Li1  1  0.25000  0.50000  0.00000  1
 Li  Li2  1  0.75000  0.50000  0.00000  1
 Li  Li3  1  0.50000  0.00000  0.00000  1
 Nb  Nb1  1  0.00000  0.00000  0.00000  1
 O  O1  1  0.23083  0.00002  0.53830  1
 O  O2  1  0.76917  -0.00002  0.46170  1
 O  O3  1  0.50000  0.50000  0.50000  1
 O  O4  1  -0.00000  0.50000  0.50000  1
