CIF file written using JARVIS-Tools package.
data_Ca4TiN4
_symmetry_space_group_name_H-M  'P-1'
_cell_length_a       5.98488
_cell_length_b       6.01814
_cell_length_c       8.97578
_cell_angle_alpha    71.6099
_cell_angle_beta     79.3523
_cell_angle_gamma    67.9612

_symmetry_Int_Tables_number  2
_chemical_formula_structural  Ca4TiN4
_chemical_formula_sum  Ca8Ti2N8
_cell_volume  283.55124405888057
_cell_formula_units_Z  2
loop_
  _symmetry_equiv_pos_site_id
 _symmetry_equiv_pos_as_xyz
 1  'x, y, z'
loop_
 _atom_site_type_symbol
 _atom_site_label
 _atom_site_symmetry_multiplicity
 _atom_site_fract_x
 _atom_site_fract_y
 _atom_site_fract_z
 _atom_site_fract_occupancy
 Ca  Ca1  1  0.23442  0.95511  0.60755  1
 Ca  Ca2  1  0.77297  0.57939  0.17682  1
 Ca  Ca3  1  0.73837  0.22974  0.98050  1
 Ca  Ca4  1  0.27106  0.51974  0.42694  1
 Ca  Ca5  1  0.76558  0.04489  0.39245  1
 Ca  Ca6  1  0.22703  0.42061  0.82318  1
 Ca  Ca7  1  0.72894  0.48026  0.57306  1
 Ca  Ca8  1  0.26163  0.77026  0.01950  1
 N  N1  1  0.48898  0.82274  0.36426  1
 N  N2  1  0.11645  0.16788  0.07220  1
 N  N3  1  0.51683  0.63418  0.80418  1
 N  N4  1  0.02935  0.29159  0.39057  1
 N  N5  1  0.88355  0.83212  0.92780  1
 N  N6  1  0.97065  0.70841  0.60943  1
 N  N7  1  0.48317  0.36582  0.19582  1
 N  N8  1  0.51102  0.17726  0.63574  1
 Ti  Ti1  1  0.71513  0.84830  0.75644  1
 Ti  Ti2  1  0.28487  0.15170  0.24356  1
