CIF file written using JARVIS-Tools package.
data_Cr4OF11
_symmetry_space_group_name_H-M  'P1'
_cell_length_a       4.8627
_cell_length_b       5.2379
_cell_length_c       7.20288
_cell_angle_alpha    95.6966
_cell_angle_beta     90.0896
_cell_angle_gamma    90.8777

_symmetry_Int_Tables_number  1
_chemical_formula_structural  Cr4OF11
_chemical_formula_sum  Cr4OF
_cell_volume  182.5318163004305
_cell_formula_units_Z  1
loop_
  _symmetry_equiv_pos_site_id
 _symmetry_equiv_pos_as_xyz
 1  'x, y, z'
loop_
 _atom_site_type_symbol
 _atom_site_label
 _atom_site_symmetry_multiplicity
 _atom_site_fract_x
 _atom_site_fract_y
 _atom_site_fract_z
 _atom_site_fract_occupancy
 Cr  Cr1  1  0.50198  0.49982  0.49947  1
 Cr  Cr2  1  0.48182  0.48666  0.00154  1
 Cr  Cr3  1  0.00151  0.00007  0.49944  1
 Cr  Cr4  1  0.01198  0.01637  0.00223  1
 F  F1  1  0.14261  0.99529  0.74933  1
 F  F2  1  0.17869  0.67780  0.43068  1
 F  F3  1  0.32643  0.17558  0.42729  1
 F  F4  1  0.31437  0.81523  0.06920  1
 F  F5  1  0.36012  0.49661  0.74888  1
 F  F6  1  0.63774  0.50193  0.24907  1
 F  F7  1  0.68431  0.18203  0.92731  1
 F  F8  1  0.67751  0.82372  0.57173  1
 F  F9  1  0.82484  0.32223  0.56898  1
 F  F10  1  0.80779  0.69018  0.93868  1
 F  F11  1  0.86272  0.00316  0.25009  1
 O  O1  1  0.18557  0.31332  0.06608  1
