CIF file written using JARVIS-Tools package.
data_Na2Li3CoO4
_symmetry_space_group_name_H-M  'Pnnm'
_cell_length_a       6.5336
_cell_length_b       7.93549
_cell_length_c       8.18364
_cell_angle_alpha    90
_cell_angle_beta     90
_cell_angle_gamma    90

_symmetry_Int_Tables_number  58
_chemical_formula_structural  Na2Li3CoO4
_chemical_formula_sum  Na8Li2Co4O6
_cell_volume  424.2994637944566
_cell_formula_units_Z  4
loop_
  _symmetry_equiv_pos_site_id
 _symmetry_equiv_pos_as_xyz
 1  'x, y, z'
loop_
 _atom_site_type_symbol
 _atom_site_label
 _atom_site_symmetry_multiplicity
 _atom_site_fract_x
 _atom_site_fract_y
 _atom_site_fract_z
 _atom_site_fract_occupancy
 Co  Co1  1  0.00000  0.22686  0.11816  1
 Co  Co2  1  0.50000  0.27314  0.61816  1
 Co  Co3  1  0.50000  0.72686  0.38184  1
 Co  Co4  1  0.00000  0.77314  0.88184  1
 Li  Li1  1  0.00000  0.26444  0.40692  1
 Li  Li2  1  0.75413  0.48837  0.35086  1
 Li  Li3  1  0.50000  0.23556  0.90692  1
 Li  Li4  1  0.50000  0.76444  0.09308  1
 Li  Li5  1  0.24587  0.48837  0.35086  1
 Li  Li6  1  0.24587  0.51163  0.64914  1
 Li  Li7  1  0.74587  0.01163  0.85086  1
 Li  Li8  1  0.74587  0.98837  0.14914  1
 Li  Li9  1  0.75413  0.51163  0.64914  1
 Li  Li10  1  0.25413  0.98837  0.14914  1
 Li  Li11  1  0.25413  0.01163  0.85086  1
 Li  Li12  1  0.00000  0.73556  0.59308  1
 Na  Na1  1  0.75559  0.00000  0.50000  1
 Na  Na2  1  0.25559  0.50000  0.00000  1
 Na  Na3  1  0.74441  0.50000  0.00000  1
 Na  Na4  1  0.50000  0.24278  0.24996  1
 Na  Na5  1  0.50000  0.75722  0.75004  1
 Na  Na6  1  0.00000  0.74278  0.25004  1
 Na  Na7  1  0.00000  0.25722  0.74996  1
 Na  Na8  1  0.24441  0.00000  0.50000  1
 O  O1  1  0.00000  0.55821  0.77880  1
 O  O2  1  0.00000  0.44179  0.22120  1
 O  O3  1  0.50000  0.05821  0.72120  1
 O  O4  1  0.50000  0.94179  0.27880  1
 O  O5  1  0.75208  0.80400  0.98911  1
 O  O6  1  0.75208  0.19600  0.01089  1
 O  O7  1  0.74792  0.30400  0.51089  1
 O  O8  1  0.24792  0.80400  0.98911  1
 O  O9  1  0.24792  0.19600  0.01089  1
 O  O10  1  0.25208  0.69600  0.48911  1
 O  O11  1  0.25208  0.30400  0.51089  1
 O  O12  1  0.00000  0.95397  0.72361  1
 O  O13  1  0.00000  0.04603  0.27639  1
 O  O14  1  0.50000  0.45397  0.77639  1
 O  O15  1  0.74792  0.69600  0.48911  1
 O  O16  1  0.50000  0.54603  0.22361  1
