CIF file written using JARVIS-Tools package.
data_DyFe2B2
_symmetry_space_group_name_H-M  'I4/mmm'
_cell_length_a       3.61188
_cell_length_b       3.61187
_cell_length_c       5.32264
_cell_angle_alpha    109.834
_cell_angle_beta     109.834
_cell_angle_gamma    90.0001

_symmetry_Int_Tables_number  139
_chemical_formula_structural  DyFe2B2
_chemical_formula_sum  DyFe2B2
_cell_volume  60.92145636272534
_cell_formula_units_Z  1
loop_
  _symmetry_equiv_pos_site_id
 _symmetry_equiv_pos_as_xyz
 1  'x, y, z'
loop_
 _atom_site_type_symbol
 _atom_site_label
 _atom_site_symmetry_multiplicity
 _atom_site_fract_x
 _atom_site_fract_y
 _atom_site_fract_z
 _atom_site_fract_occupancy
 B  B1  1  0.34109  0.34109  0.68217  1
 B  B2  1  0.65891  0.65891  0.31783  1
 Dy  Dy1  1  0.00000  0.00000  0.00000  1
 Fe  Fe1  1  0.25000  0.75000  0.50000  1
 Fe  Fe2  1  0.75000  0.25000  0.50000  1
