CIF file written using JARVIS-Tools package.
data_TmTe3
_symmetry_space_group_name_H-M  'Cmcm'
_cell_length_a       4.32988
_cell_length_b       4.33128
_cell_length_c       12.9838
_cell_angle_alpha    90
_cell_angle_beta     99.5984
_cell_angle_gamma    90

_symmetry_Int_Tables_number  63
_chemical_formula_structural  TmTe3
_chemical_formula_sum  Tm2Te6
_cell_volume  240.08800667810536
_cell_formula_units_Z  2
loop_
  _symmetry_equiv_pos_site_id
 _symmetry_equiv_pos_as_xyz
 1  'x, y, z'
loop_
 _atom_site_type_symbol
 _atom_site_label
 _atom_site_symmetry_multiplicity
 _atom_site_fract_x
 _atom_site_fract_y
 _atom_site_fract_z
 _atom_site_fract_occupancy
 Te  Te1  1  0.92595  0.75000  0.85191  1
 Te  Te2  1  0.07405  0.25000  0.14809  1
 Te  Te3  1  0.57409  0.75000  0.14818  1
 Te  Te4  1  0.42591  0.25000  0.85182  1
 Te  Te5  1  0.29371  0.75000  0.58743  1
 Te  Te6  1  0.70629  0.25000  0.41257  1
 Tm  Tm1  1  0.17096  0.75000  0.34192  1
 Tm  Tm2  1  0.82904  0.25000  0.65808  1
