CIF file written using JARVIS-Tools package.
data_V3B4
_symmetry_space_group_name_H-M  'Immm'
_cell_length_a       6.94721
_cell_length_b       6.94721
_cell_length_c       6.94721
_cell_angle_alpha    155.238
_cell_angle_beta     154.596
_cell_angle_gamma    35.771

_symmetry_Int_Tables_number  71
_chemical_formula_structural  V3B4
_chemical_formula_sum  V3B4
_cell_volume  60.17468531008072
_cell_formula_units_Z  1
loop_
  _symmetry_equiv_pos_site_id
 _symmetry_equiv_pos_as_xyz
 1  'x, y, z'
loop_
 _atom_site_type_symbol
 _atom_site_label
 _atom_site_symmetry_multiplicity
 _atom_site_fract_x
 _atom_site_fract_y
 _atom_site_fract_z
 _atom_site_fract_occupancy
 B  B1  1  0.63598  0.63598  0.00000  1
 B  B2  1  0.36402  0.36402  0.00000  1
 B  B3  1  0.56556  0.06556  0.50000  1
 B  B4  1  0.43444  0.93444  0.50000  1
 V  V1  1  0.00000  0.50000  0.50000  1
 V  V2  1  0.81219  0.81219  0.00000  1
 V  V3  1  0.18781  0.18781  0.00000  1
