CIF file written using JARVIS-Tools package.
data_BeVMo
_symmetry_space_group_name_H-M  'I4mm'
_cell_length_a       6.06075
_cell_length_b       6.06075
_cell_length_c       6.06075
_cell_angle_alpha    155.481
_cell_angle_beta     155.481
_cell_angle_gamma    34.9508

_symmetry_Int_Tables_number  107
_chemical_formula_structural  BeVMo
_chemical_formula_sum  BeVMo
_cell_volume  38.29927008648782
_cell_formula_units_Z  1
loop_
  _symmetry_equiv_pos_site_id
 _symmetry_equiv_pos_as_xyz
 1  'x, y, z'
loop_
 _atom_site_type_symbol
 _atom_site_label
 _atom_site_symmetry_multiplicity
 _atom_site_fract_x
 _atom_site_fract_y
 _atom_site_fract_z
 _atom_site_fract_occupancy
 Be  Be1  1  0.00291  0.00291  0.00000  1
 Mo  Mo1  1  0.34781  0.34781  -0.00000  1
 V  V1  1  0.64928  0.64928  0.00000  1
