CIF file written using JARVIS-Tools package.
data_Ge3Rh5
_symmetry_space_group_name_H-M  'Pbam'
_cell_length_a       3.97809
_cell_length_b       5.53213
_cell_length_c       10.6247
_cell_angle_alpha    90
_cell_angle_beta     90.0008
_cell_angle_gamma    89.9982

_symmetry_Int_Tables_number  55
_chemical_formula_structural  Ge3Rh5
_chemical_formula_sum  Ge6Rh0
_cell_volume  233.82032640477127
_cell_formula_units_Z  2
loop_
  _symmetry_equiv_pos_site_id
 _symmetry_equiv_pos_as_xyz
 1  'x, y, z'
loop_
 _atom_site_type_symbol
 _atom_site_label
 _atom_site_symmetry_multiplicity
 _atom_site_fract_x
 _atom_site_fract_y
 _atom_site_fract_z
 _atom_site_fract_occupancy
 Ge  Ge1  1  0.50000  0.90702  0.34482  1
 Ge  Ge2  1  0.00000  0.49998  0.50000  1
 Ge  Ge3  1  0.50000  0.40702  0.15518  1
 Ge  Ge4  1  0.50000  0.09297  0.65520  1
 Ge  Ge5  1  0.50000  0.59296  0.84479  1
 Ge  Ge6  1  0.00000  -0.00002  0.00000  1
 Rh  Rh1  1  -0.00000  0.34164  0.71511  1
 Rh  Rh2  1  0.00000  0.15837  0.21510  1
 Rh  Rh3  1  -0.00000  0.84164  0.78489  1
 Rh  Rh4  1  0.50000  0.83587  0.10887  1
 Rh  Rh5  1  0.50000  0.16413  0.89115  1
 Rh  Rh6  1  0.50000  0.66413  0.60885  1
 Rh  Rh7  1  0.00000  0.00002  0.50000  1
 Rh  Rh8  1  0.50000  0.33588  0.39113  1
 Rh  Rh9  1  0.00000  0.50002  0.00000  1
 Rh  Rh10  1  0.00000  0.65837  0.28490  1
