CIF file written using JARVIS-Tools package.
data_BeGe4Os
_symmetry_space_group_name_H-M  'F-43m'
_cell_length_a       5.28987
_cell_length_b       5.28987
_cell_length_c       5.28987
_cell_angle_alpha    60
_cell_angle_beta     60
_cell_angle_gamma    60

_symmetry_Int_Tables_number  216
_chemical_formula_structural  BeGe4Os
_chemical_formula_sum  BeGe4Os
_cell_volume  104.66952371759562
_cell_formula_units_Z  1
loop_
  _symmetry_equiv_pos_site_id
 _symmetry_equiv_pos_as_xyz
 1  'x, y, z'
loop_
 _atom_site_type_symbol
 _atom_site_label
 _atom_site_symmetry_multiplicity
 _atom_site_fract_x
 _atom_site_fract_y
 _atom_site_fract_z
 _atom_site_fract_occupancy
 Be  Be1  1  0.00000  0.00000  0.00000  1
 Ge  Ge1  1  0.12822  0.62393  0.62393  1
 Ge  Ge2  1  0.62393  0.62393  0.62393  1
 Ge  Ge3  1  0.62393  0.12822  0.62393  1
 Ge  Ge4  1  0.62393  0.62393  0.12822  1
 Os  Os1  1  0.25000  0.25000  0.25000  1
