CIF file written using JARVIS-Tools package.
data_PtN4Cl4
_symmetry_space_group_name_H-M  'I4/mmm'
_cell_length_a       6.16162
_cell_length_b       6.16162
_cell_length_c       6.16162
_cell_angle_alpha    86.9132
_cell_angle_beta     121.798
_cell_angle_gamma    121.798

_symmetry_Int_Tables_number  139
_chemical_formula_structural  PtN4Cl4
_chemical_formula_sum  PtN4Cl4
_cell_volume  160.66429907226913
_cell_formula_units_Z  1
loop_
  _symmetry_equiv_pos_site_id
 _symmetry_equiv_pos_as_xyz
 1  'x, y, z'
loop_
 _atom_site_type_symbol
 _atom_site_label
 _atom_site_symmetry_multiplicity
 _atom_site_fract_x
 _atom_site_fract_y
 _atom_site_fract_z
 _atom_site_fract_occupancy
 Cl  Cl1  1  0.00000  0.26701  0.26701  1
 Cl  Cl2  1  0.00000  0.73299  0.73299  1
 Cl  Cl3  1  0.50000  -0.00000  0.50000  1
 Cl  Cl4  1  0.50000  0.50000  0.00000  1
 N  N1  1  0.54042  0.77021  0.77021  1
 N  N2  1  0.45958  0.22979  0.22979  1
 N  N3  1  0.00000  0.22979  0.77021  1
 N  N4  1  0.00000  0.77021  0.22979  1
 Pt  Pt1  1  0.00000  0.00000  0.00000  1
