CIF file written using JARVIS-Tools package.
data_HoZnPd
_symmetry_space_group_name_H-M  'P-62m'
_cell_length_a       3.80243
_cell_length_b       7.28466
_cell_length_c       7.28473
_cell_angle_alpha    120
_cell_angle_beta     90
_cell_angle_gamma    90

_symmetry_Int_Tables_number  189
_chemical_formula_structural  HoZnPd
_chemical_formula_sum  Ho3Zn3Pd3
_cell_volume  174.7497211444032
_cell_formula_units_Z  3
loop_
  _symmetry_equiv_pos_site_id
 _symmetry_equiv_pos_as_xyz
 1  'x, y, z'
loop_
 _atom_site_type_symbol
 _atom_site_label
 _atom_site_symmetry_multiplicity
 _atom_site_fract_x
 _atom_site_fract_y
 _atom_site_fract_z
 _atom_site_fract_occupancy
 Ho  Ho1  1  0.00000  0.59696  0.00000  1
 Ho  Ho2  1  0.00000  0.40302  0.40303  1
 Ho  Ho3  1  0.00000  0.99999  0.59697  1
 Pd  Pd1  1  0.00000  0.99999  0.00000  1
 Pd  Pd2  1  0.50000  0.33332  0.66667  1
 Pd  Pd3  1  0.50000  0.66666  0.33333  1
 Zn  Zn1  1  0.50000  0.25520  -0.00000  1
 Zn  Zn2  1  0.50000  0.74478  0.74479  1
 Zn  Zn3  1  0.50000  0.99999  0.25521  1
