CIF file written using JARVIS-Tools package.
data_MnF3
_symmetry_space_group_name_H-M  'P4/mbm'
_cell_length_a       3.84987
_cell_length_b       5.35277
_cell_length_c       5.36087
_cell_angle_alpha    90.0005
_cell_angle_beta     90.0004
_cell_angle_gamma    90.0001

_symmetry_Int_Tables_number  127
_chemical_formula_structural  MnF3
_chemical_formula_sum  Mn2F6
_cell_volume  110.47399611803654
_cell_formula_units_Z  2
loop_
  _symmetry_equiv_pos_site_id
 _symmetry_equiv_pos_as_xyz
 1  'x, y, z'
loop_
 _atom_site_type_symbol
 _atom_site_label
 _atom_site_symmetry_multiplicity
 _atom_site_fract_x
 _atom_site_fract_y
 _atom_site_fract_z
 _atom_site_fract_occupancy
 F  F1  1  0.49264  0.99960  0.00323  1
 F  F2  1  0.99265  0.79673  0.30030  1
 F  F3  1  0.99263  0.70256  0.80030  1
 F  F4  1  0.49264  0.49968  0.50323  1
 F  F5  1  0.99263  0.29669  0.20634  1
 F  F6  1  0.99264  0.20261  0.70634  1
 Mn  Mn1  1  0.99264  0.99964  0.00331  1
 Mn  Mn2  1  0.99264  0.49966  0.50331  1
