CIF file written using JARVIS-Tools package.
data_K2BaTi
_symmetry_space_group_name_H-M  'P4mm'
_cell_length_a       3.9776
_cell_length_b       3.97654
_cell_length_c       12.3934
_cell_angle_alpha    90
_cell_angle_beta     90
_cell_angle_gamma    90

_symmetry_Int_Tables_number  99
_chemical_formula_structural  K2BaTi
_chemical_formula_sum  K2BaTi
_cell_volume  196.02700867768158
_cell_formula_units_Z  1
loop_
  _symmetry_equiv_pos_site_id
 _symmetry_equiv_pos_as_xyz
 1  'x, y, z'
loop_
 _atom_site_type_symbol
 _atom_site_label
 _atom_site_symmetry_multiplicity
 _atom_site_fract_x
 _atom_site_fract_y
 _atom_site_fract_z
 _atom_site_fract_occupancy
 Ba  Ba1  1  0.50000  0.50000  0.30736  1
 K  K1  1  0.00000  0.00000  0.00731  1
 K  K2  1  0.50000  0.50000  0.69685  1
 Ti  Ti1  1  0.00000  0.00000  0.48849  1
