CIF file written using JARVIS-Tools package.
data_LiRuF6
_symmetry_space_group_name_H-M  'R-3'
_cell_length_a       4.98766
_cell_length_b       4.98766
_cell_length_c       5.37504
_cell_angle_alpha    62.3568
_cell_angle_beta     62.3568
_cell_angle_gamma    60

_symmetry_Int_Tables_number  148
_chemical_formula_structural  LiRuF6
_chemical_formula_sum  LiRuF6
_cell_volume  97.77877489917232
_cell_formula_units_Z  1
loop_
  _symmetry_equiv_pos_site_id
 _symmetry_equiv_pos_as_xyz
 1  'x, y, z'
loop_
 _atom_site_type_symbol
 _atom_site_label
 _atom_site_symmetry_multiplicity
 _atom_site_fract_x
 _atom_site_fract_y
 _atom_site_fract_z
 _atom_site_fract_occupancy
 F  F1  1  0.89442  0.62447  0.24092  1
 F  F2  1  0.62447  0.24019  0.24092  1
 F  F3  1  0.24019  0.89442  0.24092  1
 F  F4  1  0.10558  0.37553  0.75908  1
 F  F5  1  0.37553  0.75981  0.75908  1
 F  F6  1  0.75981  0.10558  0.75908  1
 Li  Li1  1  0.50000  0.50000  0.50000  1
 Ru  Ru1  1  0.00000  0.00000  0.00000  1
