CIF file written using JARVIS-Tools package.
data_BaSi2P
_symmetry_space_group_name_H-M  'I4/mmm'
_cell_length_a       6.08342
_cell_length_b       6.08342
_cell_length_c       6.08342
_cell_angle_alpha    138.565
_cell_angle_beta     138.565
_cell_angle_gamma    60.0383

_symmetry_Int_Tables_number  139
_chemical_formula_structural  BaSi2P
_chemical_formula_sum  BaSi2P
_cell_volume  97.58068955500356
_cell_formula_units_Z  1
loop_
  _symmetry_equiv_pos_site_id
 _symmetry_equiv_pos_as_xyz
 1  'x, y, z'
loop_
 _atom_site_type_symbol
 _atom_site_label
 _atom_site_symmetry_multiplicity
 _atom_site_fract_x
 _atom_site_fract_y
 _atom_site_fract_z
 _atom_site_fract_occupancy
 Ba  Ba1  1  0.25000  0.75000  0.50000  1
 P  P1  1  0.75000  0.25000  0.50000  1
 Si  Si1  1  0.00000  0.00000  0.00000  1
 Si  Si2  1  0.50000  0.50000  0.00000  1
