CIF file written using JARVIS-Tools package.
data_Mn2OF3
_symmetry_space_group_name_H-M  'Cmcm'
_cell_length_a       4.7738
_cell_length_b       4.7738
_cell_length_c       6.31285
_cell_angle_alpha    90
_cell_angle_beta     90
_cell_angle_gamma    92.7576

_symmetry_Int_Tables_number  63
_chemical_formula_structural  Mn2OF3
_chemical_formula_sum  Mn4O2F6
_cell_volume  143.69788269513708
_cell_formula_units_Z  2
loop_
  _symmetry_equiv_pos_site_id
 _symmetry_equiv_pos_as_xyz
 1  'x, y, z'
loop_
 _atom_site_type_symbol
 _atom_site_label
 _atom_site_symmetry_multiplicity
 _atom_site_fract_x
 _atom_site_fract_y
 _atom_site_fract_z
 _atom_site_fract_occupancy
 F  F1  1  0.20201  0.79799  0.25000  1
 F  F2  1  0.20201  0.79799  0.75000  1
 F  F3  1  0.27622  0.27622  0.00000  1
 F  F4  1  0.72378  0.72378  0.50000  1
 F  F5  1  0.79799  0.20201  0.25000  1
 F  F6  1  0.79799  0.20201  0.75000  1
 Mn  Mn1  1  0.96279  0.96279  0.00000  1
 Mn  Mn2  1  0.03721  0.03721  0.50000  1
 Mn  Mn3  1  0.50000  0.50000  0.25000  1
 Mn  Mn4  1  0.50000  0.50000  0.75000  1
 O  O1  1  0.32993  0.32993  0.50000  1
 O  O2  1  0.67007  0.67007  0.00000  1
