CIF file written using JARVIS-Tools package.
data_Cu3AsS4
_symmetry_space_group_name_H-M  'Pmn2_1'
_cell_length_a       6.20352
_cell_length_b       6.47849
_cell_length_c       7.46484
_cell_angle_alpha    90
_cell_angle_beta     90
_cell_angle_gamma    90

_symmetry_Int_Tables_number  31
_chemical_formula_structural  Cu3AsS4
_chemical_formula_sum  Cu6As2S8
_cell_volume  300.0075407206944
_cell_formula_units_Z  2
loop_
  _symmetry_equiv_pos_site_id
 _symmetry_equiv_pos_as_xyz
 1  'x, y, z'
loop_
 _atom_site_type_symbol
 _atom_site_label
 _atom_site_symmetry_multiplicity
 _atom_site_fract_x
 _atom_site_fract_y
 _atom_site_fract_z
 _atom_site_fract_occupancy
 As  As1  1  0.99738  0.16962  0.00000  1
 As  As2  1  0.49738  0.83038  0.50000  1
 Cu  Cu1  1  0.49544  0.83901  0.00000  1
 Cu  Cu2  1  0.99544  0.16099  0.50000  1
 Cu  Cu3  1  0.99134  0.67147  0.75039  1
 Cu  Cu4  1  0.49134  0.32853  0.74961  1
 Cu  Cu5  1  0.49134  0.32853  0.25039  1
 Cu  Cu6  1  0.99134  0.67147  0.24961  1
 S  S1  1  0.62701  0.17191  0.00000  1
 S  S2  1  0.12701  0.82809  0.50000  1
 S  S3  1  0.12455  0.83880  0.00000  1
 S  S4  1  0.62455  0.16120  0.50000  1
 S  S5  1  0.62202  0.66155  0.75127  1
 S  S6  1  0.12202  0.33845  0.74873  1
 S  S7  1  0.12202  0.33845  0.25127  1
 S  S8  1  0.62202  0.66155  0.24873  1
