CIF file written using JARVIS-Tools package.
data_BeRe4Si
_symmetry_space_group_name_H-M  'F-43m'
_cell_length_a       5.14188
_cell_length_b       5.14188
_cell_length_c       5.14188
_cell_angle_alpha    60
_cell_angle_beta     60
_cell_angle_gamma    60

_symmetry_Int_Tables_number  216
_chemical_formula_structural  BeRe4Si
_chemical_formula_sum  BeRe4Si
_cell_volume  96.12848765731094
_cell_formula_units_Z  1
loop_
  _symmetry_equiv_pos_site_id
 _symmetry_equiv_pos_as_xyz
 1  'x, y, z'
loop_
 _atom_site_type_symbol
 _atom_site_label
 _atom_site_symmetry_multiplicity
 _atom_site_fract_x
 _atom_site_fract_y
 _atom_site_fract_z
 _atom_site_fract_occupancy
 Be  Be1  1  0.00000  0.00000  0.00000  1
 Re  Re1  1  0.12412  0.62529  0.62529  1
 Re  Re2  1  0.62529  0.62529  0.62529  1
 Re  Re3  1  0.62529  0.12412  0.62529  1
 Re  Re4  1  0.62529  0.62529  0.12412  1
 Si  Si1  1  0.25000  0.25000  0.25000  1
