CIF file written using JARVIS-Tools package.
data_V3O5F
_symmetry_space_group_name_H-M  'P2_1'
_cell_length_a       5.45293
_cell_length_b       4.59617
_cell_length_c       7.42781
_cell_angle_alpha    90
_cell_angle_beta     95.8164
_cell_angle_gamma    90

_symmetry_Int_Tables_number  4
_chemical_formula_structural  V3O5F
_chemical_formula_sum  V6O0F2
_cell_volume  185.2019382769864
_cell_formula_units_Z  2
loop_
  _symmetry_equiv_pos_site_id
 _symmetry_equiv_pos_as_xyz
 1  'x, y, z'
loop_
 _atom_site_type_symbol
 _atom_site_label
 _atom_site_symmetry_multiplicity
 _atom_site_fract_x
 _atom_site_fract_y
 _atom_site_fract_z
 _atom_site_fract_occupancy
 F  F1  1  0.28443  0.79968  0.73029  1
 F  F2  1  0.71557  0.29968  0.26971  1
 O  O1  1  0.05050  0.29543  0.59917  1
 O  O2  1  0.54492  0.19326  0.60075  1
 O  O3  1  0.21498  0.20471  0.26192  1
 O  O4  1  0.38513  0.30304  0.93116  1
 O  O5  1  0.88472  0.20276  0.93713  1
 O  O6  1  0.78502  0.70471  0.73808  1
 O  O7  1  0.45508  0.69326  0.39925  1
 O  O8  1  0.11528  0.70276  0.06287  1
 O  O9  1  0.61487  0.80304  0.06884  1
 O  O10  1  0.94950  0.79543  0.40083  1
 V  V1  1  0.92022  0.96893  0.16777  1
 V  V2  1  0.25190  0.01278  0.47769  1
 V  V3  1  0.59942  0.01942  0.84080  1
 V  V4  1  0.74810  0.51278  0.52231  1
 V  V5  1  0.40058  0.51942  0.15920  1
 V  V6  1  0.07978  0.46893  0.83223  1
