CIF file written using JARVIS-Tools package.
data_Ni2PdSe2
_symmetry_space_group_name_H-M  'I4/mmm'
_cell_length_a       5.63287
_cell_length_b       8.0271
_cell_length_c       8.0271
_cell_angle_alpha    82.9285
_cell_angle_beta     69.4597
_cell_angle_gamma    69.4597

_symmetry_Int_Tables_number  139
_chemical_formula_structural  Ni2PdSe2
_chemical_formula_sum  Ni8Pd4Se8
_cell_volume  318.26883133233946
_cell_formula_units_Z  4
loop_
  _symmetry_equiv_pos_site_id
 _symmetry_equiv_pos_as_xyz
 1  'x, y, z'
loop_
 _atom_site_type_symbol
 _atom_site_label
 _atom_site_symmetry_multiplicity
 _atom_site_fract_x
 _atom_site_fract_y
 _atom_site_fract_z
 _atom_site_fract_occupancy
 Ni  Ni1  1  0.09670  0.50000  0.80660  1
 Ni  Ni2  1  0.40330  0.19340  0.50000  1
 Ni  Ni3  1  0.59670  0.80660  0.50000  1
 Ni  Ni4  1  0.90330  0.50000  0.19340  1
 Ni  Ni5  1  0.90330  0.19340  0.50000  1
 Ni  Ni6  1  0.09670  0.80660  0.50000  1
 Ni  Ni7  1  0.40330  0.50000  0.19340  1
 Ni  Ni8  1  0.59670  0.50000  0.80660  1
 Pd  Pd1  1  0.50000  0.00000  -0.00000  1
 Pd  Pd2  1  0.00000  0.00000  0.00000  1
 Pd  Pd3  1  0.50000  0.50000  0.50000  1
 Pd  Pd4  1  -0.00000  0.50000  0.50000  1
 Se  Se1  1  0.50000  0.75569  0.24431  1
 Se  Se2  1  0.50000  0.24431  0.75569  1
 Se  Se3  1  0.83105  -0.00000  0.33791  1
 Se  Se4  1  0.16895  0.00000  0.66209  1
 Se  Se5  1  0.25569  0.24431  0.24431  1
 Se  Se6  1  0.16895  0.66209  0.00000  1
 Se  Se7  1  0.83105  0.33791  -0.00000  1
 Se  Se8  1  0.74431  0.75569  0.75569  1
