CIF file written using JARVIS-Tools package.
data_YbLaSe3
_symmetry_space_group_name_H-M  'Cmcm'
_cell_length_a       4.19156
_cell_length_b       7.53
_cell_length_c       9.28807
_cell_angle_alpha    90
_cell_angle_beta     90
_cell_angle_gamma    106.16

_symmetry_Int_Tables_number  63
_chemical_formula_structural  YbLaSe3
_chemical_formula_sum  Yb2La2Se6
_cell_volume  281.5708394530214
_cell_formula_units_Z  2
loop_
  _symmetry_equiv_pos_site_id
 _symmetry_equiv_pos_as_xyz
 1  'x, y, z'
loop_
 _atom_site_type_symbol
 _atom_site_label
 _atom_site_symmetry_multiplicity
 _atom_site_fract_x
 _atom_site_fract_y
 _atom_site_fract_z
 _atom_site_fract_occupancy
 La  La1  1  0.74991  0.49982  0.75000  1
 La  La2  1  0.25009  0.50018  0.25000  1
 Se  Se1  1  0.89310  0.78621  0.25000  1
 Se  Se2  1  0.10690  0.21379  0.75000  1
 Se  Se3  1  0.36207  0.72414  0.57634  1
 Se  Se4  1  0.63793  0.27586  0.42366  1
 Se  Se5  1  0.36207  0.72414  0.92366  1
 Se  Se6  1  0.63793  0.27586  0.07634  1
 Yb  Yb1  1  0.00000  0.00000  0.00000  1
 Yb  Yb2  1  0.00000  0.00000  0.50000  1
