CIF file written using JARVIS-Tools package.
data_Ce3SiPt5
_symmetry_space_group_name_H-M  'Imma'
_cell_length_a       7.27403
_cell_length_b       7.52706
_cell_length_c       8.38597
_cell_angle_alpha    116.666
_cell_angle_beta     115.703
_cell_angle_gamma    90

_symmetry_Int_Tables_number  74
_chemical_formula_structural  Ce3SiPt5
_chemical_formula_sum  Ce6Si2Pt0
_cell_volume  358.75084179487504
_cell_formula_units_Z  2
loop_
  _symmetry_equiv_pos_site_id
 _symmetry_equiv_pos_as_xyz
 1  'x, y, z'
loop_
 _atom_site_type_symbol
 _atom_site_label
 _atom_site_symmetry_multiplicity
 _atom_site_fract_x
 _atom_site_fract_y
 _atom_site_fract_z
 _atom_site_fract_occupancy
 Ce  Ce1  1  0.54862  0.27140  0.09725  1
 Ce  Ce2  1  0.25000  0.87991  0.50000  1
 Ce  Ce3  1  0.45138  0.72860  0.90275  1
 Ce  Ce4  1  0.75000  0.12009  0.50000  1
 Ce  Ce5  1  0.95138  0.67415  0.90275  1
 Ce  Ce6  1  0.04862  0.32585  0.09725  1
 Pt  Pt1  1  0.00000  0.50000  0.50000  1
 Pt  Pt2  1  0.10192  0.95810  0.79144  1
 Pt  Pt3  1  0.18953  0.33334  0.79144  1
 Pt  Pt4  1  0.89808  0.04190  0.20856  1
 Pt  Pt5  1  0.68953  0.95810  0.79144  1
 Pt  Pt6  1  0.31047  0.04190  0.20856  1
 Pt  Pt7  1  0.81047  0.66666  0.20856  1
 Pt  Pt8  1  0.39808  0.66666  0.20856  1
 Pt  Pt9  1  0.60192  0.33334  0.79144  1
 Pt  Pt10  1  0.50000  0.50000  0.50000  1
 Si  Si1  1  0.75000  0.72149  0.50000  1
 Si  Si2  1  0.25000  0.27851  0.50000  1
