CIF file written using JARVIS-Tools package.
data_DyMnGa
_symmetry_space_group_name_H-M  'P-62m'
_cell_length_a       4.12097
_cell_length_b       6.99948
_cell_length_c       6.99952
_cell_angle_alpha    120
_cell_angle_beta     90
_cell_angle_gamma    90

_symmetry_Int_Tables_number  189
_chemical_formula_structural  DyMnGa
_chemical_formula_sum  Dy3Mn3Ga3
_cell_volume  174.84976141294095
_cell_formula_units_Z  3
loop_
  _symmetry_equiv_pos_site_id
 _symmetry_equiv_pos_as_xyz
 1  'x, y, z'
loop_
 _atom_site_type_symbol
 _atom_site_label
 _atom_site_symmetry_multiplicity
 _atom_site_fract_x
 _atom_site_fract_y
 _atom_site_fract_z
 _atom_site_fract_occupancy
 Dy  Dy1  1  0.50000  0.58226  0.00000  1
 Dy  Dy2  1  0.50000  0.41773  0.41773  1
 Dy  Dy3  1  0.50000  -0.00001  0.58227  1
 Ga  Ga1  1  0.00000  0.33333  0.66666  1
 Ga  Ga2  1  0.00000  0.66667  0.33334  1
 Ga  Ga3  1  0.50000  -0.00001  -0.00000  1
 Mn  Mn1  1  0.00000  0.23100  -0.00000  1
 Mn  Mn2  1  0.00000  0.76897  0.76900  1
 Mn  Mn3  1  0.00000  -0.00003  0.23100  1
