CIF file written using JARVIS-Tools package.
data_Mg3AlPt2
_symmetry_space_group_name_H-M  'Fd-3m'
_cell_length_a       8.40152
_cell_length_b       8.40152
_cell_length_c       8.40152
_cell_angle_alpha    60
_cell_angle_beta     60
_cell_angle_gamma    60

_symmetry_Int_Tables_number  227
_chemical_formula_structural  Mg3AlPt2
_chemical_formula_sum  Mg2Al4Pt8
_cell_volume  419.33208218784256
_cell_formula_units_Z  4
loop_
  _symmetry_equiv_pos_site_id
 _symmetry_equiv_pos_as_xyz
 1  'x, y, z'
loop_
 _atom_site_type_symbol
 _atom_site_label
 _atom_site_symmetry_multiplicity
 _atom_site_fract_x
 _atom_site_fract_y
 _atom_site_fract_z
 _atom_site_fract_occupancy
 Al  Al1  1  0.37500  0.37500  0.37500  1
 Al  Al2  1  0.37500  0.37500  0.87500  1
 Al  Al3  1  0.37500  0.87500  0.37500  1
 Al  Al4  1  0.87500  0.37500  0.37500  1
 Mg  Mg1  1  0.94799  0.55201  0.94799  1
 Mg  Mg2  1  0.55201  0.94799  0.55201  1
 Mg  Mg3  1  0.19799  0.80201  0.80201  1
 Mg  Mg4  1  0.80201  0.19799  0.19799  1
 Mg  Mg5  1  0.55201  0.55201  0.94799  1
 Mg  Mg6  1  0.80201  0.19799  0.80201  1
 Mg  Mg7  1  0.19799  0.19799  0.80201  1
 Mg  Mg8  1  0.80201  0.80201  0.19799  1
 Mg  Mg9  1  0.94799  0.94799  0.55201  1
 Mg  Mg10  1  0.94799  0.55201  0.55201  1
 Mg  Mg11  1  0.55201  0.94799  0.94799  1
 Mg  Mg12  1  0.19799  0.80201  0.19799  1
 Pt  Pt1  1  0.59235  0.59235  0.22293  1
 Pt  Pt2  1  0.52707  0.15765  0.15765  1
 Pt  Pt3  1  0.15765  0.15765  0.15765  1
 Pt  Pt4  1  0.15765  0.15765  0.52707  1
 Pt  Pt5  1  0.15765  0.52707  0.15765  1
 Pt  Pt6  1  0.59235  0.59235  0.59235  1
 Pt  Pt7  1  0.22293  0.59235  0.59235  1
 Pt  Pt8  1  0.59235  0.22293  0.59235  1
