CIF file written using JARVIS-Tools package.
data_LiNiAsO4
_symmetry_space_group_name_H-M  'Pnma'
_cell_length_a       4.89764
_cell_length_b       5.92066
_cell_length_c       10.327
_cell_angle_alpha    90
_cell_angle_beta     90
_cell_angle_gamma    90

_symmetry_Int_Tables_number  62
_chemical_formula_structural  LiNiAsO4
_chemical_formula_sum  Li4Ni4As4O6
_cell_volume  299.45487395684694
_cell_formula_units_Z  4
loop_
  _symmetry_equiv_pos_site_id
 _symmetry_equiv_pos_as_xyz
 1  'x, y, z'
loop_
 _atom_site_type_symbol
 _atom_site_label
 _atom_site_symmetry_multiplicity
 _atom_site_fract_x
 _atom_site_fract_y
 _atom_site_fract_z
 _atom_site_fract_occupancy
 As  As1  1  0.56222  0.25000  0.09342  1
 As  As2  1  0.43778  0.75000  0.90658  1
 As  As3  1  0.93778  0.25000  0.59342  1
 As  As4  1  0.06222  0.75000  0.40658  1
 Li  Li1  1  0.00000  0.00000  0.00000  1
 Li  Li2  1  0.50000  0.50000  0.50000  1
 Li  Li3  1  0.00000  0.50000  0.00000  1
 Li  Li4  1  0.50000  0.00000  0.50000  1
 Ni  Ni1  1  0.49366  0.25000  0.77076  1
 Ni  Ni2  1  0.00634  0.25000  0.27076  1
 Ni  Ni3  1  0.50634  0.75000  0.22924  1
 Ni  Ni4  1  0.99366  0.75000  0.72924  1
 O  O1  1  0.70713  0.25000  0.94062  1
 O  O2  1  0.78672  0.75000  0.90568  1
 O  O3  1  0.27162  0.52438  0.83068  1
 O  O4  1  0.21328  0.25000  0.09432  1
 O  O5  1  0.71328  0.75000  0.40568  1
 O  O6  1  0.20713  0.75000  0.55938  1
 O  O7  1  0.28672  0.25000  0.59432  1
 O  O8  1  0.72838  0.02438  0.16932  1
 O  O9  1  0.27162  0.97562  0.83068  1
 O  O10  1  0.77162  0.02438  0.66932  1
 O  O11  1  0.72838  0.47562  0.16932  1
 O  O12  1  0.22838  0.52438  0.33068  1
 O  O13  1  0.79287  0.25000  0.44062  1
 O  O14  1  0.22838  0.97562  0.33068  1
 O  O15  1  0.29287  0.75000  0.05938  1
 O  O16  1  0.77162  0.47562  0.66932  1
