CIF file written using JARVIS-Tools package.
data_LiCuH4Cl3O2
_symmetry_space_group_name_H-M  'P2_1/c'
_cell_length_a       6.06505
_cell_length_b       10.9533
_cell_length_c       9.12643
_cell_angle_alpha    90
_cell_angle_beta     109.745
_cell_angle_gamma    90

_symmetry_Int_Tables_number  14
_chemical_formula_structural  LiCuH4Cl3O2
_chemical_formula_sum  Li4Cu4H6Cl2O8
_cell_volume  570.6443174251756
_cell_formula_units_Z  4
loop_
  _symmetry_equiv_pos_site_id
 _symmetry_equiv_pos_as_xyz
 1  'x, y, z'
loop_
 _atom_site_type_symbol
 _atom_site_label
 _atom_site_symmetry_multiplicity
 _atom_site_fract_x
 _atom_site_fract_y
 _atom_site_fract_z
 _atom_site_fract_occupancy
 Cl  Cl1  1  0.53238  0.13271  0.12285  1
 Cl  Cl2  1  0.79836  0.60710  0.82202  1
 Cl  Cl3  1  0.88480  0.37901  0.41476  1
 Cl  Cl4  1  0.11520  0.87901  0.08524  1
 Cl  Cl5  1  0.11520  0.62099  0.58524  1
 Cl  Cl6  1  0.88480  0.12099  0.91476  1
 Cl  Cl7  1  0.46762  0.63271  0.37715  1
 Cl  Cl8  1  0.79836  0.89290  0.32202  1
 Cl  Cl9  1  0.20164  0.39290  0.17798  1
 Cl  Cl10  1  0.46762  0.86729  0.87715  1
 Cl  Cl11  1  0.53238  0.36729  0.62285  1
 Cl  Cl12  1  0.20164  0.10710  0.67798  1
 Cu  Cu1  1  0.16807  0.50915  0.38276  1
 Cu  Cu2  1  0.16807  0.99085  0.88276  1
 Cu  Cu3  1  0.83193  0.49085  0.61724  1
 Cu  Cu4  1  0.83193  0.00915  0.11724  1
 H  H1  1  0.16407  0.21160  0.26392  1
 H  H2  1  0.11451  0.35394  0.90231  1
 H  H3  1  0.88549  0.64606  0.09769  1
 H  H4  1  0.88549  0.85394  0.59769  1
 H  H5  1  0.16407  0.28840  0.76392  1
 H  H6  1  0.83593  0.78840  0.73608  1
 H  H7  1  0.83593  0.71160  0.23608  1
 H  H8  1  0.60680  0.18863  0.55723  1
 H  H9  1  0.39320  0.68863  0.94277  1
 H  H10  1  0.39320  0.81137  0.44277  1
 H  H11  1  0.60680  0.31137  0.05723  1
 H  H12  1  0.82063  0.10642  0.56296  1
 H  H13  1  0.17937  0.89358  0.43704  1
 H  H14  1  0.82063  0.39358  0.06296  1
 H  H15  1  0.11451  0.14606  0.40231  1
 H  H16  1  0.17937  0.60642  0.93704  1
 Li  Li1  1  0.44046  0.47201  0.83903  1
 Li  Li2  1  0.44046  0.02799  0.33903  1
 Li  Li3  1  0.55954  0.52799  0.16097  1
 Li  Li4  1  0.55954  0.97201  0.66097  1
 O  O1  1  0.35145  0.89491  0.46561  1
 O  O2  1  0.15466  0.36975  0.80857  1
 O  O3  1  0.84534  0.86975  0.69143  1
 O  O4  1  0.84534  0.63025  0.19143  1
 O  O5  1  0.15466  0.13025  0.30857  1
 O  O6  1  0.64855  0.10509  0.53439  1
 O  O7  1  0.35145  0.60509  0.96561  1
 O  O8  1  0.64855  0.39491  0.03439  1
