CIF file written using JARVIS-Tools package.
data_Li5TlO4
_symmetry_space_group_name_H-M  'P4_2/nmc'
_cell_length_a       4.74252
_cell_length_b       13.2989
_cell_length_c       13.2989
_cell_angle_alpha    90
_cell_angle_beta     90
_cell_angle_gamma    90

_symmetry_Int_Tables_number  137
_chemical_formula_structural  Li5TlO4
_chemical_formula_sum  Li40Tl8O32
_cell_volume  838.760104066404
_cell_formula_units_Z  8
loop_
  _symmetry_equiv_pos_site_id
 _symmetry_equiv_pos_as_xyz
 1  'x, y, z'
loop_
 _atom_site_type_symbol
 _atom_site_label
 _atom_site_symmetry_multiplicity
 _atom_site_fract_x
 _atom_site_fract_y
 _atom_site_fract_z
 _atom_site_fract_occupancy
 Li  Li1  1  0.75000  0.87978  0.12022  1
 Li  Li2  1  0.25000  0.37978  0.87978  1
 Li  Li3  1  0.25000  0.12022  0.62022  1
 Li  Li4  1  0.75000  0.62022  0.37978  1
 Li  Li5  1  0.25000  0.12022  0.87978  1
 Li  Li6  1  0.75000  0.62022  0.12022  1
 Li  Li7  1  0.25000  0.37978  0.62022  1
 Li  Li8  1  0.81603  0.10958  0.14160  1
 Li  Li9  1  0.81603  0.39042  0.35840  1
 Li  Li10  1  0.75000  0.87978  0.37978  1
 Li  Li11  1  0.31603  0.35840  0.10958  1
 Li  Li12  1  0.68397  0.64160  0.60958  1
 Li  Li13  1  0.18397  0.89042  0.64160  1
 Li  Li14  1  0.18397  0.60958  0.85840  1
 Li  Li15  1  0.68397  0.85840  0.89042  1
 Li  Li16  1  0.18397  0.89042  0.85840  1
 Li  Li17  1  0.18397  0.60958  0.64160  1
 Li  Li18  1  0.31603  0.14160  0.39042  1
 Li  Li19  1  0.68397  0.85840  0.60958  1
 Li  Li20  1  0.68397  0.64160  0.89042  1
 Li  Li21  1  0.25000  0.98796  0.01204  1
 Li  Li22  1  0.81603  0.10958  0.35840  1
 Li  Li23  1  0.31603  0.35840  0.39042  1
 Li  Li24  1  0.81603  0.39042  0.14160  1
 Li  Li25  1  0.31603  0.14160  0.10958  1
 Li  Li26  1  0.75000  0.25000  0.75000  1
 Li  Li27  1  0.25000  0.75000  0.25000  1
 Li  Li28  1  0.75000  0.75000  0.25000  1
 Li  Li29  1  0.15764  0.75000  0.75000  1
 Li  Li30  1  0.65764  0.75000  0.75000  1
 Li  Li31  1  0.25000  0.25000  0.75000  1
 Li  Li32  1  0.34236  0.25000  0.25000  1
 Li  Li33  1  0.75000  0.48796  0.51204  1
 Li  Li34  1  0.25000  0.98796  0.48796  1
 Li  Li35  1  0.75000  0.48796  0.98796  1
 Li  Li36  1  0.25000  0.51204  0.01204  1
 Li  Li37  1  0.75000  0.01204  0.98796  1
 Li  Li38  1  0.25000  0.51204  0.48796  1
 Li  Li39  1  0.75000  0.01204  0.51204  1
 Li  Li40  1  0.84236  0.25000  0.25000  1
 O  O1  1  0.02535  0.13615  0.75000  1
 O  O2  1  0.08602  0.13435  0.25000  1
 O  O3  1  0.41398  0.75000  0.86565  1
 O  O4  1  0.97465  0.63615  0.25000  1
 O  O5  1  0.03174  0.11364  0.48967  1
 O  O6  1  0.02535  0.36385  0.75000  1
 O  O7  1  0.47465  0.25000  0.86385  1
 O  O8  1  0.52535  0.75000  0.13615  1
 O  O9  1  0.03174  0.38636  0.48967  1
 O  O10  1  0.46826  0.51033  0.61364  1
 O  O11  1  0.96826  0.88636  0.51033  1
 O  O12  1  0.96826  0.61364  0.98967  1
 O  O13  1  0.46826  0.98967  0.88636  1
 O  O14  1  0.53174  0.01033  0.38636  1
 O  O15  1  0.03174  0.38636  0.01033  1
 O  O16  1  0.03174  0.11364  0.01033  1
 O  O17  1  0.41398  0.75000  0.63435  1
 O  O18  1  0.52535  0.75000  0.36385  1
 O  O19  1  0.91398  0.86565  0.75000  1
 O  O20  1  0.96826  0.88636  0.98967  1
 O  O21  1  0.08602  0.36565  0.25000  1
 O  O22  1  0.47465  0.25000  0.63615  1
 O  O23  1  0.91398  0.63435  0.75000  1
 O  O24  1  0.53174  0.48967  0.38636  1
 O  O25  1  0.96826  0.61364  0.51033  1
 O  O26  1  0.46826  0.51033  0.88636  1
 O  O27  1  0.53174  0.48967  0.11364  1
 O  O28  1  0.53174  0.01033  0.11364  1
 O  O29  1  0.97465  0.86385  0.25000  1
 O  O30  1  0.58602  0.25000  0.13435  1
 O  O31  1  0.58602  0.25000  0.36565  1
 O  O32  1  0.46826  0.98967  0.61364  1
 Tl  Tl1  1  0.28919  0.52300  0.25000  1
 Tl  Tl2  1  0.21081  0.75000  0.02300  1
 Tl  Tl3  1  0.71081  0.47700  0.75000  1
 Tl  Tl4  1  0.71081  0.02300  0.75000  1
 Tl  Tl5  1  0.28919  0.97700  0.25000  1
 Tl  Tl6  1  0.78919  0.25000  0.97700  1
 Tl  Tl7  1  0.21081  0.75000  0.47700  1
 Tl  Tl8  1  0.78919  0.25000  0.52300  1
