CIF file written using JARVIS-Tools package.
data_Na2SrP4O12
_symmetry_space_group_name_H-M  'P4/nbm'
_cell_length_a       5.00068
_cell_length_b       9.88924
_cell_length_c       9.88924
_cell_angle_alpha    90
_cell_angle_beta     90
_cell_angle_gamma    90

_symmetry_Int_Tables_number  125
_chemical_formula_structural  Na2SrP4O12
_chemical_formula_sum  Na4Sr2P8O24
_cell_volume  489.05221345827954
_cell_formula_units_Z  2
loop_
  _symmetry_equiv_pos_site_id
 _symmetry_equiv_pos_as_xyz
 1  'x, y, z'
loop_
 _atom_site_type_symbol
 _atom_site_label
 _atom_site_symmetry_multiplicity
 _atom_site_fract_x
 _atom_site_fract_y
 _atom_site_fract_z
 _atom_site_fract_occupancy
 Na  Na1  1  0.50000  0.00000  0.50000  1
 Na  Na2  1  0.50000  0.50000  0.50000  1
 Na  Na3  1  0.50000  0.50000  0.00000  1
 Na  Na4  1  0.50000  0.00000  0.00000  1
 O  O1  1  0.77156  0.18712  0.46255  1
 O  O2  1  0.77156  0.53745  0.81288  1
 O  O3  1  0.22844  0.31288  0.46255  1
 O  O4  1  0.86710  0.64012  0.14012  1
 O  O5  1  0.22844  0.46255  0.18712  1
 O  O6  1  0.22844  0.18712  0.03745  1
 O  O7  1  0.86710  0.14012  0.85988  1
 O  O8  1  0.86710  0.85988  0.35988  1
 O  O9  1  0.22844  0.81288  0.53745  1
 O  O10  1  0.22844  0.96255  0.81288  1
 O  O11  1  0.13290  0.85988  0.14012  1
 O  O12  1  0.13290  0.35988  0.85988  1
 O  O13  1  0.13290  0.14012  0.64012  1
 O  O14  1  0.13290  0.64012  0.35988  1
 O  O15  1  0.86710  0.35988  0.64012  1
 O  O16  1  0.77156  0.68712  0.53745  1
 O  O17  1  0.22844  0.68712  0.96255  1
 O  O18  1  0.22844  0.03745  0.31288  1
 O  O19  1  0.77156  0.96255  0.68712  1
 O  O20  1  0.77156  0.31288  0.03745  1
 O  O21  1  0.22844  0.53745  0.68712  1
 O  O22  1  0.77156  0.46255  0.31288  1
 O  O23  1  0.77156  0.81288  0.96255  1
 O  O24  1  0.77156  0.03745  0.18712  1
 P  P1  1  0.00000  0.25000  0.96321  1
 P  P2  1  0.00000  0.53679  0.25000  1
 P  P3  1  0.00000  0.25000  0.53679  1
 P  P4  1  0.00000  0.75000  0.03679  1
 P  P5  1  0.00000  0.75000  0.46321  1
 P  P6  1  0.00000  0.46321  0.75000  1
 P  P7  1  0.00000  0.96321  0.25000  1
 P  P8  1  0.00000  0.03679  0.75000  1
 Sr  Sr1  1  0.50000  0.75000  0.75000  1
 Sr  Sr2  1  0.50000  0.25000  0.25000  1
