CIF file written using JARVIS-Tools package.
data_Dy3AlNiS7
_symmetry_space_group_name_H-M  'P6_3'
_cell_length_a       9.49028
_cell_length_b       6.18533
_cell_length_c       9.4902
_cell_angle_alpha    90
_cell_angle_beta     120
_cell_angle_gamma    90

_symmetry_Int_Tables_number  173
_chemical_formula_structural  Dy3AlNiS7
_chemical_formula_sum  Dy6Al2Ni2S4
_cell_volume  482.44602953304843
_cell_formula_units_Z  2
loop_
  _symmetry_equiv_pos_site_id
 _symmetry_equiv_pos_as_xyz
 1  'x, y, z'
loop_
 _atom_site_type_symbol
 _atom_site_label
 _atom_site_symmetry_multiplicity
 _atom_site_fract_x
 _atom_site_fract_y
 _atom_site_fract_z
 _atom_site_fract_occupancy
 Al  Al1  1  0.33333  0.65605  0.66667  1
 Al  Al2  1  0.66667  0.15605  0.33333  1
 Dy  Dy1  1  0.62382  0.22846  0.78352  1
 Dy  Dy2  1  0.21648  0.22846  0.84029  1
 Dy  Dy3  1  0.15971  0.22845  0.37619  1
 Dy  Dy4  1  0.37618  0.72846  0.21648  1
 Dy  Dy5  1  0.78352  0.72846  0.15971  1
 Dy  Dy6  1  0.84029  0.72845  0.62381  1
 Ni  Ni1  1  0.00000  0.05592  -0.00000  1
 Ni  Ni2  1  -0.00000  0.55592  0.00000  1
 S  S1  1  0.76619  0.82066  0.86913  1
 S  S2  1  0.33333  0.01761  0.66667  1
 S  S3  1  0.10294  0.82066  0.23381  1
 S  S4  1  0.23381  0.32066  0.13087  1
 S  S5  1  0.86913  0.32066  0.10294  1
 S  S6  1  0.13087  0.82066  0.89706  1
 S  S7  1  0.91334  0.00203  0.43698  1
 S  S8  1  0.08666  0.50203  0.56302  1
 S  S9  1  0.43698  0.50203  0.52363  1
 S  S10  1  0.52364  0.00203  0.08666  1
 S  S11  1  0.89706  0.32066  0.76619  1
 S  S12  1  0.56302  0.00203  0.47637  1
 S  S13  1  0.47636  0.50203  0.91334  1
 S  S14  1  0.66667  0.51761  0.33333  1
