CIF file written using JARVIS-Tools package.
data_Ta4BeTe
_symmetry_space_group_name_H-M  'F-43m'
_cell_length_a       5.50246
_cell_length_b       5.50246
_cell_length_c       5.50246
_cell_angle_alpha    60
_cell_angle_beta     60
_cell_angle_gamma    60

_symmetry_Int_Tables_number  216
_chemical_formula_structural  Ta4BeTe
_chemical_formula_sum  Ta4BeTe
_cell_volume  117.80308794958754
_cell_formula_units_Z  1
loop_
  _symmetry_equiv_pos_site_id
 _symmetry_equiv_pos_as_xyz
 1  'x, y, z'
loop_
 _atom_site_type_symbol
 _atom_site_label
 _atom_site_symmetry_multiplicity
 _atom_site_fract_x
 _atom_site_fract_y
 _atom_site_fract_z
 _atom_site_fract_occupancy
 Be  Be1  1  0.00000  0.00000  0.00000  1
 Ta  Ta1  1  0.11930  0.62690  0.62690  1
 Ta  Ta2  1  0.62690  0.62690  0.62690  1
 Ta  Ta3  1  0.62690  0.11930  0.62690  1
 Ta  Ta4  1  0.62690  0.62690  0.11930  1
 Te  Te1  1  0.25000  0.25000  0.25000  1
