CIF file written using JARVIS-Tools package.
data_EuMg2H6
_symmetry_space_group_name_H-M  'P4/mmm'
_cell_length_a       3.62607
_cell_length_b       3.62621
_cell_length_c       7.96647
_cell_angle_alpha    90
_cell_angle_beta     90.0012
_cell_angle_gamma    89.9987

_symmetry_Int_Tables_number  123
_chemical_formula_structural  EuMg2H6
_chemical_formula_sum  EuMg2H6
_cell_volume  104.7502073255237
_cell_formula_units_Z  1
loop_
  _symmetry_equiv_pos_site_id
 _symmetry_equiv_pos_as_xyz
 1  'x, y, z'
loop_
 _atom_site_type_symbol
 _atom_site_label
 _atom_site_symmetry_multiplicity
 _atom_site_fract_x
 _atom_site_fract_y
 _atom_site_fract_z
 _atom_site_fract_occupancy
 Eu  Eu1  1  -0.00000  0.00001  -0.00000  1
 H  H1  1  0.49999  -0.00000  0.80584  1
 H  H2  1  -0.00000  0.50000  0.80584  1
 H  H3  1  0.50000  0.00000  0.19416  1
 H  H4  1  0.00000  0.50000  0.19416  1
 H  H5  1  0.50001  0.49999  -0.00000  1
 H  H6  1  0.50000  0.50000  0.50000  1
 Mg  Mg1  1  0.49999  0.50000  0.72342  1
 Mg  Mg2  1  0.50001  0.50000  0.27658  1
