CIF file written using JARVIS-Tools package.
data_RbAuSe2O8
_symmetry_space_group_name_H-M  'C2/m'
_cell_length_a       6.00353
_cell_length_b       6.00353
_cell_length_c       7.3486
_cell_angle_alpha    66.7161
_cell_angle_beta     66.7161
_cell_angle_gamma    52.6312

_symmetry_Int_Tables_number  12
_chemical_formula_structural  RbAuSe2O8
_chemical_formula_sum  RbAuSe2O8
_cell_volume  188.92399705580587
_cell_formula_units_Z  1
loop_
  _symmetry_equiv_pos_site_id
 _symmetry_equiv_pos_as_xyz
 1  'x, y, z'
loop_
 _atom_site_type_symbol
 _atom_site_label
 _atom_site_symmetry_multiplicity
 _atom_site_fract_x
 _atom_site_fract_y
 _atom_site_fract_z
 _atom_site_fract_occupancy
 Au  Au1  1  0.00000  0.00000  0.00000  1
 O  O1  1  0.32310  0.32310  0.92499  1
 O  O2  1  0.67690  0.67690  0.07501  1
 O  O3  1  0.13431  0.63417  0.21348  1
 O  O4  1  0.36583  0.86569  0.78652  1
 O  O5  1  0.86569  0.36583  0.78652  1
 O  O6  1  0.63417  0.13431  0.21348  1
 O  O7  1  0.14153  0.14153  0.34143  1
 O  O8  1  0.85847  0.85847  0.65857  1
 Rb  Rb1  1  0.50000  0.50000  0.50000  1
 Se  Se1  1  0.29938  0.29938  0.16055  1
 Se  Se2  1  0.70062  0.70062  0.83945  1
