CIF file written using JARVIS-Tools package.
data_MgMoN2
_symmetry_space_group_name_H-M  'P6_3/mmc'
_cell_length_a       2.92456
_cell_length_b       2.92457
_cell_length_c       10.5785
_cell_angle_alpha    90
_cell_angle_beta     90
_cell_angle_gamma    120

_symmetry_Int_Tables_number  194
_chemical_formula_structural  MgMoN2
_chemical_formula_sum  Mg2Mo2N4
_cell_volume  78.35657021400296
_cell_formula_units_Z  2
loop_
  _symmetry_equiv_pos_site_id
 _symmetry_equiv_pos_as_xyz
 1  'x, y, z'
loop_
 _atom_site_type_symbol
 _atom_site_label
 _atom_site_symmetry_multiplicity
 _atom_site_fract_x
 _atom_site_fract_y
 _atom_site_fract_z
 _atom_site_fract_occupancy
 Mg  Mg1  1  0.00000  0.00000  0.00000  1
 Mg  Mg2  1  0.00000  0.00000  0.50000  1
 Mo  Mo1  1  0.66667  0.33333  0.25000  1
 Mo  Mo2  1  0.33333  0.66667  0.75000  1
 N  N1  1  0.33333  0.66667  0.12731  1
 N  N2  1  0.33333  0.66667  0.37269  1
 N  N3  1  0.66667  0.33333  0.62731  1
 N  N4  1  0.66667  0.33333  0.87269  1
