CIF file written using JARVIS-Tools package.
data_Mg2BBrN2
_symmetry_space_group_name_H-M  'C2/c'
_cell_length_a       5.67186
_cell_length_b       5.67186
_cell_length_c       6.49287
_cell_angle_alpha    74.2269
_cell_angle_beta     74.2269
_cell_angle_gamma    71.6001

_symmetry_Int_Tables_number  15
_chemical_formula_structural  Mg2BBrN2
_chemical_formula_sum  Mg4B2Br2N4
_cell_volume  186.7344004275647
_cell_formula_units_Z  2
loop_
  _symmetry_equiv_pos_site_id
 _symmetry_equiv_pos_as_xyz
 1  'x, y, z'
loop_
 _atom_site_type_symbol
 _atom_site_label
 _atom_site_symmetry_multiplicity
 _atom_site_fract_x
 _atom_site_fract_y
 _atom_site_fract_z
 _atom_site_fract_occupancy
 B  B1  1  0.11215  0.88785  0.75000  1
 B  B2  1  0.88785  0.11215  0.25000  1
 Br  Br1  1  0.63092  0.36908  0.75000  1
 Br  Br2  1  0.36908  0.63092  0.25000  1
 Mg  Mg1  1  0.34590  0.14299  0.33544  1
 Mg  Mg2  1  0.85701  0.65410  0.16456  1
 Mg  Mg3  1  0.65410  0.85701  0.66456  1
 Mg  Mg4  1  0.14299  0.34590  0.83544  1
 N  N1  1  0.26694  0.04231  0.67882  1
 N  N2  1  0.95769  0.73306  0.82118  1
 N  N3  1  0.73306  0.95769  0.32118  1
 N  N4  1  0.04231  0.26694  0.17882  1
