CIF file written using JARVIS-Tools package.
data_CuTeO3
_symmetry_space_group_name_H-M  'Pnma'
_cell_length_a       5.74187
_cell_length_b       6.03985
_cell_length_c       7.22025
_cell_angle_alpha    90
_cell_angle_beta     90
_cell_angle_gamma    90

_symmetry_Int_Tables_number  62
_chemical_formula_structural  CuTeO3
_chemical_formula_sum  Cu4Te4O2
_cell_volume  250.39833016509186
_cell_formula_units_Z  4
loop_
  _symmetry_equiv_pos_site_id
 _symmetry_equiv_pos_as_xyz
 1  'x, y, z'
loop_
 _atom_site_type_symbol
 _atom_site_label
 _atom_site_symmetry_multiplicity
 _atom_site_fract_x
 _atom_site_fract_y
 _atom_site_fract_z
 _atom_site_fract_occupancy
 Cu  Cu1  1  0.00000  0.50000  0.50000  1
 Cu  Cu2  1  0.50000  0.00000  0.50000  1
 Cu  Cu3  1  0.50000  0.00000  0.00000  1
 Cu  Cu4  1  0.00000  0.50000  0.00000  1
 O  O1  1  0.90688  0.80129  0.55764  1
 O  O2  1  0.09312  0.19871  0.05764  1
 O  O3  1  0.59312  0.30129  0.94236  1
 O  O4  1  0.59312  0.30129  0.55764  1
 O  O5  1  0.09312  0.19871  0.44236  1
 O  O6  1  0.90688  0.80129  0.94236  1
 O  O7  1  0.40688  0.69871  0.05764  1
 O  O8  1  0.83874  0.54857  0.25000  1
 O  O9  1  0.66126  0.04857  0.25000  1
 O  O10  1  0.33874  0.95143  0.75000  1
 O  O11  1  0.40688  0.69871  0.44236  1
 O  O12  1  0.16126  0.45143  0.75000  1
 Te  Te1  1  0.50317  0.48931  0.25000  1
 Te  Te2  1  0.99683  0.98931  0.25000  1
 Te  Te3  1  0.49683  0.51069  0.75000  1
 Te  Te4  1  0.00317  0.01069  0.75000  1
