CIF file written using JARVIS-Tools package.
data_KGa
_symmetry_space_group_name_H-M  'Pnma'
_cell_length_a       4.50763
_cell_length_b       6.38841
_cell_length_c       9.88266
_cell_angle_alpha    90
_cell_angle_beta     90
_cell_angle_gamma    90

_symmetry_Int_Tables_number  62
_chemical_formula_structural  KGa
_chemical_formula_sum  K4Ga4
_cell_volume  284.5866541126853
_cell_formula_units_Z  4
loop_
  _symmetry_equiv_pos_site_id
 _symmetry_equiv_pos_as_xyz
 1  'x, y, z'
loop_
 _atom_site_type_symbol
 _atom_site_label
 _atom_site_symmetry_multiplicity
 _atom_site_fract_x
 _atom_site_fract_y
 _atom_site_fract_z
 _atom_site_fract_occupancy
 Ga  Ga1  1  0.25000  0.56985  0.02125  1
 Ga  Ga2  1  0.25000  0.93015  0.52125  1
 Ga  Ga3  1  0.75000  0.43015  0.97875  1
 Ga  Ga4  1  0.75000  0.06985  0.47875  1
 K  K1  1  0.25000  0.42910  0.67466  1
 K  K2  1  0.25000  0.07090  0.17466  1
 K  K3  1  0.75000  0.57090  0.32534  1
 K  K4  1  0.75000  0.92910  0.82534  1
