CIF file written using JARVIS-Tools package.
data_Pr2Fe2S2O3
_symmetry_space_group_name_H-M  'I4/mmm'
_cell_length_a       4.00205
_cell_length_b       4.00205
_cell_length_c       9.34105
_cell_angle_alpha    102.37
_cell_angle_beta     102.37
_cell_angle_gamma    90

_symmetry_Int_Tables_number  139
_chemical_formula_structural  Pr2Fe2S2O3
_chemical_formula_sum  Pr2Fe2S2O3
_cell_volume  142.5792340434168
_cell_formula_units_Z  1
loop_
  _symmetry_equiv_pos_site_id
 _symmetry_equiv_pos_as_xyz
 1  'x, y, z'
loop_
 _atom_site_type_symbol
 _atom_site_label
 _atom_site_symmetry_multiplicity
 _atom_site_fract_x
 _atom_site_fract_y
 _atom_site_fract_z
 _atom_site_fract_occupancy
 Fe  Fe1  1  0.00000  0.50000  0.00000  1
 Fe  Fe2  1  0.50000  0.00000  0.00000  1
 O  O1  1  0.75000  0.25000  0.50000  1
 O  O2  1  0.25000  0.75000  0.50000  1
 O  O3  1  0.50000  0.50000  0.00000  1
 Pr  Pr1  1  0.31963  0.31963  0.63926  1
 Pr  Pr2  1  0.68037  0.68037  0.36074  1
 S  S1  1  0.90631  0.90631  0.81261  1
 S  S2  1  0.09369  0.09369  0.18739  1
