CIF file written using JARVIS-Tools package.
data_Bi2TeI
_symmetry_space_group_name_H-M  'R-3m'
_cell_length_a       4.44329
_cell_length_b       4.44379
_cell_length_c       18.3096
_cell_angle_alpha    83.0562
_cell_angle_beta     96.965
_cell_angle_gamma    119.994

_symmetry_Int_Tables_number  166
_chemical_formula_structural  Bi2TeI
_chemical_formula_sum  Bi4Te2I2
_cell_volume  310.0331704021557
_cell_formula_units_Z  2
loop_
  _symmetry_equiv_pos_site_id
 _symmetry_equiv_pos_as_xyz
 1  'x, y, z'
loop_
 _atom_site_type_symbol
 _atom_site_label
 _atom_site_symmetry_multiplicity
 _atom_site_fract_x
 _atom_site_fract_y
 _atom_site_fract_z
 _atom_site_fract_occupancy
 Bi  Bi1  1  0.55853  0.44244  0.67491  1
 Bi  Bi2  1  0.44147  0.55756  0.32509  1
 Bi  Bi3  1  0.31776  0.68214  0.95336  1
 Bi  Bi4  1  0.68224  0.31786  0.04664  1
 I  I1  1  0.06947  0.92940  0.20940  1
 I  I2  1  0.93053  0.07060  0.79060  1
 Te  Te1  1  0.80614  0.19325  0.41888  1
 Te  Te2  1  0.19386  0.80675  0.58112  1
