CIF file written using JARVIS-Tools package.
data_SbMo2S2
_symmetry_space_group_name_H-M  'P2_1/m'
_cell_length_a       3.21921
_cell_length_b       6.549
_cell_length_c       9.49852
_cell_angle_alpha    105.562
_cell_angle_beta     90
_cell_angle_gamma    90

_symmetry_Int_Tables_number  11
_chemical_formula_structural  SbMo2S2
_chemical_formula_sum  Sb2Mo4S4
_cell_volume  192.91226721108598
_cell_formula_units_Z  2
loop_
  _symmetry_equiv_pos_site_id
 _symmetry_equiv_pos_as_xyz
 1  'x, y, z'
loop_
 _atom_site_type_symbol
 _atom_site_label
 _atom_site_symmetry_multiplicity
 _atom_site_fract_x
 _atom_site_fract_y
 _atom_site_fract_z
 _atom_site_fract_occupancy
 Mo  Mo1  1  0.75000  0.10506  0.11336  1
 Mo  Mo2  1  0.75000  0.33903  0.52031  1
 Mo  Mo3  1  0.25000  0.89494  0.88664  1
 Mo  Mo4  1  0.25000  0.66097  0.47969  1
 S  S1  1  0.25000  0.26644  0.99209  1
 S  S2  1  0.25000  0.52513  0.69084  1
 S  S3  1  0.75000  0.73356  0.00791  1
 S  S4  1  0.75000  0.47487  0.30916  1
 Sb  Sb1  1  0.75000  0.00331  0.66272  1
 Sb  Sb2  1  0.25000  0.99669  0.33728  1
