CIF file written using JARVIS-Tools package.
data_Zn5B3Rh7
_symmetry_space_group_name_H-M  'Pmma'
_cell_length_a       2.85683
_cell_length_b       11.1202
_cell_length_c       11.7877
_cell_angle_alpha    90
_cell_angle_beta     90
_cell_angle_gamma    90

_symmetry_Int_Tables_number  51
_chemical_formula_structural  Zn5B3Rh7
_chemical_formula_sum  Zn0B6Rh4
_cell_volume  374.4755041484548
_cell_formula_units_Z  2
loop_
  _symmetry_equiv_pos_site_id
 _symmetry_equiv_pos_as_xyz
 1  'x, y, z'
loop_
 _atom_site_type_symbol
 _atom_site_label
 _atom_site_symmetry_multiplicity
 _atom_site_fract_x
 _atom_site_fract_y
 _atom_site_fract_z
 _atom_site_fract_occupancy
 B  B1  1  0.50000  0.61849  0.59310  1
 B  B2  1  0.50000  0.75000  0.04036  1
 B  B3  1  0.50000  0.25000  0.95964  1
 B  B4  1  0.50000  0.88151  0.59310  1
 B  B5  1  0.50000  0.11849  0.40690  1
 B  B6  1  0.50000  0.38151  0.40690  1
 Rh  Rh1  1  0.00000  0.08012  0.28007  1
 Rh  Rh2  1  0.00000  0.91988  0.71993  1
 Rh  Rh3  1  0.00000  0.62589  0.96437  1
 Rh  Rh4  1  0.00000  0.12589  0.03563  1
 Rh  Rh5  1  0.00000  0.87411  0.96437  1
 Rh  Rh6  1  0.00000  0.25000  0.47603  1
 Rh  Rh7  1  0.00000  0.75000  0.52397  1
 Rh  Rh8  1  0.00000  0.25000  0.81656  1
 Rh  Rh9  1  0.00000  0.75000  0.18344  1
 Rh  Rh10  1  0.00000  0.37411  0.03563  1
 Rh  Rh11  1  0.00000  0.41988  0.28007  1
 Rh  Rh12  1  0.00000  0.00000  0.50000  1
 Rh  Rh13  1  0.00000  0.50000  0.50000  1
 Rh  Rh14  1  0.00000  0.58012  0.71993  1
 Zn  Zn1  1  0.50000  0.25000  0.18767  1
 Zn  Zn2  1  0.50000  0.45333  0.86502  1
 Zn  Zn3  1  0.50000  0.54667  0.13498  1
 Zn  Zn4  1  0.50000  0.95333  0.13498  1
 Zn  Zn5  1  0.50000  0.04667  0.86502  1
 Zn  Zn6  1  0.50000  0.37023  0.65300  1
 Zn  Zn7  1  0.50000  0.62977  0.34700  1
 Zn  Zn8  1  0.50000  0.87023  0.34700  1
 Zn  Zn9  1  0.50000  0.12977  0.65300  1
 Zn  Zn10  1  0.50000  0.75000  0.81233  1
