CIF file written using JARVIS-Tools package.
data_CdP2
_symmetry_space_group_name_H-M  'P4_12_12'
_cell_length_a       5.34592
_cell_length_b       5.34592
_cell_length_c       20.0121
_cell_angle_alpha    90
_cell_angle_beta     90
_cell_angle_gamma    90

_symmetry_Int_Tables_number  92
_chemical_formula_structural  CdP2
_chemical_formula_sum  Cd8P6
_cell_volume  571.9251822082888
_cell_formula_units_Z  8
loop_
  _symmetry_equiv_pos_site_id
 _symmetry_equiv_pos_as_xyz
 1  'x, y, z'
loop_
 _atom_site_type_symbol
 _atom_site_label
 _atom_site_symmetry_multiplicity
 _atom_site_fract_x
 _atom_site_fract_y
 _atom_site_fract_z
 _atom_site_fract_occupancy
 Cd  Cd1  1  0.15181  0.62521  0.04765  1
 Cd  Cd2  1  0.12521  0.34819  0.79765  1
 Cd  Cd3  1  0.65181  0.87479  0.70235  1
 Cd  Cd4  1  0.34819  0.12521  0.20235  1
 Cd  Cd5  1  0.84819  0.37479  0.54765  1
 Cd  Cd6  1  0.62521  0.15181  0.95235  1
 Cd  Cd7  1  0.37479  0.84819  0.45235  1
 Cd  Cd8  1  0.87479  0.65181  0.29765  1
 P  P1  1  0.97829  0.97923  0.87415  1
 P  P2  1  0.02077  0.02171  0.62585  1
 P  P3  1  0.52077  0.47829  0.12415  1
 P  P4  1  0.47923  0.52171  0.62415  1
 P  P5  1  0.47829  0.52077  0.87585  1
 P  P6  1  0.52171  0.47923  0.37585  1
 P  P7  1  0.97923  0.97829  0.12585  1
 P  P8  1  0.69232  0.78524  0.18482  1
 P  P9  1  0.21476  0.30768  0.31518  1
 P  P10  1  0.02171  0.02077  0.37415  1
 P  P11  1  0.78524  0.69232  0.81518  1
 P  P12  1  0.19232  0.71476  0.56518  1
 P  P13  1  0.28524  0.80768  0.93482  1
 P  P14  1  0.71476  0.19232  0.43482  1
 P  P15  1  0.80768  0.28524  0.06518  1
 P  P16  1  0.30768  0.21476  0.68482  1
