CIF file written using JARVIS-Tools package.
data_UCo4B4
_symmetry_space_group_name_H-M  'P4_2/nmc'
_cell_length_a       5.00446
_cell_length_b       5.00446
_cell_length_c       6.99703
_cell_angle_alpha    90
_cell_angle_beta     90
_cell_angle_gamma    90

_symmetry_Int_Tables_number  137
_chemical_formula_structural  UCo4B4
_chemical_formula_sum  U2Co8B8
_cell_volume  175.23791215857918
_cell_formula_units_Z  2
loop_
  _symmetry_equiv_pos_site_id
 _symmetry_equiv_pos_as_xyz
 1  'x, y, z'
loop_
 _atom_site_type_symbol
 _atom_site_label
 _atom_site_symmetry_multiplicity
 _atom_site_fract_x
 _atom_site_fract_y
 _atom_site_fract_z
 _atom_site_fract_occupancy
 B  B1  1  0.17285  0.50000  0.65492  1
 B  B2  1  0.00000  0.32715  0.15492  1
 B  B3  1  0.32715  0.00000  0.84508  1
 B  B4  1  0.67285  0.00000  0.84508  1
 B  B5  1  0.50000  0.17285  0.34508  1
 B  B6  1  0.50000  0.82715  0.34508  1
 B  B7  1  0.82715  0.50000  0.65492  1
 B  B8  1  0.00000  0.67285  0.15492  1
 Co  Co1  1  0.25299  0.00000  0.14122  1
 Co  Co2  1  0.50000  0.75299  0.64122  1
 Co  Co3  1  0.74701  0.00000  0.14122  1
 Co  Co4  1  0.75299  0.50000  0.35878  1
 Co  Co5  1  0.00000  0.25299  0.85878  1
 Co  Co6  1  0.00000  0.74701  0.85878  1
 Co  Co7  1  0.24701  0.50000  0.35878  1
 Co  Co8  1  0.50000  0.24701  0.64122  1
 U  U1  1  0.50000  0.50000  0.00000  1
 U  U2  1  0.00000  0.00000  0.50000  1
