CIF file written using JARVIS-Tools package.
data_NbPt3
_symmetry_space_group_name_H-M  'Pmmn'
_cell_length_a       4.62554
_cell_length_b       4.94268
_cell_length_c       5.62
_cell_angle_alpha    90
_cell_angle_beta     90
_cell_angle_gamma    90

_symmetry_Int_Tables_number  59
_chemical_formula_structural  NbPt3
_chemical_formula_sum  Nb2Pt6
_cell_volume  128.48787240279978
_cell_formula_units_Z  2
loop_
  _symmetry_equiv_pos_site_id
 _symmetry_equiv_pos_as_xyz
 1  'x, y, z'
loop_
 _atom_site_type_symbol
 _atom_site_label
 _atom_site_symmetry_multiplicity
 _atom_site_fract_x
 _atom_site_fract_y
 _atom_site_fract_z
 _atom_site_fract_occupancy
 Nb  Nb1  1  0.75000  0.34042  0.75000  1
 Nb  Nb2  1  0.25000  0.65958  0.25000  1
 Pt  Pt1  1  0.75000  0.83477  0.00021  1
 Pt  Pt2  1  0.75000  0.83477  0.49979  1
 Pt  Pt3  1  0.25000  0.16523  0.99979  1
 Pt  Pt4  1  0.25000  0.16523  0.50021  1
 Pt  Pt5  1  0.25000  0.65900  0.75000  1
 Pt  Pt6  1  0.75000  0.34100  0.25000  1
