CIF file written using JARVIS-Tools package.
data_Al2O3
_symmetry_space_group_name_H-M  'P2/m'
_cell_length_a       2.86043
_cell_length_b       4.91634
_cell_length_c       9.12815
_cell_angle_alpha    80.0198
_cell_angle_beta     89.9889
_cell_angle_gamma    89.9959

_symmetry_Int_Tables_number  10
_chemical_formula_structural  Al2O3
_chemical_formula_sum  Al4O6
_cell_volume  126.42504085084765
_cell_formula_units_Z  2
loop_
  _symmetry_equiv_pos_site_id
 _symmetry_equiv_pos_as_xyz
 1  'x, y, z'
loop_
 _atom_site_type_symbol
 _atom_site_label
 _atom_site_symmetry_multiplicity
 _atom_site_fract_x
 _atom_site_fract_y
 _atom_site_fract_z
 _atom_site_fract_occupancy
 Al  Al1  1  0.69293  0.83705  0.94841  1
 Al  Al2  1  0.19328  0.08504  0.40930  1
 Al  Al3  1  0.69334  0.63429  0.22925  1
 Al  Al4  1  0.19300  0.38629  0.76836  1
 O  O1  1  0.69321  0.11939  0.54583  1
 O  O2  1  0.69333  0.90490  0.34153  1
 O  O3  1  0.19296  0.04730  0.88068  1
 O  O4  1  0.69295  0.56644  0.83612  1
 O  O5  1  0.19332  0.42404  0.29698  1
 O  O6  1  0.69308  0.35195  0.63183  1
