CIF file written using JARVIS-Tools package.
data_LiAlSiH2O5
_symmetry_space_group_name_H-M  'Pna2_1'
_cell_length_a       4.95095
_cell_length_b       8.19911
_cell_length_c       11.3642
_cell_angle_alpha    90
_cell_angle_beta     90
_cell_angle_gamma    90

_symmetry_Int_Tables_number  33
_chemical_formula_structural  LiAlSiH2O5
_chemical_formula_sum  Li4Al4Si4H8O20
_cell_volume  461.31337851858757
_cell_formula_units_Z  4
loop_
  _symmetry_equiv_pos_site_id
 _symmetry_equiv_pos_as_xyz
 1  'x, y, z'
loop_
 _atom_site_type_symbol
 _atom_site_label
 _atom_site_symmetry_multiplicity
 _atom_site_fract_x
 _atom_site_fract_y
 _atom_site_fract_z
 _atom_site_fract_occupancy
 Al  Al1  1  0.45014  0.65860  0.28873  1
 Al  Al2  1  -0.04986  0.15860  0.21127  1
 Al  Al3  1  0.45014  0.84140  0.78873  1
 Al  Al4  1  -0.04986  0.34140  0.71127  1
 H  H1  1  0.70268  0.27301  -0.05405  1
 H  H2  1  0.20268  0.77301  0.55405  1
 H  H3  1  0.48166  0.19298  0.54644  1
 H  H4  1  -0.01834  0.80702  0.45356  1
 H  H5  1  0.20268  0.72699  0.05405  1
 H  H6  1  0.70268  0.22699  0.44595  1
 H  H7  1  0.48166  0.30702  0.04644  1
 H  H8  1  -0.01834  0.69298  0.95356  1
 Li  Li1  1  -0.08392  0.01912  0.59390  1
 Li  Li2  1  0.41608  0.51912  0.90610  1
 Li  Li3  1  0.41608  -0.01912  0.40610  1
 Li  Li4  1  -0.08392  0.48088  0.09390  1
 O  O1  1  0.17479  0.76620  0.23715  1
 O  O2  1  0.64151  0.35273  0.00484  1
 O  O3  1  0.68881  0.64909  0.16675  1
 O  O4  1  0.18277  0.31148  0.15052  1
 O  O5  1  0.68277  0.68852  0.84948  1
 O  O6  1  0.68881  0.85091  0.66675  1
 O  O7  1  0.14151  0.64727  0.99516  1
 O  O8  1  0.67479  0.23380  0.76285  1
 O  O9  1  0.17479  0.73380  0.73715  1
 O  O10  1  0.18881  0.14909  0.33325  1
 O  O11  1  0.18881  0.35091  0.83325  1
 O  O12  1  -0.15729  0.52327  0.64922  1
 O  O13  1  -0.15729  -0.02327  0.14922  1
 O  O14  1  0.64151  0.14727  0.50484  1
 O  O15  1  0.68277  0.81148  0.34948  1
 O  O16  1  0.67479  0.26620  0.26285  1
 O  O17  1  0.18277  0.18852  0.65052  1
 O  O18  1  0.14151  0.85273  0.49516  1
 O  O19  1  0.34271  0.47673  0.35078  1
 O  O20  1  0.34271  0.02327  0.85078  1
 Si  Si1  1  0.85876  0.80632  0.22175  1
 Si  Si2  1  0.85876  0.69368  0.72175  1
 Si  Si3  1  0.35876  0.30632  0.27825  1
 Si  Si4  1  0.35876  0.19368  0.77825  1
