data_image0
_chemical_formula_structural       Ag3Sn3Yb3
_chemical_formula_sum              "Ag3 Sn3 Yb3"
_cell_length_a       4.80353
_cell_length_b       4.80385
_cell_length_c       10.7959
_cell_angle_alpha    90
_cell_angle_beta     90
_cell_angle_gamma    119.998

_space_group_name_H-M_alt    "P 1"
_space_group_IT_number       1

loop_
  _space_group_symop_operation_xyz
  'x, y, z'

loop_
  _atom_site_type_symbol
  _atom_site_label
  _atom_site_symmetry_multiplicity
  _atom_site_fract_x
  _atom_site_fract_y
  _atom_site_fract_z
  _atom_site_occupancy
  Ag  Ag1       1.0  0.33300  0.66700  0.19500  1.0000
  Ag  Ag2       1.0  0.66700  0.33300  0.50000  1.0000
  Ag  Ag3       1.0  0.33300  0.66700  0.80500  1.0000
  Sn  Sn1       1.0  0.66700  0.33300  0.14600  1.0000
  Sn  Sn2       1.0  0.33300  0.66700  0.50000  1.0000
  Sn  Sn3       1.0  0.66700  0.33300  0.85400  1.0000
  Yb  Yb1       1.0  0.00001  0.00002  0.00000  1.0000
  Yb  Yb2       1.0  0.00000  0.00000  0.33200  1.0000
  Yb  Yb3       1.0  0.00000  0.00000  0.66800  1.0000
