CIF file written using JARVIS-Tools package.
data_LuC2
_symmetry_space_group_name_H-M  'I4/mmm'
_cell_length_a       3.55731
_cell_length_b       3.55731
_cell_length_c       3.9318
_cell_angle_alpha    116.896
_cell_angle_beta     116.896
_cell_angle_gamma    90

_symmetry_Int_Tables_number  139
_chemical_formula_structural  LuC2
_chemical_formula_sum  LuC2
_cell_volume  38.240391774824204
_cell_formula_units_Z  1
loop_
  _symmetry_equiv_pos_site_id
 _symmetry_equiv_pos_as_xyz
 1  'x, y, z'
loop_
 _atom_site_type_symbol
 _atom_site_label
 _atom_site_symmetry_multiplicity
 _atom_site_fract_x
 _atom_site_fract_y
 _atom_site_fract_z
 _atom_site_fract_occupancy
 C  C1  1  0.60749  0.60749  0.21498  1
 C  C2  1  0.39251  0.39251  0.78502  1
 Lu  Lu1  1  0.00000  0.00000  0.00000  1
