CIF file written using JARVIS-Tools package.
data_NaB2H5O6
_symmetry_space_group_name_H-M  'R32'
_cell_length_a       9.5032
_cell_length_b       9.5032
_cell_length_c       9.5032
_cell_angle_alpha    71.9228
_cell_angle_beta     71.9228
_cell_angle_gamma    71.9228

_symmetry_Int_Tables_number  155
_chemical_formula_structural  NaB2H5O6
_chemical_formula_sum  Na6B2H30O36
_cell_volume  753.5430880891101
_cell_formula_units_Z  6
loop_
  _symmetry_equiv_pos_site_id
 _symmetry_equiv_pos_as_xyz
 1  'x, y, z'
loop_
 _atom_site_type_symbol
 _atom_site_label
 _atom_site_symmetry_multiplicity
 _atom_site_fract_x
 _atom_site_fract_y
 _atom_site_fract_z
 _atom_site_fract_occupancy
 B  B1  1  0.11802  0.48058  0.55005  1
 B  B2  1  0.44995  0.51942  0.88198  1
 B  B3  1  0.88198  0.44995  0.51942  1
 B  B4  1  0.55005  0.11802  0.48058  1
 B  B5  1  0.10666  0.23075  0.52586  1
 B  B6  1  0.47414  0.76925  0.89334  1
 B  B7  1  0.89334  0.47414  0.76925  1
 B  B8  1  0.51942  0.88198  0.44995  1
 B  B9  1  0.76925  0.89334  0.47414  1
 B  B10  1  0.52586  0.10666  0.23075  1
 B  B11  1  0.23075  0.52586  0.10666  1
 B  B12  1  0.48058  0.55005  0.11802  1
 H  H1  1  0.64881  0.76213  0.05850  1
 H  H2  1  0.16953  0.31897  0.83112  1
 H  H3  1  0.05850  0.64881  0.76213  1
 H  H4  1  0.35119  0.94150  0.23787  1
 H  H5  1  0.98113  0.84356  0.26338  1
 H  H6  1  0.94150  0.23787  0.35119  1
 H  H7  1  0.71423  0.47446  0.94556  1
 H  H8  1  0.43108  0.73192  0.62157  1
 H  H9  1  0.62157  0.43108  0.73192  1
 H  H10  1  0.73192  0.62157  0.43108  1
 H  H11  1  0.37843  0.26808  0.56892  1
 H  H12  1  0.56892  0.37843  0.26808  1
 H  H13  1  0.01887  0.73662  0.15644  1
 H  H14  1  0.15644  0.01887  0.73662  1
 H  H15  1  0.68103  0.83047  0.16888  1
 H  H16  1  0.26338  0.98113  0.84356  1
 H  H17  1  0.84356  0.26338  0.98113  1
 H  H18  1  0.83112  0.16953  0.31897  1
 H  H19  1  0.31897  0.83112  0.16953  1
 H  H20  1  0.16888  0.68103  0.83047  1
 H  H21  1  0.26808  0.56892  0.37843  1
 H  H22  1  0.83047  0.16888  0.68103  1
 H  H23  1  0.23787  0.35119  0.94150  1
 H  H24  1  0.28577  0.05444  0.52554  1
 H  H25  1  0.05444  0.52554  0.28577  1
 H  H26  1  0.52554  0.28577  0.05444  1
 H  H27  1  0.76213  0.05850  0.64881  1
 H  H28  1  0.47446  0.94556  0.71423  1
 H  H29  1  0.73662  0.15644  0.01887  1
 H  H30  1  0.94556  0.71423  0.47446  1
 Na  Na1  1  0.50000  0.16741  0.83259  1
 Na  Na2  1  0.08211  0.08211  0.08211  1
 Na  Na3  1  0.91789  0.91789  0.91789  1
 Na  Na4  1  0.50000  0.50000  0.50000  1
 Na  Na5  1  0.16741  0.83259  0.50000  1
 Na  Na6  1  0.83259  0.50000  0.16741  1
 O  O1  1  0.15543  -0.00000  0.84457  1
 O  O2  1  -0.00000  0.53961  0.46039  1
 O  O3  1  0.46039  0.00000  0.53961  1
 O  O4  1  0.53961  0.46039  0.00000  1
 O  O5  1  0.71190  0.04107  0.49146  1
 O  O6  1  0.49146  0.71190  0.04107  1
 O  O7  1  0.04107  0.49146  0.71190  1
 O  O8  1  0.28810  0.50854  0.95893  1
 O  O9  1  0.95893  0.28810  0.50854  1
 O  O10  1  0.43284  0.76665  0.51127  1
 O  O11  1  0.45000  0.68394  0.81428  1
 O  O12  1  0.68394  0.81428  0.45000  1
 O  O13  1  0.18572  0.31606  0.55000  1
 O  O14  1  0.31606  0.55000  0.18572  1
 O  O15  1  0.55000  0.18572  0.31606  1
 O  O16  1  0.50854  0.95893  0.28810  1
 O  O17  1  0.81428  0.45000  0.68394  1
 O  O18  1  0.52332  0.17428  0.07911  1
 O  O19  1  0.51127  0.43284  0.76665  1
 O  O20  1  0.23335  0.56716  0.48873  1
 O  O21  1  0.17428  0.07911  0.52332  1
 O  O22  1  0.56716  0.48873  0.23335  1
 O  O23  1  0.47668  0.92089  0.82572  1
 O  O24  1  0.82572  0.47668  0.92089  1
 O  O25  1  0.92089  0.82572  0.47668  1
 O  O26  1  0.07911  0.52332  0.17428  1
 O  O27  1  0.22207  0.26540  0.91413  1
 O  O28  1  0.77793  0.08587  0.73460  1
 O  O29  1  0.73460  0.77793  0.08587  1
 O  O30  1  0.08587  0.73460  0.77793  1
 O  O31  1  0.26540  0.91413  0.22207  1
 O  O32  1  0.91413  0.22207  0.26540  1
 O  O33  1  0.48873  0.23335  0.56716  1
 O  O34  1  0.00000  0.84457  0.15543  1
 O  O35  1  0.76665  0.51127  0.43284  1
 O  O36  1  0.84457  0.15543  0.00000  1
