CIF file written using JARVIS-Tools package.
data_Rb2ZnCl4
_symmetry_space_group_name_H-M  'Pnma'
_cell_length_a       7.13815
_cell_length_b       9.29535
_cell_length_c       12.5601
_cell_angle_alpha    90
_cell_angle_beta     90
_cell_angle_gamma    90

_symmetry_Int_Tables_number  62
_chemical_formula_structural  Rb2ZnCl4
_chemical_formula_sum  Rb8Zn4Cl6
_cell_volume  833.3844601919614
_cell_formula_units_Z  4
loop_
  _symmetry_equiv_pos_site_id
 _symmetry_equiv_pos_as_xyz
 1  'x, y, z'
loop_
 _atom_site_type_symbol
 _atom_site_label
 _atom_site_symmetry_multiplicity
 _atom_site_fract_x
 _atom_site_fract_y
 _atom_site_fract_z
 _atom_site_fract_occupancy
 Cl  Cl1  1  0.75000  0.68634  0.40619  1
 Cl  Cl2  1  0.25000  0.98332  0.40708  1
 Cl  Cl3  1  0.75000  0.51668  0.90708  1
 Cl  Cl4  1  0.25000  0.31366  0.59381  1
 Cl  Cl5  1  0.25000  0.81366  0.90619  1
 Cl  Cl6  1  0.75000  0.18634  0.09381  1
 Cl  Cl7  1  0.00723  0.17388  0.84595  1
 Cl  Cl8  1  0.50723  0.82612  0.15405  1
 Cl  Cl9  1  0.49277  0.67388  0.65405  1
 Cl  Cl10  1  0.75000  0.01668  0.59292  1
 Cl  Cl11  1  0.50723  0.32612  0.34595  1
 Cl  Cl12  1  0.49277  0.17388  0.84595  1
 Cl  Cl13  1  0.99277  0.82612  0.15405  1
 Cl  Cl14  1  0.99277  0.32612  0.34595  1
 Cl  Cl15  1  0.00723  0.67388  0.65405  1
 Cl  Cl16  1  0.25000  0.48332  0.09292  1
 Rb  Rb1  1  0.25000  0.12804  0.08830  1
 Rb  Rb2  1  0.25000  0.97859  0.67312  1
 Rb  Rb3  1  0.25000  0.47859  0.82688  1
 Rb  Rb4  1  0.25000  0.62804  0.41170  1
 Rb  Rb5  1  0.75000  0.87196  0.91170  1
 Rb  Rb6  1  0.75000  0.02141  0.32688  1
 Rb  Rb7  1  0.75000  0.52141  0.17312  1
 Rb  Rb8  1  0.75000  0.37196  0.58830  1
 Zn  Zn1  1  0.75000  0.27325  0.92314  1
 Zn  Zn2  1  0.25000  0.22675  0.42314  1
 Zn  Zn3  1  0.25000  0.72675  0.07686  1
 Zn  Zn4  1  0.75000  0.77325  0.57686  1
