CIF file written using JARVIS-Tools package.
data_BaAsPt
_symmetry_space_group_name_H-M  'P2_13'
_cell_length_a       6.80839
_cell_length_b       6.80839
_cell_length_c       6.80839
_cell_angle_alpha    90
_cell_angle_beta     90
_cell_angle_gamma    90

_symmetry_Int_Tables_number  198
_chemical_formula_structural  BaAsPt
_chemical_formula_sum  Ba4As4Pt4
_cell_volume  315.5974019613015
_cell_formula_units_Z  4
loop_
  _symmetry_equiv_pos_site_id
 _symmetry_equiv_pos_as_xyz
 1  'x, y, z'
loop_
 _atom_site_type_symbol
 _atom_site_label
 _atom_site_symmetry_multiplicity
 _atom_site_fract_x
 _atom_site_fract_y
 _atom_site_fract_z
 _atom_site_fract_occupancy
 As  As1  1  0.17314  0.32686  0.67314  1
 As  As2  1  0.67314  0.17314  0.32686  1
 As  As3  1  0.32686  0.67314  0.17314  1
 As  As4  1  0.82686  0.82686  0.82686  1
 Ba  Ba1  1  0.61092  0.38908  0.88908  1
 Ba  Ba2  1  0.38908  0.88908  0.61092  1
 Ba  Ba3  1  0.11092  0.11092  0.11092  1
 Ba  Ba4  1  0.88908  0.61092  0.38908  1
 Pt  Pt1  1  0.59515  0.90485  0.09515  1
 Pt  Pt2  1  0.09515  0.59515  0.90485  1
 Pt  Pt3  1  0.40485  0.40485  0.40485  1
 Pt  Pt4  1  0.90485  0.09515  0.59515  1
