CIF file written using JARVIS-Tools package.
data_BiB3O6
_symmetry_space_group_name_H-M  'Pca2_1'
_cell_length_a       4.3077
_cell_length_b       4.4828
_cell_length_c       18.54
_cell_angle_alpha    90
_cell_angle_beta     90
_cell_angle_gamma    90

_symmetry_Int_Tables_number  29
_chemical_formula_structural  BiB3O6
_chemical_formula_sum  Bi4B2O24
_cell_volume  358.017457901132
_cell_formula_units_Z  4
loop_
  _symmetry_equiv_pos_site_id
 _symmetry_equiv_pos_as_xyz
 1  'x, y, z'
loop_
 _atom_site_type_symbol
 _atom_site_label
 _atom_site_symmetry_multiplicity
 _atom_site_fract_x
 _atom_site_fract_y
 _atom_site_fract_z
 _atom_site_fract_occupancy
 B  B1  1  0.38109  0.82469  0.50166  1
 B  B2  1  0.85519  0.32800  0.07272  1
 B  B3  1  0.35519  0.32800  0.42728  1
 B  B4  1  0.33156  0.36470  0.28730  1
 B  B5  1  0.38109  0.17531  0.00166  1
 B  B6  1  0.88109  0.17531  0.49834  1
 B  B7  1  0.83156  0.36470  0.21270  1
 B  B8  1  0.35519  0.67200  0.92728  1
 B  B9  1  0.83156  0.63530  0.71270  1
 B  B10  1  0.88109  0.82469  0.99834  1
 B  B11  1  0.33156  0.63530  0.78730  1
 B  B12  1  0.85519  0.67200  0.57272  1
 Bi  Bi1  1  0.31191  0.15886  0.66145  1
 Bi  Bi2  1  0.81191  0.15886  0.83855  1
 Bi  Bi3  1  0.81191  0.84114  0.33855  1
 Bi  Bi4  1  0.31191  0.84114  0.16145  1
 O  O1  1  0.02695  0.12809  0.01788  1
 O  O2  1  0.02695  0.87191  0.51788  1
 O  O3  1  0.42923  0.63828  0.43985  1
 O  O4  1  0.52695  0.87191  0.98212  1
 O  O5  1  0.33793  0.30949  0.78866  1
 O  O6  1  0.52695  0.12809  0.48212  1
 O  O7  1  0.83793  0.69051  0.21134  1
 O  O8  1  0.42923  0.36172  0.93985  1
 O  O9  1  0.52406  0.73697  0.56815  1
 O  O10  1  0.46415  0.24261  0.35420  1
 O  O11  1  0.46415  0.75739  0.85420  1
 O  O12  1  0.02406  0.26303  0.43185  1
 O  O13  1  0.01203  0.25481  0.27599  1
 O  O14  1  0.83793  0.30949  0.71134  1
 O  O15  1  0.96415  0.24261  0.14580  1
 O  O16  1  0.33793  0.69051  0.28866  1
 O  O17  1  0.92923  0.63828  0.06015  1
 O  O18  1  0.51203  0.25481  0.22401  1
 O  O19  1  0.51203  0.74519  0.72401  1
 O  O20  1  0.92923  0.36172  0.56015  1
 O  O21  1  0.52406  0.26303  0.06815  1
 O  O22  1  0.01203  0.74519  0.77599  1
 O  O23  1  0.02406  0.73697  0.93185  1
 O  O24  1  0.96415  0.75739  0.64580  1
