CIF file written using JARVIS-Tools package.
data_Li3AlMo2As2O14
_symmetry_space_group_name_H-M  'P-1'
_cell_length_a       5.20266
_cell_length_b       5.46621
_cell_length_c       9.47824
_cell_angle_alpha    96.0867
_cell_angle_beta     101.719
_cell_angle_gamma    106.929

_symmetry_Int_Tables_number  2
_chemical_formula_structural  Li3AlMo2As2O14
_chemical_formula_sum  Li3AlMo2As2O4
_cell_volume  248.53788395067397
_cell_formula_units_Z  1
loop_
  _symmetry_equiv_pos_site_id
 _symmetry_equiv_pos_as_xyz
 1  'x, y, z'
loop_
 _atom_site_type_symbol
 _atom_site_label
 _atom_site_symmetry_multiplicity
 _atom_site_fract_x
 _atom_site_fract_y
 _atom_site_fract_z
 _atom_site_fract_occupancy
 Al  Al1  1  0.50000  0.00000  0.00000  1
 As  As1  1  0.15529  0.22658  0.17675  1
 As  As2  1  0.84471  0.77342  0.82325  1
 Li  Li1  1  0.18380  0.38400  0.81840  1
 Li  Li2  1  0.81620  0.61600  0.18160  1
 Li  Li3  1  0.00000  0.50000  0.50000  1
 Mo  Mo1  1  0.49702  0.83724  0.35463  1
 Mo  Mo2  1  0.50298  0.16276  0.64537  1
 O  O1  1  0.55395  0.70376  0.89155  1
 O  O2  1  0.12458  0.80501  0.96338  1
 O  O3  1  0.67796  0.16475  0.46109  1
 O  O4  1  0.32204  0.83525  0.53891  1
 O  O5  1  0.55877  0.86304  0.17653  1
 O  O6  1  0.44605  0.29624  0.10845  1
 O  O7  1  0.84500  0.49737  0.70930  1
 O  O8  1  0.86749  0.02604  0.72981  1
 O  O9  1  0.27979  0.33217  0.58952  1
 O  O10  1  0.87542  0.19499  0.03662  1
 O  O11  1  0.44123  0.13696  0.82347  1
 O  O12  1  0.72021  0.66783  0.41048  1
 O  O13  1  0.15500  0.50263  0.29070  1
 O  O14  1  0.13251  0.97396  0.27019  1
