CIF file written using JARVIS-Tools package.
data_ErFeO3
_symmetry_space_group_name_H-M  'Pnma'
_cell_length_a       5.07842
_cell_length_b       5.52509
_cell_length_c       7.32278
_cell_angle_alpha    90
_cell_angle_beta     90
_cell_angle_gamma    90

_symmetry_Int_Tables_number  62
_chemical_formula_structural  ErFeO3
_chemical_formula_sum  Er4Fe4O2
_cell_volume  205.46773588820506
_cell_formula_units_Z  4
loop_
  _symmetry_equiv_pos_site_id
 _symmetry_equiv_pos_as_xyz
 1  'x, y, z'
loop_
 _atom_site_type_symbol
 _atom_site_label
 _atom_site_symmetry_multiplicity
 _atom_site_fract_x
 _atom_site_fract_y
 _atom_site_fract_z
 _atom_site_fract_occupancy
 Er  Er1  1  0.97582  0.07840  0.25000  1
 Er  Er2  1  0.52418  0.57840  0.25000  1
 Er  Er3  1  0.02418  0.92160  0.75000  1
 Er  Er4  1  0.47582  0.42160  0.75000  1
 Fe  Fe1  1  0.00000  0.50000  0.00000  1
 Fe  Fe2  1  0.50000  0.00000  0.00000  1
 Fe  Fe3  1  0.50000  0.00000  0.50000  1
 Fe  Fe4  1  0.00000  0.50000  0.50000  1
 O  O1  1  0.18680  0.19587  0.55235  1
 O  O2  1  0.81320  0.80413  0.05235  1
 O  O3  1  0.31320  0.69587  0.94765  1
 O  O4  1  0.31320  0.69587  0.55235  1
 O  O5  1  0.81320  0.80413  0.44765  1
 O  O6  1  0.89322  0.53229  0.75000  1
 O  O7  1  0.68680  0.30413  0.05235  1
 O  O8  1  0.68680  0.30413  0.44765  1
 O  O9  1  0.10678  0.46771  0.25000  1
 O  O10  1  0.39322  0.96771  0.25000  1
 O  O11  1  0.18680  0.19587  0.94765  1
 O  O12  1  0.60678  0.03229  0.75000  1
