CIF file written using JARVIS-Tools package.
data_TlPAuSe3
_symmetry_space_group_name_H-M  'C2/m'
_cell_length_a       7.12367
_cell_length_b       7.12367
_cell_length_c       8.34707
_cell_angle_alpha    91.1547
_cell_angle_beta     114.854
_cell_angle_gamma    118.94

_symmetry_Int_Tables_number  12
_chemical_formula_structural  TlPAuSe3
_chemical_formula_sum  Tl2P2Au2Se6
_cell_volume  322.75433310606854
_cell_formula_units_Z  2
loop_
  _symmetry_equiv_pos_site_id
 _symmetry_equiv_pos_as_xyz
 1  'x, y, z'
loop_
 _atom_site_type_symbol
 _atom_site_label
 _atom_site_symmetry_multiplicity
 _atom_site_fract_x
 _atom_site_fract_y
 _atom_site_fract_z
 _atom_site_fract_occupancy
 Au  Au1  1  0.76039  0.76039  -0.00000  1
 Au  Au2  1  0.23961  0.23961  0.00000  1
 P  P1  1  0.62161  0.03093  0.65254  1
 P  P2  1  0.37839  0.96907  0.34746  1
 Se  Se1  1  0.42292  0.76414  0.18706  1
 Se  Se2  1  0.51854  0.32245  0.32727  1
 Se  Se3  1  0.57708  0.23586  0.81294  1
 Se  Se4  1  0.48146  0.67755  0.67273  1
 Se  Se5  1  0.00481  0.80873  0.32727  1
 Se  Se6  1  0.99519  0.19127  0.67273  1
 Tl  Tl1  1  0.94325  0.28550  0.22875  1
 Tl  Tl2  1  0.05675  0.71450  0.77125  1
