CIF file written using JARVIS-Tools package.
data_Ce3Ag4Sn4
_symmetry_space_group_name_H-M  'Immm'
_cell_length_a       4.71836
_cell_length_b       7.37951
_cell_length_c       8.92928
_cell_angle_alpha    114.407
_cell_angle_beta     105.323
_cell_angle_gamma    89.9983

_symmetry_Int_Tables_number  71
_chemical_formula_structural  Ce3Ag4Sn4
_chemical_formula_sum  Ce3Ag4Sn4
_cell_volume  270.9424855775402
_cell_formula_units_Z  1
loop_
  _symmetry_equiv_pos_site_id
 _symmetry_equiv_pos_as_xyz
 1  'x, y, z'
loop_
 _atom_site_type_symbol
 _atom_site_label
 _atom_site_symmetry_multiplicity
 _atom_site_fract_x
 _atom_site_fract_y
 _atom_site_fract_z
 _atom_site_fract_occupancy
 Ag  Ag1  1  0.33016  0.52498  0.66045  1
 Ag  Ag2  1  0.66984  0.47502  0.33955  1
 Ag  Ag3  1  0.66998  0.86476  0.33982  1
 Ag  Ag4  1  0.33002  0.13524  0.66018  1
 Ce  Ce1  1  0.00000  0.50000  0.00000  1
 Ce  Ce2  1  0.12951  0.12958  0.25901  1
 Ce  Ce3  1  0.87049  0.87042  0.74099  1
 Sn  Sn1  1  0.21485  0.71467  0.42958  1
 Sn  Sn2  1  0.78515  0.28533  0.57042  1
 Sn  Sn3  1  0.49997  0.19620  0.99989  1
 Sn  Sn4  1  0.50003  0.80380  0.00011  1
