CIF file written using JARVIS-Tools package.
data_PrCo12B6
_symmetry_space_group_name_H-M  'R-3m'
_cell_length_a       5.98902
_cell_length_b       5.98902
_cell_length_c       5.98901
_cell_angle_alpha    104.044
_cell_angle_beta     104.044
_cell_angle_gamma    104.044

_symmetry_Int_Tables_number  166
_chemical_formula_structural  PrCo12B6
_chemical_formula_sum  PrCo2B6
_cell_volume  191.50631591151478
_cell_formula_units_Z  1
loop_
  _symmetry_equiv_pos_site_id
 _symmetry_equiv_pos_as_xyz
 1  'x, y, z'
loop_
 _atom_site_type_symbol
 _atom_site_label
 _atom_site_symmetry_multiplicity
 _atom_site_fract_x
 _atom_site_fract_y
 _atom_site_fract_z
 _atom_site_fract_occupancy
 B  B1  1  0.76923  0.32863  0.76923  1
 B  B2  1  0.76923  0.76923  0.32863  1
 B  B3  1  0.23077  0.67137  0.23077  1
 B  B4  1  0.23077  0.23077  0.67137  1
 B  B5  1  0.67137  0.23077  0.23077  1
 B  B6  1  0.32863  0.76923  0.76923  1
 Co  Co1  1  0.13345  0.50000  0.86655  1
 Co  Co2  1  0.50000  0.86655  0.13345  1
 Co  Co3  1  0.86655  0.13345  0.50000  1
 Co  Co4  1  0.50000  0.13345  0.86655  1
 Co  Co5  1  0.13345  0.86655  0.50000  1
 Co  Co6  1  0.86655  0.50000  0.13345  1
 Co  Co7  1  0.54154  0.81257  0.54154  1
 Co  Co8  1  0.81257  0.54154  0.54154  1
 Co  Co9  1  0.54154  0.54154  0.81257  1
 Co  Co10  1  0.45846  0.18743  0.45846  1
 Co  Co11  1  0.45846  0.45846  0.18743  1
 Co  Co12  1  0.18743  0.45846  0.45846  1
 Pr  Pr1  1  0.00000  0.00000  0.00000  1
