CIF file written using JARVIS-Tools package.
data_Sm6InCo2
_symmetry_space_group_name_H-M  'Immm'
_cell_length_a       8.48548
_cell_length_b       8.48548
_cell_length_c       8.48547
_cell_angle_alpha    106.918
_cell_angle_beta     108.911
_cell_angle_gamma    112.638

_symmetry_Int_Tables_number  71
_chemical_formula_structural  Sm6InCo2
_chemical_formula_sum  Sm2In2Co4
_cell_volume  469.1168939317244
_cell_formula_units_Z  2
loop_
  _symmetry_equiv_pos_site_id
 _symmetry_equiv_pos_as_xyz
 1  'x, y, z'
loop_
 _atom_site_type_symbol
 _atom_site_label
 _atom_site_symmetry_multiplicity
 _atom_site_fract_x
 _atom_site_fract_y
 _atom_site_fract_z
 _atom_site_fract_occupancy
 Co  Co1  1  0.16001  0.50000  0.66001  1
 Co  Co2  1  0.83999  0.50000  0.33999  1
 Co  Co3  1  -0.00000  0.88777  0.88777  1
 Co  Co4  1  0.00000  0.11223  0.11223  1
 In  In1  1  0.50000  0.50000  -0.00000  1
 In  In2  1  0.50000  0.00000  0.50000  1
 Sm  Sm1  1  0.60140  0.78585  0.81555  1
 Sm  Sm2  1  0.02971  0.21415  0.81555  1
 Sm  Sm3  1  0.70532  0.73529  0.44061  1
 Sm  Sm4  1  0.18738  0.51028  0.32290  1
 Sm  Sm5  1  0.29468  0.73529  0.02996  1
 Sm  Sm6  1  0.29468  0.26471  0.55939  1
 Sm  Sm7  1  0.97029  0.78585  0.18445  1
 Sm  Sm8  1  0.39860  0.21415  0.18445  1
 Sm  Sm9  1  0.70532  0.26471  0.97004  1
 Sm  Sm10  1  0.18738  0.86448  0.67710  1
 Sm  Sm11  1  0.81262  0.13552  0.32290  1
 Sm  Sm12  1  0.81262  0.48972  0.67710  1
