CIF file written using JARVIS-Tools package.
data_K5CuAs2
_symmetry_space_group_name_H-M  'P6_3/mmc'
_cell_length_a       5.70035
_cell_length_b       5.70035
_cell_length_c       18.7916
_cell_angle_alpha    90
_cell_angle_beta     90
_cell_angle_gamma    120.01

_symmetry_Int_Tables_number  194
_chemical_formula_structural  K5CuAs2
_chemical_formula_sum  K0Cu2As4
_cell_volume  528.7534639145612
_cell_formula_units_Z  2
loop_
  _symmetry_equiv_pos_site_id
 _symmetry_equiv_pos_as_xyz
 1  'x, y, z'
loop_
 _atom_site_type_symbol
 _atom_site_label
 _atom_site_symmetry_multiplicity
 _atom_site_fract_x
 _atom_site_fract_y
 _atom_site_fract_z
 _atom_site_fract_occupancy
 As  As1  1  0.33331  0.66669  0.37454  1
 As  As2  1  0.66669  0.33331  0.87454  1
 As  As3  1  0.66669  0.33331  0.62546  1
 As  As4  1  0.33331  0.66669  0.12546  1
 Cu  Cu1  1  0.33339  0.66661  0.25000  1
 Cu  Cu2  1  0.66661  0.33339  0.75000  1
 K  K1  1  0.33336  0.66664  0.54991  1
 K  K2  1  0.66664  0.33336  0.04991  1
 K  K3  1  0.66664  0.33336  0.45009  1
 K  K4  1  0.33336  0.66664  0.95009  1
 K  K5  1  0.99998  0.00002  0.14646  1
 K  K6  1  0.00002  0.99998  0.64646  1
 K  K7  1  0.00002  0.99998  0.85354  1
 K  K8  1  0.99998  0.00002  0.35354  1
 K  K9  1  0.33328  0.66672  0.75000  1
 K  K10  1  0.66672  0.33328  0.25000  1
