CIF file written using JARVIS-Tools package.
data_H12C4IN
_symmetry_space_group_name_H-M  'P4/nmm'
_cell_length_a       7.76987
_cell_length_b       7.76987
_cell_length_c       5.6501
_cell_angle_alpha    90
_cell_angle_beta     90
_cell_angle_gamma    90

_symmetry_Int_Tables_number  129
_chemical_formula_structural  H12C4IN
_chemical_formula_sum  H24C8I2N2
_cell_volume  341.101120320721
_cell_formula_units_Z  2
loop_
  _symmetry_equiv_pos_site_id
 _symmetry_equiv_pos_as_xyz
 1  'x, y, z'
loop_
 _atom_site_type_symbol
 _atom_site_label
 _atom_site_symmetry_multiplicity
 _atom_site_fract_x
 _atom_site_fract_y
 _atom_site_fract_z
 _atom_site_fract_occupancy
 C  C1  1  0.40736  0.75000  0.34429  1
 C  C2  1  0.75000  0.40736  0.34429  1
 C  C3  1  0.09264  0.75000  0.34429  1
 C  C4  1  0.75000  0.09264  0.34429  1
 C  C5  1  0.25000  0.90736  0.65571  1
 C  C6  1  0.25000  0.59264  0.65571  1
 C  C7  1  0.90736  0.25000  0.65571  1
 C  C8  1  0.59264  0.25000  0.65571  1
 H  H1  1  0.75000  0.97839  0.45795  1
 H  H2  1  0.63410  0.40362  0.23407  1
 H  H3  1  0.75000  0.52161  0.45795  1
 H  H4  1  0.97839  0.75000  0.45795  1
 H  H5  1  0.52161  0.75000  0.45795  1
 H  H6  1  0.25000  0.02161  0.54205  1
 H  H7  1  0.25000  0.47839  0.54205  1
 H  H8  1  0.47839  0.25000  0.54205  1
 H  H9  1  0.02161  0.25000  0.54205  1
 H  H10  1  0.13410  0.59638  0.76593  1
 H  H11  1  0.59638  0.36590  0.76593  1
 H  H12  1  0.90362  0.36590  0.76593  1
 H  H13  1  0.59638  0.13410  0.76593  1
 H  H14  1  0.90362  0.13410  0.76593  1
 H  H15  1  0.36590  0.59638  0.76593  1
 H  H16  1  0.86590  0.09638  0.23407  1
 H  H17  1  0.13410  0.90362  0.76593  1
 H  H18  1  0.09638  0.63410  0.23407  1
 H  H19  1  0.40362  0.86590  0.23407  1
 H  H20  1  0.09638  0.86590  0.23407  1
 H  H21  1  0.36590  0.90362  0.76593  1
 H  H22  1  0.86590  0.40362  0.23407  1
 H  H23  1  0.63410  0.09638  0.23407  1
 H  H24  1  0.40362  0.63410  0.23407  1
 I  I1  1  0.75000  0.75000  0.88582  1
 I  I2  1  0.25000  0.25000  0.11418  1
 N  N1  1  0.25000  0.75000  0.50000  1
 N  N2  1  0.75000  0.25000  0.50000  1
