CIF file written using JARVIS-Tools package.
data_ErVO3
_symmetry_space_group_name_H-M  'Pnma'
_cell_length_a       5.22125
_cell_length_b       5.61613
_cell_length_c       7.57042
_cell_angle_alpha    90
_cell_angle_beta     90
_cell_angle_gamma    90

_symmetry_Int_Tables_number  62
_chemical_formula_structural  ErVO3
_chemical_formula_sum  Er4V4O2
_cell_volume  221.98894305339405
_cell_formula_units_Z  4
loop_
  _symmetry_equiv_pos_site_id
 _symmetry_equiv_pos_as_xyz
 1  'x, y, z'
loop_
 _atom_site_type_symbol
 _atom_site_label
 _atom_site_symmetry_multiplicity
 _atom_site_fract_x
 _atom_site_fract_y
 _atom_site_fract_z
 _atom_site_fract_occupancy
 Er  Er1  1  0.52123  0.57274  0.25000  1
 Er  Er2  1  0.97877  0.07274  0.25000  1
 Er  Er3  1  0.47877  0.42726  0.75000  1
 Er  Er4  1  0.02123  0.92726  0.75000  1
 O  O1  1  0.18842  0.19465  0.55890  1
 O  O2  1  0.81158  0.80535  0.05890  1
 O  O3  1  0.31158  0.69465  0.94110  1
 O  O4  1  0.31158  0.69465  0.55890  1
 O  O5  1  0.81158  0.80535  0.44110  1
 O  O6  1  0.18842  0.19465  0.94110  1
 O  O7  1  0.68842  0.30535  0.05890  1
 O  O8  1  0.38148  0.95585  0.25000  1
 O  O9  1  0.11852  0.45585  0.25000  1
 O  O10  1  0.88148  0.54415  0.75000  1
 O  O11  1  0.68842  0.30535  0.44110  1
 O  O12  1  0.61852  0.04415  0.75000  1
 V  V1  1  0.00000  0.50000  0.50000  1
 V  V2  1  0.50000  0.00000  0.50000  1
 V  V3  1  0.50000  0.00000  0.00000  1
 V  V4  1  0.00000  0.50000  0.00000  1
