CIF file written using JARVIS-Tools package.
data_Co2As
_symmetry_space_group_name_H-M  'P-62m'
_cell_length_a       5.99913
_cell_length_b       6.00012
_cell_length_c       3.53108
_cell_angle_alpha    90
_cell_angle_beta     90
_cell_angle_gamma    120.005

_symmetry_Int_Tables_number  189
_chemical_formula_structural  Co2As
_chemical_formula_sum  Co6As3
_cell_volume  110.06821358909453
_cell_formula_units_Z  3
loop_
  _symmetry_equiv_pos_site_id
 _symmetry_equiv_pos_as_xyz
 1  'x, y, z'
loop_
 _atom_site_type_symbol
 _atom_site_label
 _atom_site_symmetry_multiplicity
 _atom_site_fract_x
 _atom_site_fract_y
 _atom_site_fract_z
 _atom_site_fract_occupancy
 As  As1  1  0.33327  0.66665  0.00000  1
 As  As2  1  0.66673  0.33338  0.00000  1
 As  As3  1  -0.00000  0.00014  0.50000  1
 Co  Co1  1  0.74305  0.74309  0.00000  1
 Co  Co2  1  0.25695  0.00004  0.00000  1
 Co  Co3  1  0.00000  0.25700  0.00000  1
 Co  Co4  1  0.40100  0.40053  0.50000  1
 Co  Co5  1  0.59900  0.99953  0.50000  1
 Co  Co6  1  0.00000  0.59963  0.50000  1
