CIF file written using JARVIS-Tools package.
data_TbSn3
_symmetry_space_group_name_H-M  'Amm2'
_cell_length_a       4.43159
_cell_length_b       4.4572
_cell_length_c       11.3089
_cell_angle_alpha    101.365
_cell_angle_beta     90
_cell_angle_gamma    90

_symmetry_Int_Tables_number  38
_chemical_formula_structural  TbSn3
_chemical_formula_sum  Tb2Sn6
_cell_volume  218.9989642857704
_cell_formula_units_Z  2
loop_
  _symmetry_equiv_pos_site_id
 _symmetry_equiv_pos_as_xyz
 1  'x, y, z'
loop_
 _atom_site_type_symbol
 _atom_site_label
 _atom_site_symmetry_multiplicity
 _atom_site_fract_x
 _atom_site_fract_y
 _atom_site_fract_z
 _atom_site_fract_occupancy
 Sn  Sn1  1  0.50000  0.09821  0.19643  1
 Sn  Sn2  1  0.50000  0.73459  0.46918  1
 Sn  Sn3  1  0.50000  0.86860  0.73719  1
 Sn  Sn4  1  0.00000  0.97547  0.95094  1
 Sn  Sn5  1  0.00000  0.35899  0.71797  1
 Sn  Sn6  1  0.00000  0.59817  0.19634  1
 Tb  Tb1  1  0.50000  0.48233  0.96467  1
 Tb  Tb2  1  0.00000  0.20964  0.41927  1
