CIF file written using JARVIS-Tools package.
data_LuAsPd
_symmetry_space_group_name_H-M  'P-62m'
_cell_length_a       7.04074
_cell_length_b       7.04074
_cell_length_c       3.90508
_cell_angle_alpha    90
_cell_angle_beta     90
_cell_angle_gamma    120

_symmetry_Int_Tables_number  189
_chemical_formula_structural  LuAsPd
_chemical_formula_sum  Lu3As3Pd3
_cell_volume  167.6477200776992
_cell_formula_units_Z  3
loop_
  _symmetry_equiv_pos_site_id
 _symmetry_equiv_pos_as_xyz
 1  'x, y, z'
loop_
 _atom_site_type_symbol
 _atom_site_label
 _atom_site_symmetry_multiplicity
 _atom_site_fract_x
 _atom_site_fract_y
 _atom_site_fract_z
 _atom_site_fract_occupancy
 As  As1  1  0.33333  0.66667  0.00000  1
 As  As2  1  0.66667  0.33333  0.00000  1
 As  As3  1  0.00000  0.00000  0.50000  1
 Lu  Lu1  1  0.59800  0.00000  0.50000  1
 Lu  Lu2  1  0.00000  0.59800  0.50000  1
 Lu  Lu3  1  0.40200  0.40200  0.50000  1
 Pd  Pd1  1  0.26808  0.00000  0.00000  1
 Pd  Pd2  1  0.00000  0.26808  0.00000  1
 Pd  Pd3  1  0.73192  0.73192  0.00000  1
