CIF file written using JARVIS-Tools package.
data_HoAgGe
_symmetry_space_group_name_H-M  'P-62m'
_cell_length_a       7.3586
_cell_length_b       7.3586
_cell_length_c       4.041
_cell_angle_alpha    90
_cell_angle_beta     90
_cell_angle_gamma    120

_symmetry_Int_Tables_number  189
_chemical_formula_structural  HoAgGe
_chemical_formula_sum  Ho3Ag3Ge3
_cell_volume  189.50043236458376
_cell_formula_units_Z  3
loop_
  _symmetry_equiv_pos_site_id
 _symmetry_equiv_pos_as_xyz
 1  'x, y, z'
loop_
 _atom_site_type_symbol
 _atom_site_label
 _atom_site_symmetry_multiplicity
 _atom_site_fract_x
 _atom_site_fract_y
 _atom_site_fract_z
 _atom_site_fract_occupancy
 Ag  Ag1  1  0.66667  0.33333  0.50000  1
 Ag  Ag2  1  0.00000  0.00000  0.00000  1
 Ag  Ag3  1  0.33333  0.66667  0.50000  1
 Ge  Ge1  1  0.27092  -0.00000  0.50000  1
 Ge  Ge2  1  -0.00000  0.27092  0.50000  1
 Ge  Ge3  1  0.72908  0.72908  0.50000  1
 Ho  Ho1  1  0.39248  0.39248  0.00000  1
 Ho  Ho2  1  0.60752  -0.00000  0.00000  1
 Ho  Ho3  1  -0.00000  0.60752  0.00000  1
