CIF file written using JARVIS-Tools package.
data_K4P4H6O15
_symmetry_space_group_name_H-M  'C2/c'
_cell_length_a       9.59601
_cell_length_b       9.59601
_cell_length_c       14.1795
_cell_angle_alpha    60.7274
_cell_angle_beta     119.273
_cell_angle_gamma    137.949

_symmetry_Int_Tables_number  15
_chemical_formula_structural  K4P4H6O15
_chemical_formula_sum  K8P8H2O30
_cell_volume  744.9498139258934
_cell_formula_units_Z  2
loop_
  _symmetry_equiv_pos_site_id
 _symmetry_equiv_pos_as_xyz
 1  'x, y, z'
loop_
 _atom_site_type_symbol
 _atom_site_label
 _atom_site_symmetry_multiplicity
 _atom_site_fract_x
 _atom_site_fract_y
 _atom_site_fract_z
 _atom_site_fract_occupancy
 H  H1  1  0.62944  0.52811  0.28747  1
 H  H2  1  0.62373  0.90988  0.03763  1
 H  H3  1  0.21798  0.39156  0.85498  1
 H  H4  1  0.39156  0.21798  0.64502  1
 H  H5  1  0.78202  0.60844  0.14502  1
 H  H6  1  0.60844  0.78202  0.35498  1
 H  H7  1  0.90988  0.62373  0.46237  1
 H  H8  1  0.09012  0.37627  0.53763  1
 H  H9  1  0.37056  0.47189  0.71253  1
 H  H10  1  0.47189  0.37056  0.78747  1
 H  H11  1  0.52811  0.62944  0.21253  1
 H  H12  1  0.37627  0.09012  0.96237  1
 K  K1  1  0.81777  0.36630  0.87358  1
 K  K2  1  0.63370  0.18223  0.37358  1
 K  K3  1  0.76727  0.80627  0.59986  1
 K  K4  1  0.80627  0.76727  0.90014  1
 K  K5  1  0.23273  0.19373  0.40014  1
 K  K6  1  0.19373  0.23273  0.09986  1
 K  K7  1  0.18223  0.63370  0.12642  1
 K  K8  1  0.36630  0.81777  0.62642  1
 O  O1  1  0.23454  0.58369  0.97809  1
 O  O2  1  0.14488  0.67240  0.29351  1
 O  O3  1  0.07916  0.23808  0.84420  1
 O  O4  1  0.85512  0.32760  0.70649  1
 O  O5  1  0.98685  0.21746  0.20066  1
 O  O6  1  0.21746  0.98685  0.29934  1
 O  O7  1  0.01315  0.78254  0.79934  1
 O  O8  1  0.78254  0.01315  0.70066  1
 O  O9  1  0.40109  0.11468  0.85682  1
 O  O10  1  0.50971  0.50971  0.75000  1
 O  O11  1  0.23808  0.07916  0.65580  1
 O  O12  1  0.37496  0.08496  0.03662  1
 O  O13  1  0.92084  0.76192  0.15580  1
 O  O14  1  0.76192  0.92084  0.34420  1
 O  O15  1  0.59891  0.88532  0.14318  1
 O  O16  1  0.88532  0.59891  0.35682  1
 O  O17  1  0.11468  0.40109  0.64318  1
 O  O18  1  0.08496  0.37496  0.46338  1
 O  O19  1  0.67240  0.14488  0.20649  1
 O  O20  1  0.91504  0.62504  0.53662  1
 O  O21  1  0.62504  0.91504  0.96338  1
 O  O22  1  0.32760  0.85512  0.79351  1
 O  O23  1  0.62638  0.41228  0.63524  1
 O  O24  1  0.41228  0.62638  0.86476  1
 O  O25  1  0.49029  0.49029  0.25000  1
 O  O26  1  0.58772  0.37362  0.13524  1
 O  O27  1  0.58369  0.23454  0.52191  1
 O  O28  1  0.76546  0.41631  0.02191  1
 O  O29  1  0.41631  0.76546  0.47809  1
 O  O30  1  0.37362  0.58772  0.36476  1
 P  P1  1  0.95576  0.23594  0.71807  1
 P  P2  1  0.23594  0.95576  0.78193  1
 P  P3  1  0.04424  0.76406  0.28193  1
 P  P4  1  0.72839  0.39373  0.59276  1
 P  P5  1  0.39373  0.72839  0.90724  1
 P  P6  1  0.27161  0.60627  0.40724  1
 P  P7  1  0.60627  0.27161  0.09276  1
 P  P8  1  0.76406  0.04424  0.21807  1
