CIF file written using JARVIS-Tools package.
data_LiN3
_symmetry_space_group_name_H-M  'C2/m'
_cell_length_a       3.20966
_cell_length_b       3.20966
_cell_length_c       4.87813
_cell_angle_alpha    77.3926
_cell_angle_beta     77.3925
_cell_angle_gamma    61.5057

_symmetry_Int_Tables_number  12
_chemical_formula_structural  LiN3
_chemical_formula_sum  LiN3
_cell_volume  42.718284762232976
_cell_formula_units_Z  1
loop_
  _symmetry_equiv_pos_site_id
 _symmetry_equiv_pos_as_xyz
 1  'x, y, z'
loop_
 _atom_site_type_symbol
 _atom_site_label
 _atom_site_symmetry_multiplicity
 _atom_site_fract_x
 _atom_site_fract_y
 _atom_site_fract_z
 _atom_site_fract_occupancy
 Li  Li1  1  0.00000  0.00000  0.00000  1
 N  N1  1  0.61550  0.61550  0.26007  1
 N  N2  1  0.38450  0.38450  0.73993  1
 N  N3  1  0.50000  0.50000  0.50000  1
