CIF file written using JARVIS-Tools package.
data_Sr2NO6
_symmetry_space_group_name_H-M  'P-62m'
_cell_length_a       3.627
_cell_length_b       6.45514
_cell_length_c       6.455
_cell_angle_alpha    120.001
_cell_angle_beta     90
_cell_angle_gamma    90

_symmetry_Int_Tables_number  189
_chemical_formula_structural  Sr2NO6
_chemical_formula_sum  Sr2NO6
_cell_volume  130.88113545580936
_cell_formula_units_Z  1
loop_
  _symmetry_equiv_pos_site_id
 _symmetry_equiv_pos_as_xyz
 1  'x, y, z'
loop_
 _atom_site_type_symbol
 _atom_site_label
 _atom_site_symmetry_multiplicity
 _atom_site_fract_x
 _atom_site_fract_y
 _atom_site_fract_z
 _atom_site_fract_occupancy
 N  N1  1  0.00000  -0.00001  -0.00000  1
 O  O1  1  0.00000  0.80391  0.00000  1
 O  O2  1  0.00000  0.19607  0.19608  1
 O  O3  1  0.00000  -0.00001  0.80392  1
 O  O4  1  0.50000  0.46635  0.00000  1
 O  O5  1  0.50000  0.53363  0.53364  1
 O  O6  1  0.50000  0.99999  0.46636  1
 Sr  Sr1  1  0.00000  0.33332  0.66667  1
 Sr  Sr2  1  0.00000  0.66666  0.33333  1
