CIF file written using JARVIS-Tools package.
data_BaMg6W
_symmetry_space_group_name_H-M  'P4/mmm'
_cell_length_a       6.79906
_cell_length_b       9.61562
_cell_length_c       4.21936
_cell_angle_alpha    90
_cell_angle_beta     90
_cell_angle_gamma    135.002

_symmetry_Int_Tables_number  123
_chemical_formula_structural  BaMg6W
_chemical_formula_sum  BaMg6W
_cell_volume  195.0489328866413
_cell_formula_units_Z  1
loop_
  _symmetry_equiv_pos_site_id
 _symmetry_equiv_pos_as_xyz
 1  'x, y, z'
loop_
 _atom_site_type_symbol
 _atom_site_label
 _atom_site_symmetry_multiplicity
 _atom_site_fract_x
 _atom_site_fract_y
 _atom_site_fract_z
 _atom_site_fract_occupancy
 Ba  Ba1  1  0.24999  0.37499  0.25000  1
 Mg  Mg1  1  0.75000  0.37503  0.25000  1
 Mg  Mg2  1  0.75000  0.87497  0.25000  1
 Mg  Mg3  1  0.25001  0.08427  0.75000  1
 Mg  Mg4  1  0.25001  0.66574  0.75000  1
 Mg  Mg5  1  0.66853  0.08427  0.75000  1
 Mg  Mg6  1  0.83145  0.66572  0.75000  1
 W  W1  1  0.25002  0.87501  0.25000  1
