CIF file written using JARVIS-Tools package.
data_LiCu2O2
_symmetry_space_group_name_H-M  'Pnma'
_cell_length_a       2.88154
_cell_length_b       5.7096
_cell_length_c       12.5422
_cell_angle_alpha    90
_cell_angle_beta     90
_cell_angle_gamma    90

_symmetry_Int_Tables_number  62
_chemical_formula_structural  LiCu2O2
_chemical_formula_sum  Li4Cu8O8
_cell_volume  206.3491637383582
_cell_formula_units_Z  4
loop_
  _symmetry_equiv_pos_site_id
 _symmetry_equiv_pos_as_xyz
 1  'x, y, z'
loop_
 _atom_site_type_symbol
 _atom_site_label
 _atom_site_symmetry_multiplicity
 _atom_site_fract_x
 _atom_site_fract_y
 _atom_site_fract_z
 _atom_site_fract_occupancy
 Cu  Cu1  1  0.25000  0.62216  0.59761  1
 Cu  Cu2  1  0.75000  0.87793  0.74225  1
 Cu  Cu3  1  0.75000  0.37784  0.40239  1
 Cu  Cu4  1  0.25000  0.12216  0.90239  1
 Cu  Cu5  1  0.25000  0.12207  0.25775  1
 Cu  Cu6  1  0.75000  0.37793  0.75775  1
 Cu  Cu7  1  0.25000  0.62207  0.24225  1
 Cu  Cu8  1  0.75000  0.87784  0.09761  1
 Li  Li1  1  0.75000  0.86861  0.42930  1
 Li  Li2  1  0.75000  0.36861  0.07070  1
 Li  Li3  1  0.25000  0.13139  0.57070  1
 Li  Li4  1  0.25000  0.63139  0.92930  1
 O  O1  1  0.25000  0.61797  0.39077  1
 O  O2  1  0.75000  0.86651  0.59229  1
 O  O3  1  0.75000  0.36651  0.90771  1
 O  O4  1  0.25000  0.63349  0.09229  1
 O  O5  1  0.75000  0.88203  0.89077  1
 O  O6  1  0.25000  0.11797  0.10923  1
 O  O7  1  0.75000  0.38203  0.60923  1
 O  O8  1  0.25000  0.13349  0.40771  1
