CIF file written using JARVIS-Tools package.
data_Na2Si4Cu2O11
_symmetry_space_group_name_H-M  'P1'
_cell_length_a       5.22855
_cell_length_b       6.35301
_cell_length_c       8.35415
_cell_angle_alpha    97.1318
_cell_angle_beta     97.7101
_cell_angle_gamma    100.601

_symmetry_Int_Tables_number  1
_chemical_formula_structural  Na2Si4Cu2O11
_chemical_formula_sum  Na2Si4Cu2O
_cell_volume  267.12465893932193
_cell_formula_units_Z  1
loop_
  _symmetry_equiv_pos_site_id
 _symmetry_equiv_pos_as_xyz
 1  'x, y, z'
loop_
 _atom_site_type_symbol
 _atom_site_label
 _atom_site_symmetry_multiplicity
 _atom_site_fract_x
 _atom_site_fract_y
 _atom_site_fract_z
 _atom_site_fract_occupancy
 Cu  Cu1  1  0.99046  0.86583  0.32018  1
 Cu  Cu2  1  0.70024  0.88941  0.92938  1
 Na  Na1  1  0.87286  0.35286  0.19330  1
 Na  Na2  1  0.12714  0.64714  0.80670  1
 O  O1  1  0.28430  0.32521  0.72015  1
 O  O2  1  0.00000  0.00000  0.50000  1
 O  O3  1  0.59763  0.17516  0.94695  1
 O  O4  1  0.40237  0.82484  0.05305  1
 O  O5  1  0.71570  0.67479  0.27985  1
 O  O6  1  0.00123  0.02480  0.18376  1
 O  O7  1  0.72692  0.58870  0.89682  1
 O  O8  1  -0.00123  0.97520  0.81624  1
 O  O9  1  0.76832  0.26925  0.67245  1
 O  O10  1  0.23168  0.73075  0.32755  1
 O  O11  1  0.27308  0.41130  0.10318  1
 Si  Si1  1  0.29976  0.11059  0.07062  1
 Si  Si2  1  0.59141  0.34536  0.81290  1
 Si  Si3  1  0.00954  0.13417  0.67982  1
 Si  Si4  1  0.40859  0.65464  0.18710  1
