CIF file written using JARVIS-Tools package.
data_La2InCu2
_symmetry_space_group_name_H-M  'P4/mbm'
_cell_length_a       3.94524
_cell_length_b       7.87563
_cell_length_c       7.87563
_cell_angle_alpha    90
_cell_angle_beta     90
_cell_angle_gamma    90

_symmetry_Int_Tables_number  127
_chemical_formula_structural  La2InCu2
_chemical_formula_sum  La4In2Cu4
_cell_volume  244.70608930030144
_cell_formula_units_Z  2
loop_
  _symmetry_equiv_pos_site_id
 _symmetry_equiv_pos_as_xyz
 1  'x, y, z'
loop_
 _atom_site_type_symbol
 _atom_site_label
 _atom_site_symmetry_multiplicity
 _atom_site_fract_x
 _atom_site_fract_y
 _atom_site_fract_z
 _atom_site_fract_occupancy
 Cu  Cu1  1  0.00000  0.11642  0.38358  1
 Cu  Cu2  1  0.00000  0.38358  0.88358  1
 Cu  Cu3  1  0.00000  0.61642  0.11642  1
 Cu  Cu4  1  0.00000  0.88358  0.61642  1
 In  In1  1  0.00000  0.00000  0.00000  1
 In  In2  1  0.00000  0.50000  0.50000  1
 La  La1  1  0.50000  0.17857  0.67857  1
 La  La2  1  0.50000  0.32143  0.17857  1
 La  La3  1  0.50000  0.67857  0.82143  1
 La  La4  1  0.50000  0.82143  0.32143  1
