CIF file written using JARVIS-Tools package.
data_VOF
_symmetry_space_group_name_H-M  'Cm'
_cell_length_a       4.63161
_cell_length_b       7.7004
_cell_length_c       7.7004
_cell_angle_alpha    74.6075
_cell_angle_beta     90.0893
_cell_angle_gamma    89.9107

_symmetry_Int_Tables_number  8
_chemical_formula_structural  VOF
_chemical_formula_sum  V8O8F8
_cell_volume  264.7848029023272
_cell_formula_units_Z  8
loop_
  _symmetry_equiv_pos_site_id
 _symmetry_equiv_pos_as_xyz
 1  'x, y, z'
loop_
 _atom_site_type_symbol
 _atom_site_label
 _atom_site_symmetry_multiplicity
 _atom_site_fract_x
 _atom_site_fract_y
 _atom_site_fract_z
 _atom_site_fract_occupancy
 F  F1  1  0.19997  0.47080  0.27920  1
 F  F2  1  0.20779  0.21593  0.01888  1
 F  F3  1  0.29662  0.83671  0.15305  1
 F  F4  1  0.29662  0.59695  0.91329  1
 F  F5  1  0.70181  0.15365  0.83698  1
 F  F6  1  0.70181  0.91302  0.59635  1
 F  F7  1  0.79244  0.27388  0.47612  1
 F  F8  1  0.20779  0.73112  0.53407  1
 O  O1  1  0.79200  0.76858  0.98142  1
 O  O2  1  0.80669  0.53989  0.72543  1
 O  O3  1  0.80669  0.02457  0.21011  1
 O  O4  1  0.70421  0.65097  0.35322  1
 O  O5  1  0.70421  0.39678  0.09903  1
 O  O6  1  0.29981  0.09946  0.39590  1
 O  O7  1  0.19382  0.97711  0.77289  1
 O  O8  1  0.29981  0.35410  0.65054  1
 V  V1  1  0.98774  0.98348  0.99417  1
 V  V2  1  0.98892  0.23522  0.24642  1
 V  V3  1  0.98774  0.75583  0.76652  1
 V  V4  1  0.98892  0.50358  0.51478  1
 V  V5  1  0.52388  0.38870  0.86274  1
 V  V6  1  0.55364  0.60788  0.14212  1
 V  V7  1  0.52388  0.88726  0.36130  1
 V  V8  1  0.43319  0.13453  0.61547  1
