CIF file written using JARVIS-Tools package.
data_KEuP4O12
_symmetry_space_group_name_H-M  'P2_1'
_cell_length_a       7.25157
_cell_length_b       7.99411
_cell_length_c       8.39571
_cell_angle_alpha    90
_cell_angle_beta     90
_cell_angle_gamma    91.9837

_symmetry_Int_Tables_number  4
_chemical_formula_structural  KEuP4O12
_chemical_formula_sum  K2Eu2P8O24
_cell_volume  486.4072263865601
_cell_formula_units_Z  2
loop_
  _symmetry_equiv_pos_site_id
 _symmetry_equiv_pos_as_xyz
 1  'x, y, z'
loop_
 _atom_site_type_symbol
 _atom_site_label
 _atom_site_symmetry_multiplicity
 _atom_site_fract_x
 _atom_site_fract_y
 _atom_site_fract_z
 _atom_site_fract_occupancy
 Eu  Eu1  1  0.76642  0.75678  0.74773  1
 Eu  Eu2  1  0.23358  0.24322  0.24773  1
 K  K1  1  0.27458  0.72244  0.55286  1
 K  K2  1  0.72542  0.27756  0.05286  1
 O  O1  1  0.03039  0.47309  0.20613  1
 O  O2  1  0.07820  0.17660  0.99079  1
 O  O3  1  0.31783  0.07358  0.48370  1
 O  O4  1  0.68217  0.92642  0.98370  1
 O  O5  1  0.61381  0.58004  0.54270  1
 O  O6  1  0.82324  0.61123  0.00276  1
 O  O7  1  0.83311  0.34605  0.48215  1
 O  O8  1  0.54239  0.28409  0.63241  1
 O  O9  1  0.99047  0.20869  0.70125  1
 O  O10  1  0.46318  0.64998  0.83438  1
 O  O11  1  0.53682  0.35002  0.33438  1
 O  O12  1  0.31749  0.12506  0.78519  1
 O  O13  1  0.57717  0.97011  0.65463  1
 O  O14  1  0.38619  0.41996  0.04270  1
 O  O15  1  0.96961  0.52691  0.70613  1
 O  O16  1  0.42283  0.02989  0.15463  1
 O  O17  1  0.16689  0.65395  0.98215  1
 O  O18  1  0.92180  0.82340  0.49079  1
 O  O19  1  0.68251  0.87494  0.28519  1
 O  O20  1  0.95939  0.07778  0.30133  1
 O  O21  1  0.04061  0.92222  0.80133  1
 O  O22  1  0.45761  0.71591  0.13241  1
 O  O23  1  0.17676  0.38877  0.50276  1
 O  O24  1  0.00953  0.79131  0.20125  1
 P  P1  1  0.10245  0.10060  0.82986  1
 P  P2  1  0.56058  0.89750  0.12625  1
 P  P3  1  0.43942  0.10250  0.62625  1
 P  P4  1  0.37726  0.59784  0.98928  1
 P  P5  1  0.62274  0.40216  0.48928  1
 P  P6  1  0.89755  0.89940  0.32986  1
 P  P7  1  0.99634  0.62013  0.10060  1
 P  P8  1  0.00366  0.37987  0.60060  1
