CIF file written using JARVIS-Tools package.
data_Li2MnP2HO8
_symmetry_space_group_name_H-M  'P2_1'
_cell_length_a       4.74654
_cell_length_b       8.24655
_cell_length_c       7.55481
_cell_angle_alpha    90
_cell_angle_beta     104.666
_cell_angle_gamma    90

_symmetry_Int_Tables_number  4
_chemical_formula_structural  Li2MnP2HO8
_chemical_formula_sum  Li4Mn2P4H2O6
_cell_volume  286.07970136617416
_cell_formula_units_Z  2
loop_
  _symmetry_equiv_pos_site_id
 _symmetry_equiv_pos_as_xyz
 1  'x, y, z'
loop_
 _atom_site_type_symbol
 _atom_site_label
 _atom_site_symmetry_multiplicity
 _atom_site_fract_x
 _atom_site_fract_y
 _atom_site_fract_z
 _atom_site_fract_occupancy
 H  H1  1  0.22895  0.99134  0.24020  1
 H  H2  1  0.77105  0.49134  0.75980  1
 Li  Li1  1  0.36484  0.63748  0.90264  1
 Li  Li2  1  0.63516  0.13748  0.09736  1
 Li  Li3  1  0.85421  0.86107  0.40319  1
 Li  Li4  1  0.14579  0.36107  0.59681  1
 Mn  Mn1  1  0.25227  -0.00102  0.74679  1
 Mn  Mn2  1  0.74773  0.49898  0.25321  1
 O  O1  1  0.25854  0.80765  0.54418  1
 O  O2  1  0.76185  0.69226  0.04566  1
 O  O3  1  0.63824  0.97253  0.90353  1
 O  O4  1  0.38717  0.16261  0.60036  1
 O  O5  1  0.61283  0.66261  0.39964  1
 O  O6  1  0.23815  0.19226  0.95434  1
 O  O7  1  0.36176  0.47253  0.09647  1
 O  O8  1  0.49895  0.55233  0.69389  1
 O  O9  1  0.00776  0.94441  0.19318  1
 O  O10  1  0.11780  0.83529  0.89797  1
 O  O11  1  0.86653  0.02709  0.59853  1
 O  O12  1  0.99224  0.44441  0.80682  1
 O  O13  1  0.50105  0.05233  0.30611  1
 O  O14  1  0.88220  0.33529  0.10203  1
 O  O15  1  0.74146  0.30765  0.45582  1
 O  O16  1  0.13347  0.52709  0.40147  1
 P  P1  1  0.62242  0.14197  0.48925  1
 P  P2  1  0.37758  0.64197  0.51075  1
 P  P3  1  0.11926  0.35509  0.99456  1
 P  P4  1  0.88074  0.85509  0.00544  1
