CIF file written using JARVIS-Tools package.
data_BaCdSnS4
_symmetry_space_group_name_H-M  'Fdd2'
_cell_length_a       12.7662
_cell_length_b       12.7662
_cell_length_c       12.8496
_cell_angle_alpha    105.621
_cell_angle_beta     105.621
_cell_angle_gamma    117.253

_symmetry_Int_Tables_number  43
_chemical_formula_structural  BaCdSnS4
_chemical_formula_sum  Ba8Cd8Sn8S32
_cell_volume  1593.3277197837995
_cell_formula_units_Z  8
loop_
  _symmetry_equiv_pos_site_id
 _symmetry_equiv_pos_as_xyz
 1  'x, y, z'
loop_
 _atom_site_type_symbol
 _atom_site_label
 _atom_site_symmetry_multiplicity
 _atom_site_fract_x
 _atom_site_fract_y
 _atom_site_fract_z
 _atom_site_fract_occupancy
 Ba  Ba1  1  0.99862  0.99862  0.00000  1
 Ba  Ba2  1  0.24503  0.24282  0.49504  1
 Ba  Ba3  1  0.74777  0.74999  0.50496  1
 Ba  Ba4  1  0.99282  0.49503  0.99504  1
 Ba  Ba5  1  0.74862  0.24862  0.50000  1
 Ba  Ba6  1  0.24470  0.74470  0.50000  1
 Ba  Ba7  1  0.49470  0.49470  0.00000  1
 Ba  Ba8  1  0.49999  0.99777  0.00496  1
 Cd  Cd1  1  0.23581  0.51119  0.74833  1
 Cd  Cd2  1  0.76286  0.48748  0.25167  1
 Cd  Cd3  1  0.23748  0.01286  0.75167  1
 Cd  Cd4  1  0.26119  0.48581  0.24833  1
 Cd  Cd5  1  0.72922  0.08019  0.75048  1
 Cd  Cd6  1  0.72873  0.57971  0.74952  1
 Cd  Cd7  1  0.83019  0.97922  0.25048  1
 Cd  Cd8  1  0.32971  0.97873  0.24952  1
 S  S1  1  0.18013  0.76598  0.24850  1
 S  S2  1  0.51748  0.93163  0.75150  1
 S  S3  1  0.51598  0.43013  0.74850  1
 S  S4  1  0.68163  0.76748  0.25150  1
 S  S5  1  0.47294  0.71271  0.92092  1
 S  S6  1  0.21285  0.27307  0.24857  1
 S  S7  1  0.02307  0.46285  0.74857  1
 S  S8  1  0.71428  0.27450  0.25143  1
 S  S9  1  0.53214  0.96834  0.25316  1
 S  S10  1  0.22140  0.80009  0.75300  1
 S  S11  1  0.21839  0.29709  0.74700  1
 S  S12  1  0.55009  0.47140  0.25300  1
 S  S13  1  0.02898  0.96518  0.24684  1
 S  S14  1  0.71834  0.78214  0.75316  1
 S  S15  1  0.71518  0.27898  0.74684  1
 S  S16  1  0.30492  0.54343  0.57836  1
 S  S17  1  0.46271  0.72294  0.42092  1
 S  S18  1  0.04709  0.46839  0.24700  1
 S  S19  1  0.96506  0.72656  0.42164  1
 S  S20  1  0.97507  0.21733  0.92251  1
 S  S21  1  0.47656  0.21506  0.92164  1
 S  S22  1  0.29343  0.55492  0.07836  1
 S  S23  1  0.96733  0.22507  0.42251  1
 S  S24  1  0.80256  0.54482  0.57749  1
 S  S25  1  0.02450  0.96428  0.75143  1
 S  S26  1  0.29482  0.05256  0.07749  1
 S  S27  1  0.30201  0.04179  0.57908  1
 S  S28  1  0.80082  0.04334  0.57811  1
 S  S29  1  0.97271  0.71523  0.92189  1
 S  S30  1  0.79334  0.05082  0.07811  1
 S  S31  1  0.46523  0.22271  0.42189  1
 S  S32  1  0.79179  0.55201  0.07908  1
 Sn  Sn1  1  0.98608  0.76228  0.24903  1
 Sn  Sn2  1  0.90210  0.26634  0.24970  1
 Sn  Sn3  1  0.51325  0.73706  0.75097  1
 Sn  Sn4  1  0.01634  0.15210  0.74970  1
 Sn  Sn5  1  0.40240  0.26663  0.25030  1
 Sn  Sn6  1  0.01663  0.65240  0.75030  1
 Sn  Sn7  1  0.51228  0.23608  0.74903  1
 Sn  Sn8  1  0.48706  0.76325  0.25097  1
