CIF file written using JARVIS-Tools package.
data_BaAl4O7
_symmetry_space_group_name_H-M  'Pnma'
_cell_length_a       12.8845
_cell_length_b       10.3045
_cell_length_c       4.89732
_cell_angle_alpha    90
_cell_angle_beta     90
_cell_angle_gamma    90

_symmetry_Int_Tables_number  62
_chemical_formula_structural  BaAl4O7
_chemical_formula_sum  Ba4Al6O28
_cell_volume  650.2084775581255
_cell_formula_units_Z  4
loop_
  _symmetry_equiv_pos_site_id
 _symmetry_equiv_pos_as_xyz
 1  'x, y, z'
loop_
 _atom_site_type_symbol
 _atom_site_label
 _atom_site_symmetry_multiplicity
 _atom_site_fract_x
 _atom_site_fract_y
 _atom_site_fract_z
 _atom_site_fract_occupancy
 Al  Al1  1  0.74826  0.42562  0.94694  1
 Al  Al2  1  0.24827  0.23897  0.44694  1
 Al  Al3  1  0.25174  0.92562  0.05306  1
 Al  Al4  1  0.74826  0.92562  0.05306  1
 Al  Al5  1  0.11784  0.49061  0.45079  1
 Al  Al6  1  0.88216  0.49061  0.45079  1
 Al  Al7  1  0.88216  0.99061  0.54921  1
 Al  Al8  1  0.38216  0.17399  0.95080  1
 Al  Al9  1  0.61784  0.17399  0.95080  1
 Al  Al10  1  0.61784  0.67399  0.04920  1
 Al  Al11  1  0.38216  0.67399  0.04920  1
 Al  Al12  1  0.11784  0.99061  0.54921  1
 Al  Al13  1  0.75173  0.23897  0.44694  1
 Al  Al14  1  0.75173  0.73897  0.55306  1
 Al  Al15  1  0.24827  0.73897  0.55306  1
 Al  Al16  1  0.25174  0.42562  0.94694  1
 Ba  Ba1  1  0.00000  0.74318  0.98828  1
 Ba  Ba2  1  0.50000  0.92141  0.48828  1
 Ba  Ba3  1  0.50000  0.42141  0.51172  1
 Ba  Ba4  1  0.00000  0.24318  0.01172  1
 O  O1  1  0.00000  0.91925  0.45958  1
 O  O2  1  0.00000  0.41925  0.54042  1
 O  O3  1  0.50000  0.74533  0.95958  1
 O  O4  1  0.72203  0.26921  0.09532  1
 O  O5  1  0.13510  0.97448  0.90456  1
 O  O6  1  0.86490  0.97448  0.90456  1
 O  O7  1  0.86490  0.47448  0.09544  1
 O  O8  1  0.13510  0.47448  0.09544  1
 O  O9  1  0.22203  0.89538  0.40468  1
 O  O10  1  0.77797  0.89538  0.40468  1
 O  O11  1  0.77797  0.39538  0.59532  1
 O  O12  1  0.22203  0.39538  0.59532  1
 O  O13  1  0.50000  0.24533  0.04042  1
 O  O14  1  0.63170  0.51107  0.95645  1
 O  O15  1  0.13170  0.65352  0.54355  1
 O  O16  1  0.63510  0.19011  0.59545  1
 O  O17  1  0.72203  0.76921  0.90468  1
 O  O18  1  0.27797  0.76921  0.90468  1
 O  O19  1  0.86830  0.15352  0.45645  1
 O  O20  1  0.86830  0.65352  0.54355  1
 O  O21  1  0.13170  0.15352  0.45645  1
 O  O22  1  0.36830  0.51107  0.95645  1
 O  O23  1  0.36490  0.69011  0.40455  1
 O  O24  1  0.63170  0.01107  0.04355  1
 O  O25  1  0.36830  0.01107  0.04355  1
 O  O26  1  0.36490  0.19011  0.59545  1
 O  O27  1  0.63510  0.69011  0.40455  1
 O  O28  1  0.27797  0.26921  0.09532  1
