CIF file written using JARVIS-Tools package.
data_Na4BeAlSi4ClO12
_symmetry_space_group_name_H-M  'I-4'
_cell_length_a       7.58803
_cell_length_b       7.58803
_cell_length_c       7.58803
_cell_angle_alpha    110.305
_cell_angle_beta     110.305
_cell_angle_gamma    107.816

_symmetry_Int_Tables_number  82
_chemical_formula_structural  Na4BeAlSi4ClO12
_chemical_formula_sum  Na4BeAlSi4ClO2
_cell_volume  336.1200310542164
_cell_formula_units_Z  1
loop_
  _symmetry_equiv_pos_site_id
 _symmetry_equiv_pos_as_xyz
 1  'x, y, z'
loop_
 _atom_site_type_symbol
 _atom_site_label
 _atom_site_symmetry_multiplicity
 _atom_site_fract_x
 _atom_site_fract_y
 _atom_site_fract_z
 _atom_site_fract_occupancy
 Al  Al1  1  0.25000  0.75000  0.50000  1
 Be  Be1  1  0.75000  0.25000  0.50000  1
 Cl  Cl1  1  0.00000  0.00000  0.00000  1
 Na  Na1  1  0.97195  0.01479  0.34907  1
 Na  Na2  1  0.66572  0.62288  0.65093  1
 Na  Na3  1  0.37712  0.02805  0.04284  1
 Na  Na4  1  0.98521  0.33428  0.95716  1
 O  O1  1  0.71161  0.69382  0.28308  1
 O  O2  1  0.99008  0.55665  0.27291  1
 O  O3  1  0.28374  0.71717  0.72709  1
 O  O4  1  0.44335  0.71626  0.43343  1
 O  O5  1  0.28283  0.00992  0.56657  1
 O  O6  1  0.60774  0.99692  0.30664  1
 O  O7  1  0.69028  0.30110  0.69336  1
 O  O8  1  0.30618  0.58926  0.01779  1
 O  O9  1  0.41074  0.42853  0.71692  1
 O  O10  1  0.57147  0.28839  0.98221  1
 O  O11  1  0.00308  0.30972  0.61082  1
 O  O12  1  0.69890  0.39226  0.38918  1
 Si  Si1  1  0.24160  0.50956  0.75988  1
 Si  Si2  1  0.74969  0.48172  0.24012  1
 Si  Si3  1  0.51828  0.75840  0.26797  1
 Si  Si4  1  0.49044  0.25031  0.73203  1
