CIF file written using JARVIS-Tools package.
data_ZrIn3
_symmetry_space_group_name_H-M  'I4/mmm'
_cell_length_a       4.35256
_cell_length_b       4.35256
_cell_length_c       10.0883
_cell_angle_alpha    102.458
_cell_angle_beta     102.458
_cell_angle_gamma    90

_symmetry_Int_Tables_number  139
_chemical_formula_structural  ZrIn3
_chemical_formula_sum  Zr2In6
_cell_volume  182.00999112735187
_cell_formula_units_Z  2
loop_
  _symmetry_equiv_pos_site_id
 _symmetry_equiv_pos_as_xyz
 1  'x, y, z'
loop_
 _atom_site_type_symbol
 _atom_site_label
 _atom_site_symmetry_multiplicity
 _atom_site_fract_x
 _atom_site_fract_y
 _atom_site_fract_z
 _atom_site_fract_occupancy
 In  In1  1  0.50000  0.00000  0.00000  1
 In  In2  1  0.00000  0.50000  0.00000  1
 In  In3  1  0.25000  0.75000  0.50000  1
 In  In4  1  0.75000  0.25000  0.50000  1
 In  In5  1  0.62400  0.62400  0.24799  1
 In  In6  1  0.37600  0.37600  0.75201  1
 Zr  Zr1  1  0.88164  0.88164  0.76328  1
 Zr  Zr2  1  0.11836  0.11836  0.23672  1
