CIF file written using JARVIS-Tools package.
data_CoN2O6
_symmetry_space_group_name_H-M  'R-3'
_cell_length_a       7.20927
_cell_length_b       7.20927
_cell_length_c       7.20927
_cell_angle_alpha    89.64
_cell_angle_beta     89.64
_cell_angle_gamma    89.6399

_symmetry_Int_Tables_number  148
_chemical_formula_structural  CoN2O6
_chemical_formula_sum  Co4N8O24
_cell_volume  374.6691644819935
_cell_formula_units_Z  4
loop_
  _symmetry_equiv_pos_site_id
 _symmetry_equiv_pos_as_xyz
 1  'x, y, z'
loop_
 _atom_site_type_symbol
 _atom_site_label
 _atom_site_symmetry_multiplicity
 _atom_site_fract_x
 _atom_site_fract_y
 _atom_site_fract_z
 _atom_site_fract_occupancy
 Co  Co1  1  0.50000  -0.00000  0.50000  1
 Co  Co2  1  0.50000  0.50000  0.00000  1
 Co  Co3  1  0.00000  0.50000  0.50000  1
 Co  Co4  1  0.00000  0.00000  0.00000  1
 N  N1  1  0.33600  0.33600  0.33600  1
 N  N2  1  0.66400  0.66400  0.66400  1
 N  N3  1  0.35175  0.17003  0.85235  1
 N  N4  1  0.85235  0.35175  0.17003  1
 N  N5  1  0.17003  0.85235  0.35175  1
 N  N6  1  0.64825  0.82997  0.14765  1
 N  N7  1  0.14765  0.64825  0.82997  1
 N  N8  1  0.82997  0.14765  0.64825  1
 O  O1  1  0.29876  0.83466  0.47603  1
 O  O2  1  0.33102  0.21273  0.46336  1
 O  O3  1  0.46336  0.33102  0.21273  1
 O  O4  1  0.21273  0.46336  0.33102  1
 O  O5  1  0.66898  0.78727  0.53664  1
 O  O6  1  0.53664  0.66898  0.78727  1
 O  O7  1  0.22727  0.61844  0.98229  1
 O  O8  1  0.70124  0.16534  0.52397  1
 O  O9  1  0.52397  0.70124  0.16534  1
 O  O10  1  0.16534  0.52397  0.70124  1
 O  O11  1  0.78727  0.53664  0.66898  1
 O  O12  1  0.05394  0.79406  0.80033  1
 O  O13  1  0.20594  0.19967  0.94606  1
 O  O14  1  0.94606  0.20594  0.19967  1
 O  O15  1  0.80033  0.05394  0.79406  1
 O  O16  1  0.79406  0.80033  0.05394  1
 O  O17  1  0.47603  0.29876  0.83466  1
 O  O18  1  0.38156  0.01771  0.77273  1
 O  O19  1  0.77273  0.38156  0.01771  1
 O  O20  1  0.01771  0.77273  0.38156  1
 O  O21  1  0.61844  0.98229  0.22727  1
 O  O22  1  0.19967  0.94606  0.20594  1
 O  O23  1  0.83466  0.47603  0.29876  1
 O  O24  1  0.98229  0.22727  0.61844  1
