CIF file written using JARVIS-Tools package.
data_NdAs2Rh2
_symmetry_space_group_name_H-M  'P4/nmm'
_cell_length_a       4.31669
_cell_length_b       4.31669
_cell_length_c       9.97905
_cell_angle_alpha    90
_cell_angle_beta     90
_cell_angle_gamma    90

_symmetry_Int_Tables_number  129
_chemical_formula_structural  NdAs2Rh2
_chemical_formula_sum  Nd2As4Rh4
_cell_volume  185.94807811279284
_cell_formula_units_Z  2
loop_
  _symmetry_equiv_pos_site_id
 _symmetry_equiv_pos_as_xyz
 1  'x, y, z'
loop_
 _atom_site_type_symbol
 _atom_site_label
 _atom_site_symmetry_multiplicity
 _atom_site_fract_x
 _atom_site_fract_y
 _atom_site_fract_z
 _atom_site_fract_occupancy
 As  As1  1  0.50000  0.50000  0.50000  1
 As  As2  1  0.00000  0.00000  0.50000  1
 As  As3  1  0.00000  0.50000  0.13538  1
 As  As4  1  0.50000  0.00000  0.86462  1
 Nd  Nd1  1  0.00000  0.50000  0.74547  1
 Nd  Nd2  1  0.50000  0.00000  0.25453  1
 Rh  Rh1  1  0.50000  0.50000  0.00000  1
 Rh  Rh2  1  0.00000  0.00000  0.00000  1
 Rh  Rh3  1  0.00000  0.50000  0.37928  1
 Rh  Rh4  1  0.50000  0.00000  0.62072  1
