CIF file written using JARVIS-Tools package.
data_Fe3Pb8F24
_symmetry_space_group_name_H-M  'P-1'
_cell_length_a       10.4794
_cell_length_b       10.4745
_cell_length_c       9.41418
_cell_angle_alpha    74.8673
_cell_angle_beta     104.832
_cell_angle_gamma    149.4

_symmetry_Int_Tables_number  2
_chemical_formula_structural  Fe3Pb8F24
_chemical_formula_sum  Fe3Pb8F24
_cell_volume  506.74635247866644
_cell_formula_units_Z  1
loop_
  _symmetry_equiv_pos_site_id
 _symmetry_equiv_pos_as_xyz
 1  'x, y, z'
loop_
 _atom_site_type_symbol
 _atom_site_label
 _atom_site_symmetry_multiplicity
 _atom_site_fract_x
 _atom_site_fract_y
 _atom_site_fract_z
 _atom_site_fract_occupancy
 F  F1  1  0.40158  0.22467  0.62816  1
 F  F2  1  0.72143  0.69832  0.90151  1
 F  F3  1  0.76727  0.84671  0.12486  1
 F  F4  1  0.88707  0.24540  0.35722  1
 F  F5  1  0.30866  0.58389  0.12270  1
 F  F6  1  0.15531  0.23930  0.36626  1
 F  F7  1  0.84469  0.76070  0.63374  1
 F  F8  1  0.27857  0.30168  0.09849  1
 F  F9  1  0.69134  0.41611  0.87730  1
 F  F10  1  0.92696  0.55858  0.38301  1
 F  F11  1  0.07304  0.44142  0.61699  1
 F  F12  1  0.43001  0.07018  0.39001  1
 F  F13  1  0.56999  0.92982  0.60999  1
 F  F14  1  0.98407  0.53083  0.12495  1
 F  F15  1  0.01593  0.46917  0.87505  1
 F  F16  1  0.51607  0.97279  0.86863  1
 F  F17  1  0.11293  0.75460  0.64278  1
 F  F18  1  0.48393  0.02721  0.13137  1
 F  F19  1  0.39225  0.49834  0.65675  1
 F  F20  1  0.60775  0.50166  0.34325  1
 F  F21  1  0.05272  0.87478  0.12835  1
 F  F22  1  0.94728  0.12522  0.87165  1
 F  F23  1  0.23273  0.15329  0.87514  1
 F  F24  1  0.59842  0.77533  0.37184  1
 Fe  Fe1  1  0.45321  0.54055  0.24967  1
 Fe  Fe2  1  0.54679  0.45945  0.75033  1
 Fe  Fe3  1  0.00000  0.00000  0.00000  1
 Pb  Pb1  1  0.08727  0.91821  0.43479  1
 Pb  Pb2  1  0.17457  0.82337  0.89778  1
 Pb  Pb3  1  0.82543  0.17663  0.10222  1
 Pb  Pb4  1  0.91273  0.08179  0.56521  1
 Pb  Pb5  1  0.27459  0.71629  0.36462  1
 Pb  Pb6  1  0.63915  0.37449  0.16845  1
 Pb  Pb7  1  0.72541  0.28371  0.63538  1
 Pb  Pb8  1  0.36085  0.62551  0.83155  1
