CIF file written using JARVIS-Tools package.
data_AlPd5I2
_symmetry_space_group_name_H-M  'I4/mmm'
_cell_length_a       4.07247
_cell_length_b       4.07247
_cell_length_c       10.4551
_cell_angle_alpha    101.231
_cell_angle_beta     101.231
_cell_angle_gamma    90.0001

_symmetry_Int_Tables_number  139
_chemical_formula_structural  AlPd5I2
_chemical_formula_sum  AlPd5I2
_cell_volume  166.68964841747612
_cell_formula_units_Z  1
loop_
  _symmetry_equiv_pos_site_id
 _symmetry_equiv_pos_as_xyz
 1  'x, y, z'
loop_
 _atom_site_type_symbol
 _atom_site_label
 _atom_site_symmetry_multiplicity
 _atom_site_fract_x
 _atom_site_fract_y
 _atom_site_fract_z
 _atom_site_fract_occupancy
 Al  Al1  1  0.50000  0.50000  -0.00000  1
 I  I1  1  0.18307  0.18307  0.36614  1
 I  I2  1  0.81693  0.81693  0.63386  1
 Pd  Pd1  1  0.08811  0.58811  0.17623  1
 Pd  Pd2  1  0.58811  0.08811  0.17623  1
 Pd  Pd3  1  0.41189  0.91189  0.82377  1
 Pd  Pd4  1  0.91189  0.41189  0.82377  1
 Pd  Pd5  1  0.00000  0.00000  0.00000  1
