CIF file written using JARVIS-Tools package.
data_LiFeOF2
_symmetry_space_group_name_H-M  'P6_3/mmc'
_cell_length_a       3.26432
_cell_length_b       3.26432
_cell_length_c       11.9134
_cell_angle_alpha    90
_cell_angle_beta     90
_cell_angle_gamma    120

_symmetry_Int_Tables_number  194
_chemical_formula_structural  LiFeOF2
_chemical_formula_sum  Li2Fe2O2F4
_cell_volume  109.93892283764939
_cell_formula_units_Z  2
loop_
  _symmetry_equiv_pos_site_id
 _symmetry_equiv_pos_as_xyz
 1  'x, y, z'
loop_
 _atom_site_type_symbol
 _atom_site_label
 _atom_site_symmetry_multiplicity
 _atom_site_fract_x
 _atom_site_fract_y
 _atom_site_fract_z
 _atom_site_fract_occupancy
 F  F1  1  0.33333  0.66667  0.41618  1
 F  F2  1  0.33333  0.66667  0.08382  1
 F  F3  1  0.66667  0.33333  0.58382  1
 F  F4  1  0.66667  0.33333  0.91618  1
 Fe  Fe1  1  0.33333  0.66667  0.25000  1
 Fe  Fe2  1  0.66667  0.33333  0.75000  1
 Li  Li1  1  0.00000  0.00000  0.00000  1
 Li  Li2  1  0.00000  0.00000  0.50000  1
 O  O1  1  0.00000  0.00000  0.75000  1
 O  O2  1  0.00000  0.00000  0.25000  1
