CIF file written using JARVIS-Tools package.
data_LiSb3P2O10
_symmetry_space_group_name_H-M  'P1'
_cell_length_a       5.33931
_cell_length_b       6.82329
_cell_length_c       7.16253
_cell_angle_alpha    112.721
_cell_angle_beta     109.207
_cell_angle_gamma    95.3131

_symmetry_Int_Tables_number  1
_chemical_formula_structural  LiSb3P2O10
_chemical_formula_sum  LiSb3P2O0
_cell_volume  219.94857849780578
_cell_formula_units_Z  1
loop_
  _symmetry_equiv_pos_site_id
 _symmetry_equiv_pos_as_xyz
 1  'x, y, z'
loop_
 _atom_site_type_symbol
 _atom_site_label
 _atom_site_symmetry_multiplicity
 _atom_site_fract_x
 _atom_site_fract_y
 _atom_site_fract_z
 _atom_site_fract_occupancy
 Li  Li1  1  0.92015  0.39562  0.89208  1
 O  O1  1  0.73477  0.06299  0.64027  1
 O  O2  1  0.48022  0.82530  0.86417  1
 O  O3  1  0.45207  0.74761  0.25867  1
 O  O4  1  0.26344  0.51887  0.47523  1
 O  O5  1  0.04859  0.53488  0.74408  1
 O  O6  1  0.23815  0.29428  0.03507  1
 O  O7  1  0.73236  0.24053  0.04616  1
 O  O8  1  0.51783  0.44617  0.80471  1
 O  O9  1  0.87935  0.02004  0.33056  1
 O  O10  1  0.43546  0.13461  0.32691  1
 P  P1  1  0.62161  0.98843  0.38795  1
 P  P2  1  0.31672  0.57730  0.72121  1
 Sb  Sb1  1  0.55395  0.47036  0.33210  1
 Sb  Sb2  1  -0.07672  -0.00121  0.04780  1
 Sb  Sb3  1  0.36638  0.13382  0.78096  1
