CIF file written using JARVIS-Tools package.
data_NiCl2O6
_symmetry_space_group_name_H-M  'C2/m'
_cell_length_a       5.73002
_cell_length_b       5.73002
_cell_length_c       6.69241
_cell_angle_alpha    60.5396
_cell_angle_beta     60.5396
_cell_angle_gamma    52.4159

_symmetry_Int_Tables_number  12
_chemical_formula_structural  NiCl2O6
_chemical_formula_sum  NiCl2O6
_cell_volume  145.63550842747844
_cell_formula_units_Z  1
loop_
  _symmetry_equiv_pos_site_id
 _symmetry_equiv_pos_as_xyz
 1  'x, y, z'
loop_
 _atom_site_type_symbol
 _atom_site_label
 _atom_site_symmetry_multiplicity
 _atom_site_fract_x
 _atom_site_fract_y
 _atom_site_fract_z
 _atom_site_fract_occupancy
 Cl  Cl1  1  0.29570  0.29570  0.20878  1
 Cl  Cl2  1  0.70430  0.70430  0.79122  1
 Ni  Ni1  1  0.00000  0.00000  0.00000  1
 O  O1  1  0.88683  0.36910  0.76127  1
 O  O2  1  0.63090  0.11317  0.23873  1
 O  O3  1  0.11317  0.63090  0.23873  1
 O  O4  1  0.36910  0.88683  0.76127  1
 O  O5  1  0.56011  0.56011  0.39908  1
 O  O6  1  0.43989  0.43989  0.60092  1
