CIF file written using JARVIS-Tools package.
data_U2Al3C4
_symmetry_space_group_name_H-M  'P6_3/mmc'
_cell_length_a       3.40791
_cell_length_b       3.40791
_cell_length_c       23.3681
_cell_angle_alpha    90
_cell_angle_beta     90
_cell_angle_gamma    120

_symmetry_Int_Tables_number  194
_chemical_formula_structural  U2Al3C4
_chemical_formula_sum  U4Al6C8
_cell_volume  235.0335506170304
_cell_formula_units_Z  2
loop_
  _symmetry_equiv_pos_site_id
 _symmetry_equiv_pos_as_xyz
 1  'x, y, z'
loop_
 _atom_site_type_symbol
 _atom_site_label
 _atom_site_symmetry_multiplicity
 _atom_site_fract_x
 _atom_site_fract_y
 _atom_site_fract_z
 _atom_site_fract_occupancy
 Al  Al1  1  0.00000  0.00000  0.83521  1
 Al  Al2  1  0.00000  0.00000  0.66152  1
 Al  Al3  1  0.00000  0.00000  0.16152  1
 Al  Al4  1  0.33333  0.66667  0.24823  1
 Al  Al5  1  0.66667  0.33333  0.74823  1
 Al  Al6  1  0.00000  0.00000  0.33521  1
 C  C1  1  0.00000  0.00000  0.24838  1
 C  C2  1  0.00000  0.00000  0.49839  1
 C  C3  1  0.00000  0.00000  0.99839  1
 C  C4  1  0.66667  0.33333  0.63251  1
 C  C5  1  0.33333  0.66667  0.13251  1
 C  C6  1  0.00000  0.00000  0.74838  1
 C  C7  1  0.66667  0.33333  0.86439  1
 C  C8  1  0.33333  0.66667  0.36439  1
 U  U1  1  0.66667  0.33333  0.06062  1
 U  U2  1  0.66667  0.33333  0.43614  1
 U  U3  1  0.33333  0.66667  0.93614  1
 U  U4  1  0.33333  0.66667  0.56062  1
