CIF file written using JARVIS-Tools package.
data_Pr4B10O21
_symmetry_space_group_name_H-M  'P2_1/c'
_cell_length_a       7.15718
_cell_length_b       9.56858
_cell_length_c       19.6432
_cell_angle_alpha    90
_cell_angle_beta     90
_cell_angle_gamma    93.0985

_symmetry_Int_Tables_number  14
_chemical_formula_structural  Pr4B10O21
_chemical_formula_sum  Pr6B40O84
_cell_volume  1343.28093479065
_cell_formula_units_Z  4
loop_
  _symmetry_equiv_pos_site_id
 _symmetry_equiv_pos_as_xyz
 1  'x, y, z'
loop_
 _atom_site_type_symbol
 _atom_site_label
 _atom_site_symmetry_multiplicity
 _atom_site_fract_x
 _atom_site_fract_y
 _atom_site_fract_z
 _atom_site_fract_occupancy
 B  B1  1  0.31816  0.38112  0.79695  1
 B  B2  1  0.69252  0.60413  0.97872  1
 B  B3  1  0.19252  0.10413  0.52128  1
 B  B4  1  0.30573  0.86679  0.57144  1
 B  B5  1  0.80573  0.36679  0.92856  1
 B  B6  1  0.79732  0.39828  0.47612  1
 B  B7  1  0.98448  0.94540  0.59409  1
 B  B8  1  0.20915  0.62090  0.29278  1
 B  B9  1  0.43703  0.95467  0.67703  1
 B  B10  1  0.20068  0.13900  0.07718  1
 B  B11  1  0.04588  0.04501  0.18748  1
 B  B12  1  0.02621  0.55606  0.40497  1
 B  B13  1  0.97379  0.44394  0.59503  1
 B  B14  1  0.30748  0.39587  0.02128  1
 B  B15  1  0.70068  0.63900  0.42282  1
 B  B16  1  0.95412  0.95499  0.81252  1
 B  B17  1  0.47379  0.94394  0.90497  1
 B  B18  1  0.56297  0.04533  0.32297  1
 B  B19  1  0.69427  0.13321  0.42856  1
 B  B20  1  0.45412  0.45499  0.68748  1
 B  B21  1  0.70915  0.12090  0.20722  1
 B  B22  1  0.79085  0.37910  0.70722  1
 B  B23  1  0.93703  0.45467  0.82297  1
 B  B24  1  0.79932  0.86100  0.92282  1
 B  B25  1  0.70268  0.10172  0.97612  1
 B  B26  1  0.80748  0.89587  0.47872  1
 B  B27  1  0.06297  0.54533  0.17703  1
 B  B28  1  0.51552  0.55460  0.09409  1
 B  B29  1  0.19427  0.63321  0.07144  1
 B  B30  1  0.54588  0.54501  0.31252  1
 B  B31  1  0.20268  0.60172  0.52388  1
 B  B32  1  0.52621  0.05606  0.09503  1
 B  B33  1  0.01552  0.05460  0.40591  1
 B  B34  1  0.81816  0.88112  0.70305  1
 B  B35  1  0.18184  0.11888  0.29695  1
 B  B36  1  0.29085  0.87910  0.79278  1
 B  B37  1  0.29732  0.89828  0.02388  1
 B  B38  1  0.29932  0.36100  0.57718  1
 B  B39  1  0.48448  0.44540  0.90591  1
 B  B40  1  0.68184  0.61888  0.20305  1
 O  O1  1  0.48684  0.90213  0.61293  1
 O  O2  1  0.34224  0.87249  0.95199  1
 O  O3  1  0.10895  0.92068  0.76517  1
 O  O4  1  0.54306  0.58580  0.92856  1
 O  O5  1  0.80504  0.74336  0.68810  1
 O  O6  1  0.79598  0.47246  0.98179  1
 O  O7  1  0.39105  0.57932  0.26517  1
 O  O8  1  0.37198  0.48209  0.84331  1
 O  O9  1  0.45521  0.91441  0.07192  1
 O  O10  1  0.81306  0.97450  0.97363  1
 O  O11  1  0.08731  0.63847  0.22966  1
 O  O12  1  0.87198  0.98209  0.65669  1
 O  O13  1  0.95521  0.41441  0.42808  1
 O  O14  1  0.28330  0.73641  0.81570  1
 O  O15  1  0.19496  0.25664  0.31190  1
 O  O16  1  0.71670  0.26359  0.18430  1
 O  O17  1  0.30504  0.24336  0.81190  1
 O  O18  1  0.66439  0.27302  0.45823  1
 O  O19  1  0.31306  0.47450  0.52637  1
 O  O20  1  0.17036  0.27521  0.03973  1
 O  O21  1  0.04932  0.89642  0.17729  1
 O  O22  1  0.51316  0.09787  0.38707  1
 O  O23  1  0.46131  0.37357  0.62519  1
 O  O24  1  0.14779  0.86780  0.61868  1
 O  O25  1  0.37014  0.98196  0.84108  1
 O  O26  1  0.60895  0.42068  0.73483  1
 O  O27  1  0.68694  0.52550  0.47363  1
 O  O28  1  0.15776  0.62751  0.45199  1
 O  O29  1  0.21670  0.76359  0.31570  1
 O  O30  1  0.72700  0.58031  0.26951  1
 O  O31  1  0.95068  0.10358  0.82271  1
 O  O32  1  0.35221  0.63220  0.11868  1
 O  O33  1  0.16439  0.77302  0.04177  1
 O  O34  1  0.65776  0.12751  0.04801  1
 O  O35  1  0.92962  0.59481  0.81285  1
 O  O36  1  0.41269  0.86153  0.72966  1
 O  O37  1  0.62986  0.01804  0.15892  1
 O  O38  1  0.62802  0.51791  0.15669  1
 O  O39  1  0.89105  0.07932  0.23483  1
 O  O40  1  0.77300  0.91969  0.76951  1
 O  O41  1  0.63261  0.63951  0.04811  1
 O  O42  1  0.98684  0.40213  0.88707  1
 O  O43  1  0.87454  0.64325  0.38601  1
 O  O44  1  0.53869  0.62643  0.37481  1
 O  O45  1  0.86739  0.86049  0.54811  1
 O  O46  1  0.20402  0.52754  0.01821  1
 O  O47  1  0.36739  0.36049  0.95189  1
 O  O48  1  0.91269  0.36153  0.77034  1
 O  O49  1  0.64779  0.36780  0.88132  1
 O  O50  1  0.54932  0.39642  0.32271  1
 O  O51  1  0.04479  0.58559  0.57192  1
 O  O52  1  0.57038  0.90519  0.31285  1
 O  O53  1  0.67036  0.77521  0.46027  1
 O  O54  1  0.85221  0.13220  0.38132  1
 O  O55  1  0.70402  0.02754  0.48179  1
 O  O56  1  0.37454  0.14325  0.11399  1
 O  O57  1  0.58731  0.13847  0.27034  1
 O  O58  1  0.42962  0.09481  0.68715  1
 O  O59  1  0.22700  0.08031  0.23049  1
 O  O60  1  0.83561  0.22698  0.95823  1
 O  O61  1  0.29598  0.97246  0.51821  1
 O  O62  1  0.12802  0.01791  0.34331  1
 O  O63  1  0.62546  0.85675  0.88601  1
 O  O64  1  0.12546  0.35675  0.61399  1
 O  O65  1  0.95694  0.91420  0.42856  1
 O  O66  1  0.04306  0.08580  0.57144  1
 O  O67  1  0.96131  0.87357  0.87481  1
 O  O68  1  0.33561  0.72698  0.54177  1
 O  O69  1  0.82964  0.72479  0.96027  1
 O  O70  1  0.45068  0.60358  0.67729  1
 O  O71  1  0.12986  0.51804  0.34108  1
 O  O72  1  0.87014  0.48196  0.65892  1
 O  O73  1  0.07038  0.40519  0.18715  1
 O  O74  1  0.32964  0.22479  0.53973  1
 O  O75  1  0.78330  0.23641  0.68430  1
 O  O76  1  0.45694  0.41420  0.07144  1
 O  O77  1  0.01316  0.59787  0.11293  1
 O  O78  1  0.69496  0.75664  0.18810  1
 O  O79  1  0.84224  0.37249  0.54801  1
 O  O80  1  0.03869  0.12643  0.12519  1
 O  O81  1  0.18694  0.02550  0.02637  1
 O  O82  1  0.27300  0.41969  0.73049  1
 O  O83  1  0.13261  0.13951  0.45189  1
 O  O84  1  0.54479  0.08559  0.92808  1
 Pr  Pr1  1  0.63988  0.16382  0.58295  1
 Pr  Pr2  1  0.60364  0.67589  0.79378  1
 Pr  Pr3  1  0.10364  0.17589  0.70622  1
 Pr  Pr4  1  0.15641  0.15693  0.91925  1
 Pr  Pr5  1  0.36012  0.83618  0.41705  1
 Pr  Pr6  1  0.13988  0.66382  0.91705  1
 Pr  Pr7  1  0.65641  0.65693  0.58075  1
 Pr  Pr8  1  0.12644  0.66176  0.70059  1
 Pr  Pr9  1  0.62644  0.16176  0.79941  1
 Pr  Pr10  1  0.37356  0.83824  0.20059  1
 Pr  Pr11  1  0.34359  0.34307  0.41925  1
 Pr  Pr12  1  0.87356  0.33824  0.29941  1
 Pr  Pr13  1  0.84359  0.84307  0.08075  1
 Pr  Pr14  1  0.89636  0.82411  0.29378  1
 Pr  Pr15  1  0.39636  0.32411  0.20622  1
 Pr  Pr16  1  0.86012  0.33618  0.08295  1
