CIF file written using JARVIS-Tools package.
data_Cu2HgI4
_symmetry_space_group_name_H-M  'I-42m'
_cell_length_a       6.09374
_cell_length_b       6.09374
_cell_length_c       7.5751
_cell_angle_alpha    113.719
_cell_angle_beta     113.719
_cell_angle_gamma    89.9933

_symmetry_Int_Tables_number  121
_chemical_formula_structural  Cu2HgI4
_chemical_formula_sum  Cu2HgI4
_cell_volume  231.34762267703783
_cell_formula_units_Z  1
loop_
  _symmetry_equiv_pos_site_id
 _symmetry_equiv_pos_as_xyz
 1  'x, y, z'
loop_
 _atom_site_type_symbol
 _atom_site_label
 _atom_site_symmetry_multiplicity
 _atom_site_fract_x
 _atom_site_fract_y
 _atom_site_fract_z
 _atom_site_fract_occupancy
 Cu  Cu1  1  0.25001  0.74996  0.50002  1
 Cu  Cu2  1  0.74996  0.25001  0.50002  1
 Hg  Hg1  1  0.50009  0.50009  0.00004  1
 I  I1  1  0.09473  0.64518  0.73995  1
 I  I2  1  0.35478  0.35478  0.25997  1
 I  I3  1  0.64518  0.09473  0.73995  1
 I  I4  1  0.90527  0.90527  0.26005  1
