CIF file written using JARVIS-Tools package.
data_BaV2TeO8
_symmetry_space_group_name_H-M  'P2_1/c'
_cell_length_a       5.65867
_cell_length_b       9.58546
_cell_length_c       13.937
_cell_angle_alpha    108.111
_cell_angle_beta     90
_cell_angle_gamma    90

_symmetry_Int_Tables_number  14
_chemical_formula_structural  BaV2TeO8
_chemical_formula_sum  Ba4V8Te4O32
_cell_volume  718.5025018613422
_cell_formula_units_Z  4
loop_
  _symmetry_equiv_pos_site_id
 _symmetry_equiv_pos_as_xyz
 1  'x, y, z'
loop_
 _atom_site_type_symbol
 _atom_site_label
 _atom_site_symmetry_multiplicity
 _atom_site_fract_x
 _atom_site_fract_y
 _atom_site_fract_z
 _atom_site_fract_occupancy
 Ba  Ba1  1  0.68641  0.40450  0.15705  1
 Ba  Ba2  1  0.31359  0.59550  0.84295  1
 Ba  Ba3  1  0.81359  0.90450  0.65705  1
 Ba  Ba4  1  0.18641  0.09550  0.34295  1
 O  O1  1  0.89698  0.83652  0.44091  1
 O  O2  1  0.67595  0.99809  0.32547  1
 O  O3  1  0.17595  0.50191  0.17453  1
 O  O4  1  0.32405  0.00191  0.67453  1
 O  O5  1  0.62531  0.13019  0.56353  1
 O  O6  1  0.60693  0.80899  0.95836  1
 O  O7  1  0.60302  0.33652  0.94091  1
 O  O8  1  0.37469  0.86981  0.43647  1
 O  O9  1  0.50998  0.30860  0.31767  1
 O  O10  1  0.82405  0.49809  0.82547  1
 O  O11  1  0.00998  0.19140  0.18233  1
 O  O12  1  0.39307  0.19101  0.04164  1
 O  O13  1  0.63035  0.00148  0.85668  1
 O  O14  1  0.11671  0.79877  0.23633  1
 O  O15  1  0.12531  0.36981  0.93647  1
 O  O16  1  0.99002  0.80860  0.81767  1
 O  O17  1  0.10302  0.16348  0.55909  1
 O  O18  1  0.36965  -0.00148  0.14332  1
 O  O19  1  0.89307  0.30899  0.45836  1
 O  O20  1  0.61671  0.70123  0.26367  1
 O  O21  1  0.88329  0.20123  0.76367  1
 O  O22  1  0.03187  0.08789  0.95690  1
 O  O23  1  0.10693  0.69101  0.54164  1
 O  O24  1  0.87469  0.63019  0.06353  1
 O  O25  1  0.39698  0.66348  0.05909  1
 O  O26  1  0.38329  0.29877  0.73633  1
 O  O27  1  0.53187  0.41211  0.54310  1
 O  O28  1  0.13035  0.49852  0.64332  1
 O  O29  1  0.46813  0.58789  0.45690  1
 O  O30  1  0.86965  0.50148  0.35668  1
 O  O31  1  0.49002  0.69140  0.68233  1
 O  O32  1  0.96813  0.91211  0.04310  1
 Te  Te1  1  0.33658  0.18876  0.90349  1
 Te  Te2  1  0.83658  0.31124  0.59651  1
 Te  Te3  1  0.66342  0.81124  0.09651  1
 Te  Te4  1  0.16342  0.68876  0.40349  1
 V  V1  1  0.35294  0.14900  0.63502  1
 V  V2  1  0.64706  0.85100  0.36498  1
 V  V3  1  0.14706  0.64900  0.13502  1
 V  V4  1  0.33712  0.57821  0.58765  1
 V  V5  1  0.83712  0.92179  0.91235  1
 V  V6  1  0.66288  0.42179  0.41235  1
 V  V7  1  0.85294  0.35100  0.86498  1
 V  V8  1  0.16288  0.07821  0.08765  1
