CIF file written using JARVIS-Tools package.
data_CaMnO2
_symmetry_space_group_name_H-M  'Pmn2_1'
_cell_length_a       3.2594
_cell_length_b       4.70516
_cell_length_c       6.46067
_cell_angle_alpha    90.0016
_cell_angle_beta     90.004
_cell_angle_gamma    90

_symmetry_Int_Tables_number  31
_chemical_formula_structural  CaMnO2
_chemical_formula_sum  Ca2Mn2O4
_cell_volume  99.08086245851813
_cell_formula_units_Z  2
loop_
  _symmetry_equiv_pos_site_id
 _symmetry_equiv_pos_as_xyz
 1  'x, y, z'
loop_
 _atom_site_type_symbol
 _atom_site_label
 _atom_site_symmetry_multiplicity
 _atom_site_fract_x
 _atom_site_fract_y
 _atom_site_fract_z
 _atom_site_fract_occupancy
 Ca  Ca1  1  0.56243  0.50088  0.88628  1
 Ca  Ca2  1  0.06244  0.00088  0.61373  1
 Mn  Mn1  1  0.56244  0.50400  0.37352  1
 Mn  Mn2  1  0.06240  0.00401  0.12646  1
 O  O1  1  0.06245  0.49498  0.14457  1
 O  O2  1  0.56249  0.00011  0.88461  1
 O  O3  1  0.06239  0.50012  0.61541  1
 O  O4  1  0.56241  0.99501  0.35544  1
