CIF file written using JARVIS-Tools package.
data_Li3H6Ir
_symmetry_space_group_name_H-M  'P1'
_cell_length_a       8.49
_cell_length_b       4.7515
_cell_length_c       8.46959
_cell_angle_alpha    90
_cell_angle_beta     90
_cell_angle_gamma    90

_symmetry_Int_Tables_number  1
_chemical_formula_structural  Li3H6Ir
_chemical_formula_sum  Li2H24Ir4
_cell_volume  341.6649852715015
_cell_formula_units_Z  4
loop_
  _symmetry_equiv_pos_site_id
 _symmetry_equiv_pos_as_xyz
 1  'x, y, z'
loop_
 _atom_site_type_symbol
 _atom_site_label
 _atom_site_symmetry_multiplicity
 _atom_site_fract_x
 _atom_site_fract_y
 _atom_site_fract_z
 _atom_site_fract_occupancy
 H  H1  1  0.16547  0.75000  0.23394  1
 H  H2  1  0.83453  0.25000  0.76606  1
 H  H3  1  0.60514  0.00443  0.67920  1
 H  H4  1  0.72588  0.25000  0.60301  1
 H  H5  1  0.66547  0.75000  0.26606  1
 H  H6  1  0.89486  0.50443  0.17920  1
 H  H7  1  0.33453  0.25000  0.73394  1
 H  H8  1  0.22588  0.25000  0.89699  1
 H  H9  1  0.88741  0.75000  0.94065  1
 H  H10  1  0.11259  0.25000  0.05935  1
 H  H11  1  0.61259  0.25000  0.44065  1
 H  H12  1  0.10514  0.49557  0.82080  1
 H  H13  1  0.38741  0.75000  0.55935  1
 H  H14  1  0.39486  0.99557  0.32080  1
 H  H15  1  0.10514  0.00443  0.82080  1
 H  H16  1  0.60514  0.49557  0.67920  1
 H  H17  1  0.27412  0.75000  0.39699  1
 H  H18  1  0.84603  0.00137  0.52883  1
 H  H19  1  0.65397  -0.00137  0.02883  1
 H  H20  1  0.15397  0.50137  0.47117  1
 H  H21  1  0.65397  0.50137  0.02883  1
 H  H22  1  0.15397  -0.00137  0.47117  1
 H  H23  1  0.89486  0.99557  0.17920  1
 H  H24  1  0.34603  0.49863  0.97117  1
 Ir  Ir1  1  0.34603  0.00137  0.97117  1
 Ir  Ir2  1  0.84603  0.49863  0.52883  1
 Ir  Ir3  1  0.77412  0.75000  0.10301  1
 Ir  Ir4  1  0.39486  0.50443  0.32080  1
 Li  Li1  1  0.39736  0.25000  0.52177  1
 Li  Li2  1  0.04148  0.25000  0.63008  1
 Li  Li3  1  0.45852  0.75000  0.13008  1
 Li  Li4  1  0.95852  0.75000  0.36992  1
 Li  Li5  1  0.89736  0.25000  0.97823  1
 Li  Li6  1  0.72858  0.25000  0.25837  1
 Li  Li7  1  0.10264  0.75000  0.02177  1
 Li  Li8  1  0.60264  0.75000  0.47823  1
 Li  Li9  1  0.22858  0.25000  0.24163  1
 Li  Li10  1  0.27142  0.75000  0.74163  1
 Li  Li11  1  0.77142  0.75000  0.75837  1
 Li  Li12  1  0.54148  0.25000  0.86992  1
