CIF file written using JARVIS-Tools package.
data_Tc2O7
_symmetry_space_group_name_H-M  'Pbca'
_cell_length_a       5.4696
_cell_length_b       7.14621
_cell_length_c       13.7772
_cell_angle_alpha    90
_cell_angle_beta     90
_cell_angle_gamma    90

_symmetry_Int_Tables_number  61
_chemical_formula_structural  Tc2O7
_chemical_formula_sum  Tc8O28
_cell_volume  538.5074849830946
_cell_formula_units_Z  4
loop_
  _symmetry_equiv_pos_site_id
 _symmetry_equiv_pos_as_xyz
 1  'x, y, z'
loop_
 _atom_site_type_symbol
 _atom_site_label
 _atom_site_symmetry_multiplicity
 _atom_site_fract_x
 _atom_site_fract_y
 _atom_site_fract_z
 _atom_site_fract_occupancy
 O  O1  1  0.43587  0.44361  0.78902  1
 O  O2  1  0.05181  0.37976  0.91315  1
 O  O3  1  0.94819  0.12024  0.41315  1
 O  O4  1  0.44819  0.87976  0.08685  1
 O  O5  1  0.44819  0.37976  0.41315  1
 O  O6  1  0.94819  0.62024  0.08685  1
 O  O7  1  0.05181  0.87976  0.58685  1
 O  O8  1  0.30109  0.73956  0.37691  1
 O  O9  1  0.30109  0.23956  0.12309  1
 O  O10  1  0.50000  0.00000  0.50000  1
 O  O11  1  0.50000  0.50000  0.00000  1
 O  O12  1  0.00000  0.50000  0.50000  1
 O  O13  1  0.69891  0.76044  0.87691  1
 O  O14  1  0.19891  0.23956  0.62309  1
 O  O15  1  0.80109  0.26044  0.12309  1
 O  O16  1  0.55181  0.12024  0.91315  1
 O  O17  1  0.55181  0.62024  0.58685  1
 O  O18  1  0.80109  0.76044  0.37691  1
 O  O19  1  0.69891  0.26044  0.62309  1
 O  O20  1  0.00000  0.00000  0.00000  1
 O  O21  1  0.19891  0.73956  0.87691  1
 O  O22  1  0.56413  0.05639  0.28902  1
 O  O23  1  0.06413  0.94361  0.21098  1
 O  O24  1  0.93587  0.55639  0.71098  1
 O  O25  1  0.56413  0.55639  0.21098  1
 O  O26  1  0.43587  0.94361  0.71098  1
 O  O27  1  0.93587  0.05639  0.78902  1
 O  O28  1  0.06413  0.44361  0.28902  1
 Tc  Tc1  1  0.20113  0.01713  0.10828  1
 Tc  Tc2  1  0.70113  0.48287  0.10828  1
 Tc  Tc3  1  0.20113  0.51713  0.39172  1
 Tc  Tc4  1  0.29887  0.01713  0.60828  1
 Tc  Tc5  1  0.70113  0.98287  0.39172  1
 Tc  Tc6  1  0.29887  0.51713  0.89172  1
 Tc  Tc7  1  0.79887  0.48287  0.60828  1
 Tc  Tc8  1  0.79887  0.98287  0.89172  1
