CIF file written using JARVIS-Tools package.
data_SbS4N3
_symmetry_space_group_name_H-M  'Im-3m'
_cell_length_a       5.27524
_cell_length_b       5.27524
_cell_length_c       5.27524
_cell_angle_alpha    109.471
_cell_angle_beta     109.471
_cell_angle_gamma    109.471

_symmetry_Int_Tables_number  229
_chemical_formula_structural  SbS4N3
_chemical_formula_sum  SbS4N3
_cell_volume  113.00651459750729
_cell_formula_units_Z  1
loop_
  _symmetry_equiv_pos_site_id
 _symmetry_equiv_pos_as_xyz
 1  'x, y, z'
loop_
 _atom_site_type_symbol
 _atom_site_label
 _atom_site_symmetry_multiplicity
 _atom_site_fract_x
 _atom_site_fract_y
 _atom_site_fract_z
 _atom_site_fract_occupancy
 N  N1  1  0.00000  0.50000  0.50000  1
 N  N2  1  0.50000  0.00000  0.50000  1
 N  N3  1  0.50000  0.50000  0.00000  1
 S  S1  1  0.50006  -0.00000  -0.00000  1
 S  S2  1  -0.00000  0.50006  0.00000  1
 S  S3  1  0.00000  0.00000  0.50006  1
 S  S4  1  0.49994  0.49994  0.49994  1
 Sb  Sb1  1  0.00000  0.00000  0.00000  1
