CIF file written using JARVIS-Tools package.
data_LiVF4
_symmetry_space_group_name_H-M  'Cmcm'
_cell_length_a       5.0566
_cell_length_b       5.0566
_cell_length_c       6.10598
_cell_angle_alpha    90
_cell_angle_beta     90
_cell_angle_gamma    86.3789

_symmetry_Int_Tables_number  63
_chemical_formula_structural  LiVF4
_chemical_formula_sum  Li2V2F8
_cell_volume  155.81300902256925
_cell_formula_units_Z  2
loop_
  _symmetry_equiv_pos_site_id
 _symmetry_equiv_pos_as_xyz
 1  'x, y, z'
loop_
 _atom_site_type_symbol
 _atom_site_label
 _atom_site_symmetry_multiplicity
 _atom_site_fract_x
 _atom_site_fract_y
 _atom_site_fract_z
 _atom_site_fract_occupancy
 F  F1  1  0.28741  0.74507  0.25000  1
 F  F2  1  0.25493  0.71259  0.75000  1
 F  F3  1  0.17573  0.17573  0.52123  1
 F  F4  1  0.17573  0.17573  0.97877  1
 F  F5  1  0.82427  0.82427  0.47877  1
 F  F6  1  0.82427  0.82427  0.02123  1
 F  F7  1  0.74507  0.28741  0.25000  1
 F  F8  1  0.71259  0.25493  0.75000  1
 Li  Li1  1  0.62864  0.62864  0.25000  1
 Li  Li2  1  0.37136  0.37136  0.75000  1
 V  V1  1  0.01957  0.01957  0.25000  1
 V  V2  1  0.98043  0.98043  0.75000  1
