CIF file written using JARVIS-Tools package.
data_ScCr2AgH4O10
_symmetry_space_group_name_H-M  'P-1'
_cell_length_a       5.62613
_cell_length_b       6.05122
_cell_length_c       7.32065
_cell_angle_alpha    110.783
_cell_angle_beta     90.388
_cell_angle_gamma    117.416

_symmetry_Int_Tables_number  2
_chemical_formula_structural  ScCr2AgH4O10
_chemical_formula_sum  ScCr2AgH4O0
_cell_volume  202.4484570213655
_cell_formula_units_Z  1
loop_
  _symmetry_equiv_pos_site_id
 _symmetry_equiv_pos_as_xyz
 1  'x, y, z'
loop_
 _atom_site_type_symbol
 _atom_site_label
 _atom_site_symmetry_multiplicity
 _atom_site_fract_x
 _atom_site_fract_y
 _atom_site_fract_z
 _atom_site_fract_occupancy
 Ag  Ag1  1  0.00000  0.00000  0.50000  1
 Cr  Cr1  1  0.63734  0.23674  0.31779  1
 Cr  Cr2  1  0.36266  0.76326  0.68221  1
 H  H1  1  0.24019  0.49095  0.95568  1
 H  H2  1  0.70271  0.43645  0.80038  1
 H  H3  1  0.75981  0.50905  0.04432  1
 H  H4  1  0.29729  0.56355  0.19962  1
 O  O1  1  0.16736  0.91845  0.74253  1
 O  O2  1  0.21140  0.47564  0.71230  1
 O  O3  1  0.32229  0.03304  0.17110  1
 O  O4  1  0.67771  0.96696  0.82890  1
 O  O5  1  0.83264  0.08155  0.25747  1
 O  O6  1  0.39161  0.70196  0.45101  1
 O  O7  1  0.22062  0.41967  0.06119  1
 O  O8  1  0.77938  0.58033  0.93881  1
 O  O9  1  0.78860  0.52436  0.28770  1
 O  O10  1  0.60839  0.29804  0.54899  1
 Sc  Sc1  1  0.00000  0.00000  0.00000  1
