CIF file written using JARVIS-Tools package.
data_Zr6CuBi2
_symmetry_space_group_name_H-M  'P-62m'
_cell_length_a       3.81599
_cell_length_b       7.85314
_cell_length_c       7.85328
_cell_angle_alpha    119.999
_cell_angle_beta     90
_cell_angle_gamma    90

_symmetry_Int_Tables_number  189
_chemical_formula_structural  Zr6CuBi2
_chemical_formula_sum  Zr6CuBi2
_cell_volume  203.81414229926185
_cell_formula_units_Z  1
loop_
  _symmetry_equiv_pos_site_id
 _symmetry_equiv_pos_as_xyz
 1  'x, y, z'
loop_
 _atom_site_type_symbol
 _atom_site_label
 _atom_site_symmetry_multiplicity
 _atom_site_fract_x
 _atom_site_fract_y
 _atom_site_fract_z
 _atom_site_fract_occupancy
 Bi  Bi1  1  0.00000  0.33332  0.66667  1
 Bi  Bi2  1  0.00000  0.66665  0.33333  1
 Cu  Cu1  1  0.50000  -0.00000  0.00000  1
 Zr  Zr1  1  0.50000  0.60553  0.00000  1
 Zr  Zr2  1  0.50000  0.39444  0.39446  1
 Zr  Zr3  1  0.50000  0.99998  0.60554  1
 Zr  Zr4  1  0.00000  0.23804  -0.00000  1
 Zr  Zr5  1  0.00000  0.76195  0.76196  1
 Zr  Zr6  1  0.00000  0.99999  0.23804  1
