CIF file written using JARVIS-Tools package.
data_Na2La2Ti3O10
_symmetry_space_group_name_H-M  'I4/mmm'
_cell_length_a       3.8622
_cell_length_b       3.86221
_cell_length_c       14.6262
_cell_angle_alpha    97.587
_cell_angle_beta     97.587
_cell_angle_gamma    89.9999

_symmetry_Int_Tables_number  139
_chemical_formula_structural  Na2La2Ti3O10
_chemical_formula_sum  Na2La2Ti3O0
_cell_volume  214.33551538228974
_cell_formula_units_Z  1
loop_
  _symmetry_equiv_pos_site_id
 _symmetry_equiv_pos_as_xyz
 1  'x, y, z'
loop_
 _atom_site_type_symbol
 _atom_site_label
 _atom_site_symmetry_multiplicity
 _atom_site_fract_x
 _atom_site_fract_y
 _atom_site_fract_z
 _atom_site_fract_occupancy
 La  La1  1  0.42485  0.42485  0.84971  1
 La  La2  1  0.57515  0.57515  0.15029  1
 Na  Na1  1  0.28872  0.28872  0.57745  1
 Na  Na2  1  0.71128  0.71128  0.42255  1
 O  O1  1  0.36649  0.86649  0.73297  1
 O  O2  1  0.13351  0.63351  0.26703  1
 O  O3  1  0.63351  0.13351  0.26703  1
 O  O4  1  0.79069  0.79069  0.58137  1
 O  O5  1  0.20931  0.20931  0.41863  1
 O  O6  1  0.86649  0.36649  0.73297  1
 O  O7  1  0.06751  0.06751  0.13501  1
 O  O8  1  0.50000  0.00000  -0.00000  1
 O  O9  1  0.00000  0.50000  -0.00000  1
 O  O10  1  0.93249  0.93249  0.86499  1
 Ti  Ti1  1  0.85178  0.85178  0.70356  1
 Ti  Ti2  1  0.14822  0.14822  0.29644  1
 Ti  Ti3  1  0.00000  0.00000  0.00000  1
