CIF file written using JARVIS-Tools package.
data_ScSiRu
_symmetry_space_group_name_H-M  'P-62m'
_cell_length_a       3.39914
_cell_length_b       6.90991
_cell_length_c       6.90994
_cell_angle_alpha    120
_cell_angle_beta     90
_cell_angle_gamma    90

_symmetry_Int_Tables_number  189
_chemical_formula_structural  ScSiRu
_chemical_formula_sum  Sc3Si3Ru3
_cell_volume  140.55506691774607
_cell_formula_units_Z  3
loop_
  _symmetry_equiv_pos_site_id
 _symmetry_equiv_pos_as_xyz
 1  'x, y, z'
loop_
 _atom_site_type_symbol
 _atom_site_label
 _atom_site_symmetry_multiplicity
 _atom_site_fract_x
 _atom_site_fract_y
 _atom_site_fract_z
 _atom_site_fract_occupancy
 Ru  Ru1  1  0.00000  0.25240  -0.00000  1
 Ru  Ru2  1  0.00000  0.74757  0.74759  1
 Ru  Ru3  1  0.00000  0.99999  0.25241  1
 Sc  Sc1  1  0.50000  0.59809  -0.00000  1
 Sc  Sc2  1  0.50000  0.40189  0.40190  1
 Sc  Sc3  1  0.50000  -0.00001  0.59810  1
 Si  Si1  1  0.00000  0.33332  0.66667  1
 Si  Si2  1  0.00000  0.66666  0.33333  1
 Si  Si3  1  0.50000  -0.00001  0.00000  1
