CIF file written using JARVIS-Tools package.
data_BaMnGe2
_symmetry_space_group_name_H-M  'P4mm'
_cell_length_a       3.36281
_cell_length_b       3.36309
_cell_length_c       7.65316
_cell_angle_alpha    90
_cell_angle_beta     90
_cell_angle_gamma    90

_symmetry_Int_Tables_number  99
_chemical_formula_structural  BaMnGe2
_chemical_formula_sum  BaMnGe2
_cell_volume  86.55306729294584
_cell_formula_units_Z  1
loop_
  _symmetry_equiv_pos_site_id
 _symmetry_equiv_pos_as_xyz
 1  'x, y, z'
loop_
 _atom_site_type_symbol
 _atom_site_label
 _atom_site_symmetry_multiplicity
 _atom_site_fract_x
 _atom_site_fract_y
 _atom_site_fract_z
 _atom_site_fract_occupancy
 Ba  Ba1  1  0.50000  0.50000  0.74061  1
 Ge  Ge1  1  0.00000  0.00000  0.06771  1
 Ge  Ge2  1  0.50000  0.50000  0.30739  1
 Mn  Mn1  1  0.00000  0.00000  0.38429  1
