CIF file written using JARVIS-Tools package.
data_KTlC4N4
_symmetry_space_group_name_H-M  'I4_1/a'
_cell_length_a       7.44337
_cell_length_b       7.44337
_cell_length_c       8.99818
_cell_angle_alpha    114.431
_cell_angle_beta     114.431
_cell_angle_gamma    90

_symmetry_Int_Tables_number  88
_chemical_formula_structural  KTlC4N4
_chemical_formula_sum  K2Tl2C8N8
_cell_volume  404.35417096071495
_cell_formula_units_Z  2
loop_
  _symmetry_equiv_pos_site_id
 _symmetry_equiv_pos_as_xyz
 1  'x, y, z'
loop_
 _atom_site_type_symbol
 _atom_site_label
 _atom_site_symmetry_multiplicity
 _atom_site_fract_x
 _atom_site_fract_y
 _atom_site_fract_z
 _atom_site_fract_occupancy
 C  C1  1  0.36777  0.27411  0.42198  1
 C  C2  1  0.22589  0.44578  0.07802  1
 C  C3  1  0.05422  0.64788  0.42198  1
 C  C4  1  0.77411  0.55422  0.92198  1
 C  C5  1  0.94578  0.35212  0.57802  1
 C  C6  1  0.85212  0.13223  0.07802  1
 C  C7  1  0.14788  0.86777  0.92198  1
 C  C8  1  0.63223  0.72589  0.57802  1
 K  K1  1  0.37500  0.12500  0.75000  1
 K  K2  1  0.62500  0.87500  0.25000  1
 N  N1  1  0.98547  0.20857  0.48881  1
 N  N2  1  0.71976  0.51453  0.01119  1
 N  N3  1  0.01453  0.79143  0.51119  1
 N  N4  1  0.29143  0.99666  0.01119  1
 N  N5  1  0.50334  0.78024  0.48881  1
 N  N6  1  0.28024  0.48547  0.98881  1
 N  N7  1  0.70857  0.00334  0.98881  1
 N  N8  1  0.49666  0.21976  0.51119  1
 Tl  Tl1  1  0.12500  0.37500  0.25000  1
 Tl  Tl2  1  0.87500  0.62500  0.75000  1
