CIF file written using JARVIS-Tools package.
data_SrSb2Pd2
_symmetry_space_group_name_H-M  'P4/nmm'
_cell_length_a       4.72001
_cell_length_b       4.72001
_cell_length_c       10.7311
_cell_angle_alpha    90
_cell_angle_beta     90
_cell_angle_gamma    90

_symmetry_Int_Tables_number  129
_chemical_formula_structural  SrSb2Pd2
_chemical_formula_sum  Sr2Sb4Pd4
_cell_volume  239.07354177273564
_cell_formula_units_Z  2
loop_
  _symmetry_equiv_pos_site_id
 _symmetry_equiv_pos_as_xyz
 1  'x, y, z'
loop_
 _atom_site_type_symbol
 _atom_site_label
 _atom_site_symmetry_multiplicity
 _atom_site_fract_x
 _atom_site_fract_y
 _atom_site_fract_z
 _atom_site_fract_occupancy
 Pd  Pd1  1  0.75000  0.25000  0.00000  1
 Pd  Pd2  1  0.25000  0.75000  0.00000  1
 Pd  Pd3  1  0.25000  0.25000  0.37185  1
 Pd  Pd4  1  0.75000  0.75000  0.62815  1
 Sb  Sb1  1  0.75000  0.25000  0.50000  1
 Sb  Sb2  1  0.25000  0.75000  0.50000  1
 Sb  Sb3  1  0.25000  0.25000  0.12565  1
 Sb  Sb4  1  0.75000  0.75000  0.87435  1
 Sr  Sr1  1  0.25000  0.25000  0.75930  1
 Sr  Sr2  1  0.75000  0.75000  0.24070  1
