CIF file written using JARVIS-Tools package.
data_C
_symmetry_space_group_name_H-M  'P6_3/mmc'
_cell_length_a       2.46487
_cell_length_b       2.46488
_cell_length_c       20.4449
_cell_angle_alpha    90
_cell_angle_beta     90
_cell_angle_gamma    120

_symmetry_Int_Tables_number  194
_chemical_formula_structural  C
_chemical_formula_sum  C2
_cell_volume  107.57289319040365
_cell_formula_units_Z  12
loop_
  _symmetry_equiv_pos_site_id
 _symmetry_equiv_pos_as_xyz
 1  'x, y, z'
loop_
 _atom_site_type_symbol
 _atom_site_label
 _atom_site_symmetry_multiplicity
 _atom_site_fract_x
 _atom_site_fract_y
 _atom_site_fract_z
 _atom_site_fract_occupancy
 C  C1  1  0.16647  0.83353  0.95196  1
 C  C2  1  0.16687  0.83313  0.45198  1
 C  C3  1  0.16685  0.83315  0.77934  1
 C  C4  1  0.16649  0.83351  0.27937  1
 C  C5  1  0.49971  0.50029  0.61568  1
 C  C6  1  0.83315  0.16685  0.27934  1
 C  C7  1  0.50029  0.49971  0.11568  1
 C  C8  1  0.16637  0.83363  0.61568  1
 C  C9  1  0.83351  0.16649  0.77937  1
 C  C10  1  0.83363  0.16637  0.11568  1
 C  C11  1  0.83353  0.16647  0.45196  1
 C  C12  1  0.83313  0.16687  0.95198  1
