CIF file written using JARVIS-Tools package.
data_EuNiGe2
_symmetry_space_group_name_H-M  'Cmcm'
_cell_length_a       4.22828
_cell_length_b       4.16428
_cell_length_c       8.59487
_cell_angle_alpha    104.02
_cell_angle_beta     90
_cell_angle_gamma    90

_symmetry_Int_Tables_number  63
_chemical_formula_structural  EuNiGe2
_chemical_formula_sum  Eu2Ni2Ge4
_cell_volume  146.82826400033775
_cell_formula_units_Z  2
loop_
  _symmetry_equiv_pos_site_id
 _symmetry_equiv_pos_as_xyz
 1  'x, y, z'
loop_
 _atom_site_type_symbol
 _atom_site_label
 _atom_site_symmetry_multiplicity
 _atom_site_fract_x
 _atom_site_fract_y
 _atom_site_fract_z
 _atom_site_fract_occupancy
 Eu  Eu1  1  0.75000  0.10822  0.21644  1
 Eu  Eu2  1  0.25000  0.89178  0.78356  1
 Ge  Ge1  1  0.75000  0.45835  0.91669  1
 Ge  Ge2  1  0.25000  0.54165  0.08331  1
 Ge  Ge3  1  0.75000  0.74873  0.49745  1
 Ge  Ge4  1  0.25000  0.25127  0.50255  1
 Ni  Ni1  1  0.75000  0.31995  0.63989  1
 Ni  Ni2  1  0.25000  0.68005  0.36011  1
