CIF file written using JARVIS-Tools package.
data_BaPr2Ti3O10
_symmetry_space_group_name_H-M  'Cmcm'
_cell_length_a       3.92814
_cell_length_b       7.69388
_cell_length_c       14.2979
_cell_angle_alpha    90
_cell_angle_beta     97.8955
_cell_angle_gamma    90

_symmetry_Int_Tables_number  63
_chemical_formula_structural  BaPr2Ti3O10
_chemical_formula_sum  Ba2Pr4Ti6O20
_cell_volume  428.0229616093931
_cell_formula_units_Z  2
loop_
  _symmetry_equiv_pos_site_id
 _symmetry_equiv_pos_as_xyz
 1  'x, y, z'
loop_
 _atom_site_type_symbol
 _atom_site_label
 _atom_site_symmetry_multiplicity
 _atom_site_fract_x
 _atom_site_fract_y
 _atom_site_fract_z
 _atom_site_fract_occupancy
 Ba  Ba1  1  0.26130  0.75000  0.51433  1
 Ba  Ba2  1  0.74697  0.25000  0.48567  1
 O  O1  1  0.79619  0.95268  0.58411  1
 O  O2  1  0.21208  0.04732  0.41589  1
 O  O3  1  0.37235  0.50733  0.73646  1
 O  O4  1  0.50412  0.50000  0.00000  1
 O  O5  1  0.07109  0.95071  0.13392  1
 O  O6  1  0.63589  0.49267  0.26354  1
 O  O7  1  0.01975  0.25000  0.03124  1
 O  O8  1  0.88072  0.75000  0.75319  1
 O  O9  1  0.98851  0.75000  0.96876  1
 O  O10  1  0.50412  0.00000  0.00000  1
 O  O11  1  0.93716  0.45071  0.86608  1
 O  O12  1  0.37235  0.99267  0.73646  1
 O  O13  1  0.07109  0.54929  0.13392  1
 O  O14  1  0.79619  0.54732  0.58411  1
 O  O15  1  0.93716  0.04929  0.86608  1
 O  O16  1  0.15093  0.75000  0.29361  1
 O  O17  1  0.12753  0.25000  0.24681  1
 O  O18  1  0.63589  0.00733  0.26354  1
 O  O19  1  0.21208  0.45268  0.41589  1
 O  O20  1  0.85732  0.25000  0.70639  1
 Pr  Pr1  1  0.58409  0.75000  0.15995  1
 Pr  Pr2  1  0.42415  0.25000  0.84005  1
 Pr  Pr3  1  0.43133  0.75000  0.85441  1
 Pr  Pr4  1  0.57692  0.25000  0.14559  1
 Ti  Ti1  1  0.15072  0.49467  0.29321  1
 Ti  Ti2  1  0.15072  0.00533  0.29321  1
 Ti  Ti3  1  0.85751  0.99467  0.70679  1
 Ti  Ti4  1  0.85751  0.50533  0.70679  1
 Ti  Ti5  1  0.00412  0.00000  -0.00000  1
 Ti  Ti6  1  0.00412  0.50000  -0.00000  1
