CIF file written using JARVIS-Tools package.
data_ScNi4Au
_symmetry_space_group_name_H-M  'F-43m'
_cell_length_a       4.82237
_cell_length_b       4.82237
_cell_length_c       4.82237
_cell_angle_alpha    60
_cell_angle_beta     60
_cell_angle_gamma    60

_symmetry_Int_Tables_number  216
_chemical_formula_structural  ScNi4Au
_chemical_formula_sum  ScNi4Au
_cell_volume  79.29889273469551
_cell_formula_units_Z  1
loop_
  _symmetry_equiv_pos_site_id
 _symmetry_equiv_pos_as_xyz
 1  'x, y, z'
loop_
 _atom_site_type_symbol
 _atom_site_label
 _atom_site_symmetry_multiplicity
 _atom_site_fract_x
 _atom_site_fract_y
 _atom_site_fract_z
 _atom_site_fract_occupancy
 Au  Au1  1  0.75000  0.75000  0.75000  1
 Ni  Ni1  1  0.37517  0.37517  0.37517  1
 Ni  Ni2  1  0.37517  0.37517  0.87450  1
 Ni  Ni3  1  0.87450  0.37517  0.37517  1
 Ni  Ni4  1  0.37517  0.87450  0.37517  1
 Sc  Sc1  1  0.00000  0.00000  0.00000  1
