CIF file written using JARVIS-Tools package.
data_Tb3S3N
_symmetry_space_group_name_H-M  'Pnma'
_cell_length_a       3.8434
_cell_length_b       11.9637
_cell_length_c       12.8788
_cell_angle_alpha    90
_cell_angle_beta     90
_cell_angle_gamma    90

_symmetry_Int_Tables_number  62
_chemical_formula_structural  Tb3S3N
_chemical_formula_sum  Tb2S2N4
_cell_volume  592.1879373695326
_cell_formula_units_Z  4
loop_
  _symmetry_equiv_pos_site_id
 _symmetry_equiv_pos_as_xyz
 1  'x, y, z'
loop_
 _atom_site_type_symbol
 _atom_site_label
 _atom_site_symmetry_multiplicity
 _atom_site_fract_x
 _atom_site_fract_y
 _atom_site_fract_z
 _atom_site_fract_occupancy
 N  N1  1  0.75000  0.46416  0.29817  1
 N  N2  1  0.75000  0.96416  0.20183  1
 N  N3  1  0.25000  0.53584  0.70183  1
 N  N4  1  0.25000  0.03584  0.79817  1
 S  S1  1  0.25000  0.77494  0.30829  1
 S  S2  1  0.75000  0.22506  0.69171  1
 S  S3  1  0.75000  0.40711  0.89969  1
 S  S4  1  0.25000  0.09289  0.39969  1
 S  S5  1  0.25000  0.59289  0.10031  1
 S  S6  1  0.25000  0.36599  0.49151  1
 S  S7  1  0.75000  0.63401  0.50849  1
 S  S8  1  0.25000  0.86599  0.00849  1
 S  S9  1  0.75000  0.13401  0.99151  1
 S  S10  1  0.75000  0.72506  0.80829  1
 S  S11  1  0.25000  0.27494  0.19171  1
 S  S12  1  0.75000  0.90711  0.60031  1
 Tb  Tb1  1  0.25000  0.06826  0.63096  1
 Tb  Tb2  1  0.25000  0.04738  0.14320  1
 Tb  Tb3  1  0.75000  0.95262  0.85680  1
 Tb  Tb4  1  0.25000  0.54738  0.35680  1
 Tb  Tb5  1  0.75000  0.45262  0.64320  1
 Tb  Tb6  1  0.25000  0.21364  0.86039  1
 Tb  Tb7  1  0.75000  0.78636  0.13961  1
 Tb  Tb8  1  0.25000  0.71364  0.63961  1
 Tb  Tb9  1  0.75000  0.28636  0.36039  1
 Tb  Tb10  1  0.25000  0.56826  0.86904  1
 Tb  Tb11  1  0.75000  0.43174  0.13096  1
 Tb  Tb12  1  0.75000  0.93174  0.36904  1
