CIF file written using JARVIS-Tools package.
data_KSn6Au4
_symmetry_space_group_name_H-M  'Fddd'
_cell_length_a       6.80727
_cell_length_b       6.8025
_cell_length_c       13.071
_cell_angle_alpha    102.833
_cell_angle_beta     102.844
_cell_angle_gamma    98.4447

_symmetry_Int_Tables_number  70
_chemical_formula_structural  KSn6Au4
_chemical_formula_sum  K2Sn2Au8
_cell_volume  562.994855587904
_cell_formula_units_Z  2
loop_
  _symmetry_equiv_pos_site_id
 _symmetry_equiv_pos_as_xyz
 1  'x, y, z'
loop_
 _atom_site_type_symbol
 _atom_site_label
 _atom_site_symmetry_multiplicity
 _atom_site_fract_x
 _atom_site_fract_y
 _atom_site_fract_z
 _atom_site_fract_occupancy
 Au  Au1  1  0.43276  0.18270  0.36544  1
 Au  Au2  1  0.81729  0.56724  0.13453  1
 Au  Au3  1  0.31215  0.06220  0.12433  1
 Au  Au4  1  0.06221  0.31217  0.62435  1
 Au  Au5  1  0.93779  0.68783  0.37565  1
 Au  Au6  1  0.56724  0.81730  0.63456  1
 Au  Au7  1  0.68785  0.93780  0.87567  1
 Au  Au8  1  0.18271  0.43276  0.86547  1
 K  K1  1  0.37500  0.62502  0.25001  1
 K  K2  1  0.62500  0.37498  0.74999  1
 Sn  Sn1  1  0.00965  0.26228  0.02000  1
 Sn  Sn2  1  0.27071  0.72935  0.75001  1
 Sn  Sn3  1  0.72929  0.27065  0.24999  1
 Sn  Sn4  1  0.48958  0.24219  0.97997  1
 Sn  Sn5  1  0.97931  0.02065  0.75001  1
 Sn  Sn6  1  0.73780  0.99046  0.48000  1
 Sn  Sn7  1  0.99035  0.73772  0.98000  1
 Sn  Sn8  1  0.02069  0.97935  0.24999  1
 Sn  Sn9  1  0.26220  0.00954  0.52000  1
 Sn  Sn10  1  0.24210  0.48948  0.47996  1
 Sn  Sn11  1  0.51042  0.75781  0.02003  1
 Sn  Sn12  1  0.75790  0.51052  0.52004  1
