CIF file written using JARVIS-Tools package.
data_RbNa2AuO2
_symmetry_space_group_name_H-M  'Pnnm'
_cell_length_a       4.08459
_cell_length_b       5.64793
_cell_length_c       9.86717
_cell_angle_alpha    90
_cell_angle_beta     90
_cell_angle_gamma    90

_symmetry_Int_Tables_number  58
_chemical_formula_structural  RbNa2AuO2
_chemical_formula_sum  Rb2Na4Au2O4
_cell_volume  227.63008363713888
_cell_formula_units_Z  2
loop_
  _symmetry_equiv_pos_site_id
 _symmetry_equiv_pos_as_xyz
 1  'x, y, z'
loop_
 _atom_site_type_symbol
 _atom_site_label
 _atom_site_symmetry_multiplicity
 _atom_site_fract_x
 _atom_site_fract_y
 _atom_site_fract_z
 _atom_site_fract_occupancy
 Au  Au1  1  0.00000  0.00000  0.00000  1
 Au  Au2  1  0.50000  0.50000  0.50000  1
 Na  Na1  1  0.50000  0.07391  0.22900  1
 Na  Na2  1  0.00000  0.57391  0.27100  1
 Na  Na3  1  0.50000  0.92609  0.77100  1
 Na  Na4  1  0.00000  0.42609  0.72900  1
 O  O1  1  0.50000  0.72742  0.34107  1
 O  O2  1  0.50000  0.27258  0.65893  1
 O  O3  1  0.00000  0.77258  0.84107  1
 O  O4  1  0.00000  0.22742  0.15893  1
 Rb  Rb1  1  0.50000  0.50000  0.00000  1
 Rb  Rb2  1  0.00000  0.00000  0.50000  1
