CIF file written using JARVIS-Tools package.
data_LiGe2P3O12
_symmetry_space_group_name_H-M  'R-3c'
_cell_length_a       8.3698
_cell_length_b       8.36981
_cell_length_c       8.36981
_cell_angle_alpha    60.088
_cell_angle_beta     60.0879
_cell_angle_gamma    60.0879

_symmetry_Int_Tables_number  167
_chemical_formula_structural  LiGe2P3O12
_chemical_formula_sum  Li2Ge4P6O24
_cell_volume  415.428123622338
_cell_formula_units_Z  2
loop_
  _symmetry_equiv_pos_site_id
 _symmetry_equiv_pos_as_xyz
 1  'x, y, z'
loop_
 _atom_site_type_symbol
 _atom_site_label
 _atom_site_symmetry_multiplicity
 _atom_site_fract_x
 _atom_site_fract_y
 _atom_site_fract_z
 _atom_site_fract_occupancy
 Ge  Ge1  1  0.13990  0.13990  0.13990  1
 Ge  Ge2  1  0.36010  0.36010  0.36010  1
 Ge  Ge3  1  0.86010  0.86010  0.86010  1
 Ge  Ge4  1  0.63990  0.63990  0.63990  1
 Li  Li1  1  0.00000  0.00000  0.00000  1
 Li  Li2  1  0.50000  0.50000  0.50000  1
 O  O1  1  0.87193  0.69734  0.49343  1
 O  O2  1  0.12807  0.30266  0.50657  1
 O  O3  1  0.49343  0.87193  0.69734  1
 O  O4  1  0.00657  0.80266  0.62807  1
 O  O5  1  0.80266  0.62807  0.00657  1
 O  O6  1  0.62807  0.00657  0.80266  1
 O  O7  1  0.50657  0.12807  0.30266  1
 O  O8  1  0.30266  0.50657  0.12807  1
 O  O9  1  0.92017  0.26404  0.05572  1
 O  O10  1  0.99343  0.19734  0.37193  1
 O  O11  1  0.19734  0.37193  0.99343  1
 O  O12  1  0.37193  0.99343  0.19734  1
 O  O13  1  0.42017  0.55572  0.76404  1
 O  O14  1  0.05572  0.92017  0.26404  1
 O  O15  1  0.23596  0.57983  0.44428  1
 O  O16  1  0.57983  0.44428  0.23596  1
 O  O17  1  0.69734  0.49343  0.87193  1
 O  O18  1  0.73596  0.94428  0.07983  1
 O  O19  1  0.07983  0.73596  0.94428  1
 O  O20  1  0.94428  0.07983  0.73596  1
 O  O21  1  0.55572  0.76404  0.42017  1
 O  O22  1  0.26404  0.05572  0.92017  1
 O  O23  1  0.44428  0.23596  0.57983  1
 O  O24  1  0.76404  0.42017  0.55572  1
 P  P1  1  0.96112  0.25000  0.53888  1
 P  P2  1  0.53888  0.96112  0.25000  1
 P  P3  1  0.25000  0.53888  0.96112  1
 P  P4  1  0.03888  0.75000  0.46112  1
 P  P5  1  0.46112  0.03888  0.75000  1
 P  P6  1  0.75000  0.46112  0.03888  1
