CIF file written using JARVIS-Tools package.
data_KO
_symmetry_space_group_name_H-M  'Cmce'
_cell_length_a       4.85484
_cell_length_b       4.85485
_cell_length_c       6.44996
_cell_angle_alpha    90
_cell_angle_beta     90
_cell_angle_gamma    91.7642

_symmetry_Int_Tables_number  64
_chemical_formula_structural  KO
_chemical_formula_sum  K4O4
_cell_volume  151.95065252393167
_cell_formula_units_Z  4
loop_
  _symmetry_equiv_pos_site_id
 _symmetry_equiv_pos_as_xyz
 1  'x, y, z'
loop_
 _atom_site_type_symbol
 _atom_site_label
 _atom_site_symmetry_multiplicity
 _atom_site_fract_x
 _atom_site_fract_y
 _atom_site_fract_z
 _atom_site_fract_occupancy
 K  K1  1  0.90905  0.59095  0.75000  1
 K  K2  1  0.59095  0.90905  0.25000  1
 K  K3  1  0.09095  0.40905  0.25000  1
 K  K4  1  0.40905  0.09095  0.75000  1
 O  O1  1  0.58836  0.41164  0.42977  1
 O  O2  1  0.91164  0.08836  0.92977  1
 O  O3  1  0.41164  0.58836  0.57023  1
 O  O4  1  0.08836  0.91164  0.07023  1
