CIF file written using JARVIS-Tools package.
data_Ce3Sb3Au2
_symmetry_space_group_name_H-M  'P6_3/mmc'
_cell_length_a       4.63448
_cell_length_b       4.63448
_cell_length_c       23.7186
_cell_angle_alpha    90
_cell_angle_beta     90
_cell_angle_gamma    120

_symmetry_Int_Tables_number  194
_chemical_formula_structural  Ce3Sb3Au2
_chemical_formula_sum  Ce6Sb6Au4
_cell_volume  441.18697731591647
_cell_formula_units_Z  2
loop_
  _symmetry_equiv_pos_site_id
 _symmetry_equiv_pos_as_xyz
 1  'x, y, z'
loop_
 _atom_site_type_symbol
 _atom_site_label
 _atom_site_symmetry_multiplicity
 _atom_site_fract_x
 _atom_site_fract_y
 _atom_site_fract_z
 _atom_site_fract_occupancy
 Au  Au1  1  0.00000  0.00000  0.81244  1
 Au  Au2  1  0.00000  0.00000  0.18756  1
 Au  Au3  1  0.00000  0.00000  0.31244  1
 Au  Au4  1  0.00000  0.00000  0.68756  1
 Ce  Ce1  1  0.66667  0.33333  0.92567  1
 Ce  Ce2  1  0.33333  0.66667  0.07433  1
 Ce  Ce3  1  0.33333  0.66667  0.42567  1
 Ce  Ce4  1  0.66667  0.33333  0.57433  1
 Ce  Ce5  1  0.33333  0.66667  0.25000  1
 Ce  Ce6  1  0.66667  0.33333  0.75000  1
 Sb  Sb1  1  0.33333  0.66667  0.65152  1
 Sb  Sb2  1  0.00000  0.00000  0.50000  1
 Sb  Sb3  1  0.66667  0.33333  0.34848  1
 Sb  Sb4  1  0.33333  0.66667  0.84848  1
 Sb  Sb5  1  0.66667  0.33333  0.15152  1
 Sb  Sb6  1  0.00000  0.00000  0.00000  1
