CIF file written using JARVIS-Tools package.
data_TiNi
_symmetry_space_group_name_H-M  'P-3'
_cell_length_a       7.27146
_cell_length_b       7.27146
_cell_length_c       5.32376
_cell_angle_alpha    90
_cell_angle_beta     90
_cell_angle_gamma    120

_symmetry_Int_Tables_number  147
_chemical_formula_structural  TiNi
_chemical_formula_sum  Ti9Ni9
_cell_volume  243.77635366011495
_cell_formula_units_Z  9
loop_
  _symmetry_equiv_pos_site_id
 _symmetry_equiv_pos_as_xyz
 1  'x, y, z'
loop_
 _atom_site_type_symbol
 _atom_site_label
 _atom_site_symmetry_multiplicity
 _atom_site_fract_x
 _atom_site_fract_y
 _atom_site_fract_z
 _atom_site_fract_occupancy
 Ni  Ni1  1  0.34005  0.31311  0.14057  1
 Ni  Ni2  1  0.65995  0.68689  0.85943  1
 Ni  Ni3  1  0.02694  0.34005  0.85943  1
 Ni  Ni4  1  0.31311  0.97306  0.85943  1
 Ni  Ni5  1  0.66667  0.33333  0.41201  1
 Ni  Ni6  1  0.33333  0.66667  0.58799  1
 Ni  Ni7  1  0.00000  0.00000  0.50000  1
 Ni  Ni8  1  0.97306  0.65995  0.14057  1
 Ni  Ni9  1  0.68689  0.02694  0.14057  1
 Ti  Ti1  1  0.00000  0.00000  0.00000  1
 Ti  Ti2  1  0.66667  0.33333  0.95373  1
 Ti  Ti3  1  0.33074  0.98641  0.34670  1
 Ti  Ti4  1  0.34433  0.33074  0.65330  1
 Ti  Ti5  1  0.65567  0.66926  0.34670  1
 Ti  Ti6  1  0.66926  0.01359  0.65330  1
 Ti  Ti7  1  0.98641  0.65567  0.65330  1
 Ti  Ti8  1  0.33333  0.66667  0.04627  1
 Ti  Ti9  1  0.01359  0.34433  0.34670  1
