CIF file written using JARVIS-Tools package.
data_Y3AlCoS7
_symmetry_space_group_name_H-M  'P6_3'
_cell_length_a       9.48936
_cell_length_b       9.48936
_cell_length_c       6.15309
_cell_angle_alpha    90
_cell_angle_beta     90
_cell_angle_gamma    120

_symmetry_Int_Tables_number  173
_chemical_formula_structural  Y3AlCoS7
_chemical_formula_sum  Y6Al2Co2S4
_cell_volume  479.8425880142499
_cell_formula_units_Z  2
loop_
  _symmetry_equiv_pos_site_id
 _symmetry_equiv_pos_as_xyz
 1  'x, y, z'
loop_
 _atom_site_type_symbol
 _atom_site_label
 _atom_site_symmetry_multiplicity
 _atom_site_fract_x
 _atom_site_fract_y
 _atom_site_fract_z
 _atom_site_fract_occupancy
 Al  Al1  1  0.66667  0.33333  0.34736  1
 Al  Al2  1  0.33333  0.66667  0.84736  1
 Co  Co1  1  0.00000  0.00000  0.93594  1
 Co  Co2  1  0.00000  0.00000  0.43594  1
 S  S1  1  0.43556  0.91344  0.00008  1
 S  S2  1  0.87266  0.77441  0.18094  1
 S  S3  1  0.66667  0.33333  0.98497  1
 S  S4  1  0.22559  0.09825  0.18094  1
 S  S5  1  0.12734  0.22559  0.68094  1
 S  S6  1  0.09825  0.87266  0.68094  1
 S  S7  1  0.90175  0.12734  0.18094  1
 S  S8  1  0.91344  0.47788  0.50008  1
 S  S9  1  0.56444  0.08656  0.50008  1
 S  S10  1  0.33333  0.66667  0.48497  1
 S  S11  1  0.08656  0.52212  0.00008  1
 S  S12  1  0.77441  0.90175  0.68094  1
 S  S13  1  0.47788  0.56444  0.00008  1
 S  S14  1  0.52212  0.43556  0.50008  1
 Y  Y1  1  0.62512  0.84224  0.27490  1
 Y  Y2  1  0.15776  0.78287  0.27490  1
 Y  Y3  1  0.21713  0.37488  0.27490  1
 Y  Y4  1  0.37488  0.15776  0.77490  1
 Y  Y5  1  0.84224  0.21713  0.77490  1
 Y  Y6  1  0.78287  0.62512  0.77490  1
