CIF file written using JARVIS-Tools package.
data_Ca2MgP2H4O10
_symmetry_space_group_name_H-M  'P-1'
_cell_length_a       5.45988
_cell_length_b       5.75018
_cell_length_c       6.81248
_cell_angle_alpha    107.568
_cell_angle_beta     97.2684
_cell_angle_gamma    108.718

_symmetry_Int_Tables_number  2
_chemical_formula_structural  Ca2MgP2H4O10
_chemical_formula_sum  Ca2MgP2H4O0
_cell_volume  187.11665742789788
_cell_formula_units_Z  1
loop_
  _symmetry_equiv_pos_site_id
 _symmetry_equiv_pos_as_xyz
 1  'x, y, z'
loop_
 _atom_site_type_symbol
 _atom_site_label
 _atom_site_symmetry_multiplicity
 _atom_site_fract_x
 _atom_site_fract_y
 _atom_site_fract_z
 _atom_site_fract_occupancy
 Ca  Ca1  1  0.65219  0.29983  0.76180  1
 Ca  Ca2  1  0.34781  0.70017  0.23820  1
 H  H1  1  0.85113  0.87248  0.60112  1
 H  H2  1  0.91915  0.83027  0.31658  1
 H  H3  1  0.08085  0.16973  0.68342  1
 H  H4  1  0.14887  0.12752  0.39888  1
 Mg  Mg1  1  0.00000  0.00000  0.00000  1
 O  O1  1  0.06969  0.95145  0.27783  1
 O  O2  1  0.27970  0.37510  0.61426  1
 O  O3  1  0.72030  0.62490  0.38574  1
 O  O4  1  0.36332  0.84033  0.62225  1
 O  O5  1  0.93031  0.04855  0.72217  1
 O  O6  1  0.59405  0.74683  0.93009  1
 O  O7  1  0.89759  0.33603  0.13030  1
 O  O8  1  0.40595  0.25317  0.06991  1
 O  O9  1  0.10241  0.66397  0.86970  1
 O  O10  1  0.63668  0.15967  0.37775  1
 P  P1  1  0.33380  0.66500  0.75496  1
 P  P2  1  0.66620  0.33500  0.24504  1
