CIF file written using JARVIS-Tools package.
data_RbN3
_symmetry_space_group_name_H-M  'I4/mcm'
_cell_length_a       5.79333
_cell_length_b       5.79333
_cell_length_c       5.79333
_cell_angle_alpha    100.665
_cell_angle_beta     114.046
_cell_angle_gamma    114.046

_symmetry_Int_Tables_number  140
_chemical_formula_structural  RbN3
_chemical_formula_sum  Rb2N6
_cell_volume  147.0865864008481
_cell_formula_units_Z  2
loop_
  _symmetry_equiv_pos_site_id
 _symmetry_equiv_pos_as_xyz
 1  'x, y, z'
loop_
 _atom_site_type_symbol
 _atom_site_label
 _atom_site_symmetry_multiplicity
 _atom_site_fract_x
 _atom_site_fract_y
 _atom_site_fract_z
 _atom_site_fract_occupancy
 N  N1  1  0.50000  0.00000  0.50000  1
 N  N2  1  0.50000  0.50000  0.00000  1
 N  N3  1  0.23372  0.86686  0.36686  1
 N  N4  1  0.76628  0.13314  0.63314  1
 N  N5  1  0.50000  0.63314  0.86686  1
 N  N6  1  0.50000  0.36686  0.13314  1
 Rb  Rb1  1  0.00000  0.75000  0.75000  1
 Rb  Rb2  1  0.00000  0.25000  0.25000  1
