CIF file written using JARVIS-Tools package.
data_NiS2
_symmetry_space_group_name_H-M  'Cmmm'
_cell_length_a       4.17105
_cell_length_b       4.95194
_cell_length_c       6.46381
_cell_angle_alpha    90
_cell_angle_beta     90
_cell_angle_gamma    53.5865

_symmetry_Int_Tables_number  65
_chemical_formula_structural  NiS2
_chemical_formula_sum  Ni2S4
_cell_volume  107.44188718564152
_cell_formula_units_Z  2
loop_
  _symmetry_equiv_pos_site_id
 _symmetry_equiv_pos_as_xyz
 1  'x, y, z'
loop_
 _atom_site_type_symbol
 _atom_site_label
 _atom_site_symmetry_multiplicity
 _atom_site_fract_x
 _atom_site_fract_y
 _atom_site_fract_z
 _atom_site_fract_occupancy
 Ni  Ni1  1  -0.00000  0.00002  0.00000  1
 Ni  Ni2  1  -0.00000  0.00003  0.50000  1
 S  S1  1  0.44045  0.77981  0.25000  1
 S  S2  1  0.44045  0.77981  0.75000  1
 S  S3  1  0.55955  0.22026  0.25000  1
 S  S4  1  0.55955  0.22026  0.75000  1
