CIF file written using JARVIS-Tools package.
data_BaH2O2
_symmetry_space_group_name_H-M  'P2_1/c'
_cell_length_a       9.40422
_cell_length_b       7.89816
_cell_length_c       6.79234
_cell_angle_alpha    90
_cell_angle_beta     95.0798
_cell_angle_gamma    90

_symmetry_Int_Tables_number  14
_chemical_formula_structural  BaH2O2
_chemical_formula_sum  Ba8H6O6
_cell_volume  502.52684093019326
_cell_formula_units_Z  8
loop_
  _symmetry_equiv_pos_site_id
 _symmetry_equiv_pos_as_xyz
 1  'x, y, z'
loop_
 _atom_site_type_symbol
 _atom_site_label
 _atom_site_symmetry_multiplicity
 _atom_site_fract_x
 _atom_site_fract_y
 _atom_site_fract_z
 _atom_site_fract_occupancy
 Ba  Ba1  1  0.89513  0.14480  0.25165  1
 Ba  Ba2  1  0.39513  0.35520  0.75165  1
 Ba  Ba3  1  0.10487  0.85520  0.74835  1
 Ba  Ba4  1  0.60487  0.64480  0.24835  1
 Ba  Ba5  1  0.31793  0.05026  0.28161  1
 Ba  Ba6  1  0.81793  0.44974  0.78161  1
 Ba  Ba7  1  0.68207  0.94974  0.71839  1
 Ba  Ba8  1  0.18207  0.55026  0.21839  1
 H  H1  1  0.47703  0.35119  0.28083  1
 H  H2  1  0.61754  0.03999  0.18672  1
 H  H3  1  0.11754  0.46001  0.68672  1
 H  H4  1  0.38246  0.96001  0.81328  1
 H  H5  1  0.02297  0.85119  0.21917  1
 H  H6  1  0.52297  0.64881  0.71917  1
 H  H7  1  0.97703  0.14881  0.78083  1
 H  H8  1  0.88246  0.53999  0.31328  1
 H  H9  1  0.87952  0.72587  0.06346  1
 H  H10  1  0.37952  0.77413  0.56346  1
 H  H11  1  0.12048  0.27413  0.93654  1
 H  H12  1  0.40734  0.73853  0.94451  1
 H  H13  1  0.90734  0.76147  0.44451  1
 H  H14  1  0.59266  0.26147  0.05549  1
 H  H15  1  0.09266  0.23853  0.55549  1
 H  H16  1  0.62048  0.22587  0.43654  1
 O  O1  1  0.65890  0.20217  0.97428  1
 O  O2  1  0.61938  0.99409  0.32219  1
 O  O3  1  0.11938  0.50591  0.82219  1
 O  O4  1  0.38062  0.00591  0.67781  1
 O  O5  1  0.08272  0.86156  0.34764  1
 O  O6  1  0.58272  0.63844  0.84764  1
 O  O7  1  0.88062  0.49409  0.17781  1
 O  O8  1  0.10558  0.16008  -0.00939  1
 O  O9  1  0.89442  0.83992  0.00939  1
 O  O10  1  0.39442  0.66008  0.50939  1
 O  O11  1  0.60558  0.33992  0.49061  1
 O  O12  1  0.34110  0.79783  0.02572  1
 O  O13  1  0.84110  0.70217  0.52572  1
 O  O14  1  0.91728  0.13844  0.65236  1
 O  O15  1  0.41728  0.36156  0.15236  1
 O  O16  1  0.15890  0.29783  0.47428  1
