CIF file written using JARVIS-Tools package.
data_Rb2Te
_symmetry_space_group_name_H-M  'Pnma'
_cell_length_a       5.55333
_cell_length_b       8.88805
_cell_length_c       10.9757
_cell_angle_alpha    90
_cell_angle_beta     90
_cell_angle_gamma    90

_symmetry_Int_Tables_number  62
_chemical_formula_structural  Rb2Te
_chemical_formula_sum  Rb8Te4
_cell_volume  541.7395111141363
_cell_formula_units_Z  4
loop_
  _symmetry_equiv_pos_site_id
 _symmetry_equiv_pos_as_xyz
 1  'x, y, z'
loop_
 _atom_site_type_symbol
 _atom_site_label
 _atom_site_symmetry_multiplicity
 _atom_site_fract_x
 _atom_site_fract_y
 _atom_site_fract_z
 _atom_site_fract_occupancy
 Rb  Rb1  1  0.25000  0.03086  0.17940  1
 Rb  Rb2  1  0.75000  0.96914  0.82060  1
 Rb  Rb3  1  0.75000  0.34726  0.07100  1
 Rb  Rb4  1  0.25000  0.15274  0.57100  1
 Rb  Rb5  1  0.25000  0.65274  0.92900  1
 Rb  Rb6  1  0.25000  0.53086  0.32060  1
 Rb  Rb7  1  0.75000  0.84726  0.42900  1
 Rb  Rb8  1  0.75000  0.46914  0.67940  1
 Te  Te1  1  0.25000  0.24657  0.88492  1
 Te  Te2  1  0.75000  0.25343  0.38492  1
 Te  Te3  1  0.25000  0.74657  0.61508  1
 Te  Te4  1  0.75000  0.75343  0.11508  1
