CIF file written using JARVIS-Tools package.
data_SnPCl9
_symmetry_space_group_name_H-M  'P-1'
_cell_length_a       6.9579
_cell_length_b       8.96078
_cell_length_c       9.46106
_cell_angle_alpha    99.801
_cell_angle_beta     95.7695
_cell_angle_gamma    96.043

_symmetry_Int_Tables_number  2
_chemical_formula_structural  SnPCl9
_chemical_formula_sum  Sn2P2Cl8
_cell_volume  573.8029770943608
_cell_formula_units_Z  2
loop_
  _symmetry_equiv_pos_site_id
 _symmetry_equiv_pos_as_xyz
 1  'x, y, z'
loop_
 _atom_site_type_symbol
 _atom_site_label
 _atom_site_symmetry_multiplicity
 _atom_site_fract_x
 _atom_site_fract_y
 _atom_site_fract_z
 _atom_site_fract_occupancy
 Cl  Cl1  1  0.94050  0.19922  0.58026  1
 Cl  Cl2  1  0.41648  0.15260  0.44488  1
 Cl  Cl3  1  0.58352  0.84740  0.55512  1
 Cl  Cl4  1  0.03916  0.28186  0.23636  1
 Cl  Cl5  1  0.96084  0.71814  0.76364  1
 Cl  Cl6  1  0.51624  0.22538  0.11089  1
 Cl  Cl7  1  0.48376  0.77462  0.88911  1
 Cl  Cl8  1  0.72419  0.48301  0.44678  1
 Cl  Cl9  1  0.84909  0.61067  0.11335  1
 Cl  Cl10  1  0.15091  0.38933  0.88665  1
 Cl  Cl11  1  0.27581  0.51699  0.55322  1
 Cl  Cl12  1  0.05950  0.80078  0.41974  1
 Cl  Cl13  1  0.25843  0.05581  0.76771  1
 Cl  Cl14  1  0.74157  0.94419  0.23229  1
 Cl  Cl15  1  0.84105  0.09506  0.87499  1
 Cl  Cl16  1  0.15895  0.90494  0.12501  1
 Cl  Cl17  1  0.62524  0.41145  0.79255  1
 Cl  Cl18  1  0.37476  0.58855  0.20745  1
 P  P1  1  0.95217  0.81359  0.22297  1
 P  P2  1  0.04783  0.18641  0.77703  1
 Sn  Sn1  1  0.61854  0.63804  0.68385  1
 Sn  Sn2  1  0.38146  0.36196  0.31615  1
