CIF file written using JARVIS-Tools package.
data_GaPt3
_symmetry_space_group_name_H-M  'P4/mbm'
_cell_length_a       3.95808
_cell_length_b       5.57908
_cell_length_c       5.57908
_cell_angle_alpha    90
_cell_angle_beta     90
_cell_angle_gamma    90

_symmetry_Int_Tables_number  127
_chemical_formula_structural  GaPt3
_chemical_formula_sum  Ga2Pt6
_cell_volume  123.19978702316168
_cell_formula_units_Z  2
loop_
  _symmetry_equiv_pos_site_id
 _symmetry_equiv_pos_as_xyz
 1  'x, y, z'
loop_
 _atom_site_type_symbol
 _atom_site_label
 _atom_site_symmetry_multiplicity
 _atom_site_fract_x
 _atom_site_fract_y
 _atom_site_fract_z
 _atom_site_fract_occupancy
 Ga  Ga1  1  0.50000  0.50000  0.00000  1
 Ga  Ga2  1  0.50000  0.00000  0.50000  1
 Pt  Pt1  1  0.00000  0.27186  0.77186  1
 Pt  Pt2  1  0.00000  0.72814  0.22814  1
 Pt  Pt3  1  0.00000  0.22814  0.27186  1
 Pt  Pt4  1  0.00000  0.77186  0.72814  1
 Pt  Pt5  1  0.50000  0.50000  0.50000  1
 Pt  Pt6  1  0.50000  0.00000  0.00000  1
