CIF file written using JARVIS-Tools package.
data_BaSn3
_symmetry_space_group_name_H-M  'P6_3/mmc'
_cell_length_a       7.32254
_cell_length_b       7.32254
_cell_length_c       5.60119
_cell_angle_alpha    90
_cell_angle_beta     90
_cell_angle_gamma    120

_symmetry_Int_Tables_number  194
_chemical_formula_structural  BaSn3
_chemical_formula_sum  Ba2Sn6
_cell_volume  260.0971130689635
_cell_formula_units_Z  2
loop_
  _symmetry_equiv_pos_site_id
 _symmetry_equiv_pos_as_xyz
 1  'x, y, z'
loop_
 _atom_site_type_symbol
 _atom_site_label
 _atom_site_symmetry_multiplicity
 _atom_site_fract_x
 _atom_site_fract_y
 _atom_site_fract_z
 _atom_site_fract_occupancy
 Ba  Ba1  1  0.33333  0.66667  0.75000  1
 Ba  Ba2  1  0.66667  0.33333  0.25000  1
 Sn  Sn1  1  0.85912  0.71823  0.75000  1
 Sn  Sn2  1  0.71823  0.85912  0.25000  1
 Sn  Sn3  1  0.14088  0.85912  0.25000  1
 Sn  Sn4  1  0.85912  0.14088  0.75000  1
 Sn  Sn5  1  0.28177  0.14088  0.75000  1
 Sn  Sn6  1  0.14088  0.28177  0.25000  1
