CIF file written using JARVIS-Tools package.
data_EuAs2Rh2
_symmetry_space_group_name_H-M  'I4/mmm'
_cell_length_a       4.13357
_cell_length_b       4.13346
_cell_length_c       6.06642
_cell_angle_alpha    109.914
_cell_angle_beta     109.91
_cell_angle_gamma    89.9922

_symmetry_Int_Tables_number  139
_chemical_formula_structural  EuAs2Rh2
_chemical_formula_sum  EuAs2Rh2
_cell_volume  90.83776801536105
_cell_formula_units_Z  1
loop_
  _symmetry_equiv_pos_site_id
 _symmetry_equiv_pos_as_xyz
 1  'x, y, z'
loop_
 _atom_site_type_symbol
 _atom_site_label
 _atom_site_symmetry_multiplicity
 _atom_site_fract_x
 _atom_site_fract_y
 _atom_site_fract_z
 _atom_site_fract_occupancy
 As  As1  1  0.62122  0.62211  0.24166  1
 As  As2  1  0.38039  0.38134  0.76030  1
 Eu  Eu1  1  0.00080  0.00179  0.00101  1
 Rh  Rh1  1  0.25079  0.75171  0.50095  1
 Rh  Rh2  1  0.75082  0.25176  0.50102  1
