CIF file written using JARVIS-Tools package.
data_CdB2O4
_symmetry_space_group_name_H-M  'P6_3'
_cell_length_a       8.93677
_cell_length_b       8.93677
_cell_length_c       7.22383
_cell_angle_alpha    90
_cell_angle_beta     90
_cell_angle_gamma    120

_symmetry_Int_Tables_number  173
_chemical_formula_structural  CdB2O4
_chemical_formula_sum  Cd8B6O32
_cell_volume  499.64299830086105
_cell_formula_units_Z  8
loop_
  _symmetry_equiv_pos_site_id
 _symmetry_equiv_pos_as_xyz
 1  'x, y, z'
loop_
 _atom_site_type_symbol
 _atom_site_label
 _atom_site_symmetry_multiplicity
 _atom_site_fract_x
 _atom_site_fract_y
 _atom_site_fract_z
 _atom_site_fract_occupancy
 B  B1  1  0.32895  0.15285  0.34544  1
 B  B2  1  0.82644  0.67299  0.73159  1
 B  B3  1  0.33333  0.66667  0.86687  1
 B  B4  1  0.67299  0.84655  0.23159  1
 B  B5  1  0.15285  0.82389  0.84544  1
 B  B6  1  0.82389  0.67105  0.34544  1
 B  B7  1  0.17611  0.32895  0.84544  1
 B  B8  1  0.67105  0.84715  0.84544  1
 B  B9  1  0.84655  0.17356  0.73159  1
 B  B10  1  0.15345  0.82644  0.23159  1
 B  B11  1  0.17356  0.32701  0.23159  1
 B  B12  1  0.32701  0.15345  0.73159  1
 B  B13  1  0.84715  0.17611  0.34544  1
 B  B14  1  0.66667  0.33333  0.36687  1
 B  B15  1  0.33333  0.66667  0.25264  1
 B  B16  1  0.66667  0.33333  0.75264  1
 Cd  Cd1  1  0.47875  0.95498  0.54072  1
 Cd  Cd2  1  0.00000  0.00000  0.06402  1
 Cd  Cd3  1  0.00000  0.00000  0.56402  1
 Cd  Cd4  1  0.52125  0.04502  0.04072  1
 Cd  Cd5  1  0.47623  0.52125  0.54072  1
 Cd  Cd6  1  0.04502  0.52377  0.54072  1
 Cd  Cd7  1  0.95498  0.47623  0.04072  1
 Cd  Cd8  1  0.52377  0.47875  0.04072  1
 O  O1  1  0.49672  0.30701  0.29533  1
 O  O2  1  0.81029  0.50328  0.29533  1
 O  O3  1  0.18971  0.49672  0.79533  1
 O  O4  1  0.50328  0.69299  0.79533  1
 O  O5  1  0.99611  0.18246  0.82884  1
 O  O6  1  0.69299  0.18971  0.29533  1
 O  O7  1  0.90776  0.23765  0.53789  1
 O  O8  1  0.32989  0.09224  0.53789  1
 O  O9  1  0.09224  0.76235  0.03789  1
 O  O10  1  0.76235  0.67011  0.53789  1
 O  O11  1  0.67011  0.90776  0.03789  1
 O  O12  1  0.18635  0.00389  0.82884  1
 O  O13  1  0.30701  0.81029  0.79533  1
 O  O14  1  0.33333  0.66667  0.06085  1
 O  O15  1  0.70884  0.70217  0.22000  1
 O  O16  1  0.20854  0.71628  0.33073  1
 O  O17  1  0.18246  0.18635  0.32884  1
 O  O18  1  0.00389  0.81754  0.32884  1
 O  O19  1  0.81754  0.81365  0.82884  1
 O  O20  1  0.71628  0.50774  0.83073  1
 O  O21  1  0.70217  0.99332  0.72000  1
 O  O22  1  0.29783  0.00668  0.22000  1
 O  O23  1  0.29116  0.29783  0.72000  1
 O  O24  1  0.50774  0.79146  0.33073  1
 O  O25  1  0.99332  0.29116  0.22000  1
 O  O26  1  0.79146  0.28372  0.83073  1
 O  O27  1  0.66667  0.33333  0.56085  1
 O  O28  1  0.28372  0.49226  0.33073  1
 O  O29  1  0.49226  0.20854  0.83073  1
 O  O30  1  0.81365  0.99611  0.32884  1
 O  O31  1  0.00668  0.70884  0.72000  1
 O  O32  1  0.23765  0.32989  0.03789  1
