CIF file written using JARVIS-Tools package.
data_FeH4Cl2O2
_symmetry_space_group_name_H-M  'C2/m'
_cell_length_a       3.5315
_cell_length_b       5.58984
_cell_length_c       5.58984
_cell_angle_alpha    98.4993
_cell_angle_beta     94.7585
_cell_angle_gamma    94.7584

_symmetry_Int_Tables_number  12
_chemical_formula_structural  FeH4Cl2O2
_chemical_formula_sum  FeH4Cl2O2
_cell_volume  108.2495535819987
_cell_formula_units_Z  1
loop_
  _symmetry_equiv_pos_site_id
 _symmetry_equiv_pos_as_xyz
 1  'x, y, z'
loop_
 _atom_site_type_symbol
 _atom_site_label
 _atom_site_symmetry_multiplicity
 _atom_site_fract_x
 _atom_site_fract_y
 _atom_site_fract_z
 _atom_site_fract_occupancy
 Cl  Cl1  1  0.55633  0.24414  0.24414  1
 Cl  Cl2  1  0.44367  0.75586  0.75586  1
 Fe  Fe1  1  -0.00000  -0.00000  0.00000  1
 H  H1  1  0.83635  0.22408  0.60215  1
 H  H2  1  0.16365  0.39785  0.77592  1
 H  H3  1  0.83635  0.60215  0.22408  1
 H  H4  1  0.16365  0.77592  0.39785  1
 O  O1  1  1.00000  0.75762  0.24238  1
 O  O2  1  0.00000  0.24239  0.75761  1
