CIF file written using JARVIS-Tools package.
data_Li7NiO4F2
_symmetry_space_group_name_H-M  'P1'
_cell_length_a       5.39977
_cell_length_b       5.3548
_cell_length_c       5.52486
_cell_angle_alpha    91.0706
_cell_angle_beta     117.916
_cell_angle_gamma    111.141

_symmetry_Int_Tables_number  1
_chemical_formula_structural  Li7NiO4F2
_chemical_formula_sum  Li7NiO4F2
_cell_volume  128.20541135732938
_cell_formula_units_Z  1
loop_
  _symmetry_equiv_pos_site_id
 _symmetry_equiv_pos_as_xyz
 1  'x, y, z'
loop_
 _atom_site_type_symbol
 _atom_site_label
 _atom_site_symmetry_multiplicity
 _atom_site_fract_x
 _atom_site_fract_y
 _atom_site_fract_z
 _atom_site_fract_occupancy
 F  F1  1  0.54359  0.47191  0.28945  1
 F  F2  1  0.41499  0.54387  0.71153  1
 Li  Li1  1  0.59025  0.12753  0.31127  1
 Li  Li2  1  0.75122  0.52062  0.70154  1
 Li  Li3  1  0.11528  0.19778  0.63928  1
 Li  Li4  1  0.31303  0.65151  0.98424  1
 Li  Li5  1  0.90111  0.76474  0.35865  1
 Li  Li6  1  0.16986  0.45557  0.29770  1
 Li  Li7  1  0.45914  0.93355  0.68295  1
 Ni  Ni1  1  0.01341  0.00028  0.00258  1
 O  O1  1  0.85620  0.21823  0.76362  1
 O  O2  1  0.87421  0.08357  0.22735  1
 O  O3  1  0.12431  0.87831  0.76727  1
 O  O4  1  0.20798  0.81349  0.25454  1
