CIF file written using JARVIS-Tools package.
data_Nb2CoO6
_symmetry_space_group_name_H-M  'P4_2/mnm'
_cell_length_a       4.80105
_cell_length_b       4.80105
_cell_length_c       9.14241
_cell_angle_alpha    90
_cell_angle_beta     90
_cell_angle_gamma    90

_symmetry_Int_Tables_number  136
_chemical_formula_structural  Nb2CoO6
_chemical_formula_sum  Nb4Co2O2
_cell_volume  210.73353541924473
_cell_formula_units_Z  2
loop_
  _symmetry_equiv_pos_site_id
 _symmetry_equiv_pos_as_xyz
 1  'x, y, z'
loop_
 _atom_site_type_symbol
 _atom_site_label
 _atom_site_symmetry_multiplicity
 _atom_site_fract_x
 _atom_site_fract_y
 _atom_site_fract_z
 _atom_site_fract_occupancy
 Co  Co1  1  0.00000  0.00000  0.50000  1
 Co  Co2  1  0.50000  0.50000  0.00000  1
 Nb  Nb1  1  0.00000  0.00000  0.16937  1
 Nb  Nb2  1  0.00000  0.00000  0.83063  1
 Nb  Nb3  1  0.50000  0.50000  0.33063  1
 Nb  Nb4  1  0.50000  0.50000  0.66937  1
 O  O1  1  0.20295  0.79705  0.32916  1
 O  O2  1  0.19484  0.80516  0.00000  1
 O  O3  1  0.79705  0.20295  0.32916  1
 O  O4  1  0.29705  0.29705  0.17084  1
 O  O5  1  0.20295  0.79705  0.67084  1
 O  O6  1  0.69484  0.69484  0.50000  1
 O  O7  1  0.70295  0.70295  0.17084  1
 O  O8  1  0.30516  0.30516  0.50000  1
 O  O9  1  0.70295  0.70295  0.82916  1
 O  O10  1  0.80516  0.19484  0.00000  1
 O  O11  1  0.29705  0.29705  0.82916  1
 O  O12  1  0.79705  0.20295  0.67084  1
