CIF file written using JARVIS-Tools package.
data_Li2ZrN2
_symmetry_space_group_name_H-M  'P-3m1'
_cell_length_a       3.28594
_cell_length_b       3.28599
_cell_length_c       5.42679
_cell_angle_alpha    89.9999
_cell_angle_beta     89.9997
_cell_angle_gamma    120

_symmetry_Int_Tables_number  164
_chemical_formula_structural  Li2ZrN2
_chemical_formula_sum  Li2ZrN2
_cell_volume  50.745736503563194
_cell_formula_units_Z  1
loop_
  _symmetry_equiv_pos_site_id
 _symmetry_equiv_pos_as_xyz
 1  'x, y, z'
loop_
 _atom_site_type_symbol
 _atom_site_label
 _atom_site_symmetry_multiplicity
 _atom_site_fract_x
 _atom_site_fract_y
 _atom_site_fract_z
 _atom_site_fract_occupancy
 Li  Li1  1  0.33333  0.66667  0.61545  1
 Li  Li2  1  0.66667  0.33333  0.38455  1
 N  N1  1  0.33334  0.66667  0.22491  1
 N  N2  1  0.66666  0.33333  0.77509  1
 Zr  Zr1  1  0.00000  0.00000  0.00000  1
