CIF file written using JARVIS-Tools package.
data_NbNi3H2C2
_symmetry_space_group_name_H-M  'I4/mmm'
_cell_length_a       4.29893
_cell_length_b       4.29893
_cell_length_c       4.88358
_cell_angle_alpha    116.113
_cell_angle_beta     116.113
_cell_angle_gamma    90

_symmetry_Int_Tables_number  139
_chemical_formula_structural  NbNi3H2C2
_chemical_formula_sum  NbNi3H2C2
_cell_volume  70.63659669520514
_cell_formula_units_Z  1
loop_
  _symmetry_equiv_pos_site_id
 _symmetry_equiv_pos_as_xyz
 1  'x, y, z'
loop_
 _atom_site_type_symbol
 _atom_site_label
 _atom_site_symmetry_multiplicity
 _atom_site_fract_x
 _atom_site_fract_y
 _atom_site_fract_z
 _atom_site_fract_occupancy
 C  C1  1  0.00000  0.50000  0.00000  1
 C  C2  1  0.50000  0.00000  0.00000  1
 H  H1  1  0.74341  0.74341  0.48682  1
 H  H2  1  0.25659  0.25659  0.51318  1
 Nb  Nb1  1  0.00000  0.00000  0.00000  1
 Ni  Ni1  1  0.25000  0.75000  0.50000  1
 Ni  Ni2  1  0.75000  0.25000  0.50000  1
 Ni  Ni3  1  0.50000  0.50000  0.00000  1
