CIF file written using JARVIS-Tools package.
data_Zr6CoAs2
_symmetry_space_group_name_H-M  'P-62m'
_cell_length_a       7.51379
_cell_length_b       7.51379
_cell_length_c       3.58327
_cell_angle_alpha    90
_cell_angle_beta     90
_cell_angle_gamma    120

_symmetry_Int_Tables_number  189
_chemical_formula_structural  Zr6CoAs2
_chemical_formula_sum  Zr6CoAs2
_cell_volume  175.19744431921941
_cell_formula_units_Z  1
loop_
  _symmetry_equiv_pos_site_id
 _symmetry_equiv_pos_as_xyz
 1  'x, y, z'
loop_
 _atom_site_type_symbol
 _atom_site_label
 _atom_site_symmetry_multiplicity
 _atom_site_fract_x
 _atom_site_fract_y
 _atom_site_fract_z
 _atom_site_fract_occupancy
 As  As1  1  0.33333  0.66667  0.00000  1
 As  As2  1  0.66667  0.33333  0.00000  1
 Co  Co1  1  0.00000  0.00000  0.50000  1
 Zr  Zr1  1  0.00000  0.75298  0.00000  1
 Zr  Zr2  1  0.24702  0.24702  0.00000  1
 Zr  Zr3  1  0.75298  0.00000  0.00000  1
 Zr  Zr4  1  0.41462  0.00000  0.50000  1
 Zr  Zr5  1  0.58538  0.58538  0.50000  1
 Zr  Zr6  1  0.00000  0.41462  0.50000  1
