CIF file written using JARVIS-Tools package.
data_Nd2MoO6
_symmetry_space_group_name_H-M  'I4_1/acd'
_cell_length_a       5.70729
_cell_length_b       5.70729
_cell_length_c       16.402
_cell_angle_alpha    100.019
_cell_angle_beta     100.019
_cell_angle_gamma    90

_symmetry_Int_Tables_number  142
_chemical_formula_structural  Nd2MoO6
_chemical_formula_sum  Nd8Mo4O24
_cell_volume  517.8404238349465
_cell_formula_units_Z  4
loop_
  _symmetry_equiv_pos_site_id
 _symmetry_equiv_pos_as_xyz
 1  'x, y, z'
loop_
 _atom_site_type_symbol
 _atom_site_label
 _atom_site_symmetry_multiplicity
 _atom_site_fract_x
 _atom_site_fract_y
 _atom_site_fract_z
 _atom_site_fract_occupancy
 Mo  Mo1  1  0.12500  0.37500  0.75000  1
 Mo  Mo2  1  0.37500  0.12500  0.25000  1
 Mo  Mo3  1  0.62500  0.87500  0.75000  1
 Mo  Mo4  1  0.87500  0.62500  0.25000  1
 Nd  Nd1  1  0.03812  0.78812  0.57624  1
 Nd  Nd2  1  0.53812  0.28812  0.57624  1
 Nd  Nd3  1  0.96188  0.21188  0.42376  1
 Nd  Nd4  1  0.71188  0.46188  0.92376  1
 Nd  Nd5  1  0.28812  0.53812  0.07624  1
 Nd  Nd6  1  0.46188  0.71188  0.42376  1
 Nd  Nd7  1  0.21188  0.96188  0.92376  1
 Nd  Nd8  1  0.78812  0.03812  0.07624  1
 O  O1  1  0.99395  0.75000  0.00000  1
 O  O2  1  0.99156  0.58342  0.82214  1
 O  O3  1  0.33058  0.23872  0.82214  1
 O  O4  1  0.73872  0.49156  0.32214  1
 O  O5  1  0.23872  0.33058  0.32214  1
 O  O6  1  0.83058  0.08342  0.82214  1
 O  O7  1  0.49156  0.73872  0.82214  1
 O  O8  1  0.75000  0.49395  0.50000  1
 O  O9  1  0.76128  0.66942  0.67786  1
 O  O10  1  0.50605  0.25000  -0.00000  1
 O  O11  1  0.25000  0.00605  0.50000  1
 O  O12  1  0.08342  0.83058  0.32214  1
 O  O13  1  0.49395  0.75000  0.00000  1
 O  O14  1  0.00605  0.25000  -0.00000  1
 O  O15  1  0.41658  0.00844  0.67786  1
 O  O16  1  0.75000  0.99395  0.50000  1
 O  O17  1  0.91658  0.16942  0.67786  1
 O  O18  1  0.26128  0.50844  0.67786  1
 O  O19  1  0.66942  0.76128  0.17786  1
 O  O20  1  0.00844  0.41658  0.17786  1
 O  O21  1  0.58342  0.99156  0.32214  1
 O  O22  1  0.50844  0.26128  0.17786  1
 O  O23  1  0.25000  0.50605  0.50000  1
 O  O24  1  0.16942  0.91658  0.17786  1
