CIF file written using JARVIS-Tools package.
data_CaB2H8
_symmetry_space_group_name_H-M  'I-42d'
_cell_length_a       7.58763
_cell_length_b       7.58763
_cell_length_c       7.58763
_cell_angle_alpha    134.659
_cell_angle_beta     134.659
_cell_angle_gamma    66.0601

_symmetry_Int_Tables_number  122
_chemical_formula_structural  CaB2H8
_chemical_formula_sum  Ca2B4H6
_cell_volume  217.62510333475961
_cell_formula_units_Z  2
loop_
  _symmetry_equiv_pos_site_id
 _symmetry_equiv_pos_as_xyz
 1  'x, y, z'
loop_
 _atom_site_type_symbol
 _atom_site_label
 _atom_site_symmetry_multiplicity
 _atom_site_fract_x
 _atom_site_fract_y
 _atom_site_fract_z
 _atom_site_fract_occupancy
 B  B1  1  0.22833  0.22833  -0.00000  1
 B  B2  1  0.77167  0.77167  -0.00000  1
 B  B3  1  0.02167  0.52167  0.50000  1
 B  B4  1  0.47833  0.97833  0.50000  1
 Ca  Ca1  1  0.00000  0.00000  0.00000  1
 Ca  Ca2  1  0.25000  0.75000  0.50000  1
 H  H1  1  0.03557  0.27722  0.96499  1
 H  H2  1  0.31223  0.07057  0.03501  1
 H  H3  1  0.72278  0.68777  0.75834  1
 H  H4  1  0.92943  0.96443  0.24166  1
 H  H5  1  0.66116  0.14667  0.73833  1
 H  H6  1  0.93777  0.47278  0.25834  1
 H  H7  1  0.21443  0.67943  0.74166  1
 H  H8  1  0.17283  0.15834  0.76167  1
 H  H9  1  0.39667  0.41116  0.23833  1
 H  H10  1  0.52722  0.78557  0.46499  1
 H  H11  1  0.58884  0.82717  0.98551  1
 H  H12  1  0.84166  0.60333  0.01449  1
 H  H13  1  0.85333  0.59166  0.51449  1
 H  H14  1  0.07717  0.33884  0.48551  1
 H  H15  1  0.32057  0.06223  0.53501  1
 H  H16  1  0.40834  0.92283  0.26167  1
