CIF file written using JARVIS-Tools package.
data_LiH2N
_symmetry_space_group_name_H-M  'C2/c'
_cell_length_a       5.47331
_cell_length_b       5.47331
_cell_length_c       4.74855
_cell_angle_alpha    78.9299
_cell_angle_beta     78.9299
_cell_angle_gamma    143.715

_symmetry_Int_Tables_number  15
_chemical_formula_structural  LiH2N
_chemical_formula_sum  Li2H4N2
_cell_volume  66.2754325946071
_cell_formula_units_Z  2
loop_
  _symmetry_equiv_pos_site_id
 _symmetry_equiv_pos_as_xyz
 1  'x, y, z'
loop_
 _atom_site_type_symbol
 _atom_site_label
 _atom_site_symmetry_multiplicity
 _atom_site_fract_x
 _atom_site_fract_y
 _atom_site_fract_z
 _atom_site_fract_occupancy
 H  H1  1  0.75688  0.42938  0.19668  1
 H  H2  1  0.42938  0.75688  0.69668  1
 H  H3  1  0.58225  0.91010  0.95040  1
 H  H4  1  0.91010  0.58225  0.45040  1
 Li  Li1  1  0.15328  0.18638  0.32360  1
 Li  Li2  1  0.18638  0.15328  0.82360  1
 N  N1  1  0.56978  0.76991  0.82360  1
 N  N2  1  0.76991  0.56978  0.32360  1
