CIF file written using JARVIS-Tools package.
data_Li2MnF6
_symmetry_space_group_name_H-M  'P-3m1'
_cell_length_a       5.68581
_cell_length_b       5.68585
_cell_length_c       4.82958
_cell_angle_alpha    90.0065
_cell_angle_beta     90
_cell_angle_gamma    120

_symmetry_Int_Tables_number  164
_chemical_formula_structural  Li2MnF6
_chemical_formula_sum  Li2MnF6
_cell_volume  135.21634821296988
_cell_formula_units_Z  1
loop_
  _symmetry_equiv_pos_site_id
 _symmetry_equiv_pos_as_xyz
 1  'x, y, z'
loop_
 _atom_site_type_symbol
 _atom_site_label
 _atom_site_symmetry_multiplicity
 _atom_site_fract_x
 _atom_site_fract_y
 _atom_site_fract_z
 _atom_site_fract_occupancy
 F  F1  1  0.15167  0.84830  0.21744  1
 F  F2  1  0.15168  0.30333  0.21757  1
 F  F3  1  0.30338  0.15171  0.78256  1
 F  F4  1  0.69664  0.84830  0.21745  1
 F  F5  1  0.84835  0.69667  0.78243  1
 F  F6  1  0.84834  0.15170  0.78255  1
 Li  Li1  1  0.33333  0.66665  0.24779  1
 Li  Li2  1  0.66668  0.33335  0.75221  1
 Mn  Mn1  1  0.00001  -0.00000  -0.00000  1
