CIF file written using JARVIS-Tools package.
data_K2AsAuS4
_symmetry_space_group_name_H-M  'P2_1/m'
_cell_length_a       6.53435
_cell_length_b       6.89871
_cell_length_c       9.49712
_cell_angle_alpha    90
_cell_angle_beta     91.3966
_cell_angle_gamma    90

_symmetry_Int_Tables_number  11
_chemical_formula_structural  K2AsAuS4
_chemical_formula_sum  K4As2Au2S8
_cell_volume  427.9892091769984
_cell_formula_units_Z  2
loop_
  _symmetry_equiv_pos_site_id
 _symmetry_equiv_pos_as_xyz
 1  'x, y, z'
loop_
 _atom_site_type_symbol
 _atom_site_label
 _atom_site_symmetry_multiplicity
 _atom_site_fract_x
 _atom_site_fract_y
 _atom_site_fract_z
 _atom_site_fract_occupancy
 As  As1  1  0.71635  0.75000  0.71891  1
 As  As2  1  0.28365  0.25000  0.28109  1
 Au  Au1  1  0.00000  0.50000  0.00000  1
 Au  Au2  1  0.00000  0.00000  0.00000  1
 K  K1  1  0.19764  0.75000  0.53563  1
 K  K2  1  0.80236  0.25000  0.46437  1
 K  K3  1  0.54770  0.75000  0.16037  1
 K  K4  1  0.45230  0.25000  0.83963  1
 S  S1  1  0.09884  0.98246  0.23530  1
 S  S2  1  0.90116  0.48246  0.76470  1
 S  S3  1  0.90116  0.01754  0.76470  1
 S  S4  1  0.09884  0.51754  0.23530  1
 S  S5  1  0.43264  0.75000  0.83192  1
 S  S6  1  0.56736  0.25000  0.16808  1
 S  S7  1  0.69043  0.75000  0.49089  1
 S  S8  1  0.30957  0.25000  0.50911  1
