CIF file written using JARVIS-Tools package.
data_TiReSi
_symmetry_space_group_name_H-M  'P-62m'
_cell_length_a       3.25351
_cell_length_b       6.827
_cell_length_c       6.8269
_cell_angle_alpha    120.001
_cell_angle_beta     90
_cell_angle_gamma    90

_symmetry_Int_Tables_number  189
_chemical_formula_structural  TiReSi
_chemical_formula_sum  Ti3Re3Si3
_cell_volume  131.32115059766798
_cell_formula_units_Z  3
loop_
  _symmetry_equiv_pos_site_id
 _symmetry_equiv_pos_as_xyz
 1  'x, y, z'
loop_
 _atom_site_type_symbol
 _atom_site_label
 _atom_site_symmetry_multiplicity
 _atom_site_fract_x
 _atom_site_fract_y
 _atom_site_fract_z
 _atom_site_fract_occupancy
 Re  Re1  1  0.00000  0.26317  -0.00000  1
 Re  Re2  1  0.00000  0.73679  0.73681  1
 Re  Re3  1  0.00000  -0.00002  0.26319  1
 Si  Si1  1  0.00000  0.33332  0.66667  1
 Si  Si2  1  0.00000  0.66666  0.33333  1
 Si  Si3  1  0.50000  0.99998  0.00000  1
 Ti  Ti1  1  0.50000  0.59689  -0.00000  1
 Ti  Ti2  1  0.50000  0.40310  0.40310  1
 Ti  Ti3  1  0.50000  -0.00000  0.59690  1
