CIF file written using JARVIS-Tools package.
data_NdBN2
_symmetry_space_group_name_H-M  'R3c'
_cell_length_a       7.39999
_cell_length_b       7.39999
_cell_length_c       7.39999
_cell_angle_alpha    110.692
_cell_angle_beta     110.692
_cell_angle_gamma    110.693

_symmetry_Int_Tables_number  161
_chemical_formula_structural  NdBN2
_chemical_formula_sum  Nd6B6N2
_cell_volume  296.999088841811
_cell_formula_units_Z  6
loop_
  _symmetry_equiv_pos_site_id
 _symmetry_equiv_pos_as_xyz
 1  'x, y, z'
loop_
 _atom_site_type_symbol
 _atom_site_label
 _atom_site_symmetry_multiplicity
 _atom_site_fract_x
 _atom_site_fract_y
 _atom_site_fract_z
 _atom_site_fract_occupancy
 B  B1  1  0.74729  0.62774  0.86654  1
 B  B2  1  0.24729  0.36654  0.12774  1
 B  B3  1  0.36654  0.12774  0.24729  1
 B  B4  1  0.12774  0.24729  0.36654  1
 B  B5  1  0.62774  0.86654  0.74729  1
 B  B6  1  0.86654  0.74729  0.62774  1
 N  N1  1  0.24666  0.12481  0.36890  1
 N  N2  1  0.74666  0.86890  0.62481  1
 N  N3  1  0.62481  0.74666  0.86890  1
 N  N4  1  0.48889  0.00693  0.24804  1
 N  N5  1  0.00693  0.24804  0.48889  1
 N  N6  1  0.24804  0.48889  0.00693  1
 N  N7  1  0.74804  0.50693  0.98889  1
 N  N8  1  0.98889  0.74804  0.50693  1
 N  N9  1  0.86890  0.62481  0.74666  1
 N  N10  1  0.36890  0.24666  0.12481  1
 N  N11  1  0.12481  0.36890  0.24666  1
 N  N12  1  0.50693  0.98889  0.74804  1
 Nd  Nd1  1  0.70328  0.79476  0.24817  1
 Nd  Nd2  1  0.20328  0.74817  0.29476  1
 Nd  Nd3  1  0.74817  0.29476  0.20328  1
 Nd  Nd4  1  0.29476  0.20328  0.74817  1
 Nd  Nd5  1  0.79476  0.24817  0.70328  1
 Nd  Nd6  1  0.24817  0.70328  0.79476  1
