CIF file written using JARVIS-Tools package.
data_Ba3Y2B6O15
_symmetry_space_group_name_H-M  'Ia-3'
_cell_length_a       12.415
_cell_length_b       12.415
_cell_length_c       12.415
_cell_angle_alpha    109.471
_cell_angle_beta     109.471
_cell_angle_gamma    109.471

_symmetry_Int_Tables_number  206
_chemical_formula_structural  Ba3Y2B6O15
_chemical_formula_sum  Ba2Y8B24O60
_cell_volume  1473.0706427434918
_cell_formula_units_Z  4
loop_
  _symmetry_equiv_pos_site_id
 _symmetry_equiv_pos_as_xyz
 1  'x, y, z'
loop_
 _atom_site_type_symbol
 _atom_site_label
 _atom_site_symmetry_multiplicity
 _atom_site_fract_x
 _atom_site_fract_y
 _atom_site_fract_z
 _atom_site_fract_occupancy
 B  B1  1  0.80457  0.12812  0.54874  1
 B  B2  1  0.04874  0.92062  0.74417  1
 B  B3  1  0.17645  0.80457  0.75583  1
 B  B4  1  0.37188  0.95126  0.19543  1
 B  B5  1  0.12812  0.82355  0.07938  1
 B  B6  1  0.75583  0.67645  0.30457  1
 B  B7  1  0.42062  0.24417  0.04874  1
 B  B8  1  0.30457  0.25583  0.17645  1
 B  B9  1  0.07938  0.62812  0.32355  1
 B  B10  1  0.19543  0.87188  0.45126  1
 B  B11  1  0.74417  0.54874  0.42062  1
 B  B12  1  0.95126  0.07938  0.25583  1
 B  B13  1  0.82355  0.19543  0.24417  1
 B  B14  1  0.92062  0.37188  0.67645  1
 B  B15  1  0.69543  0.74417  0.82355  1
 B  B16  1  0.25583  0.45126  0.57938  1
 B  B17  1  0.57938  0.75583  0.95126  1
 B  B18  1  0.87188  0.17645  0.92062  1
 B  B19  1  0.62812  0.04874  0.80457  1
 B  B20  1  0.67645  0.42062  0.87188  1
 B  B21  1  0.54874  0.30457  0.62812  1
 B  B22  1  0.24417  0.32355  0.69543  1
 B  B23  1  0.45126  0.69543  0.37188  1
 B  B24  1  0.32355  0.57938  0.12812  1
 Ba  Ba1  1  0.11900  0.25000  0.86900  1
 Ba  Ba2  1  0.88100  0.75000  0.13100  1
 Ba  Ba3  1  0.63100  0.88100  0.25000  1
 Ba  Ba4  1  0.25000  0.13100  0.38100  1
 Ba  Ba5  1  0.61900  0.25000  0.36900  1
 Ba  Ba6  1  0.75000  0.86900  0.61900  1
 Ba  Ba7  1  0.25000  0.63100  0.88100  1
 Ba  Ba8  1  0.38100  0.75000  0.63100  1
 Ba  Ba9  1  0.86900  0.61900  0.75000  1
 Ba  Ba10  1  0.13100  0.38100  0.25000  1
 Ba  Ba11  1  0.36900  0.11900  0.75000  1
 Ba  Ba12  1  0.75000  0.36900  0.11900  1
 O  O1  1  0.62148  0.69147  0.01130  1
 O  O2  1  0.19147  0.51130  0.62148  1
 O  O3  1  0.30853  0.43001  0.81983  1
 O  O4  1  0.88983  0.06999  0.87852  1
 O  O5  1  0.00820  0.97910  0.67628  1
 O  O6  1  0.56999  0.37852  0.88983  1
 O  O7  1  0.43001  0.62148  0.11017  1
 O  O8  1  0.81983  0.80853  0.93001  1
 O  O9  1  0.87852  0.38983  0.56999  1
 O  O10  1  0.68017  0.11017  0.48870  1
 O  O11  1  0.75000  0.16003  0.91003  1
 O  O12  1  0.61017  0.98870  0.68017  1
 O  O13  1  0.83997  0.08997  0.25000  1
 O  O14  1  0.80282  0.47910  0.97090  1
 O  O15  1  0.48870  0.18017  0.61017  1
 O  O16  1  0.01130  0.12148  0.19147  1
 O  O17  1  0.80853  0.48870  0.37852  1
 O  O18  1  0.31983  0.88983  0.51130  1
 O  O19  1  0.12148  0.61017  0.43001  1
 O  O20  1  0.18017  0.19147  0.06999  1
 O  O21  1  0.37852  0.30853  0.98870  1
 O  O22  1  0.38983  0.01130  0.31983  1
 O  O23  1  0.69147  0.56999  0.18017  1
 O  O24  1  0.11017  0.93001  0.12148  1
 O  O25  1  0.08997  0.75000  0.33997  1
 O  O26  1  0.25000  0.33997  0.58997  1
 O  O27  1  0.58997  0.75000  0.83997  1
 O  O28  1  0.91003  0.25000  0.66003  1
 O  O29  1  0.06999  0.68017  0.69147  1
 O  O30  1  0.98870  0.87852  0.80853  1
 O  O31  1  0.51130  0.81983  0.38983  1
 O  O32  1  0.93001  0.31983  0.30853  1
 O  O33  1  0.49180  0.66808  0.47090  1
 O  O34  1  0.33997  0.58997  0.25000  1
 O  O35  1  0.47090  0.99180  0.16808  1
 O  O36  1  0.66808  0.67628  0.69718  1
 O  O37  1  0.17628  0.19718  0.66808  1
 O  O38  1  0.32372  0.49180  0.52090  1
 O  O39  1  0.52090  0.82372  0.99180  1
 O  O40  1  0.97910  0.47090  0.80282  1
 O  O41  1  0.75000  0.66003  0.41003  1
 O  O42  1  0.16003  0.91003  0.75000  1
 O  O43  1  0.19718  0.52090  0.02910  1
 O  O44  1  0.25000  0.83997  0.08997  1
 O  O45  1  0.97090  0.30282  0.97910  1
 O  O46  1  0.41003  0.25000  0.16003  1
 O  O47  1  0.66003  0.41003  0.75000  1
 O  O48  1  0.52910  0.00820  0.83192  1
 O  O49  1  0.83192  0.02910  0.50820  1
 O  O50  1  0.82372  0.80282  0.33192  1
 O  O51  1  0.67628  0.50820  0.47910  1
 O  O52  1  0.47910  0.17628  0.00820  1
 O  O53  1  0.33192  0.32372  0.30282  1
 O  O54  1  0.02910  0.69718  0.02090  1
 O  O55  1  0.69718  0.16808  0.17628  1
 O  O56  1  0.99180  0.02090  0.32372  1
 O  O57  1  0.50820  0.33192  0.52910  1
 O  O58  1  0.02090  0.52910  0.19718  1
 O  O59  1  0.16808  0.97090  0.49180  1
 O  O60  1  0.30282  0.83192  0.82372  1
 Y  Y1  1  0.50000  0.00000  0.50000  1
 Y  Y2  1  0.00000  0.50000  0.50000  1
 Y  Y3  1  0.00000  0.00000  0.00000  1
 Y  Y4  1  0.50000  0.50000  0.00000  1
 Y  Y5  1  -0.00000  -0.00000  0.50000  1
 Y  Y6  1  0.00000  0.50000  -0.00000  1
 Y  Y7  1  0.50000  0.50000  0.50000  1
 Y  Y8  1  0.50000  0.00000  0.00000  1
