CIF file written using JARVIS-Tools package.
data_Rb2MnCl4O2
_symmetry_space_group_name_H-M  'P-1'
_cell_length_a       5.6881
_cell_length_b       6.66816
_cell_length_c       6.6438
_cell_angle_alpha    61.1748
_cell_angle_beta     82.2603
_cell_angle_gamma    78.517

_symmetry_Int_Tables_number  2
_chemical_formula_structural  Rb2MnCl4O2
_chemical_formula_sum  Rb2MnCl4O2
_cell_volume  216.13169325748223
_cell_formula_units_Z  1
loop_
  _symmetry_equiv_pos_site_id
 _symmetry_equiv_pos_as_xyz
 1  'x, y, z'
loop_
 _atom_site_type_symbol
 _atom_site_label
 _atom_site_symmetry_multiplicity
 _atom_site_fract_x
 _atom_site_fract_y
 _atom_site_fract_z
 _atom_site_fract_occupancy
 Cl  Cl1  1  0.23898  0.13123  0.65210  1
 Cl  Cl2  1  0.76102  0.86877  0.34790  1
 Cl  Cl3  1  0.72182  0.36543  0.81218  1
 Cl  Cl4  1  0.27818  0.63457  0.18782  1
 Mn  Mn1  1  0.00000  0.50000  0.50000  1
 O  O1  1  0.14239  0.57728  0.64641  1
 O  O2  1  0.85761  0.42272  0.35359  1
 Rb  Rb1  1  0.78288  0.83080  0.85945  1
 Rb  Rb2  1  0.21712  0.16920  0.14055  1
