CIF file written using JARVIS-Tools package.
data_EuCu4Sn2
_symmetry_space_group_name_H-M  'I4/mcm'
_cell_length_a       6.91096
_cell_length_b       6.91096
_cell_length_c       6.91096
_cell_angle_alpha    108.426
_cell_angle_beta     108.426
_cell_angle_gamma    111.582

_symmetry_Int_Tables_number  140
_chemical_formula_structural  EuCu4Sn2
_chemical_formula_sum  Eu2Cu8Sn4
_cell_volume  253.8335161454834
_cell_formula_units_Z  2
loop_
  _symmetry_equiv_pos_site_id
 _symmetry_equiv_pos_as_xyz
 1  'x, y, z'
loop_
 _atom_site_type_symbol
 _atom_site_label
 _atom_site_symmetry_multiplicity
 _atom_site_fract_x
 _atom_site_fract_y
 _atom_site_fract_z
 _atom_site_fract_occupancy
 Cu  Cu1  1  0.52509  0.02509  0.22256  1
 Cu  Cu2  1  0.97491  0.19747  0.50000  1
 Cu  Cu3  1  0.47491  0.97491  0.77744  1
 Cu  Cu4  1  0.02509  0.80253  0.50000  1
 Cu  Cu5  1  0.80253  0.30253  0.77744  1
 Cu  Cu6  1  0.69747  0.47491  0.50000  1
 Cu  Cu7  1  0.30253  0.52509  0.50000  1
 Cu  Cu8  1  0.19747  0.69747  0.22256  1
 Eu  Eu1  1  0.25000  0.25000  -0.00000  1
 Eu  Eu2  1  0.75000  0.75000  0.00000  1
 Sn  Sn1  1  0.16111  0.66111  0.82221  1
 Sn  Sn2  1  0.66111  0.83889  0.50000  1
 Sn  Sn3  1  0.83889  0.33889  0.17779  1
 Sn  Sn4  1  0.33889  0.16111  0.50000  1
