CIF file written using JARVIS-Tools package.
data_La3Al
_symmetry_space_group_name_H-M  'P6_3/mmc'
_cell_length_a       5.46669
_cell_length_b       7.21604
_cell_length_c       7.21604
_cell_angle_alpha    120.001
_cell_angle_beta     90
_cell_angle_gamma    90

_symmetry_Int_Tables_number  194
_chemical_formula_structural  La3Al
_chemical_formula_sum  La6Al2
_cell_volume  246.51686213714612
_cell_formula_units_Z  2
loop_
  _symmetry_equiv_pos_site_id
 _symmetry_equiv_pos_as_xyz
 1  'x, y, z'
loop_
 _atom_site_type_symbol
 _atom_site_label
 _atom_site_symmetry_multiplicity
 _atom_site_fract_x
 _atom_site_fract_y
 _atom_site_fract_z
 _atom_site_fract_occupancy
 Al  Al1  1  0.75000  0.66666  0.33334  1
 Al  Al2  1  0.25000  0.33334  0.66666  1
 La  La1  1  0.75000  0.17994  0.35988  1
 La  La2  1  0.75000  0.17994  0.82006  1
 La  La3  1  0.75000  0.64012  0.82006  1
 La  La4  1  0.25000  0.82006  0.64012  1
 La  La5  1  0.25000  0.82006  0.17994  1
 La  La6  1  0.25000  0.35988  0.17994  1
