CIF file written using JARVIS-Tools package.
data_NaCaVO4
_symmetry_space_group_name_H-M  'Cmcm'
_cell_length_a       5.5283
_cell_length_b       5.52829
_cell_length_c       7.12977
_cell_angle_alpha    90
_cell_angle_beta     90
_cell_angle_gamma    114.969

_symmetry_Int_Tables_number  63
_chemical_formula_structural  NaCaVO4
_chemical_formula_sum  Na2Ca2V2O8
_cell_volume  197.53478999606827
_cell_formula_units_Z  2
loop_
  _symmetry_equiv_pos_site_id
 _symmetry_equiv_pos_as_xyz
 1  'x, y, z'
loop_
 _atom_site_type_symbol
 _atom_site_label
 _atom_site_symmetry_multiplicity
 _atom_site_fract_x
 _atom_site_fract_y
 _atom_site_fract_z
 _atom_site_fract_occupancy
 Ca  Ca1  1  0.81926  0.18074  0.25000  1
 Ca  Ca2  1  0.18074  0.81926  0.75000  1
 Na  Na1  1  0.50000  0.50000  0.00000  1
 Na  Na2  1  0.50000  0.50000  0.50000  1
 O  O1  1  0.25887  0.19982  0.25000  1
 O  O2  1  0.25254  0.74746  0.05367  1
 O  O3  1  0.80018  0.74113  0.25000  1
 O  O4  1  0.74746  0.25254  0.55367  1
 O  O5  1  0.19982  0.25887  0.75000  1
 O  O6  1  0.25254  0.74746  0.44633  1
 O  O7  1  0.74746  0.25254  0.94633  1
 O  O8  1  0.74113  0.80018  0.75000  1
 V  V1  1  0.14491  0.85509  0.25000  1
 V  V2  1  0.85509  0.14491  0.75000  1
