CIF file written using JARVIS-Tools package.
data_K5LiGe2O7
_symmetry_space_group_name_H-M  'P2_1/c'
_cell_length_a       6.2436
_cell_length_b       10.3281
_cell_length_c       15.8757
_cell_angle_alpha    90
_cell_angle_beta     90
_cell_angle_gamma    105.02

_symmetry_Int_Tables_number  14
_chemical_formula_structural  K5LiGe2O7
_chemical_formula_sum  K20Li4Ge8O28
_cell_volume  988.7598660612624
_cell_formula_units_Z  4
loop_
  _symmetry_equiv_pos_site_id
 _symmetry_equiv_pos_as_xyz
 1  'x, y, z'
loop_
 _atom_site_type_symbol
 _atom_site_label
 _atom_site_symmetry_multiplicity
 _atom_site_fract_x
 _atom_site_fract_y
 _atom_site_fract_z
 _atom_site_fract_occupancy
 Ge  Ge1  1  0.49128  0.75539  0.55321  1
 Ge  Ge2  1  0.99128  0.25539  0.94679  1
 Ge  Ge3  1  0.00872  0.74461  0.05321  1
 Ge  Ge4  1  0.88368  0.11128  0.76566  1
 Ge  Ge5  1  0.11632  0.88872  0.23434  1
 Ge  Ge6  1  0.50872  0.24461  0.44679  1
 Ge  Ge7  1  0.38368  0.61128  0.73434  1
 Ge  Ge8  1  0.61632  0.38872  0.26566  1
 K  K1  1  0.17035  0.41788  0.56687  1
 K  K2  1  0.67035  0.91788  0.93313  1
 K  K3  1  0.67916  0.42130  0.05683  1
 K  K4  1  0.21118  0.90970  0.83440  1
 K  K5  1  0.17916  0.92130  0.44317  1
 K  K6  1  0.32965  0.08212  0.06687  1
 K  K7  1  0.82965  0.58212  0.43313  1
 K  K8  1  0.28882  0.59030  0.33440  1
 K  K9  1  0.17066  0.38857  0.15547  1
 K  K10  1  0.49571  0.26416  0.87044  1
 K  K11  1  0.78882  0.09030  0.16560  1
 K  K12  1  0.99571  0.76416  0.62956  1
 K  K13  1  0.82934  0.61143  0.84453  1
 K  K14  1  0.32934  0.11143  0.65547  1
 K  K15  1  0.50429  0.73584  0.12956  1
 K  K16  1  0.82084  0.07870  0.55683  1
 K  K17  1  0.67066  0.88857  0.34453  1
 K  K18  1  0.00429  0.23584  0.37044  1
 K  K19  1  0.32084  0.57870  0.94317  1
 K  K20  1  0.71118  0.40970  0.66560  1
 Li  Li1  1  0.60004  0.89513  0.72039  1
 Li  Li2  1  0.10004  0.39513  0.77961  1
 Li  Li3  1  0.39996  0.10487  0.27961  1
 Li  Li4  1  0.89996  0.60487  0.22039  1
 O  O1  1  0.90665  0.42953  0.28318  1
 O  O2  1  0.74549  0.80723  0.49771  1
 O  O3  1  0.25451  0.19277  0.50229  1
 O  O4  1  0.50990  0.24781  0.20147  1
 O  O5  1  0.00990  0.74781  0.29853  1
 O  O6  1  0.06467  0.03379  0.28205  1
 O  O7  1  0.93533  0.96621  0.71795  1
 O  O8  1  0.99010  0.25219  0.70147  1
 O  O9  1  0.06166  0.61035  0.11269  1
 O  O10  1  0.75451  0.69277  0.99771  1
 O  O11  1  0.56467  0.53379  0.21795  1
 O  O12  1  0.09335  0.57047  0.71682  1
 O  O13  1  0.40665  0.92953  0.21682  1
 O  O14  1  0.46470  0.37098  0.36769  1
 O  O15  1  0.24549  0.30723  0.00229  1
 O  O16  1  0.96470  0.87098  0.13231  1
 O  O17  1  0.03530  0.12902  0.86769  1
 O  O18  1  0.49010  0.75219  0.79853  1
 O  O19  1  0.76057  0.17417  0.00913  1
 O  O20  1  0.43533  0.46621  0.78205  1
 O  O21  1  0.23943  0.82583  0.99087  1
 O  O22  1  0.73943  0.32583  0.50913  1
 O  O23  1  0.59335  0.07047  0.78318  1
 O  O24  1  0.56166  0.11035  0.38731  1
 O  O25  1  0.43834  0.88965  0.61269  1
 O  O26  1  0.53530  0.62902  0.63231  1
 O  O27  1  0.93834  0.38965  0.88731  1
 O  O28  1  0.26057  0.67417  0.49087  1
