CIF file written using JARVIS-Tools package.
data_Ba2CuGe2O7
_symmetry_space_group_name_H-M  'P-42_1m'
_cell_length_a       5.4681
_cell_length_b       8.58397
_cell_length_c       8.58397
_cell_angle_alpha    90
_cell_angle_beta     90
_cell_angle_gamma    90

_symmetry_Int_Tables_number  113
_chemical_formula_structural  Ba2CuGe2O7
_chemical_formula_sum  Ba4Cu2Ge4O4
_cell_volume  402.91414599127336
_cell_formula_units_Z  2
loop_
  _symmetry_equiv_pos_site_id
 _symmetry_equiv_pos_as_xyz
 1  'x, y, z'
loop_
 _atom_site_type_symbol
 _atom_site_label
 _atom_site_symmetry_multiplicity
 _atom_site_fract_x
 _atom_site_fract_y
 _atom_site_fract_z
 _atom_site_fract_occupancy
 Ba  Ba1  1  0.99359  0.33403  0.16597  1
 Ba  Ba2  1  0.00641  0.83403  0.33403  1
 Ba  Ba3  1  0.99359  0.66597  0.83403  1
 Ba  Ba4  1  0.00641  0.16597  0.66597  1
 Cu  Cu1  1  0.50000  0.50000  0.50000  1
 Cu  Cu2  1  0.50000  0.00000  0.00000  1
 Ge  Ge1  1  0.47643  0.36102  0.86102  1
 Ge  Ge2  1  0.47643  0.63898  0.13898  1
 Ge  Ge3  1  0.52357  0.13898  0.36102  1
 Ge  Ge4  1  0.52357  0.86102  0.63898  1
 O  O1  1  0.66955  0.31521  0.41889  1
 O  O2  1  0.33045  0.41889  0.68479  1
 O  O3  1  0.33045  0.58111  0.31521  1
 O  O4  1  0.66955  0.91889  0.81521  1
 O  O5  1  0.33045  0.81521  0.08111  1
 O  O6  1  0.33045  0.18479  0.91889  1
 O  O7  1  0.20423  0.13338  0.36662  1
 O  O8  1  0.20423  0.86662  0.63338  1
 O  O9  1  0.79577  0.63338  0.13338  1
 O  O10  1  0.66955  0.68479  0.58111  1
 O  O11  1  0.65428  0.00000  0.50000  1
 O  O12  1  0.79577  0.36662  0.86662  1
 O  O13  1  0.66955  0.08111  0.18479  1
 O  O14  1  0.34572  0.50000  0.00000  1
