CIF file written using JARVIS-Tools package.
data_RbTi2P3O12
_symmetry_space_group_name_H-M  'R-3c'
_cell_length_a       9.29774
_cell_length_b       9.29774
_cell_length_c       9.29775
_cell_angle_alpha    53.5298
_cell_angle_beta     53.5298
_cell_angle_gamma    53.5298

_symmetry_Int_Tables_number  167
_chemical_formula_structural  RbTi2P3O12
_chemical_formula_sum  Rb2Ti4P6O24
_cell_volume  482.31422011774515
_cell_formula_units_Z  2
loop_
  _symmetry_equiv_pos_site_id
 _symmetry_equiv_pos_as_xyz
 1  'x, y, z'
loop_
 _atom_site_type_symbol
 _atom_site_label
 _atom_site_symmetry_multiplicity
 _atom_site_fract_x
 _atom_site_fract_y
 _atom_site_fract_z
 _atom_site_fract_occupancy
 O  O1  1  0.19652  0.42963  0.56757  1
 O  O2  1  0.48694  0.76632  0.84535  1
 O  O3  1  0.76632  0.84535  0.48694  1
 O  O4  1  0.73368  0.01306  0.65465  1
 O  O5  1  0.01306  0.65465  0.73368  1
 O  O6  1  0.65465  0.73368  0.01306  1
 O  O7  1  0.15465  0.51306  0.23368  1
 O  O8  1  0.06757  0.92963  0.69652  1
 O  O9  1  0.69652  0.06757  0.92963  1
 O  O10  1  0.26632  0.98694  0.34535  1
 O  O11  1  0.98694  0.34535  0.26632  1
 O  O12  1  0.34535  0.26632  0.98694  1
 O  O13  1  0.57037  0.43243  0.80348  1
 O  O14  1  0.80348  0.57037  0.43243  1
 O  O15  1  0.43243  0.80348  0.57037  1
 O  O16  1  0.51306  0.23368  0.15465  1
 O  O17  1  0.84535  0.48694  0.76632  1
 O  O18  1  0.92963  0.69652  0.06757  1
 O  O19  1  0.56757  0.19652  0.42963  1
 O  O20  1  0.93243  0.07037  0.30348  1
 O  O21  1  0.30348  0.93243  0.07037  1
 O  O22  1  0.07037  0.30348  0.93243  1
 O  O23  1  0.42963  0.56757  0.19652  1
 O  O24  1  0.23368  0.15465  0.51306  1
 P  P1  1  0.97116  0.52884  0.25000  1
 P  P2  1  0.25000  0.97116  0.52884  1
 P  P3  1  0.52884  0.25000  0.97116  1
 P  P4  1  0.47116  0.75000  0.02884  1
 P  P5  1  0.02884  0.47116  0.75000  1
 P  P6  1  0.75000  0.02884  0.47116  1
 Rb  Rb1  1  0.50000  0.50000  0.50000  1
 Rb  Rb2  1  0.00000  0.00000  0.00000  1
 Ti  Ti1  1  0.15084  0.15084  0.15084  1
 Ti  Ti2  1  0.65084  0.65084  0.65084  1
 Ti  Ti3  1  0.84916  0.84916  0.84916  1
 Ti  Ti4  1  0.34916  0.34916  0.34916  1
