CIF file written using JARVIS-Tools package.
data_YMnB4
_symmetry_space_group_name_H-M  'Pbam'
_cell_length_a       3.42709
_cell_length_b       5.90358
_cell_length_c       11.4127
_cell_angle_alpha    90
_cell_angle_beta     90
_cell_angle_gamma    90

_symmetry_Int_Tables_number  55
_chemical_formula_structural  YMnB4
_chemical_formula_sum  Y4Mn4B6
_cell_volume  230.9037940296694
_cell_formula_units_Z  4
loop_
  _symmetry_equiv_pos_site_id
 _symmetry_equiv_pos_as_xyz
 1  'x, y, z'
loop_
 _atom_site_type_symbol
 _atom_site_label
 _atom_site_symmetry_multiplicity
 _atom_site_fract_x
 _atom_site_fract_y
 _atom_site_fract_z
 _atom_site_fract_occupancy
 B  B1  1  0.50000  0.11207  0.45372  1
 B  B2  1  0.50000  0.28072  0.68351  1
 B  B3  1  0.50000  0.71928  0.31649  1
 B  B4  1  0.50000  0.21928  0.18351  1
 B  B5  1  0.50000  0.02504  0.30924  1
 B  B6  1  0.50000  0.36147  0.53210  1
 B  B7  1  0.50000  0.63853  0.46790  1
 B  B8  1  0.50000  0.78072  0.81649  1
 B  B9  1  0.50000  0.86147  0.96790  1
 B  B10  1  0.50000  0.38793  0.95372  1
 B  B11  1  0.50000  0.61207  0.04628  1
 B  B12  1  0.50000  0.97496  0.69076  1
 B  B13  1  0.50000  0.88793  0.54628  1
 B  B14  1  0.50000  0.47496  0.80924  1
 B  B15  1  0.50000  0.52504  0.19076  1
 B  B16  1  0.50000  0.13853  0.03210  1
 Mn  Mn1  1  0.00000  0.62704  0.91653  1
 Mn  Mn2  1  0.00000  0.37296  0.08347  1
 Mn  Mn3  1  0.00000  0.87296  0.41653  1
 Mn  Mn4  1  0.00000  0.12704  0.58347  1
 Y  Y1  1  0.00000  0.62569  0.65048  1
 Y  Y2  1  0.00000  0.37431  0.34952  1
 Y  Y3  1  0.00000  0.87431  0.15048  1
 Y  Y4  1  0.00000  0.12569  0.84952  1
