CIF file written using JARVIS-Tools package.
data_LiMn2Cr2O8
_symmetry_space_group_name_H-M  'C2/m'
_cell_length_a       5.68176
_cell_length_b       5.7489
_cell_length_c       5.74912
_cell_angle_alpha    60.9402
_cell_angle_beta     61.127
_cell_angle_gamma    61.128

_symmetry_Int_Tables_number  12
_chemical_formula_structural  LiMn2Cr2O8
_chemical_formula_sum  LiMn2Cr2O8
_cell_volume  135.9697822784322
_cell_formula_units_Z  1
loop_
  _symmetry_equiv_pos_site_id
 _symmetry_equiv_pos_as_xyz
 1  'x, y, z'
loop_
 _atom_site_type_symbol
 _atom_site_label
 _atom_site_symmetry_multiplicity
 _atom_site_fract_x
 _atom_site_fract_y
 _atom_site_fract_z
 _atom_site_fract_occupancy
 Cr  Cr1  1  0.00000  -0.00000  0.50000  1
 Cr  Cr2  1  -0.00000  0.50000  0.00000  1
 Li  Li1  1  0.50000  0.50000  0.50000  1
 Mn  Mn1  1  0.00000  0.00000  0.00000  1
 Mn  Mn2  1  0.50000  -0.00000  -0.00000  1
 O  O1  1  0.24027  0.78865  0.23582  1
 O  O2  1  0.76037  0.76737  0.76736  1
 O  O3  1  0.79000  0.23474  0.23476  1
 O  O4  1  0.75971  0.76418  0.21136  1
 O  O5  1  0.24029  0.23582  0.78864  1
 O  O6  1  0.21000  0.76526  0.76524  1
 O  O7  1  0.23963  0.23263  0.23264  1
 O  O8  1  0.75973  0.21135  0.76418  1
