CIF file written using JARVIS-Tools package.
data_NaTlO2
_symmetry_space_group_name_H-M  'I4_1/amd'
_cell_length_a       6.86173
_cell_length_b       8.99151
_cell_length_c       5.81071
_cell_angle_alpha    29.3624
_cell_angle_beta     53.812
_cell_angle_gamma    40.2587

_symmetry_Int_Tables_number  141
_chemical_formula_structural  NaTlO2
_chemical_formula_sum  Na2Tl2O4
_cell_volume  110.40191883086676
_cell_formula_units_Z  2
loop_
  _symmetry_equiv_pos_site_id
 _symmetry_equiv_pos_as_xyz
 1  'x, y, z'
loop_
 _atom_site_type_symbol
 _atom_site_label
 _atom_site_symmetry_multiplicity
 _atom_site_fract_x
 _atom_site_fract_y
 _atom_site_fract_z
 _atom_site_fract_occupancy
 Na  Na1  1  0.25000  0.50000  0.00000  1
 Na  Na2  1  0.50000  0.00000  0.00000  1
 O  O1  1  0.51769  0.50000  0.46461  1
 O  O2  1  0.23231  -0.00000  0.53539  1
 O  O3  1  0.98231  0.50000  0.53539  1
 O  O4  1  0.76769  0.00000  0.46461  1
 Tl  Tl1  1  0.00000  0.00000  0.00000  1
 Tl  Tl2  1  0.75000  0.50000  0.00000  1
