CIF file written using JARVIS-Tools package.
data_ZnH12C2N6Cl4
_symmetry_space_group_name_H-M  'P-1'
_cell_length_a       7.03799
_cell_length_b       12.3083
_cell_length_c       6.9685
_cell_angle_alpha    93.069
_cell_angle_beta     103.394
_cell_angle_gamma    84.8771

_symmetry_Int_Tables_number  2
_chemical_formula_structural  ZnH12C2N6Cl4
_chemical_formula_sum  Zn2H24C4N2Cl8
_cell_volume  584.5515495968674
_cell_formula_units_Z  2
loop_
  _symmetry_equiv_pos_site_id
 _symmetry_equiv_pos_as_xyz
 1  'x, y, z'
loop_
 _atom_site_type_symbol
 _atom_site_label
 _atom_site_symmetry_multiplicity
 _atom_site_fract_x
 _atom_site_fract_y
 _atom_site_fract_z
 _atom_site_fract_occupancy
 C  C1  1  0.24050  0.88264  0.58659  1
 C  C2  1  0.68817  0.48005  0.26697  1
 C  C3  1  0.31183  0.51995  0.73303  1
 C  C4  1  0.75950  0.11736  0.41341  1
 Cl  Cl1  1  0.21375  0.05195  0.19574  1
 Cl  Cl2  1  0.62400  0.78102  0.13894  1
 Cl  Cl3  1  0.37600  0.21898  0.86106  1
 Cl  Cl4  1  0.23199  0.34734  0.33235  1
 Cl  Cl5  1  0.13256  0.71958  0.10582  1
 Cl  Cl6  1  0.86744  0.28042  0.89418  1
 Cl  Cl7  1  0.78625  0.94805  0.80426  1
 Cl  Cl8  1  0.76801  0.65266  0.66765  1
 H  H1  1  0.39468  0.49661  0.25875  1
 H  H2  1  0.15456  0.66478  0.65398  1
 H  H3  1  0.40294  0.65983  0.64971  1
 H  H4  1  0.59706  0.34017  0.35029  1
 H  H5  1  0.60532  0.50339  0.74125  1
 H  H6  1  0.82499  0.60742  0.19999  1
 H  H7  1  0.50937  0.38891  0.81378  1
 H  H8  1  0.17501  0.39258  0.80001  1
 H  H9  1  0.16958  0.95789  0.83437  1
 H  H10  1  0.49063  0.61109  0.18622  1
 H  H11  1  0.83042  0.04211  0.16563  1
 H  H12  1  0.94537  0.88153  0.56426  1
 H  H13  1  0.05463  0.11847  0.43574  1
 H  H14  1  0.96470  0.18818  0.62880  1
 H  H15  1  0.58765  0.03829  0.18165  1
 H  H16  1  0.41235  0.96171  0.81835  1
 H  H17  1  0.52432  0.87573  0.55968  1
 H  H18  1  0.64006  0.18092  0.64011  1
 H  H19  1  0.35994  0.81908  0.35989  1
 H  H20  1  0.03530  0.81182  0.37120  1
 H  H21  1  0.84544  0.33522  0.34602  1
 H  H22  1  0.97423  0.48528  0.25229  1
 H  H23  1  0.02577  0.51472  0.74771  1
 H  H24  1  0.47568  0.12427  0.44032  1
 N  N1  1  0.83907  0.52650  0.22815  1
 N  N2  1  0.28502  0.62068  0.66187  1
 N  N3  1  0.51112  0.53394  0.23724  1
 N  N4  1  0.06041  0.85265  0.50505  1
 N  N5  1  0.71498  0.37932  0.33813  1
 N  N6  1  0.16093  0.47350  0.77185  1
 N  N7  1  0.38920  0.84906  0.50199  1
 N  N8  1  0.61080  0.15094  0.49801  1
 N  N9  1  0.93959  0.14735  0.49495  1
 N  N10  1  0.27371  0.94291  0.75449  1
 N  N11  1  0.72629  0.05709  0.24551  1
 N  N12  1  0.48888  0.46606  0.76276  1
 Zn  Zn1  1  0.17136  0.22449  0.07031  1
 Zn  Zn2  1  0.82864  0.77551  0.92969  1
