CIF file written using JARVIS-Tools package.
data_TePb2O5
_symmetry_space_group_name_H-M  'C2/c'
_cell_length_a       5.80295
_cell_length_b       7.1714
_cell_length_c       7.35233
_cell_angle_alpha    63.3386
_cell_angle_beta     66.7426
_cell_angle_gamma    66.1448

_symmetry_Int_Tables_number  15
_chemical_formula_structural  TePb2O5
_chemical_formula_sum  Te2Pb4O0
_cell_volume  241.4039365195735
_cell_formula_units_Z  2
loop_
  _symmetry_equiv_pos_site_id
 _symmetry_equiv_pos_as_xyz
 1  'x, y, z'
loop_
 _atom_site_type_symbol
 _atom_site_label
 _atom_site_symmetry_multiplicity
 _atom_site_fract_x
 _atom_site_fract_y
 _atom_site_fract_z
 _atom_site_fract_occupancy
 O  O1  1  0.29310  0.69627  0.31588  1
 O  O2  1  0.98880  0.42275  0.81462  1
 O  O3  1  0.80490  0.73606  0.05561  1
 O  O4  1  0.69456  0.19623  0.81596  1
 O  O5  1  0.77344  0.92217  0.31521  1
 O  O6  1  0.40337  0.23610  0.55552  1
 O  O7  1  0.32455  0.51016  0.05630  1
 O  O8  1  0.10914  0.00958  0.55689  1
 O  O9  1  0.18163  0.96648  0.93595  1
 O  O10  1  0.91633  0.46587  0.43556  1
 Pb  Pb1  1  0.38184  0.53601  0.68445  1
 Pb  Pb2  1  0.71606  0.89634  0.68707  1
 Pb  Pb3  1  0.39750  0.03597  0.18481  1
 Pb  Pb4  1  0.70049  0.39638  0.18671  1
 Te  Te1  1  0.04897  0.21617  0.68575  1
 Te  Te2  1  0.04899  0.71617  0.18575  1
