CIF file written using JARVIS-Tools package.
data_AlPt3
_symmetry_space_group_name_H-M  'P4/mbm'
_cell_length_a       3.92482
_cell_length_b       5.55141
_cell_length_c       5.55141
_cell_angle_alpha    90
_cell_angle_beta     90
_cell_angle_gamma    90

_symmetry_Int_Tables_number  127
_chemical_formula_structural  AlPt3
_chemical_formula_sum  Al2Pt6
_cell_volume  120.955762013981
_cell_formula_units_Z  2
loop_
  _symmetry_equiv_pos_site_id
 _symmetry_equiv_pos_as_xyz
 1  'x, y, z'
loop_
 _atom_site_type_symbol
 _atom_site_label
 _atom_site_symmetry_multiplicity
 _atom_site_fract_x
 _atom_site_fract_y
 _atom_site_fract_z
 _atom_site_fract_occupancy
 Al  Al1  1  0.50000  0.50000  0.00000  1
 Al  Al2  1  0.50000  0.00000  0.50000  1
 Pt  Pt1  1  0.00000  0.25110  0.75110  1
 Pt  Pt2  1  0.00000  0.74890  0.24890  1
 Pt  Pt3  1  0.00000  0.24890  0.25110  1
 Pt  Pt4  1  0.00000  0.75110  0.74890  1
 Pt  Pt5  1  0.50000  0.50000  0.50000  1
 Pt  Pt6  1  0.50000  0.00000  0.00000  1
