CIF file written using JARVIS-Tools package.
data_ReAg2Cl6
_symmetry_space_group_name_H-M  'R-3'
_cell_length_a       6.77701
_cell_length_b       6.77702
_cell_length_c       6.77701
_cell_angle_alpha    57.7763
_cell_angle_beta     57.7762
_cell_angle_gamma    57.7763

_symmetry_Int_Tables_number  148
_chemical_formula_structural  ReAg2Cl6
_chemical_formula_sum  ReAg2Cl6
_cell_volume  208.8499339008504
_cell_formula_units_Z  1
loop_
  _symmetry_equiv_pos_site_id
 _symmetry_equiv_pos_as_xyz
 1  'x, y, z'
loop_
 _atom_site_type_symbol
 _atom_site_label
 _atom_site_symmetry_multiplicity
 _atom_site_fract_x
 _atom_site_fract_y
 _atom_site_fract_z
 _atom_site_fract_occupancy
 Ag  Ag1  1  0.25442  0.25442  0.25442  1
 Ag  Ag2  1  0.74558  0.74558  0.74558  1
 Cl  Cl1  1  0.85065  0.26347  0.63030  1
 Cl  Cl2  1  0.26347  0.63030  0.85065  1
 Cl  Cl3  1  0.63030  0.85065  0.26347  1
 Cl  Cl4  1  0.36970  0.14935  0.73653  1
 Cl  Cl5  1  0.73653  0.36970  0.14935  1
 Cl  Cl6  1  0.14935  0.73653  0.36970  1
 Re  Re1  1  0.50000  0.50000  0.50000  1
