CIF file written using JARVIS-Tools package.
data_FeBW
_symmetry_space_group_name_H-M  'Pnma'
_cell_length_a       3.26232
_cell_length_b       5.72819
_cell_length_c       6.67722
_cell_angle_alpha    90
_cell_angle_beta     90
_cell_angle_gamma    90

_symmetry_Int_Tables_number  62
_chemical_formula_structural  FeBW
_chemical_formula_sum  Fe4B4W4
_cell_volume  124.77861151105338
_cell_formula_units_Z  4
loop_
  _symmetry_equiv_pos_site_id
 _symmetry_equiv_pos_as_xyz
 1  'x, y, z'
loop_
 _atom_site_type_symbol
 _atom_site_label
 _atom_site_symmetry_multiplicity
 _atom_site_fract_x
 _atom_site_fract_y
 _atom_site_fract_z
 _atom_site_fract_occupancy
 B  B1  1  0.25000  0.27097  0.87144  1
 B  B2  1  0.75000  0.22903  0.37144  1
 B  B3  1  0.75000  0.72903  0.12856  1
 B  B4  1  0.25000  0.77097  0.62856  1
 Fe  Fe1  1  0.25000  0.14376  0.55848  1
 Fe  Fe2  1  0.75000  0.35624  0.05848  1
 Fe  Fe3  1  0.75000  0.85624  0.44152  1
 Fe  Fe4  1  0.25000  0.64376  0.94152  1
 W  W1  1  0.25000  0.02704  0.17766  1
 W  W2  1  0.75000  0.47296  0.67766  1
 W  W3  1  0.75000  0.97296  0.82234  1
 W  W4  1  0.25000  0.52704  0.32234  1
