CIF file written using JARVIS-Tools package.
data_PtS6N2
_symmetry_space_group_name_H-M  'C2/m'
_cell_length_a       8.46726
_cell_length_b       5.58376
_cell_length_c       3.80285
_cell_angle_alpha    90.0001
_cell_angle_beta     80.1751
_cell_angle_gamma    109.252

_symmetry_Int_Tables_number  12
_chemical_formula_structural  PtS6N2
_chemical_formula_sum  PtS6N2
_cell_volume  166.94544129404082
_cell_formula_units_Z  1
loop_
  _symmetry_equiv_pos_site_id
 _symmetry_equiv_pos_as_xyz
 1  'x, y, z'
loop_
 _atom_site_type_symbol
 _atom_site_label
 _atom_site_symmetry_multiplicity
 _atom_site_fract_x
 _atom_site_fract_y
 _atom_site_fract_z
 _atom_site_fract_occupancy
 N  N1  1  0.16466  0.58233  0.71637  1
 N  N2  1  0.83534  0.41767  0.28363  1
 Pt  Pt1  1  0.00000  0.00000  0.00000  1
 S  S1  1  0.61082  0.80541  0.42151  1
 S  S2  1  0.22725  0.84716  -0.06867  1
 S  S3  1  0.22725  0.38009  -0.06867  1
 S  S4  1  0.38918  0.19459  0.57849  1
 S  S5  1  0.77275  0.15284  0.06867  1
 S  S6  1  0.77275  0.61991  0.06867  1
