CIF file written using JARVIS-Tools package.
data_UAlRh
_symmetry_space_group_name_H-M  'P-62m'
_cell_length_a       6.84191
_cell_length_b       6.84191
_cell_length_c       4.16386
_cell_angle_alpha    90
_cell_angle_beta     90
_cell_angle_gamma    119.997

_symmetry_Int_Tables_number  189
_chemical_formula_structural  UAlRh
_chemical_formula_sum  U3Al3Rh3
_cell_volume  168.80942033201083
_cell_formula_units_Z  3
loop_
  _symmetry_equiv_pos_site_id
 _symmetry_equiv_pos_as_xyz
 1  'x, y, z'
loop_
 _atom_site_type_symbol
 _atom_site_label
 _atom_site_symmetry_multiplicity
 _atom_site_fract_x
 _atom_site_fract_y
 _atom_site_fract_z
 _atom_site_fract_occupancy
 Al  Al1  1  0.23484  0.00001  0.00000  1
 Al  Al2  1  0.00001  0.23484  0.00000  1
 Al  Al3  1  0.76516  0.76516  0.00000  1
 Rh  Rh1  1  0.00001  0.00001  0.50000  1
 Rh  Rh2  1  0.33333  0.66667  0.00000  1
 Rh  Rh3  1  0.66667  0.33333  0.00000  1
 U  U1  1  0.57525  -0.00002  0.50000  1
 U  U2  1  -0.00002  0.57525  0.50000  1
 U  U3  1  0.42475  0.42475  0.50000  1
