CIF file written using JARVIS-Tools package.
data_Ba5Co5O14
_symmetry_space_group_name_H-M  'P-3m1'
_cell_length_a       5.68214
_cell_length_b       5.68213
_cell_length_c       11.9598
_cell_angle_alpha    90
_cell_angle_beta     90
_cell_angle_gamma    120

_symmetry_Int_Tables_number  164
_chemical_formula_structural  Ba5Co5O14
_chemical_formula_sum  Ba5Co5O4
_cell_volume  334.40953492603694
_cell_formula_units_Z  1
loop_
  _symmetry_equiv_pos_site_id
 _symmetry_equiv_pos_as_xyz
 1  'x, y, z'
loop_
 _atom_site_type_symbol
 _atom_site_label
 _atom_site_symmetry_multiplicity
 _atom_site_fract_x
 _atom_site_fract_y
 _atom_site_fract_z
 _atom_site_fract_occupancy
 Ba  Ba1  1  0.00000  0.00000  0.00000  1
 Ba  Ba2  1  0.66667  0.33333  0.22660  1
 Ba  Ba3  1  0.33333  0.66667  0.41767  1
 Ba  Ba4  1  0.66667  0.33333  0.58233  1
 Ba  Ba5  1  0.33333  0.66667  0.77340  1
 Co  Co1  1  0.00000  0.00000  0.50000  1
 Co  Co2  1  0.00000  0.00000  0.29194  1
 Co  Co3  1  0.00000  0.00000  0.70806  1
 Co  Co4  1  0.33333  0.66667  0.13964  1
 Co  Co5  1  0.66667  0.33333  0.86036  1
 O  O1  1  0.85264  0.70528  0.39781  1
 O  O2  1  0.29472  0.14736  0.39781  1
 O  O3  1  0.70528  0.85264  0.60219  1
 O  O4  1  0.14736  0.29472  0.60219  1
 O  O5  1  0.14736  0.85264  0.60219  1
 O  O6  1  0.83964  0.16036  0.80097  1
 O  O7  1  0.16036  0.83964  0.19903  1
 O  O8  1  0.32072  0.16036  0.80097  1
 O  O9  1  0.67928  0.83964  0.19903  1
 O  O10  1  0.85264  0.14736  0.39781  1
 O  O11  1  0.33333  0.66667  0.99332  1
 O  O12  1  0.16036  0.32072  0.19903  1
 O  O13  1  0.83964  0.67928  0.80097  1
 O  O14  1  0.66667  0.33333  0.00668  1
