CIF file written using JARVIS-Tools package.
data_Na5H29I2O24
_symmetry_space_group_name_H-M  'P-1'
_cell_length_a       9.01947
_cell_length_b       9.04853
_cell_length_c       8.52919
_cell_angle_alpha    75.7349
_cell_angle_beta     58.9026
_cell_angle_gamma    84.0736

_symmetry_Int_Tables_number  2
_chemical_formula_structural  Na5H29I2O24
_chemical_formula_sum  Na5H29I2O24
_cell_volume  577.4355451889174
_cell_formula_units_Z  1
loop_
  _symmetry_equiv_pos_site_id
 _symmetry_equiv_pos_as_xyz
 1  'x, y, z'
loop_
 _atom_site_type_symbol
 _atom_site_label
 _atom_site_symmetry_multiplicity
 _atom_site_fract_x
 _atom_site_fract_y
 _atom_site_fract_z
 _atom_site_fract_occupancy
 H  H1  1  0.60653  0.95654  0.22134  1
 H  H2  1  0.39347  0.04346  0.77866  1
 H  H3  1  0.49956  0.43869  0.75624  1
 H  H4  1  0.32221  0.20491  0.74233  1
 H  H5  1  0.60086  0.18038  0.82324  1
 H  H6  1  0.39914  0.81962  0.17676  1
 H  H7  1  0.50000  0.00000  0.00000  1
 H  H8  1  0.50044  0.56131  0.24376  1
 H  H9  1  0.84453  0.07370  0.35954  1
 H  H10  1  0.49583  0.84398  0.85764  1
 H  H11  1  0.06963  0.39521  0.19002  1
 H  H12  1  0.15547  0.92630  0.64046  1
 H  H13  1  0.26362  0.42763  0.02892  1
 H  H14  1  0.17199  0.74706  0.91924  1
 H  H15  1  0.49189  0.83826  0.67533  1
 H  H16  1  0.82801  0.25294  0.08076  1
 H  H17  1  0.00085  0.34565  0.92062  1
 H  H18  1  0.94782  -0.08149  0.37275  1
 H  H19  1  0.93037  0.60479  0.80998  1
 H  H20  1  0.73638  0.57237  0.97108  1
 H  H21  1  0.94379  0.27661  0.73793  1
 H  H22  1  0.05621  0.72339  0.26207  1
 H  H23  1  0.89256  0.30359  0.58165  1
 H  H24  1  0.10744  0.69641  0.41835  1
 H  H25  1  0.05218  0.08149  0.62725  1
 H  H26  1  0.67779  0.79509  0.25767  1
 H  H27  1  0.50417  0.15602  0.14236  1
 H  H28  1  -0.00085  0.65435  0.07938  1
 H  H29  1  0.50811  0.16174  0.32467  1
 I  I1  1  0.33452  0.59437  0.61591  1
 I  I2  1  0.66548  0.40563  0.38409  1
 Na  Na1  1  0.23975  0.10662  0.14692  1
 Na  Na2  1  0.73161  0.63179  0.62696  1
 Na  Na3  1  0.26839  0.36821  0.37304  1
 Na  Na4  1  0.00000  0.00000  0.00000  1
 Na  Na5  1  0.76025  0.89338  0.85308  1
 O  O1  1  0.92819  0.25553  0.95364  1
 O  O2  1  0.30811  0.64086  0.40704  1
 O  O3  1  0.69189  0.35914  0.59296  1
 O  O4  1  0.32382  0.78732  0.65263  1
 O  O5  1  0.41486  0.52016  0.80537  1
 O  O6  1  0.58514  0.47984  0.19463  1
 O  O7  1  0.88412  0.47679  0.20507  1
 O  O8  1  0.11588  0.52321  0.79493  1
 O  O9  1  0.40273  0.37999  0.56429  1
 O  O10  1  0.59727  0.62001  0.43571  1
 O  O11  1  0.67618  0.21268  0.34737  1
 O  O12  1  0.04238  0.97471  0.69785  1
 O  O13  1  0.59257  0.11376  0.93704  1
 O  O14  1  0.18950  0.36398  0.15696  1
 O  O15  1  0.29240  0.10660  0.83540  1
 O  O16  1  0.81050  0.63602  0.84304  1
 O  O17  1  0.00818  0.71986  0.39766  1
 O  O18  1  -0.00818  0.28014  0.60234  1
 O  O19  1  0.95762  0.02529  0.30215  1
 O  O20  1  0.57089  0.86047  0.71587  1
 O  O21  1  0.42911  0.13953  0.28413  1
 O  O22  1  0.70760  0.89340  0.16460  1
 O  O23  1  0.40743  0.88624  0.06296  1
 O  O24  1  0.07181  0.74447  0.04636  1
