CIF file written using JARVIS-Tools package.
data_MgCO3
_symmetry_space_group_name_H-M  'C222_1'
_cell_length_a       3.61133
_cell_length_b       5.13983
_cell_length_c       5.1398
_cell_angle_alpha    110.929
_cell_angle_beta     90
_cell_angle_gamma    90

_symmetry_Int_Tables_number  20
_chemical_formula_structural  MgCO3
_chemical_formula_sum  Mg2C2O6
_cell_volume  89.10872663565708
_cell_formula_units_Z  2
loop_
  _symmetry_equiv_pos_site_id
 _symmetry_equiv_pos_as_xyz
 1  'x, y, z'
loop_
 _atom_site_type_symbol
 _atom_site_label
 _atom_site_symmetry_multiplicity
 _atom_site_fract_x
 _atom_site_fract_y
 _atom_site_fract_z
 _atom_site_fract_occupancy
 C  C1  1  -0.00000  0.34686  0.34686  1
 C  C2  1  0.50000  0.65314  0.65314  1
 Mg  Mg1  1  0.75001  0.78742  0.21258  1
 Mg  Mg2  1  0.25001  0.21258  0.78742  1
 O  O1  1  0.85036  0.34530  0.10528  1
 O  O2  1  0.25000  0.58329  0.41671  1
 O  O3  1  0.35036  0.65469  0.89472  1
 O  O4  1  0.64963  0.89472  0.65469  1
 O  O5  1  0.75000  0.41671  0.58329  1
 O  O6  1  0.14964  0.10528  0.34531  1
