CIF file written using JARVIS-Tools package.
data_BaB2F8
_symmetry_space_group_name_H-M  'C2/m'
_cell_length_a       4.7474
_cell_length_b       5.05044
_cell_length_c       6.79157
_cell_angle_alpha    111.834
_cell_angle_beta     110.06
_cell_angle_gamma    89.9971

_symmetry_Int_Tables_number  12
_chemical_formula_structural  BaB2F8
_chemical_formula_sum  BaB2F8
_cell_volume  140.46089493838303
_cell_formula_units_Z  1
loop_
  _symmetry_equiv_pos_site_id
 _symmetry_equiv_pos_as_xyz
 1  'x, y, z'
loop_
 _atom_site_type_symbol
 _atom_site_label
 _atom_site_symmetry_multiplicity
 _atom_site_fract_x
 _atom_site_fract_y
 _atom_site_fract_z
 _atom_site_fract_occupancy
 B  B1  1  0.28584  0.34738  0.69473  1
 B  B2  1  0.71416  0.65262  0.30527  1
 Ba  Ba1  1  0.00000  0.00000  0.00000  1
 F  F1  1  0.46477  0.61475  0.76936  1
 F  F2  1  0.85710  0.77153  0.54310  1
 F  F3  1  0.46481  0.15464  0.76932  1
 F  F4  1  0.06295  0.39924  0.79845  1
 F  F5  1  0.53519  0.84536  0.23068  1
 F  F6  1  0.53523  0.38525  0.23064  1
 F  F7  1  0.14290  0.22847  0.45690  1
 F  F8  1  0.93705  0.60076  0.20155  1
