CIF file written using JARVIS-Tools package.
data_U2InRh2
_symmetry_space_group_name_H-M  'P4/mbm'
_cell_length_a       3.55788
_cell_length_b       7.65677
_cell_length_c       7.65649
_cell_angle_alpha    89.999
_cell_angle_beta     90.0007
_cell_angle_gamma    89.9988

_symmetry_Int_Tables_number  127
_chemical_formula_structural  U2InRh2
_chemical_formula_sum  U4In2Rh4
_cell_volume  208.57753206092562
_cell_formula_units_Z  2
loop_
  _symmetry_equiv_pos_site_id
 _symmetry_equiv_pos_as_xyz
 1  'x, y, z'
loop_
 _atom_site_type_symbol
 _atom_site_label
 _atom_site_symmetry_multiplicity
 _atom_site_fract_x
 _atom_site_fract_y
 _atom_site_fract_z
 _atom_site_fract_occupancy
 In  In1  1  -0.00001  0.00000  0.00000  1
 In  In2  1  0.00000  0.50000  0.50000  1
 Rh  Rh1  1  -0.00001  0.63833  0.13833  1
 Rh  Rh2  1  0.00001  0.36167  0.86167  1
 Rh  Rh3  1  0.00000  0.86167  0.63833  1
 Rh  Rh4  1  -0.00000  0.13833  0.36167  1
 U  U1  1  0.49999  0.83515  0.33516  1
 U  U2  1  0.49999  0.66486  0.83515  1
 U  U3  1  0.50001  0.33515  0.16485  1
 U  U4  1  0.50000  0.16485  0.66485  1
