CIF file written using JARVIS-Tools package.
data_YbNi4As2
_symmetry_space_group_name_H-M  'P4_2/mnm'
_cell_length_a       7.296
_cell_length_b       7.296
_cell_length_c       3.72585
_cell_angle_alpha    90
_cell_angle_beta     90
_cell_angle_gamma    90

_symmetry_Int_Tables_number  136
_chemical_formula_structural  YbNi4As2
_chemical_formula_sum  Yb2Ni8As4
_cell_volume  198.33312977497187
_cell_formula_units_Z  2
loop_
  _symmetry_equiv_pos_site_id
 _symmetry_equiv_pos_as_xyz
 1  'x, y, z'
loop_
 _atom_site_type_symbol
 _atom_site_label
 _atom_site_symmetry_multiplicity
 _atom_site_fract_x
 _atom_site_fract_y
 _atom_site_fract_z
 _atom_site_fract_occupancy
 As  As1  1  0.78044  0.21956  0.00000  1
 As  As2  1  0.21956  0.78044  0.00000  1
 As  As3  1  0.71956  0.71956  0.50000  1
 As  As4  1  0.28044  0.28044  0.50000  1
 Ni  Ni1  1  0.34242  0.08479  0.00000  1
 Ni  Ni2  1  0.65758  0.91521  0.00000  1
 Ni  Ni3  1  0.58479  0.15758  0.50000  1
 Ni  Ni4  1  0.41521  0.84242  0.50000  1
 Ni  Ni5  1  0.84242  0.41521  0.50000  1
 Ni  Ni6  1  0.15758  0.58479  0.50000  1
 Ni  Ni7  1  0.08479  0.34242  0.00000  1
 Ni  Ni8  1  0.91521  0.65758  0.00000  1
 Yb  Yb1  1  0.00000  0.00000  0.50000  1
 Yb  Yb2  1  0.50000  0.50000  0.00000  1
