CIF file written using JARVIS-Tools package.
data_TiBeW
_symmetry_space_group_name_H-M  'I4mm'
_cell_length_a       6.15528
_cell_length_b       6.15528
_cell_length_c       6.15528
_cell_angle_alpha    155.041
_cell_angle_beta     155.041
_cell_angle_gamma    35.5881

_symmetry_Int_Tables_number  107
_chemical_formula_structural  TiBeW
_chemical_formula_sum  TiBeW
_cell_volume  41.47466996679758
_cell_formula_units_Z  1
loop_
  _symmetry_equiv_pos_site_id
 _symmetry_equiv_pos_as_xyz
 1  'x, y, z'
loop_
 _atom_site_type_symbol
 _atom_site_label
 _atom_site_symmetry_multiplicity
 _atom_site_fract_x
 _atom_site_fract_y
 _atom_site_fract_z
 _atom_site_fract_occupancy
 Be  Be1  1  0.00183  0.00183  0.00000  1
 Ti  Ti1  1  0.34950  0.34950  -0.00000  1
 W  W1  1  0.64868  0.64868  0.00000  1
