CIF file written using JARVIS-Tools package.
data_HgH2NCl
_symmetry_space_group_name_H-M  'Pmma'
_cell_length_a       6.84197
_cell_length_b       4.40431
_cell_length_c       5.09561
_cell_angle_alpha    90
_cell_angle_beta     90
_cell_angle_gamma    90

_symmetry_Int_Tables_number  51
_chemical_formula_structural  HgH2NCl
_chemical_formula_sum  Hg2H4N2Cl2
_cell_volume  153.55215367403343
_cell_formula_units_Z  2
loop_
  _symmetry_equiv_pos_site_id
 _symmetry_equiv_pos_as_xyz
 1  'x, y, z'
loop_
 _atom_site_type_symbol
 _atom_site_label
 _atom_site_symmetry_multiplicity
 _atom_site_fract_x
 _atom_site_fract_y
 _atom_site_fract_z
 _atom_site_fract_occupancy
 Cl  Cl1  1  0.25000  0.50000  0.71574  1
 Cl  Cl2  1  0.75000  0.50000  0.28426  1
 H  H1  1  0.25000  0.81151  0.36228  1
 H  H2  1  0.75000  0.81151  0.63772  1
 H  H3  1  0.75000  0.18849  0.63772  1
 H  H4  1  0.25000  0.18849  0.36228  1
 Hg  Hg1  1  0.50000  0.00000  0.00000  1
 Hg  Hg2  1  0.00000  0.00000  0.00000  1
 N  N1  1  0.25000  0.00000  0.24018  1
 N  N2  1  0.75000  0.00000  0.75982  1
