CIF file written using JARVIS-Tools package.
data_Ba2TiNi
_symmetry_space_group_name_H-M  'Fm-3m'
_cell_length_a       7.93974
_cell_length_b       7.93974
_cell_length_c       7.93974
_cell_angle_alpha    90
_cell_angle_beta     90
_cell_angle_gamma    90

_symmetry_Int_Tables_number  225
_chemical_formula_structural  Ba2TiNi
_chemical_formula_sum  Ba8Ti4Ni4
_cell_volume  500.5163250533984
_cell_formula_units_Z  4
loop_
  _symmetry_equiv_pos_site_id
 _symmetry_equiv_pos_as_xyz
 1  'x, y, z'
loop_
 _atom_site_type_symbol
 _atom_site_label
 _atom_site_symmetry_multiplicity
 _atom_site_fract_x
 _atom_site_fract_y
 _atom_site_fract_z
 _atom_site_fract_occupancy
 Ba  Ba1  1  0.75000  0.25000  0.25000  1
 Ba  Ba2  1  0.75000  0.25000  0.75000  1
 Ba  Ba3  1  0.75000  0.75000  0.75000  1
 Ba  Ba4  1  0.75000  0.75000  0.25000  1
 Ba  Ba5  1  0.25000  0.25000  0.75000  1
 Ba  Ba6  1  0.25000  0.25000  0.25000  1
 Ba  Ba7  1  0.25000  0.75000  0.25000  1
 Ba  Ba8  1  0.25000  0.75000  0.75000  1
 Ni  Ni1  1  0.00000  0.00000  0.00000  1
 Ni  Ni2  1  0.00000  0.50000  0.50000  1
 Ni  Ni3  1  0.50000  0.00000  0.50000  1
 Ni  Ni4  1  0.50000  0.50000  0.00000  1
 Ti  Ti1  1  0.50000  0.00000  0.00000  1
 Ti  Ti2  1  0.50000  0.50000  0.50000  1
 Ti  Ti3  1  0.00000  0.00000  0.50000  1
 Ti  Ti4  1  0.00000  0.50000  0.00000  1
