CIF file written using JARVIS-Tools package.
data_NaAlBP2H3O10
_symmetry_space_group_name_H-M  'C2/c'
_cell_length_a       6.57272
_cell_length_b       6.57272
_cell_length_c       9.06604
_cell_angle_alpha    68.8543
_cell_angle_beta     68.8543
_cell_angle_gamma    75.0056

_symmetry_Int_Tables_number  15
_chemical_formula_structural  NaAlBP2H3O10
_chemical_formula_sum  Na2Al2B2P4H6O20
_cell_volume  336.947388348632
_cell_formula_units_Z  2
loop_
  _symmetry_equiv_pos_site_id
 _symmetry_equiv_pos_as_xyz
 1  'x, y, z'
loop_
 _atom_site_type_symbol
 _atom_site_label
 _atom_site_symmetry_multiplicity
 _atom_site_fract_x
 _atom_site_fract_y
 _atom_site_fract_z
 _atom_site_fract_occupancy
 Al  Al1  1  -0.00000  0.50000  -0.00000  1
 Al  Al2  1  0.50000  -0.00000  0.50000  1
 B  B1  1  0.53092  0.46908  0.25000  1
 B  B2  1  0.46908  0.53092  0.75000  1
 H  H1  1  0.31401  0.67628  0.56554  1
 H  H2  1  0.50000  -0.00000  -0.00000  1
 H  H3  1  0.32372  0.68599  0.93446  1
 H  H4  1  0.68599  0.32372  0.43446  1
 H  H5  1  0.67628  0.31401  0.06554  1
 H  H6  1  -0.00000  0.50000  0.50000  1
 Na  Na1  1  0.13513  0.86487  0.25000  1
 Na  Na2  1  0.86487  0.13513  0.75000  1
 O  O1  1  0.07880  0.27449  0.18484  1
 O  O2  1  0.29934  0.56730  0.90236  1
 O  O3  1  0.56730  0.29934  0.40236  1
 O  O4  1  0.70066  0.43270  0.09764  1
 O  O5  1  0.68919  0.52820  0.75657  1
 O  O6  1  0.31081  0.47180  0.24343  1
 O  O7  1  0.52820  0.68919  0.25657  1
 O  O8  1  0.92120  0.72551  0.81516  1
 O  O9  1  0.27449  0.07880  0.68484  1
 O  O10  1  0.43270  0.70066  0.59764  1
 O  O11  1  0.71529  0.93329  0.60888  1
 O  O12  1  0.95753  0.36470  0.45651  1
 O  O13  1  0.28471  0.06671  0.39112  1
 O  O14  1  0.93329  0.71529  0.10888  1
 O  O15  1  0.04247  0.63530  0.54349  1
 O  O16  1  0.36470  0.95753  0.95651  1
 O  O17  1  0.72551  0.92120  0.31516  1
 O  O18  1  0.63530  0.04247  0.04349  1
 O  O19  1  0.06671  0.28471  0.89112  1
 O  O20  1  0.47180  0.31081  0.74343  1
 P  P1  1  0.71013  0.84347  0.18067  1
 P  P2  1  0.15653  0.28987  0.31933  1
 P  P3  1  0.84347  0.71013  0.68067  1
 P  P4  1  0.28987  0.15653  0.81933  1
