CIF file written using JARVIS-Tools package.
data_VH4NO3
_symmetry_space_group_name_H-M  'Pbcm'
_cell_length_a       4.80988
_cell_length_b       11.8274
_cell_length_c       5.82639
_cell_angle_alpha    90
_cell_angle_beta     90
_cell_angle_gamma    90

_symmetry_Int_Tables_number  57
_chemical_formula_structural  VH4NO3
_chemical_formula_sum  V4H6N4O2
_cell_volume  331.4546304163329
_cell_formula_units_Z  4
loop_
  _symmetry_equiv_pos_site_id
 _symmetry_equiv_pos_as_xyz
 1  'x, y, z'
loop_
 _atom_site_type_symbol
 _atom_site_label
 _atom_site_symmetry_multiplicity
 _atom_site_fract_x
 _atom_site_fract_y
 _atom_site_fract_z
 _atom_site_fract_occupancy
 H  H1  1  0.88764  0.53185  0.75000  1
 H  H2  1  0.75228  0.04049  0.75000  1
 H  H3  1  0.24772  0.95951  0.25000  1
 H  H4  1  0.75228  0.45951  0.25000  1
 H  H5  1  0.24772  0.54049  0.75000  1
 H  H6  1  0.11236  0.03185  0.75000  1
 H  H7  1  0.11236  0.46815  0.25000  1
 H  H8  1  0.94520  0.13736  0.60695  1
 H  H9  1  0.94520  0.13736  0.89305  1
 H  H10  1  0.88764  0.96815  0.25000  1
 H  H11  1  0.94520  0.36264  0.10695  1
 H  H12  1  0.05480  0.63736  0.60695  1
 H  H13  1  0.05480  0.86264  0.10695  1
 H  H14  1  0.05480  0.63736  0.89305  1
 H  H15  1  0.94520  0.36264  0.39305  1
 H  H16  1  0.05480  0.86264  0.39305  1
 N  N1  1  0.06037  0.91396  0.25000  1
 N  N2  1  0.93963  0.08604  0.75000  1
 N  N3  1  0.06037  0.58604  0.75000  1
 N  N4  1  0.93963  0.41396  0.25000  1
 O  O1  1  0.56685  0.46149  0.75000  1
 O  O2  1  0.43315  0.96149  0.75000  1
 O  O3  1  0.43315  0.53851  0.25000  1
 O  O4  1  0.56685  0.03851  0.25000  1
 O  O5  1  0.88793  0.82945  0.75000  1
 O  O6  1  0.57574  0.25000  0.50000  1
 O  O7  1  0.11207  0.17055  0.25000  1
 O  O8  1  0.57574  0.25000  0.00000  1
 O  O9  1  0.11207  0.32945  0.75000  1
 O  O10  1  0.42426  0.75000  0.50000  1
 O  O11  1  0.42426  0.75000  0.00000  1
 O  O12  1  0.88793  0.67055  0.25000  1
 V  V1  1  0.54333  0.82663  0.75000  1
 V  V2  1  0.45667  0.17337  0.25000  1
 V  V3  1  0.54333  0.67337  0.25000  1
 V  V4  1  0.45667  0.32663  0.75000  1
