CIF file written using JARVIS-Tools package.
data_CaCu2O3
_symmetry_space_group_name_H-M  'Pmmn'
_cell_length_a       3.5846
_cell_length_b       4.15687
_cell_length_c       10.0231
_cell_angle_alpha    90
_cell_angle_beta     90
_cell_angle_gamma    90

_symmetry_Int_Tables_number  59
_chemical_formula_structural  CaCu2O3
_chemical_formula_sum  Ca2Cu4O6
_cell_volume  149.35075268870412
_cell_formula_units_Z  2
loop_
  _symmetry_equiv_pos_site_id
 _symmetry_equiv_pos_as_xyz
 1  'x, y, z'
loop_
 _atom_site_type_symbol
 _atom_site_label
 _atom_site_symmetry_multiplicity
 _atom_site_fract_x
 _atom_site_fract_y
 _atom_site_fract_z
 _atom_site_fract_occupancy
 Ca  Ca1  1  0.38025  0.25000  0.25000  1
 Ca  Ca2  1  0.61975  0.75000  0.75000  1
 Cu  Cu1  1  0.13154  0.25000  0.91448  1
 Cu  Cu2  1  0.13154  0.25000  0.58552  1
 Cu  Cu3  1  0.86846  0.75000  0.08552  1
 Cu  Cu4  1  0.86846  0.75000  0.41448  1
 O  O1  1  0.62011  0.75000  0.25000  1
 O  O2  1  0.37989  0.25000  0.75000  1
 O  O3  1  0.90013  0.25000  0.41542  1
 O  O4  1  0.09987  0.75000  0.91542  1
 O  O5  1  0.09987  0.75000  0.58458  1
 O  O6  1  0.90013  0.25000  0.08458  1
