CIF file written using JARVIS-Tools package.
data_BaBe2B2O6
_symmetry_space_group_name_H-M  'Fddd'
_cell_length_a       6.31633
_cell_length_b       6.68848
_cell_length_c       7.27283
_cell_angle_alpha    78.1682
_cell_angle_beta     64.2629
_cell_angle_gamma    61.8241

_symmetry_Int_Tables_number  70
_chemical_formula_structural  BaBe2B2O6
_chemical_formula_sum  Ba2Be4B4O2
_cell_volume  243.97524816424027
_cell_formula_units_Z  2
loop_
  _symmetry_equiv_pos_site_id
 _symmetry_equiv_pos_as_xyz
 1  'x, y, z'
loop_
 _atom_site_type_symbol
 _atom_site_label
 _atom_site_symmetry_multiplicity
 _atom_site_fract_x
 _atom_site_fract_y
 _atom_site_fract_z
 _atom_site_fract_occupancy
 B  B1  1  0.34017  0.31966  0.75000  1
 B  B2  1  0.09017  0.81966  0.25000  1
 B  B3  1  0.90983  0.18034  0.75000  1
 B  B4  1  0.65983  0.68034  0.25000  1
 Ba  Ba1  1  0.37500  0.25000  0.25000  1
 Ba  Ba2  1  0.62500  0.75000  0.75000  1
 Be  Be1  1  0.21719  0.75000  0.56561  1
 Be  Be2  1  0.78280  0.25000  0.43439  1
 Be  Be3  1  0.96720  0.25000  0.06561  1
 Be  Be4  1  0.03280  0.75000  0.93439  1
 O  O1  1  0.97290  0.05420  0.25000  1
 O  O2  1  0.47004  0.79645  0.42743  1
 O  O3  1  0.89747  0.29645  0.57257  1
 O  O4  1  0.19392  0.70355  0.07257  1
 O  O5  1  0.02710  0.94580  0.75000  1
 O  O6  1  0.26649  0.20355  0.92743  1
 O  O7  1  0.22290  0.55420  0.75000  1
 O  O8  1  0.77710  0.44580  0.25000  1
 O  O9  1  0.80608  0.29645  0.92743  1
 O  O10  1  0.52996  0.20355  0.57257  1
 O  O11  1  0.73351  0.79645  0.07257  1
 O  O12  1  0.10253  0.70355  0.42743  1
