CIF file written using JARVIS-Tools package.
data_BaCa2Y
_symmetry_space_group_name_H-M  'P4mm'
_cell_length_a       4.12229
_cell_length_b       4.12229
_cell_length_c       9.80491
_cell_angle_alpha    90
_cell_angle_beta     90
_cell_angle_gamma    90

_symmetry_Int_Tables_number  99
_chemical_formula_structural  BaCa2Y
_chemical_formula_sum  BaCa2Y
_cell_volume  166.61756592069892
_cell_formula_units_Z  1
loop_
  _symmetry_equiv_pos_site_id
 _symmetry_equiv_pos_as_xyz
 1  'x, y, z'
loop_
 _atom_site_type_symbol
 _atom_site_label
 _atom_site_symmetry_multiplicity
 _atom_site_fract_x
 _atom_site_fract_y
 _atom_site_fract_z
 _atom_site_fract_occupancy
 Ba  Ba1  1  0.50000  0.50000  0.73413  1
 Ca  Ca1  1  0.00000  0.00000  0.03212  1
 Ca  Ca2  1  0.50000  0.50000  0.26476  1
 Y  Y1  1  0.00000  0.00000  0.46898  1
