CIF file written using JARVIS-Tools package.
data_SbICl2F6
_symmetry_space_group_name_H-M  'Cmce'
_cell_length_a       7.80998
_cell_length_b       7.80998
_cell_length_c       13.0334
_cell_angle_alpha    90
_cell_angle_beta     90
_cell_angle_gamma    96.7398

_symmetry_Int_Tables_number  64
_chemical_formula_structural  SbICl2F6
_chemical_formula_sum  Sb4I4Cl8F24
_cell_volume  789.4861004203661
_cell_formula_units_Z  4
loop_
  _symmetry_equiv_pos_site_id
 _symmetry_equiv_pos_as_xyz
 1  'x, y, z'
loop_
 _atom_site_type_symbol
 _atom_site_label
 _atom_site_symmetry_multiplicity
 _atom_site_fract_x
 _atom_site_fract_y
 _atom_site_fract_z
 _atom_site_fract_occupancy
 Cl  Cl1  1  0.70632  0.61975  0.13495  1
 Cl  Cl2  1  0.20632  0.11975  0.36505  1
 Cl  Cl3  1  0.11975  0.20632  0.63495  1
 Cl  Cl4  1  0.79368  0.88025  0.63495  1
 Cl  Cl5  1  0.29368  0.38025  0.86505  1
 Cl  Cl6  1  0.38025  0.29368  0.13495  1
 Cl  Cl7  1  0.61975  0.70632  0.86505  1
 Cl  Cl8  1  0.88025  0.79368  0.36505  1
 F  F1  1  0.97318  0.29431  0.03416  1
 F  F2  1  0.61762  0.12324  0.33970  1
 F  F3  1  0.70569  0.02682  0.03416  1
 F  F4  1  0.37676  0.88238  0.16030  1
 F  F5  1  0.55151  0.44849  0.37831  1
 F  F6  1  0.14590  0.85410  0.50977  1
 F  F7  1  0.44849  0.55151  0.62169  1
 F  F8  1  0.85410  0.14590  0.49023  1
 F  F9  1  0.02682  0.70569  0.96584  1
 F  F10  1  0.20569  0.52682  0.46584  1
 F  F11  1  0.94849  0.05151  0.87831  1
 F  F12  1  0.05151  0.94849  0.12169  1
 F  F13  1  0.11762  0.62324  0.16030  1
 F  F14  1  0.64590  0.35410  -0.00977  1
 F  F15  1  0.38238  0.87676  0.66030  1
 F  F16  1  0.35410  0.64590  0.00977  1
 F  F17  1  0.79431  0.47318  0.53416  1
 F  F18  1  0.88238  0.37676  0.83970  1
 F  F19  1  0.87676  0.38238  0.33970  1
 F  F20  1  0.12324  0.61762  0.66030  1
 F  F21  1  0.29431  0.97318  0.96584  1
 F  F22  1  0.47318  0.79431  0.46584  1
 F  F23  1  0.52682  0.20569  0.53416  1
 F  F24  1  0.62324  0.11762  0.83970  1
 I  I1  1  0.16351  0.33649  0.25000  1
 I  I2  1  0.83649  0.66351  0.75000  1
 I  I3  1  0.66351  0.83649  0.25000  1
 I  I4  1  0.33649  0.16351  0.75000  1
 Sb  Sb1  1  0.69979  0.30021  0.44005  1
 Sb  Sb2  1  0.80021  0.19979  0.94005  1
 Sb  Sb3  1  0.19979  0.80021  0.05995  1
 Sb  Sb4  1  0.30021  0.69979  0.55995  1
