CIF file written using JARVIS-Tools package.
data_ScB2C2
_symmetry_space_group_name_H-M  'Pbam'
_cell_length_a       3.44487
_cell_length_b       5.27612
_cell_length_c       10.1917
_cell_angle_alpha    90
_cell_angle_beta     90
_cell_angle_gamma    90

_symmetry_Int_Tables_number  55
_chemical_formula_structural  ScB2C2
_chemical_formula_sum  Sc4B8C8
_cell_volume  185.23971322048155
_cell_formula_units_Z  4
loop_
  _symmetry_equiv_pos_site_id
 _symmetry_equiv_pos_as_xyz
 1  'x, y, z'
loop_
 _atom_site_type_symbol
 _atom_site_label
 _atom_site_symmetry_multiplicity
 _atom_site_fract_x
 _atom_site_fract_y
 _atom_site_fract_z
 _atom_site_fract_occupancy
 B  B1  1  0.50000  0.64370  0.46457  1
 B  B2  1  0.50000  0.98657  0.68899  1
 B  B3  1  0.50000  0.01343  0.31101  1
 B  B4  1  0.50000  0.48657  0.81101  1
 B  B5  1  0.50000  0.51343  0.18899  1
 B  B6  1  0.50000  0.14370  0.03543  1
 B  B7  1  0.50000  0.35630  0.53543  1
 B  B8  1  0.50000  0.85630  0.96457  1
 C  C1  1  0.50000  0.29714  0.69091  1
 C  C2  1  0.50000  0.89250  0.54463  1
 C  C3  1  0.50000  0.10750  0.45537  1
 C  C4  1  0.50000  0.60750  0.04463  1
 C  C5  1  0.50000  0.39250  0.95537  1
 C  C6  1  0.50000  0.79714  0.80909  1
 C  C7  1  0.50000  0.70286  0.30909  1
 C  C8  1  0.50000  0.20286  0.19091  1
 Sc  Sc1  1  0.00000  0.63786  0.64871  1
 Sc  Sc2  1  0.00000  0.36214  0.35129  1
 Sc  Sc3  1  0.00000  0.86214  0.14871  1
 Sc  Sc4  1  0.00000  0.13786  0.85129  1
