CIF file written using JARVIS-Tools package.
data_TlZnPO4
_symmetry_space_group_name_H-M  'P2_1'
_cell_length_a       5.50669
_cell_length_b       8.80542
_cell_length_c       8.8104
_cell_angle_alpha    90.811
_cell_angle_beta     90
_cell_angle_gamma    90

_symmetry_Int_Tables_number  4
_chemical_formula_structural  TlZnPO4
_chemical_formula_sum  Tl4Zn4P4O6
_cell_volume  427.1620548852352
_cell_formula_units_Z  4
loop_
  _symmetry_equiv_pos_site_id
 _symmetry_equiv_pos_as_xyz
 1  'x, y, z'
loop_
 _atom_site_type_symbol
 _atom_site_label
 _atom_site_symmetry_multiplicity
 _atom_site_fract_x
 _atom_site_fract_y
 _atom_site_fract_z
 _atom_site_fract_occupancy
 O  O1  1  0.99462  0.53388  -0.00751  1
 O  O2  1  0.42831  0.32362  0.75790  1
 O  O3  1  0.27717  0.22480  0.43534  1
 O  O4  1  0.77717  0.77520  0.56466  1
 O  O5  1  0.26611  0.21722  0.00598  1
 O  O6  1  0.76611  0.78278  0.99402  1
 O  O7  1  0.90890  0.31351  0.29080  1
 O  O8  1  0.40890  0.68649  0.70920  1
 O  O9  1  0.35522  0.79941  0.45023  1
 O  O10  1  0.85522  0.20059  0.54977  1
 O  O11  1  0.71724  0.21960  0.95822  1
 O  O12  1  0.21724  0.78040  0.04178  1
 O  O13  1  0.92831  0.67638  0.24210  1
 O  O14  1  0.97987  0.03208  0.32323  1
 O  O15  1  0.49462  0.46612  0.00751  1
 O  O16  1  0.47987  0.96792  0.67677  1
 P  P1  1  0.47669  0.30727  0.93020  1
 P  P2  1  0.97669  0.69273  0.06980  1
 P  P3  1  0.50533  0.80927  0.59938  1
 P  P4  1  0.00533  0.19073  0.40062  1
 Tl  Tl1  1  0.49492  0.00238  0.18679  1
 Tl  Tl2  1  0.50198  0.50487  0.31975  1
 Tl  Tl3  1  0.00198  0.49513  0.68025  1
 Tl  Tl4  1  0.99492  0.99762  0.81321  1
 Zn  Zn1  1  0.47485  0.67147  0.92526  1
 Zn  Zn2  1  0.97485  0.32853  0.07474  1
 Zn  Zn3  1  0.50679  0.17391  0.59666  1
 Zn  Zn4  1  0.00679  0.82609  0.40334  1
