CIF file written using JARVIS-Tools package.
data_MoS2
_symmetry_space_group_name_H-M  'R-3m'
_cell_length_a       5.55307
_cell_length_b       3.20594
_cell_length_c       6.39922
_cell_angle_alpha    90
_cell_angle_beta     106.822
_cell_angle_gamma    90

_symmetry_Int_Tables_number  166
_chemical_formula_structural  MoS2
_chemical_formula_sum  Mo2S4
_cell_volume  109.04911612033264
_cell_formula_units_Z  2
loop_
  _symmetry_equiv_pos_site_id
 _symmetry_equiv_pos_as_xyz
 1  'x, y, z'
loop_
 _atom_site_type_symbol
 _atom_site_label
 _atom_site_symmetry_multiplicity
 _atom_site_fract_x
 _atom_site_fract_y
 _atom_site_fract_z
 _atom_site_fract_occupancy
 Mo  Mo1  1  0.50000  0.50000  -0.00000  1
 Mo  Mo2  1  0.00000  0.00000  0.00000  1
 S  S1  1  0.75282  0.00000  0.25831  1
 S  S2  1  0.74718  0.50000  0.74169  1
 S  S3  1  0.25282  0.50000  0.25831  1
 S  S4  1  0.24718  0.00000  0.74169  1
