CIF file written using JARVIS-Tools package.
data_LaAl
_symmetry_space_group_name_H-M  'Cmcm'
_cell_length_a       5.78174
_cell_length_b       6.13733
_cell_length_c       6.13733
_cell_angle_alpha    101.429
_cell_angle_beta     90
_cell_angle_gamma    90

_symmetry_Int_Tables_number  63
_chemical_formula_structural  LaAl
_chemical_formula_sum  La4Al4
_cell_volume  213.46152458557066
_cell_formula_units_Z  4
loop_
  _symmetry_equiv_pos_site_id
 _symmetry_equiv_pos_as_xyz
 1  'x, y, z'
loop_
 _atom_site_type_symbol
 _atom_site_label
 _atom_site_symmetry_multiplicity
 _atom_site_fract_x
 _atom_site_fract_y
 _atom_site_fract_z
 _atom_site_fract_occupancy
 Al  Al1  1  0.75000  0.69575  0.69575  1
 Al  Al2  1  0.25000  0.30425  0.30425  1
 Al  Al3  1  0.50000  0.00000  0.00000  1
 Al  Al4  1  0.00000  0.00000  0.00000  1
 La  La1  1  0.75000  0.15677  0.51442  1
 La  La2  1  0.25000  0.84323  0.48558  1
 La  La3  1  0.75000  0.51442  0.15677  1
 La  La4  1  0.25000  0.48558  0.84323  1
