CIF file written using JARVIS-Tools package.
data_Ni3S2
_symmetry_space_group_name_H-M  'Cmcm'
_cell_length_a       3.25007
_cell_length_b       6.86124
_cell_length_c       5.80946
_cell_angle_alpha    90.0004
_cell_angle_beta     73.7564
_cell_angle_gamma    90

_symmetry_Int_Tables_number  63
_chemical_formula_structural  Ni3S2
_chemical_formula_sum  Ni6S4
_cell_volume  124.3764128342907
_cell_formula_units_Z  2
loop_
  _symmetry_equiv_pos_site_id
 _symmetry_equiv_pos_as_xyz
 1  'x, y, z'
loop_
 _atom_site_type_symbol
 _atom_site_label
 _atom_site_symmetry_multiplicity
 _atom_site_fract_x
 _atom_site_fract_y
 _atom_site_fract_z
 _atom_site_fract_occupancy
 Ni  Ni1  1  0.46196  0.25000  0.07607  1
 Ni  Ni2  1  0.53804  0.75000  0.92393  1
 Ni  Ni3  1  0.66501  0.43296  0.66999  1
 Ni  Ni4  1  0.33500  0.56704  0.33000  1
 Ni  Ni5  1  0.66500  0.06703  0.67000  1
 Ni  Ni6  1  0.33500  0.93297  0.33001  1
 S  S1  1  0.00000  0.00000  0.00000  1
 S  S2  1  0.25989  0.25000  0.48022  1
 S  S3  1  0.74011  0.75000  0.51978  1
 S  S4  1  0.00000  0.50000  -0.00000  1
