CIF file written using JARVIS-Tools package.
data_CeMg
_symmetry_space_group_name_H-M  'C2/m'
_cell_length_a       12.7711
_cell_length_b       3.47114
_cell_length_c       5.80707
_cell_angle_alpha    90
_cell_angle_beta     126.963
_cell_angle_gamma    90

_symmetry_Int_Tables_number  12
_chemical_formula_structural  CeMg
_chemical_formula_sum  Ce4Mg4
_cell_volume  205.6912684078657
_cell_formula_units_Z  4
loop_
  _symmetry_equiv_pos_site_id
 _symmetry_equiv_pos_as_xyz
 1  'x, y, z'
loop_
 _atom_site_type_symbol
 _atom_site_label
 _atom_site_symmetry_multiplicity
 _atom_site_fract_x
 _atom_site_fract_y
 _atom_site_fract_z
 _atom_site_fract_occupancy
 Ce  Ce1  1  0.64296  0.50000  0.84701  1
 Ce  Ce2  1  0.85704  0.00000  0.15299  1
 Ce  Ce3  1  0.14296  0.00000  0.84701  1
 Ce  Ce4  1  0.35704  0.50000  0.15299  1
 Mg  Mg1  1  0.87198  0.50000  0.67127  1
 Mg  Mg2  1  0.62802  0.00000  0.32873  1
 Mg  Mg3  1  0.37198  0.00000  0.67127  1
 Mg  Mg4  1  0.12802  0.50000  0.32873  1
