CIF file written using JARVIS-Tools package.
data_CaB2H10N2
_symmetry_space_group_name_H-M  'C2'
_cell_length_a       5.03165
_cell_length_b       5.03165
_cell_length_c       6.33992
_cell_angle_alpha    86.7418
_cell_angle_beta     86.7418
_cell_angle_gamma    50.1418

_symmetry_Int_Tables_number  5
_chemical_formula_structural  CaB2H10N2
_chemical_formula_sum  CaB2H0N2
_cell_volume  122.97072074609774
_cell_formula_units_Z  1
loop_
  _symmetry_equiv_pos_site_id
 _symmetry_equiv_pos_as_xyz
 1  'x, y, z'
loop_
 _atom_site_type_symbol
 _atom_site_label
 _atom_site_symmetry_multiplicity
 _atom_site_fract_x
 _atom_site_fract_y
 _atom_site_fract_z
 _atom_site_fract_occupancy
 B  B1  1  0.25664  0.08599  0.78424  1
 B  B2  1  0.91401  0.74336  0.21576  1
 Ca  Ca1  1  0.60011  0.39989  0.00000  1
 H  H1  1  0.00788  0.14469  0.69633  1
 H  H2  1  0.85531  -0.00788  0.30367  1
 H  H3  1  0.21232  0.48579  0.25748  1
 H  H4  1  0.51421  0.78768  0.74252  1
 H  H5  1  0.19959  0.09346  0.97966  1
 H  H6  1  0.90654  0.80041  0.02034  1
 H  H7  1  0.47616  0.25503  0.57829  1
 H  H8  1  0.74497  0.52384  0.42171  1
 H  H9  1  0.41958  0.89109  0.31621  1
 H  H10  1  0.10891  0.58042  0.68379  1
 N  N1  1  0.33071  0.33294  0.71628  1
 N  N2  1  0.66706  0.66929  0.28372  1
