CIF file written using JARVIS-Tools package.
data_Sr8Mn2FeN8
_symmetry_space_group_name_H-M  'C2/m'
_cell_length_a       5.31026
_cell_length_b       7.46607
_cell_length_c       9.67584
_cell_angle_alpha    104.854
_cell_angle_beta     105.927
_cell_angle_gamma    90

_symmetry_Int_Tables_number  12
_chemical_formula_structural  Sr8Mn2FeN8
_chemical_formula_sum  Sr8Mn2FeN8
_cell_volume  355.54025979790345
_cell_formula_units_Z  1
loop_
  _symmetry_equiv_pos_site_id
 _symmetry_equiv_pos_as_xyz
 1  'x, y, z'
loop_
 _atom_site_type_symbol
 _atom_site_label
 _atom_site_symmetry_multiplicity
 _atom_site_fract_x
 _atom_site_fract_y
 _atom_site_fract_z
 _atom_site_fract_occupancy
 Fe  Fe1  1  0.50000  0.50000  0.00000  1
 Mn  Mn1  1  0.81355  0.79519  0.62711  1
 Mn  Mn2  1  0.18645  0.20481  0.37289  1
 N  N1  1  0.17701  0.42880  0.35403  1
 N  N2  1  0.89411  0.98707  0.78823  1
 N  N3  1  0.10589  0.01293  0.21177  1
 N  N4  1  0.82299  0.57120  0.64597  1
 N  N5  1  0.27579  0.16864  0.55157  1
 N  N6  1  0.72421  0.83136  0.44843  1
 N  N7  1  0.52375  0.28865  0.04749  1
 N  N8  1  0.47625  0.71135  0.95251  1
 Sr  Sr1  1  0.59870  0.96097  0.19740  1
 Sr  Sr2  1  0.66599  0.47131  0.33199  1
 Sr  Sr3  1  0.02666  0.26363  0.05332  1
 Sr  Sr4  1  0.79957  0.19641  0.59914  1
 Sr  Sr5  1  0.20043  0.80359  0.40086  1
 Sr  Sr6  1  0.97334  0.73637  0.94668  1
 Sr  Sr7  1  0.33401  0.52869  0.66801  1
 Sr  Sr8  1  0.40130  0.03903  0.80260  1
