CIF file written using JARVIS-Tools package.
data_KBiSe2
_symmetry_space_group_name_H-M  'C2/c'
_cell_length_a       8.915
_cell_length_b       12.1946
_cell_length_c       7.99721
_cell_angle_alpha    28.4572
_cell_angle_beta     52.3228
_cell_angle_gamma    39.9737

_symmetry_Int_Tables_number  15
_chemical_formula_structural  KBiSe2
_chemical_formula_sum  K2Bi2Se4
_cell_volume  260.5338469285192
_cell_formula_units_Z  2
loop_
  _symmetry_equiv_pos_site_id
 _symmetry_equiv_pos_as_xyz
 1  'x, y, z'
loop_
 _atom_site_type_symbol
 _atom_site_label
 _atom_site_symmetry_multiplicity
 _atom_site_fract_x
 _atom_site_fract_y
 _atom_site_fract_z
 _atom_site_fract_occupancy
 Bi  Bi1  1  0.53923  0.92153  0.07851  1
 Bi  Bi2  1  0.21077  0.57847  0.92149  1
 K  K1  1  0.99487  0.01032  0.98964  1
 K  K2  1  0.75513  0.48968  0.01036  1
 Se  Se1  1  0.27066  0.96111  0.51039  1
 Se  Se2  1  0.98171  0.53895  0.43257  1
 Se  Se3  1  0.76829  0.96105  0.56743  1
 Se  Se4  1  0.47934  0.53889  0.48961  1
