CIF file written using JARVIS-Tools package.
data_AsCF3
_symmetry_space_group_name_H-M  'P4_2/nmc'
_cell_length_a       10.3749
_cell_length_b       10.3749
_cell_length_c       6.20747
_cell_angle_alpha    90
_cell_angle_beta     90
_cell_angle_gamma    90

_symmetry_Int_Tables_number  137
_chemical_formula_structural  AsCF3
_chemical_formula_sum  As8C8F24
_cell_volume  668.1677762759524
_cell_formula_units_Z  8
loop_
  _symmetry_equiv_pos_site_id
 _symmetry_equiv_pos_as_xyz
 1  'x, y, z'
loop_
 _atom_site_type_symbol
 _atom_site_label
 _atom_site_symmetry_multiplicity
 _atom_site_fract_x
 _atom_site_fract_y
 _atom_site_fract_z
 _atom_site_fract_occupancy
 As  As1  1  0.34042  0.50000  0.92698  1
 As  As2  1  0.65958  0.50000  0.92698  1
 As  As3  1  0.00000  0.15958  0.42698  1
 As  As4  1  0.00000  0.84042  0.42698  1
 As  As5  1  0.84042  0.00000  0.57302  1
 As  As6  1  0.15958  0.00000  0.57302  1
 As  As7  1  0.50000  0.34042  0.07302  1
 As  As8  1  0.50000  0.65958  0.07302  1
 C  C1  1  0.00000  0.73121  0.70182  1
 C  C2  1  0.23121  0.50000  0.20182  1
 C  C3  1  0.00000  0.26879  0.70182  1
 C  C4  1  0.76879  0.50000  0.20182  1
 C  C5  1  0.73121  0.00000  0.29818  1
 C  C6  1  0.50000  0.23121  0.79818  1
 C  C7  1  0.50000  0.76879  0.79818  1
 C  C8  1  0.26879  0.00000  0.29818  1
 F  F1  1  0.84691  0.39397  0.20548  1
 F  F2  1  0.29885  0.50000  0.39056  1
 F  F3  1  0.70115  0.50000  0.39056  1
 F  F4  1  0.00000  0.20115  0.89056  1
 F  F5  1  0.89397  0.34691  0.70548  1
 F  F6  1  0.79885  0.00000  0.10944  1
 F  F7  1  0.20115  0.00000  0.10944  1
 F  F8  1  0.50000  0.29885  0.60944  1
 F  F9  1  0.50000  0.70115  0.60944  1
 F  F10  1  0.15309  0.60603  0.20548  1
 F  F11  1  0.00000  0.79885  0.89056  1
 F  F12  1  0.60603  0.84691  0.79452  1
 F  F13  1  0.34691  0.10603  0.29452  1
 F  F14  1  0.60603  0.15309  0.79452  1
 F  F15  1  0.39397  0.84691  0.79452  1
 F  F16  1  0.34691  0.89397  0.29452  1
 F  F17  1  0.65309  0.10603  0.29452  1
 F  F18  1  0.39397  0.15309  0.79452  1
 F  F19  1  0.10603  0.34691  0.70548  1
 F  F20  1  0.84691  0.60603  0.20548  1
 F  F21  1  0.15309  0.39397  0.20548  1
 F  F22  1  0.65309  0.89397  0.29452  1
 F  F23  1  0.89397  0.65309  0.70548  1
 F  F24  1  0.10603  0.65309  0.70548  1
