CIF file written using JARVIS-Tools package.
data_Nb2N
_symmetry_space_group_name_H-M  'P-31m'
_cell_length_a       5.02248
_cell_length_b       5.34839
_cell_length_c       5.34834
_cell_angle_alpha    120
_cell_angle_beta     89.9982
_cell_angle_gamma    90.0008

_symmetry_Int_Tables_number  162
_chemical_formula_structural  Nb2N
_chemical_formula_sum  Nb6N3
_cell_volume  124.42055955702213
_cell_formula_units_Z  3
loop_
  _symmetry_equiv_pos_site_id
 _symmetry_equiv_pos_as_xyz
 1  'x, y, z'
loop_
 _atom_site_type_symbol
 _atom_site_label
 _atom_site_symmetry_multiplicity
 _atom_site_fract_x
 _atom_site_fract_y
 _atom_site_fract_z
 _atom_site_fract_occupancy
 N  N1  1  0.50000  0.66665  0.33333  1
 N  N2  1  0.50000  0.33335  0.66667  1
 N  N3  1  0.00000  0.00000  0.00000  1
 Nb  Nb1  1  0.24776  0.33380  0.33382  1
 Nb  Nb2  1  0.24776  0.66620  0.00001  1
 Nb  Nb3  1  0.24779  -0.00000  0.66621  1
 Nb  Nb4  1  0.75224  0.66620  0.66618  1
 Nb  Nb5  1  0.75224  0.33380  0.99999  1
 Nb  Nb6  1  0.75221  -0.00000  0.33379  1
