CIF file written using JARVIS-Tools package.
data_PuB4Mo
_symmetry_space_group_name_H-M  'Pbam'
_cell_length_a       3.65825
_cell_length_b       6.01277
_cell_length_c       11.6363
_cell_angle_alpha    90
_cell_angle_beta     90
_cell_angle_gamma    90

_symmetry_Int_Tables_number  55
_chemical_formula_structural  PuB4Mo
_chemical_formula_sum  Pu4B6Mo4
_cell_volume  255.9542904457944
_cell_formula_units_Z  4
loop_
  _symmetry_equiv_pos_site_id
 _symmetry_equiv_pos_as_xyz
 1  'x, y, z'
loop_
 _atom_site_type_symbol
 _atom_site_label
 _atom_site_symmetry_multiplicity
 _atom_site_fract_x
 _atom_site_fract_y
 _atom_site_fract_z
 _atom_site_fract_occupancy
 B  B1  1  0.50000  0.38495  0.95269  1
 B  B2  1  0.50000  0.36635  0.53201  1
 B  B3  1  0.50000  0.63365  0.46799  1
 B  B4  1  0.50000  0.13365  0.03201  1
 B  B5  1  0.50000  0.86635  0.96799  1
 B  B6  1  0.50000  0.71255  0.31335  1
 B  B7  1  0.50000  0.61505  0.04731  1
 B  B8  1  0.50000  0.11505  0.45269  1
 B  B9  1  0.50000  0.88495  0.54731  1
 B  B10  1  0.50000  0.47443  0.80706  1
 B  B11  1  0.50000  0.52557  0.19294  1
 B  B12  1  0.50000  0.02557  0.30706  1
 B  B13  1  0.50000  0.97443  0.69294  1
 B  B14  1  0.50000  0.28745  0.68665  1
 B  B15  1  0.50000  0.78745  0.81335  1
 B  B16  1  0.50000  0.21255  0.18665  1
 Mo  Mo1  1  0.00000  0.13147  0.58577  1
 Mo  Mo2  1  0.00000  0.86853  0.41423  1
 Mo  Mo3  1  0.00000  0.63147  0.91423  1
 Mo  Mo4  1  0.00000  0.36853  0.08577  1
 Pu  Pu1  1  0.00000  0.62580  0.65061  1
 Pu  Pu2  1  0.00000  0.37420  0.34939  1
 Pu  Pu3  1  0.00000  0.87420  0.15061  1
 Pu  Pu4  1  0.00000  0.12580  0.84939  1
