CIF file written using JARVIS-Tools package.
data_Ag3Sb
_symmetry_space_group_name_H-M  'Pmmn'
_cell_length_a       4.85854
_cell_length_b       5.39846
_cell_length_c       6.03163
_cell_angle_alpha    90
_cell_angle_beta     90
_cell_angle_gamma    90

_symmetry_Int_Tables_number  59
_chemical_formula_structural  Ag3Sb
_chemical_formula_sum  Ag6Sb2
_cell_volume  158.20161185868608
_cell_formula_units_Z  2
loop_
  _symmetry_equiv_pos_site_id
 _symmetry_equiv_pos_as_xyz
 1  'x, y, z'
loop_
 _atom_site_type_symbol
 _atom_site_label
 _atom_site_symmetry_multiplicity
 _atom_site_fract_x
 _atom_site_fract_y
 _atom_site_fract_z
 _atom_site_fract_occupancy
 Ag  Ag1  1  0.75000  0.68220  0.25000  1
 Ag  Ag2  1  0.25000  0.31780  0.75000  1
 Ag  Ag3  1  0.25000  0.84627  0.50126  1
 Ag  Ag4  1  0.75000  0.15373  0.49874  1
 Ag  Ag5  1  0.25000  0.84627  0.99874  1
 Ag  Ag6  1  0.75000  0.15373  0.00126  1
 Sb  Sb1  1  0.25000  0.33784  0.25000  1
 Sb  Sb2  1  0.75000  0.66216  0.75000  1
