CIF file written using JARVIS-Tools package.
data_NdCoGe2
_symmetry_space_group_name_H-M  'Cmcm'
_cell_length_a       4.24585
_cell_length_b       4.26137
_cell_length_c       8.58135
_cell_angle_alpha    104.376
_cell_angle_beta     90
_cell_angle_gamma    90

_symmetry_Int_Tables_number  63
_chemical_formula_structural  NdCoGe2
_chemical_formula_sum  Nd2Co2Ge4
_cell_volume  150.40112202853905
_cell_formula_units_Z  2
loop_
  _symmetry_equiv_pos_site_id
 _symmetry_equiv_pos_as_xyz
 1  'x, y, z'
loop_
 _atom_site_type_symbol
 _atom_site_label
 _atom_site_symmetry_multiplicity
 _atom_site_fract_x
 _atom_site_fract_y
 _atom_site_fract_z
 _atom_site_fract_occupancy
 Co  Co1  1  0.75000  0.31652  0.63304  1
 Co  Co2  1  0.25000  0.68348  0.36696  1
 Ge  Ge1  1  0.75000  0.45417  0.90834  1
 Ge  Ge2  1  0.25000  0.54583  0.09166  1
 Ge  Ge3  1  0.75000  0.74979  0.49958  1
 Ge  Ge4  1  0.25000  0.25021  0.50042  1
 Nd  Nd1  1  0.75000  0.10811  0.21622  1
 Nd  Nd2  1  0.25000  0.89189  0.78378  1
