CIF file written using JARVIS-Tools package.
data_AsS3Cl3F6
_symmetry_space_group_name_H-M  'P-1'
_cell_length_a       7.52752
_cell_length_b       7.73037
_cell_length_c       9.92403
_cell_angle_alpha    80.4677
_cell_angle_beta     69.0125
_cell_angle_gamma    66.1637

_symmetry_Int_Tables_number  2
_chemical_formula_structural  AsS3Cl3F6
_chemical_formula_sum  As2S6Cl6F2
_cell_volume  493.03720304010335
_cell_formula_units_Z  2
loop_
  _symmetry_equiv_pos_site_id
 _symmetry_equiv_pos_as_xyz
 1  'x, y, z'
loop_
 _atom_site_type_symbol
 _atom_site_label
 _atom_site_symmetry_multiplicity
 _atom_site_fract_x
 _atom_site_fract_y
 _atom_site_fract_z
 _atom_site_fract_occupancy
 As  As1  1  0.95419  0.74030  0.25412  1
 As  As2  1  0.04581  0.25970  0.74588  1
 Cl  Cl1  1  0.33892  0.72120  0.46562  1
 Cl  Cl2  1  0.72483  0.32307  0.20092  1
 Cl  Cl3  1  0.79810  0.84022  0.70368  1
 Cl  Cl4  1  0.20190  0.15978  0.29632  1
 Cl  Cl5  1  0.66108  0.27880  0.53438  1
 Cl  Cl6  1  0.27517  0.67693  0.79908  1
 F  F1  1  0.94590  0.11186  0.88094  1
 F  F2  1  0.20658  0.60041  0.26048  1
 F  F3  1  0.29707  0.11900  0.75209  1
 F  F4  1  0.00685  0.40620  0.88207  1
 F  F5  1  0.14714  0.40827  0.61100  1
 F  F6  1  0.85286  0.59173  0.38900  1
 F  F7  1  0.08208  0.11424  0.61004  1
 F  F8  1  0.91792  0.88576  0.38996  1
 F  F9  1  0.70293  0.88100  0.24791  1
 F  F10  1  0.05410  0.88814  0.11906  1
 F  F11  1  0.79342  0.39959  0.73952  1
 F  F12  1  -0.00685  0.59380  0.11793  1
 S  S1  1  0.52363  0.30226  0.39227  1
 S  S2  1  0.73761  0.83459  0.92741  1
 S  S3  1  0.26239  0.16541  0.07259  1
 S  S4  1  0.47637  0.69774  0.60773  1
 S  S5  1  0.51188  0.76359  0.02684  1
 S  S6  1  0.48812  0.23641  0.97316  1
