CIF file written using JARVIS-Tools package.
data_AuO2F6
_symmetry_space_group_name_H-M  'P-1'
_cell_length_a       5.0679
_cell_length_b       5.16845
_cell_length_c       4.78048
_cell_angle_alpha    81.6409
_cell_angle_beta     73.5585
_cell_angle_gamma    90.2458

_symmetry_Int_Tables_number  2
_chemical_formula_structural  AuO2F6
_chemical_formula_sum  AuO2F6
_cell_volume  118.68338571564638
_cell_formula_units_Z  1
loop_
  _symmetry_equiv_pos_site_id
 _symmetry_equiv_pos_as_xyz
 1  'x, y, z'
loop_
 _atom_site_type_symbol
 _atom_site_label
 _atom_site_symmetry_multiplicity
 _atom_site_fract_x
 _atom_site_fract_y
 _atom_site_fract_z
 _atom_site_fract_occupancy
 Au  Au1  1  0.00000  0.00000  0.00000  1
 F  F1  1  0.31482  0.19345  0.03388  1
 F  F2  1  0.68518  0.80655  0.96612  1
 F  F3  1  0.10233  0.67482  0.18942  1
 F  F4  1  0.89767  0.32518  0.81058  1
 F  F5  1  0.22542  0.93120  0.62031  1
 F  F6  1  0.77458  0.06880  0.37969  1
 O  O1  1  0.44136  0.52457  0.61732  1
 O  O2  1  0.55864  0.47543  0.38268  1
