CIF file written using JARVIS-Tools package.
data_NdCoAsO
_symmetry_space_group_name_H-M  'P4/nmm'
_cell_length_a       4.01803
_cell_length_b       4.01803
_cell_length_c       8.26856
_cell_angle_alpha    90
_cell_angle_beta     90
_cell_angle_gamma    90

_symmetry_Int_Tables_number  129
_chemical_formula_structural  NdCoAsO
_chemical_formula_sum  Nd2Co2As2O2
_cell_volume  133.49223498342005
_cell_formula_units_Z  2
loop_
  _symmetry_equiv_pos_site_id
 _symmetry_equiv_pos_as_xyz
 1  'x, y, z'
loop_
 _atom_site_type_symbol
 _atom_site_label
 _atom_site_symmetry_multiplicity
 _atom_site_fract_x
 _atom_site_fract_y
 _atom_site_fract_z
 _atom_site_fract_occupancy
 As  As1  1  0.75000  0.75000  0.35488  1
 As  As2  1  0.25000  0.25000  0.64512  1
 Co  Co1  1  0.25000  0.75000  0.50000  1
 Co  Co2  1  0.75000  0.25000  0.50000  1
 Nd  Nd1  1  0.75000  0.75000  0.85503  1
 Nd  Nd2  1  0.25000  0.25000  0.14497  1
 O  O1  1  0.25000  0.75000  0.00000  1
 O  O2  1  0.75000  0.25000  0.00000  1
