CIF file written using JARVIS-Tools package.
data_Er3FeSi3
_symmetry_space_group_name_H-M  'C2/m'
_cell_length_a       4.12596
_cell_length_b       5.58514
_cell_length_c       12.6574
_cell_angle_alpha    84.9644
_cell_angle_beta     80.6198
_cell_angle_gamma    68.3232

_symmetry_Int_Tables_number  12
_chemical_formula_structural  Er3FeSi3
_chemical_formula_sum  Er6Fe2Si6
_cell_volume  267.30570481993504
_cell_formula_units_Z  2
loop_
  _symmetry_equiv_pos_site_id
 _symmetry_equiv_pos_as_xyz
 1  'x, y, z'
loop_
 _atom_site_type_symbol
 _atom_site_label
 _atom_site_symmetry_multiplicity
 _atom_site_fract_x
 _atom_site_fract_y
 _atom_site_fract_z
 _atom_site_fract_occupancy
 Er  Er1  1  0.74874  0.73211  0.77042  1
 Er  Er2  1  0.25126  0.26789  0.22958  1
 Er  Er3  1  0.52376  0.33219  0.62029  1
 Er  Er4  1  0.47624  0.66781  0.37971  1
 Er  Er5  1  0.39915  0.28265  0.91904  1
 Er  Er6  1  0.60085  0.71735  0.08096  1
 Fe  Fe1  1  0.75306  0.07850  0.41538  1
 Fe  Fe2  1  0.24694  0.92150  0.58462  1
 Si  Si1  1  0.14479  0.25441  0.45600  1
 Si  Si2  1  0.85521  0.74559  0.54400  1
 Si  Si3  1  0.11557  0.84413  0.92474  1
 Si  Si4  1  0.88443  0.15587  0.07526  1
 Si  Si5  1  0.05428  0.13374  0.75770  1
 Si  Si6  1  0.94572  0.86626  0.24230  1
