CIF file written using JARVIS-Tools package.
data_H12AuC4N
_symmetry_space_group_name_H-M  'P4/nmm'
_cell_length_a       7.59119
_cell_length_b       7.59119
_cell_length_c       5.43846
_cell_angle_alpha    90
_cell_angle_beta     90
_cell_angle_gamma    90

_symmetry_Int_Tables_number  129
_chemical_formula_structural  H12AuC4N
_chemical_formula_sum  H24Au2C8N2
_cell_volume  313.39772149889166
_cell_formula_units_Z  2
loop_
  _symmetry_equiv_pos_site_id
 _symmetry_equiv_pos_as_xyz
 1  'x, y, z'
loop_
 _atom_site_type_symbol
 _atom_site_label
 _atom_site_symmetry_multiplicity
 _atom_site_fract_x
 _atom_site_fract_y
 _atom_site_fract_z
 _atom_site_fract_occupancy
 Au  Au1  1  0.50000  0.00000  0.35621  1
 Au  Au2  1  0.00000  0.50000  0.64379  1
 C  C1  1  0.83902  0.00000  0.83928  1
 C  C2  1  0.00000  0.16098  0.16072  1
 C  C3  1  0.00000  0.83902  0.16072  1
 C  C4  1  0.66098  0.50000  0.16072  1
 C  C5  1  0.33902  0.50000  0.16072  1
 C  C6  1  0.50000  0.33902  0.83928  1
 C  C7  1  0.50000  0.66098  0.83928  1
 C  C8  1  0.16098  0.00000  0.83928  1
 H  H1  1  0.38088  0.34247  0.72467  1
 H  H2  1  0.61912  0.65753  0.72467  1
 H  H3  1  0.84247  0.11912  0.72467  1
 H  H4  1  0.11912  0.15753  0.27533  1
 H  H5  1  0.34247  0.38088  0.27533  1
 H  H6  1  0.15753  0.88088  0.72467  1
 H  H7  1  0.65753  0.61912  0.27533  1
 H  H8  1  0.11912  0.84247  0.27533  1
 H  H9  1  0.88088  0.15753  0.27533  1
 H  H10  1  0.00000  0.27804  0.04089  1
 H  H11  1  0.00000  0.72196  0.04089  1
 H  H12  1  0.77804  0.50000  0.04089  1
 H  H13  1  0.22196  0.50000  0.04089  1
 H  H14  1  0.50000  0.22196  0.95911  1
 H  H15  1  0.50000  0.77804  0.95911  1
 H  H16  1  0.72196  0.00000  0.95911  1
 H  H17  1  0.61912  0.34247  0.72467  1
 H  H18  1  0.38088  0.65753  0.72467  1
 H  H19  1  0.84247  0.88088  0.72467  1
 H  H20  1  0.15753  0.11912  0.72467  1
 H  H21  1  0.27804  0.00000  0.95911  1
 H  H22  1  0.88088  0.84247  0.27533  1
 H  H23  1  0.34247  0.61912  0.27533  1
 H  H24  1  0.65753  0.38088  0.27533  1
 N  N1  1  0.00000  0.00000  0.00000  1
 N  N2  1  0.50000  0.50000  0.00000  1
