CIF file written using JARVIS-Tools package.
data_ZrI3
_symmetry_space_group_name_H-M  'P6_3/mcm'
_cell_length_a       6.55424
_cell_length_b       7.32976
_cell_length_c       12.695
_cell_angle_alpha    90
_cell_angle_beta     90
_cell_angle_gamma    90

_symmetry_Int_Tables_number  193
_chemical_formula_structural  ZrI3
_chemical_formula_sum  Zr4I2
_cell_volume  609.8790703676826
_cell_formula_units_Z  4
loop_
  _symmetry_equiv_pos_site_id
 _symmetry_equiv_pos_as_xyz
 1  'x, y, z'
loop_
 _atom_site_type_symbol
 _atom_site_label
 _atom_site_symmetry_multiplicity
 _atom_site_fract_x
 _atom_site_fract_y
 _atom_site_fract_z
 _atom_site_fract_occupancy
 I  I1  1  0.25000  0.41487  0.91504  1
 I  I2  1  0.25000  0.91970  0.75000  1
 I  I3  1  0.25000  0.91516  0.08497  1
 I  I4  1  0.25000  0.91516  0.41503  1
 I  I5  1  0.75000  0.08484  0.58497  1
 I  I6  1  0.75000  0.58513  0.41504  1
 I  I7  1  0.75000  0.57982  0.75000  1
 I  I8  1  0.75000  0.08484  0.91503  1
 I  I9  1  0.75000  0.58513  0.08496  1
 I  I10  1  0.75000  0.08030  0.25000  1
 I  I11  1  0.25000  0.42018  0.25000  1
 I  I12  1  0.25000  0.41487  0.58496  1
 Zr  Zr1  1  0.49987  0.24979  0.75000  1
 Zr  Zr2  1  0.00013  0.24979  0.75000  1
 Zr  Zr3  1  0.50013  0.75021  0.25000  1
 Zr  Zr4  1  -0.00013  0.75021  0.25000  1
