CIF file written using JARVIS-Tools package.
data_Li3Nb4VO12
_symmetry_space_group_name_H-M  'P1'
_cell_length_a       5.15249
_cell_length_b       5.61969
_cell_length_c       7.60717
_cell_angle_alpha    96.1678
_cell_angle_beta     90.1794
_cell_angle_gamma    90.1451

_symmetry_Int_Tables_number  1
_chemical_formula_structural  Li3Nb4VO12
_chemical_formula_sum  Li3Nb4VO2
_cell_volume  218.99098599462587
_cell_formula_units_Z  1
loop_
  _symmetry_equiv_pos_site_id
 _symmetry_equiv_pos_as_xyz
 1  'x, y, z'
loop_
 _atom_site_type_symbol
 _atom_site_label
 _atom_site_symmetry_multiplicity
 _atom_site_fract_x
 _atom_site_fract_y
 _atom_site_fract_z
 _atom_site_fract_occupancy
 Li  Li1  1  0.50767  0.93775  0.78340  1
 Li  Li2  1  0.99609  0.44657  0.78229  1
 Li  Li3  1  0.50049  0.93637  0.27833  1
 Nb  Nb1  1  0.01015  0.00723  0.99844  1
 Nb  Nb2  1  0.49374  0.51240  0.49180  1
 Nb  Nb3  1  0.99617  0.00456  0.50473  1
 Nb  Nb4  1  0.50708  0.50400  0.98615  1
 O  O1  1  0.30674  0.20534  0.40629  1
 O  O2  1  0.85408  0.04708  0.24060  1
 O  O3  1  0.32491  0.85037  0.04990  1
 O  O4  1  0.17409  0.70280  0.40531  1
 O  O5  1  0.13950  0.03418  0.74159  1
 O  O6  1  0.83070  0.34864  0.54848  1
 O  O7  1  0.64926  0.53520  0.23588  1
 O  O8  1  0.17501  0.36047  0.06199  1
 O  O9  1  0.80527  0.72131  0.91740  1
 O  O10  1  0.69767  0.21958  0.90913  1
 O  O11  1  0.36355  0.53288  0.73708  1
 O  O12  1  0.66927  0.84377  0.54744  1
 V  V1  1  0.99855  0.39030  0.30335  1
