CIF file written using JARVIS-Tools package.
data_V2CoO6
_symmetry_space_group_name_H-M  'C2/m'
_cell_length_a       3.45642
_cell_length_b       4.98985
_cell_length_c       6.67218
_cell_angle_alpha    109.307
_cell_angle_beta     90.0015
_cell_angle_gamma    110.266

_symmetry_Int_Tables_number  12
_chemical_formula_structural  V2CoO6
_chemical_formula_sum  V2CoO6
_cell_volume  101.02373799001137
_cell_formula_units_Z  1
loop_
  _symmetry_equiv_pos_site_id
 _symmetry_equiv_pos_as_xyz
 1  'x, y, z'
loop_
 _atom_site_type_symbol
 _atom_site_label
 _atom_site_symmetry_multiplicity
 _atom_site_fract_x
 _atom_site_fract_y
 _atom_site_fract_z
 _atom_site_fract_occupancy
 Co  Co1  1  0.98745  0.00000  0.00000  1
 O  O1  1  0.67501  0.37512  0.56035  1
 O  O2  1  0.02904  0.08317  0.74034  1
 O  O3  1  0.94585  0.91683  0.25965  1
 O  O4  1  0.29989  0.62488  0.43965  1
 O  O5  1  0.34093  0.70693  0.89199  1
 O  O6  1  0.63396  0.29308  0.10801  1
 V  V1  1  0.79013  0.60537  0.33643  1
 V  V2  1  0.18476  0.39462  0.66356  1
