CIF file written using JARVIS-Tools package.
data_Ce2WC2
_symmetry_space_group_name_H-M  'P4_2/mnm'
_cell_length_a       5.6712
_cell_length_b       5.6712
_cell_length_c       10.4497
_cell_angle_alpha    90
_cell_angle_beta     90
_cell_angle_gamma    90

_symmetry_Int_Tables_number  136
_chemical_formula_structural  Ce2WC2
_chemical_formula_sum  Ce8W4C8
_cell_volume  336.0896750932208
_cell_formula_units_Z  4
loop_
  _symmetry_equiv_pos_site_id
 _symmetry_equiv_pos_as_xyz
 1  'x, y, z'
loop_
 _atom_site_type_symbol
 _atom_site_label
 _atom_site_symmetry_multiplicity
 _atom_site_fract_x
 _atom_site_fract_y
 _atom_site_fract_z
 _atom_site_fract_occupancy
 C  C1  1  0.00000  0.50000  0.50000  1
 C  C2  1  0.50000  0.00000  0.00000  1
 C  C3  1  0.00000  0.00000  0.85580  1
 C  C4  1  0.50000  0.50000  0.35580  1
 C  C5  1  0.50000  0.00000  0.50000  1
 C  C6  1  0.50000  0.50000  0.64420  1
 C  C7  1  0.00000  0.00000  0.14420  1
 C  C8  1  0.00000  0.50000  0.00000  1
 Ce  Ce1  1  0.18290  0.18290  0.34371  1
 Ce  Ce2  1  0.81710  0.81710  0.65629  1
 Ce  Ce3  1  0.81710  0.81710  0.34371  1
 Ce  Ce4  1  0.18290  0.18290  0.65629  1
 Ce  Ce5  1  0.31710  0.68290  0.15629  1
 Ce  Ce6  1  0.68290  0.31710  0.15629  1
 Ce  Ce7  1  0.68290  0.31710  0.84371  1
 Ce  Ce8  1  0.31710  0.68290  0.84371  1
 W  W1  1  0.81984  0.81984  0.00000  1
 W  W2  1  0.31984  0.68016  0.50000  1
 W  W3  1  0.68016  0.31984  0.50000  1
 W  W4  1  0.18016  0.18016  0.00000  1
