CIF file written using JARVIS-Tools package.
data_V3O4F2
_symmetry_space_group_name_H-M  'C2/m'
_cell_length_a       4.6578
_cell_length_b       4.6578
_cell_length_c       8.87023
_cell_angle_alpha    89.9189
_cell_angle_beta     90.0811
_cell_angle_gamma    93.6688

_symmetry_Int_Tables_number  12
_chemical_formula_structural  V3O4F2
_chemical_formula_sum  V6O8F4
_cell_volume  192.0457772647339
_cell_formula_units_Z  2
loop_
  _symmetry_equiv_pos_site_id
 _symmetry_equiv_pos_as_xyz
 1  'x, y, z'
loop_
 _atom_site_type_symbol
 _atom_site_label
 _atom_site_symmetry_multiplicity
 _atom_site_fract_x
 _atom_site_fract_y
 _atom_site_fract_z
 _atom_site_fract_occupancy
 F  F1  1  0.79512  0.20488  0.49911  1
 F  F2  1  0.20488  0.79512  0.16756  1
 F  F3  1  0.79986  0.20014  0.83305  1
 F  F4  1  0.20014  0.79986  0.83362  1
 O  O1  1  0.29511  0.30174  0.66869  1
 O  O2  1  0.19565  0.80435  0.49834  1
 O  O3  1  0.30174  0.29511  -0.00203  1
 O  O4  1  0.30101  0.30101  0.33333  1
 O  O5  1  0.70489  0.69826  -0.00203  1
 O  O6  1  0.69899  0.69899  0.33333  1
 O  O7  1  0.80435  0.19565  0.16833  1
 O  O8  1  0.69826  0.70489  0.66869  1
 V  V1  1  0.46992  0.53008  0.49886  1
 V  V2  1  0.50000  0.50000  0.83333  1
 V  V3  1  0.53008  0.46992  0.16781  1
 V  V4  1  0.01100  0.98900  0.65698  1
 V  V5  1  0.00000  -0.00000  0.33333  1
 V  V6  1  0.98900  0.01100  0.00969  1
