CIF file written using JARVIS-Tools package.
data_CF2
_symmetry_space_group_name_H-M  'P-1'
_cell_length_a       5.8867
_cell_length_b       6.17089
_cell_length_c       6.38967
_cell_angle_alpha    93.005
_cell_angle_beta     107.015
_cell_angle_gamma    95.3209

_symmetry_Int_Tables_number  2
_chemical_formula_structural  CF2
_chemical_formula_sum  C6F2
_cell_volume  220.22366942205824
_cell_formula_units_Z  6
loop_
  _symmetry_equiv_pos_site_id
 _symmetry_equiv_pos_as_xyz
 1  'x, y, z'
loop_
 _atom_site_type_symbol
 _atom_site_label
 _atom_site_symmetry_multiplicity
 _atom_site_fract_x
 _atom_site_fract_y
 _atom_site_fract_z
 _atom_site_fract_occupancy
 C  C1  1  0.55176  0.82682  0.77145  1
 C  C2  1  0.44824  0.17318  0.22855  1
 C  C3  1  0.34370  0.74084  0.62917  1
 C  C4  1  0.65630  0.25916  0.37083  1
 C  C5  1  0.24900  0.29006  0.09992  1
 C  C6  1  0.75100  0.70994  0.90008  1
 F  F1  1  0.69199  0.49044  0.87678  1
 F  F2  1  0.72493  0.47055  0.42176  1
 F  F3  1  0.81793  0.13705  0.47741  1
 F  F4  1  0.95100  0.75279  0.83488  1
 F  F5  1  0.81496  0.77673  0.11755  1
 F  F6  1  0.59847  0.04738  0.80726  1
 F  F7  1  0.04900  0.24721  0.16513  1
 F  F8  1  0.30801  0.50956  0.12322  1
 F  F9  1  0.18207  0.86295  0.52259  1
 F  F10  1  0.27507  0.52945  0.57824  1
 F  F11  1  0.18504  0.22327  0.88245  1
 F  F12  1  0.40153  0.95262  0.19274  1
