CIF file written using JARVIS-Tools package.
data_Li3Nb2Fe3O10
_symmetry_space_group_name_H-M  'P1'
_cell_length_a       5.13128
_cell_length_b       5.05474
_cell_length_c       7.92953
_cell_angle_alpha    99.4628
_cell_angle_beta     108.768
_cell_angle_gamma    101.128

_symmetry_Int_Tables_number  1
_chemical_formula_structural  Li3Nb2Fe3O10
_chemical_formula_sum  Li3Nb2Fe3O0
_cell_volume  185.30725806728006
_cell_formula_units_Z  1
loop_
  _symmetry_equiv_pos_site_id
 _symmetry_equiv_pos_as_xyz
 1  'x, y, z'
loop_
 _atom_site_type_symbol
 _atom_site_label
 _atom_site_symmetry_multiplicity
 _atom_site_fract_x
 _atom_site_fract_y
 _atom_site_fract_z
 _atom_site_fract_occupancy
 Fe  Fe1  1  0.50697  0.00387  0.00835  1
 Fe  Fe2  1  0.91109  0.65983  0.86329  1
 Fe  Fe3  1  0.09954  0.30160  0.09944  1
 Li  Li1  1  0.87612  0.31574  0.41273  1
 Li  Li2  1  0.32876  0.38926  0.76855  1
 Li  Li3  1  0.66114  0.60438  0.20760  1
 Nb  Nb1  1  0.73633  0.03729  0.68724  1
 Nb  Nb2  1  0.24955  0.92806  0.30823  1
 O  O1  1  0.54699  0.77148  0.80352  1
 O  O2  1  0.47418  0.23369  0.22203  1
 O  O3  1  0.33769  0.12011  0.55854  1
 O  O4  1  0.93196  0.40547  0.66694  1
 O  O5  1  0.66369  0.85658  0.44072  1
 O  O6  1  0.13164  0.06235  0.88248  1
 O  O7  1  0.28834  0.68188  0.06985  1
 O  O8  1  0.71708  0.31420  0.93938  1
 O  O9  1  0.88076  0.98910  0.15680  1
 O  O10  1  0.06699  0.55107  0.30257  1
