CIF file written using JARVIS-Tools package.
data_CaSbPt
_symmetry_space_group_name_H-M  'Pnma'
_cell_length_a       4.62815
_cell_length_b       7.35911
_cell_length_c       7.97844
_cell_angle_alpha    90
_cell_angle_beta     90
_cell_angle_gamma    90

_symmetry_Int_Tables_number  62
_chemical_formula_structural  CaSbPt
_chemical_formula_sum  Ca4Sb4Pt4
_cell_volume  271.73852611722845
_cell_formula_units_Z  4
loop_
  _symmetry_equiv_pos_site_id
 _symmetry_equiv_pos_as_xyz
 1  'x, y, z'
loop_
 _atom_site_type_symbol
 _atom_site_label
 _atom_site_symmetry_multiplicity
 _atom_site_fract_x
 _atom_site_fract_y
 _atom_site_fract_z
 _atom_site_fract_occupancy
 Ca  Ca1  1  0.75000  0.99282  0.30157  1
 Ca  Ca2  1  0.25000  0.00718  0.69843  1
 Ca  Ca3  1  0.75000  0.49282  0.19843  1
 Ca  Ca4  1  0.25000  0.50718  0.80157  1
 Pt  Pt1  1  0.25000  0.80009  0.08496  1
 Pt  Pt2  1  0.25000  0.30009  0.41504  1
 Pt  Pt3  1  0.75000  0.69991  0.58496  1
 Pt  Pt4  1  0.75000  0.19991  0.91504  1
 Sb  Sb1  1  0.75000  0.31207  0.59056  1
 Sb  Sb2  1  0.25000  0.18793  0.09056  1
 Sb  Sb3  1  0.25000  0.68793  0.40944  1
 Sb  Sb4  1  0.75000  0.81207  0.90944  1
