CIF file written using JARVIS-Tools package.
data_DyMnB4
_symmetry_space_group_name_H-M  'Pbam'
_cell_length_a       3.42629
_cell_length_b       5.8995
_cell_length_c       11.4055
_cell_angle_alpha    90
_cell_angle_beta     90
_cell_angle_gamma    90

_symmetry_Int_Tables_number  55
_chemical_formula_structural  DyMnB4
_chemical_formula_sum  Dy4Mn4B6
_cell_volume  230.54450364788283
_cell_formula_units_Z  4
loop_
  _symmetry_equiv_pos_site_id
 _symmetry_equiv_pos_as_xyz
 1  'x, y, z'
loop_
 _atom_site_type_symbol
 _atom_site_label
 _atom_site_symmetry_multiplicity
 _atom_site_fract_x
 _atom_site_fract_y
 _atom_site_fract_z
 _atom_site_fract_occupancy
 B  B1  1  0.50000  0.11212  0.45372  1
 B  B2  1  0.50000  0.28075  0.68357  1
 B  B3  1  0.50000  0.71925  0.31643  1
 B  B4  1  0.50000  0.21925  0.18357  1
 B  B5  1  0.50000  0.02505  0.30922  1
 B  B6  1  0.50000  0.36154  0.53215  1
 B  B7  1  0.50000  0.63846  0.46785  1
 B  B8  1  0.50000  0.78075  0.81643  1
 B  B9  1  0.50000  0.86154  0.96785  1
 B  B10  1  0.50000  0.38788  0.95372  1
 B  B11  1  0.50000  0.61212  0.04628  1
 B  B12  1  0.50000  0.97495  0.69078  1
 B  B13  1  0.50000  0.88788  0.54628  1
 B  B14  1  0.50000  0.47495  0.80922  1
 B  B15  1  0.50000  0.52505  0.19078  1
 B  B16  1  0.50000  0.13846  0.03215  1
 Dy  Dy1  1  0.00000  0.62563  0.65049  1
 Dy  Dy2  1  0.00000  0.37437  0.34951  1
 Dy  Dy3  1  0.00000  0.87437  0.15049  1
 Dy  Dy4  1  0.00000  0.12563  0.84951  1
 Mn  Mn1  1  0.00000  0.62713  0.91645  1
 Mn  Mn2  1  0.00000  0.37287  0.08355  1
 Mn  Mn3  1  0.00000  0.87287  0.41645  1
 Mn  Mn4  1  0.00000  0.12713  0.58355  1
