CIF file written using JARVIS-Tools package.
data_HfCoSn
_symmetry_space_group_name_H-M  'P-62m'
_cell_length_a       4.35914
_cell_length_b       6.50692
_cell_length_c       6.50687
_cell_angle_alpha    120
_cell_angle_beta     90
_cell_angle_gamma    90

_symmetry_Int_Tables_number  189
_chemical_formula_structural  HfCoSn
_chemical_formula_sum  Hf3Co3Sn3
_cell_volume  159.8375315444722
_cell_formula_units_Z  3
loop_
  _symmetry_equiv_pos_site_id
 _symmetry_equiv_pos_as_xyz
 1  'x, y, z'
loop_
 _atom_site_type_symbol
 _atom_site_label
 _atom_site_symmetry_multiplicity
 _atom_site_fract_x
 _atom_site_fract_y
 _atom_site_fract_z
 _atom_site_fract_occupancy
 Co  Co1  1  0.00000  0.23266  0.00000  1
 Co  Co2  1  0.00000  0.76733  0.76736  1
 Co  Co3  1  0.00000  -0.00003  0.23264  1
 Hf  Hf1  1  0.50000  0.51698  0.00000  1
 Hf  Hf2  1  0.50000  0.48299  0.48300  1
 Hf  Hf3  1  0.50000  -0.00001  0.51700  1
 Sn  Sn1  1  0.00000  0.33332  0.66666  1
 Sn  Sn2  1  0.00000  0.66666  0.33334  1
 Sn  Sn3  1  0.50000  -0.00000  -0.00000  1
