CIF file written using JARVIS-Tools package.
data_K4TeP4H10O20
_symmetry_space_group_name_H-M  'C2/c'
_cell_length_a       7.46916
_cell_length_b       7.46916
_cell_length_c       16.9201
_cell_angle_alpha    84.3265
_cell_angle_beta     95.6735
_cell_angle_gamma    80.8484

_symmetry_Int_Tables_number  15
_chemical_formula_structural  K4TeP4H10O20
_chemical_formula_sum  K8Te2P8H20O40
_cell_volume  921.0356174952362
_cell_formula_units_Z  2
loop_
  _symmetry_equiv_pos_site_id
 _symmetry_equiv_pos_as_xyz
 1  'x, y, z'
loop_
 _atom_site_type_symbol
 _atom_site_label
 _atom_site_symmetry_multiplicity
 _atom_site_fract_x
 _atom_site_fract_y
 _atom_site_fract_z
 _atom_site_fract_occupancy
 H  H1  1  0.54942  0.10383  0.91911  1
 H  H2  1  0.20977  0.43023  0.52455  1
 H  H3  1  0.43023  0.20977  0.97545  1
 H  H4  1  0.89617  0.45058  0.41911  1
 H  H5  1  0.45058  0.89617  0.08089  1
 H  H6  1  0.10383  0.54942  0.58089  1
 H  H7  1  0.00189  0.73504  0.42408  1
 H  H8  1  0.73504  0.00189  0.07592  1
 H  H9  1  0.18796  0.13001  0.09730  1
 H  H10  1  0.26496  0.99811  0.92408  1
 H  H11  1  0.73408  0.02409  0.40186  1
 H  H12  1  0.02409  0.73408  0.09814  1
 H  H13  1  0.26592  0.97591  0.59814  1
 H  H14  1  0.97591  0.26592  0.90186  1
 H  H15  1  0.86999  0.81204  0.59730  1
 H  H16  1  0.81204  0.86999  0.90270  1
 H  H17  1  0.13001  0.18796  0.40270  1
 H  H18  1  0.99811  0.26496  0.57592  1
 H  H19  1  0.79023  0.56977  0.47545  1
 H  H20  1  0.56977  0.79023  0.02455  1
 K  K1  1  0.07650  0.07650  0.25000  1
 K  K2  1  0.20491  0.54765  0.93082  1
 K  K3  1  0.54765  0.20491  0.56918  1
 K  K4  1  0.79509  0.45235  0.06918  1
 K  K5  1  0.45235  0.79509  0.43082  1
 K  K6  1  0.29006  0.29006  0.75000  1
 K  K7  1  0.70994  0.70994  0.25000  1
 K  K8  1  0.92350  0.92350  0.75000  1
 O  O1  1  0.99425  0.25787  0.96216  1
 O  O2  1  0.99678  0.79262  0.57970  1
 O  O3  1  0.79262  0.99678  0.92030  1
 O  O4  1  0.57854  0.84230  0.07609  1
 O  O5  1  0.55642  0.35650  0.33001  1
 O  O6  1  0.20738  0.00322  0.07970  1
 O  O7  1  0.44358  0.64350  0.66999  1
 O  O8  1  0.27915  0.95690  0.69765  1
 O  O9  1  0.15770  0.42146  0.57609  1
 O  O10  1  0.00322  0.20738  0.42030  1
 O  O11  1  0.25787  0.99425  0.53784  1
 O  O12  1  0.16584  0.92173  0.92225  1
 O  O13  1  0.74213  0.00575  0.46216  1
 O  O14  1  0.35650  0.55642  0.16999  1
 O  O15  1  0.78413  0.53318  0.70395  1
 O  O16  1  0.53318  0.78413  0.79605  1
 O  O17  1  0.21587  0.46682  0.29605  1
 O  O18  1  0.46682  0.21587  0.20395  1
 O  O19  1  0.42146  0.15770  0.92391  1
 O  O20  1  0.07827  0.83416  0.42225  1
 O  O21  1  0.83416  0.07827  0.07775  1
 O  O22  1  0.92173  0.16584  0.57775  1
 O  O23  1  0.00575  0.74213  0.03784  1
 O  O24  1  0.34625  0.76606  0.27593  1
 O  O25  1  0.84280  0.67605  0.86967  1
 O  O26  1  0.23394  0.65375  0.77593  1
 O  O27  1  0.76606  0.34625  0.22407  1
 O  O28  1  0.32395  0.15720  0.36967  1
 O  O29  1  0.15720  0.32395  0.13033  1
 O  O30  1  0.44235  0.36522  0.05962  1
 O  O31  1  0.55765  0.63478  0.94038  1
 O  O32  1  0.36522  0.44235  0.44038  1
 O  O33  1  0.64350  0.44358  0.83001  1
 O  O34  1  0.63478  0.55765  0.55962  1
 O  O35  1  0.67605  0.84280  0.63033  1
 O  O36  1  0.72085  0.04310  0.30235  1
 O  O37  1  0.84230  0.57854  0.42391  1
 O  O38  1  0.65375  0.23394  0.72407  1
 O  O39  1  0.95690  0.27915  0.80235  1
 O  O40  1  0.04310  0.72085  0.19765  1
 P  P1  1  0.63479  0.65160  0.63333  1
 P  P2  1  0.65160  0.63479  0.86667  1
 P  P3  1  0.36521  0.34840  0.36667  1
 P  P4  1  0.76638  0.35495  0.76390  1
 P  P5  1  0.35495  0.76638  0.73610  1
 P  P6  1  0.23362  0.64505  0.23610  1
 P  P7  1  0.64505  0.23362  0.26390  1
 P  P8  1  0.34840  0.36521  0.13333  1
 Te  Te1  1  0.00000  0.00000  0.00000  1
 Te  Te2  1  -0.00000  0.00000  0.50000  1
