CIF file written using JARVIS-Tools package.
data_BaYPd2
_symmetry_space_group_name_H-M  'P4/mmm'
_cell_length_a       4.30565
_cell_length_b       4.30275
_cell_length_c       6.10564
_cell_angle_alpha    90
_cell_angle_beta     90
_cell_angle_gamma    90

_symmetry_Int_Tables_number  123
_chemical_formula_structural  BaYPd2
_chemical_formula_sum  BaYPd2
_cell_volume  113.11384233235141
_cell_formula_units_Z  1
loop_
  _symmetry_equiv_pos_site_id
 _symmetry_equiv_pos_as_xyz
 1  'x, y, z'
loop_
 _atom_site_type_symbol
 _atom_site_label
 _atom_site_symmetry_multiplicity
 _atom_site_fract_x
 _atom_site_fract_y
 _atom_site_fract_z
 _atom_site_fract_occupancy
 Ba  Ba1  1  0.50000  0.50000  0.87497  1
 Pd  Pd1  1  0.00000  0.00000  0.87506  1
 Pd  Pd2  1  0.50000  0.50000  0.37495  1
 Y  Y1  1  0.00000  0.00000  0.37502  1
