CIF file written using JARVIS-Tools package.
data_PPd6
_symmetry_space_group_name_H-M  'P2_1/c'
_cell_length_a       5.72522
_cell_length_b       8.31717
_cell_length_c       9.63477
_cell_angle_alpha    90
_cell_angle_beta     90
_cell_angle_gamma    110.401

_symmetry_Int_Tables_number  14
_chemical_formula_structural  PPd6
_chemical_formula_sum  P4Pd24
_cell_volume  430.00863590095275
_cell_formula_units_Z  4
loop_
  _symmetry_equiv_pos_site_id
 _symmetry_equiv_pos_as_xyz
 1  'x, y, z'
loop_
 _atom_site_type_symbol
 _atom_site_label
 _atom_site_symmetry_multiplicity
 _atom_site_fract_x
 _atom_site_fract_y
 _atom_site_fract_z
 _atom_site_fract_occupancy
 P  P1  1  0.12303  0.74912  0.75992  1
 P  P2  1  0.87697  0.75088  0.25992  1
 P  P3  1  0.87697  0.25088  0.24008  1
 P  P4  1  0.12303  0.24912  0.74008  1
 Pd  Pd1  1  0.47178  0.93271  0.86718  1
 Pd  Pd2  1  0.52822  0.56729  0.36718  1
 Pd  Pd3  1  0.52822  0.06729  0.13282  1
 Pd  Pd4  1  0.47178  0.43271  0.63282  1
 Pd  Pd5  1  0.22709  0.43322  0.13411  1
 Pd  Pd6  1  0.77291  0.06678  0.63411  1
 Pd  Pd7  1  0.77291  0.56678  0.86589  1
 Pd  Pd8  1  0.22709  0.93322  0.36589  1
 Pd  Pd9  1  0.28914  0.56462  0.86612  1
 Pd  Pd10  1  0.95744  0.43459  0.63493  1
 Pd  Pd11  1  0.71086  0.93538  0.36612  1
 Pd  Pd12  1  0.13430  0.24857  0.42130  1
 Pd  Pd13  1  0.71086  0.43538  0.13388  1
 Pd  Pd14  1  0.86570  0.25143  0.92130  1
 Pd  Pd15  1  0.86570  0.75143  0.57870  1
 Pd  Pd16  1  0.13430  0.74857  0.07870  1
 Pd  Pd17  1  0.38017  0.74806  0.57879  1
 Pd  Pd18  1  0.61983  0.75194  0.07879  1
 Pd  Pd19  1  0.61983  0.25194  0.42121  1
 Pd  Pd20  1  0.38017  0.24806  0.92121  1
 Pd  Pd21  1  0.04256  0.56541  0.36507  1
 Pd  Pd22  1  0.95744  0.93459  0.86507  1
 Pd  Pd23  1  0.28914  0.06462  0.63388  1
 Pd  Pd24  1  0.04256  0.06541  0.13493  1
