CIF file written using JARVIS-Tools package.
data_Sm3Ge5
_symmetry_space_group_name_H-M  'Fdd2'
_cell_length_a       5.87941
_cell_length_b       7.60266
_cell_length_c       9.29781
_cell_angle_alpha    82.976
_cell_angle_beta     71.5636
_cell_angle_gamma    67.2545

_symmetry_Int_Tables_number  43
_chemical_formula_structural  Sm3Ge5
_chemical_formula_sum  Sm6Ge0
_cell_volume  363.61110548543394
_cell_formula_units_Z  2
loop_
  _symmetry_equiv_pos_site_id
 _symmetry_equiv_pos_as_xyz
 1  'x, y, z'
loop_
 _atom_site_type_symbol
 _atom_site_label
 _atom_site_symmetry_multiplicity
 _atom_site_fract_x
 _atom_site_fract_y
 _atom_site_fract_z
 _atom_site_fract_occupancy
 Ge  Ge1  1  0.38855  0.68799  0.13589  1
 Ge  Ge2  1  0.92350  0.68796  0.86407  1
 Ge  Ge3  1  0.91627  0.82636  0.32559  1
 Ge  Ge4  1  0.03762  0.18794  0.63595  1
 Ge  Ge5  1  0.49184  0.32637  0.17441  1
 Ge  Ge6  1  0.44859  0.10278  0.00002  1
 Ge  Ge7  1  0.25741  0.82633  0.67442  1
 Ge  Ge8  1  0.77441  0.18798  0.36408  1
 Ge  Ge9  1  0.18182  0.32634  0.82559  1
 Ge  Ge10  1  0.69862  0.60275  0.49998  1
 Sm  Sm1  1  0.24939  0.50120  0.50001  1
 Sm  Sm2  1  0.66608  0.98635  0.66307  1
 Sm  Sm3  1  0.99940  0.00118  -0.00000  1
 Sm  Sm4  1  0.57914  0.48636  0.83692  1
 Sm  Sm5  1  0.34756  0.98635  0.33693  1
 Sm  Sm6  1  0.93449  0.48636  0.16307  1
