CIF file written using JARVIS-Tools package.
data_TiFeH2
_symmetry_space_group_name_H-M  'Cmmm'
_cell_length_a       2.63296
_cell_length_b       5.2134
_cell_length_c       5.21333
_cell_angle_alpha    83.2382
_cell_angle_beta     90
_cell_angle_gamma    90

_symmetry_Int_Tables_number  65
_chemical_formula_structural  TiFeH2
_chemical_formula_sum  Ti2Fe2H4
_cell_volume  71.06375805559145
_cell_formula_units_Z  2
loop_
  _symmetry_equiv_pos_site_id
 _symmetry_equiv_pos_as_xyz
 1  'x, y, z'
loop_
 _atom_site_type_symbol
 _atom_site_label
 _atom_site_symmetry_multiplicity
 _atom_site_fract_x
 _atom_site_fract_y
 _atom_site_fract_z
 _atom_site_fract_occupancy
 Fe  Fe1  1  0.00000  0.23251  0.73249  1
 Fe  Fe2  1  0.00000  0.76749  0.26751  1
 H  H1  1  0.00000  0.00000  0.00000  1
 H  H2  1  0.00000  0.00000  0.50000  1
 H  H3  1  0.00000  0.50000  0.50000  1
 H  H4  1  0.50000  0.50000  0.00000  1
 Ti  Ti1  1  0.00000  0.72255  0.77747  1
 Ti  Ti2  1  0.00000  0.27745  0.22253  1
