CIF file written using JARVIS-Tools package.
data_MgCu2O3
_symmetry_space_group_name_H-M  'Pmmn'
_cell_length_a       3.20373
_cell_length_b       4.06592
_cell_length_c       9.4413
_cell_angle_alpha    90
_cell_angle_beta     90
_cell_angle_gamma    90

_symmetry_Int_Tables_number  59
_chemical_formula_structural  MgCu2O3
_chemical_formula_sum  Mg2Cu4O6
_cell_volume  122.9834816842385
_cell_formula_units_Z  2
loop_
  _symmetry_equiv_pos_site_id
 _symmetry_equiv_pos_as_xyz
 1  'x, y, z'
loop_
 _atom_site_type_symbol
 _atom_site_label
 _atom_site_symmetry_multiplicity
 _atom_site_fract_x
 _atom_site_fract_y
 _atom_site_fract_z
 _atom_site_fract_occupancy
 Cu  Cu1  1  0.83907  0.75000  0.08654  1
 Cu  Cu2  1  0.83907  0.75000  0.41346  1
 Cu  Cu3  1  0.16093  0.25000  0.91346  1
 Cu  Cu4  1  0.16093  0.25000  0.58654  1
 Mg  Mg1  1  0.61569  0.75000  0.75000  1
 Mg  Mg2  1  0.38431  0.25000  0.25000  1
 O  O1  1  0.11023  0.75000  0.59782  1
 O  O2  1  0.11023  0.75000  0.90218  1
 O  O3  1  0.88977  0.25000  0.40218  1
 O  O4  1  0.48513  0.75000  0.25000  1
 O  O5  1  0.51487  0.25000  0.75000  1
 O  O6  1  0.88977  0.25000  0.09782  1
