CIF file written using JARVIS-Tools package.
data_BH2N
_symmetry_space_group_name_H-M  'P4_32_12'
_cell_length_a       5.27045
_cell_length_b       5.27045
_cell_length_c       16.1051
_cell_angle_alpha    90
_cell_angle_beta     90
_cell_angle_gamma    90

_symmetry_Int_Tables_number  96
_chemical_formula_structural  BH2N
_chemical_formula_sum  B2H24N2
_cell_volume  447.36133648043017
_cell_formula_units_Z  12
loop_
  _symmetry_equiv_pos_site_id
 _symmetry_equiv_pos_as_xyz
 1  'x, y, z'
loop_
 _atom_site_type_symbol
 _atom_site_label
 _atom_site_symmetry_multiplicity
 _atom_site_fract_x
 _atom_site_fract_y
 _atom_site_fract_z
 _atom_site_fract_occupancy
 B  B1  1  0.33981  0.56049  0.05909  1
 B  B2  1  0.66019  0.43951  0.55909  1
 B  B3  1  0.93951  0.83981  0.80909  1
 B  B4  1  0.06049  0.16019  0.30909  1
 B  B5  1  0.16019  0.06049  0.69091  1
 B  B6  1  0.65740  0.34260  0.25000  1
 B  B7  1  0.83981  0.93951  0.19091  1
 B  B8  1  0.43951  0.66019  0.44091  1
 B  B9  1  0.15740  0.15740  0.00000  1
 B  B10  1  0.84260  0.84260  0.50000  1
 B  B11  1  0.34260  0.65740  0.75000  1
 B  B12  1  0.56049  0.33981  0.94091  1
 H  H1  1  0.82849  0.76753  0.14233  1
 H  H2  1  0.17151  0.23247  0.64233  1
 H  H3  1  0.23247  0.17151  0.35767  1
 H  H4  1  0.76753  0.82849  0.85767  1
 H  H5  1  0.67151  0.26753  0.60767  1
 H  H6  1  0.17873  0.82127  0.25000  1
 H  H7  1  0.82127  0.17873  0.75000  1
 H  H8  1  0.32127  0.32127  0.50000  1
 H  H9  1  0.67873  0.67873  0.00000  1
 H  H10  1  0.73247  0.32849  0.89233  1
 H  H11  1  0.32849  0.73247  0.10767  1
 H  H12  1  0.26753  0.67151  0.39233  1
 H  H13  1  0.00419  0.37323  0.09895  1
 H  H14  1  0.62677  0.99581  0.40105  1
 H  H15  1  0.99581  0.62677  0.59895  1
 H  H16  1  0.49615  0.50385  0.25000  1
 H  H17  1  0.50385  0.49615  0.75000  1
 H  H18  1  0.00385  0.00385  0.50000  1
 H  H19  1  -0.00385  -0.00385  0.00000  1
 H  H20  1  0.37323  0.00419  0.90105  1
 H  H21  1  0.50419  0.12677  0.15105  1
 H  H22  1  0.49581  0.87323  0.65105  1
 H  H23  1  0.87323  0.49581  0.34895  1
 H  H24  1  0.12677  0.50419  0.84895  1
 N  N1  1  0.36304  0.15241  0.94171  1
 N  N2  1  0.45811  0.45811  0.50000  1
 N  N3  1  0.95811  0.04189  0.75000  1
 N  N4  1  0.04189  0.95811  0.25000  1
 N  N5  1  0.54189  0.54189  0.00000  1
 N  N6  1  0.65241  0.13696  0.19171  1
 N  N7  1  0.13696  0.65241  0.80829  1
 N  N8  1  0.86304  0.34759  0.30829  1
 N  N9  1  0.34759  0.86304  0.69171  1
 N  N10  1  0.15241  0.36304  0.05829  1
 N  N11  1  0.84759  0.63696  0.55829  1
 N  N12  1  0.63696  0.84759  0.44171  1
