CIF file written using JARVIS-Tools package.
data_TbCrB4
_symmetry_space_group_name_H-M  'Pbam'
_cell_length_a       3.47754
_cell_length_b       5.93078
_cell_length_c       11.463
_cell_angle_alpha    90
_cell_angle_beta     90
_cell_angle_gamma    90

_symmetry_Int_Tables_number  55
_chemical_formula_structural  TbCrB4
_chemical_formula_sum  Tb4Cr4B6
_cell_volume  236.41891223045837
_cell_formula_units_Z  4
loop_
  _symmetry_equiv_pos_site_id
 _symmetry_equiv_pos_as_xyz
 1  'x, y, z'
loop_
 _atom_site_type_symbol
 _atom_site_label
 _atom_site_symmetry_multiplicity
 _atom_site_fract_x
 _atom_site_fract_y
 _atom_site_fract_z
 _atom_site_fract_occupancy
 B  B1  1  0.50000  0.11301  0.45339  1
 B  B2  1  0.50000  0.27940  0.68368  1
 B  B3  1  0.50000  0.72060  0.31632  1
 B  B4  1  0.50000  0.22060  0.18368  1
 B  B5  1  0.50000  0.02530  0.30879  1
 B  B6  1  0.50000  0.36202  0.53257  1
 B  B7  1  0.50000  0.63798  0.46743  1
 B  B8  1  0.50000  0.77940  0.81632  1
 B  B9  1  0.50000  0.86202  0.96743  1
 B  B10  1  0.50000  0.38699  0.95339  1
 B  B11  1  0.50000  0.61301  0.04661  1
 B  B12  1  0.50000  0.97470  0.69121  1
 B  B13  1  0.50000  0.88699  0.54661  1
 B  B14  1  0.50000  0.47470  0.80879  1
 B  B15  1  0.50000  0.52530  0.19121  1
 B  B16  1  0.50000  0.13798  0.03257  1
 Cr  Cr1  1  0.00000  0.62114  0.92108  1
 Cr  Cr2  1  0.00000  0.37886  0.07892  1
 Cr  Cr3  1  0.00000  0.87886  0.42108  1
 Cr  Cr4  1  0.00000  0.12114  0.57892  1
 Tb  Tb1  1  0.00000  0.62381  0.65077  1
 Tb  Tb2  1  0.00000  0.37619  0.34923  1
 Tb  Tb3  1  0.00000  0.87619  0.15077  1
 Tb  Tb4  1  0.00000  0.12381  0.84923  1
