CIF file written using JARVIS-Tools package.
data_BaLiZr2F11
_symmetry_space_group_name_H-M  'I4/m'
_cell_length_a       8.11444
_cell_length_b       8.11443
_cell_length_c       8.11443
_cell_angle_alpha    91.6385
_cell_angle_beta     119.059
_cell_angle_gamma    119.058

_symmetry_Int_Tables_number  87
_chemical_formula_structural  BaLiZr2F11
_chemical_formula_sum  Ba2Li2Zr4F22
_cell_volume  383.0039384147098
_cell_formula_units_Z  2
loop_
  _symmetry_equiv_pos_site_id
 _symmetry_equiv_pos_as_xyz
 1  'x, y, z'
loop_
 _atom_site_type_symbol
 _atom_site_label
 _atom_site_symmetry_multiplicity
 _atom_site_fract_x
 _atom_site_fract_y
 _atom_site_fract_z
 _atom_site_fract_occupancy
 Ba  Ba1  1  0.00000  0.80491  0.80491  1
 Ba  Ba2  1  -0.00000  0.19509  0.19509  1
 F  F1  1  0.13363  0.32244  0.60109  1
 F  F2  1  0.69403  0.88299  0.81104  1
 F  F3  1  0.56539  0.51033  0.72485  1
 F  F4  1  0.21451  0.05506  0.48967  1
 F  F5  1  0.72134  0.18881  0.32244  1
 F  F6  1  0.27866  0.60109  0.46746  1
 F  F7  1  0.30597  0.11701  0.18896  1
 F  F8  1  0.13363  0.53254  0.81119  1
 F  F9  1  0.78549  0.27515  0.84054  1
 F  F10  1  0.21451  0.72485  0.15946  1
 F  F11  1  0.50000  -0.00000  0.50000  1
 F  F12  1  0.72134  0.39891  0.53254  1
 F  F13  1  0.07194  0.18896  0.88299  1
 F  F14  1  0.50000  0.50000  0.00000  1
 F  F15  1  0.78549  0.94494  0.51033  1
 F  F16  1  0.56539  0.84054  0.05506  1
 F  F17  1  0.86637  0.67756  0.39891  1
 F  F18  1  0.86637  0.46746  0.18881  1
 F  F19  1  0.27866  0.81119  0.67756  1
 F  F20  1  0.43461  0.48967  0.27515  1
 F  F21  1  0.92806  0.81104  0.11701  1
 F  F22  1  0.43461  0.15946  0.94494  1
 Li  Li1  1  0.50000  0.25000  0.75000  1
 Li  Li2  1  0.50000  0.75000  0.25000  1
 Zr  Zr1  1  0.57575  0.36150  0.21425  1
 Zr  Zr2  1  0.14725  0.78575  0.36150  1
 Zr  Zr3  1  0.42425  0.63850  0.78575  1
 Zr  Zr4  1  0.85275  0.21425  0.63850  1
