CIF file written using JARVIS-Tools package.
data_La3Cu4P4O2
_symmetry_space_group_name_H-M  'I4/mmm'
_cell_length_a       4.06749
_cell_length_b       4.0675
_cell_length_c       13.7757
_cell_angle_alpha    98.4898
_cell_angle_beta     98.4898
_cell_angle_gamma    90

_symmetry_Int_Tables_number  139
_chemical_formula_structural  La3Cu4P4O2
_chemical_formula_sum  La3Cu4P4O2
_cell_volume  222.8884315966144
_cell_formula_units_Z  1
loop_
  _symmetry_equiv_pos_site_id
 _symmetry_equiv_pos_as_xyz
 1  'x, y, z'
loop_
 _atom_site_type_symbol
 _atom_site_label
 _atom_site_symmetry_multiplicity
 _atom_site_fract_x
 _atom_site_fract_y
 _atom_site_fract_z
 _atom_site_fract_occupancy
 Cu  Cu1  1  0.40522  0.90522  0.81044  1
 Cu  Cu2  1  0.09478  0.59478  0.18956  1
 Cu  Cu3  1  0.59478  0.09478  0.18956  1
 Cu  Cu4  1  0.90522  0.40522  0.81044  1
 La  La1  1  0.29580  0.29580  0.59161  1
 La  La2  1  0.70420  0.70420  0.40839  1
 La  La3  1  0.00000  0.00000  0.00000  1
 O  O1  1  0.75000  0.25000  0.50000  1
 O  O2  1  0.25000  0.75000  0.50000  1
 P  P1  1  0.45783  0.45783  0.91566  1
 P  P2  1  0.13927  0.13927  0.27855  1
 P  P3  1  0.86073  0.86073  0.72145  1
 P  P4  1  0.54217  0.54217  0.08434  1
