CIF file written using JARVIS-Tools package.
data_ScAu4
_symmetry_space_group_name_H-M  'I4/m'
_cell_length_a       5.12373
_cell_length_b       5.12373
_cell_length_c       5.12373
_cell_angle_alpha    99.13
_cell_angle_beta     99.13
_cell_angle_gamma    133.051

_symmetry_Int_Tables_number  87
_chemical_formula_structural  ScAu4
_chemical_formula_sum  ScAu4
_cell_volume  90.15816042360314
_cell_formula_units_Z  1
loop_
  _symmetry_equiv_pos_site_id
 _symmetry_equiv_pos_as_xyz
 1  'x, y, z'
loop_
 _atom_site_type_symbol
 _atom_site_label
 _atom_site_symmetry_multiplicity
 _atom_site_fract_x
 _atom_site_fract_y
 _atom_site_fract_z
 _atom_site_fract_occupancy
 Au  Au1  1  0.39771  0.20359  0.60130  1
 Au  Au2  1  0.60229  0.79641  0.39870  1
 Au  Au3  1  0.20359  0.60229  0.80588  1
 Au  Au4  1  0.79641  0.39771  0.19412  1
 Sc  Sc1  1  0.00000  0.00000  0.00000  1
