CIF file written using JARVIS-Tools package.
data_Na2Bi5AuO11
_symmetry_space_group_name_H-M  'P4/mbm'
_cell_length_a       12.3876
_cell_length_b       12.3876
_cell_length_c       3.92553
_cell_angle_alpha    90
_cell_angle_beta     90
_cell_angle_gamma    90

_symmetry_Int_Tables_number  127
_chemical_formula_structural  Na2Bi5AuO11
_chemical_formula_sum  Na4Bi0Au2O22
_cell_volume  602.3831427194066
_cell_formula_units_Z  2
loop_
  _symmetry_equiv_pos_site_id
 _symmetry_equiv_pos_as_xyz
 1  'x, y, z'
loop_
 _atom_site_type_symbol
 _atom_site_label
 _atom_site_symmetry_multiplicity
 _atom_site_fract_x
 _atom_site_fract_y
 _atom_site_fract_z
 _atom_site_fract_occupancy
 Au  Au1  1  0.50000  0.50000  0.00000  1
 Au  Au2  1  0.00000  0.00000  0.00000  1
 Bi  Bi1  1  0.50000  0.00000  0.00000  1
 Bi  Bi2  1  0.22929  0.95209  0.50000  1
 Bi  Bi3  1  0.27071  0.45209  0.50000  1
 Bi  Bi4  1  0.45209  0.72929  0.50000  1
 Bi  Bi5  1  0.54791  0.27071  0.50000  1
 Bi  Bi6  1  0.77071  0.04791  0.50000  1
 Bi  Bi7  1  0.72929  0.54791  0.50000  1
 Bi  Bi8  1  0.95209  0.77071  0.50000  1
 Bi  Bi9  1  0.04791  0.22929  0.50000  1
 Bi  Bi10  1  0.00000  0.50000  0.00000  1
 Na  Na1  1  0.79439  0.29439  0.00000  1
 Na  Na2  1  0.70561  0.79439  0.00000  1
 Na  Na3  1  0.29439  0.20561  0.00000  1
 Na  Na4  1  0.20561  0.70561  0.00000  1
 O  O1  1  0.50000  0.00000  0.50000  1
 O  O2  1  0.00000  0.50000  0.50000  1
 O  O3  1  0.62077  0.61057  0.00000  1
 O  O4  1  0.82706  0.49644  0.00000  1
 O  O5  1  0.50356  0.82706  0.00000  1
 O  O6  1  0.49644  0.17294  0.00000  1
 O  O7  1  0.67294  0.99644  0.00000  1
 O  O8  1  0.32706  0.00356  0.00000  1
 O  O9  1  0.00356  0.67294  0.00000  1
 O  O10  1  0.17294  0.50356  0.00000  1
 O  O11  1  0.11057  0.12077  0.00000  1
 O  O12  1  0.12077  0.88943  0.00000  1
 O  O13  1  0.28776  0.78776  0.50000  1
 O  O14  1  0.38943  0.62077  0.00000  1
 O  O15  1  0.87923  0.11057  0.00000  1
 O  O16  1  0.61057  0.37923  0.00000  1
 O  O17  1  0.88943  0.87923  0.00000  1
 O  O18  1  0.99644  0.32706  0.00000  1
 O  O19  1  0.78776  0.71224  0.50000  1
 O  O20  1  0.21224  0.28776  0.50000  1
 O  O21  1  0.71224  0.21224  0.50000  1
 O  O22  1  0.37923  0.38943  0.00000  1
