CIF file written using JARVIS-Tools package.
data_MgSiH2O4
_symmetry_space_group_name_H-M  'Pm'
_cell_length_a       2.85276
_cell_length_b       4.32706
_cell_length_c       4.78731
_cell_angle_alpha    92.9297
_cell_angle_beta     90
_cell_angle_gamma    90

_symmetry_Int_Tables_number  6
_chemical_formula_structural  MgSiH2O4
_chemical_formula_sum  MgSiH2O4
_cell_volume  59.01764482752399
_cell_formula_units_Z  1
loop_
  _symmetry_equiv_pos_site_id
 _symmetry_equiv_pos_as_xyz
 1  'x, y, z'
loop_
 _atom_site_type_symbol
 _atom_site_label
 _atom_site_symmetry_multiplicity
 _atom_site_fract_x
 _atom_site_fract_y
 _atom_site_fract_z
 _atom_site_fract_occupancy
 H  H1  1  0.00000  0.02356  0.47997  1
 H  H2  1  0.50000  0.53839  0.03195  1
 Mg  Mg1  1  0.50000  0.49852  0.52615  1
 O  O1  1  0.00000  0.77112  0.69356  1
 O  O2  1  0.50000  0.75144  0.14443  1
 O  O3  1  0.00000  0.19986  0.33885  1
 O  O4  1  0.50000  0.22640  0.88950  1
 Si  Si1  1  0.00000  0.99921  0.99578  1
