CIF file written using JARVIS-Tools package.
data_Cr2O3
_symmetry_space_group_name_H-M  'R-3'
_cell_length_a       5.08236
_cell_length_b       5.54208
_cell_length_c       5.08236
_cell_angle_alpha    117.292
_cell_angle_beta     60
_cell_angle_gamma    117.292

_symmetry_Int_Tables_number  148
_chemical_formula_structural  Cr2O3
_chemical_formula_sum  Cr4O6
_cell_volume  105.17224048563854
_cell_formula_units_Z  2
loop_
  _symmetry_equiv_pos_site_id
 _symmetry_equiv_pos_as_xyz
 1  'x, y, z'
loop_
 _atom_site_type_symbol
 _atom_site_label
 _atom_site_symmetry_multiplicity
 _atom_site_fract_x
 _atom_site_fract_y
 _atom_site_fract_z
 _atom_site_fract_occupancy
 Cr  Cr1  1  0.00000  0.00000  0.00000  1
 Cr  Cr2  1  0.31171  0.93513  0.31171  1
 Cr  Cr3  1  0.50000  0.50000  0.50000  1
 Cr  Cr4  1  0.68829  0.06487  0.68829  1
 O  O1  1  0.28548  0.78165  0.60920  1
 O  O2  1  0.39080  0.21835  0.11303  1
 O  O3  1  0.11303  0.21835  0.71452  1
 O  O4  1  0.88697  0.78165  0.28548  1
 O  O5  1  0.60920  0.78165  0.88697  1
 O  O6  1  0.71452  0.21835  0.39080  1
