CIF file written using JARVIS-Tools package.
data_Nb2GaC
_symmetry_space_group_name_H-M  'P6_3/mmc'
_cell_length_a       3.17466
_cell_length_b       3.17466
_cell_length_c       13.5275
_cell_angle_alpha    90
_cell_angle_beta     90
_cell_angle_gamma    120

_symmetry_Int_Tables_number  194
_chemical_formula_structural  Nb2GaC
_chemical_formula_sum  Nb4Ga2C2
_cell_volume  118.07072625910018
_cell_formula_units_Z  2
loop_
  _symmetry_equiv_pos_site_id
 _symmetry_equiv_pos_as_xyz
 1  'x, y, z'
loop_
 _atom_site_type_symbol
 _atom_site_label
 _atom_site_symmetry_multiplicity
 _atom_site_fract_x
 _atom_site_fract_y
 _atom_site_fract_z
 _atom_site_fract_occupancy
 C  C1  1  0.00000  0.00000  0.50000  1
 C  C2  1  0.00000  0.00000  0.00000  1
 Ga  Ga1  1  0.66668  0.33332  0.25000  1
 Ga  Ga2  1  0.33332  0.66668  0.75000  1
 Nb  Nb1  1  0.66667  0.33333  0.59048  1
 Nb  Nb2  1  0.33333  0.66667  0.40952  1
 Nb  Nb3  1  0.33333  0.66667  0.09048  1
 Nb  Nb4  1  0.66667  0.33333  0.90952  1
