CIF file written using JARVIS-Tools package.
data_B4W
_symmetry_space_group_name_H-M  'P4/mbm'
_cell_length_a       6.96991
_cell_length_b       6.96991
_cell_length_c       3.94245
_cell_angle_alpha    90
_cell_angle_beta     90
_cell_angle_gamma    90

_symmetry_Int_Tables_number  127
_chemical_formula_structural  B4W
_chemical_formula_sum  B6W4
_cell_volume  191.5227875896536
_cell_formula_units_Z  4
loop_
  _symmetry_equiv_pos_site_id
 _symmetry_equiv_pos_as_xyz
 1  'x, y, z'
loop_
 _atom_site_type_symbol
 _atom_site_label
 _atom_site_symmetry_multiplicity
 _atom_site_fract_x
 _atom_site_fract_y
 _atom_site_fract_z
 _atom_site_fract_occupancy
 B  B1  1  0.00000  0.00000  0.19932  1
 B  B2  1  0.08816  0.41184  0.50000  1
 B  B3  1  0.50000  0.50000  0.80068  1
 B  B4  1  0.00000  0.00000  0.80068  1
 B  B5  1  0.50000  0.50000  0.19932  1
 B  B6  1  0.41184  0.91184  0.50000  1
 B  B7  1  0.58816  0.08816  0.50000  1
 B  B8  1  0.97540  0.81891  0.50000  1
 B  B9  1  0.91184  0.58816  0.50000  1
 B  B10  1  0.18109  0.97540  0.50000  1
 B  B11  1  0.81891  0.02460  0.50000  1
 B  B12  1  0.52460  0.31891  0.50000  1
 B  B13  1  0.47540  0.68109  0.50000  1
 B  B14  1  0.68109  0.52460  0.50000  1
 B  B15  1  0.31891  0.47540  0.50000  1
 B  B16  1  0.02460  0.18109  0.50000  1
 W  W1  1  0.11608  0.61608  0.00000  1
 W  W2  1  0.38392  0.11608  0.00000  1
 W  W3  1  0.88392  0.38392  0.00000  1
 W  W4  1  0.61608  0.88392  0.00000  1
