CIF file written using JARVIS-Tools package.
data_BaTa2Se
_symmetry_space_group_name_H-M  'I4/mmm'
_cell_length_a       6.57038
_cell_length_b       6.57038
_cell_length_c       6.57038
_cell_angle_alpha    142.654
_cell_angle_beta     142.654
_cell_angle_gamma    53.8452

_symmetry_Int_Tables_number  139
_chemical_formula_structural  BaTa2Se
_chemical_formula_sum  BaTa2Se
_cell_volume  103.69796173724725
_cell_formula_units_Z  1
loop_
  _symmetry_equiv_pos_site_id
 _symmetry_equiv_pos_as_xyz
 1  'x, y, z'
loop_
 _atom_site_type_symbol
 _atom_site_label
 _atom_site_symmetry_multiplicity
 _atom_site_fract_x
 _atom_site_fract_y
 _atom_site_fract_z
 _atom_site_fract_occupancy
 Ba  Ba1  1  0.25000  0.75000  0.50000  1
 Se  Se1  1  0.75000  0.25000  0.50000  1
 Ta  Ta1  1  0.00000  0.00000  0.00000  1
 Ta  Ta2  1  0.50000  0.50000  0.00000  1
