CIF file written using JARVIS-Tools package.
data_CeMg3
_symmetry_space_group_name_H-M  'Imm2'
_cell_length_a       3.05792
_cell_length_b       11.2305
_cell_length_c       5.97794
_cell_angle_alpha    90
_cell_angle_beta     90
_cell_angle_gamma    90

_symmetry_Int_Tables_number  44
_chemical_formula_structural  CeMg3
_chemical_formula_sum  Ce2Mg6
_cell_volume  205.29447835921377
_cell_formula_units_Z  2
loop_
  _symmetry_equiv_pos_site_id
 _symmetry_equiv_pos_as_xyz
 1  'x, y, z'
loop_
 _atom_site_type_symbol
 _atom_site_label
 _atom_site_symmetry_multiplicity
 _atom_site_fract_x
 _atom_site_fract_y
 _atom_site_fract_z
 _atom_site_fract_occupancy
 Ce  Ce1  1  0.00000  0.00000  0.32931  1
 Ce  Ce2  1  0.50000  0.50000  0.82931  1
 Mg  Mg1  1  0.50000  0.00000  0.82724  1
 Mg  Mg2  1  0.00000  0.24353  0.00506  1
 Mg  Mg3  1  0.50000  0.25647  0.50506  1
 Mg  Mg4  1  0.00000  0.50000  0.32724  1
 Mg  Mg5  1  0.50000  0.74353  0.50506  1
 Mg  Mg6  1  0.00000  0.75647  0.00506  1
