CIF file written using JARVIS-Tools package.
data_Ba4Na2CaTi3Si4S2O26
_symmetry_space_group_name_H-M  'P1'
_cell_length_a       5.46742
_cell_length_b       7.17086
_cell_length_c       14.76
_cell_angle_alpha    98.7659
_cell_angle_beta     94.7292
_cell_angle_gamma    89.9874

_symmetry_Int_Tables_number  1
_chemical_formula_structural  Ba4Na2CaTi3Si4S2O26
_chemical_formula_sum  Ba4Na2CaTi3Si4S2O26
_cell_volume  569.9286794148251
_cell_formula_units_Z  1
loop_
  _symmetry_equiv_pos_site_id
 _symmetry_equiv_pos_as_xyz
 1  'x, y, z'
loop_
 _atom_site_type_symbol
 _atom_site_label
 _atom_site_symmetry_multiplicity
 _atom_site_fract_x
 _atom_site_fract_y
 _atom_site_fract_z
 _atom_site_fract_occupancy
 Ba  Ba1  1  0.41506  0.16783  0.61890  1
 Ba  Ba2  1  0.93305  0.70492  0.70519  1
 Ba  Ba3  1  0.00152  0.99645  0.01628  1
 Ba  Ba4  1  0.48323  0.45824  0.93033  1
 Ca  Ca1  1  0.20977  0.85686  0.31749  1
 Na  Na1  1  0.70885  0.57714  0.31773  1
 Na  Na2  1  0.20790  0.31783  0.31812  1
 O  O1  1  0.45117  0.09609  0.39323  1
 O  O2  1  0.76229  0.32309  0.08179  1
 O  O3  1  0.04760  0.56274  0.23142  1
 O  O4  1  0.97619  0.31275  0.89819  1
 O  O5  1  0.87049  0.32409  0.39857  1
 O  O6  1  0.65422  0.84137  0.55541  1
 O  O7  1  0.14327  0.84186  0.55375  1
 O  O8  1  0.65315  0.46752  0.55671  1
 O  O9  1  0.76365  0.69594  0.07695  1
 O  O10  1  0.87084  0.88935  0.39767  1
 O  O11  1  0.14511  0.46679  0.55580  1
 O  O12  1  0.47163  0.08147  0.87965  1
 O  O13  1  0.94391  0.08176  0.75612  1
 O  O14  1  0.90000  0.15354  0.55102  1
 O  O15  1  0.27307  0.32229  0.08255  1
 O  O16  1  0.69239  0.78524  0.87211  1
 O  O17  1  0.27188  0.69692  0.07878  1
 O  O18  1  0.36896  0.61187  0.40381  1
 O  O19  1  0.43958  0.85092  0.73739  1
 O  O20  1  0.24787  0.78514  0.87233  1
 O  O21  1  0.16829  0.37780  0.76317  1
 O  O22  1  0.51688  0.01087  0.08451  1
 O  O23  1  0.96733  0.05133  0.24300  1
 O  O24  1  0.72382  0.37824  0.76330  1
 O  O25  1  0.54615  0.27368  0.23890  1
 O  O26  1  0.54662  0.83839  0.23586  1
 S  S1  1  0.46288  0.88015  0.84053  1
 S  S2  1  0.95309  0.28313  0.79501  1
 Si  Si1  1  0.88742  0.35846  0.50920  1
 Si  Si2  1  0.53071  0.80494  0.12538  1
 Si  Si3  1  0.88582  0.92287  0.50803  1
 Si  Si4  1  0.52937  0.24109  0.12841  1
 Ti  Ti1  1  0.02552  0.52069  0.11488  1
 Ti  Ti2  1  0.70921  0.09366  0.31805  1
 Ti  Ti3  1  0.39102  0.64359  0.52038  1
