CIF file written using JARVIS-Tools package.
data_NaCoPO4
_symmetry_space_group_name_H-M  'P2_1/c'
_cell_length_a       5.22715
_cell_length_b       7.43863
_cell_length_c       9.9439
_cell_angle_alpha    90
_cell_angle_beta     90
_cell_angle_gamma    90.3123

_symmetry_Int_Tables_number  14
_chemical_formula_structural  NaCoPO4
_chemical_formula_sum  Na4Co4P4O6
_cell_volume  386.64171127805554
_cell_formula_units_Z  4
loop_
  _symmetry_equiv_pos_site_id
 _symmetry_equiv_pos_as_xyz
 1  'x, y, z'
loop_
 _atom_site_type_symbol
 _atom_site_label
 _atom_site_symmetry_multiplicity
 _atom_site_fract_x
 _atom_site_fract_y
 _atom_site_fract_z
 _atom_site_fract_occupancy
 Co  Co1  1  0.80094  0.49423  0.67098  1
 Co  Co2  1  0.69906  0.00577  0.17098  1
 Co  Co3  1  0.30094  0.99423  0.82902  1
 Co  Co4  1  0.19906  0.50577  0.32902  1
 Na  Na1  1  0.71192  0.51485  0.11857  1
 Na  Na2  1  0.21192  0.01485  0.38143  1
 Na  Na3  1  0.28808  0.48515  0.88143  1
 Na  Na4  1  0.78808  0.98515  0.61857  1
 O  O1  1  0.90438  0.79484  0.12924  1
 O  O2  1  0.40438  0.29484  0.37076  1
 O  O3  1  0.34067  0.92838  0.17129  1
 O  O4  1  0.75721  0.21411  0.05746  1
 O  O5  1  0.77824  0.08552  0.36008  1
 O  O6  1  0.84067  0.42838  0.32871  1
 O  O7  1  0.27824  0.58552  0.13992  1
 O  O8  1  0.25721  0.71411  0.44254  1
 O  O9  1  0.59562  0.70516  0.62924  1
 O  O10  1  0.74279  0.28589  0.55746  1
 O  O11  1  0.09562  0.20516  0.87076  1
 O  O12  1  0.24279  0.78589  0.94254  1
 O  O13  1  0.65933  0.07162  0.82871  1
 O  O14  1  0.22176  0.91448  0.63992  1
 O  O15  1  0.15933  0.57162  0.67129  1
 O  O16  1  0.72176  0.41448  0.86008  1
 P  P1  1  0.30656  0.72124  0.59604  1
 P  P2  1  0.19344  0.77876  0.09604  1
 P  P3  1  0.69344  0.27876  0.40396  1
 P  P4  1  0.80656  0.22124  0.90396  1
