CIF file written using JARVIS-Tools package.
data_MgSiO3
_symmetry_space_group_name_H-M  'Pna2_1'
_cell_length_a       5.49235
_cell_length_b       8.43422
_cell_length_c       9.55
_cell_angle_alpha    90
_cell_angle_beta     90
_cell_angle_gamma    90

_symmetry_Int_Tables_number  33
_chemical_formula_structural  MgSiO3
_chemical_formula_sum  Mg8Si8O24
_cell_volume  442.39077566114565
_cell_formula_units_Z  8
loop_
  _symmetry_equiv_pos_site_id
 _symmetry_equiv_pos_as_xyz
 1  'x, y, z'
loop_
 _atom_site_type_symbol
 _atom_site_label
 _atom_site_symmetry_multiplicity
 _atom_site_fract_x
 _atom_site_fract_y
 _atom_site_fract_z
 _atom_site_fract_occupancy
 Mg  Mg1  1  -0.01760  0.89292  0.69468  1
 Mg  Mg2  1  0.94259  0.62536  0.53717  1
 Mg  Mg3  1  0.01760  0.10708  0.19468  1
 Mg  Mg4  1  0.51760  0.39292  0.19468  1
 Mg  Mg5  1  0.05741  0.37464  0.03717  1
 Mg  Mg6  1  0.55741  0.12536  0.03717  1
 Mg  Mg7  1  0.48240  0.60708  0.69468  1
 Mg  Mg8  1  0.44259  0.87464  0.53717  1
 O  O1  1  0.47440  0.71091  0.90517  1
 O  O2  1  0.02958  0.24111  0.84019  1
 O  O3  1  0.21051  0.72723  0.62928  1
 O  O4  1  0.73447  0.65438  0.13556  1
 O  O5  1  0.52560  0.28909  0.40517  1
 O  O6  1  0.47042  0.74111  0.34019  1
 O  O7  1  0.26553  0.34562  0.63556  1
 O  O8  1  0.71051  0.77277  0.62928  1
 O  O9  1  0.97042  0.75889  0.34019  1
 O  O10  1  0.25450  0.04522  0.63680  1
 O  O11  1  0.82285  0.49199  0.90027  1
 O  O12  1  0.17715  0.50801  0.40027  1
 O  O13  1  0.28949  0.22723  0.12928  1
 O  O14  1  0.67715  0.99199  0.40027  1
 O  O15  1  0.23447  0.84562  0.13556  1
 O  O16  1  0.76553  0.15438  0.63556  1
 O  O17  1  0.32285  0.00801  0.90027  1
 O  O18  1  0.74550  0.95478  0.13680  1
 O  O19  1  -0.02560  0.78909  0.90517  1
 O  O20  1  0.52958  0.25889  0.84019  1
 O  O21  1  0.24550  0.54522  0.13680  1
 O  O22  1  0.02560  0.21091  0.40517  1
 O  O23  1  0.78949  0.27277  0.12928  1
 O  O24  1  0.75450  0.45478  0.63680  1
 Si  Si1  1  0.21494  0.68088  0.25627  1
 Si  Si2  1  0.78506  0.31912  0.75627  1
 Si  Si3  1  0.71494  0.81912  0.25627  1
 Si  Si4  1  0.28506  0.18088  0.75627  1
 Si  Si5  1  0.75436  0.66406  0.96461  1
 Si  Si6  1  0.74564  0.16406  0.46461  1
 Si  Si7  1  0.24564  0.33594  0.46461  1
 Si  Si8  1  0.25436  0.83594  0.96461  1
