CIF file written using JARVIS-Tools package.
data_LiMgAsO4
_symmetry_space_group_name_H-M  'Pnma'
_cell_length_a       4.91594
_cell_length_b       5.98697
_cell_length_c       10.4804
_cell_angle_alpha    90
_cell_angle_beta     90
_cell_angle_gamma    90

_symmetry_Int_Tables_number  62
_chemical_formula_structural  LiMgAsO4
_chemical_formula_sum  Li4Mg4As4O6
_cell_volume  308.4534926441236
_cell_formula_units_Z  4
loop_
  _symmetry_equiv_pos_site_id
 _symmetry_equiv_pos_as_xyz
 1  'x, y, z'
loop_
 _atom_site_type_symbol
 _atom_site_label
 _atom_site_symmetry_multiplicity
 _atom_site_fract_x
 _atom_site_fract_y
 _atom_site_fract_z
 _atom_site_fract_occupancy
 As  As1  1  0.56555  0.25000  0.09321  1
 As  As2  1  0.43445  0.75000  0.90679  1
 As  As3  1  0.93445  0.25000  0.59321  1
 As  As4  1  0.06555  0.75000  0.40679  1
 Li  Li1  1  0.00000  0.00000  0.00000  1
 Li  Li2  1  0.50000  0.50000  0.50000  1
 Li  Li3  1  0.00000  0.50000  0.00000  1
 Li  Li4  1  0.50000  0.00000  0.50000  1
 Mg  Mg1  1  0.49267  0.25000  0.77367  1
 Mg  Mg2  1  0.00733  0.25000  0.27367  1
 Mg  Mg3  1  0.50733  0.75000  0.22633  1
 Mg  Mg4  1  0.99267  0.75000  0.72633  1
 O  O1  1  0.70679  0.25000  0.94299  1
 O  O2  1  0.78143  0.75000  0.90371  1
 O  O3  1  0.27578  0.52905  0.82957  1
 O  O4  1  0.21857  0.25000  0.09629  1
 O  O5  1  0.71857  0.75000  0.40371  1
 O  O6  1  0.20679  0.75000  0.55701  1
 O  O7  1  0.28143  0.25000  0.59629  1
 O  O8  1  0.72422  0.02905  0.17043  1
 O  O9  1  0.27578  0.97095  0.82957  1
 O  O10  1  0.77578  0.02905  0.67043  1
 O  O11  1  0.72422  0.47095  0.17043  1
 O  O12  1  0.22422  0.52905  0.32957  1
 O  O13  1  0.79321  0.25000  0.44299  1
 O  O14  1  0.22422  0.97095  0.32957  1
 O  O15  1  0.29321  0.75000  0.05701  1
 O  O16  1  0.77578  0.47095  0.67043  1
