CIF file written using JARVIS-Tools package.
data_CaSiBHO5
_symmetry_space_group_name_H-M  'P2_1/c'
_cell_length_a       4.8426
_cell_length_b       7.6426
_cell_length_c       9.70667
_cell_angle_alpha    90
_cell_angle_beta     90.225
_cell_angle_gamma    90

_symmetry_Int_Tables_number  14
_chemical_formula_structural  CaSiBHO5
_chemical_formula_sum  Ca4Si4B4H4O20
_cell_volume  359.2420934067429
_cell_formula_units_Z  4
loop_
  _symmetry_equiv_pos_site_id
 _symmetry_equiv_pos_as_xyz
 1  'x, y, z'
loop_
 _atom_site_type_symbol
 _atom_site_label
 _atom_site_symmetry_multiplicity
 _atom_site_fract_x
 _atom_site_fract_y
 _atom_site_fract_z
 _atom_site_fract_occupancy
 B  B1  1  0.42842  0.58863  0.65903  1
 B  B2  1  0.57158  0.08863  0.84097  1
 B  B3  1  0.57158  0.41137  0.34097  1
 B  B4  1  0.42842  0.91137  0.15903  1
 Ca  Ca1  1  0.99198  0.39373  0.83644  1
 Ca  Ca2  1  0.99198  0.10627  0.33644  1
 Ca  Ca3  1  0.00802  0.60627  0.16356  1
 Ca  Ca4  1  0.00802  0.89373  0.66356  1
 H  H1  1  0.18998  0.03513  0.92263  1
 H  H2  1  0.81002  0.53513  0.57737  1
 H  H3  1  0.81002  0.96487  0.07737  1
 H  H4  1  0.18998  0.46487  0.42263  1
 O  O1  1  0.24171  0.09546  0.53598  1
 O  O2  1  0.32592  0.69758  0.54236  1
 O  O3  1  0.67408  0.19758  0.95764  1
 O  O4  1  0.67408  0.30242  0.45764  1
 O  O5  1  0.26100  0.08626  0.83669  1
 O  O6  1  0.75829  0.59546  0.96402  1
 O  O7  1  0.67831  0.16473  0.71120  1
 O  O8  1  0.75829  0.90454  0.46402  1
 O  O9  1  0.24171  0.40454  0.03598  1
 O  O10  1  0.32592  0.80242  0.04236  1
 O  O11  1  0.32169  0.83527  0.28880  1
 O  O12  1  0.26100  0.41374  0.33669  1
 O  O13  1  0.31263  0.41101  0.64571  1
 O  O14  1  0.31263  0.08899  0.14571  1
 O  O15  1  0.68737  0.58899  0.35429  1
 O  O16  1  0.73900  0.91374  0.16331  1
 O  O17  1  0.32169  0.66473  0.78880  1
 O  O18  1  0.67831  0.33527  0.21120  1
 O  O19  1  0.68737  0.91101  0.85429  1
 O  O20  1  0.73900  0.58626  0.66331  1
 Si  Si1  1  0.52926  0.76758  0.41594  1
 Si  Si2  1  0.47074  0.26758  0.08406  1
 Si  Si3  1  0.47074  0.23242  0.58406  1
 Si  Si4  1  0.52926  0.73242  0.91594  1
