CIF file written using JARVIS-Tools package.
data_BaSrTi2
_symmetry_space_group_name_H-M  'P4/mmm'
_cell_length_a       4.23171
_cell_length_b       4.23171
_cell_length_c       7.43685
_cell_angle_alpha    90
_cell_angle_beta     90
_cell_angle_gamma    90

_symmetry_Int_Tables_number  123
_chemical_formula_structural  BaSrTi2
_chemical_formula_sum  BaSrTi2
_cell_volume  133.17457127182567
_cell_formula_units_Z  1
loop_
  _symmetry_equiv_pos_site_id
 _symmetry_equiv_pos_as_xyz
 1  'x, y, z'
loop_
 _atom_site_type_symbol
 _atom_site_label
 _atom_site_symmetry_multiplicity
 _atom_site_fract_x
 _atom_site_fract_y
 _atom_site_fract_z
 _atom_site_fract_occupancy
 Ba  Ba1  1  0.50000  0.50000  0.00000  1
 Sr  Sr1  1  0.50000  0.50000  0.50000  1
 Ti  Ti1  1  0.00000  0.00000  0.79885  1
 Ti  Ti2  1  0.00000  0.00000  0.20115  1
