CIF file written using JARVIS-Tools package.
data_MnIn2Te4
_symmetry_space_group_name_H-M  'I-42m'
_cell_length_a       6.2681
_cell_length_b       6.2681
_cell_length_c       7.63741
_cell_angle_alpha    114.225
_cell_angle_beta     114.225
_cell_angle_gamma    90.0058

_symmetry_Int_Tables_number  121
_chemical_formula_structural  MnIn2Te4
_chemical_formula_sum  MnIn2Te4
_cell_volume  244.37403631548383
_cell_formula_units_Z  1
loop_
  _symmetry_equiv_pos_site_id
 _symmetry_equiv_pos_as_xyz
 1  'x, y, z'
loop_
 _atom_site_type_symbol
 _atom_site_label
 _atom_site_symmetry_multiplicity
 _atom_site_fract_x
 _atom_site_fract_y
 _atom_site_fract_z
 _atom_site_fract_occupancy
 In  In1  1  0.25002  0.75003  0.50000  1
 In  In2  1  0.75003  0.25002  0.50000  1
 Mn  Mn1  1  0.99994  0.99994  -0.00006  1
 Te  Te1  1  0.16125  0.62461  0.78582  1
 Te  Te2  1  0.37539  0.37539  0.21422  1
 Te  Te3  1  0.62461  0.16125  0.78582  1
 Te  Te4  1  0.83876  0.83876  0.21421  1
