CIF file written using JARVIS-Tools package.
data_CaSb2
_symmetry_space_group_name_H-M  'P2_1/m'
_cell_length_a       4.31533
_cell_length_b       4.64614
_cell_length_c       8.89188
_cell_angle_alpha    105.605
_cell_angle_beta     90
_cell_angle_gamma    90

_symmetry_Int_Tables_number  11
_chemical_formula_structural  CaSb2
_chemical_formula_sum  Ca2Sb4
_cell_volume  171.7071993537685
_cell_formula_units_Z  2
loop_
  _symmetry_equiv_pos_site_id
 _symmetry_equiv_pos_as_xyz
 1  'x, y, z'
loop_
 _atom_site_type_symbol
 _atom_site_label
 _atom_site_symmetry_multiplicity
 _atom_site_fract_x
 _atom_site_fract_y
 _atom_site_fract_z
 _atom_site_fract_occupancy
 Ca  Ca1  1  0.25000  0.88662  0.29076  1
 Ca  Ca2  1  0.75000  0.11338  0.70924  1
 Sb  Sb1  1  0.25000  0.24082  0.01373  1
 Sb  Sb2  1  0.75000  0.75918  0.98627  1
 Sb  Sb3  1  0.25000  0.56818  0.62186  1
 Sb  Sb4  1  0.75000  0.43182  0.37814  1
