CIF file written using JARVIS-Tools package.
data_Fe3Se4
_symmetry_space_group_name_H-M  'C2/m'
_cell_length_a       3.46467
_cell_length_b       6.06824
_cell_length_c       6.35977
_cell_angle_alpha    115.834
_cell_angle_beta     105.806
_cell_angle_gamma    90

_symmetry_Int_Tables_number  12
_chemical_formula_structural  Fe3Se4
_chemical_formula_sum  Fe3Se4
_cell_volume  114.70487503877249
_cell_formula_units_Z  1
loop_
  _symmetry_equiv_pos_site_id
 _symmetry_equiv_pos_as_xyz
 1  'x, y, z'
loop_
 _atom_site_type_symbol
 _atom_site_label
 _atom_site_symmetry_multiplicity
 _atom_site_fract_x
 _atom_site_fract_y
 _atom_site_fract_z
 _atom_site_fract_occupancy
 Fe  Fe1  1  0.50000  0.50000  -0.00000  1
 Fe  Fe2  1  0.23851  0.19319  0.47701  1
 Fe  Fe3  1  0.76149  0.80681  0.52299  1
 Se  Se1  1  0.86442  0.52221  0.72885  1
 Se  Se2  1  0.13558  0.47779  0.27115  1
 Se  Se3  1  0.39088  0.05606  0.78176  1
 Se  Se4  1  0.60912  0.94394  0.21824  1
