CIF file written using JARVIS-Tools package.
data_ZrGaRh
_symmetry_space_group_name_H-M  'P-62m'
_cell_length_a       3.42851
_cell_length_b       7.21177
_cell_length_c       7.21187
_cell_angle_alpha    119.999
_cell_angle_beta     90
_cell_angle_gamma    90

_symmetry_Int_Tables_number  189
_chemical_formula_structural  ZrGaRh
_chemical_formula_sum  Zr3Ga3Rh3
_cell_volume  154.4288205060342
_cell_formula_units_Z  3
loop_
  _symmetry_equiv_pos_site_id
 _symmetry_equiv_pos_as_xyz
 1  'x, y, z'
loop_
 _atom_site_type_symbol
 _atom_site_label
 _atom_site_symmetry_multiplicity
 _atom_site_fract_x
 _atom_site_fract_y
 _atom_site_fract_z
 _atom_site_fract_occupancy
 Ga  Ga1  1  0.00000  0.26888  0.00000  1
 Ga  Ga2  1  0.00000  0.73109  0.73110  1
 Ga  Ga3  1  0.00000  -0.00001  0.26890  1
 Rh  Rh1  1  0.00000  0.33332  0.66667  1
 Rh  Rh2  1  0.00000  0.66666  0.33333  1
 Rh  Rh3  1  0.50000  -0.00001  0.00000  1
 Zr  Zr1  1  0.50000  0.60259  0.00000  1
 Zr  Zr2  1  0.50000  0.39739  0.39740  1
 Zr  Zr3  1  0.50000  0.99999  0.60260  1
