CIF file written using JARVIS-Tools package.
data_TiCuNi2
_symmetry_space_group_name_H-M  'Pmmn'
_cell_length_a       4.23831
_cell_length_b       4.4244
_cell_length_c       5.19164
_cell_angle_alpha    90
_cell_angle_beta     90
_cell_angle_gamma    90

_symmetry_Int_Tables_number  59
_chemical_formula_structural  TiCuNi2
_chemical_formula_sum  Ti2Cu2Ni4
_cell_volume  97.35361996181152
_cell_formula_units_Z  2
loop_
  _symmetry_equiv_pos_site_id
 _symmetry_equiv_pos_as_xyz
 1  'x, y, z'
loop_
 _atom_site_type_symbol
 _atom_site_label
 _atom_site_symmetry_multiplicity
 _atom_site_fract_x
 _atom_site_fract_y
 _atom_site_fract_z
 _atom_site_fract_occupancy
 Cu  Cu1  1  0.25000  0.69032  0.75000  1
 Cu  Cu2  1  0.75000  0.30968  0.25000  1
 Ni  Ni1  1  0.75000  0.82479  0.99919  1
 Ni  Ni2  1  0.75000  0.82479  0.50081  1
 Ni  Ni3  1  0.25000  0.17521  0.00081  1
 Ni  Ni4  1  0.25000  0.17521  0.49919  1
 Ti  Ti1  1  0.75000  0.32964  0.75000  1
 Ti  Ti2  1  0.25000  0.67036  0.25000  1
