CIF file written using JARVIS-Tools package.
data_LuAgS2
_symmetry_space_group_name_H-M  'P1'
_cell_length_a       5.32876
_cell_length_b       5.3266
_cell_length_c       6.9985
_cell_angle_alpha    112.225
_cell_angle_beta     112.209
_cell_angle_gamma    90.0376

_symmetry_Int_Tables_number  1
_chemical_formula_structural  LuAgS2
_chemical_formula_sum  Lu2Ag2S4
_cell_volume  167.83706274918384
_cell_formula_units_Z  2
loop_
  _symmetry_equiv_pos_site_id
 _symmetry_equiv_pos_as_xyz
 1  'x, y, z'
loop_
 _atom_site_type_symbol
 _atom_site_label
 _atom_site_symmetry_multiplicity
 _atom_site_fract_x
 _atom_site_fract_y
 _atom_site_fract_z
 _atom_site_fract_occupancy
 Ag  Ag1  1  0.54104  0.50452  0.05825  1
 Ag  Ag2  1  0.75259  0.28768  0.55887  1
 Lu  Lu1  1  0.99434  -0.00526  -0.01547  1
 Lu  Lu2  1  0.24755  0.74217  0.48459  1
 S  S1  1  0.20503  0.21771  0.43381  1
 S  S2  1  0.76688  0.77070  0.52754  1
 S  S3  1  0.02424  0.51445  0.02758  1
 S  S4  1  0.47017  0.95492  0.93389  1
