CIF file written using JARVIS-Tools package.
data_K2FeH4S2O10
_symmetry_space_group_name_H-M  'P-1'
_cell_length_a       7.22991
_cell_length_b       10.8265
_cell_length_c       6.45942
_cell_angle_alpha    109.056
_cell_angle_beta     110.111
_cell_angle_gamma    95.1515

_symmetry_Int_Tables_number  2
_chemical_formula_structural  K2FeH4S2O10
_chemical_formula_sum  K4Fe2H8S4O20
_cell_volume  436.9785549179028
_cell_formula_units_Z  2
loop_
  _symmetry_equiv_pos_site_id
 _symmetry_equiv_pos_as_xyz
 1  'x, y, z'
loop_
 _atom_site_type_symbol
 _atom_site_label
 _atom_site_symmetry_multiplicity
 _atom_site_fract_x
 _atom_site_fract_y
 _atom_site_fract_z
 _atom_site_fract_occupancy
 Fe  Fe1  1  0.47304  0.75005  0.49851  1
 Fe  Fe2  1  0.52696  0.24995  0.50149  1
 H  H1  1  0.84878  0.85838  0.62460  1
 H  H2  1  0.17970  0.29917  0.43715  1
 H  H3  1  0.15122  0.14162  0.37540  1
 H  H4  1  0.82030  0.70083  0.56285  1
 H  H5  1  0.07362  0.71406  0.36948  1
 H  H6  1  0.82789  0.20516  0.34386  1
 H  H7  1  0.17211  0.79484  0.65614  1
 H  H8  1  0.92638  0.28594  0.63052  1
 K  K1  1  0.74643  0.90090  0.18910  1
 K  K2  1  0.23812  0.57550  0.81283  1
 K  K3  1  0.25357  0.09910  0.81090  1
 K  K4  1  0.76188  0.42450  0.18717  1
 O  O1  1  0.40931  0.32040  0.21743  1
 O  O2  1  0.18938  0.72937  0.51871  1
 O  O3  1  0.56627  0.95408  0.76208  1
 O  O4  1  0.14164  0.87866  0.91544  1
 O  O5  1  0.85836  0.12134  0.08456  1
 O  O6  1  0.15392  0.95822  0.32097  1
 O  O7  1  0.84608  0.04178  0.67903  1
 O  O8  1  0.37733  0.81483  0.21201  1
 O  O9  1  0.62267  0.18517  0.78799  1
 O  O10  1  0.43373  0.04592  0.23792  1
 O  O11  1  0.59984  0.45108  0.75645  1
 O  O12  1  0.16531  0.42876  0.35086  1
 O  O13  1  0.77053  0.76983  0.49963  1
 O  O14  1  0.40016  0.54892  0.24355  1
 O  O15  1  0.22947  0.23017  0.50037  1
 O  O16  1  0.12500  0.36392  0.93593  1
 O  O17  1  0.87500  0.63608  0.06407  1
 O  O18  1  0.59069  0.67960  0.78257  1
 O  O19  1  0.83469  0.57124  0.64914  1
 O  O20  1  0.81062  0.27063  0.48129  1
 S  S1  1  0.27102  0.41586  0.18653  1
 S  S2  1  0.72898  0.58414  0.81347  1
 S  S3  1  0.72674  0.07505  0.82679  1
 S  S4  1  0.27326  0.92495  0.17321  1
