CIF file written using JARVIS-Tools package.
data_InPd3
_symmetry_space_group_name_H-M  'I4/mmm'
_cell_length_a       4.11948
_cell_length_b       4.11948
_cell_length_c       8.25754
_cell_angle_alpha    104.444
_cell_angle_beta     104.444
_cell_angle_gamma    90

_symmetry_Int_Tables_number  139
_chemical_formula_structural  InPd3
_chemical_formula_sum  In2Pd6
_cell_volume  131.1227091244378
_cell_formula_units_Z  2
loop_
  _symmetry_equiv_pos_site_id
 _symmetry_equiv_pos_as_xyz
 1  'x, y, z'
loop_
 _atom_site_type_symbol
 _atom_site_label
 _atom_site_symmetry_multiplicity
 _atom_site_fract_x
 _atom_site_fract_y
 _atom_site_fract_z
 _atom_site_fract_occupancy
 In  In1  1  0.87491  0.87491  0.74982  1
 In  In2  1  0.12509  0.12509  0.25018  1
 Pd  Pd1  1  0.50000  0.00000  0.00000  1
 Pd  Pd2  1  0.00000  0.50000  0.00000  1
 Pd  Pd3  1  0.25000  0.75000  0.50000  1
 Pd  Pd4  1  0.75000  0.25000  0.50000  1
 Pd  Pd5  1  0.62584  0.62584  0.25169  1
 Pd  Pd6  1  0.37416  0.37416  0.74831  1
