CIF file written using JARVIS-Tools package.
data_SrCu2O3
_symmetry_space_group_name_H-M  'Pmmn'
_cell_length_a       3.50777
_cell_length_b       3.97619
_cell_length_c       11.5891
_cell_angle_alpha    90
_cell_angle_beta     90
_cell_angle_gamma    90

_symmetry_Int_Tables_number  59
_chemical_formula_structural  SrCu2O3
_chemical_formula_sum  Sr2Cu4O6
_cell_volume  161.63910083281843
_cell_formula_units_Z  2
loop_
  _symmetry_equiv_pos_site_id
 _symmetry_equiv_pos_as_xyz
 1  'x, y, z'
loop_
 _atom_site_type_symbol
 _atom_site_label
 _atom_site_symmetry_multiplicity
 _atom_site_fract_x
 _atom_site_fract_y
 _atom_site_fract_z
 _atom_site_fract_occupancy
 Cu  Cu1  1  0.00049  0.75000  0.08482  1
 Cu  Cu2  1  -0.00049  0.25000  0.91518  1
 Cu  Cu3  1  0.00049  0.75000  0.41518  1
 Cu  Cu4  1  -0.00049  0.25000  0.58482  1
 O  O1  1  0.99912  0.25000  0.75000  1
 O  O2  1  0.00088  0.75000  0.25000  1
 O  O3  1  0.99954  0.75000  0.57990  1
 O  O4  1  0.99954  0.75000  0.92010  1
 O  O5  1  0.00046  0.25000  0.07990  1
 O  O6  1  0.00046  0.25000  0.42010  1
 Sr  Sr1  1  0.49935  0.75000  0.75000  1
 Sr  Sr2  1  0.50065  0.25000  0.25000  1
