CIF file written using JARVIS-Tools package.
data_BaSi
_symmetry_space_group_name_H-M  'Cmcm'
_cell_length_a       4.1504
_cell_length_b       5.0568
_cell_length_c       6.55529
_cell_angle_alpha    112.688
_cell_angle_beta     90
_cell_angle_gamma    90

_symmetry_Int_Tables_number  63
_chemical_formula_structural  BaSi
_chemical_formula_sum  Ba2Si2
_cell_volume  126.93482563852493
_cell_formula_units_Z  2
loop_
  _symmetry_equiv_pos_site_id
 _symmetry_equiv_pos_as_xyz
 1  'x, y, z'
loop_
 _atom_site_type_symbol
 _atom_site_label
 _atom_site_symmetry_multiplicity
 _atom_site_fract_x
 _atom_site_fract_y
 _atom_site_fract_z
 _atom_site_fract_occupancy
 Ba  Ba1  1  0.25000  0.85852  0.71705  1
 Ba  Ba2  1  0.75000  0.14148  0.28295  1
 Si  Si1  1  0.25000  0.55901  0.11803  1
 Si  Si2  1  0.75000  0.44099  0.88197  1
