CIF file written using JARVIS-Tools package.
data_H3AuC2NCl
_symmetry_space_group_name_H-M  'P2_1/m'
_cell_length_a       4.04063
_cell_length_b       6.18925
_cell_length_c       9.05648
_cell_angle_alpha    90
_cell_angle_beta     93.3026
_cell_angle_gamma    90

_symmetry_Int_Tables_number  11
_chemical_formula_structural  H3AuC2NCl
_chemical_formula_sum  H6Au2C4N2Cl2
_cell_volume  226.11258214427565
_cell_formula_units_Z  2
loop_
  _symmetry_equiv_pos_site_id
 _symmetry_equiv_pos_as_xyz
 1  'x, y, z'
loop_
 _atom_site_type_symbol
 _atom_site_label
 _atom_site_symmetry_multiplicity
 _atom_site_fract_x
 _atom_site_fract_y
 _atom_site_fract_z
 _atom_site_fract_occupancy
 Au  Au1  1  0.13898  0.79327  0.58483  1
 Au  Au2  1  0.86102  0.29327  0.41517  1
 C  C1  1  0.32308  0.79329  0.39398  1
 C  C2  1  0.67692  0.29329  0.60602  1
 C  C3  1  0.56566  0.79323  0.13682  1
 C  C4  1  0.43434  0.29323  0.86318  1
 Cl  Cl1  1  0.92071  0.79321  0.81297  1
 Cl  Cl2  1  0.07929  0.29321  0.18703  1
 H  H1  1  0.71873  0.64732  0.12665  1
 H  H2  1  0.28127  0.14732  0.87335  1
 H  H3  1  0.36421  0.79317  0.04968  1
 H  H4  1  0.63579  0.29317  0.95032  1
 H  H5  1  0.71867  0.93915  0.12659  1
 H  H6  1  0.28133  0.43915  0.87341  1
 N  N1  1  0.43030  0.79328  0.27739  1
 N  N2  1  0.56970  0.29328  0.72261  1
