CIF file written using JARVIS-Tools package.
data_LiCoO2
_symmetry_space_group_name_H-M  'Fd-3m'
_cell_length_a       5.6838
_cell_length_b       5.68376
_cell_length_c       5.68395
_cell_angle_alpha    119.997
_cell_angle_beta     119.998
_cell_angle_gamma    90.0032

_symmetry_Int_Tables_number  227
_chemical_formula_structural  LiCoO2
_chemical_formula_sum  Li4Co4O8
_cell_volume  129.84678805373392
_cell_formula_units_Z  4
loop_
  _symmetry_equiv_pos_site_id
 _symmetry_equiv_pos_as_xyz
 1  'x, y, z'
loop_
 _atom_site_type_symbol
 _atom_site_label
 _atom_site_symmetry_multiplicity
 _atom_site_fract_x
 _atom_site_fract_y
 _atom_site_fract_z
 _atom_site_fract_occupancy
 Co  Co1  1  -0.00000  0.50000  -0.00000  1
 Co  Co2  1  -0.00000  -0.00000  0.50000  1
 Co  Co3  1  0.50000  0.50000  -0.00000  1
 Co  Co4  1  0.00000  0.50000  0.50000  1
 Li  Li1  1  0.50000  -0.00000  0.50000  1
 Li  Li2  1  0.50000  -0.00000  -0.00000  1
 Li  Li3  1  0.00000  0.00000  0.00000  1
 Li  Li4  1  0.50000  0.50000  0.50000  1
 O  O1  1  0.24000  0.72003  0.98000  1
 O  O2  1  0.23999  0.25997  0.98000  1
 O  O3  1  0.77997  0.26000  0.52001  1
 O  O4  1  0.24003  0.26001  0.52000  1
 O  O5  1  0.75997  0.73999  0.48000  1
 O  O6  1  0.22003  0.74000  0.47999  1
 O  O7  1  0.76001  0.74003  0.02000  1
 O  O8  1  0.76000  0.27997  0.02000  1
