CIF file written using JARVIS-Tools package.
data_BaInPb2
_symmetry_space_group_name_H-M  'P4/mmm'
_cell_length_a       4.22022
_cell_length_b       4.22022
_cell_length_c       7.58257
_cell_angle_alpha    90
_cell_angle_beta     90
_cell_angle_gamma    90

_symmetry_Int_Tables_number  123
_chemical_formula_structural  BaInPb2
_chemical_formula_sum  BaInPb2
_cell_volume  135.04721376049642
_cell_formula_units_Z  1
loop_
  _symmetry_equiv_pos_site_id
 _symmetry_equiv_pos_as_xyz
 1  'x, y, z'
loop_
 _atom_site_type_symbol
 _atom_site_label
 _atom_site_symmetry_multiplicity
 _atom_site_fract_x
 _atom_site_fract_y
 _atom_site_fract_z
 _atom_site_fract_occupancy
 Ba  Ba1  1  0.50000  0.50000  0.00000  1
 In  In1  1  0.50000  0.50000  0.50000  1
 Pb  Pb1  1  0.00000  0.00000  0.70494  1
 Pb  Pb2  1  0.00000  0.00000  0.29506  1
