CIF file written using JARVIS-Tools package.
data_Hg3Cl4O
_symmetry_space_group_name_H-M  'P2_13'
_cell_length_a       9.31691
_cell_length_b       9.31691
_cell_length_c       9.31691
_cell_angle_alpha    90
_cell_angle_beta     90
_cell_angle_gamma    90

_symmetry_Int_Tables_number  198
_chemical_formula_structural  Hg3Cl4O
_chemical_formula_sum  Hg2Cl6O4
_cell_volume  808.7520976801883
_cell_formula_units_Z  4
loop_
  _symmetry_equiv_pos_site_id
 _symmetry_equiv_pos_as_xyz
 1  'x, y, z'
loop_
 _atom_site_type_symbol
 _atom_site_label
 _atom_site_symmetry_multiplicity
 _atom_site_fract_x
 _atom_site_fract_y
 _atom_site_fract_z
 _atom_site_fract_occupancy
 Cl  Cl1  1  0.30403  0.02097  0.33303  1
 Cl  Cl2  1  0.07224  0.57224  0.92776  1
 Cl  Cl3  1  0.19597  0.97903  0.83303  1
 Cl  Cl4  1  0.69597  0.52097  0.16697  1
 Cl  Cl5  1  0.80403  0.47903  0.66697  1
 Cl  Cl6  1  0.52097  0.16697  0.69597  1
 Cl  Cl7  1  0.66697  0.80403  0.47903  1
 Cl  Cl8  1  0.16697  0.69597  0.52097  1
 Cl  Cl9  1  0.97903  0.83303  0.19597  1
 Cl  Cl10  1  0.83303  0.19597  0.97903  1
 Cl  Cl11  1  0.57224  0.92776  0.07224  1
 Cl  Cl12  1  0.42776  0.42776  0.42776  1
 Cl  Cl13  1  0.47903  0.66697  0.80403  1
 Cl  Cl14  1  0.02097  0.33303  0.30403  1
 Cl  Cl15  1  0.33303  0.30403  0.02097  1
 Cl  Cl16  1  0.92776  0.07224  0.57224  1
 Hg  Hg1  1  0.22986  0.17634  0.51572  1
 Hg  Hg2  1  0.51572  0.22986  0.17634  1
 Hg  Hg3  1  0.27014  0.82366  0.01572  1
 Hg  Hg4  1  0.77014  0.67634  0.98428  1
 Hg  Hg5  1  0.72986  0.32366  0.48428  1
 Hg  Hg6  1  0.67634  0.98428  0.77014  1
 Hg  Hg7  1  0.48428  0.72986  0.32366  1
 Hg  Hg8  1  0.98428  0.77014  0.67634  1
 Hg  Hg9  1  0.82366  0.01572  0.27014  1
 Hg  Hg10  1  0.01572  0.27014  0.82366  1
 Hg  Hg11  1  0.32366  0.48428  0.72986  1
 Hg  Hg12  1  0.17634  0.51572  0.22986  1
 O  O1  1  0.67426  0.17426  0.32574  1
 O  O2  1  0.32574  0.67426  0.17426  1
 O  O3  1  0.17426  0.32574  0.67426  1
 O  O4  1  0.82574  0.82574  0.82574  1
