CIF file written using JARVIS-Tools package.
data_Cr5S6
_symmetry_space_group_name_H-M  'P-31c'
_cell_length_a       6.00617
_cell_length_b       6.00618
_cell_length_c       11.2489
_cell_angle_alpha    90
_cell_angle_beta     90
_cell_angle_gamma    120

_symmetry_Int_Tables_number  163
_chemical_formula_structural  Cr5S6
_chemical_formula_sum  Cr0S2
_cell_volume  351.428313646408
_cell_formula_units_Z  2
loop_
  _symmetry_equiv_pos_site_id
 _symmetry_equiv_pos_as_xyz
 1  'x, y, z'
loop_
 _atom_site_type_symbol
 _atom_site_label
 _atom_site_symmetry_multiplicity
 _atom_site_fract_x
 _atom_site_fract_y
 _atom_site_fract_z
 _atom_site_fract_occupancy
 Cr  Cr1  1  0.00000  0.00000  0.25000  1
 Cr  Cr2  1  0.33333  0.66667  0.25000  1
 Cr  Cr3  1  0.66667  0.33333  0.75000  1
 Cr  Cr4  1  0.00000  0.00000  0.00000  1
 Cr  Cr5  1  0.00000  0.00000  0.50000  1
 Cr  Cr6  1  0.33333  0.66667  0.98983  1
 Cr  Cr7  1  0.33333  0.66667  0.51017  1
 Cr  Cr8  1  0.66667  0.33333  0.01017  1
 Cr  Cr9  1  0.66667  0.33333  0.48983  1
 Cr  Cr10  1  0.00000  0.00000  0.75000  1
 S  S1  1  0.33749  0.00967  0.87749  1
 S  S2  1  0.99033  0.32781  0.87749  1
 S  S3  1  0.33749  0.32781  0.62251  1
 S  S4  1  0.99033  0.66251  0.62251  1
 S  S5  1  0.67219  0.00967  0.62251  1
 S  S6  1  0.00967  0.33749  0.37749  1
 S  S7  1  0.66251  0.99033  0.12251  1
 S  S8  1  0.00967  0.67219  0.12251  1
 S  S9  1  0.67219  0.66251  0.87749  1
 S  S10  1  0.66251  0.67219  0.37749  1
 S  S11  1  0.32781  0.33749  0.12251  1
 S  S12  1  0.32781  0.99033  0.37749  1
