CIF file written using JARVIS-Tools package.
data_SrMnPF
_symmetry_space_group_name_H-M  'P4/nmm'
_cell_length_a       3.95024
_cell_length_b       3.95024
_cell_length_c       8.60579
_cell_angle_alpha    90
_cell_angle_beta     90
_cell_angle_gamma    90

_symmetry_Int_Tables_number  129
_chemical_formula_structural  SrMnPF
_chemical_formula_sum  Sr2Mn2P2F2
_cell_volume  134.28805401112007
_cell_formula_units_Z  2
loop_
  _symmetry_equiv_pos_site_id
 _symmetry_equiv_pos_as_xyz
 1  'x, y, z'
loop_
 _atom_site_type_symbol
 _atom_site_label
 _atom_site_symmetry_multiplicity
 _atom_site_fract_x
 _atom_site_fract_y
 _atom_site_fract_z
 _atom_site_fract_occupancy
 F  F1  1  0.25000  0.75000  0.00000  1
 F  F2  1  0.75000  0.25000  0.00000  1
 Mn  Mn1  1  0.25000  0.75000  0.50000  1
 Mn  Mn2  1  0.75000  0.25000  0.50000  1
 P  P1  1  0.75000  0.75000  0.37444  1
 P  P2  1  0.25000  0.25000  0.62556  1
 Sr  Sr1  1  0.75000  0.75000  0.82897  1
 Sr  Sr2  1  0.25000  0.25000  0.17103  1
