CIF file written using JARVIS-Tools package.
data_ErFeGe2
_symmetry_space_group_name_H-M  'Cmcm'
_cell_length_a       4.18332
_cell_length_b       4.09536
_cell_length_c       8.55961
_cell_angle_alpha    103.841
_cell_angle_beta     90
_cell_angle_gamma    90

_symmetry_Int_Tables_number  63
_chemical_formula_structural  ErFeGe2
_chemical_formula_sum  Er2Fe2Ge4
_cell_volume  142.3871237569589
_cell_formula_units_Z  2
loop_
  _symmetry_equiv_pos_site_id
 _symmetry_equiv_pos_as_xyz
 1  'x, y, z'
loop_
 _atom_site_type_symbol
 _atom_site_label
 _atom_site_symmetry_multiplicity
 _atom_site_fract_x
 _atom_site_fract_y
 _atom_site_fract_z
 _atom_site_fract_occupancy
 Er  Er1  1  0.75000  0.10986  0.21972  1
 Er  Er2  1  0.25000  0.89014  0.78028  1
 Fe  Fe1  1  0.75000  0.31988  0.63977  1
 Fe  Fe2  1  0.25000  0.68012  0.36023  1
 Ge  Ge1  1  0.75000  0.45528  0.91056  1
 Ge  Ge2  1  0.25000  0.54472  0.08944  1
 Ge  Ge3  1  0.75000  0.74871  0.49743  1
 Ge  Ge4  1  0.25000  0.25129  0.50257  1
