CIF file written using JARVIS-Tools package.
data_UFeGe
_symmetry_space_group_name_H-M  'P2_1/m'
_cell_length_a       4.40538
_cell_length_b       7.01549
_cell_length_c       6.77695
_cell_angle_alpha    93.7578
_cell_angle_beta     90
_cell_angle_gamma    90

_symmetry_Int_Tables_number  11
_chemical_formula_structural  UFeGe
_chemical_formula_sum  U4Fe4Ge4
_cell_volume  208.997403169576
_cell_formula_units_Z  4
loop_
  _symmetry_equiv_pos_site_id
 _symmetry_equiv_pos_as_xyz
 1  'x, y, z'
loop_
 _atom_site_type_symbol
 _atom_site_label
 _atom_site_symmetry_multiplicity
 _atom_site_fract_x
 _atom_site_fract_y
 _atom_site_fract_z
 _atom_site_fract_occupancy
 Fe  Fe1  1  0.75000  0.25754  0.96790  1
 Fe  Fe2  1  0.75000  0.63390  0.52532  1
 Fe  Fe3  1  0.25000  0.74246  0.03210  1
 Fe  Fe4  1  0.25000  0.36610  0.47468  1
 Ge  Ge1  1  0.75000  0.28347  0.59499  1
 Ge  Ge2  1  0.25000  0.71653  0.40501  1
 Ge  Ge3  1  0.75000  0.80735  0.87132  1
 Ge  Ge4  1  0.25000  0.19265  0.12868  1
 U  U1  1  0.25000  0.51134  0.80649  1
 U  U2  1  0.75000  0.96454  0.28251  1
 U  U3  1  0.25000  0.03546  0.71749  1
 U  U4  1  0.75000  0.48866  0.19351  1
