CIF file written using JARVIS-Tools package.
data_KCoAu3C6N6
_symmetry_space_group_name_H-M  'P312'
_cell_length_a       6.71841
_cell_length_b       6.71842
_cell_length_c       7.59607
_cell_angle_alpha    90
_cell_angle_beta     90
_cell_angle_gamma    120

_symmetry_Int_Tables_number  149
_chemical_formula_structural  KCoAu3C6N6
_chemical_formula_sum  KCoAu3C6N6
_cell_volume  296.92906536765616
_cell_formula_units_Z  1
loop_
  _symmetry_equiv_pos_site_id
 _symmetry_equiv_pos_as_xyz
 1  'x, y, z'
loop_
 _atom_site_type_symbol
 _atom_site_label
 _atom_site_symmetry_multiplicity
 _atom_site_fract_x
 _atom_site_fract_y
 _atom_site_fract_z
 _atom_site_fract_occupancy
 Au  Au1  1  0.50369  0.00738  0.00000  1
 Au  Au2  1  0.99262  0.49631  0.00000  1
 Au  Au3  1  0.50369  0.49631  0.00000  1
 C  C1  1  0.34000  0.00750  0.78263  1
 C  C2  1  0.66750  0.66000  0.78263  1
 C  C3  1  0.99250  0.33250  0.78263  1
 C  C4  1  0.34000  0.33250  0.21737  1
 C  C5  1  0.99250  0.66000  0.21737  1
 C  C6  1  0.66750  0.00750  0.21737  1
 Co  Co1  1  0.00000  0.00000  0.50000  1
 K  K1  1  0.33333  0.66667  0.50000  1
 N  N1  1  0.23564  0.00337  0.65800  1
 N  N2  1  0.99663  0.76436  0.34200  1
 N  N3  1  0.76773  0.00337  0.34200  1
 N  N4  1  0.23564  0.23227  0.34200  1
 N  N5  1  0.76773  0.76436  0.65800  1
 N  N6  1  0.99663  0.23227  0.65800  1
