CIF file written using JARVIS-Tools package.
data_LiFeSbO4
_symmetry_space_group_name_H-M  'Imma'
_cell_length_a       5.98064
_cell_length_b       6.20255
_cell_length_c       6.20255
_cell_angle_alpha    60.9359
_cell_angle_beta     61.1766
_cell_angle_gamma    61.1766

_symmetry_Int_Tables_number  74
_chemical_formula_structural  LiFeSbO4
_chemical_formula_sum  Li2Fe2Sb2O8
_cell_volume  166.70793931780696
_cell_formula_units_Z  2
loop_
  _symmetry_equiv_pos_site_id
 _symmetry_equiv_pos_as_xyz
 1  'x, y, z'
loop_
 _atom_site_type_symbol
 _atom_site_label
 _atom_site_symmetry_multiplicity
 _atom_site_fract_x
 _atom_site_fract_y
 _atom_site_fract_z
 _atom_site_fract_occupancy
 Fe  Fe1  1  0.00000  0.50000  0.50000  1
 Fe  Fe2  1  0.50000  0.50000  0.50000  1
 Li  Li1  1  0.14164  0.10836  0.10836  1
 Li  Li2  1  0.85836  0.89164  0.89164  1
 O  O1  1  0.26250  0.25612  0.25612  1
 O  O2  1  0.27384  0.24536  0.70695  1
 O  O3  1  0.27384  0.70695  0.24536  1
 O  O4  1  0.72527  0.25612  0.25612  1
 O  O5  1  0.27473  0.74388  0.74388  1
 O  O6  1  0.72616  0.75464  0.29305  1
 O  O7  1  0.72616  0.29305  0.75464  1
 O  O8  1  0.73750  0.74388  0.74388  1
 Sb  Sb1  1  0.50000  0.00000  0.50000  1
 Sb  Sb2  1  0.50000  0.50000  0.00000  1
