CIF file written using JARVIS-Tools package.
data_Rb5Co2O4
_symmetry_space_group_name_H-M  'P-1'
_cell_length_a       6.97067
_cell_length_b       9.20214
_cell_length_c       9.56852
_cell_angle_alpha    61.5617
_cell_angle_beta     89.8724
_cell_angle_gamma    71.2831

_symmetry_Int_Tables_number  2
_chemical_formula_structural  Rb5Co2O4
_chemical_formula_sum  Rb0Co4O8
_cell_volume  502.743206005886
_cell_formula_units_Z  2
loop_
  _symmetry_equiv_pos_site_id
 _symmetry_equiv_pos_as_xyz
 1  'x, y, z'
loop_
 _atom_site_type_symbol
 _atom_site_label
 _atom_site_symmetry_multiplicity
 _atom_site_fract_x
 _atom_site_fract_y
 _atom_site_fract_z
 _atom_site_fract_occupancy
 Co  Co1  1  0.01385  0.20939  0.57644  1
 Co  Co2  1  0.38360  0.42413  0.96903  1
 Co  Co3  1  0.61640  0.57587  0.03097  1
 Co  Co4  1  0.98615  0.79061  0.42356  1
 O  O1  1  0.31869  0.64452  0.95205  1
 O  O2  1  0.76921  0.79472  0.51677  1
 O  O3  1  0.23079  0.20528  0.48323  1
 O  O4  1  0.31121  0.26240  0.95497  1
 O  O5  1  0.68879  0.73760  0.04503  1
 O  O6  1  0.80601  0.20669  0.68047  1
 O  O7  1  0.19399  0.79331  0.31953  1
 O  O8  1  0.68131  0.35548  0.04795  1
 Rb  Rb1  1  0.38069  0.82751  0.61964  1
 Rb  Rb2  1  0.61931  0.17249  0.38036  1
 Rb  Rb3  1  0.62446  0.63638  0.36548  1
 Rb  Rb4  1  0.37554  0.36362  0.63452  1
 Rb  Rb5  1  0.26952  0.94995  0.97559  1
 Rb  Rb6  1  0.73048  0.05005  0.02441  1
 Rb  Rb7  1  0.10272  0.56238  0.21863  1
 Rb  Rb8  1  0.89728  0.43762  0.78137  1
 Rb  Rb9  1  0.09647  0.17095  0.22016  1
 Rb  Rb10  1  0.90353  0.82905  0.77984  1
