CIF file written using JARVIS-Tools package.
data_Nd3Ni13B2
_symmetry_space_group_name_H-M  'P6/mmm'
_cell_length_a       5.03553
_cell_length_b       5.03554
_cell_length_c       10.9587
_cell_angle_alpha    90
_cell_angle_beta     90
_cell_angle_gamma    120

_symmetry_Int_Tables_number  191
_chemical_formula_structural  Nd3Ni13B2
_chemical_formula_sum  Nd3Ni3B2
_cell_volume  240.646140691989
_cell_formula_units_Z  1
loop_
  _symmetry_equiv_pos_site_id
 _symmetry_equiv_pos_as_xyz
 1  'x, y, z'
loop_
 _atom_site_type_symbol
 _atom_site_label
 _atom_site_symmetry_multiplicity
 _atom_site_fract_x
 _atom_site_fract_y
 _atom_site_fract_z
 _atom_site_fract_occupancy
 B  B1  1  0.66667  0.33333  0.00000  1
 B  B2  1  0.33333  0.66667  0.00000  1
 Nd  Nd1  1  0.00000  0.00000  0.00000  1
 Nd  Nd2  1  0.00000  0.00000  0.67112  1
 Nd  Nd3  1  0.00000  0.00000  0.32888  1
 Ni  Ni1  1  0.50000  0.50000  0.86722  1
 Ni  Ni2  1  0.50000  0.00000  0.86722  1
 Ni  Ni3  1  -0.00000  0.50000  0.13278  1
 Ni  Ni4  1  0.50000  0.50000  0.13278  1
 Ni  Ni5  1  0.50000  0.00000  0.13278  1
 Ni  Ni6  1  0.66667  0.33333  0.68126  1
 Ni  Ni7  1  0.33333  0.66667  0.31874  1
 Ni  Ni8  1  -0.00000  0.50000  0.50000  1
 Ni  Ni9  1  0.50000  0.50000  0.50000  1
 Ni  Ni10  1  0.50000  0.00000  0.50000  1
 Ni  Ni11  1  -0.00000  0.50000  0.86722  1
 Ni  Ni12  1  0.66667  0.33333  0.31874  1
 Ni  Ni13  1  0.33333  0.66667  0.68126  1
