CIF file written using JARVIS-Tools package.
data_Sr2Ti2Bi2OF2
_symmetry_space_group_name_H-M  'I4/mmm'
_cell_length_a       4.12265
_cell_length_b       4.12265
_cell_length_c       11.2321
_cell_angle_alpha    100.575
_cell_angle_beta     100.575
_cell_angle_gamma    90

_symmetry_Int_Tables_number  139
_chemical_formula_structural  Sr2Ti2Bi2OF2
_chemical_formula_sum  Sr2Ti2Bi2OF2
_cell_volume  184.36150834027055
_cell_formula_units_Z  1
loop_
  _symmetry_equiv_pos_site_id
 _symmetry_equiv_pos_as_xyz
 1  'x, y, z'
loop_
 _atom_site_type_symbol
 _atom_site_label
 _atom_site_symmetry_multiplicity
 _atom_site_fract_x
 _atom_site_fract_y
 _atom_site_fract_z
 _atom_site_fract_occupancy
 Bi  Bi1  1  0.90177  0.90177  0.80353  1
 Bi  Bi2  1  0.09823  0.09823  0.19647  1
 F  F1  1  0.75000  0.25000  0.50000  1
 F  F2  1  0.25000  0.75000  0.50000  1
 O  O1  1  0.50000  0.50000  0.00000  1
 Sr  Sr1  1  0.31480  0.31480  0.62960  1
 Sr  Sr2  1  0.68520  0.68520  0.37040  1
 Ti  Ti1  1  0.00000  0.50000  0.00000  1
 Ti  Ti2  1  0.50000  0.00000  0.00000  1
