CIF file written using JARVIS-Tools package.
data_BaIn4Ir
_symmetry_space_group_name_H-M  'Pmma'
_cell_length_a       4.44811
_cell_length_b       8.08093
_cell_length_c       8.72205
_cell_angle_alpha    90
_cell_angle_beta     90
_cell_angle_gamma    90

_symmetry_Int_Tables_number  51
_chemical_formula_structural  BaIn4Ir
_chemical_formula_sum  Ba2In8Ir2
_cell_volume  313.51280115257856
_cell_formula_units_Z  2
loop_
  _symmetry_equiv_pos_site_id
 _symmetry_equiv_pos_as_xyz
 1  'x, y, z'
loop_
 _atom_site_type_symbol
 _atom_site_label
 _atom_site_symmetry_multiplicity
 _atom_site_fract_x
 _atom_site_fract_y
 _atom_site_fract_z
 _atom_site_fract_occupancy
 Ba  Ba1  1  0.00000  0.60753  0.25000  1
 Ba  Ba2  1  0.00000  0.39247  0.75000  1
 In  In1  1  0.50000  0.94297  0.25000  1
 In  In2  1  0.50000  0.05703  0.75000  1
 In  In3  1  0.50000  0.70011  0.56808  1
 In  In4  1  0.50000  0.29989  0.43192  1
 In  In5  1  0.00000  0.00000  0.00000  1
 In  In6  1  0.50000  0.70011  0.93192  1
 In  In7  1  0.50000  0.29989  0.06808  1
 In  In8  1  0.00000  0.00000  0.50000  1
 Ir  Ir1  1  0.00000  0.81501  0.75000  1
 Ir  Ir2  1  0.00000  0.18499  0.25000  1
