CIF file written using JARVIS-Tools package.
data_AlAgTe2
_symmetry_space_group_name_H-M  'I-42d'
_cell_length_a       6.38938
_cell_length_b       6.38938
_cell_length_c       7.58231
_cell_angle_alpha    114.919
_cell_angle_beta     114.919
_cell_angle_gamma    90

_symmetry_Int_Tables_number  122
_chemical_formula_structural  AlAgTe2
_chemical_formula_sum  Al2Ag2Te4
_cell_volume  248.58979522492916
_cell_formula_units_Z  2
loop_
  _symmetry_equiv_pos_site_id
 _symmetry_equiv_pos_as_xyz
 1  'x, y, z'
loop_
 _atom_site_type_symbol
 _atom_site_label
 _atom_site_symmetry_multiplicity
 _atom_site_fract_x
 _atom_site_fract_y
 _atom_site_fract_z
 _atom_site_fract_occupancy
 Ag  Ag1  1  0.25000  0.75000  0.50000  1
 Ag  Ag2  1  0.00000  0.00000  0.00000  1
 Al  Al1  1  0.75000  0.25000  0.50000  1
 Al  Al2  1  0.50000  0.50000  0.00000  1
 Te  Te1  1  0.39459  0.37500  0.25000  1
 Te  Te2  1  0.12500  0.60541  0.75000  1
 Te  Te3  1  0.62500  0.14459  0.75000  1
 Te  Te4  1  0.85541  0.87500  0.25000  1
