CIF file written using JARVIS-Tools package.
data_V3O4F2
_symmetry_space_group_name_H-M  'P-1'
_cell_length_a       4.65982
_cell_length_b       5.52091
_cell_length_c       7.52714
_cell_angle_alpha    83.9749
_cell_angle_beta     87.6514
_cell_angle_gamma    86.7467

_symmetry_Int_Tables_number  2
_chemical_formula_structural  V3O4F2
_chemical_formula_sum  V6O8F4
_cell_volume  192.14700825845517
_cell_formula_units_Z  2
loop_
  _symmetry_equiv_pos_site_id
 _symmetry_equiv_pos_as_xyz
 1  'x, y, z'
loop_
 _atom_site_type_symbol
 _atom_site_label
 _atom_site_symmetry_multiplicity
 _atom_site_fract_x
 _atom_site_fract_y
 _atom_site_fract_z
 _atom_site_fract_occupancy
 F  F1  1  0.20345  0.80124  0.39820  1
 F  F2  1  0.79672  0.86534  0.92983  1
 F  F3  1  0.20328  0.13466  0.07017  1
 F  F4  1  0.79655  0.19876  0.60180  1
 O  O1  1  0.70753  0.03563  0.26433  1
 O  O2  1  0.80493  0.53635  0.26901  1
 O  O3  1  0.69783  0.36565  0.93551  1
 O  O4  1  0.69866  0.69909  0.59975  1
 O  O5  1  0.30134  0.30091  0.40025  1
 O  O6  1  0.30217  0.63435  0.06449  1
 O  O7  1  0.19507  0.46365  0.73099  1
 O  O8  1  0.29247  0.96437  0.73567  1
 V  V1  1  0.01470  0.18213  0.83576  1
 V  V2  1  0.98530  0.81787  0.16424  1
 V  V3  1  0.00000  0.50000  0.50000  1
 V  V4  1  0.53362  0.35110  0.17849  1
 V  V5  1  0.46638  0.64890  0.82151  1
 V  V6  1  0.50000  -0.00000  0.50000  1
