CIF file written using JARVIS-Tools package.
data_K2PtO6
_symmetry_space_group_name_H-M  'R-3'
_cell_length_a       4.89383
_cell_length_b       4.89384
_cell_length_c       4.89383
_cell_angle_alpha    82.9547
_cell_angle_beta     82.9548
_cell_angle_gamma    82.9548

_symmetry_Int_Tables_number  148
_chemical_formula_structural  K2PtO6
_chemical_formula_sum  K2PtO6
_cell_volume  114.75115374011203
_cell_formula_units_Z  1
loop_
  _symmetry_equiv_pos_site_id
 _symmetry_equiv_pos_as_xyz
 1  'x, y, z'
loop_
 _atom_site_type_symbol
 _atom_site_label
 _atom_site_symmetry_multiplicity
 _atom_site_fract_x
 _atom_site_fract_y
 _atom_site_fract_z
 _atom_site_fract_occupancy
 K  K1  1  0.64977  0.64977  0.64977  1
 K  K2  1  0.35023  0.35023  0.35023  1
 O  O1  1  0.91950  0.09788  0.59403  1
 O  O2  1  0.59403  0.91950  0.09788  1
 O  O3  1  0.09788  0.59403  0.91950  1
 O  O4  1  0.08050  0.90212  0.40597  1
 O  O5  1  0.40597  0.08050  0.90212  1
 O  O6  1  0.90212  0.40597  0.08050  1
 Pt  Pt1  1  0.00000  0.00000  0.00000  1
