CIF file written using JARVIS-Tools package.
data_LuCu2S2
_symmetry_space_group_name_H-M  'P-3m1'
_cell_length_a       3.96827
_cell_length_b       3.96827
_cell_length_c       6.12236
_cell_angle_alpha    89.9247
_cell_angle_beta     90.0754
_cell_angle_gamma    119.958

_symmetry_Int_Tables_number  164
_chemical_formula_structural  LuCu2S2
_chemical_formula_sum  LuCu2S2
_cell_volume  83.52858846484764
_cell_formula_units_Z  1
loop_
  _symmetry_equiv_pos_site_id
 _symmetry_equiv_pos_as_xyz
 1  'x, y, z'
loop_
 _atom_site_type_symbol
 _atom_site_label
 _atom_site_symmetry_multiplicity
 _atom_site_fract_x
 _atom_site_fract_y
 _atom_site_fract_z
 _atom_site_fract_occupancy
 Cu  Cu1  1  0.66633  0.33367  0.67134  1
 Cu  Cu2  1  0.33367  0.66633  0.32866  1
 Lu  Lu1  1  0.00000  0.00000  0.00000  1
 S  S1  1  0.66696  0.33304  0.25806  1
 S  S2  1  0.33304  0.66696  0.74194  1
