CIF file written using JARVIS-Tools package.
data_ScRe2O6
_symmetry_space_group_name_H-M  'P2_1/c'
_cell_length_a       4.8524
_cell_length_b       5.67193
_cell_length_c       7.56112
_cell_angle_alpha    97.8308
_cell_angle_beta     90
_cell_angle_gamma    90

_symmetry_Int_Tables_number  14
_chemical_formula_structural  ScRe2O6
_chemical_formula_sum  Sc2Re4O2
_cell_volume  206.1602623867666
_cell_formula_units_Z  2
loop_
  _symmetry_equiv_pos_site_id
 _symmetry_equiv_pos_as_xyz
 1  'x, y, z'
loop_
 _atom_site_type_symbol
 _atom_site_label
 _atom_site_symmetry_multiplicity
 _atom_site_fract_x
 _atom_site_fract_y
 _atom_site_fract_z
 _atom_site_fract_occupancy
 O  O1  1  0.71669  0.92287  0.24842  1
 O  O2  1  0.67804  0.32437  0.61678  1
 O  O3  1  0.76744  0.15717  0.93033  1
 O  O4  1  0.23256  0.84283  0.06967  1
 O  O5  1  0.17804  0.17563  0.38322  1
 O  O6  1  0.78331  0.42287  0.24842  1
 O  O7  1  0.21669  0.57713  0.75158  1
 O  O8  1  0.32196  0.67563  0.38322  1
 O  O9  1  0.26744  0.34283  0.06967  1
 O  O10  1  0.73256  0.65717  0.93033  1
 O  O11  1  0.82196  0.82437  0.61678  1
 O  O12  1  0.28331  0.07713  0.75158  1
 Re  Re1  1  0.50883  0.62937  0.15101  1
 Re  Re2  1  0.49117  0.37063  0.84899  1
 Re  Re3  1  0.99117  0.12937  0.15101  1
 Re  Re4  1  0.00883  0.87063  0.84899  1
 Sc  Sc1  1  0.00000  0.50000  0.50000  1
 Sc  Sc2  1  0.50000  0.00000  0.50000  1
