CIF file written using JARVIS-Tools package.
data_HoSn3
_symmetry_space_group_name_H-M  'Amm2'
_cell_length_a       4.41196
_cell_length_b       4.4421
_cell_length_c       11.2686
_cell_angle_alpha    101.367
_cell_angle_beta     90
_cell_angle_gamma    90

_symmetry_Int_Tables_number  38
_chemical_formula_structural  HoSn3
_chemical_formula_sum  Ho2Sn6
_cell_volume  216.51441117639237
_cell_formula_units_Z  2
loop_
  _symmetry_equiv_pos_site_id
 _symmetry_equiv_pos_as_xyz
 1  'x, y, z'
loop_
 _atom_site_type_symbol
 _atom_site_label
 _atom_site_symmetry_multiplicity
 _atom_site_fract_x
 _atom_site_fract_y
 _atom_site_fract_z
 _atom_site_fract_occupancy
 Ho  Ho1  1  0.50000  0.48223  0.96445  1
 Ho  Ho2  1  0.00000  0.20947  0.41893  1
 Sn  Sn1  1  0.50000  0.09824  0.19648  1
 Sn  Sn2  1  0.50000  0.73451  0.46901  1
 Sn  Sn3  1  0.50000  0.86912  0.73824  1
 Sn  Sn4  1  0.00000  0.97597  0.95194  1
 Sn  Sn5  1  0.00000  0.35822  0.71645  1
 Sn  Sn6  1  0.00000  0.59825  0.19649  1
