CIF file written using JARVIS-Tools package.
data_VSO5
_symmetry_space_group_name_H-M  'Pnma'
_cell_length_a       6.32623
_cell_length_b       7.12624
_cell_length_c       7.27111
_cell_angle_alpha    90
_cell_angle_beta     90
_cell_angle_gamma    90

_symmetry_Int_Tables_number  62
_chemical_formula_structural  VSO5
_chemical_formula_sum  V4S4O20
_cell_volume  327.79783795514686
_cell_formula_units_Z  4
loop_
  _symmetry_equiv_pos_site_id
 _symmetry_equiv_pos_as_xyz
 1  'x, y, z'
loop_
 _atom_site_type_symbol
 _atom_site_label
 _atom_site_symmetry_multiplicity
 _atom_site_fract_x
 _atom_site_fract_y
 _atom_site_fract_z
 _atom_site_fract_occupancy
 O  O1  1  0.25000  0.17853  0.62451  1
 O  O2  1  0.25000  0.98525  0.28996  1
 O  O3  1  0.25000  0.51475  0.78996  1
 O  O4  1  0.75000  0.48525  0.21004  1
 O  O5  1  0.75000  0.02005  0.04619  1
 O  O6  1  0.25000  0.97995  0.95381  1
 O  O7  1  0.25000  0.52006  0.45381  1
 O  O8  1  0.75000  0.47995  0.54619  1
 O  O9  1  0.56414  0.24036  0.37558  1
 O  O10  1  0.06414  0.75964  0.62443  1
 O  O11  1  0.43586  0.74036  0.12443  1
 O  O12  1  0.93586  0.25964  0.87557  1
 O  O13  1  0.75000  0.01475  0.71004  1
 O  O14  1  0.93586  0.24036  0.37558  1
 O  O15  1  0.06414  0.74036  0.12443  1
 O  O16  1  0.25000  0.32147  0.12451  1
 O  O17  1  0.75000  0.67853  0.87549  1
 O  O18  1  0.75000  0.82147  0.37549  1
 O  O19  1  0.56414  0.25964  0.87557  1
 O  O20  1  0.43586  0.75964  0.62443  1
 S  S1  1  0.75000  0.13473  0.87594  1
 S  S2  1  0.25000  0.86527  0.12406  1
 S  S3  1  0.25000  0.63474  0.62406  1
 S  S4  1  0.75000  0.36527  0.37594  1
 V  V1  1  0.75000  0.73793  0.65650  1
 V  V2  1  0.25000  0.23793  0.84350  1
 V  V3  1  0.75000  0.76207  0.15650  1
 V  V4  1  0.25000  0.26207  0.34350  1
