CIF file written using JARVIS-Tools package.
data_BeCoTe
_symmetry_space_group_name_H-M  'I4mm'
_cell_length_a       4.34053
_cell_length_b       4.34053
_cell_length_c       4.34053
_cell_angle_alpha    132.541
_cell_angle_beta     132.541
_cell_angle_gamma    69.3758

_symmetry_Int_Tables_number  107
_chemical_formula_structural  BeCoTe
_chemical_formula_sum  BeCoTe
_cell_volume  43.55672671506468
_cell_formula_units_Z  1
loop_
  _symmetry_equiv_pos_site_id
 _symmetry_equiv_pos_as_xyz
 1  'x, y, z'
loop_
 _atom_site_type_symbol
 _atom_site_label
 _atom_site_symmetry_multiplicity
 _atom_site_fract_x
 _atom_site_fract_y
 _atom_site_fract_z
 _atom_site_fract_occupancy
 Be  Be1  1  0.00586  0.00586  -0.00000  1
 Co  Co1  1  0.32068  0.32068  0.00000  1
 Te  Te1  1  0.67346  0.67346  -0.00000  1
