CIF file written using JARVIS-Tools package.
data_EuAs3
_symmetry_space_group_name_H-M  'C2/m'
_cell_length_a       5.47938
_cell_length_b       5.92351
_cell_length_c       5.92351
_cell_angle_alpha    79.7753
_cell_angle_beta     75.3277
_cell_angle_gamma    75.3277

_symmetry_Int_Tables_number  12
_chemical_formula_structural  EuAs3
_chemical_formula_sum  Eu2As6
_cell_volume  178.60101787634142
_cell_formula_units_Z  2
loop_
  _symmetry_equiv_pos_site_id
 _symmetry_equiv_pos_as_xyz
 1  'x, y, z'
loop_
 _atom_site_type_symbol
 _atom_site_label
 _atom_site_symmetry_multiplicity
 _atom_site_fract_x
 _atom_site_fract_y
 _atom_site_fract_z
 _atom_site_fract_occupancy
 As  As1  1  0.21882  0.33279  0.92902  1
 As  As2  1  0.21882  0.92902  0.33279  1
 As  As3  1  0.78118  0.66721  0.07098  1
 As  As4  1  0.78118  0.07098  0.66721  1
 As  As5  1  0.23518  0.49018  0.49018  1
 As  As6  1  0.76482  0.50982  0.50982  1
 Eu  Eu1  1  0.67751  0.17516  0.17516  1
 Eu  Eu2  1  0.32249  0.82484  0.82484  1
