CIF file written using JARVIS-Tools package.
data_Li3H4Rh
_symmetry_space_group_name_H-M  'Cmcm'
_cell_length_a       4.82692
_cell_length_b       4.82692
_cell_length_c       8.80012
_cell_angle_alpha    90
_cell_angle_beta     90
_cell_angle_gamma    45.6524

_symmetry_Int_Tables_number  63
_chemical_formula_structural  Li3H4Rh
_chemical_formula_sum  Li6H8Rh2
_cell_volume  146.6233518163211
_cell_formula_units_Z  2
loop_
  _symmetry_equiv_pos_site_id
 _symmetry_equiv_pos_as_xyz
 1  'x, y, z'
loop_
 _atom_site_type_symbol
 _atom_site_label
 _atom_site_symmetry_multiplicity
 _atom_site_fract_x
 _atom_site_fract_y
 _atom_site_fract_z
 _atom_site_fract_occupancy
 H  H1  1  0.06270  0.06270  0.12198  1
 H  H2  1  0.93730  0.93730  0.87802  1
 H  H3  1  0.06270  0.06270  0.37802  1
 H  H4  1  0.93730  0.93730  0.62198  1
 H  H5  1  0.33321  0.33321  0.38822  1
 H  H6  1  0.66679  0.66679  0.61178  1
 H  H7  1  0.33321  0.33321  0.11178  1
 H  H8  1  0.66679  0.66679  0.88822  1
 Li  Li1  1  0.83836  0.83836  0.43035  1
 Li  Li2  1  0.16164  0.16164  0.56965  1
 Li  Li3  1  0.83836  0.83836  0.06965  1
 Li  Li4  1  0.16164  0.16164  0.93035  1
 Li  Li5  1  0.51020  0.51020  0.25000  1
 Li  Li6  1  0.48980  0.48980  0.75000  1
 Rh  Rh1  1  0.20215  0.20215  0.25000  1
 Rh  Rh2  1  0.79785  0.79785  0.75000  1
