CIF file written using JARVIS-Tools package.
data_NbNiB2
_symmetry_space_group_name_H-M  'Pnma'
_cell_length_a       3.1293
_cell_length_b       6.08598
_cell_length_c       8.24579
_cell_angle_alpha    90
_cell_angle_beta     90
_cell_angle_gamma    90

_symmetry_Int_Tables_number  62
_chemical_formula_structural  NbNiB2
_chemical_formula_sum  Nb4Ni4B8
_cell_volume  157.0398123829387
_cell_formula_units_Z  4
loop_
  _symmetry_equiv_pos_site_id
 _symmetry_equiv_pos_as_xyz
 1  'x, y, z'
loop_
 _atom_site_type_symbol
 _atom_site_label
 _atom_site_symmetry_multiplicity
 _atom_site_fract_x
 _atom_site_fract_y
 _atom_site_fract_z
 _atom_site_fract_occupancy
 B  B1  1  0.25000  0.24074  0.42282  1
 B  B2  1  0.75000  0.25926  0.92282  1
 B  B3  1  0.75000  0.75926  0.57718  1
 B  B4  1  0.25000  0.74074  0.07718  1
 B  B5  1  0.25000  0.17579  0.83331  1
 B  B6  1  0.75000  0.32421  0.33331  1
 B  B7  1  0.75000  0.82421  0.16669  1
 B  B8  1  0.25000  0.67579  0.66669  1
 Nb  Nb1  1  0.25000  0.13051  0.13292  1
 Nb  Nb2  1  0.75000  0.36949  0.63292  1
 Nb  Nb3  1  0.75000  0.86949  0.86708  1
 Nb  Nb4  1  0.25000  0.63051  0.36708  1
 Ni  Ni1  1  0.25000  0.00349  0.61596  1
 Ni  Ni2  1  0.75000  0.49651  0.11596  1
 Ni  Ni3  1  0.75000  -0.00349  0.38404  1
 Ni  Ni4  1  0.25000  0.50349  0.88404  1
