CIF file written using JARVIS-Tools package.
data_LiSn6Pd2
_symmetry_space_group_name_H-M  'P4/mbm'
_cell_length_a       6.76956
_cell_length_b       6.76956
_cell_length_c       8.7656
_cell_angle_alpha    90
_cell_angle_beta     90
_cell_angle_gamma    90

_symmetry_Int_Tables_number  127
_chemical_formula_structural  LiSn6Pd2
_chemical_formula_sum  Li2Sn2Pd4
_cell_volume  401.70026647199774
_cell_formula_units_Z  2
loop_
  _symmetry_equiv_pos_site_id
 _symmetry_equiv_pos_as_xyz
 1  'x, y, z'
loop_
 _atom_site_type_symbol
 _atom_site_label
 _atom_site_symmetry_multiplicity
 _atom_site_fract_x
 _atom_site_fract_y
 _atom_site_fract_z
 _atom_site_fract_occupancy
 Li  Li1  1  0.00000  0.00000  0.50000  1
 Li  Li2  1  0.50000  0.50000  0.50000  1
 Pd  Pd1  1  0.50000  0.50000  0.18269  1
 Pd  Pd2  1  0.00000  0.00000  0.18269  1
 Pd  Pd3  1  0.50000  0.50000  0.81731  1
 Pd  Pd4  1  0.00000  0.00000  0.81731  1
 Sn  Sn1  1  0.16372  0.66372  0.00000  1
 Sn  Sn2  1  0.66372  0.83628  0.00000  1
 Sn  Sn3  1  0.65844  0.15844  0.67905  1
 Sn  Sn4  1  0.15844  0.34156  0.67905  1
 Sn  Sn5  1  0.34156  0.84156  0.32095  1
 Sn  Sn6  1  0.65844  0.15844  0.32095  1
 Sn  Sn7  1  0.83628  0.33628  0.00000  1
 Sn  Sn8  1  0.34156  0.84156  0.67905  1
 Sn  Sn9  1  0.84156  0.65844  0.32095  1
 Sn  Sn10  1  0.84156  0.65844  0.67905  1
 Sn  Sn11  1  0.33628  0.16372  0.00000  1
 Sn  Sn12  1  0.15844  0.34156  0.32095  1
