CIF file written using JARVIS-Tools package.
data_Al5BO9
_symmetry_space_group_name_H-M  'Cmc2_1'
_cell_length_a       8.08395
_cell_length_b       8.08395
_cell_length_c       7.7609
_cell_angle_alpha    90
_cell_angle_beta     90
_cell_angle_gamma    138.501

_symmetry_Int_Tables_number  36
_chemical_formula_structural  Al5BO9
_chemical_formula_sum  Al0B2O8
_cell_volume  336.0565008326444
_cell_formula_units_Z  2
loop_
  _symmetry_equiv_pos_site_id
 _symmetry_equiv_pos_as_xyz
 1  'x, y, z'
loop_
 _atom_site_type_symbol
 _atom_site_label
 _atom_site_symmetry_multiplicity
 _atom_site_fract_x
 _atom_site_fract_y
 _atom_site_fract_z
 _atom_site_fract_occupancy
 Al  Al1  1  0.63250  0.86410  0.00077  1
 Al  Al2  1  0.36750  0.13590  0.50077  1
 Al  Al3  1  0.86410  0.63250  0.50077  1
 Al  Al4  1  0.13590  0.36750  0.00077  1
 Al  Al5  1  0.70294  0.29706  0.16664  1
 Al  Al6  1  0.74472  0.25528  0.81452  1
 Al  Al7  1  0.55614  0.44386  0.81645  1
 Al  Al8  1  0.44386  0.55614  0.31645  1
 Al  Al9  1  0.29706  0.70294  0.66664  1
 Al  Al10  1  0.25528  0.74472  0.31452  1
 B  B1  1  0.01553  0.98447  0.77885  1
 B  B2  1  0.98447  0.01553  0.27885  1
 O  O1  1  0.93282  0.55332  0.30002  1
 O  O2  1  0.25774  0.16219  0.71454  1
 O  O3  1  0.74226  0.83781  0.21454  1
 O  O4  1  0.95396  0.04604  0.90742  1
 O  O5  1  0.83781  0.74226  0.71454  1
 O  O6  1  0.55332  0.93282  0.80002  1
 O  O7  1  0.44668  0.06718  0.30002  1
 O  O8  1  0.16219  0.25774  0.21454  1
 O  O9  1  0.45453  0.54547  0.92848  1
 O  O10  1  0.19101  0.80899  0.56513  1
 O  O11  1  0.80899  0.19101  0.06513  1
 O  O12  1  0.66957  0.33043  0.63142  1
 O  O13  1  0.33043  0.66957  0.13142  1
 O  O14  1  0.06718  0.44668  0.80002  1
 O  O15  1  0.54547  0.45453  0.42848  1
 O  O16  1  0.35186  0.64814  0.46244  1
 O  O17  1  0.64814  0.35186  0.96244  1
 O  O18  1  0.04604  0.95396  0.40742  1
