CIF file written using JARVIS-Tools package.
data_ScGeRh
_symmetry_space_group_name_H-M  'P-62m'
_cell_length_a       3.82861
_cell_length_b       6.71354
_cell_length_c       6.71343
_cell_angle_alpha    120.001
_cell_angle_beta     90
_cell_angle_gamma    90

_symmetry_Int_Tables_number  189
_chemical_formula_structural  ScGeRh
_chemical_formula_sum  Sc3Ge3Rh3
_cell_volume  149.43953330676862
_cell_formula_units_Z  3
loop_
  _symmetry_equiv_pos_site_id
 _symmetry_equiv_pos_as_xyz
 1  'x, y, z'
loop_
 _atom_site_type_symbol
 _atom_site_label
 _atom_site_symmetry_multiplicity
 _atom_site_fract_x
 _atom_site_fract_y
 _atom_site_fract_z
 _atom_site_fract_occupancy
 Ge  Ge1  1  0.00000  0.33331  0.66668  1
 Ge  Ge2  1  0.00000  0.66663  0.33332  1
 Ge  Ge3  1  0.50000  0.00001  0.00000  1
 Rh  Rh1  1  0.00000  0.24539  0.00000  1
 Rh  Rh2  1  0.00000  0.75457  0.75459  1
 Rh  Rh3  1  0.00000  0.99998  0.24541  1
 Sc  Sc1  1  0.50000  0.58089  0.00000  1
 Sc  Sc2  1  0.50000  0.41913  0.41916  1
 Sc  Sc3  1  0.50000  0.99997  0.58084  1
