CIF file written using JARVIS-Tools package.
data_AlTlCl4
_symmetry_space_group_name_H-M  'Pnma'
_cell_length_a       7.00505
_cell_length_b       9.26949
_cell_length_c       10.6431
_cell_angle_alpha    90
_cell_angle_beta     90
_cell_angle_gamma    90

_symmetry_Int_Tables_number  62
_chemical_formula_structural  AlTlCl4
_chemical_formula_sum  Al4Tl4Cl6
_cell_volume  691.093405081873
_cell_formula_units_Z  4
loop_
  _symmetry_equiv_pos_site_id
 _symmetry_equiv_pos_as_xyz
 1  'x, y, z'
loop_
 _atom_site_type_symbol
 _atom_site_label
 _atom_site_symmetry_multiplicity
 _atom_site_fract_x
 _atom_site_fract_y
 _atom_site_fract_z
 _atom_site_fract_occupancy
 Al  Al1  1  0.75000  0.68816  0.43442  1
 Al  Al2  1  0.25000  0.18816  0.06558  1
 Al  Al3  1  0.25000  0.31184  0.56558  1
 Al  Al4  1  0.75000  0.81184  0.93442  1
 Cl  Cl1  1  0.99832  0.82637  0.43096  1
 Cl  Cl2  1  0.00168  0.32637  0.06904  1
 Cl  Cl3  1  0.49832  0.17363  0.56904  1
 Cl  Cl4  1  0.25000  0.44077  0.39747  1
 Cl  Cl5  1  0.00168  0.17363  0.56904  1
 Cl  Cl6  1  0.99832  0.67363  0.93096  1
 Cl  Cl7  1  0.50168  0.67363  0.93096  1
 Cl  Cl8  1  0.49832  0.32637  0.06904  1
 Cl  Cl9  1  0.75000  0.55974  0.26555  1
 Cl  Cl10  1  0.25000  0.44026  0.73445  1
 Cl  Cl11  1  0.50168  0.82637  0.43096  1
 Cl  Cl12  1  0.75000  0.94026  0.76555  1
 Cl  Cl13  1  0.75000  0.55923  0.60253  1
 Cl  Cl14  1  0.25000  0.05923  0.89747  1
 Cl  Cl15  1  0.25000  0.05974  0.23445  1
 Cl  Cl16  1  0.75000  0.94077  0.10253  1
 Tl  Tl1  1  0.25000  0.79515  0.68976  1
 Tl  Tl2  1  0.75000  0.29515  0.81024  1
 Tl  Tl3  1  0.75000  0.20485  0.31024  1
 Tl  Tl4  1  0.25000  0.70485  0.18976  1
