CIF file written using JARVIS-Tools package.
data_MgCd3
_symmetry_space_group_name_H-M  'Imm2'
_cell_length_a       3.19742
_cell_length_b       10.4086
_cell_length_c       5.2783
_cell_angle_alpha    90
_cell_angle_beta     90
_cell_angle_gamma    90

_symmetry_Int_Tables_number  44
_chemical_formula_structural  MgCd3
_chemical_formula_sum  Mg2Cd6
_cell_volume  175.66480410935847
_cell_formula_units_Z  2
loop_
  _symmetry_equiv_pos_site_id
 _symmetry_equiv_pos_as_xyz
 1  'x, y, z'
loop_
 _atom_site_type_symbol
 _atom_site_label
 _atom_site_symmetry_multiplicity
 _atom_site_fract_x
 _atom_site_fract_y
 _atom_site_fract_z
 _atom_site_fract_occupancy
 Cd  Cd1  1  0.50000  0.00000  0.83447  1
 Cd  Cd2  1  0.00000  0.25557  0.00035  1
 Cd  Cd3  1  0.50000  0.24443  0.50035  1
 Cd  Cd4  1  0.00000  0.50000  0.33447  1
 Cd  Cd5  1  0.50000  0.75557  0.50035  1
 Cd  Cd6  1  0.00000  0.74443  0.00035  1
 Mg  Mg1  1  0.00000  0.00000  0.33148  1
 Mg  Mg2  1  0.50000  0.50000  0.83148  1
