CIF file written using JARVIS-Tools package.
data_Sr3TaAs3O
_symmetry_space_group_name_H-M  'Pnma'
_cell_length_a       6.41725
_cell_length_b       10.733
_cell_length_c       12.9788
_cell_angle_alpha    90
_cell_angle_beta     90
_cell_angle_gamma    90

_symmetry_Int_Tables_number  62
_chemical_formula_structural  Sr3TaAs3O
_chemical_formula_sum  Sr2Ta4As2O4
_cell_volume  893.92892101111
_cell_formula_units_Z  4
loop_
  _symmetry_equiv_pos_site_id
 _symmetry_equiv_pos_as_xyz
 1  'x, y, z'
loop_
 _atom_site_type_symbol
 _atom_site_label
 _atom_site_symmetry_multiplicity
 _atom_site_fract_x
 _atom_site_fract_y
 _atom_site_fract_z
 _atom_site_fract_occupancy
 As  As1  1  0.23694  0.04741  0.87611  1
 As  As2  1  0.23572  0.75000  0.63634  1
 As  As3  1  0.26428  0.25000  0.13634  1
 As  As4  1  0.76428  0.25000  0.36366  1
 As  As5  1  0.73572  0.75000  0.86366  1
 As  As6  1  0.26306  0.95259  0.37611  1
 As  As7  1  0.73694  0.45259  0.62389  1
 As  As8  1  0.76306  0.54741  0.12389  1
 As  As9  1  0.73694  0.04741  0.62389  1
 As  As10  1  0.76306  0.95259  0.12389  1
 As  As11  1  0.26306  0.54741  0.37611  1
 As  As12  1  0.23694  0.45259  0.87611  1
 O  O1  1  0.36322  0.75000  0.05511  1
 O  O2  1  0.86322  0.75000  0.44489  1
 O  O3  1  0.13678  0.25000  0.55511  1
 O  O4  1  0.63678  0.25000  0.94489  1
 Sr  Sr1  1  0.73092  0.75000  0.62815  1
 Sr  Sr2  1  0.74685  0.45664  0.87169  1
 Sr  Sr3  1  0.75315  0.54336  0.37169  1
 Sr  Sr4  1  0.25315  0.95664  0.12831  1
 Sr  Sr5  1  0.24685  0.04336  0.62831  1
 Sr  Sr6  1  0.25315  0.54336  0.12831  1
 Sr  Sr7  1  0.24685  0.45664  0.62831  1
 Sr  Sr8  1  0.74685  0.04336  0.87169  1
 Sr  Sr9  1  0.75315  0.95664  0.37169  1
 Sr  Sr10  1  0.23092  0.75000  0.87185  1
 Sr  Sr11  1  0.26908  0.25000  0.37185  1
 Sr  Sr12  1  0.76908  0.25000  0.12815  1
 Ta  Ta1  1  0.65885  0.75000  0.04914  1
 Ta  Ta2  1  0.84115  0.25000  0.54914  1
 Ta  Ta3  1  0.15885  0.75000  0.45086  1
 Ta  Ta4  1  0.34115  0.25000  0.95086  1
