CIF file written using JARVIS-Tools package.
data_BiSe
_symmetry_space_group_name_H-M  'P2_1/c'
_cell_length_a       4.91391
_cell_length_b       5.84416
_cell_length_c       8.93459
_cell_angle_alpha    90
_cell_angle_beta     90
_cell_angle_gamma    106.981

_symmetry_Int_Tables_number  14
_chemical_formula_structural  BiSe
_chemical_formula_sum  Bi4Se4
_cell_volume  245.39423740732852
_cell_formula_units_Z  4
loop_
  _symmetry_equiv_pos_site_id
 _symmetry_equiv_pos_as_xyz
 1  'x, y, z'
loop_
 _atom_site_type_symbol
 _atom_site_label
 _atom_site_symmetry_multiplicity
 _atom_site_fract_x
 _atom_site_fract_y
 _atom_site_fract_z
 _atom_site_fract_occupancy
 Bi  Bi1  1  0.25744  0.84531  0.60696  1
 Bi  Bi2  1  0.75744  0.34532  0.89304  1
 Bi  Bi3  1  0.74256  0.15468  0.39304  1
 Bi  Bi4  1  0.24256  0.65469  0.10696  1
 Se  Se1  1  0.15310  0.31217  0.63855  1
 Se  Se2  1  0.65310  0.81217  0.86145  1
 Se  Se3  1  0.84690  0.68783  0.36145  1
 Se  Se4  1  0.34690  0.18783  0.13855  1
