CIF file written using JARVIS-Tools package.
data_YNiGe2
_symmetry_space_group_name_H-M  'Cmcm'
_cell_length_a       4.21261
_cell_length_b       4.10682
_cell_length_c       8.58874
_cell_angle_alpha    103.832
_cell_angle_beta     90
_cell_angle_gamma    90

_symmetry_Int_Tables_number  63
_chemical_formula_structural  YNiGe2
_chemical_formula_sum  Y2Ni2Ge4
_cell_volume  144.27998131831802
_cell_formula_units_Z  2
loop_
  _symmetry_equiv_pos_site_id
 _symmetry_equiv_pos_as_xyz
 1  'x, y, z'
loop_
 _atom_site_type_symbol
 _atom_site_label
 _atom_site_symmetry_multiplicity
 _atom_site_fract_x
 _atom_site_fract_y
 _atom_site_fract_z
 _atom_site_fract_occupancy
 Ge  Ge1  1  0.75000  0.45891  0.91782  1
 Ge  Ge2  1  0.25000  0.54109  0.08218  1
 Ge  Ge3  1  0.75000  0.74809  0.49618  1
 Ge  Ge4  1  0.25000  0.25191  0.50382  1
 Ni  Ni1  1  0.75000  0.32124  0.64248  1
 Ni  Ni2  1  0.25000  0.67876  0.35752  1
 Y  Y1  1  0.75000  0.10798  0.21595  1
 Y  Y2  1  0.25000  0.89202  0.78405  1
