CIF file written using JARVIS-Tools package.
data_Hf4BeTe
_symmetry_space_group_name_H-M  'F-43m'
_cell_length_a       5.72411
_cell_length_b       5.72411
_cell_length_c       5.72411
_cell_angle_alpha    60
_cell_angle_beta     60
_cell_angle_gamma    60

_symmetry_Int_Tables_number  216
_chemical_formula_structural  Hf4BeTe
_chemical_formula_sum  Hf4BeTe
_cell_volume  132.62016083376096
_cell_formula_units_Z  1
loop_
  _symmetry_equiv_pos_site_id
 _symmetry_equiv_pos_as_xyz
 1  'x, y, z'
loop_
 _atom_site_type_symbol
 _atom_site_label
 _atom_site_symmetry_multiplicity
 _atom_site_fract_x
 _atom_site_fract_y
 _atom_site_fract_z
 _atom_site_fract_occupancy
 Be  Be1  1  0.00000  0.00000  0.00000  1
 Hf  Hf1  1  0.12033  0.62656  0.62656  1
 Hf  Hf2  1  0.62656  0.62656  0.62656  1
 Hf  Hf3  1  0.62656  0.12033  0.62656  1
 Hf  Hf4  1  0.62656  0.62656  0.12033  1
 Te  Te1  1  0.25000  0.25000  0.25000  1
