CIF file written using JARVIS-Tools package.
data_Yb2CaO4
_symmetry_space_group_name_H-M  'Pnma'
_cell_length_a       3.40119
_cell_length_b       9.14165
_cell_length_c       11.6921
_cell_angle_alpha    90
_cell_angle_beta     90
_cell_angle_gamma    90

_symmetry_Int_Tables_number  62
_chemical_formula_structural  Yb2CaO4
_chemical_formula_sum  Yb8Ca4O6
_cell_volume  363.53834456115976
_cell_formula_units_Z  4
loop_
  _symmetry_equiv_pos_site_id
 _symmetry_equiv_pos_as_xyz
 1  'x, y, z'
loop_
 _atom_site_type_symbol
 _atom_site_label
 _atom_site_symmetry_multiplicity
 _atom_site_fract_x
 _atom_site_fract_y
 _atom_site_fract_z
 _atom_site_fract_occupancy
 Ca  Ca1  1  0.25000  0.76383  0.15634  1
 Ca  Ca2  1  0.75000  0.23617  0.84366  1
 Ca  Ca3  1  0.25000  0.26383  0.34366  1
 Ca  Ca4  1  0.75000  0.73617  0.65634  1
 O  O1  1  0.75000  0.22219  0.20126  1
 O  O2  1  0.75000  0.43019  0.40840  1
 O  O3  1  0.25000  0.06981  0.90840  1
 O  O4  1  0.75000  0.93019  0.09160  1
 O  O5  1  0.25000  0.00736  0.27937  1
 O  O6  1  0.75000  0.99264  0.72063  1
 O  O7  1  0.25000  0.50736  0.22063  1
 O  O8  1  0.75000  0.49264  0.77937  1
 O  O9  1  0.25000  0.84298  0.51056  1
 O  O10  1  0.75000  0.15702  0.48944  1
 O  O11  1  0.25000  0.34298  0.98944  1
 O  O12  1  0.25000  0.27781  0.70126  1
 O  O13  1  0.25000  0.56981  0.59160  1
 O  O14  1  0.75000  0.72219  0.29874  1
 O  O15  1  0.25000  0.77781  0.79874  1
 O  O16  1  0.75000  0.65702  0.01056  1
 Yb  Yb1  1  0.75000  0.43629  0.11132  1
 Yb  Yb2  1  0.25000  0.60728  0.39894  1
 Yb  Yb3  1  0.75000  0.39272  0.60106  1
 Yb  Yb4  1  0.25000  0.10728  0.10106  1
 Yb  Yb5  1  0.75000  0.89272  0.89894  1
 Yb  Yb6  1  0.75000  0.93629  0.38868  1
 Yb  Yb7  1  0.25000  0.06371  0.61132  1
 Yb  Yb8  1  0.25000  0.56371  0.88868  1
