CIF file written using JARVIS-Tools package.
data_KAgSe
_symmetry_space_group_name_H-M  'P4/nmm'
_cell_length_a       4.49955
_cell_length_b       4.49955
_cell_length_c       7.68614
_cell_angle_alpha    90
_cell_angle_beta     90
_cell_angle_gamma    90

_symmetry_Int_Tables_number  129
_chemical_formula_structural  KAgSe
_chemical_formula_sum  K2Ag2Se2
_cell_volume  155.61317189826593
_cell_formula_units_Z  2
loop_
  _symmetry_equiv_pos_site_id
 _symmetry_equiv_pos_as_xyz
 1  'x, y, z'
loop_
 _atom_site_type_symbol
 _atom_site_label
 _atom_site_symmetry_multiplicity
 _atom_site_fract_x
 _atom_site_fract_y
 _atom_site_fract_z
 _atom_site_fract_occupancy
 Ag  Ag1  1  0.00000  0.00000  0.00000  1
 Ag  Ag2  1  0.50000  0.50000  0.00000  1
 K  K1  1  0.00000  0.50000  0.33970  1
 K  K2  1  0.50000  0.00000  0.66030  1
 Se  Se1  1  0.50000  0.00000  0.22129  1
 Se  Se2  1  0.00000  0.50000  0.77871  1
