CIF file written using JARVIS-Tools package.
data_V3O5F
_symmetry_space_group_name_H-M  'P-1'
_cell_length_a       5.46127
_cell_length_b       5.44609
_cell_length_c       7.02583
_cell_angle_alpha    71.7841
_cell_angle_beta     71.8258
_cell_angle_gamma    75.0052

_symmetry_Int_Tables_number  2
_chemical_formula_structural  V3O5F
_chemical_formula_sum  V6O0F2
_cell_volume  185.55801750214877
_cell_formula_units_Z  2
loop_
  _symmetry_equiv_pos_site_id
 _symmetry_equiv_pos_as_xyz
 1  'x, y, z'
loop_
 _atom_site_type_symbol
 _atom_site_label
 _atom_site_symmetry_multiplicity
 _atom_site_fract_x
 _atom_site_fract_y
 _atom_site_fract_z
 _atom_site_fract_occupancy
 F  F1  1  0.96670  0.37239  0.32931  1
 F  F2  1  0.03330  0.62761  0.67069  1
 O  O1  1  0.89667  0.89907  0.30435  1
 O  O2  1  0.36181  0.97893  0.32876  1
 O  O3  1  0.76490  0.76331  0.03466  1
 O  O4  1  0.10333  0.10093  0.69565  1
 O  O5  1  0.43404  0.43468  0.36920  1
 O  O6  1  0.23510  0.23669  0.96534  1
 O  O7  1  0.56596  0.56532  0.63080  1
 O  O8  1  0.29657  0.70417  0.00106  1
 O  O9  1  0.70343  0.29583  -0.00106  1
 O  O10  1  0.63819  0.02107  0.67124  1
 V  V1  1  0.00000  0.00000  0.00000  1
 V  V2  1  -0.00000  -0.00000  0.50000  1
 V  V3  1  0.63925  0.66360  0.84747  1
 V  V4  1  0.36313  0.29914  0.66914  1
 V  V5  1  0.63687  0.70086  0.33086  1
 V  V6  1  0.36075  0.33640  0.15253  1
