CIF file written using JARVIS-Tools package.
data_LiFe6Ge4
_symmetry_space_group_name_H-M  'R-3m'
_cell_length_a       5.0336
_cell_length_b       5.0335
_cell_length_c       7.07582
_cell_angle_alpha    69.1667
_cell_angle_beta     90
_cell_angle_gamma    120.001

_symmetry_Int_Tables_number  166
_chemical_formula_structural  LiFe6Ge4
_chemical_formula_sum  LiFe6Ge4
_cell_volume  141.56120297273208
_cell_formula_units_Z  1
loop_
  _symmetry_equiv_pos_site_id
 _symmetry_equiv_pos_as_xyz
 1  'x, y, z'
loop_
 _atom_site_type_symbol
 _atom_site_label
 _atom_site_symmetry_multiplicity
 _atom_site_fract_x
 _atom_site_fract_y
 _atom_site_fract_z
 _atom_site_fract_occupancy
 Fe  Fe1  1  0.59976  0.19952  0.18554  1
 Fe  Fe2  1  0.40024  0.80048  0.81446  1
 Fe  Fe3  1  0.11493  0.71470  0.18554  1
 Fe  Fe4  1  0.88507  0.28530  0.81446  1
 Fe  Fe5  1  0.59977  0.71470  0.18554  1
 Fe  Fe6  1  0.40023  0.28530  0.81446  1
 Ge  Ge1  1  0.87334  0.74668  0.87997  1
 Ge  Ge2  1  0.66856  0.33712  0.49430  1
 Ge  Ge3  1  0.12666  0.25332  0.12003  1
 Ge  Ge4  1  0.33144  0.66288  0.50570  1
 Li  Li1  1  -0.00000  -0.00000  0.50000  1
