CIF file written using JARVIS-Tools package.
data_LiAlMo2O8
_symmetry_space_group_name_H-M  'P-1'
_cell_length_a       6.66225
_cell_length_b       7.07314
_cell_length_c       7.18928
_cell_angle_alpha    90.8916
_cell_angle_beta     110.588
_cell_angle_gamma    105.412

_symmetry_Int_Tables_number  2
_chemical_formula_structural  LiAlMo2O8
_chemical_formula_sum  Li2Al2Mo4O6
_cell_volume  303.4997770781964
_cell_formula_units_Z  2
loop_
  _symmetry_equiv_pos_site_id
 _symmetry_equiv_pos_as_xyz
 1  'x, y, z'
loop_
 _atom_site_type_symbol
 _atom_site_label
 _atom_site_symmetry_multiplicity
 _atom_site_fract_x
 _atom_site_fract_y
 _atom_site_fract_z
 _atom_site_fract_occupancy
 Al  Al1  1  0.90774  0.09944  0.82400  1
 Al  Al2  1  0.09226  0.90056  0.17600  1
 Li  Li1  1  0.73004  0.55306  0.24347  1
 Li  Li2  1  0.26996  0.44694  0.75653  1
 Mo  Mo1  1  0.16718  0.42330  0.21060  1
 Mo  Mo2  1  0.83282  0.57670  0.78940  1
 Mo  Mo3  1  0.32273  0.96685  0.71647  1
 Mo  Mo4  1  0.67727  0.03315  0.28353  1
 O  O1  1  0.81519  0.86874  0.22239  1
 O  O2  1  0.18481  0.13126  0.77761  1
 O  O3  1  0.92184  0.84651  0.88919  1
 O  O4  1  0.07816  0.15349  0.11081  1
 O  O5  1  0.62067  0.05326  0.84694  1
 O  O6  1  0.37933  0.94674  0.15306  1
 O  O7  1  0.97494  0.37571  0.84625  1
 O  O8  1  0.59079  0.48433  0.83658  1
 O  O9  1  0.21769  0.72428  0.76057  1
 O  O10  1  0.78231  0.27572  0.23943  1
 O  O11  1  0.40921  0.51567  0.16342  1
 O  O12  1  0.74827  0.04045  0.54636  1
 O  O13  1  0.74940  0.57468  0.53436  1
 O  O14  1  0.25060  0.42532  0.46564  1
 O  O15  1  0.02506  0.62429  0.15375  1
 O  O16  1  0.25173  0.95955  0.45364  1
