CIF file written using JARVIS-Tools package.
data_TaBeNb
_symmetry_space_group_name_H-M  'I4mm'
_cell_length_a       6.29814
_cell_length_b       6.29814
_cell_length_c       6.29814
_cell_angle_alpha    154.613
_cell_angle_beta     154.613
_cell_angle_gamma    36.2085

_symmetry_Int_Tables_number  107
_chemical_formula_structural  TaBeNb
_chemical_formula_sum  TaBeNb
_cell_volume  45.85998379224054
_cell_formula_units_Z  1
loop_
  _symmetry_equiv_pos_site_id
 _symmetry_equiv_pos_as_xyz
 1  'x, y, z'
loop_
 _atom_site_type_symbol
 _atom_site_label
 _atom_site_symmetry_multiplicity
 _atom_site_fract_x
 _atom_site_fract_y
 _atom_site_fract_z
 _atom_site_fract_occupancy
 Be  Be1  1  0.00096  0.00096  -0.00000  1
 Nb  Nb1  1  0.35385  0.35385  0.00000  1
 Ta  Ta1  1  0.64519  0.64519  0.00000  1
