CIF file written using JARVIS-Tools package.
data_Y3Au2
_symmetry_space_group_name_H-M  'P4/mbm'
_cell_length_a       8.11635
_cell_length_b       8.11635
_cell_length_c       3.81724
_cell_angle_alpha    90
_cell_angle_beta     90
_cell_angle_gamma    90

_symmetry_Int_Tables_number  127
_chemical_formula_structural  Y3Au2
_chemical_formula_sum  Y6Au4
_cell_volume  251.46128849501832
_cell_formula_units_Z  2
loop_
  _symmetry_equiv_pos_site_id
 _symmetry_equiv_pos_as_xyz
 1  'x, y, z'
loop_
 _atom_site_type_symbol
 _atom_site_label
 _atom_site_symmetry_multiplicity
 _atom_site_fract_x
 _atom_site_fract_y
 _atom_site_fract_z
 _atom_site_fract_occupancy
 Au  Au1  1  0.13479  0.63479  0.00000  1
 Au  Au2  1  0.86521  0.36521  0.00000  1
 Au  Au3  1  0.63479  0.86521  0.00000  1
 Au  Au4  1  0.36521  0.13479  0.00000  1
 Y  Y1  1  0.00000  0.00000  0.00000  1
 Y  Y2  1  0.50000  0.50000  0.00000  1
 Y  Y3  1  0.66156  0.16156  0.50000  1
 Y  Y4  1  0.33844  0.83844  0.50000  1
 Y  Y5  1  0.16156  0.33844  0.50000  1
 Y  Y6  1  0.83844  0.66156  0.50000  1
