CIF file written using JARVIS-Tools package.
data_RbBe2BO3F2
_symmetry_space_group_name_H-M  'R32'
_cell_length_a       4.47443
_cell_length_b       4.4743
_cell_length_c       7.01931
_cell_angle_alpha    108.586
_cell_angle_beta     90
_cell_angle_gamma    120.001

_symmetry_Int_Tables_number  155
_chemical_formula_structural  RbBe2BO3F2
_chemical_formula_sum  RbBe2BO3F2
_cell_volume  113.15592588574775
_cell_formula_units_Z  1
loop_
  _symmetry_equiv_pos_site_id
 _symmetry_equiv_pos_as_xyz
 1  'x, y, z'
loop_
 _atom_site_type_symbol
 _atom_site_label
 _atom_site_symmetry_multiplicity
 _atom_site_fract_x
 _atom_site_fract_y
 _atom_site_fract_z
 _atom_site_fract_occupancy
 B  B1  1  0.50489  -0.00000  0.50000  1
 Be  Be1  1  0.20035  0.39092  0.58639  1
 Be  Be2  1  0.80943  0.60908  0.41361  1
 F  F1  1  0.73045  0.45119  0.17684  1
 F  F2  1  0.27926  0.54881  0.82316  1
 O  O1  1  0.81306  -0.00000  0.50000  1
 O  O2  1  0.19672  0.69182  0.49998  1
 O  O3  1  0.50490  0.30818  0.50002  1
 Rb  Rb1  1  0.00494  0.00000  0.00000  1
