CIF file written using JARVIS-Tools package.
data_MnTe
_symmetry_space_group_name_H-M  'P2_1/m'
_cell_length_a       7.00022
_cell_length_b       4.04134
_cell_length_c       7.06496
_cell_angle_alpha    90
_cell_angle_beta     108.434
_cell_angle_gamma    90

_symmetry_Int_Tables_number  11
_chemical_formula_structural  MnTe
_chemical_formula_sum  Mn4Te4
_cell_volume  189.6135594013994
_cell_formula_units_Z  4
loop_
  _symmetry_equiv_pos_site_id
 _symmetry_equiv_pos_as_xyz
 1  'x, y, z'
loop_
 _atom_site_type_symbol
 _atom_site_label
 _atom_site_symmetry_multiplicity
 _atom_site_fract_x
 _atom_site_fract_y
 _atom_site_fract_z
 _atom_site_fract_occupancy
 Mn  Mn1  1  0.78998  0.00000  0.50567  1
 Mn  Mn2  1  0.62511  0.00000  0.10483  1
 Mn  Mn3  1  0.37490  0.50000  0.89517  1
 Mn  Mn4  1  0.21002  0.50000  0.49433  1
 Te  Te1  1  0.98416  0.50000  0.75122  1
 Te  Te2  1  0.49329  0.00000  0.71890  1
 Te  Te3  1  0.01584  0.00000  0.24877  1
 Te  Te4  1  0.50671  0.50000  0.28110  1
