CIF file written using JARVIS-Tools package.
data_LiNdS2
_symmetry_space_group_name_H-M  'I4_1/amd'
_cell_length_a       7.95925
_cell_length_b       10.5482
_cell_length_c       6.92182
_cell_angle_alpha    29.1733
_cell_angle_beta     54.9027
_cell_angle_gamma    41.0113

_symmetry_Int_Tables_number  141
_chemical_formula_structural  LiNdS2
_chemical_formula_sum  Li2Nd2S4
_cell_volume  179.37892713335663
_cell_formula_units_Z  2
loop_
  _symmetry_equiv_pos_site_id
 _symmetry_equiv_pos_as_xyz
 1  'x, y, z'
loop_
 _atom_site_type_symbol
 _atom_site_label
 _atom_site_symmetry_multiplicity
 _atom_site_fract_x
 _atom_site_fract_y
 _atom_site_fract_z
 _atom_site_fract_occupancy
 Li  Li1  1  0.50000  0.00000  1.00000  1
 Li  Li2  1  0.25000  0.50000  0.00000  1
 Nd  Nd1  1  -0.00000  0.00001  0.99999  1
 Nd  Nd2  1  0.75000  0.49999  0.00001  1
 S  S1  1  0.24971  0.00000  0.50058  1
 S  S2  1  0.75029  -0.00000  0.49942  1
 S  S3  1  0.50029  0.50000  0.49942  1
 S  S4  1  0.99971  0.50000  0.50058  1
