CIF file written using JARVIS-Tools package.
data_MgTi
_symmetry_space_group_name_H-M  'Pmmn'
_cell_length_a       2.92586
_cell_length_b       4.88022
_cell_length_c       10.8817
_cell_angle_alpha    90
_cell_angle_beta     90
_cell_angle_gamma    90

_symmetry_Int_Tables_number  59
_chemical_formula_structural  MgTi
_chemical_formula_sum  Mg4Ti4
_cell_volume  155.3775645740912
_cell_formula_units_Z  4
loop_
  _symmetry_equiv_pos_site_id
 _symmetry_equiv_pos_as_xyz
 1  'x, y, z'
loop_
 _atom_site_type_symbol
 _atom_site_label
 _atom_site_symmetry_multiplicity
 _atom_site_fract_x
 _atom_site_fract_y
 _atom_site_fract_z
 _atom_site_fract_occupancy
 Mg  Mg1  1  0.00000  0.00000  0.55956  1
 Mg  Mg2  1  0.50000  0.00000  0.28548  1
 Mg  Mg3  1  0.00000  0.50000  0.71452  1
 Mg  Mg4  1  0.50000  0.50000  0.44044  1
 Ti  Ti1  1  0.00000  0.00000  0.03837  1
 Ti  Ti2  1  0.50000  0.00000  0.82201  1
 Ti  Ti3  1  0.00000  0.50000  0.17799  1
 Ti  Ti4  1  0.50000  0.50000  0.96163  1
