CIF file written using JARVIS-Tools package.
data_CoAs2O6
_symmetry_space_group_name_H-M  'P-31m'
_cell_length_a       4.86001
_cell_length_b       4.86002
_cell_length_c       4.45887
_cell_angle_alpha    89.9997
_cell_angle_beta     90.0007
_cell_angle_gamma    120

_symmetry_Int_Tables_number  162
_chemical_formula_structural  CoAs2O6
_chemical_formula_sum  CoAs2O6
_cell_volume  91.20763474292822
_cell_formula_units_Z  1
loop_
  _symmetry_equiv_pos_site_id
 _symmetry_equiv_pos_as_xyz
 1  'x, y, z'
loop_
 _atom_site_type_symbol
 _atom_site_label
 _atom_site_symmetry_multiplicity
 _atom_site_fract_x
 _atom_site_fract_y
 _atom_site_fract_z
 _atom_site_fract_occupancy
 As  As1  1  0.33333  0.66666  0.50000  1
 As  As2  1  0.66667  0.33334  0.50000  1
 Co  Co1  1  -0.00000  0.00000  0.00000  1
 O  O1  1  0.35904  -0.00000  0.27049  1
 O  O2  1  0.35904  0.35904  0.72951  1
 O  O3  1  0.00000  0.64096  0.72951  1
 O  O4  1  0.64096  0.64096  0.27049  1
 O  O5  1  0.64096  0.00000  0.72951  1
 O  O6  1  -0.00000  0.35904  0.27049  1
