CIF file written using JARVIS-Tools package.
data_ZrAl8Fe4
_symmetry_space_group_name_H-M  'I4/mmm'
_cell_length_a       6.56686
_cell_length_b       6.56686
_cell_length_c       6.56686
_cell_angle_alpha    98.3421
_cell_angle_beta     98.3421
_cell_angle_gamma    135.221

_symmetry_Int_Tables_number  139
_chemical_formula_structural  ZrAl8Fe4
_chemical_formula_sum  ZrAl8Fe4
_cell_volume  184.43126135849718
_cell_formula_units_Z  1
loop_
  _symmetry_equiv_pos_site_id
 _symmetry_equiv_pos_as_xyz
 1  'x, y, z'
loop_
 _atom_site_type_symbol
 _atom_site_label
 _atom_site_symmetry_multiplicity
 _atom_site_fract_x
 _atom_site_fract_y
 _atom_site_fract_z
 _atom_site_fract_occupancy
 Al  Al1  1  0.00000  0.66367  0.66367  1
 Al  Al2  1  0.00000  0.33633  0.33633  1
 Al  Al3  1  0.66367  0.00000  0.66367  1
 Al  Al4  1  0.33633  0.00000  0.33633  1
 Al  Al5  1  0.50000  0.71751  0.21751  1
 Al  Al6  1  0.50000  0.28249  0.78249  1
 Al  Al7  1  0.71751  0.50000  0.21751  1
 Al  Al8  1  0.28249  0.50000  0.78249  1
 Fe  Fe1  1  -0.00000  -0.00000  0.50000  1
 Fe  Fe2  1  0.50000  0.50000  0.50000  1
 Fe  Fe3  1  0.00000  0.50000  -0.00000  1
 Fe  Fe4  1  0.50000  0.00000  0.00000  1
 Zr  Zr1  1  0.00000  0.00000  0.00000  1
