CIF file written using JARVIS-Tools package.
data_LiPrSn2
_symmetry_space_group_name_H-M  'Cmcm'
_cell_length_a       4.54078
_cell_length_b       4.53619
_cell_length_c       9.82817
_cell_angle_alpha    90
_cell_angle_beta     103.356
_cell_angle_gamma    90

_symmetry_Int_Tables_number  63
_chemical_formula_structural  LiPrSn2
_chemical_formula_sum  Li2Pr2Sn4
_cell_volume  196.96344574308262
_cell_formula_units_Z  2
loop_
  _symmetry_equiv_pos_site_id
 _symmetry_equiv_pos_as_xyz
 1  'x, y, z'
loop_
 _atom_site_type_symbol
 _atom_site_label
 _atom_site_symmetry_multiplicity
 _atom_site_fract_x
 _atom_site_fract_y
 _atom_site_fract_z
 _atom_site_fract_occupancy
 Li  Li1  1  0.67582  0.75000  0.35163  1
 Li  Li2  1  0.32418  0.25000  0.64837  1
 Pr  Pr1  1  0.89365  0.75000  0.78730  1
 Pr  Pr2  1  0.10635  0.25000  0.21270  1
 Sn  Sn1  1  0.54469  0.75000  0.08939  1
 Sn  Sn2  1  0.45531  0.25000  0.91061  1
 Sn  Sn3  1  0.25012  0.75000  0.50025  1
 Sn  Sn4  1  0.74988  0.25000  0.49975  1
