CIF file written using JARVIS-Tools package.
data_SiO2
_symmetry_space_group_name_H-M  'R32'
_cell_length_a       5.31929
_cell_length_b       5.3193
_cell_length_c       5.3193
_cell_angle_alpha    97.3533
_cell_angle_beta     97.3532
_cell_angle_gamma    97.3533

_symmetry_Int_Tables_number  155
_chemical_formula_structural  SiO2
_chemical_formula_sum  Si3O6
_cell_volume  146.44033576617036
_cell_formula_units_Z  3
loop_
  _symmetry_equiv_pos_site_id
 _symmetry_equiv_pos_as_xyz
 1  'x, y, z'
loop_
 _atom_site_type_symbol
 _atom_site_label
 _atom_site_symmetry_multiplicity
 _atom_site_fract_x
 _atom_site_fract_y
 _atom_site_fract_z
 _atom_site_fract_occupancy
 O  O1  1  0.30845  0.69155  0.50000  1
 O  O2  1  0.50000  0.30845  0.69155  1
 O  O3  1  0.69155  0.50000  0.30845  1
 O  O4  1  0.00000  0.33196  0.66805  1
 O  O5  1  0.66805  0.00000  0.33195  1
 O  O6  1  0.33195  0.66804  -0.00000  1
 Si  Si1  1  0.71651  0.28349  0.50000  1
 Si  Si2  1  0.50000  0.71651  0.28349  1
 Si  Si3  1  0.28349  0.50000  0.71651  1
