CIF file written using JARVIS-Tools package.
data_MgSiO3
_symmetry_space_group_name_H-M  'Pbca'
_cell_length_a       5.51145
_cell_length_b       8.12434
_cell_length_c       19.6718
_cell_angle_alpha    90
_cell_angle_beta     90
_cell_angle_gamma    90

_symmetry_Int_Tables_number  61
_chemical_formula_structural  MgSiO3
_chemical_formula_sum  Mg6Si6O48
_cell_volume  880.8429036401742
_cell_formula_units_Z  16
loop_
  _symmetry_equiv_pos_site_id
 _symmetry_equiv_pos_as_xyz
 1  'x, y, z'
loop_
 _atom_site_type_symbol
 _atom_site_label
 _atom_site_symmetry_multiplicity
 _atom_site_fract_x
 _atom_site_fract_y
 _atom_site_fract_z
 _atom_site_fract_occupancy
 Mg  Mg1  1  0.96312  0.55807  0.11797  1
 Mg  Mg2  1  0.96312  0.05807  0.38203  1
 Mg  Mg3  1  0.53710  0.55740  0.86787  1
 Mg  Mg4  1  0.03710  0.44260  0.63213  1
 Mg  Mg5  1  0.46290  0.44260  0.13213  1
 Mg  Mg6  1  0.53688  0.05807  0.88203  1
 Mg  Mg7  1  0.96290  0.55740  0.36787  1
 Mg  Mg8  1  0.03688  0.94193  0.61797  1
 Mg  Mg9  1  0.96290  0.05740  0.13213  1
 Mg  Mg10  1  0.46312  0.94193  0.11797  1
 Mg  Mg11  1  0.53688  0.55807  0.61797  1
 Mg  Mg12  1  0.03710  0.94260  0.86787  1
 Mg  Mg13  1  0.03688  0.44193  0.88203  1
 Mg  Mg14  1  0.46312  0.44193  0.38203  1
 Mg  Mg15  1  0.46290  0.94260  0.36787  1
 Mg  Mg16  1  0.53710  0.05740  0.63213  1
 O  O1  1  0.74153  0.51475  0.19508  1
 O  O2  1  0.00367  0.75716  0.53799  1
 O  O3  1  0.24440  0.61771  0.42767  1
 O  O4  1  0.25560  0.61771  0.92767  1
 O  O5  1  0.00982  0.75901  0.78786  1
 O  O6  1  0.24153  0.48525  0.30492  1
 O  O7  1  0.49018  0.25901  0.21214  1
 O  O8  1  0.25732  0.98501  0.94487  1
 O  O9  1  0.74268  0.01499  0.05513  1
 O  O10  1  0.74153  0.01475  0.30492  1
 O  O11  1  0.74839  0.38081  0.32260  1
 O  O12  1  0.74440  0.88229  0.42767  1
 O  O13  1  0.75732  0.51499  0.94487  1
 O  O14  1  0.25161  0.61919  0.67740  1
 O  O15  1  0.50982  0.24099  0.71214  1
 O  O16  1  0.99018  0.24099  0.21214  1
 O  O17  1  0.49018  0.75901  0.28786  1
 O  O18  1  0.24839  0.61919  0.17740  1
 O  O19  1  0.75161  0.88081  0.67740  1
 O  O20  1  0.24440  0.11771  0.07233  1
 O  O21  1  0.24839  0.11919  0.32260  1
 O  O22  1  0.25847  0.48525  0.80492  1
 O  O23  1  0.74268  0.51499  0.44487  1
 O  O24  1  0.25560  0.11771  0.57233  1
 O  O25  1  0.49633  0.75716  0.03799  1
 O  O26  1  0.50367  0.24284  0.96201  1
 O  O27  1  0.00982  0.25901  0.71214  1
 O  O28  1  0.50982  0.74099  0.78786  1
 O  O29  1  0.99018  0.74099  0.28786  1
 O  O30  1  0.25161  0.11919  0.82260  1
 O  O31  1  0.75732  0.01499  0.55513  1
 O  O32  1  0.75560  0.38229  0.57233  1
 O  O33  1  0.24153  0.98525  0.19508  1
 O  O34  1  0.49633  0.25716  0.46201  1
 O  O35  1  0.25732  0.48501  0.55513  1
 O  O36  1  0.24268  0.98501  0.44487  1
 O  O37  1  0.74839  0.88081  0.17740  1
 O  O38  1  0.00367  0.25716  0.96201  1
 O  O39  1  0.75847  0.01475  0.80492  1
 O  O40  1  0.25847  0.98525  0.69508  1
 O  O41  1  0.75161  0.38081  0.82260  1
 O  O42  1  0.99633  0.24284  0.46201  1
 O  O43  1  0.50367  0.74284  0.53799  1
 O  O44  1  0.24268  0.48501  0.05513  1
 O  O45  1  0.75560  0.88229  0.92767  1
 O  O46  1  0.75847  0.51475  0.69508  1
 O  O47  1  0.99633  0.74284  0.03799  1
 O  O48  1  0.74440  0.38229  0.07233  1
 Si  Si1  1  0.25470  0.64978  0.00844  1
 Si  Si2  1  0.75031  0.34982  0.24175  1
 Si  Si3  1  0.25031  0.65018  0.25825  1
 Si  Si4  1  0.24530  0.14978  0.99156  1
 Si  Si5  1  0.74969  0.84982  0.75825  1
 Si  Si6  1  0.74530  0.35022  0.99156  1
 Si  Si7  1  0.74530  0.85022  0.50844  1
 Si  Si8  1  0.75031  0.84982  0.25825  1
 Si  Si9  1  0.75470  0.85022  0.00844  1
 Si  Si10  1  0.74969  0.34982  0.74175  1
 Si  Si11  1  0.75470  0.35022  0.49156  1
 Si  Si12  1  0.25470  0.14978  0.49156  1
 Si  Si13  1  0.24530  0.64978  0.50844  1
 Si  Si14  1  0.24969  0.15018  0.74175  1
 Si  Si15  1  0.24969  0.65018  0.75825  1
 Si  Si16  1  0.25031  0.15018  0.24175  1
