CIF file written using JARVIS-Tools package.
data_Al2SiO5
_symmetry_space_group_name_H-M  'P-1'
_cell_length_a       5.6225
_cell_length_b       7.1836
_cell_length_c       7.9253
_cell_angle_alpha    106.002
_cell_angle_beta     90.011
_cell_angle_gamma    101.119

_symmetry_Int_Tables_number  2
_chemical_formula_structural  Al2SiO5
_chemical_formula_sum  Al8Si4O20
_cell_volume  301.43858059980295
_cell_formula_units_Z  4
loop_
  _symmetry_equiv_pos_site_id
 _symmetry_equiv_pos_as_xyz
 1  'x, y, z'
loop_
 _atom_site_type_symbol
 _atom_site_label
 _atom_site_symmetry_multiplicity
 _atom_site_fract_x
 _atom_site_fract_y
 _atom_site_fract_z
 _atom_site_fract_occupancy
 Al  Al1  1  0.04189  0.17482  0.79599  1
 Al  Al2  1  0.95811  0.82518  0.20401  1
 Al  Al3  1  0.54975  0.20338  0.80142  1
 Al  Al4  1  0.45025  0.79662  0.19858  1
 Al  Al5  1  0.85986  0.40056  0.11380  1
 Al  Al6  1  0.14014  0.59944  0.88620  1
 Al  Al7  1  0.33540  0.38816  0.58279  1
 Al  Al8  1  0.66460  0.61184  0.41721  1
 O  O1  1  0.74425  0.00117  0.77495  1
 O  O2  1  0.45413  0.77491  0.95470  1
 O  O3  1  0.54587  0.22509  0.04530  1
 O  O4  1  0.96549  0.79152  0.44635  1
 O  O5  1  0.25614  0.00186  0.73135  1
 O  O6  1  0.31912  0.37763  0.81506  1
 O  O7  1  0.25575  0.99883  0.22505  1
 O  O8  1  0.16682  0.60815  0.65232  1
 O  O9  1  0.74386  0.99814  0.26865  1
 O  O10  1  0.03451  0.20848  0.55365  1
 O  O11  1  0.62838  0.60912  0.64664  1
 O  O12  1  0.92903  0.78250  0.94565  1
 O  O13  1  0.43574  0.78336  0.43518  1
 O  O14  1  0.07097  0.21750  0.05435  1
 O  O15  1  0.83318  0.39185  0.34768  1
 O  O16  1  0.86103  0.37866  0.86928  1
 O  O17  1  0.13897  0.62134  0.13072  1
 O  O18  1  0.37162  0.39088  0.35336  1
 O  O19  1  0.56426  0.21664  0.56482  1
 O  O20  1  0.68088  0.62237  0.18494  1
 Si  Si1  1  0.68901  0.79111  0.83183  1
 Si  Si2  1  0.31099  0.20889  0.16817  1
 Si  Si3  1  0.79329  0.20357  0.43516  1
 Si  Si4  1  0.20671  0.79643  0.56484  1
