CIF file written using JARVIS-Tools package.
data_Ba4ScRe
_symmetry_space_group_name_H-M  'F-43m'
_cell_length_a       6.7377
_cell_length_b       6.7377
_cell_length_c       6.7377
_cell_angle_alpha    60
_cell_angle_beta     60
_cell_angle_gamma    60

_symmetry_Int_Tables_number  216
_chemical_formula_structural  Ba4ScRe
_chemical_formula_sum  Ba4ScRe
_cell_volume  216.28102794216278
_cell_formula_units_Z  1
loop_
  _symmetry_equiv_pos_site_id
 _symmetry_equiv_pos_as_xyz
 1  'x, y, z'
loop_
 _atom_site_type_symbol
 _atom_site_label
 _atom_site_symmetry_multiplicity
 _atom_site_fract_x
 _atom_site_fract_y
 _atom_site_fract_z
 _atom_site_fract_occupancy
 Ba  Ba1  1  0.12770  0.62410  0.62410  1
 Ba  Ba2  1  0.62410  0.62410  0.62410  1
 Ba  Ba3  1  0.62410  0.12770  0.62410  1
 Ba  Ba4  1  0.62410  0.62410  0.12770  1
 Re  Re1  1  0.25000  0.25000  0.25000  1
 Sc  Sc1  1  0.00000  0.00000  0.00000  1
