CIF file written using JARVIS-Tools package.
data_NpAl3
_symmetry_space_group_name_H-M  'Pm-3m'
_cell_length_a       4.27142
_cell_length_b       4.27142
_cell_length_c       4.27142
_cell_angle_alpha    90
_cell_angle_beta     90
_cell_angle_gamma    90

_symmetry_Int_Tables_number  221
_chemical_formula_structural  NpAl3
_chemical_formula_sum  NpAl3
_cell_volume  77.93224126352362
_cell_formula_units_Z  1
loop_
  _symmetry_equiv_pos_site_id
 _symmetry_equiv_pos_as_xyz
 1  'x, y, z'
loop_
 _atom_site_type_symbol
 _atom_site_label
 _atom_site_symmetry_multiplicity
 _atom_site_fract_x
 _atom_site_fract_y
 _atom_site_fract_z
 _atom_site_fract_occupancy
 Al  Al1  1  0.00000  0.50000  0.50000  1
 Al  Al2  1  0.50000  0.50000  0.00000  1
 Al  Al3  1  0.50000  0.00000  0.50000  1
 Np  Np1  1  0.00000  0.00000  0.00000  1
