CIF file written using JARVIS-Tools package.
data_VIr
_symmetry_space_group_name_H-M  'Cmmm'
_cell_length_a       2.7801
_cell_length_b       6.64648
_cell_length_c       6.64648
_cell_angle_alpha    114.709
_cell_angle_beta     90
_cell_angle_gamma    90

_symmetry_Int_Tables_number  65
_chemical_formula_structural  VIr
_chemical_formula_sum  V4Ir4
_cell_volume  111.56825001900495
_cell_formula_units_Z  4
loop_
  _symmetry_equiv_pos_site_id
 _symmetry_equiv_pos_as_xyz
 1  'x, y, z'
loop_
 _atom_site_type_symbol
 _atom_site_label
 _atom_site_symmetry_multiplicity
 _atom_site_fract_x
 _atom_site_fract_y
 _atom_site_fract_z
 _atom_site_fract_occupancy
 Ir  Ir1  1  0.00000  0.47929  0.98397  1
 Ir  Ir2  1  0.00000  0.01603  0.52071  1
 Ir  Ir3  1  0.00000  0.27049  0.26631  1
 Ir  Ir4  1  0.00000  0.73369  0.72951  1
 V  V1  1  0.50000  0.64777  0.35223  1
 V  V2  1  0.50000  0.37486  0.62514  1
 V  V3  1  0.50000  0.87489  0.12511  1
 V  V4  1  0.50000  0.10198  0.89802  1
