CIF file written using JARVIS-Tools package.
data_PuAlNi
_symmetry_space_group_name_H-M  'Amm2'
_cell_length_a       4.59343
_cell_length_b       6.67961
_cell_length_c       5.8506
_cell_angle_alpha    124.809
_cell_angle_beta     90
_cell_angle_gamma    90

_symmetry_Int_Tables_number  38
_chemical_formula_structural  PuAlNi
_chemical_formula_sum  Pu3Al3Ni3
_cell_volume  147.38792498579596
_cell_formula_units_Z  3
loop_
  _symmetry_equiv_pos_site_id
 _symmetry_equiv_pos_as_xyz
 1  'x, y, z'
loop_
 _atom_site_type_symbol
 _atom_site_label
 _atom_site_symmetry_multiplicity
 _atom_site_fract_x
 _atom_site_fract_y
 _atom_site_fract_z
 _atom_site_fract_occupancy
 Al  Al1  1  0.00000  0.23120  1.00000  1
 Al  Al2  1  0.00000  0.75235  0.73136  1
 Al  Al3  1  0.00000  0.02098  0.26864  1
 Ni  Ni1  1  0.00000  0.37165  0.71610  1
 Ni  Ni2  1  0.00000  0.65555  0.28390  1
 Ni  Ni3  1  0.50000  0.02246  1.00000  1
 Pu  Pu1  1  0.50000  0.60406  0.00000  1
 Pu  Pu2  1  0.50000  0.42835  0.51506  1
 Pu  Pu3  1  0.50000  0.91330  0.48494  1
