CIF file written using JARVIS-Tools package.
data_MnTe
_symmetry_space_group_name_H-M  'P6_3/mmc'
_cell_length_a       4.20733
_cell_length_b       5.94903
_cell_length_c       7.28702
_cell_angle_alpha    90
_cell_angle_beta     90
_cell_angle_gamma    90

_symmetry_Int_Tables_number  194
_chemical_formula_structural  MnTe
_chemical_formula_sum  Mn4Te4
_cell_volume  182.39055597642582
_cell_formula_units_Z  4
loop_
  _symmetry_equiv_pos_site_id
 _symmetry_equiv_pos_as_xyz
 1  'x, y, z'
loop_
 _atom_site_type_symbol
 _atom_site_label
 _atom_site_symmetry_multiplicity
 _atom_site_fract_x
 _atom_site_fract_y
 _atom_site_fract_z
 _atom_site_fract_occupancy
 Mn  Mn1  1  0.75000  0.49999  0.74999  1
 Mn  Mn2  1  0.75000  -0.00001  0.75001  1
 Mn  Mn3  1  0.25000  0.50001  0.25001  1
 Mn  Mn4  1  0.25000  0.00001  0.24999  1
 Te  Te1  1  0.75000  0.25002  0.08336  1
 Te  Te2  1  0.75000  0.75002  0.41664  1
 Te  Te3  1  0.25000  0.74998  0.91664  1
 Te  Te4  1  0.25000  0.24998  0.58336  1
