CIF file written using JARVIS-Tools package.
data_Sc5Cu5O13
_symmetry_space_group_name_H-M  'P1'
_cell_length_a       5.78251
_cell_length_b       5.99584
_cell_length_c       8.74836
_cell_angle_alpha    71.266
_cell_angle_beta     70.5377
_cell_angle_gamma    81.3029

_symmetry_Int_Tables_number  1
_chemical_formula_structural  Sc5Cu5O13
_chemical_formula_sum  Sc5Cu5O3
_cell_volume  270.4996527735716
_cell_formula_units_Z  1
loop_
  _symmetry_equiv_pos_site_id
 _symmetry_equiv_pos_as_xyz
 1  'x, y, z'
loop_
 _atom_site_type_symbol
 _atom_site_label
 _atom_site_symmetry_multiplicity
 _atom_site_fract_x
 _atom_site_fract_y
 _atom_site_fract_z
 _atom_site_fract_occupancy
 Cu  Cu1  1  0.43093  -0.00177  0.17296  1
 Cu  Cu2  1  0.79159  0.00559  0.40959  1
 Cu  Cu3  1  0.19708  0.01360  0.60918  1
 Cu  Cu4  1  0.59619  0.99612  0.79755  1
 Cu  Cu5  1  0.99167  0.99562  0.00700  1
 O  O1  1  0.60036  0.33085  0.72202  1
 O  O2  1  0.72463  0.05099  0.20723  1
 O  O3  1  0.96546  0.33124  0.91534  1
 O  O4  1  0.35366  0.31934  0.14730  1
 O  O5  1  0.78038  0.33033  0.35075  1
 O  O6  1  0.43108  0.66889  0.25834  1
 O  O7  1  0.01247  0.65982  0.06229  1
 O  O8  1  0.18108  0.34260  0.53653  1
 O  O9  1  0.60099  0.66233  0.88116  1
 O  O10  1  0.25268  0.68490  0.66769  1
 O  O11  1  0.82568  0.68317  0.45164  1
 O  O12  1  0.32831  0.04280  0.97724  1
 O  O13  1  0.86351  0.95024  0.61470  1
 Sc  Sc1  1  0.30061  0.45768  0.90448  1
 Sc  Sc2  1  0.89972  0.55238  0.69063  1
 Sc  Sc3  1  0.49935  0.50986  0.49925  1
 Sc  Sc4  1  0.10164  0.51039  0.29608  1
 Sc  Sc5  1  0.70075  0.45631  0.11035  1
