CIF file written using JARVIS-Tools package.
data_SmMgAg
_symmetry_space_group_name_H-M  'P-62m'
_cell_length_a       4.2324
_cell_length_b       7.70101
_cell_length_c       7.69987
_cell_angle_alpha    120.005
_cell_angle_beta     90
_cell_angle_gamma    90

_symmetry_Int_Tables_number  189
_chemical_formula_structural  SmMgAg
_chemical_formula_sum  Sm3Mg3Ag3
_cell_volume  217.33327671950983
_cell_formula_units_Z  3
loop_
  _symmetry_equiv_pos_site_id
 _symmetry_equiv_pos_as_xyz
 1  'x, y, z'
loop_
 _atom_site_type_symbol
 _atom_site_label
 _atom_site_symmetry_multiplicity
 _atom_site_fract_x
 _atom_site_fract_y
 _atom_site_fract_z
 _atom_site_fract_occupancy
 Ag  Ag1  1  0.00000  0.33333  0.66667  1
 Ag  Ag2  1  0.00000  0.66666  0.33333  1
 Ag  Ag3  1  0.50000  -0.00000  0.00000  1
 Mg  Mg1  1  0.00000  0.24293  0.00000  1
 Mg  Mg2  1  0.00000  0.75704  0.75704  1
 Mg  Mg3  1  0.00000  0.00000  0.24296  1
 Sm  Sm1  1  0.50000  0.58526  0.00000  1
 Sm  Sm2  1  0.50000  0.41470  0.41472  1
 Sm  Sm3  1  0.50000  -0.00002  0.58528  1
