CIF file written using JARVIS-Tools package.
data_PAuCl8
_symmetry_space_group_name_H-M  'Imma'
_cell_length_a       11.5002
_cell_length_b       11.5002
_cell_length_c       11.5002
_cell_angle_alpha    120.994
_cell_angle_beta     116.56
_cell_angle_gamma    92.1733

_symmetry_Int_Tables_number  74
_chemical_formula_structural  PAuCl8
_chemical_formula_sum  P4Au4Cl32
_cell_volume  1092.5654058466855
_cell_formula_units_Z  4
loop_
  _symmetry_equiv_pos_site_id
 _symmetry_equiv_pos_as_xyz
 1  'x, y, z'
loop_
 _atom_site_type_symbol
 _atom_site_label
 _atom_site_symmetry_multiplicity
 _atom_site_fract_x
 _atom_site_fract_y
 _atom_site_fract_z
 _atom_site_fract_occupancy
 Au  Au1  1  0.25000  0.32562  0.57562  1
 Au  Au2  1  0.75000  0.67438  0.42438  1
 Au  Au3  1  0.25000  0.83534  0.08534  1
 Au  Au4  1  0.75000  0.16466  0.91466  1
 Cl  Cl1  1  0.75000  0.96039  0.71039  1
 Cl  Cl2  1  0.42163  0.23057  0.00748  1
 Cl  Cl3  1  0.07837  0.58585  0.30894  1
 Cl  Cl4  1  0.72309  0.23057  0.30894  1
 Cl  Cl5  1  0.77691  0.58585  0.00748  1
 Cl  Cl6  1  0.57837  0.76943  0.99252  1
 Cl  Cl7  1  0.92163  0.41415  0.69106  1
 Cl  Cl8  1  0.27691  0.76943  0.69106  1
 Cl  Cl9  1  0.09527  0.06862  0.80705  1
 Cl  Cl10  1  0.39502  0.47053  0.57552  1
 Cl  Cl11  1  0.40473  0.71178  0.47335  1
 Cl  Cl12  1  0.76156  0.06862  0.47335  1
 Cl  Cl13  1  0.73844  0.71178  0.80705  1
 Cl  Cl14  1  0.90473  0.93138  0.19295  1
 Cl  Cl15  1  0.10498  0.18050  0.57552  1
 Cl  Cl16  1  0.23844  0.93138  0.52665  1
 Cl  Cl17  1  0.89502  0.81950  0.42448  1
 Cl  Cl18  1  0.59527  0.28822  0.52665  1
 Cl  Cl19  1  0.05804  0.32354  0.38158  1
 Cl  Cl20  1  0.22309  0.41415  0.99252  1
 Cl  Cl21  1  0.44196  0.32354  0.76549  1
 Cl  Cl22  1  0.55804  0.67646  0.23451  1
 Cl  Cl23  1  0.94196  0.67646  0.61842  1
 Cl  Cl24  1  0.60498  0.52947  0.42448  1
 Cl  Cl25  1  0.39484  0.98043  0.08559  1
 Cl  Cl26  1  0.10516  0.69075  0.08559  1
 Cl  Cl27  1  0.60516  0.01957  0.91441  1
 Cl  Cl28  1  0.25000  0.62988  0.87988  1
 Cl  Cl29  1  0.75000  0.37012  0.12012  1
 Cl  Cl30  1  0.25000  0.03961  0.28961  1
 Cl  Cl31  1  0.26156  0.28822  0.19295  1
 Cl  Cl32  1  0.89484  0.30925  0.91441  1
 P  P1  1  0.75014  0.25014  0.50000  1
 P  P2  1  0.24986  0.74986  0.50000  1
 P  P3  1  0.25014  0.25014  -0.00000  1
 P  P4  1  0.74986  0.74986  -0.00000  1
