CIF file written using JARVIS-Tools package.
data_EuMgH4
_symmetry_space_group_name_H-M  'Cmc2_1'
_cell_length_a       6.47963
_cell_length_b       6.47963
_cell_length_c       5.5144
_cell_angle_alpha    90
_cell_angle_beta     90
_cell_angle_gamma    32.7921

_symmetry_Int_Tables_number  36
_chemical_formula_structural  EuMgH4
_chemical_formula_sum  Eu2Mg2H8
_cell_volume  125.39203950807897
_cell_formula_units_Z  2
loop_
  _symmetry_equiv_pos_site_id
 _symmetry_equiv_pos_as_xyz
 1  'x, y, z'
loop_
 _atom_site_type_symbol
 _atom_site_label
 _atom_site_symmetry_multiplicity
 _atom_site_fract_x
 _atom_site_fract_y
 _atom_site_fract_z
 _atom_site_fract_occupancy
 Eu  Eu1  1  0.83773  0.83773  0.76485  1
 Eu  Eu2  1  0.16227  0.16227  0.26485  1
 H  H1  1  0.67338  0.67338  -0.00498  1
 H  H2  1  0.32662  0.32662  0.49502  1
 H  H3  1  0.70499  0.70499  0.50171  1
 H  H4  1  0.29501  0.29501  0.00171  1
 H  H5  1  0.97992  0.97992  0.09093  1
 H  H6  1  0.02008  0.02008  0.59093  1
 H  H7  1  0.44177  0.44177  0.83417  1
 H  H8  1  0.55823  0.55823  0.33417  1
 Mg  Mg1  1  0.57818  0.57818  0.71431  1
 Mg  Mg2  1  0.42182  0.42182  0.21431  1
