CIF file written using JARVIS-Tools package.
data_RbNi2F6
_symmetry_space_group_name_H-M  'Fd-3m'
_cell_length_a       7.12049
_cell_length_b       7.12054
_cell_length_c       7.12055
_cell_angle_alpha    59.9995
_cell_angle_beta     60.0003
_cell_angle_gamma    60.0003

_symmetry_Int_Tables_number  227
_chemical_formula_structural  RbNi2F6
_chemical_formula_sum  Rb2Ni4F2
_cell_volume  255.28252412496923
_cell_formula_units_Z  2
loop_
  _symmetry_equiv_pos_site_id
 _symmetry_equiv_pos_as_xyz
 1  'x, y, z'
loop_
 _atom_site_type_symbol
 _atom_site_label
 _atom_site_symmetry_multiplicity
 _atom_site_fract_x
 _atom_site_fract_y
 _atom_site_fract_z
 _atom_site_fract_occupancy
 F  F1  1  0.92627  0.82373  0.32373  1
 F  F2  1  0.67622  0.57380  0.67623  1
 F  F3  1  0.07374  0.17623  0.07380  1
 F  F4  1  0.32378  0.82377  0.92620  1
 F  F5  1  0.07374  0.57380  0.67623  1
 F  F6  1  0.32378  0.42620  0.32377  1
 F  F7  1  0.32378  0.42622  0.92622  1
 F  F8  1  0.92626  0.42620  0.32377  1
 F  F9  1  0.07373  0.17627  0.67627  1
 F  F10  1  0.67622  0.17623  0.07380  1
 F  F11  1  0.92626  0.82377  0.92620  1
 F  F12  1  0.67622  0.57378  0.07378  1
 Ni  Ni1  1  0.00000  0.50000  0.50000  1
 Ni  Ni2  1  0.00000  0.00000  0.00000  1
 Ni  Ni3  1  0.50000  0.50000  -0.00000  1
 Ni  Ni4  1  0.00000  0.50000  -0.00000  1
 Rb  Rb1  1  0.62508  0.12492  0.62492  1
 Rb  Rb2  1  0.37492  0.87508  0.37508  1
