CIF file written using JARVIS-Tools package.
data_BaLi4Cr
_symmetry_space_group_name_H-M  'F-43m'
_cell_length_a       5.68114
_cell_length_b       5.68114
_cell_length_c       5.68114
_cell_angle_alpha    60
_cell_angle_beta     60
_cell_angle_gamma    60

_symmetry_Int_Tables_number  216
_chemical_formula_structural  BaLi4Cr
_chemical_formula_sum  BaLi4Cr
_cell_volume  129.65559301038772
_cell_formula_units_Z  1
loop_
  _symmetry_equiv_pos_site_id
 _symmetry_equiv_pos_as_xyz
 1  'x, y, z'
loop_
 _atom_site_type_symbol
 _atom_site_label
 _atom_site_symmetry_multiplicity
 _atom_site_fract_x
 _atom_site_fract_y
 _atom_site_fract_z
 _atom_site_fract_occupancy
 Ba  Ba1  1  0.25000  0.25000  0.25000  1
 Cr  Cr1  1  0.00000  0.00000  0.00000  1
 Li  Li1  1  0.10966  0.63011  0.63011  1
 Li  Li2  1  0.63011  0.63011  0.63011  1
 Li  Li3  1  0.63011  0.10966  0.63011  1
 Li  Li4  1  0.63011  0.63011  0.10966  1
