CIF file written using JARVIS-Tools package.
data_K2Ag4S3
_symmetry_space_group_name_H-M  'C2/m'
_cell_length_a       4.25531
_cell_length_b       9.03516
_cell_length_c       11.5765
_cell_angle_alpha    107.669
_cell_angle_beta     90
_cell_angle_gamma    103.62

_symmetry_Int_Tables_number  12
_chemical_formula_structural  K2Ag4S3
_chemical_formula_sum  K4Ag8S6
_cell_volume  410.93327990053695
_cell_formula_units_Z  2
loop_
  _symmetry_equiv_pos_site_id
 _symmetry_equiv_pos_as_xyz
 1  'x, y, z'
loop_
 _atom_site_type_symbol
 _atom_site_label
 _atom_site_symmetry_multiplicity
 _atom_site_fract_x
 _atom_site_fract_y
 _atom_site_fract_z
 _atom_site_fract_occupancy
 Ag  Ag1  1  0.40584  0.81168  0.48852  1
 Ag  Ag2  1  0.01486  0.02971  0.87920  1
 Ag  Ag3  1  0.40904  0.81808  0.91390  1
 Ag  Ag4  1  0.59416  0.18832  0.51148  1
 Ag  Ag5  1  0.98514  0.97029  0.12080  1
 Ag  Ag6  1  0.02411  0.04822  0.63260  1
 Ag  Ag7  1  0.97589  0.95178  0.36740  1
 Ag  Ag8  1  0.59096  0.18192  0.08610  1
 K  K1  1  0.66752  0.33505  0.83871  1
 K  K2  1  0.33248  0.66495  0.16129  1
 K  K3  1  0.18570  0.37140  0.34139  1
 K  K4  1  0.81430  0.62860  0.65861  1
 S  S1  1  0.83447  0.66894  0.38340  1
 S  S2  1  0.46658  0.93315  0.72453  1
 S  S3  1  0.16553  0.33106  0.61660  1
 S  S4  1  0.85120  0.70239  0.96001  1
 S  S5  1  0.14880  0.29761  0.03999  1
 S  S6  1  0.53342  0.06685  0.27547  1
