CIF file written using JARVIS-Tools package.
data_Al4CO
_symmetry_space_group_name_H-M  'Pm'
_cell_length_a       2.93186
_cell_length_b       5.09313
_cell_length_c       5.21956
_cell_angle_alpha    91.4289
_cell_angle_beta     90.0989
_cell_angle_gamma    89.9789

_symmetry_Int_Tables_number  6
_chemical_formula_structural  Al4CO
_chemical_formula_sum  Al4CO
_cell_volume  77.9159064965501
_cell_formula_units_Z  1
loop_
  _symmetry_equiv_pos_site_id
 _symmetry_equiv_pos_as_xyz
 1  'x, y, z'
loop_
 _atom_site_type_symbol
 _atom_site_label
 _atom_site_symmetry_multiplicity
 _atom_site_fract_x
 _atom_site_fract_y
 _atom_site_fract_z
 _atom_site_fract_occupancy
 Al  Al1  1  0.04035  0.78753  0.60546  1
 Al  Al2  1  0.54218  0.91459  0.08862  1
 Al  Al3  1  0.54126  0.22879  0.57282  1
 Al  Al4  1  0.04139  0.44558  0.02402  1
 C  C1  1  0.54076  0.57070  0.77851  1
 O  O1  1  0.54165  0.28755  0.21889  1
