CIF file written using JARVIS-Tools package.
data_BaRuCl2
_symmetry_space_group_name_H-M  'P4mm'
_cell_length_a       4.21764
_cell_length_b       4.22013
_cell_length_c       6.02071
_cell_angle_alpha    90
_cell_angle_beta     90
_cell_angle_gamma    90

_symmetry_Int_Tables_number  99
_chemical_formula_structural  BaRuCl2
_chemical_formula_sum  BaRuCl2
_cell_volume  107.16276571755645
_cell_formula_units_Z  1
loop_
  _symmetry_equiv_pos_site_id
 _symmetry_equiv_pos_as_xyz
 1  'x, y, z'
loop_
 _atom_site_type_symbol
 _atom_site_label
 _atom_site_symmetry_multiplicity
 _atom_site_fract_x
 _atom_site_fract_y
 _atom_site_fract_z
 _atom_site_fract_occupancy
 Ba  Ba1  1  0.50000  0.50000  0.80602  1
 Cl  Cl1  1  0.00000  0.00000  0.89977  1
 Cl  Cl2  1  0.50000  0.50000  0.31997  1
 Ru  Ru1  1  0.00000  0.00000  0.47423  1
