CIF file written using JARVIS-Tools package.
data_SrN
_symmetry_space_group_name_H-M  'Fm-3m'
_cell_length_a       3.78647
_cell_length_b       5.35522
_cell_length_c       7.57271
_cell_angle_alpha    90
_cell_angle_beta     90
_cell_angle_gamma    90

_symmetry_Int_Tables_number  225
_chemical_formula_structural  SrN
_chemical_formula_sum  Sr4N4
_cell_volume  153.55465889402012
_cell_formula_units_Z  4
loop_
  _symmetry_equiv_pos_site_id
 _symmetry_equiv_pos_as_xyz
 1  'x, y, z'
loop_
 _atom_site_type_symbol
 _atom_site_label
 _atom_site_symmetry_multiplicity
 _atom_site_fract_x
 _atom_site_fract_y
 _atom_site_fract_z
 _atom_site_fract_occupancy
 N  N1  1  0.25000  0.25003  0.62498  1
 N  N2  1  0.25000  0.24997  0.12498  1
 N  N3  1  0.75000  0.74997  0.37502  1
 N  N4  1  0.75000  0.75003  0.87502  1
 Sr  Sr1  1  0.25000  0.74998  0.62500  1
 Sr  Sr2  1  0.25000  0.75002  0.12500  1
 Sr  Sr3  1  0.75000  0.25002  0.37500  1
 Sr  Sr4  1  0.75000  0.24998  0.87500  1
