CIF file written using JARVIS-Tools package.
data_K2NiH12C4O14
_symmetry_space_group_name_H-M  'P2_1/c'
_cell_length_a       6.62883
_cell_length_b       8.6024
_cell_length_c       11.7676
_cell_angle_alpha    101.249
_cell_angle_beta     90
_cell_angle_gamma    90

_symmetry_Int_Tables_number  14
_chemical_formula_structural  K2NiH12C4O14
_chemical_formula_sum  K4Ni2H24C8O28
_cell_volume  658.1427796649792
_cell_formula_units_Z  2
loop_
  _symmetry_equiv_pos_site_id
 _symmetry_equiv_pos_as_xyz
 1  'x, y, z'
loop_
 _atom_site_type_symbol
 _atom_site_label
 _atom_site_symmetry_multiplicity
 _atom_site_fract_x
 _atom_site_fract_y
 _atom_site_fract_z
 _atom_site_fract_occupancy
 C  C1  1  0.19068  0.70064  0.95649  1
 C  C2  1  0.69068  0.79936  0.54351  1
 C  C3  1  0.82820  0.68645  0.45774  1
 C  C4  1  0.17180  0.31355  0.54226  1
 C  C5  1  0.67180  0.18645  0.95774  1
 C  C6  1  0.32820  0.81355  0.04226  1
 C  C7  1  0.80932  0.29936  0.04351  1
 C  C8  1  0.30932  0.20064  0.45649  1
 H  H1  1  0.00376  0.71390  0.77211  1
 H  H2  1  0.92360  0.39912  0.34332  1
 H  H3  1  0.28557  0.10177  0.88523  1
 H  H4  1  0.08480  0.42357  0.85045  1
 H  H5  1  0.57640  0.89912  0.84332  1
 H  H6  1  0.71443  0.89823  0.11477  1
 H  H7  1  0.21443  0.60177  0.38523  1
 H  H8  1  0.58480  0.07643  0.64955  1
 H  H9  1  0.41520  0.92357  0.35045  1
 H  H10  1  0.42360  0.10088  0.15668  1
 H  H11  1  0.58191  0.32556  0.64982  1
 H  H12  1  0.50455  0.82038  0.23305  1
 H  H13  1  0.49545  0.17962  0.76695  1
 H  H14  1  0.49624  0.21390  0.27211  1
 H  H15  1  0.50376  0.78610  0.72789  1
 H  H16  1  0.91520  0.57643  0.14955  1
 H  H17  1  0.78557  0.39823  0.61477  1
 H  H18  1  -0.00455  0.32038  0.73305  1
 H  H19  1  0.07640  0.60088  0.65668  1
 H  H20  1  0.00455  0.67962  0.26695  1
 H  H21  1  0.91809  0.82556  0.14982  1
 H  H22  1  0.99624  0.28610  0.22789  1
 H  H23  1  0.08191  0.17444  0.85018  1
 H  H24  1  0.41809  0.67444  0.35018  1
 K  K1  1  0.66051  0.55978  0.87756  1
 K  K2  1  0.33949  0.44022  0.12244  1
 K  K3  1  0.83949  0.05978  0.37756  1
 K  K4  1  0.16051  0.94022  0.62244  1
 Ni  Ni1  1  0.50000  0.50000  0.50000  1
 Ni  Ni2  1  0.00000  0.00000  0.00000  1
 O  O1  1  0.01510  0.66153  0.18142  1
 O  O2  1  0.75630  0.44142  0.07515  1
 O  O3  1  0.35459  0.57208  0.36205  1
 O  O4  1  0.25630  0.05858  0.42485  1
 O  O5  1  0.64541  0.42792  0.63795  1
 O  O6  1  0.48490  0.16153  0.68142  1
 O  O7  1  0.51297  0.24103  0.92099  1
 O  O8  1  0.98703  0.74103  0.42099  1
 O  O9  1  0.98206  0.68784  0.68767  1
 O  O10  1  0.52804  0.73792  0.57402  1
 O  O11  1  0.47196  0.26208  0.42598  1
 O  O12  1  0.74370  0.94142  0.57515  1
 O  O13  1  0.97196  0.23792  0.07402  1
 O  O14  1  0.85459  0.92792  0.13795  1
 O  O15  1  0.98490  0.33847  0.81858  1
 O  O16  1  0.14541  0.07208  0.86205  1
 O  O17  1  0.73277  0.04352  0.92813  1
 O  O18  1  0.48703  0.75897  0.07901  1
 O  O19  1  0.24370  0.55858  0.92485  1
 O  O20  1  0.26723  0.95648  0.07187  1
 O  O21  1  0.76723  0.54352  0.42813  1
 O  O22  1  0.51794  0.18784  0.18767  1
 O  O23  1  0.01297  0.25897  0.57901  1
 O  O24  1  0.51510  0.83847  0.31858  1
 O  O25  1  0.23277  0.45648  0.57187  1
 O  O26  1  0.48206  0.81216  0.81233  1
 O  O27  1  0.02804  0.76208  0.92598  1
 O  O28  1  0.01794  0.31216  0.31233  1
