CIF file written using JARVIS-Tools package.
data_Na3FeO4
_symmetry_space_group_name_H-M  'P2/c'
_cell_length_a       5.20095
_cell_length_b       6.37645
_cell_length_c       5.69492
_cell_angle_alpha    90
_cell_angle_beta     109.806
_cell_angle_gamma    90

_symmetry_Int_Tables_number  13
_chemical_formula_structural  Na3FeO4
_chemical_formula_sum  Na6Fe2O8
_cell_volume  177.691826641892
_cell_formula_units_Z  2
loop_
  _symmetry_equiv_pos_site_id
 _symmetry_equiv_pos_as_xyz
 1  'x, y, z'
loop_
 _atom_site_type_symbol
 _atom_site_label
 _atom_site_symmetry_multiplicity
 _atom_site_fract_x
 _atom_site_fract_y
 _atom_site_fract_z
 _atom_site_fract_occupancy
 Fe  Fe1  1  0.25000  0.12775  0.00000  1
 Fe  Fe2  1  0.75000  0.87225  0.00000  1
 Na  Na1  1  0.25000  0.61988  0.00000  1
 Na  Na2  1  0.75000  0.38012  0.00000  1
 Na  Na3  1  0.25000  0.88496  0.50000  1
 Na  Na4  1  0.25000  0.37330  0.50000  1
 Na  Na5  1  0.75000  0.62670  0.50000  1
 Na  Na6  1  0.75000  0.11504  0.50000  1
 O  O1  1  0.05022  0.32170  0.78347  1
 O  O2  1  0.49312  0.09700  0.81252  1
 O  O3  1  0.55022  0.67830  0.78347  1
 O  O4  1  0.99312  0.90300  0.81252  1
 O  O5  1  0.44978  0.32170  0.21653  1
 O  O6  1  0.50688  0.90300  0.18748  1
 O  O7  1  0.94978  0.67830  0.21653  1
 O  O8  1  0.00688  0.09700  0.18748  1
