CIF file written using JARVIS-Tools package.
data_YClO2
_symmetry_space_group_name_H-M  'P2_1/m'
_cell_length_a       3.58618
_cell_length_b       6.15186
_cell_length_c       6.24751
_cell_angle_alpha    109.141
_cell_angle_beta     90
_cell_angle_gamma    90

_symmetry_Int_Tables_number  11
_chemical_formula_structural  YClO2
_chemical_formula_sum  Y2Cl2O4
_cell_volume  130.210554828959
_cell_formula_units_Z  2
loop_
  _symmetry_equiv_pos_site_id
 _symmetry_equiv_pos_as_xyz
 1  'x, y, z'
loop_
 _atom_site_type_symbol
 _atom_site_label
 _atom_site_symmetry_multiplicity
 _atom_site_fract_x
 _atom_site_fract_y
 _atom_site_fract_z
 _atom_site_fract_occupancy
 Cl  Cl1  1  0.25000  0.74926  0.51911  1
 Cl  Cl2  1  0.75000  0.25074  0.48089  1
 O  O1  1  0.25000  0.91609  0.05986  1
 O  O2  1  0.75000  0.08391  0.94014  1
 O  O3  1  0.25000  0.44656  0.86541  1
 O  O4  1  0.75000  0.55344  0.13459  1
 Y  Y1  1  0.75000  0.69095  0.83887  1
 Y  Y2  1  0.25000  0.30905  0.16113  1
