CIF file written using JARVIS-Tools package.
data_Nb5Ge3B
_symmetry_space_group_name_H-M  'P6_3/mcm'
_cell_length_a       7.78728
_cell_length_b       7.78728
_cell_length_c       5.38425
_cell_angle_alpha    90
_cell_angle_beta     90
_cell_angle_gamma    120

_symmetry_Int_Tables_number  193
_chemical_formula_structural  Nb5Ge3B
_chemical_formula_sum  Nb0Ge6B2
_cell_volume  282.765750744744
_cell_formula_units_Z  2
loop_
  _symmetry_equiv_pos_site_id
 _symmetry_equiv_pos_as_xyz
 1  'x, y, z'
loop_
 _atom_site_type_symbol
 _atom_site_label
 _atom_site_symmetry_multiplicity
 _atom_site_fract_x
 _atom_site_fract_y
 _atom_site_fract_z
 _atom_site_fract_occupancy
 B  B1  1  0.00000  0.00000  0.50000  1
 B  B2  1  0.00000  0.00000  0.00000  1
 Ge  Ge1  1  0.60001  0.60001  0.75000  1
 Ge  Ge2  1  -0.00000  0.39999  0.75000  1
 Ge  Ge3  1  0.39999  -0.00000  0.75000  1
 Ge  Ge4  1  0.39999  0.39999  0.25000  1
 Ge  Ge5  1  0.00000  0.60001  0.25000  1
 Ge  Ge6  1  0.60001  0.00000  0.25000  1
 Nb  Nb1  1  0.24386  0.00000  0.25000  1
 Nb  Nb2  1  0.33333  0.66667  0.00000  1
 Nb  Nb3  1  0.33333  0.66667  0.50000  1
 Nb  Nb4  1  -0.00000  0.75614  0.75000  1
 Nb  Nb5  1  0.00000  0.24386  0.25000  1
 Nb  Nb6  1  0.75614  0.75614  0.25000  1
 Nb  Nb7  1  0.75614  -0.00000  0.75000  1
 Nb  Nb8  1  0.24386  0.24386  0.75000  1
 Nb  Nb9  1  0.66667  0.33333  0.00000  1
 Nb  Nb10  1  0.66667  0.33333  0.50000  1
