CIF file written using JARVIS-Tools package.
data_EuH3O3
_symmetry_space_group_name_H-M  'P6_3/m'
_cell_length_a       6.34121
_cell_length_b       6.34105
_cell_length_c       3.62715
_cell_angle_alpha    90
_cell_angle_beta     90
_cell_angle_gamma    119.997

_symmetry_Int_Tables_number  176
_chemical_formula_structural  EuH3O3
_chemical_formula_sum  Eu2H6O6
_cell_volume  126.31188098073173
_cell_formula_units_Z  2
loop_
  _symmetry_equiv_pos_site_id
 _symmetry_equiv_pos_as_xyz
 1  'x, y, z'
loop_
 _atom_site_type_symbol
 _atom_site_label
 _atom_site_symmetry_multiplicity
 _atom_site_fract_x
 _atom_site_fract_y
 _atom_site_fract_z
 _atom_site_fract_occupancy
 Eu  Eu1  1  0.33333  0.66665  0.25000  1
 Eu  Eu2  1  0.66667  0.33335  0.75000  1
 H  H1  1  0.86263  0.72690  0.25000  1
 H  H2  1  0.86424  0.13736  0.25000  1
 H  H3  1  0.27315  0.13575  0.25000  1
 H  H4  1  0.13737  0.27310  0.75000  1
 H  H5  1  0.13576  0.86264  0.75000  1
 H  H6  1  0.72685  0.86425  0.75000  1
 O  O1  1  0.91743  0.60784  0.25000  1
 O  O2  1  0.69039  0.08256  0.25000  1
 O  O3  1  0.39217  0.30962  0.25000  1
 O  O4  1  0.08257  0.39216  0.75000  1
 O  O5  1  0.30961  0.91744  0.75000  1
 O  O6  1  0.60783  0.69038  0.75000  1
