CIF file written using JARVIS-Tools package.
data_Dy2SiSeO4
_symmetry_space_group_name_H-M  'Pbcm'
_cell_length_a       6.03017
_cell_length_b       6.94724
_cell_length_c       10.8076
_cell_angle_alpha    90
_cell_angle_beta     90
_cell_angle_gamma    90

_symmetry_Int_Tables_number  57
_chemical_formula_structural  Dy2SiSeO4
_chemical_formula_sum  Dy8Si4Se4O6
_cell_volume  452.7628812620234
_cell_formula_units_Z  4
loop_
  _symmetry_equiv_pos_site_id
 _symmetry_equiv_pos_as_xyz
 1  'x, y, z'
loop_
 _atom_site_type_symbol
 _atom_site_label
 _atom_site_symmetry_multiplicity
 _atom_site_fract_x
 _atom_site_fract_y
 _atom_site_fract_z
 _atom_site_fract_occupancy
 Dy  Dy1  1  0.13135  0.47198  0.25000  1
 Dy  Dy2  1  0.86865  0.97198  0.25000  1
 Dy  Dy3  1  0.86865  0.52802  0.75000  1
 Dy  Dy4  1  0.39263  0.75000  0.00000  1
 Dy  Dy5  1  0.39263  0.75000  0.50000  1
 Dy  Dy6  1  0.60737  0.25000  0.00000  1
 Dy  Dy7  1  0.60737  0.25000  0.50000  1
 Dy  Dy8  1  0.13135  0.02802  0.75000  1
 O  O1  1  0.05539  0.74108  0.37909  1
 O  O2  1  0.05539  0.74108  0.12091  1
 O  O3  1  0.27580  0.43177  0.46786  1
 O  O4  1  0.27580  0.06823  0.53214  1
 O  O5  1  0.72420  0.93177  0.46786  1
 O  O6  1  0.72420  0.56823  0.96786  1
 O  O7  1  0.72420  0.56823  0.53214  1
 O  O8  1  0.94461  0.24108  0.37909  1
 O  O9  1  0.27580  0.06823  0.96786  1
 O  O10  1  0.72420  0.93177  0.03214  1
 O  O11  1  0.94461  0.25892  0.62091  1
 O  O12  1  0.05539  0.75892  0.87909  1
 O  O13  1  0.94461  0.24108  0.12091  1
 O  O14  1  0.27580  0.43177  0.03214  1
 O  O15  1  0.05539  0.75892  0.62091  1
 O  O16  1  0.94461  0.25892  0.87909  1
 Se  Se1  1  0.57803  0.62297  0.25000  1
 Se  Se2  1  0.42197  0.37703  0.75000  1
 Se  Se3  1  0.42197  0.12297  0.25000  1
 Se  Se4  1  0.57803  0.87703  0.75000  1
 Si  Si1  1  0.11189  0.25000  0.50000  1
 Si  Si2  1  0.88811  0.75000  0.50000  1
 Si  Si3  1  0.88811  0.75000  0.00000  1
 Si  Si4  1  0.11189  0.25000  0.00000  1
