CIF file written using JARVIS-Tools package.
data_DySnPt
_symmetry_space_group_name_H-M  'P-62m'
_cell_length_a       4.00423
_cell_length_b       7.52174
_cell_length_c       7.5216
_cell_angle_alpha    120.001
_cell_angle_beta     90
_cell_angle_gamma    90

_symmetry_Int_Tables_number  189
_chemical_formula_structural  DySnPt
_chemical_formula_sum  Dy3Sn3Pt3
_cell_volume  196.1896285627988
_cell_formula_units_Z  3
loop_
  _symmetry_equiv_pos_site_id
 _symmetry_equiv_pos_as_xyz
 1  'x, y, z'
loop_
 _atom_site_type_symbol
 _atom_site_label
 _atom_site_symmetry_multiplicity
 _atom_site_fract_x
 _atom_site_fract_y
 _atom_site_fract_z
 _atom_site_fract_occupancy
 Dy  Dy1  1  0.50000  0.59542  -0.00000  1
 Dy  Dy2  1  0.50000  0.40455  0.40457  1
 Dy  Dy3  1  0.50000  -0.00001  0.59543  1
 Pt  Pt1  1  0.00000  0.33332  0.66667  1
 Pt  Pt2  1  0.00000  0.66666  0.33333  1
 Pt  Pt3  1  0.50000  0.99999  0.00000  1
 Sn  Sn1  1  0.00000  0.26014  -0.00000  1
 Sn  Sn2  1  0.00000  0.73984  0.73985  1
 Sn  Sn3  1  0.00000  -0.00001  0.26015  1
