CIF file written using JARVIS-Tools package.
data_Tl4HgI6
_symmetry_space_group_name_H-M  'P4/mnc'
_cell_length_a       9.30516
_cell_length_b       9.44019
_cell_length_c       9.44019
_cell_angle_alpha    90
_cell_angle_beta     90
_cell_angle_gamma    90

_symmetry_Int_Tables_number  128
_chemical_formula_structural  Tl4HgI6
_chemical_formula_sum  Tl8Hg2I2
_cell_volume  829.2489023121676
_cell_formula_units_Z  2
loop_
  _symmetry_equiv_pos_site_id
 _symmetry_equiv_pos_as_xyz
 1  'x, y, z'
loop_
 _atom_site_type_symbol
 _atom_site_label
 _atom_site_symmetry_multiplicity
 _atom_site_fract_x
 _atom_site_fract_y
 _atom_site_fract_z
 _atom_site_fract_occupancy
 Hg  Hg1  1  0.00000  0.00000  0.00000  1
 Hg  Hg2  1  0.50000  0.50000  0.50000  1
 I  I1  1  0.20447  0.50000  0.50000  1
 I  I2  1  0.50000  0.64164  0.82851  1
 I  I3  1  0.50000  0.17149  0.64164  1
 I  I4  1  0.50000  0.82851  0.35836  1
 I  I5  1  0.00000  0.67149  0.85836  1
 I  I6  1  0.00000  0.14164  0.67149  1
 I  I7  1  0.00000  0.85836  0.32851  1
 I  I8  1  0.00000  0.32851  0.14164  1
 I  I9  1  0.79553  0.50000  0.50000  1
 I  I10  1  0.29553  0.00000  0.00000  1
 I  I11  1  0.70447  0.00000  0.00000  1
 I  I12  1  0.50000  0.35836  0.17149  1
 Tl  Tl1  1  0.25000  0.14802  0.35198  1
 Tl  Tl2  1  0.75000  0.35198  0.85198  1
 Tl  Tl3  1  0.75000  0.14802  0.35198  1
 Tl  Tl4  1  0.75000  0.85198  0.64802  1
 Tl  Tl5  1  0.75000  0.64802  0.14802  1
 Tl  Tl6  1  0.25000  0.64802  0.14802  1
 Tl  Tl7  1  0.25000  0.85198  0.64802  1
 Tl  Tl8  1  0.25000  0.35198  0.85198  1
