CIF file written using JARVIS-Tools package.
data_BAsO4
_symmetry_space_group_name_H-M  'I-4'
_cell_length_a       4.50015
_cell_length_b       4.50014
_cell_length_c       4.68288
_cell_angle_alpha    118.717
_cell_angle_beta     118.717
_cell_angle_gamma    90

_symmetry_Int_Tables_number  82
_chemical_formula_structural  BAsO4
_chemical_formula_sum  BAsO4
_cell_volume  69.57641852817183
_cell_formula_units_Z  1
loop_
  _symmetry_equiv_pos_site_id
 _symmetry_equiv_pos_as_xyz
 1  'x, y, z'
loop_
 _atom_site_type_symbol
 _atom_site_label
 _atom_site_symmetry_multiplicity
 _atom_site_fract_x
 _atom_site_fract_y
 _atom_site_fract_z
 _atom_site_fract_occupancy
 As  As1  1  0.00000  0.00000  0.00000  1
 B  B1  1  0.25000  0.75000  0.50000  1
 O  O1  1  0.14514  0.70277  0.73344  1
 O  O2  1  0.29723  0.41170  0.26656  1
 O  O3  1  0.58830  0.03067  0.73344  1
 O  O4  1  0.96933  0.85486  0.26656  1
