CIF file written using JARVIS-Tools package.
data_WO2F
_symmetry_space_group_name_H-M  'P4/mmm'
_cell_length_a       5.56929
_cell_length_b       5.39959
_cell_length_c       5.56928
_cell_angle_alpha    118.99
_cell_angle_beta     57.9905
_cell_angle_gamma    118.99

_symmetry_Int_Tables_number  123
_chemical_formula_structural  WO2F
_chemical_formula_sum  W2O4F2
_cell_volume  118.21976271896169
_cell_formula_units_Z  2
loop_
  _symmetry_equiv_pos_site_id
 _symmetry_equiv_pos_as_xyz
 1  'x, y, z'
loop_
 _atom_site_type_symbol
 _atom_site_label
 _atom_site_symmetry_multiplicity
 _atom_site_fract_x
 _atom_site_fract_y
 _atom_site_fract_z
 _atom_site_fract_occupancy
 F  F1  1  0.25023  0.25000  0.24977  1
 F  F2  1  0.74977  0.75000  0.75023  1
 O  O1  1  0.24942  0.74941  0.75044  1
 O  O2  1  0.74956  0.75059  0.25058  1
 O  O3  1  0.25044  0.24941  0.74942  1
 O  O4  1  0.75058  0.25059  0.24956  1
 W  W1  1  0.00000  0.00000  0.00000  1
 W  W2  1  0.50000  0.50000  0.50000  1
