CIF file written using JARVIS-Tools package.
data_UCu2Sn
_symmetry_space_group_name_H-M  'P6_3/mmc'
_cell_length_a       4.75579
_cell_length_b       4.75579
_cell_length_c       7.9201
_cell_angle_alpha    90
_cell_angle_beta     90
_cell_angle_gamma    119.984

_symmetry_Int_Tables_number  194
_chemical_formula_structural  UCu2Sn
_chemical_formula_sum  U2Cu4Sn2
_cell_volume  155.1592353428902
_cell_formula_units_Z  2
loop_
  _symmetry_equiv_pos_site_id
 _symmetry_equiv_pos_as_xyz
 1  'x, y, z'
loop_
 _atom_site_type_symbol
 _atom_site_label
 _atom_site_symmetry_multiplicity
 _atom_site_fract_x
 _atom_site_fract_y
 _atom_site_fract_z
 _atom_site_fract_occupancy
 Cu  Cu1  1  0.66659  0.33341  0.10294  1
 Cu  Cu2  1  0.33341  0.66659  0.89706  1
 Cu  Cu3  1  0.33341  0.66659  0.60294  1
 Cu  Cu4  1  0.66659  0.33341  0.39706  1
 Sn  Sn1  1  0.66672  0.33328  0.75000  1
 Sn  Sn2  1  0.33328  0.66672  0.25000  1
 U  U1  1  0.00000  0.00000  0.50000  1
 U  U2  1  0.00000  0.00000  0.00000  1
