CIF file written using JARVIS-Tools package.
data_Hf2PbC
_symmetry_space_group_name_H-M  'P6_3/mmc'
_cell_length_a       3.37567
_cell_length_b       3.37567
_cell_length_c       14.6377
_cell_angle_alpha    90
_cell_angle_beta     90
_cell_angle_gamma    120.001

_symmetry_Int_Tables_number  194
_chemical_formula_structural  Hf2PbC
_chemical_formula_sum  Hf4Pb2C2
_cell_volume  144.45020968443853
_cell_formula_units_Z  2
loop_
  _symmetry_equiv_pos_site_id
 _symmetry_equiv_pos_as_xyz
 1  'x, y, z'
loop_
 _atom_site_type_symbol
 _atom_site_label
 _atom_site_symmetry_multiplicity
 _atom_site_fract_x
 _atom_site_fract_y
 _atom_site_fract_z
 _atom_site_fract_occupancy
 C  C1  1  0.00000  0.00000  0.50000  1
 C  C2  1  0.00000  0.00000  0.00000  1
 Hf  Hf1  1  0.66667  0.33333  0.58169  1
 Hf  Hf2  1  0.33333  0.66667  0.41831  1
 Hf  Hf3  1  0.33333  0.66667  0.08169  1
 Hf  Hf4  1  0.66667  0.33333  0.91831  1
 Pb  Pb1  1  0.66657  0.33343  0.25000  1
 Pb  Pb2  1  0.33343  0.66657  0.75000  1
