CIF file written using JARVIS-Tools package.
data_BaSb2
_symmetry_space_group_name_H-M  'P2_1/m'
_cell_length_a       4.46835
_cell_length_b       5.19056
_cell_length_c       9.48266
_cell_angle_alpha    101.685
_cell_angle_beta     90
_cell_angle_gamma    90

_symmetry_Int_Tables_number  11
_chemical_formula_structural  BaSb2
_chemical_formula_sum  Ba2Sb4
_cell_volume  215.37567579814976
_cell_formula_units_Z  2
loop_
  _symmetry_equiv_pos_site_id
 _symmetry_equiv_pos_as_xyz
 1  'x, y, z'
loop_
 _atom_site_type_symbol
 _atom_site_label
 _atom_site_symmetry_multiplicity
 _atom_site_fract_x
 _atom_site_fract_y
 _atom_site_fract_z
 _atom_site_fract_occupancy
 Ba  Ba1  1  0.25000  0.41682  0.28689  1
 Ba  Ba2  1  0.75000  0.58318  0.71311  1
 Sb  Sb1  1  0.25000  0.04324  0.60538  1
 Sb  Sb2  1  0.75000  0.95676  0.39462  1
 Sb  Sb3  1  0.25000  0.82613  0.02118  1
 Sb  Sb4  1  0.75000  0.17387  0.97882  1
