CIF file written using JARVIS-Tools package.
data_UNiC2
_symmetry_space_group_name_H-M  'P4/nmm'
_cell_length_a       3.50541
_cell_length_b       3.50541
_cell_length_c       7.34433
_cell_angle_alpha    90
_cell_angle_beta     90
_cell_angle_gamma    90

_symmetry_Int_Tables_number  129
_chemical_formula_structural  UNiC2
_chemical_formula_sum  U2Ni2C4
_cell_volume  90.24622898656656
_cell_formula_units_Z  2
loop_
  _symmetry_equiv_pos_site_id
 _symmetry_equiv_pos_as_xyz
 1  'x, y, z'
loop_
 _atom_site_type_symbol
 _atom_site_label
 _atom_site_symmetry_multiplicity
 _atom_site_fract_x
 _atom_site_fract_y
 _atom_site_fract_z
 _atom_site_fract_occupancy
 C  C1  1  0.75000  0.75000  0.16471  1
 C  C2  1  0.25000  0.25000  0.83529  1
 C  C3  1  0.75000  0.75000  0.36126  1
 C  C4  1  0.25000  0.25000  0.63874  1
 Ni  Ni1  1  0.75000  0.25000  0.00000  1
 Ni  Ni2  1  0.25000  0.75000  0.00000  1
 U  U1  1  0.75000  0.75000  0.67876  1
 U  U2  1  0.25000  0.25000  0.32124  1
