CIF file written using JARVIS-Tools package.
data_Bi2TeO5
_symmetry_space_group_name_H-M  'Aem2'
_cell_length_a       5.57819
_cell_length_b       8.75943
_cell_length_c       11.554
_cell_angle_alpha    90
_cell_angle_beta     90
_cell_angle_gamma    108.567

_symmetry_Int_Tables_number  39
_chemical_formula_structural  Bi2TeO5
_chemical_formula_sum  Bi8Te4O20
_cell_volume  535.164554910503
_cell_formula_units_Z  4
loop_
  _symmetry_equiv_pos_site_id
 _symmetry_equiv_pos_as_xyz
 1  'x, y, z'
loop_
 _atom_site_type_symbol
 _atom_site_label
 _atom_site_symmetry_multiplicity
 _atom_site_fract_x
 _atom_site_fract_y
 _atom_site_fract_z
 _atom_site_fract_occupancy
 Bi  Bi1  1  0.43709  0.83040  0.61056  1
 Bi  Bi2  1  0.93709  0.83040  0.38944  1
 Bi  Bi3  1  0.10669  0.16960  0.61056  1
 Bi  Bi4  1  0.25824  0.50000  0.87373  1
 Bi  Bi5  1  0.75824  0.50000  0.12627  1
 Bi  Bi6  1  0.74977  0.50000  0.61548  1
 Bi  Bi7  1  0.24977  0.50000  0.38452  1
 Bi  Bi8  1  0.60669  0.16960  0.38944  1
 O  O1  1  0.38850  0.50000  0.70414  1
 O  O2  1  0.88850  0.50000  0.29586  1
 O  O3  1  0.63092  0.67583  0.51153  1
 O  O4  1  0.95510  0.32417  0.48847  1
 O  O5  1  0.37631  0.31533  0.21142  1
 O  O6  1  0.45510  0.32417  0.51153  1
 O  O7  1  0.06098  0.68467  0.78858  1
 O  O8  1  0.43882  0.29754  0.93670  1
 O  O9  1  0.56098  0.68467  0.21142  1
 O  O10  1  0.13092  0.67583  0.48847  1
 O  O11  1  0.14128  0.70246  0.06330  1
 O  O12  1  0.73689  0.00000  0.50000  1
 O  O13  1  0.89713  0.08163  0.25663  1
 O  O14  1  0.87631  0.31533  0.78858  1
 O  O15  1  0.31550  0.91837  0.25663  1
 O  O16  1  0.23689  0.00000  0.50000  1
 O  O17  1  0.64128  0.70246  0.93670  1
 O  O18  1  0.93882  0.29754  0.06330  1
 O  O19  1  0.81550  0.91837  0.74337  1
 O  O20  1  0.39713  0.08163  0.74337  1
 Te  Te1  1  0.61270  0.16152  0.87087  1
 Te  Te2  1  0.45118  0.83848  0.12913  1
 Te  Te3  1  0.11270  0.16152  0.12913  1
 Te  Te4  1  0.95118  0.83848  0.87087  1
