CIF file written using JARVIS-Tools package.
data_BaB2F8
_symmetry_space_group_name_H-M  'C2/m'
_cell_length_a       4.74775
_cell_length_b       5.05041
_cell_length_c       6.79123
_cell_angle_alpha    111.833
_cell_angle_beta     110.055
_cell_angle_gamma    90.0001

_symmetry_Int_Tables_number  12
_chemical_formula_structural  BaB2F8
_chemical_formula_sum  BaB2F8
_cell_volume  140.4675749369933
_cell_formula_units_Z  1
loop_
  _symmetry_equiv_pos_site_id
 _symmetry_equiv_pos_as_xyz
 1  'x, y, z'
loop_
 _atom_site_type_symbol
 _atom_site_label
 _atom_site_symmetry_multiplicity
 _atom_site_fract_x
 _atom_site_fract_y
 _atom_site_fract_z
 _atom_site_fract_occupancy
 B  B1  1  0.28593  0.34738  0.69472  1
 B  B2  1  0.71407  0.65262  0.30528  1
 Ba  Ba1  1  0.00000  0.00000  0.00000  1
 F  F1  1  0.46487  0.61472  0.76928  1
 F  F2  1  0.85718  0.77152  0.54309  1
 F  F3  1  0.46489  0.15461  0.76925  1
 F  F4  1  0.06319  0.39929  0.79859  1
 F  F5  1  0.53511  0.84539  0.23075  1
 F  F6  1  0.53513  0.38528  0.23072  1
 F  F7  1  0.14282  0.22848  0.45691  1
 F  F8  1  0.93681  0.60071  0.20141  1
