CIF file written using JARVIS-Tools package.
data_PbS
_symmetry_space_group_name_H-M  'Cmcm'
_cell_length_a       4.15734
_cell_length_b       4.3055
_cell_length_c       6.27366
_cell_angle_alpha    90
_cell_angle_beta     70.6503
_cell_angle_gamma    90

_symmetry_Int_Tables_number  63
_chemical_formula_structural  PbS
_chemical_formula_sum  Pb2S2
_cell_volume  105.95168926078591
_cell_formula_units_Z  2
loop_
  _symmetry_equiv_pos_site_id
 _symmetry_equiv_pos_as_xyz
 1  'x, y, z'
loop_
 _atom_site_type_symbol
 _atom_site_label
 _atom_site_symmetry_multiplicity
 _atom_site_fract_x
 _atom_site_fract_y
 _atom_site_fract_z
 _atom_site_fract_occupancy
 Pb  Pb1  1  0.12872  0.75000  0.74255  1
 Pb  Pb2  1  0.87128  0.25000  0.25745  1
 S  S1  1  0.35826  0.75000  0.28349  1
 S  S2  1  0.64174  0.25000  0.71651  1
