CIF file written using JARVIS-Tools package.
data_NaLiTe
_symmetry_space_group_name_H-M  'Pnma'
_cell_length_a       4.5722
_cell_length_b       7.67789
_cell_length_c       8.30857
_cell_angle_alpha    90
_cell_angle_beta     90
_cell_angle_gamma    90

_symmetry_Int_Tables_number  62
_chemical_formula_structural  NaLiTe
_chemical_formula_sum  Na4Li4Te4
_cell_volume  291.67103716969206
_cell_formula_units_Z  4
loop_
  _symmetry_equiv_pos_site_id
 _symmetry_equiv_pos_as_xyz
 1  'x, y, z'
loop_
 _atom_site_type_symbol
 _atom_site_label
 _atom_site_symmetry_multiplicity
 _atom_site_fract_x
 _atom_site_fract_y
 _atom_site_fract_z
 _atom_site_fract_occupancy
 Li  Li1  1  0.25000  0.64253  0.92888  1
 Li  Li2  1  0.25000  0.14253  0.57112  1
 Li  Li3  1  0.75000  0.35747  0.07112  1
 Li  Li4  1  0.75000  0.85747  0.42888  1
 Na  Na1  1  0.75000  0.48472  0.68430  1
 Na  Na2  1  0.25000  0.01528  0.18430  1
 Na  Na3  1  0.75000  0.98472  0.81570  1
 Na  Na4  1  0.25000  0.51528  0.31570  1
 Te  Te1  1  0.25000  0.77456  0.60827  1
 Te  Te2  1  0.25000  0.27456  0.89173  1
 Te  Te3  1  0.75000  0.72544  0.10827  1
 Te  Te4  1  0.75000  0.22544  0.39173  1
