CIF file written using JARVIS-Tools package.
data_LiCuPO4
_symmetry_space_group_name_H-M  'Pc'
_cell_length_a       7.80924
_cell_length_b       5.29198
_cell_length_c       8.38834
_cell_angle_alpha    90
_cell_angle_beta     105.005
_cell_angle_gamma    90

_symmetry_Int_Tables_number  7
_chemical_formula_structural  LiCuPO4
_chemical_formula_sum  Li4Cu4P4O6
_cell_volume  334.84026154155515
_cell_formula_units_Z  4
loop_
  _symmetry_equiv_pos_site_id
 _symmetry_equiv_pos_as_xyz
 1  'x, y, z'
loop_
 _atom_site_type_symbol
 _atom_site_label
 _atom_site_symmetry_multiplicity
 _atom_site_fract_x
 _atom_site_fract_y
 _atom_site_fract_z
 _atom_site_fract_occupancy
 Cu  Cu1  1  0.12003  0.33347  0.79878  1
 Cu  Cu2  1  0.62374  0.83076  0.60607  1
 Cu  Cu3  1  0.12003  0.66653  0.29878  1
 Cu  Cu4  1  0.62374  0.16924  0.10607  1
 Li  Li1  1  0.03669  0.85616  0.92882  1
 Li  Li2  1  0.50339  0.32013  0.72243  1
 Li  Li3  1  0.03669  0.14384  0.42882  1
 Li  Li4  1  0.50339  0.67987  0.22243  1
 O  O1  1  0.68353  0.39133  0.93740  1
 O  O2  1  0.42311  0.66125  0.66406  1
 O  O3  1  0.77919  0.80136  0.82435  1
 O  O4  1  0.12296  0.18115  0.00797  1
 O  O5  1  0.17945  0.69348  0.81124  1
 O  O6  1  0.62237  0.80612  0.05957  1
 O  O7  1  0.62237  0.19388  0.55957  1
 O  O8  1  0.30965  0.09402  0.73285  1
 O  O9  1  0.94407  0.32196  0.59262  1
 O  O10  1  0.77919  0.19864  0.32435  1
 O  O11  1  0.17945  0.30652  0.31124  1
 O  O12  1  0.30965  0.90598  0.23285  1
 O  O13  1  0.12296  0.81885  0.50797  1
 O  O14  1  0.42311  0.33875  0.16406  1
 O  O15  1  0.68353  0.60867  0.43740  1
 O  O16  1  0.94407  0.67804  0.09262  1
 P  P1  1  0.75240  0.66340  0.98051  1
 P  P2  1  0.26062  0.81772  0.67953  1
 P  P3  1  0.75240  0.33660  0.48051  1
 P  P4  1  0.26062  0.18228  0.17953  1
