CIF file written using JARVIS-Tools package.
data_FeNi3
_symmetry_space_group_name_H-M  'Pmmn'
_cell_length_a       4.05784
_cell_length_b       4.34652
_cell_length_c       5.01313
_cell_angle_alpha    90
_cell_angle_beta     90
_cell_angle_gamma    90

_symmetry_Int_Tables_number  59
_chemical_formula_structural  FeNi3
_chemical_formula_sum  Fe2Ni6
_cell_volume  88.41902608133277
_cell_formula_units_Z  2
loop_
  _symmetry_equiv_pos_site_id
 _symmetry_equiv_pos_as_xyz
 1  'x, y, z'
loop_
 _atom_site_type_symbol
 _atom_site_label
 _atom_site_symmetry_multiplicity
 _atom_site_fract_x
 _atom_site_fract_y
 _atom_site_fract_z
 _atom_site_fract_occupancy
 Fe  Fe1  1  0.50000  0.33378  0.50000  1
 Fe  Fe2  1  0.00000  0.66622  0.00000  1
 Ni  Ni1  1  0.00000  0.66925  0.50000  1
 Ni  Ni2  1  0.50000  0.33075  0.00000  1
 Ni  Ni3  1  0.50000  0.83260  0.74871  1
 Ni  Ni4  1  0.00000  0.16740  0.24871  1
 Ni  Ni5  1  0.00000  0.16740  0.75129  1
 Ni  Ni6  1  0.50000  0.83260  0.25129  1
