CIF file written using JARVIS-Tools package.
data_AlPt2
_symmetry_space_group_name_H-M  'Pmma'
_cell_length_a       3.9574
_cell_length_b       5.51433
_cell_length_c       16.5449
_cell_angle_alpha    90
_cell_angle_beta     90
_cell_angle_gamma    90

_symmetry_Int_Tables_number  51
_chemical_formula_structural  AlPt2
_chemical_formula_sum  Al8Pt6
_cell_volume  361.05043485601044
_cell_formula_units_Z  8
loop_
  _symmetry_equiv_pos_site_id
 _symmetry_equiv_pos_as_xyz
 1  'x, y, z'
loop_
 _atom_site_type_symbol
 _atom_site_label
 _atom_site_symmetry_multiplicity
 _atom_site_fract_x
 _atom_site_fract_y
 _atom_site_fract_z
 _atom_site_fract_occupancy
 Al  Al1  1  0.00000  0.20271  0.75000  1
 Al  Al2  1  0.00000  0.79729  0.25000  1
 Al  Al3  1  0.00000  0.68381  0.59200  1
 Al  Al4  1  0.00000  0.31619  0.40800  1
 Al  Al5  1  0.00000  0.68381  0.90800  1
 Al  Al6  1  0.00000  0.31619  0.09200  1
 Al  Al7  1  0.50000  0.00000  0.50000  1
 Al  Al8  1  0.50000  0.00000  0.00000  1
 Pt  Pt1  1  0.50000  0.05830  0.34541  1
 Pt  Pt2  1  0.50000  0.94170  0.65459  1
 Pt  Pt3  1  0.50000  0.56294  0.16808  1
 Pt  Pt4  1  0.00000  0.20029  0.93194  1
 Pt  Pt5  1  0.50000  0.56294  0.33192  1
 Pt  Pt6  1  0.50000  0.43706  0.66808  1
 Pt  Pt7  1  0.50000  0.43706  0.83192  1
 Pt  Pt8  1  0.50000  0.50000  0.50000  1
 Pt  Pt9  1  0.50000  0.94170  0.84541  1
 Pt  Pt10  1  0.50000  0.05830  0.15459  1
 Pt  Pt11  1  0.00000  0.27094  0.25000  1
 Pt  Pt12  1  0.50000  0.50000  0.00000  1
 Pt  Pt13  1  0.00000  0.20029  0.56806  1
 Pt  Pt14  1  0.00000  0.79971  0.43194  1
 Pt  Pt15  1  0.00000  0.72906  0.75000  1
 Pt  Pt16  1  0.00000  0.79971  0.06806  1
