CIF file written using JARVIS-Tools package.
data_LuCuSn
_symmetry_space_group_name_H-M  'P6_3mc'
_cell_length_a       4.48058
_cell_length_b       4.48058
_cell_length_c       7.1297
_cell_angle_alpha    90
_cell_angle_beta     90
_cell_angle_gamma    120

_symmetry_Int_Tables_number  186
_chemical_formula_structural  LuCuSn
_chemical_formula_sum  Lu2Cu2Sn2
_cell_volume  123.9569235145256
_cell_formula_units_Z  2
loop_
  _symmetry_equiv_pos_site_id
 _symmetry_equiv_pos_as_xyz
 1  'x, y, z'
loop_
 _atom_site_type_symbol
 _atom_site_label
 _atom_site_symmetry_multiplicity
 _atom_site_fract_x
 _atom_site_fract_y
 _atom_site_fract_z
 _atom_site_fract_occupancy
 Cu  Cu1  1  0.33333  0.66667  0.32820  1
 Cu  Cu2  1  0.66667  0.33333  0.82820  1
 Lu  Lu1  1  0.00000  0.00000  0.49671  1
 Lu  Lu2  1  0.00000  0.00000  0.99671  1
 Sn  Sn1  1  0.66667  0.33333  0.22766  1
 Sn  Sn2  1  0.33333  0.66667  0.72766  1
