CIF file written using JARVIS-Tools package.
data_BaCaI4
_symmetry_space_group_name_H-M  'P2/m'
_cell_length_a       4.78062
_cell_length_b       7.35059
_cell_length_c       8.92335
_cell_angle_alpha    118.496
_cell_angle_beta     89.9934
_cell_angle_gamma    90.0043

_symmetry_Int_Tables_number  10
_chemical_formula_structural  BaCaI4
_chemical_formula_sum  BaCaI4
_cell_volume  275.5820999238004
_cell_formula_units_Z  1
loop_
  _symmetry_equiv_pos_site_id
 _symmetry_equiv_pos_as_xyz
 1  'x, y, z'
loop_
 _atom_site_type_symbol
 _atom_site_label
 _atom_site_symmetry_multiplicity
 _atom_site_fract_x
 _atom_site_fract_y
 _atom_site_fract_z
 _atom_site_fract_occupancy
 Ba  Ba1  1  0.50563  0.49495  -0.00045  1
 Ca  Ca1  1  0.00567  -0.00536  0.49968  1
 I  I1  1  0.00558  0.51323  0.27977  1
 I  I2  1  0.50569  0.02358  0.27365  1
 I  I3  1  0.00570  0.47612  0.71918  1
 I  I4  1  0.50565  0.96607  0.72591  1
