CIF file written using JARVIS-Tools package.
data_Rb3HoO3
_symmetry_space_group_name_H-M  'C2/m'
_cell_length_a       7.20075
_cell_length_b       7.20075
_cell_length_c       7.16029
_cell_angle_alpha    85.0063
_cell_angle_beta     94.9937
_cell_angle_gamma    64.7378

_symmetry_Int_Tables_number  12
_chemical_formula_structural  Rb3HoO3
_chemical_formula_sum  Rb6Ho2O6
_cell_volume  331.2927595160166
_cell_formula_units_Z  2
loop_
  _symmetry_equiv_pos_site_id
 _symmetry_equiv_pos_as_xyz
 1  'x, y, z'
loop_
 _atom_site_type_symbol
 _atom_site_label
 _atom_site_symmetry_multiplicity
 _atom_site_fract_x
 _atom_site_fract_y
 _atom_site_fract_z
 _atom_site_fract_occupancy
 Ho  Ho1  1  0.18051  0.81949  0.14634  1
 Ho  Ho2  1  0.81949  0.18051  0.85366  1
 O  O1  1  0.09784  0.90216  0.83749  1
 O  O2  1  0.16911  0.54860  0.26800  1
 O  O3  1  0.45140  0.83089  0.26800  1
 O  O4  1  0.54860  0.16911  0.73200  1
 O  O5  1  0.83089  0.45140  0.73200  1
 O  O6  1  0.90216  0.09784  0.16251  1
 Rb  Rb1  1  0.36093  0.63907  0.63895  1
 Rb  Rb2  1  0.79939  0.79939  0.50000  1
 Rb  Rb3  1  0.20061  0.20061  0.50000  1
 Rb  Rb4  1  0.25900  0.25900  0.00000  1
 Rb  Rb5  1  0.74100  0.74100  0.00000  1
 Rb  Rb6  1  0.63907  0.36093  0.36105  1
