CIF file written using JARVIS-Tools package.
data_ThGaNi
_symmetry_space_group_name_H-M  'P-62m'
_cell_length_a       4.03543
_cell_length_b       7.07584
_cell_length_c       7.07612
_cell_angle_alpha    119.999
_cell_angle_beta     90
_cell_angle_gamma    90

_symmetry_Int_Tables_number  189
_chemical_formula_structural  ThGaNi
_chemical_formula_sum  Th3Ga3Ni3
_cell_volume  174.98427538253404
_cell_formula_units_Z  3
loop_
  _symmetry_equiv_pos_site_id
 _symmetry_equiv_pos_as_xyz
 1  'x, y, z'
loop_
 _atom_site_type_symbol
 _atom_site_label
 _atom_site_symmetry_multiplicity
 _atom_site_fract_x
 _atom_site_fract_y
 _atom_site_fract_z
 _atom_site_fract_occupancy
 Ga  Ga1  1  0.00000  0.23591  -0.00000  1
 Ga  Ga2  1  0.00000  0.76407  0.76408  1
 Ga  Ga3  1  0.00000  0.99999  0.23592  1
 Ni  Ni1  1  0.00000  0.33332  0.66667  1
 Ni  Ni2  1  0.00000  0.66665  0.33333  1
 Ni  Ni3  1  0.50000  -0.00001  -0.00000  1
 Th  Th1  1  0.50000  0.58329  0.00000  1
 Th  Th2  1  0.50000  0.41668  0.41670  1
 Th  Th3  1  0.50000  0.99999  0.58330  1
