CIF file written using JARVIS-Tools package.
data_As2PdO6
_symmetry_space_group_name_H-M  'P-31m'
_cell_length_a       4.65733
_cell_length_b       4.92812
_cell_length_c       4.92809
_cell_angle_alpha    120
_cell_angle_beta     90.0005
_cell_angle_gamma    89.9997

_symmetry_Int_Tables_number  162
_chemical_formula_structural  As2PdO6
_chemical_formula_sum  As2PdO6
_cell_volume  97.95535196817818
_cell_formula_units_Z  1
loop_
  _symmetry_equiv_pos_site_id
 _symmetry_equiv_pos_as_xyz
 1  'x, y, z'
loop_
 _atom_site_type_symbol
 _atom_site_label
 _atom_site_symmetry_multiplicity
 _atom_site_fract_x
 _atom_site_fract_y
 _atom_site_fract_z
 _atom_site_fract_occupancy
 As  As1  1  0.50000  0.33333  0.66666  1
 As  As2  1  0.50000  0.66667  0.33334  1
 O  O1  1  0.27831  0.37113  0.37113  1
 O  O2  1  0.27831  0.62887  -0.00000  1
 O  O3  1  0.27831  0.00000  0.62887  1
 O  O4  1  0.72169  0.62887  0.62887  1
 O  O5  1  0.72169  0.37113  0.00000  1
 O  O6  1  0.72169  0.00000  0.37113  1
 Pd  Pd1  1  0.00000  0.00000  0.00000  1
