CIF file written using JARVIS-Tools package.
data_N3Cl
_symmetry_space_group_name_H-M  'Cmc2_1'
_cell_length_a       4.13805
_cell_length_b       5.59536
_cell_length_c       6.46038
_cell_angle_alpha    115.661
_cell_angle_beta     90
_cell_angle_gamma    90

_symmetry_Int_Tables_number  36
_chemical_formula_structural  N3Cl
_chemical_formula_sum  N6Cl2
_cell_volume  134.82928996345316
_cell_formula_units_Z  2
loop_
  _symmetry_equiv_pos_site_id
 _symmetry_equiv_pos_as_xyz
 1  'x, y, z'
loop_
 _atom_site_type_symbol
 _atom_site_label
 _atom_site_symmetry_multiplicity
 _atom_site_fract_x
 _atom_site_fract_y
 _atom_site_fract_z
 _atom_site_fract_occupancy
 Cl  Cl1  1  0.33255  0.10563  0.21127  1
 Cl  Cl2  1  0.83255  0.89437  0.78873  1
 N  N1  1  0.57255  0.23061  0.46123  1
 N  N2  1  0.07255  0.76939  0.53877  1
 N  N3  1  0.39932  0.31831  0.63663  1
 N  N4  1  0.89932  0.68169  0.36337  1
 N  N5  1  0.27608  0.40623  0.81247  1
 N  N6  1  0.77608  0.59377  0.18753  1
