CIF file written using JARVIS-Tools package.
data_As2O5
_symmetry_space_group_name_H-M  'P4_32_12'
_cell_length_a       8.72136
_cell_length_b       8.72136
_cell_length_c       4.69216
_cell_angle_alpha    90
_cell_angle_beta     90
_cell_angle_gamma    90

_symmetry_Int_Tables_number  96
_chemical_formula_structural  As2O5
_chemical_formula_sum  As8O20
_cell_volume  356.89614678661064
_cell_formula_units_Z  4
loop_
  _symmetry_equiv_pos_site_id
 _symmetry_equiv_pos_as_xyz
 1  'x, y, z'
loop_
 _atom_site_type_symbol
 _atom_site_label
 _atom_site_symmetry_multiplicity
 _atom_site_fract_x
 _atom_site_fract_y
 _atom_site_fract_z
 _atom_site_fract_occupancy
 As  As1  1  0.40210  0.40210  0.00000  1
 As  As2  1  0.59790  0.59790  0.50000  1
 As  As3  1  0.90210  0.09790  0.25000  1
 As  As4  1  0.09790  0.90210  0.75000  1
 As  As5  1  0.78394  0.78394  0.00000  1
 As  As6  1  0.21606  0.21606  0.50000  1
 As  As7  1  0.28394  0.71606  0.25000  1
 As  As8  1  0.71606  0.28394  0.75000  1
 O  O1  1  0.73331  0.15384  0.47908  1
 O  O2  1  0.24575  0.02267  0.57113  1
 O  O3  1  0.34616  0.23331  0.22908  1
 O  O4  1  0.05763  0.05763  0.00000  1
 O  O5  1  0.55763  0.44237  0.25000  1
 O  O6  1  0.94237  0.94237  0.50000  1
 O  O7  1  0.26669  0.84616  0.97908  1
 O  O8  1  0.44237  0.55763  0.75000  1
 O  O9  1  0.65384  0.76669  0.72908  1
 O  O10  1  0.52267  0.25425  0.82113  1
 O  O11  1  0.74575  0.47733  0.67887  1
 O  O12  1  0.23331  0.34616  0.77092  1
 O  O13  1  0.84616  0.26669  0.02092  1
 O  O14  1  0.25425  0.52267  0.17887  1
 O  O15  1  0.47733  0.74575  0.32113  1
 O  O16  1  0.97733  0.75425  0.92887  1
 O  O17  1  0.02267  0.24575  0.42887  1
 O  O18  1  0.76669  0.65384  0.27092  1
 O  O19  1  0.15384  0.73331  0.52092  1
 O  O20  1  0.75425  0.97733  0.07113  1
