CIF file written using JARVIS-Tools package.
data_Mg3Cd
_symmetry_space_group_name_H-M  'Imm2'
_cell_length_a       3.22564
_cell_length_b       10.1364
_cell_length_c       5.38981
_cell_angle_alpha    90
_cell_angle_beta     90
_cell_angle_gamma    90

_symmetry_Int_Tables_number  44
_chemical_formula_structural  Mg3Cd
_chemical_formula_sum  Mg6Cd2
_cell_volume  176.22710797058792
_cell_formula_units_Z  2
loop_
  _symmetry_equiv_pos_site_id
 _symmetry_equiv_pos_as_xyz
 1  'x, y, z'
loop_
 _atom_site_type_symbol
 _atom_site_label
 _atom_site_symmetry_multiplicity
 _atom_site_fract_x
 _atom_site_fract_y
 _atom_site_fract_z
 _atom_site_fract_occupancy
 Cd  Cd1  1  0.00000  0.00000  0.33129  1
 Cd  Cd2  1  0.50000  0.50000  0.83129  1
 Mg  Mg1  1  0.50000  0.00000  0.84362  1
 Mg  Mg2  1  0.00000  0.25555  -0.00412  1
 Mg  Mg3  1  0.50000  0.24445  0.49588  1
 Mg  Mg4  1  0.00000  0.50000  0.34362  1
 Mg  Mg5  1  0.50000  0.75555  0.49588  1
 Mg  Mg6  1  0.00000  0.74445  -0.00412  1
