CIF file written using JARVIS-Tools package.
data_UGeTe
_symmetry_space_group_name_H-M  'I4/mmm'
_cell_length_a       4.12064
_cell_length_b       4.12065
_cell_length_c       9.24071
_cell_angle_alpha    102.883
_cell_angle_beta     102.883
_cell_angle_gamma    90.0001

_symmetry_Int_Tables_number  139
_chemical_formula_structural  UGeTe
_chemical_formula_sum  U2Ge2Te2
_cell_volume  148.90064989220082
_cell_formula_units_Z  2
loop_
  _symmetry_equiv_pos_site_id
 _symmetry_equiv_pos_as_xyz
 1  'x, y, z'
loop_
 _atom_site_type_symbol
 _atom_site_label
 _atom_site_symmetry_multiplicity
 _atom_site_fract_x
 _atom_site_fract_y
 _atom_site_fract_z
 _atom_site_fract_occupancy
 Ge  Ge1  1  0.00000  0.50000  -0.00000  1
 Ge  Ge2  1  0.50000  -0.00000  0.00000  1
 Te  Te1  1  0.31447  0.31447  0.62893  1
 Te  Te2  1  0.68553  0.68553  0.37107  1
 U  U1  1  0.87766  0.87766  0.75533  1
 U  U2  1  0.12234  0.12234  0.24467  1
