CIF file written using JARVIS-Tools package.
data_LiVTe3O12
_symmetry_space_group_name_H-M  'P1'
_cell_length_a       4.96635
_cell_length_b       5.29961
_cell_length_c       7.29955
_cell_angle_alpha    94.1865
_cell_angle_beta     90.0367
_cell_angle_gamma    90.0714

_symmetry_Int_Tables_number  1
_chemical_formula_structural  LiVTe3O12
_chemical_formula_sum  LiVTe3O2
_cell_volume  191.60885745962582
_cell_formula_units_Z  1
loop_
  _symmetry_equiv_pos_site_id
 _symmetry_equiv_pos_as_xyz
 1  'x, y, z'
loop_
 _atom_site_type_symbol
 _atom_site_label
 _atom_site_symmetry_multiplicity
 _atom_site_fract_x
 _atom_site_fract_y
 _atom_site_fract_z
 _atom_site_fract_occupancy
 Li  Li1  1  0.50109  0.93375  0.79582  1
 O  O1  1  0.32419  0.18146  0.42012  1
 O  O2  1  0.13429  0.00497  0.74660  1
 O  O3  1  0.29864  0.81420  0.04883  1
 O  O4  1  0.87785  0.00554  0.24851  1
 O  O5  1  0.17861  0.68179  0.42024  1
 O  O6  1  0.36193  0.51598  0.74435  1
 O  O7  1  0.79449  0.71462  0.93217  1
 O  O8  1  0.64626  0.50935  0.24854  1
 O  O9  1  0.81897  0.32257  0.56865  1
 O  O10  1  0.69006  0.18825  0.93390  1
 O  O11  1  0.18496  0.30762  0.05751  1
 O  O12  1  0.67489  0.82448  0.56510  1
 Te  Te1  1  0.49873  0.49910  0.49299  1
 Te  Te2  1  0.00705  0.00321  0.50440  1
 Te  Te3  1  0.50516  0.49597  0.99855  1
 V  V1  1  0.00284  0.00475  0.01992  1
