CIF file written using JARVIS-Tools package.
data_Sr4GeP4
_symmetry_space_group_name_H-M  'P-43n'
_cell_length_a       12.5224
_cell_length_b       12.5224
_cell_length_c       12.5224
_cell_angle_alpha    90
_cell_angle_beta     90
_cell_angle_gamma    90

_symmetry_Int_Tables_number  218
_chemical_formula_structural  Sr4GeP4
_chemical_formula_sum  Sr32Ge8P32
_cell_volume  1963.6555335470857
_cell_formula_units_Z  8
loop_
  _symmetry_equiv_pos_site_id
 _symmetry_equiv_pos_as_xyz
 1  'x, y, z'
loop_
 _atom_site_type_symbol
 _atom_site_label
 _atom_site_symmetry_multiplicity
 _atom_site_fract_x
 _atom_site_fract_y
 _atom_site_fract_z
 _atom_site_fract_occupancy
 Ge  Ge1  1  0.25000  0.00000  0.50000  1
 Ge  Ge2  1  0.50000  0.25000  0.00000  1
 Ge  Ge3  1  0.50000  0.50000  0.50000  1
 Ge  Ge4  1  0.00000  0.00000  0.00000  1
 Ge  Ge5  1  0.00000  0.50000  0.75000  1
 Ge  Ge6  1  0.75000  0.00000  0.50000  1
 Ge  Ge7  1  0.00000  0.50000  0.25000  1
 Ge  Ge8  1  0.50000  0.75000  0.00000  1
 P  P1  1  0.89057  0.89057  0.89057  1
 P  P2  1  0.39057  0.39057  0.39057  1
 P  P3  1  0.10943  0.89057  0.10943  1
 P  P4  1  0.10943  0.10943  0.89057  1
 P  P5  1  0.89057  0.10943  0.10943  1
 P  P6  1  0.60943  0.60943  0.39057  1
 P  P7  1  0.64673  0.10766  0.38158  1
 P  P8  1  0.89234  0.61842  0.64673  1
 P  P9  1  0.10766  0.61842  0.35327  1
 P  P10  1  0.61842  0.64673  0.89234  1
 P  P11  1  0.38158  0.35327  0.89234  1
 P  P12  1  0.85327  0.88158  0.39234  1
 P  P13  1  0.11842  0.39234  0.14673  1
 P  P14  1  0.14673  0.88158  0.60766  1
 P  P15  1  0.11842  0.60766  0.85327  1
 P  P16  1  0.60766  0.14673  0.88158  1
 P  P17  1  0.60766  0.85327  0.11842  1
 P  P18  1  0.88158  0.39234  0.85327  1
 P  P19  1  0.39057  0.60943  0.60943  1
 P  P20  1  0.88158  0.60766  0.14673  1
 P  P21  1  0.85327  0.11842  0.60766  1
 P  P22  1  0.39234  0.14673  0.11842  1
 P  P23  1  0.61842  0.35327  0.10766  1
 P  P24  1  0.89234  0.38158  0.35327  1
 P  P25  1  0.10766  0.38158  0.64673  1
 P  P26  1  0.35327  0.10766  0.61842  1
 P  P27  1  0.35327  0.89234  0.38158  1
 P  P28  1  0.14673  0.11842  0.39234  1
 P  P29  1  0.60943  0.39057  0.60943  1
 P  P30  1  0.39234  0.85327  0.88158  1
 P  P31  1  0.64673  0.89234  0.61842  1
 P  P32  1  0.38158  0.64673  0.10766  1
 Sr  Sr1  1  0.85494  0.14506  0.85494  1
 Sr  Sr2  1  0.90398  0.86734  0.64480  1
 Sr  Sr3  1  0.90398  0.13266  0.35520  1
 Sr  Sr4  1  0.86734  0.64480  0.90398  1
 Sr  Sr5  1  0.13266  0.64480  0.09602  1
 Sr  Sr6  1  0.64480  0.90398  0.86734  1
 Sr  Sr7  1  0.35520  0.09602  0.86734  1
 Sr  Sr8  1  0.59602  0.85520  0.36734  1
 Sr  Sr9  1  0.59602  0.14480  0.63266  1
 Sr  Sr10  1  0.40398  0.85520  0.63266  1
 Sr  Sr11  1  0.14480  0.63266  0.59602  1
 Sr  Sr12  1  0.63266  0.40398  0.85520  1
 Sr  Sr13  1  0.63266  0.59602  0.14480  1
 Sr  Sr14  1  0.85520  0.36734  0.59602  1
 Sr  Sr15  1  0.85520  0.63266  0.40398  1
 Sr  Sr16  1  0.36734  0.59602  0.85520  1
 Sr  Sr17  1  0.85494  0.85494  0.14506  1
 Sr  Sr18  1  0.14506  0.85494  0.85494  1
 Sr  Sr19  1  0.35494  0.35494  0.64506  1
 Sr  Sr20  1  0.64506  0.35494  0.35494  1
 Sr  Sr21  1  0.35494  0.64506  0.35494  1
 Sr  Sr22  1  0.14480  0.36734  0.40398  1
 Sr  Sr23  1  0.40398  0.14480  0.36734  1
 Sr  Sr24  1  0.14506  0.14506  0.14506  1
 Sr  Sr25  1  0.09602  0.13266  0.64480  1
 Sr  Sr26  1  0.13266  0.35520  0.90398  1
 Sr  Sr27  1  0.86734  0.35520  0.09602  1
 Sr  Sr28  1  0.64480  0.09602  0.13266  1
 Sr  Sr29  1  0.35520  0.90398  0.13266  1
 Sr  Sr30  1  0.09602  0.86734  0.35520  1
 Sr  Sr31  1  0.36734  0.40398  0.14480  1
 Sr  Sr32  1  0.64506  0.64506  0.64506  1
