CIF file written using JARVIS-Tools package.
data_YMg
_symmetry_space_group_name_H-M  'F-43m'
_cell_length_a       7.04114
_cell_length_b       7.04114
_cell_length_c       7.04114
_cell_angle_alpha    90
_cell_angle_beta     90
_cell_angle_gamma    90

_symmetry_Int_Tables_number  216
_chemical_formula_structural  YMg
_chemical_formula_sum  Y4Mg4
_cell_volume  349.0836267991932
_cell_formula_units_Z  4
loop_
  _symmetry_equiv_pos_site_id
 _symmetry_equiv_pos_as_xyz
 1  'x, y, z'
loop_
 _atom_site_type_symbol
 _atom_site_label
 _atom_site_symmetry_multiplicity
 _atom_site_fract_x
 _atom_site_fract_y
 _atom_site_fract_z
 _atom_site_fract_occupancy
 Mg  Mg1  1  0.00000  0.00000  0.00000  1
 Mg  Mg2  1  0.00000  0.50000  0.50000  1
 Mg  Mg3  1  0.50000  0.00000  0.50000  1
 Mg  Mg4  1  0.50000  0.50000  0.00000  1
 Y  Y1  1  0.25000  0.25000  0.75000  1
 Y  Y2  1  0.25000  0.75000  0.25000  1
 Y  Y3  1  0.75000  0.25000  0.25000  1
 Y  Y4  1  0.75000  0.75000  0.75000  1
