CIF file written using JARVIS-Tools package.
data_LaCuGe2
_symmetry_space_group_name_H-M  'Cmcm'
_cell_length_a       4.29734
_cell_length_b       4.40175
_cell_length_c       8.94301
_cell_angle_alpha    104.247
_cell_angle_beta     90
_cell_angle_gamma    90

_symmetry_Int_Tables_number  63
_chemical_formula_structural  LaCuGe2
_chemical_formula_sum  La2Cu2Ge4
_cell_volume  163.961321353433
_cell_formula_units_Z  2
loop_
  _symmetry_equiv_pos_site_id
 _symmetry_equiv_pos_as_xyz
 1  'x, y, z'
loop_
 _atom_site_type_symbol
 _atom_site_label
 _atom_site_symmetry_multiplicity
 _atom_site_fract_x
 _atom_site_fract_y
 _atom_site_fract_z
 _atom_site_fract_occupancy
 Cu  Cu1  1  0.75000  0.32181  0.64362  1
 Cu  Cu2  1  0.25000  0.67819  0.35638  1
 Ge  Ge1  1  0.75000  0.46055  0.92110  1
 Ge  Ge2  1  0.25000  0.53945  0.07890  1
 Ge  Ge3  1  0.75000  0.75146  0.50292  1
 Ge  Ge4  1  0.25000  0.24854  0.49708  1
 La  La1  1  0.75000  0.10540  0.21080  1
 La  La2  1  0.25000  0.89460  0.78920  1
