CIF file written using JARVIS-Tools package.
data_Na6Sn2S7
_symmetry_space_group_name_H-M  'C2/c'
_cell_length_a       7.13843
_cell_length_b       7.13842
_cell_length_c       15.201
_cell_angle_alpha    100.008
_cell_angle_beta     100.008
_cell_angle_gamma    97.866

_symmetry_Int_Tables_number  15
_chemical_formula_structural  Na6Sn2S7
_chemical_formula_sum  Na2Sn4S4
_cell_volume  739.9784528683228
_cell_formula_units_Z  2
loop_
  _symmetry_equiv_pos_site_id
 _symmetry_equiv_pos_as_xyz
 1  'x, y, z'
loop_
 _atom_site_type_symbol
 _atom_site_label
 _atom_site_symmetry_multiplicity
 _atom_site_fract_x
 _atom_site_fract_y
 _atom_site_fract_z
 _atom_site_fract_occupancy
 Na  Na1  1  0.25684  0.04084  0.42393  1
 Na  Na2  1  0.00624  0.04564  0.13720  1
 Na  Na3  1  0.45436  0.49376  0.36280  1
 Na  Na4  1  -0.00000  0.50000  -0.00000  1
 Na  Na5  1  0.06888  0.43112  0.75000  1
 Na  Na6  1  0.93112  0.56888  0.25000  1
 Na  Na7  1  -0.00000  0.50000  0.50000  1
 Na  Na8  1  0.54564  0.50624  0.63720  1
 Na  Na9  1  0.54084  0.75684  0.92393  1
 Na  Na10  1  0.74316  0.95916  0.57607  1
 Na  Na11  1  0.45916  0.24316  0.07607  1
 Na  Na12  1  -0.00624  0.95436  0.86280  1
 S  S1  1  0.98459  0.75528  0.67988  1
 S  S2  1  0.81255  0.76715  0.39749  1
 S  S3  1  0.26715  0.31255  0.89749  1
 S  S4  1  0.73285  0.68745  0.10251  1
 S  S5  1  0.54865  0.95135  0.75000  1
 S  S6  1  0.45135  0.04865  0.25000  1
 S  S7  1  0.74472  0.51541  0.82012  1
 S  S8  1  0.25528  0.48459  0.17988  1
 S  S9  1  0.76621  0.14032  0.98617  1
 S  S10  1  0.64032  0.26621  0.48617  1
 S  S11  1  0.23379  0.85968  0.01383  1
 S  S12  1  0.35968  0.73379  0.51383  1
 S  S13  1  0.18745  0.23285  0.60251  1
 S  S14  1  0.01541  0.24472  0.32012  1
 Sn  Sn1  1  0.57030  0.24832  0.86481  1
 Sn  Sn2  1  0.42970  0.75168  0.13519  1
 Sn  Sn3  1  0.74832  0.07030  0.36481  1
 Sn  Sn4  1  0.25168  0.92970  0.63519  1
