CIF file written using JARVIS-Tools package.
data_SrAl2O4
_symmetry_space_group_name_H-M  'P2_1'
_cell_length_a       5.19905
_cell_length_b       8.44932
_cell_length_c       8.84402
_cell_angle_alpha    90
_cell_angle_beta     90
_cell_angle_gamma    93.551

_symmetry_Int_Tables_number  4
_chemical_formula_structural  SrAl2O4
_chemical_formula_sum  Sr4Al8O6
_cell_volume  387.75875045681687
_cell_formula_units_Z  4
loop_
  _symmetry_equiv_pos_site_id
 _symmetry_equiv_pos_as_xyz
 1  'x, y, z'
loop_
 _atom_site_type_symbol
 _atom_site_label
 _atom_site_symmetry_multiplicity
 _atom_site_fract_x
 _atom_site_fract_y
 _atom_site_fract_z
 _atom_site_fract_occupancy
 Al  Al1  1  0.22216  0.70957  0.66726  1
 Al  Al2  1  0.70958  0.19053  0.82976  1
 Al  Al3  1  0.29042  0.80947  0.32976  1
 Al  Al4  1  0.72912  0.79967  0.83761  1
 Al  Al5  1  0.27088  0.20033  0.33761  1
 Al  Al6  1  0.19748  0.32097  0.66949  1
 Al  Al7  1  0.77784  0.29043  0.16726  1
 Al  Al8  1  0.80252  0.67903  0.16949  1
 O  O1  1  0.06167  0.83305  0.79153  1
 O  O2  1  0.89807  0.20720  0.66272  1
 O  O3  1  0.10193  0.79280  0.16272  1
 O  O4  1  0.59405  0.73090  0.31558  1
 O  O5  1  0.88563  0.48543  0.21973  1
 O  O6  1  0.11437  0.51457  0.71973  1
 O  O7  1  0.64316  0.99153  0.88799  1
 O  O8  1  0.93833  0.16695  0.29153  1
 O  O9  1  0.10129  0.73139  0.48186  1
 O  O10  1  0.56328  0.73577  0.66983  1
 O  O11  1  0.65947  0.66871  0.98899  1
 O  O12  1  0.34053  0.33129  0.48899  1
 O  O13  1  0.35684  0.00847  0.38799  1
 O  O14  1  0.43672  0.26423  0.16983  1
 O  O15  1  0.40595  0.26910  0.81558  1
 O  O16  1  0.89871  0.26861  0.98186  1
 Sr  Sr1  1  0.74834  0.50938  0.50051  1
 Sr  Sr2  1  0.80160  0.96869  0.49294  1
 Sr  Sr3  1  0.19840  0.03131  0.99294  1
 Sr  Sr4  1  0.25166  0.49062  0.00051  1
