CIF file written using JARVIS-Tools package.
data_Nb6Si7Ni16
_symmetry_space_group_name_H-M  'Fm-3m'
_cell_length_a       7.96312
_cell_length_b       7.96312
_cell_length_c       7.96312
_cell_angle_alpha    60
_cell_angle_beta     60
_cell_angle_gamma    60

_symmetry_Int_Tables_number  225
_chemical_formula_structural  Nb6Si7Ni16
_chemical_formula_sum  Nb6Si7Ni6
_cell_volume  357.0552365588034
_cell_formula_units_Z  1
loop_
  _symmetry_equiv_pos_site_id
 _symmetry_equiv_pos_as_xyz
 1  'x, y, z'
loop_
 _atom_site_type_symbol
 _atom_site_label
 _atom_site_symmetry_multiplicity
 _atom_site_fract_x
 _atom_site_fract_y
 _atom_site_fract_z
 _atom_site_fract_occupancy
 Nb  Nb1  1  0.79752  0.20248  0.20248  1
 Nb  Nb2  1  0.20248  0.20248  0.79752  1
 Nb  Nb3  1  0.79752  0.20248  0.79752  1
 Nb  Nb4  1  0.20248  0.79752  0.20248  1
 Nb  Nb5  1  0.20248  0.79752  0.79752  1
 Nb  Nb6  1  0.79752  0.79752  0.20248  1
 Ni  Ni1  1  0.50363  0.83212  0.83212  1
 Ni  Ni2  1  0.83212  0.50363  0.83212  1
 Ni  Ni3  1  0.49637  0.16788  0.16788  1
 Ni  Ni4  1  0.16788  0.49637  0.16788  1
 Ni  Ni5  1  0.16788  0.16788  0.49637  1
 Ni  Ni6  1  0.83212  0.83212  0.83212  1
 Ni  Ni7  1  0.61657  0.61657  0.15028  1
 Ni  Ni8  1  0.15028  0.61657  0.61657  1
 Ni  Ni9  1  0.61657  0.15028  0.61657  1
 Ni  Ni10  1  0.38343  0.84972  0.38343  1
 Ni  Ni11  1  0.16788  0.16788  0.16788  1
 Ni  Ni12  1  0.61657  0.61657  0.61657  1
 Ni  Ni13  1  0.84972  0.38343  0.38343  1
 Ni  Ni14  1  0.83212  0.83212  0.50363  1
 Ni  Ni15  1  0.38343  0.38343  0.84972  1
 Ni  Ni16  1  0.38343  0.38343  0.38343  1
 Si  Si1  1  0.50000  0.00000  0.00000  1
 Si  Si2  1  0.00000  0.00000  0.50000  1
 Si  Si3  1  0.50000  0.50000  0.00000  1
 Si  Si4  1  0.00000  0.50000  0.50000  1
 Si  Si5  1  0.00000  0.50000  0.00000  1
 Si  Si6  1  0.50000  0.00000  0.50000  1
 Si  Si7  1  0.50000  0.50000  0.50000  1
