CIF file written using JARVIS-Tools package.
data_Tl2SiHgSe4
_symmetry_space_group_name_H-M  'I-42m'
_cell_length_a       6.63874
_cell_length_b       6.63874
_cell_length_c       6.63874
_cell_angle_alpha    105.427
_cell_angle_beta     105.427
_cell_angle_gamma    117.902

_symmetry_Int_Tables_number  121
_chemical_formula_structural  Tl2SiHgSe4
_chemical_formula_sum  Tl2SiHgSe4
_cell_volume  221.52790125313228
_cell_formula_units_Z  1
loop_
  _symmetry_equiv_pos_site_id
 _symmetry_equiv_pos_as_xyz
 1  'x, y, z'
loop_
 _atom_site_type_symbol
 _atom_site_label
 _atom_site_symmetry_multiplicity
 _atom_site_fract_x
 _atom_site_fract_y
 _atom_site_fract_z
 _atom_site_fract_occupancy
 Hg  Hg1  1  0.50000  0.50000  0.00000  1
 Se  Se1  1  0.95826  0.95826  0.32635  1
 Se  Se2  1  0.63191  0.63191  0.67365  1
 Se  Se3  1  0.04174  0.36809  0.00000  1
 Se  Se4  1  0.36809  0.04174  -0.00000  1
 Si  Si1  1  0.00000  0.00000  0.00000  1
 Tl  Tl1  1  0.50000  0.00000  0.50000  1
 Tl  Tl2  1  0.00000  0.50000  0.50000  1
