CIF file written using JARVIS-Tools package.
data_KCd4P3
_symmetry_space_group_name_H-M  'R-3m'
_cell_length_a       4.3974
_cell_length_b       4.3974
_cell_length_c       12.1286
_cell_angle_alpha    79.5555
_cell_angle_beta     79.5555
_cell_angle_gamma    60

_symmetry_Int_Tables_number  166
_chemical_formula_structural  KCd4P3
_chemical_formula_sum  KCd4P3
_cell_volume  198.611037423872
_cell_formula_units_Z  1
loop_
  _symmetry_equiv_pos_site_id
 _symmetry_equiv_pos_as_xyz
 1  'x, y, z'
loop_
 _atom_site_type_symbol
 _atom_site_label
 _atom_site_symmetry_multiplicity
 _atom_site_fract_x
 _atom_site_fract_y
 _atom_site_fract_z
 _atom_site_fract_occupancy
 Cd  Cd1  1  0.09136  0.09136  0.72593  1
 Cd  Cd2  1  0.90864  0.90864  0.27407  1
 Cd  Cd3  1  0.30139  0.30139  0.09584  1
 Cd  Cd4  1  0.69861  0.69861  0.90416  1
 K  K1  1  0.50000  0.50000  0.50000  1
 P  P1  1  0.22792  0.22792  0.31623  1
 P  P2  1  0.77208  0.77208  0.68377  1
 P  P3  1  0.00000  0.00000  0.00000  1
