CIF file written using JARVIS-Tools package.
data_Li2MnCl4
_symmetry_space_group_name_H-M  'Imma'
_cell_length_a       7.35599
_cell_length_b       7.35599
_cell_length_c       7.31729
_cell_angle_alpha    60.1738
_cell_angle_beta     60.1738
_cell_angle_gamma    60.8307

_symmetry_Int_Tables_number  74
_chemical_formula_structural  Li2MnCl4
_chemical_formula_sum  Li4Mn2Cl8
_cell_volume  282.43657732512963
_cell_formula_units_Z  2
loop_
  _symmetry_equiv_pos_site_id
 _symmetry_equiv_pos_as_xyz
 1  'x, y, z'
loop_
 _atom_site_type_symbol
 _atom_site_label
 _atom_site_symmetry_multiplicity
 _atom_site_fract_x
 _atom_site_fract_y
 _atom_site_fract_z
 _atom_site_fract_occupancy
 Cl  Cl1  1  0.25168  0.25168  0.25787  1
 Cl  Cl2  1  0.25168  0.25168  0.73878  1
 Cl  Cl3  1  0.25496  0.72479  0.26012  1
 Cl  Cl4  1  0.72479  0.25496  0.26012  1
 Cl  Cl5  1  0.27521  0.74504  0.73988  1
 Cl  Cl6  1  0.74504  0.27521  0.73988  1
 Cl  Cl7  1  0.74832  0.74832  0.26122  1
 Cl  Cl8  1  0.74832  0.74832  0.74213  1
 Li  Li1  1  0.11073  0.11073  0.13927  1
 Li  Li2  1  0.50000  0.50000  0.00000  1
 Li  Li3  1  0.50000  0.50000  0.50000  1
 Li  Li4  1  0.88927  0.88927  0.86073  1
 Mn  Mn1  1  0.50000  0.00000  0.50000  1
 Mn  Mn2  1  -0.00000  0.50000  0.50000  1
