CIF file written using JARVIS-Tools package.
data_CuI2O6
_symmetry_space_group_name_H-M  'P2_1/m'
_cell_length_a       5.02587
_cell_length_b       6.2798
_cell_length_c       8.23739
_cell_angle_alpha    90
_cell_angle_beta     91.8584
_cell_angle_gamma    90

_symmetry_Int_Tables_number  11
_chemical_formula_structural  CuI2O6
_chemical_formula_sum  Cu2I4O2
_cell_volume  259.84705705448584
_cell_formula_units_Z  2
loop_
  _symmetry_equiv_pos_site_id
 _symmetry_equiv_pos_as_xyz
 1  'x, y, z'
loop_
 _atom_site_type_symbol
 _atom_site_label
 _atom_site_symmetry_multiplicity
 _atom_site_fract_x
 _atom_site_fract_y
 _atom_site_fract_z
 _atom_site_fract_occupancy
 Cu  Cu1  1  0.50000  0.50000  0.50000  1
 Cu  Cu2  1  0.50000  0.00000  0.50000  1
 I  I1  1  0.52718  0.75000  0.15445  1
 I  I2  1  0.03687  0.25000  0.23531  1
 I  I3  1  0.96313  0.75000  0.76469  1
 I  I4  1  0.47282  0.25000  0.84555  1
 O  O1  1  0.73399  0.97124  0.69421  1
 O  O2  1  0.26601  0.02876  0.30579  1
 O  O3  1  0.73399  0.52876  0.69421  1
 O  O4  1  0.64174  0.75000  0.38040  1
 O  O5  1  0.35826  0.25000  0.61960  1
 O  O6  1  0.25107  0.03338  0.90682  1
 O  O7  1  0.26601  0.47124  0.30579  1
 O  O8  1  0.80949  0.25000  0.40008  1
 O  O9  1  0.74893  0.53338  0.09318  1
 O  O10  1  0.74893  0.96662  0.09318  1
 O  O11  1  0.25107  0.46662  0.90682  1
 O  O12  1  0.19051  0.75000  0.59992  1
