CIF file written using JARVIS-Tools package.
data_KGaH4
_symmetry_space_group_name_H-M  'Pnma'
_cell_length_a       5.52411
_cell_length_b       7.18664
_cell_length_c       8.8868
_cell_angle_alpha    90
_cell_angle_beta     90
_cell_angle_gamma    90

_symmetry_Int_Tables_number  62
_chemical_formula_structural  KGaH4
_chemical_formula_sum  K4Ga4H6
_cell_volume  352.8040040080078
_cell_formula_units_Z  4
loop_
  _symmetry_equiv_pos_site_id
 _symmetry_equiv_pos_as_xyz
 1  'x, y, z'
loop_
 _atom_site_type_symbol
 _atom_site_label
 _atom_site_symmetry_multiplicity
 _atom_site_fract_x
 _atom_site_fract_y
 _atom_site_fract_z
 _atom_site_fract_occupancy
 Ga  Ga1  1  0.25000  0.69005  0.06783  1
 Ga  Ga2  1  0.25000  0.80995  0.56783  1
 Ga  Ga3  1  0.75000  0.30995  0.93217  1
 Ga  Ga4  1  0.75000  0.19005  0.43217  1
 H  H1  1  0.48426  0.82153  0.08356  1
 H  H2  1  0.25000  0.59132  0.90750  1
 H  H3  1  0.25000  0.90868  0.40750  1
 H  H4  1  0.75000  0.40868  0.09250  1
 H  H5  1  0.51574  0.17847  0.91644  1
 H  H6  1  0.25000  0.54589  0.20479  1
 H  H7  1  0.25000  0.95411  0.70479  1
 H  H8  1  0.75000  0.09132  0.59250  1
 H  H9  1  0.75000  0.04589  0.29521  1
 H  H10  1  0.98426  0.32153  0.41644  1
 H  H11  1  0.51574  0.32153  0.41644  1
 H  H12  1  0.75000  0.45411  0.79521  1
 H  H13  1  0.01574  0.67847  0.58356  1
 H  H14  1  0.01574  0.82153  0.08356  1
 H  H15  1  0.48426  0.67847  0.58356  1
 H  H16  1  0.98426  0.17847  0.91644  1
 K  K1  1  0.75000  0.83378  0.82164  1
 K  K2  1  0.75000  0.66622  0.32164  1
 K  K3  1  0.25000  0.16622  0.17836  1
 K  K4  1  0.25000  0.33378  0.67836  1
