CIF file written using JARVIS-Tools package.
data_Pb2OF2
_symmetry_space_group_name_H-M  'P4_2/nmc'
_cell_length_a       5.76784
_cell_length_b       8.22965
_cell_length_c       8.22965
_cell_angle_alpha    90
_cell_angle_beta     90
_cell_angle_gamma    90

_symmetry_Int_Tables_number  137
_chemical_formula_structural  Pb2OF2
_chemical_formula_sum  Pb8O4F8
_cell_volume  390.6388860516163
_cell_formula_units_Z  4
loop_
  _symmetry_equiv_pos_site_id
 _symmetry_equiv_pos_as_xyz
 1  'x, y, z'
loop_
 _atom_site_type_symbol
 _atom_site_label
 _atom_site_symmetry_multiplicity
 _atom_site_fract_x
 _atom_site_fract_y
 _atom_site_fract_z
 _atom_site_fract_occupancy
 F  F1  1  0.75000  0.46005  0.96005  1
 F  F2  1  0.75000  0.46005  0.53995  1
 F  F3  1  0.25000  0.96005  0.46005  1
 F  F4  1  0.25000  0.53995  0.03995  1
 F  F5  1  0.25000  0.53995  0.46005  1
 F  F6  1  0.75000  0.03995  0.53995  1
 F  F7  1  0.75000  0.03995  0.96005  1
 F  F8  1  0.25000  0.96005  0.03995  1
 O  O1  1  0.66193  0.75000  0.75000  1
 O  O2  1  0.83807  0.25000  0.25000  1
 O  O3  1  0.33807  0.25000  0.25000  1
 O  O4  1  0.16193  0.75000  0.75000  1
 Pb  Pb1  1  0.56053  0.47475  0.25000  1
 Pb  Pb2  1  0.43947  0.97475  0.75000  1
 Pb  Pb3  1  0.43947  0.52525  0.75000  1
 Pb  Pb4  1  0.93947  0.75000  0.52525  1
 Pb  Pb5  1  0.93947  0.75000  0.97475  1
 Pb  Pb6  1  0.06053  0.25000  0.47475  1
 Pb  Pb7  1  0.56053  0.02525  0.25000  1
 Pb  Pb8  1  0.06053  0.25000  0.02525  1
