CIF file written using JARVIS-Tools package.
data_BaSiO3
_symmetry_space_group_name_H-M  'P2_12_12_1'
_cell_length_a       4.61406
_cell_length_b       5.64415
_cell_length_c       12.5094
_cell_angle_alpha    90
_cell_angle_beta     90
_cell_angle_gamma    90

_symmetry_Int_Tables_number  19
_chemical_formula_structural  BaSiO3
_chemical_formula_sum  Ba4Si4O2
_cell_volume  325.7767194901637
_cell_formula_units_Z  4
loop_
  _symmetry_equiv_pos_site_id
 _symmetry_equiv_pos_as_xyz
 1  'x, y, z'
loop_
 _atom_site_type_symbol
 _atom_site_label
 _atom_site_symmetry_multiplicity
 _atom_site_fract_x
 _atom_site_fract_y
 _atom_site_fract_z
 _atom_site_fract_occupancy
 Ba  Ba1  1  0.77175  0.18678  0.35791  1
 Ba  Ba2  1  0.22825  0.68678  0.14209  1
 Ba  Ba3  1  0.72825  0.81322  0.85791  1
 Ba  Ba4  1  0.27175  0.31322  0.64209  1
 O  O1  1  0.73985  0.92303  0.09555  1
 O  O2  1  0.76015  0.07697  0.59555  1
 O  O3  1  0.26015  0.42303  0.40445  1
 O  O4  1  0.24169  0.11188  0.83254  1
 O  O5  1  0.74169  0.38812  0.16746  1
 O  O6  1  0.75831  0.61188  0.66746  1
 O  O7  1  0.25831  0.88812  0.33254  1
 O  O8  1  0.31847  0.21913  0.04433  1
 O  O9  1  0.68153  0.71913  0.45567  1
 O  O10  1  0.81847  0.28087  0.95567  1
 O  O11  1  0.23985  0.57697  0.90445  1
 O  O12  1  0.18153  0.78087  0.54433  1
 Si  Si1  1  0.17385  0.30006  0.92632  1
 Si  Si2  1  0.67385  0.19994  0.07368  1
 Si  Si3  1  0.82615  0.80006  0.57368  1
 Si  Si4  1  0.32615  0.69994  0.42632  1
