CIF file written using JARVIS-Tools package.
data_NaSn2P3O12
_symmetry_space_group_name_H-M  'R-3c'
_cell_length_a       8.99309
_cell_length_b       8.99309
_cell_length_c       8.99309
_cell_angle_alpha    58.1253
_cell_angle_beta     58.1254
_cell_angle_gamma    58.1253

_symmetry_Int_Tables_number  167
_chemical_formula_structural  NaSn2P3O12
_chemical_formula_sum  Na2Sn4P6O24
_cell_volume  492.1934401960657
_cell_formula_units_Z  2
loop_
  _symmetry_equiv_pos_site_id
 _symmetry_equiv_pos_as_xyz
 1  'x, y, z'
loop_
 _atom_site_type_symbol
 _atom_site_label
 _atom_site_symmetry_multiplicity
 _atom_site_fract_x
 _atom_site_fract_y
 _atom_site_fract_z
 _atom_site_fract_occupancy
 Na  Na1  1  0.00000  0.00000  0.00000  1
 Na  Na2  1  0.50000  0.50000  0.50000  1
 O  O1  1  0.41807  0.56262  0.77302  1
 O  O2  1  0.56262  0.77302  0.41807  1
 O  O3  1  0.93738  0.08193  0.72698  1
 O  O4  1  0.08193  0.72698  0.93738  1
 O  O5  1  0.72698  0.93738  0.08193  1
 O  O6  1  0.22698  0.58193  0.43738  1
 O  O7  1  0.29087  0.51285  0.11836  1
 O  O8  1  0.58193  0.43738  0.22698  1
 O  O9  1  0.06262  0.91807  0.27302  1
 O  O10  1  0.91807  0.27302  0.06262  1
 O  O11  1  0.27302  0.06262  0.91807  1
 O  O12  1  0.38164  0.98715  0.20913  1
 O  O13  1  0.20913  0.38164  0.98715  1
 O  O14  1  0.98715  0.20913  0.38164  1
 O  O15  1  0.51285  0.11836  0.29087  1
 O  O16  1  0.77302  0.41807  0.56262  1
 O  O17  1  0.79087  0.61836  0.01285  1
 O  O18  1  0.01285  0.79087  0.61836  1
 O  O19  1  0.43738  0.22698  0.58193  1
 O  O20  1  0.61836  0.01285  0.79087  1
 O  O21  1  0.11836  0.29087  0.51285  1
 O  O22  1  0.70913  0.48715  0.88164  1
 O  O23  1  0.48715  0.88164  0.70913  1
 O  O24  1  0.88164  0.70913  0.48715  1
 P  P1  1  0.75000  0.45704  0.04296  1
 P  P2  1  0.95704  0.25000  0.54296  1
 P  P3  1  0.45704  0.04296  0.75000  1
 P  P4  1  0.54296  0.95704  0.25000  1
 P  P5  1  0.04296  0.75000  0.45704  1
 P  P6  1  0.25000  0.54296  0.95704  1
 Sn  Sn1  1  0.14495  0.14495  0.14495  1
 Sn  Sn2  1  0.35505  0.35505  0.35505  1
 Sn  Sn3  1  0.85505  0.85505  0.85505  1
 Sn  Sn4  1  0.64495  0.64495  0.64495  1
