CIF file written using JARVIS-Tools package.
data_Mg6FeNi
_symmetry_space_group_name_H-M  'Amm2'
_cell_length_a       6.0525
_cell_length_b       6.0525
_cell_length_c       4.70963
_cell_angle_alpha    90
_cell_angle_beta     90
_cell_angle_gamma    121.367

_symmetry_Int_Tables_number  38
_chemical_formula_structural  Mg6FeNi
_chemical_formula_sum  Mg6FeNi
_cell_volume  147.31276696395383
_cell_formula_units_Z  1
loop_
  _symmetry_equiv_pos_site_id
 _symmetry_equiv_pos_as_xyz
 1  'x, y, z'
loop_
 _atom_site_type_symbol
 _atom_site_label
 _atom_site_symmetry_multiplicity
 _atom_site_fract_x
 _atom_site_fract_y
 _atom_site_fract_z
 _atom_site_fract_occupancy
 Fe  Fe1  1  0.18441  0.31559  0.25000  1
 Mg  Mg1  1  0.17414  0.85104  0.25000  1
 Mg  Mg2  1  0.64896  0.32586  0.25000  1
 Mg  Mg3  1  0.66682  0.83318  0.25000  1
 Mg  Mg4  1  0.32727  0.64611  0.75000  1
 Mg  Mg5  1  0.85389  0.17273  0.75000  1
 Mg  Mg6  1  0.83297  0.66703  0.75000  1
 Ni  Ni1  1  0.31154  0.18846  0.75000  1
