CIF file written using JARVIS-Tools package.
data_Rb2Cd2S3O12
_symmetry_space_group_name_H-M  'P2_13'
_cell_length_a       10.3689
_cell_length_b       10.3689
_cell_length_c       10.3689
_cell_angle_alpha    90
_cell_angle_beta     90
_cell_angle_gamma    90

_symmetry_Int_Tables_number  198
_chemical_formula_structural  Rb2Cd2S3O12
_chemical_formula_sum  Rb8Cd8S2O48
_cell_volume  1114.7988546755669
_cell_formula_units_Z  4
loop_
  _symmetry_equiv_pos_site_id
 _symmetry_equiv_pos_as_xyz
 1  'x, y, z'
loop_
 _atom_site_type_symbol
 _atom_site_label
 _atom_site_symmetry_multiplicity
 _atom_site_fract_x
 _atom_site_fract_y
 _atom_site_fract_z
 _atom_site_fract_occupancy
 Cd  Cd1  1  0.08595  0.91405  0.41405  1
 Cd  Cd2  1  0.41405  0.08595  0.91405  1
 Cd  Cd3  1  0.66862  0.16862  0.33138  1
 Cd  Cd4  1  0.83138  0.83138  0.83138  1
 Cd  Cd5  1  0.91405  0.41405  0.08595  1
 Cd  Cd6  1  0.33138  0.66862  0.16862  1
 Cd  Cd7  1  0.58595  0.58595  0.58595  1
 Cd  Cd8  1  0.16862  0.33138  0.66862  1
 O  O1  1  0.42837  0.72122  0.97340  1
 O  O2  1  0.19357  0.74933  0.51466  1
 O  O3  1  0.84782  0.51500  0.90331  1
 O  O4  1  0.65218  0.48500  0.40331  1
 O  O5  1  0.51500  0.90331  0.84782  1
 O  O6  1  0.40331  0.65218  0.48500  1
 O  O7  1  0.47340  0.07163  0.27878  1
 O  O8  1  0.90331  0.84782  0.51500  1
 O  O9  1  -0.01500  0.09669  0.34782  1
 O  O10  1  0.09669  0.34782  -0.01500  1
 O  O11  1  0.48500  0.40331  0.65218  1
 O  O12  1  0.01500  0.59669  0.15218  1
 O  O13  1  0.59669  0.15218  0.01500  1
 O  O14  1  0.15218  0.01500  0.59669  1
 O  O15  1  0.69357  0.75067  0.48534  1
 O  O16  1  0.01466  0.30643  0.25067  1
 O  O17  1  0.57163  0.22122  0.52660  1
 O  O18  1  0.07163  0.27878  0.47340  1
 O  O19  1  0.27878  0.47340  0.07163  1
 O  O20  1  0.25067  0.01466  0.30643  1
 O  O21  1  0.92837  0.77878  0.02660  1
 O  O22  1  0.77878  0.02660  0.92837  1
 O  O23  1  0.02660  0.92837  0.77878  1
 O  O24  1  0.65424  0.72643  0.91380  1
 O  O25  1  0.58620  0.34576  0.22643  1
 O  O26  1  0.91380  0.65424  0.72643  1
 O  O27  1  0.41380  0.84576  0.27357  1
 O  O28  1  0.24933  -0.01466  0.80643  1
 O  O29  1  0.80643  0.24933  -0.01466  1
 O  O30  1  -0.01466  0.80643  0.24933  1
 O  O31  1  0.51466  0.19357  0.74933  1
 O  O32  1  0.72122  0.97340  0.42837  1
 O  O33  1  0.75067  0.48534  0.69357  1
 O  O34  1  0.52660  0.57163  0.22122  1
 O  O35  1  0.48534  0.69357  0.75067  1
 O  O36  1  0.74933  0.51466  0.19357  1
 O  O37  1  0.97340  0.42837  0.72122  1
 O  O38  1  0.30643  0.25067  0.01466  1
 O  O39  1  0.84576  0.27357  0.41380  1
 O  O40  1  0.27357  0.41380  0.84576  1
 O  O41  1  0.34576  0.22643  0.58620  1
 O  O42  1  0.72643  0.91380  0.65424  1
 O  O43  1  0.77357  0.08620  0.15424  1
 O  O44  1  0.08620  0.15424  0.77357  1
 O  O45  1  0.22643  0.58620  0.34576  1
 O  O46  1  0.34782  -0.01500  0.09669  1
 O  O47  1  0.22122  0.52660  0.57163  1
 O  O48  1  0.15424  0.77357  0.08620  1
 Rb  Rb1  1  0.06648  0.06648  0.06648  1
 Rb  Rb2  1  0.56648  0.43352  0.93352  1
 Rb  Rb3  1  0.69001  0.80999  0.19001  1
 Rb  Rb4  1  0.93352  0.56648  0.43352  1
 Rb  Rb5  1  0.30999  0.30999  0.30999  1
 Rb  Rb6  1  0.19001  0.69001  0.80999  1
 Rb  Rb7  1  0.80999  0.19001  0.69001  1
 Rb  Rb8  1  0.43352  0.93352  0.56648  1
 S  S1  1  0.62753  0.47950  0.26318  1
 S  S2  1  0.87247  0.52050  0.76318  1
 S  S3  1  0.37247  0.97950  0.23682  1
 S  S4  1  0.76318  0.87247  0.52050  1
 S  S5  1  0.52050  0.76318  0.87247  1
 S  S6  1  0.23682  0.37247  0.97950  1
 S  S7  1  0.12753  0.02050  0.73682  1
 S  S8  1  0.02050  0.73682  0.12753  1
 S  S9  1  0.97950  0.23682  0.37247  1
 S  S10  1  0.47950  0.26318  0.62753  1
 S  S11  1  0.26318  0.62753  0.47950  1
 S  S12  1  0.73682  0.12753  0.02050  1
