CIF file written using JARVIS-Tools package.
data_OsC3I2O3
_symmetry_space_group_name_H-M  'C2/m'
_cell_length_a       6.72286
_cell_length_b       6.72286
_cell_length_c       9.64143
_cell_angle_alpha    75.4858
_cell_angle_beta     75.4858
_cell_angle_gamma    70.5509

_symmetry_Int_Tables_number  12
_chemical_formula_structural  OsC3I2O3
_chemical_formula_sum  Os2C6I4O6
_cell_volume  391.0558583867859
_cell_formula_units_Z  2
loop_
  _symmetry_equiv_pos_site_id
 _symmetry_equiv_pos_as_xyz
 1  'x, y, z'
loop_
 _atom_site_type_symbol
 _atom_site_label
 _atom_site_symmetry_multiplicity
 _atom_site_fract_x
 _atom_site_fract_y
 _atom_site_fract_z
 _atom_site_fract_occupancy
 C  C1  1  0.58454  0.21916  0.86514  1
 C  C2  1  0.74352  0.74352  0.27891  1
 C  C3  1  0.21916  0.58454  0.86514  1
 C  C4  1  0.41546  0.78084  0.13486  1
 C  C5  1  0.25648  0.25648  0.72109  1
 C  C6  1  0.78084  0.41546  0.13486  1
 I  I1  1  0.74203  0.25797  0.50000  1
 I  I2  1  0.68103  0.68103  0.73663  1
 I  I3  1  0.25797  0.74203  0.50000  1
 I  I4  1  0.31897  0.31897  0.26337  1
 O  O1  1  0.68708  0.09029  0.94353  1
 O  O2  1  0.84948  0.84948  0.27596  1
 O  O3  1  0.31292  0.90971  0.05647  1
 O  O4  1  0.15052  0.15052  0.72404  1
 O  O5  1  0.09029  0.68708  0.94353  1
 O  O6  1  0.90971  0.31292  0.05647  1
 Os  Os1  1  0.57034  0.57034  0.27334  1
 Os  Os2  1  0.42966  0.42966  0.72666  1
