CIF file written using JARVIS-Tools package.
data_MgScSe3
_symmetry_space_group_name_H-M  'R-3'
_cell_length_a       7.22824
_cell_length_b       7.22824
_cell_length_c       7.22824
_cell_angle_alpha    55.5963
_cell_angle_beta     55.5963
_cell_angle_gamma    55.5963

_symmetry_Int_Tables_number  148
_chemical_formula_structural  MgScSe3
_chemical_formula_sum  Mg2Sc2Se6
_cell_volume  239.7508859209577
_cell_formula_units_Z  2
loop_
  _symmetry_equiv_pos_site_id
 _symmetry_equiv_pos_as_xyz
 1  'x, y, z'
loop_
 _atom_site_type_symbol
 _atom_site_label
 _atom_site_symmetry_multiplicity
 _atom_site_fract_x
 _atom_site_fract_y
 _atom_site_fract_z
 _atom_site_fract_occupancy
 Mg  Mg1  1  0.15381  0.15381  0.15381  1
 Mg  Mg2  1  0.84619  0.84619  0.84619  1
 Sc  Sc1  1  0.33939  0.33939  0.33939  1
 Sc  Sc2  1  0.66061  0.66061  0.66061  1
 Se  Se1  1  0.92589  0.56740  0.25596  1
 Se  Se2  1  0.07411  0.43260  0.74404  1
 Se  Se3  1  0.56740  0.25596  0.92589  1
 Se  Se4  1  0.43260  0.74404  0.07411  1
 Se  Se5  1  0.25596  0.92589  0.56740  1
 Se  Se6  1  0.74404  0.07411  0.43260  1
