CIF file written using JARVIS-Tools package.
data_BeIr4W
_symmetry_space_group_name_H-M  'F-43m'
_cell_length_a       5.10112
_cell_length_b       5.10112
_cell_length_c       5.10112
_cell_angle_alpha    60
_cell_angle_beta     60
_cell_angle_gamma    60

_symmetry_Int_Tables_number  216
_chemical_formula_structural  BeIr4W
_chemical_formula_sum  BeIr4W
_cell_volume  93.8602617743487
_cell_formula_units_Z  1
loop_
  _symmetry_equiv_pos_site_id
 _symmetry_equiv_pos_as_xyz
 1  'x, y, z'
loop_
 _atom_site_type_symbol
 _atom_site_label
 _atom_site_symmetry_multiplicity
 _atom_site_fract_x
 _atom_site_fract_y
 _atom_site_fract_z
 _atom_site_fract_occupancy
 Be  Be1  1  0.00000  0.00000  0.00000  1
 Ir  Ir1  1  0.12321  0.62560  0.62560  1
 Ir  Ir2  1  0.62560  0.62560  0.62560  1
 Ir  Ir3  1  0.62560  0.12321  0.62560  1
 Ir  Ir4  1  0.62560  0.62560  0.12321  1
 W  W1  1  0.25000  0.25000  0.25000  1
