CIF file written using JARVIS-Tools package.
data_YbCoGe2
_symmetry_space_group_name_H-M  'Cmcm'
_cell_length_a       4.06708
_cell_length_b       4.1967
_cell_length_c       8.67375
_cell_angle_alpha    104
_cell_angle_beta     90
_cell_angle_gamma    90

_symmetry_Int_Tables_number  63
_chemical_formula_structural  YbCoGe2
_chemical_formula_sum  Yb2Co2Ge4
_cell_volume  143.64876180634397
_cell_formula_units_Z  2
loop_
  _symmetry_equiv_pos_site_id
 _symmetry_equiv_pos_as_xyz
 1  'x, y, z'
loop_
 _atom_site_type_symbol
 _atom_site_label
 _atom_site_symmetry_multiplicity
 _atom_site_fract_x
 _atom_site_fract_y
 _atom_site_fract_z
 _atom_site_fract_occupancy
 Co  Co1  1  0.75000  0.32023  0.64046  1
 Co  Co2  1  0.25000  0.67977  0.35954  1
 Ge  Ge1  1  0.75000  0.45526  0.91051  1
 Ge  Ge2  1  0.25000  0.54474  0.08949  1
 Ge  Ge3  1  0.75000  0.75137  0.50274  1
 Ge  Ge4  1  0.25000  0.24863  0.49726  1
 Yb  Yb1  1  0.75000  0.10954  0.21908  1
 Yb  Yb2  1  0.25000  0.89046  0.78092  1
