CIF file written using JARVIS-Tools package.
data_VCuO4
_symmetry_space_group_name_H-M  'Imma'
_cell_length_a       5.6522
_cell_length_b       5.65221
_cell_length_c       5.65221
_cell_angle_alpha    113.672
_cell_angle_beta     119.634
_cell_angle_gamma    95.972

_symmetry_Int_Tables_number  74
_chemical_formula_structural  VCuO4
_chemical_formula_sum  V2Cu2O8
_cell_volume  132.96114101629976
_cell_formula_units_Z  2
loop_
  _symmetry_equiv_pos_site_id
 _symmetry_equiv_pos_as_xyz
 1  'x, y, z'
loop_
 _atom_site_type_symbol
 _atom_site_label
 _atom_site_symmetry_multiplicity
 _atom_site_fract_x
 _atom_site_fract_y
 _atom_site_fract_z
 _atom_site_fract_occupancy
 Cu  Cu1  1  0.50000  0.00000  0.50000  1
 Cu  Cu2  1  0.00000  0.00000  0.00000  1
 O  O1  1  0.23414  0.79053  0.05639  1
 O  O2  1  0.17770  0.66899  0.50871  1
 O  O3  1  0.82230  0.33101  0.49129  1
 O  O4  1  0.33973  0.33101  0.00871  1
 O  O5  1  0.76586  0.82225  0.55639  1
 O  O6  1  0.76586  0.20947  0.94361  1
 O  O7  1  0.66027  0.66899  0.99129  1
 O  O8  1  0.23414  0.17775  0.44361  1
 V  V1  1  0.71256  0.46257  0.25000  1
 V  V2  1  0.28743  0.53743  0.75000  1
