CIF file written using JARVIS-Tools package.
data_Yb3Ti3O14
_symmetry_space_group_name_H-M  'C2/m'
_cell_length_a       6.60424
_cell_length_b       6.82217
_cell_length_c       6.82216
_cell_angle_alpha    64.1779
_cell_angle_beta     65.1464
_cell_angle_gamma    65.1463

_symmetry_Int_Tables_number  12
_chemical_formula_structural  Yb3Ti3O14
_chemical_formula_sum  Yb3Ti3O4
_cell_volume  240.23563439389724
_cell_formula_units_Z  1
loop_
  _symmetry_equiv_pos_site_id
 _symmetry_equiv_pos_as_xyz
 1  'x, y, z'
loop_
 _atom_site_type_symbol
 _atom_site_label
 _atom_site_symmetry_multiplicity
 _atom_site_fract_x
 _atom_site_fract_y
 _atom_site_fract_z
 _atom_site_fract_occupancy
 O  O1  1  0.32450  0.32107  0.92215  1
 O  O2  1  0.67550  0.07785  0.67893  1
 O  O3  1  0.67550  0.67893  0.07785  1
 O  O4  1  0.90361  0.35955  0.84948  1
 O  O5  1  0.09639  0.15052  0.64045  1
 O  O6  1  0.33045  0.89718  0.89718  1
 O  O7  1  0.90361  0.84948  0.35955  1
 O  O8  1  0.66955  0.10282  0.10282  1
 O  O9  1  0.68142  0.62049  0.62049  1
 O  O10  1  0.09639  0.64045  0.15052  1
 O  O11  1  0.32450  0.92215  0.32107  1
 O  O12  1  0.09648  0.71469  0.71469  1
 O  O13  1  0.31858  0.37951  0.37951  1
 O  O14  1  0.90352  0.28531  0.28531  1
 Ti  Ti1  1  0.50000  -0.00000  0.00000  1
 Ti  Ti2  1  0.00000  0.50000  0.00000  1
 Ti  Ti3  1  -0.00000  0.00000  0.50000  1
 Yb  Yb1  1  0.50000  0.50000  0.50000  1
 Yb  Yb2  1  0.50000  0.50000  0.00000  1
 Yb  Yb3  1  0.50000  -0.00000  0.50000  1
