CIF file written using JARVIS-Tools package.
data_LiCo5O7F
_symmetry_space_group_name_H-M  'R3m'
_cell_length_a       5.69702
_cell_length_b       5.69702
_cell_length_c       5.69702
_cell_angle_alpha    60.3137
_cell_angle_beta     60.3137
_cell_angle_gamma    60.3137

_symmetry_Int_Tables_number  160
_chemical_formula_structural  LiCo5O7F
_chemical_formula_sum  LiCo5O7F
_cell_volume  131.6743727158901
_cell_formula_units_Z  1
loop_
  _symmetry_equiv_pos_site_id
 _symmetry_equiv_pos_as_xyz
 1  'x, y, z'
loop_
 _atom_site_type_symbol
 _atom_site_label
 _atom_site_symmetry_multiplicity
 _atom_site_fract_x
 _atom_site_fract_y
 _atom_site_fract_z
 _atom_site_fract_occupancy
 Co  Co1  1  0.24508  0.24508  0.24508  1
 Co  Co2  1  0.61933  0.61933  0.12558  1
 Co  Co3  1  0.61933  0.12558  0.61933  1
 Co  Co4  1  0.12558  0.61933  0.61933  1
 Co  Co5  1  0.62566  0.62566  0.62566  1
 F  F1  1  0.87300  0.87300  0.87300  1
 Li  Li1  1  0.00863  0.00863  0.00863  1
 O  O1  1  0.83591  0.38725  0.38725  1
 O  O2  1  0.38447  0.38447  0.38447  1
 O  O3  1  0.38725  0.83591  0.38725  1
 O  O4  1  0.38725  0.38725  0.83591  1
 O  O5  1  0.86060  0.86060  0.41732  1
 O  O6  1  0.86060  0.41732  0.86060  1
 O  O7  1  0.41732  0.86060  0.86060  1
