CIF file written using JARVIS-Tools package.
data_Fe2OF3
_symmetry_space_group_name_H-M  'Amm2'
_cell_length_a       4.79552
_cell_length_b       4.79552
_cell_length_c       12.3709
_cell_angle_alpha    90
_cell_angle_beta     90
_cell_angle_gamma    93.0384

_symmetry_Int_Tables_number  38
_chemical_formula_structural  Fe2OF3
_chemical_formula_sum  Fe8O4F2
_cell_volume  284.0941669349982
_cell_formula_units_Z  4
loop_
  _symmetry_equiv_pos_site_id
 _symmetry_equiv_pos_as_xyz
 1  'x, y, z'
loop_
 _atom_site_type_symbol
 _atom_site_label
 _atom_site_symmetry_multiplicity
 _atom_site_fract_x
 _atom_site_fract_y
 _atom_site_fract_z
 _atom_site_fract_occupancy
 F  F1  1  0.79712  0.19122  0.87474  1
 F  F2  1  0.80307  0.20464  0.37503  1
 F  F3  1  0.71232  0.71232  0.74606  1
 F  F4  1  0.70874  0.70874  0.50000  1
 F  F5  1  0.71232  0.71232  0.25394  1
 F  F6  1  0.27746  0.27746  0.00000  1
 F  F7  1  0.19122  0.79712  0.87474  1
 F  F8  1  0.20464  0.80307  0.62497  1
 F  F9  1  0.20464  0.80307  0.37503  1
 F  F10  1  0.19122  0.79712  0.12526  1
 F  F11  1  0.79712  0.19122  0.12526  1
 F  F12  1  0.80307  0.20464  0.62497  1
 Fe  Fe1  1  0.96487  0.96487  0.00000  1
 Fe  Fe2  1  0.47871  0.47871  0.37390  1
 Fe  Fe3  1  0.49856  0.49856  0.87566  1
 Fe  Fe4  1  0.49856  0.49856  0.12434  1
 Fe  Fe5  1  0.47871  0.47871  0.62610  1
 Fe  Fe6  1  0.02450  0.02450  0.74931  1
 Fe  Fe7  1  0.01831  0.01831  0.50000  1
 Fe  Fe8  1  0.02450  0.02450  0.25069  1
 O  O1  1  0.67896  0.67896  0.00000  1
 O  O2  1  0.31156  0.31156  0.75375  1
 O  O3  1  0.30824  0.30824  0.50000  1
 O  O4  1  0.31156  0.31156  0.24625  1
