CIF file written using JARVIS-Tools package.
data_KMoPO6
_symmetry_space_group_name_H-M  'Fddd'
_cell_length_a       8.26121
_cell_length_b       8.26121
_cell_length_c       9.57272
_cell_angle_alpha    112.973
_cell_angle_beta     112.973
_cell_angle_gamma    95.4786

_symmetry_Int_Tables_number  70
_chemical_formula_structural  KMoPO6
_chemical_formula_sum  K4Mo4P4O24
_cell_volume  529.5992548716614
_cell_formula_units_Z  4
loop_
  _symmetry_equiv_pos_site_id
 _symmetry_equiv_pos_as_xyz
 1  'x, y, z'
loop_
 _atom_site_type_symbol
 _atom_site_label
 _atom_site_symmetry_multiplicity
 _atom_site_fract_x
 _atom_site_fract_y
 _atom_site_fract_z
 _atom_site_fract_occupancy
 K  K1  1  0.08853  0.33853  0.25000  1
 K  K2  1  0.66147  0.91147  0.25000  1
 K  K3  1  0.33853  0.08853  0.75000  1
 K  K4  1  0.91147  0.66147  0.75000  1
 Mo  Mo1  1  0.40128  0.59872  0.75000  1
 Mo  Mo2  1  0.84872  0.15128  0.75000  1
 Mo  Mo3  1  0.59872  0.40128  0.25000  1
 Mo  Mo4  1  0.15128  0.84872  0.25000  1
 O  O1  1  0.97006  0.09374  0.90541  1
 O  O2  1  0.18833  0.56465  0.59459  1
 O  O3  1  0.90626  0.02994  0.59459  1
 O  O4  1  0.31635  0.39240  0.08780  1
 O  O5  1  0.43535  0.81167  0.90541  1
 O  O6  1  0.68365  0.60760  0.91220  1
 O  O7  1  0.39634  0.02956  0.35789  1
 O  O8  1  0.67167  0.53845  0.14211  1
 O  O9  1  0.56465  0.18833  0.09459  1
 O  O10  1  0.69540  0.27145  0.58780  1
 O  O11  1  0.39240  0.31635  0.58780  1
 O  O12  1  0.46155  0.32833  0.35789  1
 O  O13  1  0.09374  0.97006  0.40541  1
 O  O14  1  0.27145  0.69540  0.08780  1
 O  O15  1  0.72855  0.30460  0.91220  1
 O  O16  1  0.02994  0.90626  0.09459  1
 O  O17  1  0.97044  0.60366  0.14211  1
 O  O18  1  0.32833  0.46155  0.85789  1
 O  O19  1  0.60366  0.97044  0.64211  1
 O  O20  1  0.53845  0.67167  0.64211  1
 O  O21  1  0.02956  0.39634  0.85789  1
 O  O22  1  0.60760  0.68365  0.41220  1
 O  O23  1  0.81167  0.43535  0.40541  1
 O  O24  1  0.30460  0.72855  0.41220  1
 P  P1  1  0.50891  0.75891  0.51781  1
 P  P2  1  0.49109  0.24109  0.48219  1
 P  P3  1  0.75891  0.50891  0.01781  1
 P  P4  1  0.24109  0.49109  0.98219  1
