CIF file written using JARVIS-Tools package.
data_CrClO
_symmetry_space_group_name_H-M  'Pmmn'
_cell_length_a       3.20487
_cell_length_b       3.86231
_cell_length_c       7.71724
_cell_angle_alpha    90
_cell_angle_beta     90
_cell_angle_gamma    90

_symmetry_Int_Tables_number  59
_chemical_formula_structural  CrClO
_chemical_formula_sum  Cr2Cl2O2
_cell_volume  95.52565293041935
_cell_formula_units_Z  2
loop_
  _symmetry_equiv_pos_site_id
 _symmetry_equiv_pos_as_xyz
 1  'x, y, z'
loop_
 _atom_site_type_symbol
 _atom_site_label
 _atom_site_symmetry_multiplicity
 _atom_site_fract_x
 _atom_site_fract_y
 _atom_site_fract_z
 _atom_site_fract_occupancy
 Cl  Cl1  1  0.00000  0.50000  0.67027  1
 Cl  Cl2  1  0.50000  0.00000  0.32973  1
 Cr  Cr1  1  0.00000  0.00000  0.11065  1
 Cr  Cr2  1  0.50000  0.50000  0.88935  1
 O  O1  1  0.50000  0.00000  0.94675  1
 O  O2  1  0.00000  0.50000  0.05325  1
