CIF file written using JARVIS-Tools package.
data_Sr2CuAg2S2O2
_symmetry_space_group_name_H-M  'I4/mmm'
_cell_length_a       4.00276
_cell_length_b       4.00275
_cell_length_c       10.1113
_cell_angle_alpha    101.416
_cell_angle_beta     101.416
_cell_angle_gamma    90

_symmetry_Int_Tables_number  139
_chemical_formula_structural  Sr2CuAg2S2O2
_chemical_formula_sum  Sr2CuAg2S2O2
_cell_volume  155.52770902802706
_cell_formula_units_Z  1
loop_
  _symmetry_equiv_pos_site_id
 _symmetry_equiv_pos_as_xyz
 1  'x, y, z'
loop_
 _atom_site_type_symbol
 _atom_site_label
 _atom_site_symmetry_multiplicity
 _atom_site_fract_x
 _atom_site_fract_y
 _atom_site_fract_z
 _atom_site_fract_occupancy
 Ag  Ag1  1  0.75000  0.25000  0.50000  1
 Ag  Ag2  1  0.25000  0.75000  0.50000  1
 Cu  Cu1  1  0.00000  0.00000  0.00000  1
 O  O1  1  0.50000  -0.00000  -0.00000  1
 O  O2  1  0.00000  0.50000  -0.00000  1
 S  S1  1  0.84390  0.84390  0.68780  1
 S  S2  1  0.15610  0.15610  0.31220  1
 Sr  Sr1  1  0.58636  0.58636  0.17273  1
 Sr  Sr2  1  0.41364  0.41364  0.82727  1
