CIF file written using JARVIS-Tools package.
data_NaTi2O3
_symmetry_space_group_name_H-M  'P6_3/mcm'
_cell_length_a       5.13233
_cell_length_b       5.13233
_cell_length_c       10.4528
_cell_angle_alpha    90
_cell_angle_beta     90
_cell_angle_gamma    120

_symmetry_Int_Tables_number  193
_chemical_formula_structural  NaTi2O3
_chemical_formula_sum  Na4Ti8O2
_cell_volume  238.44682730206026
_cell_formula_units_Z  4
loop_
  _symmetry_equiv_pos_site_id
 _symmetry_equiv_pos_as_xyz
 1  'x, y, z'
loop_
 _atom_site_type_symbol
 _atom_site_label
 _atom_site_symmetry_multiplicity
 _atom_site_fract_x
 _atom_site_fract_y
 _atom_site_fract_z
 _atom_site_fract_occupancy
 Na  Na1  1  0.66667  0.33333  0.99998  1
 Na  Na2  1  0.33333  0.66667  0.99998  1
 Na  Na3  1  0.33333  0.66667  0.49999  1
 Na  Na4  1  0.66667  0.33333  0.49999  1
 O  O1  1  -0.00000  0.31544  0.62714  1
 O  O2  1  0.68464  0.68464  0.87284  1
 O  O3  1  0.68456  0.68456  0.62714  1
 O  O4  1  0.31538  0.31538  0.37286  1
 O  O5  1  0.31545  0.31545  0.12715  1
 O  O6  1  0.68462  0.00000  0.37286  1
 O  O7  1  0.68455  0.00000  0.12715  1
 O  O8  1  0.31536  -0.00000  0.87284  1
 O  O9  1  0.31544  -0.00000  0.62714  1
 O  O10  1  0.00000  0.68462  0.37286  1
 O  O11  1  -0.00000  0.31536  0.87284  1
 O  O12  1  0.00000  0.68455  0.12715  1
 Ti  Ti1  1  0.33716  0.00000  0.25000  1
 Ti  Ti2  1  0.33716  0.33716  0.74999  1
 Ti  Ti3  1  0.66284  -0.00000  0.74999  1
 Ti  Ti4  1  -0.00000  0.66284  0.74999  1
 Ti  Ti5  1  0.00000  0.00000  0.50006  1
 Ti  Ti6  1  0.00000  0.33716  0.25000  1
 Ti  Ti7  1  0.66284  0.66284  0.25000  1
 Ti  Ti8  1  0.00000  0.00000  0.00007  1
