CIF file written using JARVIS-Tools package.
data_Li3FeO2F2
_symmetry_space_group_name_H-M  'P2/c'
_cell_length_a       5.01947
_cell_length_b       5.90129
_cell_length_c       5.0477
_cell_angle_alpha    90
_cell_angle_beta     108.15
_cell_angle_gamma    90

_symmetry_Int_Tables_number  13
_chemical_formula_structural  Li3FeO2F2
_chemical_formula_sum  Li6Fe2O4F4
_cell_volume  142.08044297807237
_cell_formula_units_Z  2
loop_
  _symmetry_equiv_pos_site_id
 _symmetry_equiv_pos_as_xyz
 1  'x, y, z'
loop_
 _atom_site_type_symbol
 _atom_site_label
 _atom_site_symmetry_multiplicity
 _atom_site_fract_x
 _atom_site_fract_y
 _atom_site_fract_z
 _atom_site_fract_occupancy
 F  F1  1  0.25124  0.61907  0.99844  1
 F  F2  1  0.25124  0.38093  0.49844  1
 F  F3  1  0.74876  0.61907  0.50156  1
 F  F4  1  0.74876  0.38093  0.00156  1
 Fe  Fe1  1  0.00000  0.90651  0.75000  1
 Fe  Fe2  1  0.00000  0.09349  0.25000  1
 Li  Li1  1  0.50000  0.12400  0.75000  1
 Li  Li2  1  0.50000  0.63465  0.75000  1
 Li  Li3  1  0.00000  0.37961  0.75000  1
 Li  Li4  1  0.50000  0.36535  0.25000  1
 Li  Li5  1  0.50000  0.87600  0.25000  1
 Li  Li6  1  0.00000  0.62039  0.25000  1
 O  O1  1  0.76325  0.87479  0.99216  1
 O  O2  1  0.23675  0.87479  0.50784  1
 O  O3  1  0.76325  0.12521  0.49216  1
 O  O4  1  0.23675  0.12521  0.00784  1
