CIF file written using JARVIS-Tools package.
data_CrFe2Se4
_symmetry_space_group_name_H-M  'C2/m'
_cell_length_a       3.37717
_cell_length_b       6.17788
_cell_length_c       6.53824
_cell_angle_alpha    115.748
_cell_angle_beta     104.972
_cell_angle_gamma    89.992

_symmetry_Int_Tables_number  12
_chemical_formula_structural  CrFe2Se4
_chemical_formula_sum  CrFe2Se4
_cell_volume  117.7081100989746
_cell_formula_units_Z  1
loop_
  _symmetry_equiv_pos_site_id
 _symmetry_equiv_pos_as_xyz
 1  'x, y, z'
loop_
 _atom_site_type_symbol
 _atom_site_label
 _atom_site_symmetry_multiplicity
 _atom_site_fract_x
 _atom_site_fract_y
 _atom_site_fract_z
 _atom_site_fract_occupancy
 Cr  Cr1  1  0.00000  0.00000  0.00000  1
 Fe  Fe1  1  0.25862  0.30883  0.51727  1
 Fe  Fe2  1  0.74138  0.69117  0.48273  1
 Se  Se1  1  0.63716  0.97434  0.27423  1
 Se  Se2  1  0.89134  0.55740  0.78269  1
 Se  Se3  1  0.10866  0.44260  0.21731  1
 Se  Se4  1  0.36284  0.02566  0.72577  1
