CIF file written using JARVIS-Tools package.
data_TlMo3O9
_symmetry_space_group_name_H-M  'C2/m'
_cell_length_a       6.44065
_cell_length_b       7.74245
_cell_length_c       8.27464
_cell_angle_alpha    117.894
_cell_angle_beta     92.8407
_cell_angle_gamma    90

_symmetry_Int_Tables_number  12
_chemical_formula_structural  TlMo3O9
_chemical_formula_sum  Tl2Mo6O8
_cell_volume  364.1106421728427
_cell_formula_units_Z  2
loop_
  _symmetry_equiv_pos_site_id
 _symmetry_equiv_pos_as_xyz
 1  'x, y, z'
loop_
 _atom_site_type_symbol
 _atom_site_label
 _atom_site_symmetry_multiplicity
 _atom_site_fract_x
 _atom_site_fract_y
 _atom_site_fract_z
 _atom_site_fract_occupancy
 Mo  Mo1  1  0.64122  0.12174  0.24347  1
 Mo  Mo2  1  0.35878  0.87826  0.75653  1
 Mo  Mo3  1  0.26824  0.79912  0.11862  1
 Mo  Mo4  1  0.73176  0.68050  0.88138  1
 Mo  Mo5  1  0.73176  0.20088  0.88138  1
 Mo  Mo6  1  0.26824  0.31950  0.11862  1
 O  O1  1  0.79107  0.57173  0.65919  1
 O  O2  1  0.00000  0.74118  -0.00000  1
 O  O3  1  -0.00000  0.25882  0.00000  1
 O  O4  1  0.52551  0.22459  0.44918  1
 O  O5  1  0.47449  0.77541  0.55082  1
 O  O6  1  0.41042  0.15501  0.83516  1
 O  O7  1  0.09731  0.85141  0.70283  1
 O  O8  1  0.29484  0.54027  0.08055  1
 O  O9  1  0.90269  0.14859  0.29717  1
 O  O10  1  0.58958  0.31985  0.16484  1
 O  O11  1  0.69126  0.96141  0.92281  1
 O  O12  1  0.20893  0.91254  0.34081  1
 O  O13  1  0.70516  0.45973  0.91945  1
 O  O14  1  0.79107  0.08746  0.65919  1
 O  O15  1  0.20893  0.42827  0.34081  1
 O  O16  1  0.58958  0.84499  0.16484  1
 O  O17  1  0.41042  0.68015  0.83516  1
 O  O18  1  0.30874  0.03859  0.07719  1
 Tl  Tl1  1  0.82819  0.68867  0.37733  1
 Tl  Tl2  1  0.17181  0.31133  0.62267  1
