CIF file written using JARVIS-Tools package.
data_Tb2Ge3Pt9
_symmetry_space_group_name_H-M  'C2/c'
_cell_length_a       7.84464
_cell_length_b       7.84464
_cell_length_c       10.0999
_cell_angle_alpha    90.4405
_cell_angle_beta     112.603
_cell_angle_gamma    119.687

_symmetry_Int_Tables_number  15
_chemical_formula_structural  Tb2Ge3Pt9
_chemical_formula_sum  Tb4Ge6Pt8
_cell_volume  483.040632237668
_cell_formula_units_Z  2
loop_
  _symmetry_equiv_pos_site_id
 _symmetry_equiv_pos_as_xyz
 1  'x, y, z'
loop_
 _atom_site_type_symbol
 _atom_site_label
 _atom_site_symmetry_multiplicity
 _atom_site_fract_x
 _atom_site_fract_y
 _atom_site_fract_z
 _atom_site_fract_occupancy
 Ge  Ge1  1  0.00000  0.00000  0.50000  1
 Ge  Ge2  1  0.32035  0.63725  0.50290  1
 Ge  Ge3  1  0.36565  0.18255  0.00290  1
 Ge  Ge4  1  0.63435  0.81745  0.99710  1
 Ge  Ge5  1  0.67965  0.36275  0.49710  1
 Ge  Ge6  1  0.00000  0.50000  0.00000  1
 Pt  Pt1  1  0.05470  0.08535  0.75968  1
 Pt  Pt2  1  0.38463  0.13463  0.25000  1
 Pt  Pt3  1  0.28113  0.47826  0.92162  1
 Pt  Pt4  1  0.61497  0.14029  0.91968  1
 Pt  Pt5  1  0.05664  0.35951  0.57838  1
 Pt  Pt6  1  0.27938  0.30470  0.41968  1
 Pt  Pt7  1  0.05614  0.20570  0.07814  1
 Pt  Pt8  1  0.38503  0.85971  0.08032  1
 Pt  Pt9  1  0.94530  0.91465  0.24032  1
 Pt  Pt10  1  0.17434  0.70498  0.25968  1
 Pt  Pt11  1  0.62756  0.97800  0.42186  1
 Pt  Pt12  1  0.94336  0.64049  0.42162  1
 Pt  Pt13  1  0.72062  0.69530  0.58032  1
 Pt  Pt14  1  0.71887  0.52174  0.07838  1
 Pt  Pt15  1  0.94386  0.79430  0.92186  1
 Pt  Pt16  1  0.61537  0.86537  0.75000  1
 Pt  Pt17  1  0.82566  0.29502  0.74032  1
 Pt  Pt18  1  0.37244  0.02200  0.57814  1
 Tb  Tb1  1  0.83371  0.24603  0.24900  1
 Tb  Tb2  1  0.16629  0.75397  0.75100  1
 Tb  Tb3  1  0.50296  0.41529  0.74900  1
 Tb  Tb4  1  0.49704  0.58471  0.25100  1
