CIF file written using JARVIS-Tools package.
data_KSbMo2O8
_symmetry_space_group_name_H-M  'P-1'
_cell_length_a       5.04963
_cell_length_b       7.42257
_cell_length_c       10.2796
_cell_angle_alpha    90.5532
_cell_angle_beta     100.743
_cell_angle_gamma    108.252

_symmetry_Int_Tables_number  2
_chemical_formula_structural  KSbMo2O8
_chemical_formula_sum  K2Sb2Mo4O6
_cell_volume  358.5376075393484
_cell_formula_units_Z  2
loop_
  _symmetry_equiv_pos_site_id
 _symmetry_equiv_pos_as_xyz
 1  'x, y, z'
loop_
 _atom_site_type_symbol
 _atom_site_label
 _atom_site_symmetry_multiplicity
 _atom_site_fract_x
 _atom_site_fract_y
 _atom_site_fract_z
 _atom_site_fract_occupancy
 K  K1  1  0.59863  0.96581  0.68639  1
 K  K2  1  0.40137  0.03419  0.31361  1
 Mo  Mo1  1  0.64698  0.76135  0.07169  1
 Mo  Mo2  1  0.79035  0.63768  0.45901  1
 Mo  Mo3  1  0.35302  0.23865  0.92831  1
 Mo  Mo4  1  0.20965  0.36232  0.54099  1
 O  O1  1  0.12770  0.37142  0.71315  1
 O  O2  1  0.90304  0.96939  0.14190  1
 O  O3  1  0.86316  0.32602  0.44315  1
 O  O4  1  0.13684  0.67398  0.55685  1
 O  O5  1  0.50127  0.19106  0.08518  1
 O  O6  1  0.19358  0.42216  0.96965  1
 O  O7  1  0.49873  0.80894  0.91482  1
 O  O8  1  0.73735  0.85474  0.46271  1
 O  O9  1  0.80642  0.57784  0.03035  1
 O  O10  1  0.37353  0.46900  0.38452  1
 O  O11  1  0.36745  0.71110  0.17372  1
 O  O12  1  0.09696  0.03061  0.85810  1
 O  O13  1  0.63255  0.28890  0.82628  1
 O  O14  1  0.87230  0.62858  0.28685  1
 O  O15  1  0.26265  0.14526  0.53729  1
 O  O16  1  0.62647  0.53100  0.61548  1
 Sb  Sb1  1  0.05261  0.46511  0.19109  1
 Sb  Sb2  1  0.94739  0.53489  0.80891  1
