CIF file written using JARVIS-Tools package.
data_Zr3N4
_symmetry_space_group_name_H-M  'R-3m'
_cell_length_a       3.44741
_cell_length_b       8.69327
_cell_length_c       3.44741
_cell_angle_alpha    89.9999
_cell_angle_beta     60
_cell_angle_gamma    101.436

_symmetry_Int_Tables_number  166
_chemical_formula_structural  Zr3N4
_chemical_formula_sum  Zr3N4
_cell_volume  87.0977971209285
_cell_formula_units_Z  1
loop_
  _symmetry_equiv_pos_site_id
 _symmetry_equiv_pos_as_xyz
 1  'x, y, z'
loop_
 _atom_site_type_symbol
 _atom_site_label
 _atom_site_symmetry_multiplicity
 _atom_site_fract_x
 _atom_site_fract_y
 _atom_site_fract_z
 _atom_site_fract_occupancy
 N  N1  1  0.24341  0.86511  0.37830  1
 N  N2  1  0.73583  0.60374  0.13209  1
 N  N3  1  0.26417  0.39626  0.86791  1
 N  N4  1  0.75659  0.13489  0.62170  1
 Zr  Zr1  1  0.44460  0.66690  0.77770  1
 Zr  Zr2  1  0.55540  0.33310  0.22230  1
 Zr  Zr3  1  0.00000  0.00000  0.00000  1
