CIF file written using JARVIS-Tools package.
data_SrTaF7
_symmetry_space_group_name_H-M  'P2_1/m'
_cell_length_a       4.88347
_cell_length_b       6.7425
_cell_length_c       7.24007
_cell_angle_alpha    90
_cell_angle_beta     90
_cell_angle_gamma    94.2714

_symmetry_Int_Tables_number  11
_chemical_formula_structural  SrTaF7
_chemical_formula_sum  Sr2Ta2F4
_cell_volume  237.73044342416034
_cell_formula_units_Z  2
loop_
  _symmetry_equiv_pos_site_id
 _symmetry_equiv_pos_as_xyz
 1  'x, y, z'
loop_
 _atom_site_type_symbol
 _atom_site_label
 _atom_site_symmetry_multiplicity
 _atom_site_fract_x
 _atom_site_fract_y
 _atom_site_fract_z
 _atom_site_fract_occupancy
 F  F1  1  0.19208  0.64099  0.57412  1
 F  F2  1  0.35621  0.94348  0.25000  1
 F  F3  1  0.68028  0.78751  0.52605  1
 F  F4  1  0.64379  0.05652  0.75000  1
 F  F5  1  0.31972  0.21249  0.02605  1
 F  F6  1  0.19208  0.64099  0.92588  1
 F  F7  1  0.83999  0.04600  0.25000  1
 F  F8  1  0.80792  0.35901  0.42588  1
 F  F9  1  0.41523  0.49500  0.25000  1
 F  F10  1  0.68028  0.78751  0.97395  1
 F  F11  1  0.16001  0.95400  0.75000  1
 F  F12  1  0.31972  0.21249  0.47395  1
 F  F13  1  0.58477  0.50500  0.75000  1
 F  F14  1  0.80792  0.35901  0.07412  1
 Sr  Sr1  1  0.03125  0.31698  0.75000  1
 Sr  Sr2  1  0.96875  0.68302  0.25000  1
 Ta  Ta1  1  0.46365  0.78305  0.75000  1
 Ta  Ta2  1  0.53635  0.21695  0.25000  1
