CIF file written using JARVIS-Tools package.
data_Al3Ni5
_symmetry_space_group_name_H-M  'Cmmm'
_cell_length_a       3.77635
_cell_length_b       5.0075
_cell_length_c       5.0075
_cell_angle_alpha    97.0292
_cell_angle_beta     90
_cell_angle_gamma    90

_symmetry_Int_Tables_number  65
_chemical_formula_structural  Al3Ni5
_chemical_formula_sum  Al3Ni5
_cell_volume  93.9803312610282
_cell_formula_units_Z  1
loop_
  _symmetry_equiv_pos_site_id
 _symmetry_equiv_pos_as_xyz
 1  'x, y, z'
loop_
 _atom_site_type_symbol
 _atom_site_label
 _atom_site_symmetry_multiplicity
 _atom_site_fract_x
 _atom_site_fract_y
 _atom_site_fract_z
 _atom_site_fract_occupancy
 Al  Al1  1  0.00000  0.50000  0.50000  1
 Al  Al2  1  0.50000  0.21916  0.78084  1
 Al  Al3  1  0.50000  0.78084  0.21916  1
 Ni  Ni1  1  0.00000  0.00000  0.00000  1
 Ni  Ni2  1  0.00000  0.50000  -0.00000  1
 Ni  Ni3  1  0.00000  -0.00000  0.50000  1
 Ni  Ni4  1  0.50000  0.27842  0.27842  1
 Ni  Ni5  1  0.50000  0.72158  0.72158  1
