CIF file written using JARVIS-Tools package.
data_SrYCoO4
_symmetry_space_group_name_H-M  'I4mm'
_cell_length_a       6.56656
_cell_length_b       6.56656
_cell_length_c       6.56656
_cell_angle_alpha    146.929
_cell_angle_beta     146.929
_cell_angle_gamma    47.4689

_symmetry_Int_Tables_number  107
_chemical_formula_structural  SrYCoO4
_chemical_formula_sum  SrYCoO4
_cell_volume  83.98346503797627
_cell_formula_units_Z  1
loop_
  _symmetry_equiv_pos_site_id
 _symmetry_equiv_pos_as_xyz
 1  'x, y, z'
loop_
 _atom_site_type_symbol
 _atom_site_label
 _atom_site_symmetry_multiplicity
 _atom_site_fract_x
 _atom_site_fract_y
 _atom_site_fract_z
 _atom_site_fract_occupancy
 Co  Co1  1  0.00721  0.00721  -0.00000  1
 O  O1  1  0.84075  0.84075  -0.00000  1
 O  O2  1  0.17409  0.17409  0.00000  1
 O  O3  1  0.98567  0.48567  0.50000  1
 O  O4  1  0.48567  0.98567  0.50000  1
 Sr  Sr1  1  0.64335  0.64335  0.00000  1
 Y  Y1  1  0.36326  0.36326  -0.00000  1
