CIF file written using JARVIS-Tools package.
data_Li3AuO3
_symmetry_space_group_name_H-M  'P4_2/mnm'
_cell_length_a       3.55148
_cell_length_b       9.17287
_cell_length_c       9.17287
_cell_angle_alpha    90
_cell_angle_beta     90
_cell_angle_gamma    90

_symmetry_Int_Tables_number  136
_chemical_formula_structural  Li3AuO3
_chemical_formula_sum  Li2Au4O2
_cell_volume  298.8272750511701
_cell_formula_units_Z  4
loop_
  _symmetry_equiv_pos_site_id
 _symmetry_equiv_pos_as_xyz
 1  'x, y, z'
loop_
 _atom_site_type_symbol
 _atom_site_label
 _atom_site_symmetry_multiplicity
 _atom_site_fract_x
 _atom_site_fract_y
 _atom_site_fract_z
 _atom_site_fract_occupancy
 Au  Au1  1  0.00000  0.61857  0.61857  1
 Au  Au2  1  0.00000  0.38143  0.38143  1
 Au  Au3  1  0.50000  0.88143  0.11857  1
 Au  Au4  1  0.50000  0.11857  0.88143  1
 Li  Li1  1  0.00000  0.83269  0.83269  1
 Li  Li2  1  0.50000  0.66731  0.33269  1
 Li  Li3  1  0.50000  0.33269  0.66731  1
 Li  Li4  1  0.00000  0.16731  0.16731  1
 Li  Li5  1  0.00000  0.59040  0.14054  1
 Li  Li6  1  0.00000  0.14054  0.59040  1
 Li  Li7  1  0.50000  0.90960  0.64054  1
 Li  Li8  1  0.50000  0.09040  0.35946  1
 Li  Li9  1  0.00000  0.40960  0.85946  1
 Li  Li10  1  0.50000  0.64054  0.90960  1
 Li  Li11  1  0.50000  0.35946  0.09040  1
 Li  Li12  1  0.00000  0.85946  0.40960  1
 O  O1  1  0.50000  0.10674  0.10674  1
 O  O2  1  0.00000  0.61956  0.83770  1
 O  O3  1  0.00000  0.38044  0.16230  1
 O  O4  1  0.50000  0.33770  0.88044  1
 O  O5  1  0.50000  0.66230  0.11956  1
 O  O6  1  0.50000  0.11956  0.66230  1
 O  O7  1  0.50000  0.88044  0.33770  1
 O  O8  1  0.00000  0.16230  0.38044  1
 O  O9  1  0.00000  0.39326  0.60674  1
 O  O10  1  0.00000  0.60674  0.39326  1
 O  O11  1  0.00000  0.83770  0.61956  1
 O  O12  1  0.50000  0.89326  0.89326  1
