CIF file written using JARVIS-Tools package.
data_Ho3Ge4
_symmetry_space_group_name_H-M  'Cmcm'
_cell_length_a       4.04818
_cell_length_b       5.68038
_cell_length_c       14.2488
_cell_angle_alpha    90
_cell_angle_beta     90
_cell_angle_gamma    110.875

_symmetry_Int_Tables_number  63
_chemical_formula_structural  Ho3Ge4
_chemical_formula_sum  Ho6Ge8
_cell_volume  306.14670464596185
_cell_formula_units_Z  2
loop_
  _symmetry_equiv_pos_site_id
 _symmetry_equiv_pos_as_xyz
 1  'x, y, z'
loop_
 _atom_site_type_symbol
 _atom_site_label
 _atom_site_symmetry_multiplicity
 _atom_site_fract_x
 _atom_site_fract_y
 _atom_site_fract_z
 _atom_site_fract_occupancy
 Ge  Ge1  1  0.00000  0.00000  0.50000  1
 Ge  Ge2  1  0.00000  0.00000  0.00000  1
 Ge  Ge3  1  0.22044  0.44088  0.25000  1
 Ge  Ge4  1  0.77956  0.55912  0.75000  1
 Ge  Ge5  1  0.37823  0.75646  0.39092  1
 Ge  Ge6  1  0.62177  0.24354  0.60908  1
 Ge  Ge7  1  0.37823  0.75646  0.10908  1
 Ge  Ge8  1  0.62177  0.24354  0.89092  1
 Ho  Ho1  1  0.95066  0.90132  0.25000  1
 Ho  Ho2  1  0.04934  0.09868  0.75000  1
 Ho  Ho3  1  0.33185  0.66370  0.59658  1
 Ho  Ho4  1  0.66815  0.33630  0.40342  1
 Ho  Ho5  1  0.66815  0.33630  0.09658  1
 Ho  Ho6  1  0.33185  0.66370  0.90342  1
