CIF file written using JARVIS-Tools package.
data_V2Se9
_symmetry_space_group_name_H-M  'C2/c'
_cell_length_a       8.19012
_cell_length_b       8.20309
_cell_length_c       8.20309
_cell_angle_alpha    99.4425
_cell_angle_beta     93.7323
_cell_angle_gamma    93.7323

_symmetry_Int_Tables_number  15
_chemical_formula_structural  V2Se9
_chemical_formula_sum  V4Se8
_cell_volume  540.8882548947007
_cell_formula_units_Z  2
loop_
  _symmetry_equiv_pos_site_id
 _symmetry_equiv_pos_as_xyz
 1  'x, y, z'
loop_
 _atom_site_type_symbol
 _atom_site_label
 _atom_site_symmetry_multiplicity
 _atom_site_fract_x
 _atom_site_fract_y
 _atom_site_fract_z
 _atom_site_fract_occupancy
 Se  Se1  1  0.05704  0.84659  0.67976  1
 Se  Se2  1  0.54146  0.29219  0.59310  1
 Se  Se3  1  0.95854  0.40690  0.70781  1
 Se  Se4  1  0.61290  0.91214  0.29080  1
 Se  Se5  1  0.88710  0.70920  0.08786  1
 Se  Se6  1  0.38710  0.08786  0.70920  1
 Se  Se7  1  0.11290  0.29080  0.91214  1
 Se  Se8  1  0.25000  0.41464  0.58536  1
 Se  Se9  1  0.55704  0.67976  0.84659  1
 Se  Se10  1  0.44296  0.32024  0.15341  1
 Se  Se11  1  0.75000  0.58536  0.41464  1
 Se  Se12  1  0.32335  0.67860  0.99345  1
 Se  Se13  1  0.17665  0.00655  0.32140  1
 Se  Se14  1  0.67665  0.32140  0.00655  1
 Se  Se15  1  0.82335  0.99345  0.67860  1
 Se  Se16  1  0.04146  0.59310  0.29219  1
 Se  Se17  1  0.45854  0.70781  0.40690  1
 Se  Se18  1  0.94296  0.15341  0.32024  1
 V  V1  1  0.58384  0.60116  0.13598  1
 V  V2  1  0.91616  0.86402  0.39884  1
 V  V3  1  0.41616  0.39884  0.86402  1
 V  V4  1  0.08384  0.13598  0.60116  1
