CIF file written using JARVIS-Tools package.
data_Mn5As4
_symmetry_space_group_name_H-M  'Cmc2_1'
_cell_length_a       3.53528
_cell_length_b       6.73615
_cell_length_c       11.8294
_cell_angle_alpha    90
_cell_angle_beta     90
_cell_angle_gamma    105.213

_symmetry_Int_Tables_number  36
_chemical_formula_structural  Mn5As4
_chemical_formula_sum  Mn0As8
_cell_volume  271.8350285283898
_cell_formula_units_Z  2
loop_
  _symmetry_equiv_pos_site_id
 _symmetry_equiv_pos_as_xyz
 1  'x, y, z'
loop_
 _atom_site_type_symbol
 _atom_site_label
 _atom_site_symmetry_multiplicity
 _atom_site_fract_x
 _atom_site_fract_y
 _atom_site_fract_z
 _atom_site_fract_occupancy
 As  As1  1  0.39524  0.79047  0.23463  1
 As  As2  1  0.34683  0.69367  0.80667  1
 As  As3  1  0.72690  0.45379  0.02603  1
 As  As4  1  0.27310  0.54621  0.52603  1
 As  As5  1  0.99572  0.99144  0.49588  1
 As  As6  1  0.00428  0.00856  0.99588  1
 As  As7  1  0.60476  0.20953  0.73463  1
 As  As8  1  0.65317  0.30633  0.30667  1
 Mn  Mn1  1  0.36611  0.73222  0.01776  1
 Mn  Mn2  1  0.02150  0.04300  0.29016  1
 Mn  Mn3  1  0.83133  0.66265  0.37406  1
 Mn  Mn4  1  0.78347  0.56694  0.67888  1
 Mn  Mn5  1  0.63389  0.26778  0.51776  1
 Mn  Mn6  1  0.44478  0.88957  0.62502  1
 Mn  Mn7  1  0.55522  0.11043  0.12502  1
 Mn  Mn8  1  0.21653  0.43306  0.17888  1
 Mn  Mn9  1  0.16867  0.33735  0.87406  1
 Mn  Mn10  1  0.97850  0.95700  0.79016  1
