CIF file written using JARVIS-Tools package.
data_BH11C4BrNF4
_symmetry_space_group_name_H-M  'P2_1/m'
_cell_length_a       5.82455
_cell_length_b       7.60927
_cell_length_c       9.32919
_cell_angle_alpha    90
_cell_angle_beta     104.941
_cell_angle_gamma    90

_symmetry_Int_Tables_number  11
_chemical_formula_structural  BH11C4BrNF4
_chemical_formula_sum  B2H22C8Br2N2F8
_cell_volume  399.49658274317
_cell_formula_units_Z  2
loop_
  _symmetry_equiv_pos_site_id
 _symmetry_equiv_pos_as_xyz
 1  'x, y, z'
loop_
 _atom_site_type_symbol
 _atom_site_label
 _atom_site_symmetry_multiplicity
 _atom_site_fract_x
 _atom_site_fract_y
 _atom_site_fract_z
 _atom_site_fract_occupancy
 B  B1  1  0.05340  0.75000  0.75932  1
 B  B2  1  0.94660  0.25000  0.24068  1
 Br  Br1  1  0.41609  0.75000  0.50864  1
 Br  Br2  1  0.58391  0.25000  0.49136  1
 C  C1  1  0.64343  0.75000  0.38703  1
 C  C2  1  0.62822  0.08783  0.82061  1
 C  C3  1  0.37178  0.58783  0.17939  1
 C  C4  1  0.28139  0.25000  0.85665  1
 C  C5  1  0.35657  0.25000  0.61297  1
 C  C6  1  0.71861  0.75000  0.14335  1
 C  C7  1  0.37178  0.91217  0.17939  1
 C  C8  1  0.62822  0.41217  0.82061  1
 F  F1  1  0.29744  0.75000  0.84145  1
 F  F2  1  0.01046  0.59772  0.66896  1
 F  F3  1  0.91058  0.75000  0.86073  1
 F  F4  1  0.98954  0.09772  0.33104  1
 F  F5  1  0.08942  0.25000  0.13927  1
 F  F6  1  0.70256  0.25000  0.15855  1
 F  F7  1  0.98954  0.40228  0.33104  1
 F  F8  1  0.01046  0.90228  0.66896  1
 H  H1  1  0.17441  0.13166  0.82364  1
 H  H2  1  0.76225  0.41516  0.75779  1
 H  H3  1  0.28889  0.59616  0.06037  1
 H  H4  1  0.24965  0.36921  0.58617  1
 H  H5  1  0.75035  0.63079  0.41383  1
 H  H6  1  0.17441  0.36834  0.82364  1
 H  H7  1  0.71111  0.09616  0.93963  1
 H  H8  1  0.82559  0.86834  0.17636  1
 H  H9  1  0.82559  0.63166  0.17636  1
 H  H10  1  0.76225  0.08484  0.75779  1
 H  H11  1  0.51418  0.52778  0.79415  1
 H  H12  1  0.51418  0.97222  0.79415  1
 H  H13  1  0.23775  0.91516  0.24221  1
 H  H14  1  0.23775  0.58484  0.24221  1
 H  H15  1  0.24965  0.13079  0.58617  1
 H  H16  1  0.48582  0.47222  0.20585  1
 H  H17  1  0.28889  0.90384  0.06037  1
 H  H18  1  0.75035  0.86921  0.41383  1
 H  H19  1  0.36412  0.25000  0.97569  1
 H  H20  1  0.63588  0.75000  0.02431  1
 H  H21  1  0.71111  0.40384  0.93963  1
 H  H22  1  0.48582  0.02778  0.20585  1
 N  N1  1  0.52250  0.75000  0.22291  1
 N  N2  1  0.47750  0.25000  0.77709  1
