CIF file written using JARVIS-Tools package.
data_HfSnIr
_symmetry_space_group_name_H-M  'P-62m'
_cell_length_a       3.70823
_cell_length_b       7.3403
_cell_length_c       7.34021
_cell_angle_alpha    120
_cell_angle_beta     90
_cell_angle_gamma    90

_symmetry_Int_Tables_number  189
_chemical_formula_structural  HfSnIr
_chemical_formula_sum  Hf3Sn3Ir3
_cell_volume  173.028734386727
_cell_formula_units_Z  3
loop_
  _symmetry_equiv_pos_site_id
 _symmetry_equiv_pos_as_xyz
 1  'x, y, z'
loop_
 _atom_site_type_symbol
 _atom_site_label
 _atom_site_symmetry_multiplicity
 _atom_site_fract_x
 _atom_site_fract_y
 _atom_site_fract_z
 _atom_site_fract_occupancy
 Hf  Hf1  1  0.50000  0.60582  0.00000  1
 Hf  Hf2  1  0.50000  0.39416  0.39415  1
 Hf  Hf3  1  0.50000  0.00001  0.60585  1
 Ir  Ir1  1  0.00000  0.33331  0.66667  1
 Ir  Ir2  1  0.00000  0.66664  0.33333  1
 Ir  Ir3  1  0.50000  0.99998  -0.00000  1
 Sn  Sn1  1  0.00000  0.26823  0.00000  1
 Sn  Sn2  1  0.00000  0.73175  0.73175  1
 Sn  Sn3  1  0.00000  -0.00001  0.26825  1
