CIF file written using JARVIS-Tools package.
data_H8PtO6
_symmetry_space_group_name_H-M  'Cc'
_cell_length_a       5.47165
_cell_length_b       5.47165
_cell_length_c       7.40668
_cell_angle_alpha    87.1238
_cell_angle_beta     92.8762
_cell_angle_gamma    96.2269

_symmetry_Int_Tables_number  9
_chemical_formula_structural  H8PtO6
_chemical_formula_sum  H6Pt2O2
_cell_volume  219.9393438985023
_cell_formula_units_Z  2
loop_
  _symmetry_equiv_pos_site_id
 _symmetry_equiv_pos_as_xyz
 1  'x, y, z'
loop_
 _atom_site_type_symbol
 _atom_site_label
 _atom_site_symmetry_multiplicity
 _atom_site_fract_x
 _atom_site_fract_y
 _atom_site_fract_z
 _atom_site_fract_occupancy
 H  H1  1  0.13678  0.61879  0.84728  1
 H  H2  1  0.38121  0.86322  0.34728  1
 H  H3  1  0.62223  0.19406  0.61117  1
 H  H4  1  0.74581  0.88899  0.75269  1
 H  H5  1  0.80594  0.37777  0.11117  1
 H  H6  1  0.11101  0.25419  0.25269  1
 H  H7  1  0.51661  0.13951  0.33864  1
 H  H8  1  0.84295  0.84272  0.21228  1
 H  H9  1  0.86049  0.48339  0.83864  1
 H  H10  1  0.52618  0.45842  0.50840  1
 H  H11  1  0.54158  0.47382  0.00840  1
 H  H12  1  0.40607  0.76225  0.60172  1
 H  H13  1  0.05098  0.02879  0.98474  1
 H  H14  1  0.15728  0.15705  0.71228  1
 H  H15  1  0.97121  0.94902  0.48474  1
 H  H16  1  0.23775  0.59393  0.10172  1
 O  O1  1  0.82540  0.85604  0.07512  1
 O  O2  1  0.97497  0.60139  0.76637  1
 O  O3  1  0.03413  0.40978  0.24734  1
 O  O4  1  0.39861  0.02503  0.26637  1
 O  O5  1  0.59022  0.96587  0.74734  1
 O  O6  1  0.65099  0.32572  0.50572  1
 O  O7  1  0.18851  0.13949  0.92705  1
 O  O8  1  0.35436  0.65682  0.49628  1
 O  O9  1  0.14396  0.17460  0.57512  1
 O  O10  1  0.34318  0.64564  0.99628  1
 O  O11  1  0.67428  0.34901  0.00572  1
 O  O12  1  0.86051  0.81149  0.42705  1
 Pt  Pt1  1  0.50371  -0.00634  0.00613  1
 Pt  Pt2  1  0.00634  0.49629  0.50613  1
