CIF file written using JARVIS-Tools package.
data_Si
_symmetry_space_group_name_H-M  'Fmmm'
_cell_length_a       5.37491
_cell_length_b       5.37491
_cell_length_c       5.46727
_cell_angle_alpha    90
_cell_angle_beta     90
_cell_angle_gamma    125.484

_symmetry_Int_Tables_number  69
_chemical_formula_structural  Si
_chemical_formula_sum  Si8
_cell_volume  128.6129297703189
_cell_formula_units_Z  8
loop_
  _symmetry_equiv_pos_site_id
 _symmetry_equiv_pos_as_xyz
 1  'x, y, z'
loop_
 _atom_site_type_symbol
 _atom_site_label
 _atom_site_symmetry_multiplicity
 _atom_site_fract_x
 _atom_site_fract_y
 _atom_site_fract_z
 _atom_site_fract_occupancy
 Si  Si1  1  0.50003  0.50003  0.77494  1
 Si  Si2  1  0.49997  0.49997  0.22506  1
 Si  Si3  1  -0.00003  -0.00003  0.27494  1
 Si  Si4  1  0.00003  0.00003  0.72506  1
 Si  Si5  1  0.28409  0.71591  0.50000  1
 Si  Si6  1  0.78409  0.21591  0.00000  1
 Si  Si7  1  0.71591  0.28409  0.50000  1
 Si  Si8  1  0.21591  0.78409  0.00000  1
