CIF file written using JARVIS-Tools package.
data_Ba2NbN3
_symmetry_space_group_name_H-M  'C2/c'
_cell_length_a       6.19864
_cell_length_b       6.70552
_cell_length_c       13.3259
_cell_angle_alpha    89.2462
_cell_angle_beta     88.3688
_cell_angle_gamma    62.4705

_symmetry_Int_Tables_number  15
_chemical_formula_structural  Ba2NbN3
_chemical_formula_sum  Ba8Nb4N2
_cell_volume  490.97845475500276
_cell_formula_units_Z  4
loop_
  _symmetry_equiv_pos_site_id
 _symmetry_equiv_pos_as_xyz
 1  'x, y, z'
loop_
 _atom_site_type_symbol
 _atom_site_label
 _atom_site_symmetry_multiplicity
 _atom_site_fract_x
 _atom_site_fract_y
 _atom_site_fract_z
 _atom_site_fract_occupancy
 Ba  Ba1  1  0.12812  0.22787  0.07676  1
 Ba  Ba2  1  0.87188  0.77213  0.92324  1
 Ba  Ba3  1  0.35599  0.77213  0.57676  1
 Ba  Ba4  1  0.95584  0.60157  0.35592  1
 Ba  Ba5  1  0.55741  0.39843  0.85592  1
 Ba  Ba6  1  0.04416  0.39843  0.64408  1
 Ba  Ba7  1  0.44259  0.60157  0.14408  1
 Ba  Ba8  1  0.64401  0.22787  0.42324  1
 N  N1  1  0.86646  0.82063  0.54710  1
 N  N2  1  0.68708  0.17937  0.04710  1
 N  N3  1  0.13354  0.17937  0.45290  1
 N  N4  1  0.00804  0.98391  0.75000  1
 N  N5  1  0.99196  0.01609  0.25000  1
 N  N6  1  0.57092  0.85816  0.75000  1
 N  N7  1  0.84348  0.68470  0.13013  1
 N  N8  1  0.42908  0.14184  0.25000  1
 N  N9  1  0.15652  0.31530  0.86987  1
 N  N10  1  0.31292  0.82063  0.95290  1
 N  N11  1  0.47181  0.68470  0.36987  1
 N  N12  1  0.52819  0.31530  0.63013  1
 Nb  Nb1  1  0.73646  0.00266  0.66580  1
 Nb  Nb2  1  0.73912  0.99734  0.16580  1
 Nb  Nb3  1  0.26088  0.00266  0.83420  1
 Nb  Nb4  1  0.26354  0.99734  0.33420  1
