CIF file written using JARVIS-Tools package.
data_Ti3NbO8
_symmetry_space_group_name_H-M  'P6_3mc'
_cell_length_a       5.9649
_cell_length_b       5.96492
_cell_length_c       9.35615
_cell_angle_alpha    89.9999
_cell_angle_beta     90
_cell_angle_gamma    120

_symmetry_Int_Tables_number  186
_chemical_formula_structural  Ti3NbO8
_chemical_formula_sum  Ti6Nb2O6
_cell_volume  288.2932801457313
_cell_formula_units_Z  2
loop_
  _symmetry_equiv_pos_site_id
 _symmetry_equiv_pos_as_xyz
 1  'x, y, z'
loop_
 _atom_site_type_symbol
 _atom_site_label
 _atom_site_symmetry_multiplicity
 _atom_site_fract_x
 _atom_site_fract_y
 _atom_site_fract_z
 _atom_site_fract_occupancy
 Nb  Nb1  1  0.33333  0.66667  0.49090  1
 Nb  Nb2  1  0.66667  0.33334  0.99090  1
 O  O1  1  0.52102  0.47900  0.83584  1
 O  O2  1  0.16884  0.83116  0.60067  1
 O  O3  1  0.04203  0.52102  0.33583  1
 O  O4  1  0.33334  0.66668  0.10536  1
 O  O5  1  0.95797  0.47899  0.83583  1
 O  O6  1  -0.00000  0.00003  0.81039  1
 O  O7  1  0.16884  0.33768  0.60066  1
 O  O8  1  0.00000  0.00003  0.31039  1
 O  O9  1  0.47898  0.52102  0.33582  1
 O  O10  1  0.33768  0.16884  0.10066  1
 O  O11  1  0.83116  0.16884  0.10066  1
 O  O12  1  0.47898  0.95799  0.33584  1
 O  O13  1  0.52102  0.04203  0.83582  1
 O  O14  1  0.66666  0.33334  0.60536  1
 O  O15  1  0.83116  0.66232  0.10067  1
 O  O16  1  0.66232  0.83116  0.60066  1
 Ti  Ti1  1  0.83156  0.66314  0.71392  1
 Ti  Ti2  1  0.16845  0.33690  0.21389  1
 Ti  Ti3  1  0.16844  0.83157  0.21392  1
 Ti  Ti4  1  0.83155  0.16845  0.71389  1
 Ti  Ti5  1  0.33688  0.16845  0.71392  1
 Ti  Ti6  1  0.66312  0.83157  0.21392  1
