CIF file written using JARVIS-Tools package.
data_Na3Cu2SbO6
_symmetry_space_group_name_H-M  'C2/m'
_cell_length_a       5.32844
_cell_length_b       5.32844
_cell_length_c       5.85134
_cell_angle_alpha    102.905
_cell_angle_beta     102.905
_cell_angle_gamma    114.073

_symmetry_Int_Tables_number  12
_chemical_formula_structural  Na3Cu2SbO6
_chemical_formula_sum  Na3Cu2SbO6
_cell_volume  138.31716464984763
_cell_formula_units_Z  1
loop_
  _symmetry_equiv_pos_site_id
 _symmetry_equiv_pos_as_xyz
 1  'x, y, z'
loop_
 _atom_site_type_symbol
 _atom_site_label
 _atom_site_symmetry_multiplicity
 _atom_site_fract_x
 _atom_site_fract_y
 _atom_site_fract_z
 _atom_site_fract_occupancy
 Cu  Cu1  1  0.33328  0.66672  -0.00000  1
 Cu  Cu2  1  0.66672  0.33328  0.00000  1
 Na  Na1  1  0.82689  0.17311  0.50000  1
 Na  Na2  1  0.17311  0.82689  0.50000  1
 Na  Na3  1  0.50000  0.50000  0.50000  1
 O  O1  1  0.03570  0.36457  0.22691  1
 O  O2  1  0.25483  0.25483  0.82437  1
 O  O3  1  0.74517  0.74517  0.17563  1
 O  O4  1  0.36457  0.03570  0.22691  1
 O  O5  1  0.96430  0.63543  0.77309  1
 O  O6  1  0.63543  0.96430  0.77309  1
 Sb  Sb1  1  0.00000  0.00000  0.00000  1
