CIF file written using JARVIS-Tools package.
data_LiAgF2
_symmetry_space_group_name_H-M  'Cmcm'
_cell_length_a       3.06511
_cell_length_b       5.59641
_cell_length_c       5.90759
_cell_angle_alpha    90
_cell_angle_beta     105.011
_cell_angle_gamma    90

_symmetry_Int_Tables_number  63
_chemical_formula_structural  LiAgF2
_chemical_formula_sum  Li2Ag2F4
_cell_volume  97.87841060588859
_cell_formula_units_Z  2
loop_
  _symmetry_equiv_pos_site_id
 _symmetry_equiv_pos_as_xyz
 1  'x, y, z'
loop_
 _atom_site_type_symbol
 _atom_site_label
 _atom_site_symmetry_multiplicity
 _atom_site_fract_x
 _atom_site_fract_y
 _atom_site_fract_z
 _atom_site_fract_occupancy
 Ag  Ag1  1  0.36782  0.75000  0.73558  1
 Ag  Ag2  1  0.63218  0.25000  0.26442  1
 F  F1  1  0.30424  0.25000  0.60781  1
 F  F2  1  0.69576  0.75000  0.39219  1
 F  F3  1  0.00000  0.00000  0.00000  1
 F  F4  1  0.00000  0.50000  0.00000  1
 Li  Li1  1  0.10492  0.75000  0.21025  1
 Li  Li2  1  0.89508  0.25000  0.78975  1
