CIF file written using JARVIS-Tools package.
data_K2CN2
_symmetry_space_group_name_H-M  'C2/m'
_cell_length_a       4.04063
_cell_length_b       4.04063
_cell_length_c       5.7705
_cell_angle_alpha    76.8739
_cell_angle_beta     76.8739
_cell_angle_gamma    89.0631

_symmetry_Int_Tables_number  12
_chemical_formula_structural  K2CN2
_chemical_formula_sum  K2CN2
_cell_volume  89.29294036101096
_cell_formula_units_Z  1
loop_
  _symmetry_equiv_pos_site_id
 _symmetry_equiv_pos_as_xyz
 1  'x, y, z'
loop_
 _atom_site_type_symbol
 _atom_site_label
 _atom_site_symmetry_multiplicity
 _atom_site_fract_x
 _atom_site_fract_y
 _atom_site_fract_z
 _atom_site_fract_occupancy
 C  C1  1  0.00000  0.00000  0.00000  1
 K  K1  1  0.67587  0.67587  0.71097  1
 K  K2  1  0.32413  0.32413  0.28903  1
 N  N1  1  0.83949  0.83949  0.20363  1
 N  N2  1  0.16051  0.16051  0.79637  1
