CIF file written using JARVIS-Tools package.
data_Ba4PdO6
_symmetry_space_group_name_H-M  'R-3c'
_cell_length_a       7.32334
_cell_length_b       7.32334
_cell_length_c       7.32334
_cell_angle_alpha    89.4305
_cell_angle_beta     89.4305
_cell_angle_gamma    89.4305

_symmetry_Int_Tables_number  167
_chemical_formula_structural  Ba4PdO6
_chemical_formula_sum  Ba8Pd2O2
_cell_volume  392.7022335126062
_cell_formula_units_Z  2
loop_
  _symmetry_equiv_pos_site_id
 _symmetry_equiv_pos_as_xyz
 1  'x, y, z'
loop_
 _atom_site_type_symbol
 _atom_site_label
 _atom_site_symmetry_multiplicity
 _atom_site_fract_x
 _atom_site_fract_y
 _atom_site_fract_z
 _atom_site_fract_occupancy
 Ba  Ba1  1  0.11873  0.75000  0.38127  1
 Ba  Ba2  1  0.25000  0.61873  0.88127  1
 Ba  Ba3  1  0.61873  0.88127  0.25000  1
 Ba  Ba4  1  0.75000  0.75000  0.75000  1
 Ba  Ba5  1  0.25000  0.25000  0.25000  1
 Ba  Ba6  1  0.38127  0.11873  0.75000  1
 Ba  Ba7  1  0.75000  0.38127  0.11873  1
 Ba  Ba8  1  0.88127  0.25000  0.61873  1
 O  O1  1  0.72787  0.06147  0.92671  1
 O  O2  1  0.27213  0.93853  0.07329  1
 O  O3  1  0.43853  0.77213  0.57329  1
 O  O4  1  0.22787  0.42671  0.56147  1
 O  O5  1  0.06147  0.92671  0.72787  1
 O  O6  1  0.42671  0.56147  0.22787  1
 O  O7  1  0.56147  0.22787  0.42671  1
 O  O8  1  0.77213  0.57329  0.43853  1
 O  O9  1  0.92671  0.72787  0.06147  1
 O  O10  1  0.07329  0.27213  0.93853  1
 O  O11  1  0.57329  0.43853  0.77213  1
 O  O12  1  0.93853  0.07329  0.27213  1
 Pd  Pd1  1  0.50000  0.50000  0.50000  1
 Pd  Pd2  1  0.00000  0.00000  0.00000  1
