CIF file written using JARVIS-Tools package.
data_MgO
_symmetry_space_group_name_H-M  'P6_3mc'
_cell_length_a       3.26787
_cell_length_b       3.26787
_cell_length_c       10.4704
_cell_angle_alpha    90
_cell_angle_beta     90
_cell_angle_gamma    120

_symmetry_Int_Tables_number  186
_chemical_formula_structural  MgO
_chemical_formula_sum  Mg4O4
_cell_volume  96.83318908280715
_cell_formula_units_Z  4
loop_
  _symmetry_equiv_pos_site_id
 _symmetry_equiv_pos_as_xyz
 1  'x, y, z'
loop_
 _atom_site_type_symbol
 _atom_site_label
 _atom_site_symmetry_multiplicity
 _atom_site_fract_x
 _atom_site_fract_y
 _atom_site_fract_z
 _atom_site_fract_occupancy
 Mg  Mg1  1  0.33333  0.66667  0.03047  1
 Mg  Mg2  1  0.00000  0.00000  0.77918  1
 Mg  Mg3  1  0.00000  0.00000  0.27918  1
 Mg  Mg4  1  0.66667  0.33333  0.53047  1
 O  O1  1  0.33333  0.66667  0.21999  1
 O  O2  1  0.00000  0.00000  0.47036  1
 O  O3  1  0.00000  0.00000  0.97036  1
 O  O4  1  0.66667  0.33333  0.71999  1
