CIF file written using JARVIS-Tools package.
data_AlAu2
_symmetry_space_group_name_H-M  'Pnma'
_cell_length_a       3.31749
_cell_length_b       6.88253
_cell_length_c       8.95511
_cell_angle_alpha    90
_cell_angle_beta     90
_cell_angle_gamma    90

_symmetry_Int_Tables_number  62
_chemical_formula_structural  AlAu2
_chemical_formula_sum  Al4Au8
_cell_volume  204.4698413196784
_cell_formula_units_Z  4
loop_
  _symmetry_equiv_pos_site_id
 _symmetry_equiv_pos_as_xyz
 1  'x, y, z'
loop_
 _atom_site_type_symbol
 _atom_site_label
 _atom_site_symmetry_multiplicity
 _atom_site_fract_x
 _atom_site_fract_y
 _atom_site_fract_z
 _atom_site_fract_occupancy
 Al  Al1  1  0.75000  0.35941  0.72425  1
 Al  Al2  1  0.25000  0.64059  0.27575  1
 Al  Al3  1  0.25000  0.14059  0.22425  1
 Al  Al4  1  0.75000  0.85941  0.77575  1
 Au  Au1  1  0.75000  0.84981  0.07092  1
 Au  Au2  1  0.75000  0.42175  0.11973  1
 Au  Au3  1  0.25000  0.57825  0.88027  1
 Au  Au4  1  0.25000  0.07825  0.61973  1
 Au  Au5  1  0.75000  0.34981  0.42908  1
 Au  Au6  1  0.25000  0.65019  0.57092  1
 Au  Au7  1  0.75000  0.92175  0.38027  1
 Au  Au8  1  0.25000  0.15019  0.92908  1
