CIF file written using JARVIS-Tools package.
data_SmAu
_symmetry_space_group_name_H-M  'Pnma'
_cell_length_a       4.7556
_cell_length_b       5.7618
_cell_length_c       7.32192
_cell_angle_alpha    90
_cell_angle_beta     90
_cell_angle_gamma    90

_symmetry_Int_Tables_number  62
_chemical_formula_structural  SmAu
_chemical_formula_sum  Sm4Au4
_cell_volume  200.6263204867526
_cell_formula_units_Z  4
loop_
  _symmetry_equiv_pos_site_id
 _symmetry_equiv_pos_as_xyz
 1  'x, y, z'
loop_
 _atom_site_type_symbol
 _atom_site_label
 _atom_site_symmetry_multiplicity
 _atom_site_fract_x
 _atom_site_fract_y
 _atom_site_fract_z
 _atom_site_fract_occupancy
 Au  Au1  1  0.25000  0.84259  0.54201  1
 Au  Au2  1  0.25000  0.65741  0.04201  1
 Au  Au3  1  0.75000  0.15741  0.45799  1
 Au  Au4  1  0.75000  0.34259  0.95799  1
 Sm  Sm1  1  0.25000  0.35157  0.68573  1
 Sm  Sm2  1  0.25000  0.14843  0.18573  1
 Sm  Sm3  1  0.75000  0.64843  0.31427  1
 Sm  Sm4  1  0.75000  0.85157  0.81427  1
