CIF file written using JARVIS-Tools package.
data_HoNiB4
_symmetry_space_group_name_H-M  'I4/mmm'
_cell_length_a       6.80792
_cell_length_b       6.80792
_cell_length_c       6.80792
_cell_angle_alpha    112.881
_cell_angle_beta     112.881
_cell_angle_gamma    102.848

_symmetry_Int_Tables_number  139
_chemical_formula_structural  HoNiB4
_chemical_formula_sum  Ho4Ni4B6
_cell_volume  240.50187620629129
_cell_formula_units_Z  4
loop_
  _symmetry_equiv_pos_site_id
 _symmetry_equiv_pos_as_xyz
 1  'x, y, z'
loop_
 _atom_site_type_symbol
 _atom_site_label
 _atom_site_symmetry_multiplicity
 _atom_site_fract_x
 _atom_site_fract_y
 _atom_site_fract_z
 _atom_site_fract_occupancy
 B  B1  1  0.11252  0.11252  0.53109  1
 B  B2  1  0.27483  0.88881  0.16365  1
 B  B3  1  0.11119  0.27483  0.38602  1
 B  B4  1  0.88881  0.72517  0.61398  1
 B  B5  1  0.27483  0.11119  0.38602  1
 B  B6  1  0.72517  0.88881  0.61398  1
 B  B7  1  0.88881  0.27483  0.16365  1
 B  B8  1  0.11119  0.72517  0.83635  1
 B  B9  1  0.88748  0.41857  0.00000  1
 B  B10  1  0.41857  0.88748  0.00000  1
 B  B11  1  0.72517  0.11119  0.83635  1
 B  B12  1  0.88748  0.88748  0.46891  1
 B  B13  1  0.58143  0.58143  0.46891  1
 B  B14  1  0.58143  0.11252  0.00000  1
 B  B15  1  0.11252  0.58143  0.00000  1
 B  B16  1  0.41857  0.41857  0.53109  1
 Ho  Ho1  1  0.20471  0.20471  0.00000  1
 Ho  Ho2  1  0.79529  0.79529  0.00000  1
 Ho  Ho3  1  0.25000  0.75000  0.50000  1
 Ho  Ho4  1  0.75000  0.25000  0.50000  1
 Ni  Ni1  1  0.50000  0.27128  0.77128  1
 Ni  Ni2  1  0.72872  0.50000  0.22872  1
 Ni  Ni3  1  0.27128  0.50000  0.77128  1
 Ni  Ni4  1  0.50000  0.72872  0.22872  1
