CIF file written using JARVIS-Tools package.
data_FeOF
_symmetry_space_group_name_H-M  'P1'
_cell_length_a       4.63285
_cell_length_b       5.54826
_cell_length_c       7.61335
_cell_angle_alpha    85.8849
_cell_angle_beta     89.0645
_cell_angle_gamma    90.0996

_symmetry_Int_Tables_number  1
_chemical_formula_structural  FeOF
_chemical_formula_sum  Fe6O6F6
_cell_volume  195.16362096195317
_cell_formula_units_Z  6
loop_
  _symmetry_equiv_pos_site_id
 _symmetry_equiv_pos_as_xyz
 1  'x, y, z'
loop_
 _atom_site_type_symbol
 _atom_site_label
 _atom_site_symmetry_multiplicity
 _atom_site_fract_x
 _atom_site_fract_y
 _atom_site_fract_z
 _atom_site_fract_occupancy
 F  F1  1  0.22330  0.63371  0.57663  1
 F  F2  1  0.29194  0.13138  0.55862  1
 F  F3  1  0.70340  0.52609  0.78389  1
 F  F4  1  0.70273  0.19638  0.09436  1
 F  F5  1  0.78999  0.69685  0.09437  1
 F  F6  1  0.19248  0.95529  0.22982  1
 Fe  Fe1  1  0.52968  0.83770  0.66494  1
 Fe  Fe2  1  0.02553  -0.00004  0.97387  1
 Fe  Fe3  1  0.98603  0.65544  0.33813  1
 Fe  Fe4  1  0.99154  0.32364  0.67744  1
 Fe  Fe5  1  0.52670  0.18497  0.33662  1
 Fe  Fe6  1  0.42302  0.51166  0.00823  1
 O  O1  1  0.31401  0.80312  0.88678  1
 O  O2  1  0.70626  0.87038  0.43710  1
 O  O3  1  0.79913  0.02597  0.75932  1
 O  O4  1  0.80494  0.38137  0.44219  1
 O  O5  1  0.20021  0.30193  0.89648  1
 O  O6  1  0.28911  0.46416  0.24122  1
