CIF file written using JARVIS-Tools package.
data_Ti6Al16Pd7
_symmetry_space_group_name_H-M  'Fm-3m'
_cell_length_a       8.66432
_cell_length_b       8.66432
_cell_length_c       8.66432
_cell_angle_alpha    60
_cell_angle_beta     60
_cell_angle_gamma    60

_symmetry_Int_Tables_number  225
_chemical_formula_structural  Ti6Al16Pd7
_chemical_formula_sum  Ti6Al6Pd7
_cell_volume  459.9258375237461
_cell_formula_units_Z  1
loop_
  _symmetry_equiv_pos_site_id
 _symmetry_equiv_pos_as_xyz
 1  'x, y, z'
loop_
 _atom_site_type_symbol
 _atom_site_label
 _atom_site_symmetry_multiplicity
 _atom_site_fract_x
 _atom_site_fract_y
 _atom_site_fract_z
 _atom_site_fract_occupancy
 Al  Al1  1  0.63893  0.12036  0.12036  1
 Al  Al2  1  0.87964  0.36107  0.87964  1
 Al  Al3  1  0.66012  0.66012  0.01965  1
 Al  Al4  1  0.33988  0.33988  0.98035  1
 Al  Al5  1  0.87964  0.87964  0.87964  1
 Al  Al6  1  0.33988  0.98035  0.33988  1
 Al  Al7  1  0.12036  0.12036  0.63893  1
 Al  Al8  1  0.12036  0.12036  0.12036  1
 Al  Al9  1  0.33988  0.33988  0.33988  1
 Al  Al10  1  0.87964  0.87964  0.36107  1
 Al  Al11  1  0.12036  0.63893  0.12036  1
 Al  Al12  1  0.66012  0.66012  0.66012  1
 Al  Al13  1  0.66012  0.01965  0.66012  1
 Al  Al14  1  0.01965  0.66012  0.66012  1
 Al  Al15  1  0.98035  0.33988  0.33988  1
 Al  Al16  1  0.36107  0.87964  0.87964  1
 Pd  Pd1  1  -0.00000  0.00000  0.50000  1
 Pd  Pd2  1  0.00000  0.00000  0.00000  1
 Pd  Pd3  1  0.50000  -0.00000  0.00000  1
 Pd  Pd4  1  -0.00000  0.50000  0.00000  1
 Pd  Pd5  1  0.50000  -0.00000  0.50000  1
 Pd  Pd6  1  -0.00000  0.50000  0.50000  1
 Pd  Pd7  1  0.50000  0.50000  0.00000  1
 Ti  Ti1  1  0.32863  0.67137  0.32863  1
 Ti  Ti2  1  0.67137  0.67137  0.32863  1
 Ti  Ti3  1  0.32863  0.32863  0.67137  1
 Ti  Ti4  1  0.32863  0.67137  0.67137  1
 Ti  Ti5  1  0.67137  0.32863  0.32863  1
 Ti  Ti6  1  0.67137  0.32863  0.67137  1
