CIF file written using JARVIS-Tools package.
data_GaAsO4
_symmetry_space_group_name_H-M  'P3_121'
_cell_length_a       4.99266
_cell_length_b       4.99268
_cell_length_c       11.5687
_cell_angle_alpha    89.9998
_cell_angle_beta     90
_cell_angle_gamma    59.9999

_symmetry_Int_Tables_number  152
_chemical_formula_structural  GaAsO4
_chemical_formula_sum  Ga3As3O2
_cell_volume  249.735686538039
_cell_formula_units_Z  3
loop_
  _symmetry_equiv_pos_site_id
 _symmetry_equiv_pos_as_xyz
 1  'x, y, z'
loop_
 _atom_site_type_symbol
 _atom_site_label
 _atom_site_symmetry_multiplicity
 _atom_site_fract_x
 _atom_site_fract_y
 _atom_site_fract_z
 _atom_site_fract_occupancy
 As  As1  1  -0.00000  0.55589  0.83332  1
 As  As2  1  0.44411  -0.00000  0.16666  1
 As  As3  1  0.55589  0.44411  0.49999  1
 Ga  Ga1  1  0.00001  0.55326  0.33332  1
 Ga  Ga2  1  0.44674  0.00000  0.66666  1
 Ga  Ga3  1  0.55326  0.44674  0.99999  1
 O  O1  1  0.32391  0.60721  0.38099  1
 O  O2  1  0.06888  0.32390  0.71433  1
 O  O3  1  0.69752  0.91225  0.79662  1
 O  O4  1  0.39278  0.67611  0.61899  1
 O  O5  1  0.60722  0.06888  0.04766  1
 O  O6  1  0.08775  0.30247  0.20337  1
 O  O7  1  0.30248  0.60977  0.87003  1
 O  O8  1  0.67610  0.93112  0.28566  1
 O  O9  1  0.60978  0.08775  0.53670  1
 O  O10  1  0.39022  0.69753  0.12995  1
 O  O11  1  0.93112  0.39279  0.95232  1
 O  O12  1  0.91225  0.39023  0.46329  1
