CIF file written using JARVIS-Tools package.
data_Sc6Al16Ni7
_symmetry_space_group_name_H-M  'Fm-3m'
_cell_length_a       8.56945
_cell_length_b       8.56945
_cell_length_c       8.56945
_cell_angle_alpha    60
_cell_angle_beta     60
_cell_angle_gamma    60

_symmetry_Int_Tables_number  225
_chemical_formula_structural  Sc6Al16Ni7
_chemical_formula_sum  Sc6Al6Ni7
_cell_volume  444.9844845441358
_cell_formula_units_Z  1
loop_
  _symmetry_equiv_pos_site_id
 _symmetry_equiv_pos_as_xyz
 1  'x, y, z'
loop_
 _atom_site_type_symbol
 _atom_site_label
 _atom_site_symmetry_multiplicity
 _atom_site_fract_x
 _atom_site_fract_y
 _atom_site_fract_z
 _atom_site_fract_occupancy
 Al  Al1  1  0.64279  0.11907  0.11907  1
 Al  Al2  1  0.88093  0.35721  0.88093  1
 Al  Al3  1  0.66548  0.66548  0.00357  1
 Al  Al4  1  0.33452  0.33452  -0.00357  1
 Al  Al5  1  0.88093  0.88093  0.88093  1
 Al  Al6  1  0.33452  -0.00357  0.33452  1
 Al  Al7  1  0.11907  0.11907  0.64279  1
 Al  Al8  1  0.11907  0.11907  0.11907  1
 Al  Al9  1  0.33452  0.33452  0.33452  1
 Al  Al10  1  0.88093  0.88093  0.35721  1
 Al  Al11  1  0.11907  0.64279  0.11907  1
 Al  Al12  1  0.66548  0.66548  0.66548  1
 Al  Al13  1  0.66548  0.00357  0.66548  1
 Al  Al14  1  0.00357  0.66548  0.66548  1
 Al  Al15  1  -0.00357  0.33452  0.33452  1
 Al  Al16  1  0.35721  0.88093  0.88093  1
 Ni  Ni1  1  -0.00000  0.00000  0.50000  1
 Ni  Ni2  1  0.00000  0.00000  0.00000  1
 Ni  Ni3  1  0.50000  -0.00000  0.00000  1
 Ni  Ni4  1  -0.00000  0.50000  0.00000  1
 Ni  Ni5  1  0.50000  0.00000  0.50000  1
 Ni  Ni6  1  -0.00000  0.50000  0.50000  1
 Ni  Ni7  1  0.50000  0.50000  0.00000  1
 Sc  Sc1  1  0.30629  0.69371  0.30629  1
 Sc  Sc2  1  0.69371  0.69371  0.30629  1
 Sc  Sc3  1  0.30629  0.30629  0.69371  1
 Sc  Sc4  1  0.30629  0.69371  0.69371  1
 Sc  Sc5  1  0.69371  0.30629  0.30629  1
 Sc  Sc6  1  0.69371  0.30629  0.69371  1
