CIF file written using JARVIS-Tools package.
data_Pr2Ta2Cl2O7
_symmetry_space_group_name_H-M  'C2/m'
_cell_length_a       3.95731
_cell_length_b       6.97754
_cell_length_c       8.00127
_cell_angle_alpha    112.894
_cell_angle_beta     104.317
_cell_angle_gamma    90.0001

_symmetry_Int_Tables_number  12
_chemical_formula_structural  Pr2Ta2Cl2O7
_chemical_formula_sum  Pr2Ta2Cl2O7
_cell_volume  196.05919763771547
_cell_formula_units_Z  1
loop_
  _symmetry_equiv_pos_site_id
 _symmetry_equiv_pos_as_xyz
 1  'x, y, z'
loop_
 _atom_site_type_symbol
 _atom_site_label
 _atom_site_symmetry_multiplicity
 _atom_site_fract_x
 _atom_site_fract_y
 _atom_site_fract_z
 _atom_site_fract_occupancy
 Cl  Cl1  1  0.67717  0.56641  0.35433  1
 Cl  Cl2  1  0.32283  0.43359  0.64567  1
 O  O1  1  0.45650  0.16551  0.91300  1
 O  O2  1  0.54350  0.83449  0.08700  1
 O  O3  1  0.91871  0.84780  0.83742  1
 O  O4  1  0.00000  0.50000  0.00000  1
 O  O5  1  0.82605  0.07155  0.65211  1
 O  O6  1  0.08129  0.15220  0.16258  1
 O  O7  1  0.17395  0.92845  0.34789  1
 Pr  Pr1  1  0.30860  0.83378  0.61719  1
 Pr  Pr2  1  0.69140  0.16622  0.38281  1
 Ta  Ta1  1  0.96569  0.20271  0.93138  1
 Ta  Ta2  1  0.03431  0.79729  0.06862  1
