CIF file written using JARVIS-Tools package.
data_ErClO
_symmetry_space_group_name_H-M  'Pmmn'
_cell_length_a       4.1338
_cell_length_b       8.26137
_cell_length_c       3.7279
_cell_angle_alpha    90
_cell_angle_beta     90
_cell_angle_gamma    90

_symmetry_Int_Tables_number  59
_chemical_formula_structural  ErClO
_chemical_formula_sum  Er2Cl2O2
_cell_volume  127.31086217396576
_cell_formula_units_Z  2
loop_
  _symmetry_equiv_pos_site_id
 _symmetry_equiv_pos_as_xyz
 1  'x, y, z'
loop_
 _atom_site_type_symbol
 _atom_site_label
 _atom_site_symmetry_multiplicity
 _atom_site_fract_x
 _atom_site_fract_y
 _atom_site_fract_z
 _atom_site_fract_occupancy
 Cl  Cl1  1  0.00000  0.35408  0.00000  1
 Cl  Cl2  1  0.50000  0.64592  0.50000  1
 Er  Er1  1  0.00000  0.12649  0.50000  1
 Er  Er2  1  0.50000  0.87351  0.00000  1
 O  O1  1  0.00000  0.96755  0.00000  1
 O  O2  1  0.50000  0.03245  0.50000  1
