CIF file written using JARVIS-Tools package.
data_NaBeCo4
_symmetry_space_group_name_H-M  'F-43m'
_cell_length_a       4.74121
_cell_length_b       4.74121
_cell_length_c       4.74121
_cell_angle_alpha    60
_cell_angle_beta     60
_cell_angle_gamma    60

_symmetry_Int_Tables_number  216
_chemical_formula_structural  NaBeCo4
_chemical_formula_sum  NaBeCo4
_cell_volume  75.36165215607477
_cell_formula_units_Z  1
loop_
  _symmetry_equiv_pos_site_id
 _symmetry_equiv_pos_as_xyz
 1  'x, y, z'
loop_
 _atom_site_type_symbol
 _atom_site_label
 _atom_site_symmetry_multiplicity
 _atom_site_fract_x
 _atom_site_fract_y
 _atom_site_fract_z
 _atom_site_fract_occupancy
 Be  Be1  1  0.00000  0.00000  0.00000  1
 Co  Co1  1  0.12278  0.62574  0.62574  1
 Co  Co2  1  0.62574  0.62574  0.62574  1
 Co  Co3  1  0.62574  0.12278  0.62574  1
 Co  Co4  1  0.62574  0.62574  0.12278  1
 Na  Na1  1  0.25000  0.25000  0.25000  1
