CIF file written using JARVIS-Tools package.
data_CuAuF5
_symmetry_space_group_name_H-M  'P-1'
_cell_length_a       3.78997
_cell_length_b       4.97307
_cell_length_c       5.4856
_cell_angle_alpha    90.0523
_cell_angle_beta     98.3328
_cell_angle_gamma    109.847

_symmetry_Int_Tables_number  2
_chemical_formula_structural  CuAuF5
_chemical_formula_sum  CuAuF5
_cell_volume  96.08421234872328
_cell_formula_units_Z  1
loop_
  _symmetry_equiv_pos_site_id
 _symmetry_equiv_pos_as_xyz
 1  'x, y, z'
loop_
 _atom_site_type_symbol
 _atom_site_label
 _atom_site_symmetry_multiplicity
 _atom_site_fract_x
 _atom_site_fract_y
 _atom_site_fract_z
 _atom_site_fract_occupancy
 Au  Au1  1  0.00000  0.00000  0.00000  1
 Cu  Cu1  1  -0.00000  0.50000  0.50000  1
 F  F1  1  0.50000  0.50000  0.50000  1
 F  F2  1  0.85338  0.12931  0.67367  1
 F  F3  1  0.18605  0.72512  0.84535  1
 F  F4  1  0.81395  0.27488  0.15465  1
 F  F5  1  0.14662  0.87069  0.32633  1
