CIF file written using JARVIS-Tools package.
data_Yb4As3
_symmetry_space_group_name_H-M  'I-43d'
_cell_length_a       7.61963
_cell_length_b       7.61963
_cell_length_c       7.61963
_cell_angle_alpha    109.472
_cell_angle_beta     109.472
_cell_angle_gamma    109.472

_symmetry_Int_Tables_number  220
_chemical_formula_structural  Yb4As3
_chemical_formula_sum  Yb8As6
_cell_volume  340.5431228760097
_cell_formula_units_Z  2
loop_
  _symmetry_equiv_pos_site_id
 _symmetry_equiv_pos_as_xyz
 1  'x, y, z'
loop_
 _atom_site_type_symbol
 _atom_site_label
 _atom_site_symmetry_multiplicity
 _atom_site_fract_x
 _atom_site_fract_y
 _atom_site_fract_z
 _atom_site_fract_occupancy
 As  As1  1  0.98147  0.85646  0.60648  1
 As  As2  1  0.85646  0.60648  0.98147  1
 As  As3  1  0.60648  0.98147  0.85646  1
 As  As4  1  0.48147  0.10648  0.35646  1
 As  As5  1  0.35646  0.48147  0.10648  1
 As  As6  1  0.10648  0.35646  0.48147  1
 Yb  Yb1  1  0.58592  0.58592  0.58592  1
 Yb  Yb2  1  0.08592  0.08592  0.08592  1
 Yb  Yb3  1  0.23149  0.73146  0.87697  1
 Yb  Yb4  1  0.73146  0.87697  0.23149  1
 Yb  Yb5  1  0.87697  0.23149  0.73146  1
 Yb  Yb6  1  0.73149  0.37697  0.23146  1
 Yb  Yb7  1  0.23146  0.73149  0.37697  1
 Yb  Yb8  1  0.37697  0.23146  0.73149  1
