CIF file written using JARVIS-Tools package.
data_BaTiB2O6
_symmetry_space_group_name_H-M  'R-3'
_cell_length_a       6.194
_cell_length_b       6.194
_cell_length_c       6.194
_cell_angle_alpha    48.4441
_cell_angle_beta     48.4441
_cell_angle_gamma    48.4442

_symmetry_Int_Tables_number  148
_chemical_formula_structural  BaTiB2O6
_chemical_formula_sum  BaTiB2O6
_cell_volume  122.02847397412326
_cell_formula_units_Z  1
loop_
  _symmetry_equiv_pos_site_id
 _symmetry_equiv_pos_as_xyz
 1  'x, y, z'
loop_
 _atom_site_type_symbol
 _atom_site_label
 _atom_site_symmetry_multiplicity
 _atom_site_fract_x
 _atom_site_fract_y
 _atom_site_fract_z
 _atom_site_fract_occupancy
 B  B1  1  0.76542  0.76542  0.76542  1
 B  B2  1  0.23458  0.23458  0.23458  1
 Ba  Ba1  1  0.00000  0.00000  0.00000  1
 O  O1  1  0.65061  0.07164  0.56578  1
 O  O2  1  0.56578  0.65061  0.07164  1
 O  O3  1  0.07164  0.56578  0.65061  1
 O  O4  1  0.34939  0.92836  0.43422  1
 O  O5  1  0.43422  0.34939  0.92836  1
 O  O6  1  0.92836  0.43422  0.34939  1
 Ti  Ti1  1  0.50000  0.50000  0.50000  1
