CIF file written using JARVIS-Tools package.
data_SnPbS2
_symmetry_space_group_name_H-M  'Pmm2'
_cell_length_a       3.18005
_cell_length_b       3.84111
_cell_length_c       19.0466
_cell_angle_alpha    90
_cell_angle_beta     90
_cell_angle_gamma    90

_symmetry_Int_Tables_number  25
_chemical_formula_structural  SnPbS2
_chemical_formula_sum  Sn2Pb2S4
_cell_volume  232.65333307782313
_cell_formula_units_Z  2
loop_
  _symmetry_equiv_pos_site_id
 _symmetry_equiv_pos_as_xyz
 1  'x, y, z'
loop_
 _atom_site_type_symbol
 _atom_site_label
 _atom_site_symmetry_multiplicity
 _atom_site_fract_x
 _atom_site_fract_y
 _atom_site_fract_z
 _atom_site_fract_occupancy
 Pb  Pb1  1  0.50000  0.50055  0.58474  1
 Pb  Pb2  1  0.50000  0.49945  0.08474  1
 S  S1  1  0.50000  0.50021  0.32552  1
 S  S2  1  0.50000  0.49979  0.82552  1
 S  S3  1  0.50000  0.00054  0.67762  1
 S  S4  1  0.50000  -0.00054  0.17762  1
 Sn  Sn1  1  0.50000  0.00022  0.41261  1
 Sn  Sn2  1  0.50000  -0.00022  0.91261  1
