CIF file written using JARVIS-Tools package.
data_K2Hg3Ge2S8
_symmetry_space_group_name_H-M  'C2'
_cell_length_a       6.42273
_cell_length_b       6.42272
_cell_length_c       9.74359
_cell_angle_alpha    87.2259
_cell_angle_beta     87.2259
_cell_angle_gamma    80.3567

_symmetry_Int_Tables_number  5
_chemical_formula_structural  K2Hg3Ge2S8
_chemical_formula_sum  K2Hg3Ge2S8
_cell_volume  395.4615954595999
_cell_formula_units_Z  1
loop_
  _symmetry_equiv_pos_site_id
 _symmetry_equiv_pos_as_xyz
 1  'x, y, z'
loop_
 _atom_site_type_symbol
 _atom_site_label
 _atom_site_symmetry_multiplicity
 _atom_site_fract_x
 _atom_site_fract_y
 _atom_site_fract_z
 _atom_site_fract_occupancy
 Ge  Ge1  1  0.57249  0.89721  0.73382  1
 Ge  Ge2  1  0.10279  0.42751  0.26618  1
 Hg  Hg1  1  0.48100  0.51900  0.00000  1
 Hg  Hg2  1  0.16294  0.83706  0.50000  1
 Hg  Hg3  1  0.65072  0.34928  0.50000  1
 K  K1  1  0.61441  0.93388  0.23775  1
 K  K2  1  0.06612  0.38559  0.76225  1
 S  S1  1  0.24645  0.27719  0.06910  1
 S  S2  1  0.72281  0.75355  0.93090  1
 S  S3  1  0.22990  0.85348  0.74656  1
 S  S4  1  0.14652  0.77010  0.25344  1
 S  S5  1  0.76008  0.38970  0.25633  1
 S  S6  1  0.23652  0.26704  0.45399  1
 S  S7  1  0.73296  0.76348  0.54601  1
 S  S8  1  0.61030  0.23992  0.74367  1
