CIF file written using JARVIS-Tools package.
data_URe2
_symmetry_space_group_name_H-M  'Cmcm'
_cell_length_a       5.38211
_cell_length_b       5.38211
_cell_length_c       8.27619
_cell_angle_alpha    90
_cell_angle_beta     90
_cell_angle_gamma    113.885

_symmetry_Int_Tables_number  63
_chemical_formula_structural  URe2
_chemical_formula_sum  U4Re8
_cell_volume  219.2063183710091
_cell_formula_units_Z  4
loop_
  _symmetry_equiv_pos_site_id
 _symmetry_equiv_pos_as_xyz
 1  'x, y, z'
loop_
 _atom_site_type_symbol
 _atom_site_label
 _atom_site_symmetry_multiplicity
 _atom_site_fract_x
 _atom_site_fract_y
 _atom_site_fract_z
 _atom_site_fract_occupancy
 Re  Re1  1  0.17546  0.82454  0.25000  1
 Re  Re2  1  0.16715  0.34131  0.25000  1
 Re  Re3  1  0.83285  0.65869  0.75000  1
 Re  Re4  1  0.00000  0.00000  0.00000  1
 Re  Re5  1  0.65869  0.83285  0.25000  1
 Re  Re6  1  0.34131  0.16715  0.75000  1
 Re  Re7  1  0.82454  0.17546  0.75000  1
 Re  Re8  1  0.00000  0.00000  0.50000  1
 U  U1  1  0.33744  0.66256  0.58550  1
 U  U2  1  0.66256  0.33744  0.08550  1
 U  U3  1  0.66256  0.33744  0.41450  1
 U  U4  1  0.33744  0.66256  0.91450  1
