CIF file written using JARVIS-Tools package.
data_CoCl2O6
_symmetry_space_group_name_H-M  'C2/m'
_cell_length_a       4.39779
_cell_length_b       4.39779
_cell_length_c       8.57799
_cell_angle_alpha    62.5352
_cell_angle_beta     62.5352
_cell_angle_gamma    70.0551

_symmetry_Int_Tables_number  12
_chemical_formula_structural  CoCl2O6
_chemical_formula_sum  CoCl2O6
_cell_volume  128.86480588216094
_cell_formula_units_Z  1
loop_
  _symmetry_equiv_pos_site_id
 _symmetry_equiv_pos_as_xyz
 1  'x, y, z'
loop_
 _atom_site_type_symbol
 _atom_site_label
 _atom_site_symmetry_multiplicity
 _atom_site_fract_x
 _atom_site_fract_y
 _atom_site_fract_z
 _atom_site_fract_occupancy
 Cl  Cl1  1  0.34857  0.34857  0.24172  1
 Cl  Cl2  1  0.65143  0.65143  0.75828  1
 Co  Co1  1  0.00000  0.00000  0.00000  1
 O  O1  1  0.73782  0.23479  0.84427  1
 O  O2  1  0.76521  0.26218  0.15573  1
 O  O3  1  0.26218  0.76521  0.15573  1
 O  O4  1  0.23479  0.73782  0.84427  1
 O  O5  1  0.60564  0.60564  0.43786  1
 O  O6  1  0.39436  0.39436  0.56214  1
