CIF file written using JARVIS-Tools package.
data_TbOF
_symmetry_space_group_name_H-M  'R-3m'
_cell_length_a       6.72951
_cell_length_b       6.72951
_cell_length_c       6.72952
_cell_angle_alpha    33.0663
_cell_angle_beta     33.0663
_cell_angle_gamma    33.0663

_symmetry_Int_Tables_number  166
_chemical_formula_structural  TbOF
_chemical_formula_sum  Tb2O2F2
_cell_volume  80.74394224979581
_cell_formula_units_Z  2
loop_
  _symmetry_equiv_pos_site_id
 _symmetry_equiv_pos_as_xyz
 1  'x, y, z'
loop_
 _atom_site_type_symbol
 _atom_site_label
 _atom_site_symmetry_multiplicity
 _atom_site_fract_x
 _atom_site_fract_y
 _atom_site_fract_z
 _atom_site_fract_occupancy
 F  F1  1  0.13036  0.13036  0.13036  1
 F  F2  1  0.86964  0.86964  0.86964  1
 O  O1  1  0.62143  0.62143  0.62143  1
 O  O2  1  0.37857  0.37857  0.37857  1
 Tb  Tb1  1  0.74163  0.74163  0.74163  1
 Tb  Tb2  1  0.25837  0.25837  0.25837  1
