CIF file written using JARVIS-Tools package.
data_CeSi2Au2
_symmetry_space_group_name_H-M  'I4/mmm'
_cell_length_a       5.94482
_cell_length_b       5.94482
_cell_length_c       5.94482
_cell_angle_alpha    136.998
_cell_angle_beta     136.998
_cell_angle_gamma    62.4405

_symmetry_Int_Tables_number  139
_chemical_formula_structural  CeSi2Au2
_chemical_formula_sum  CeSi2Au2
_cell_volume  96.54191484518424
_cell_formula_units_Z  1
loop_
  _symmetry_equiv_pos_site_id
 _symmetry_equiv_pos_as_xyz
 1  'x, y, z'
loop_
 _atom_site_type_symbol
 _atom_site_label
 _atom_site_symmetry_multiplicity
 _atom_site_fract_x
 _atom_site_fract_y
 _atom_site_fract_z
 _atom_site_fract_occupancy
 Au  Au1  1  0.75000  0.25000  0.50000  1
 Au  Au2  1  0.25000  0.75000  0.50000  1
 Ce  Ce1  1  0.00000  0.00000  0.00000  1
 Si  Si1  1  0.38547  0.38547  -0.00000  1
 Si  Si2  1  0.61453  0.61453  -0.00000  1
