CIF file written using JARVIS-Tools package.
data_Ba4MoP
_symmetry_space_group_name_H-M  'F-43m'
_cell_length_a       6.87239
_cell_length_b       6.87239
_cell_length_c       6.87239
_cell_angle_alpha    60
_cell_angle_beta     60
_cell_angle_gamma    60

_symmetry_Int_Tables_number  216
_chemical_formula_structural  Ba4MoP
_chemical_formula_sum  Ba4MoP
_cell_volume  229.5126054308626
_cell_formula_units_Z  1
loop_
  _symmetry_equiv_pos_site_id
 _symmetry_equiv_pos_as_xyz
 1  'x, y, z'
loop_
 _atom_site_type_symbol
 _atom_site_label
 _atom_site_symmetry_multiplicity
 _atom_site_fract_x
 _atom_site_fract_y
 _atom_site_fract_z
 _atom_site_fract_occupancy
 Ba  Ba1  1  0.12273  0.62576  0.62576  1
 Ba  Ba2  1  0.62576  0.62576  0.62576  1
 Ba  Ba3  1  0.62576  0.12273  0.62576  1
 Ba  Ba4  1  0.62576  0.62576  0.12273  1
 Mo  Mo1  1  0.25000  0.25000  0.25000  1
 P  P1  1  0.00000  0.00000  0.00000  1
