CIF file written using JARVIS-Tools package.
data_LiCu2P
_symmetry_space_group_name_H-M  'P-3m1'
_cell_length_a       4.05891
_cell_length_b       4.05891
_cell_length_c       7.50099
_cell_angle_alpha    90
_cell_angle_beta     90
_cell_angle_gamma    120

_symmetry_Int_Tables_number  164
_chemical_formula_structural  LiCu2P
_chemical_formula_sum  Li2Cu4P2
_cell_volume  107.02061602265414
_cell_formula_units_Z  2
loop_
  _symmetry_equiv_pos_site_id
 _symmetry_equiv_pos_as_xyz
 1  'x, y, z'
loop_
 _atom_site_type_symbol
 _atom_site_label
 _atom_site_symmetry_multiplicity
 _atom_site_fract_x
 _atom_site_fract_y
 _atom_site_fract_z
 _atom_site_fract_occupancy
 Cu  Cu1  1  0.66667  0.33333  0.43922  1
 Cu  Cu2  1  0.33333  0.66667  0.56078  1
 Cu  Cu3  1  0.00000  0.00000  0.72157  1
 Cu  Cu4  1  0.00000  0.00000  0.27843  1
 Li  Li1  1  0.33333  0.66667  0.90563  1
 Li  Li2  1  0.66667  0.33333  0.09437  1
 P  P1  1  0.33333  0.66667  0.24653  1
 P  P2  1  0.66667  0.33333  0.75347  1
