CIF file written using JARVIS-Tools package.
data_ZnGeAs2
_symmetry_space_group_name_H-M  'I-42d'
_cell_length_a       5.74637
_cell_length_b       5.74637
_cell_length_c       6.98584
_cell_angle_alpha    114.287
_cell_angle_beta     114.287
_cell_angle_gamma    89.9989

_symmetry_Int_Tables_number  122
_chemical_formula_structural  ZnGeAs2
_chemical_formula_sum  Zn2Ge2As4
_cell_volume  187.63819307070352
_cell_formula_units_Z  2
loop_
  _symmetry_equiv_pos_site_id
 _symmetry_equiv_pos_as_xyz
 1  'x, y, z'
loop_
 _atom_site_type_symbol
 _atom_site_label
 _atom_site_symmetry_multiplicity
 _atom_site_fract_x
 _atom_site_fract_y
 _atom_site_fract_z
 _atom_site_fract_occupancy
 As  As1  1  0.87553  0.87502  0.24999  1
 As  As2  1  0.37442  0.37503  0.25001  1
 As  As3  1  0.62503  0.12442  0.75001  1
 As  As4  1  0.12501  0.62553  0.74999  1
 Ge  Ge1  1  0.50001  0.49997  -0.00000  1
 Ge  Ge2  1  0.74997  0.25001  0.50000  1
 Zn  Zn1  1  0.00006  -0.00003  0.00000  1
 Zn  Zn2  1  0.24997  0.75006  0.50000  1
