CIF file written using JARVIS-Tools package.
data_Li3AlB2O6
_symmetry_space_group_name_H-M  'P-1'
_cell_length_a       4.90568
_cell_length_b       6.15834
_cell_length_c       7.886
_cell_angle_alpha    75.0207
_cell_angle_beta     89.4528
_cell_angle_gamma    89.6312

_symmetry_Int_Tables_number  2
_chemical_formula_structural  Li3AlB2O6
_chemical_formula_sum  Li6Al2B4O2
_cell_volume  230.13486657549512
_cell_formula_units_Z  2
loop_
  _symmetry_equiv_pos_site_id
 _symmetry_equiv_pos_as_xyz
 1  'x, y, z'
loop_
 _atom_site_type_symbol
 _atom_site_label
 _atom_site_symmetry_multiplicity
 _atom_site_fract_x
 _atom_site_fract_y
 _atom_site_fract_z
 _atom_site_fract_occupancy
 Al  Al1  1  0.84937  0.44815  0.72837  1
 Al  Al2  1  0.15063  0.55185  0.27163  1
 B  B1  1  0.15968  0.17730  0.57081  1
 B  B2  1  0.84032  0.82270  0.42919  1
 B  B3  1  0.33507  0.32740  0.91153  1
 B  B4  1  0.66493  0.67260  0.08847  1
 Li  Li1  1  0.66836  0.26336  0.38860  1
 Li  Li2  1  0.67532  0.96965  0.73835  1
 Li  Li3  1  0.17982  0.89493  0.92807  1
 Li  Li4  1  0.82018  0.10507  0.07193  1
 Li  Li5  1  0.33164  0.73664  0.61140  1
 Li  Li6  1  0.32468  0.03035  0.26165  1
 O  O1  1  0.81016  0.51311  0.21576  1
 O  O2  1  0.61969  0.33636  0.89912  1
 O  O3  1  0.38031  0.66364  0.10088  1
 O  O4  1  0.27568  0.29316  0.40919  1
 O  O5  1  0.72432  0.70684  0.59081  1
 O  O6  1  0.70777  0.99073  0.31729  1
 O  O7  1  0.88846  0.24005  0.60399  1
 O  O8  1  0.11154  0.75995  0.39601  1
 O  O9  1  0.79404  0.83505  0.96615  1
 O  O10  1  0.18984  0.48689  0.78424  1
 O  O11  1  0.29223  0.00927  0.68271  1
 O  O12  1  0.20596  0.16495  0.03385  1
