CIF file written using JARVIS-Tools package.
data_LaSc3B4O12
_symmetry_space_group_name_H-M  'C2/c'
_cell_length_a       6.30524
_cell_length_b       6.30524
_cell_length_c       12.0829
_cell_angle_alpha    80.8497
_cell_angle_beta     80.8497
_cell_angle_gamma    104.021

_symmetry_Int_Tables_number  15
_chemical_formula_structural  LaSc3B4O12
_chemical_formula_sum  La2Sc6B8O24
_cell_volume  450.2328258505633
_cell_formula_units_Z  2
loop_
  _symmetry_equiv_pos_site_id
 _symmetry_equiv_pos_as_xyz
 1  'x, y, z'
loop_
 _atom_site_type_symbol
 _atom_site_label
 _atom_site_symmetry_multiplicity
 _atom_site_fract_x
 _atom_site_fract_y
 _atom_site_fract_z
 _atom_site_fract_occupancy
 B  B1  1  0.89563  0.50635  0.77431  1
 B  B2  1  0.72871  0.77884  0.50045  1
 B  B3  1  0.27129  0.22116  0.49955  1
 B  B4  1  0.77884  0.72871  0.00045  1
 B  B5  1  0.49365  0.10437  0.72569  1
 B  B6  1  0.50635  0.89563  0.27431  1
 B  B7  1  0.22116  0.27129  0.99955  1
 B  B8  1  0.10437  0.49365  0.22569  1
 La  La1  1  0.96438  0.03562  0.75000  1
 La  La2  1  0.03562  0.96438  0.25000  1
 O  O1  1  0.86844  0.63961  0.49447  1
 O  O2  1  0.24121  0.35564  0.24088  1
 O  O3  1  0.29507  0.48408  0.93151  1
 O  O4  1  0.64436  0.75879  0.25912  1
 O  O5  1  0.75879  0.64436  0.75912  1
 O  O6  1  0.35564  0.24121  0.74088  1
 O  O7  1  0.13156  0.36039  0.50553  1
 O  O8  1  0.63961  0.86844  0.99447  1
 O  O9  1  0.16984  0.69281  0.14723  1
 O  O10  1  0.83016  0.30719  0.85277  1
 O  O11  1  0.69281  0.16984  0.64723  1
 O  O12  1  0.70493  0.51592  0.06849  1
 O  O13  1  0.36039  0.13156  0.00553  1
 O  O14  1  0.51592  0.70493  0.56849  1
 O  O15  1  0.00784  0.19073  0.06671  1
 O  O16  1  0.56606  0.10784  0.20604  1
 O  O17  1  0.10784  0.56606  0.70604  1
 O  O18  1  0.43394  0.89216  0.79396  1
 O  O19  1  0.48408  0.29507  0.43151  1
 O  O20  1  0.80927  0.99216  0.43329  1
 O  O21  1  0.99216  0.80927  0.93329  1
 O  O22  1  0.19073  0.00784  0.56671  1
 O  O23  1  0.89216  0.43394  0.29396  1
 O  O24  1  0.30719  0.83016  0.35277  1
 Sc  Sc1  1  0.79827  0.29924  0.47440  1
 Sc  Sc2  1  0.57559  0.42441  0.25000  1
 Sc  Sc3  1  0.42441  0.57559  0.75000  1
 Sc  Sc4  1  0.20173  0.70076  0.52560  1
 Sc  Sc5  1  0.29924  0.79827  0.97440  1
 Sc  Sc6  1  0.70076  0.20173  0.02560  1
