CIF file written using JARVIS-Tools package.
data_ErAu3
_symmetry_space_group_name_H-M  'Pmmn'
_cell_length_a       4.99902
_cell_length_b       5.11309
_cell_length_c       6.15914
_cell_angle_alpha    90
_cell_angle_beta     90
_cell_angle_gamma    90

_symmetry_Int_Tables_number  59
_chemical_formula_structural  ErAu3
_chemical_formula_sum  Er2Au6
_cell_volume  157.43015118079543
_cell_formula_units_Z  2
loop_
  _symmetry_equiv_pos_site_id
 _symmetry_equiv_pos_as_xyz
 1  'x, y, z'
loop_
 _atom_site_type_symbol
 _atom_site_label
 _atom_site_symmetry_multiplicity
 _atom_site_fract_x
 _atom_site_fract_y
 _atom_site_fract_z
 _atom_site_fract_occupancy
 Au  Au1  1  0.50000  0.16336  0.25514  1
 Au  Au2  1  0.50000  0.16336  0.74486  1
 Au  Au3  1  0.00000  0.83664  0.24486  1
 Au  Au4  1  0.00000  0.83664  0.75514  1
 Au  Au5  1  0.00000  0.33555  0.00000  1
 Au  Au6  1  0.50000  0.66445  0.50000  1
 Er  Er1  1  0.50000  0.65800  0.00000  1
 Er  Er2  1  0.00000  0.34200  0.50000  1
