CIF file written using JARVIS-Tools package.
data_MgH2
_symmetry_space_group_name_H-M  'Pa-3'
_cell_length_a       4.811
_cell_length_b       4.81044
_cell_length_c       4.81024
_cell_angle_alpha    90
_cell_angle_beta     90
_cell_angle_gamma    90

_symmetry_Int_Tables_number  205
_chemical_formula_structural  MgH2
_chemical_formula_sum  Mg4H8
_cell_volume  111.32357105546662
_cell_formula_units_Z  4
loop_
  _symmetry_equiv_pos_site_id
 _symmetry_equiv_pos_as_xyz
 1  'x, y, z'
loop_
 _atom_site_type_symbol
 _atom_site_label
 _atom_site_symmetry_multiplicity
 _atom_site_fract_x
 _atom_site_fract_y
 _atom_site_fract_z
 _atom_site_fract_occupancy
 H  H1  1  0.59553  0.05831  0.15446  1
 H  H2  1  0.09550  0.36731  0.34551  1
 H  H3  1  0.59553  0.55831  0.34554  1
 H  H4  1  0.90450  0.86731  0.65449  1
 H  H5  1  0.09550  0.86731  0.15449  1
 H  H6  1  0.40447  0.55831  0.84554  1
 H  H7  1  0.40447  0.05831  0.65446  1
 H  H8  1  0.90450  0.36731  0.84551  1
 Mg  Mg1  1  0.75000  0.71278  -0.00000  1
 Mg  Mg2  1  0.25000  0.71278  0.50000  1
 Mg  Mg3  1  0.75000  0.21278  0.50000  1
 Mg  Mg4  1  0.25000  0.21278  0.00000  1
