CIF file written using JARVIS-Tools package.
data_LiDyGe
_symmetry_space_group_name_H-M  'P-62m'
_cell_length_a       4.23577
_cell_length_b       7.02812
_cell_length_c       7.02831
_cell_angle_alpha    119.999
_cell_angle_beta     90
_cell_angle_gamma    90

_symmetry_Int_Tables_number  189
_chemical_formula_structural  LiDyGe
_chemical_formula_sum  Li3Dy3Ge3
_cell_volume  181.1995312126308
_cell_formula_units_Z  3
loop_
  _symmetry_equiv_pos_site_id
 _symmetry_equiv_pos_as_xyz
 1  'x, y, z'
loop_
 _atom_site_type_symbol
 _atom_site_label
 _atom_site_symmetry_multiplicity
 _atom_site_fract_x
 _atom_site_fract_y
 _atom_site_fract_z
 _atom_site_fract_occupancy
 Dy  Dy1  1  0.00000  0.57703  0.00000  1
 Dy  Dy2  1  0.00000  0.42293  0.42295  1
 Dy  Dy3  1  0.00000  0.99999  0.57705  1
 Ge  Ge1  1  0.00000  -0.00001  0.00000  1
 Ge  Ge2  1  0.50000  0.33333  0.66666  1
 Ge  Ge3  1  0.50000  0.66666  0.33334  1
 Li  Li1  1  0.50000  0.23314  0.00000  1
 Li  Li2  1  0.50000  0.76684  0.76685  1
 Li  Li3  1  0.50000  0.99999  0.23315  1
