CIF file written using JARVIS-Tools package.
data_CO
_symmetry_space_group_name_H-M  'R3c'
_cell_length_a       6.9045
_cell_length_b       6.90451
_cell_length_c       6.9045
_cell_angle_alpha    87.3648
_cell_angle_beta     87.3649
_cell_angle_gamma    87.3648

_symmetry_Int_Tables_number  161
_chemical_formula_structural  CO
_chemical_formula_sum  C8O8
_cell_volume  328.13997366066457
_cell_formula_units_Z  8
loop_
  _symmetry_equiv_pos_site_id
 _symmetry_equiv_pos_as_xyz
 1  'x, y, z'
loop_
 _atom_site_type_symbol
 _atom_site_label
 _atom_site_symmetry_multiplicity
 _atom_site_fract_x
 _atom_site_fract_y
 _atom_site_fract_z
 _atom_site_fract_occupancy
 C  C1  1  0.53173  0.53173  0.53173  1
 C  C2  1  0.73192  0.03698  0.54248  1
 C  C3  1  0.03698  0.54248  0.73192  1
 C  C4  1  0.54248  0.73192  0.03698  1
 C  C5  1  0.03173  0.03173  0.03173  1
 C  C6  1  0.23192  0.04248  0.53698  1
 C  C7  1  0.53698  0.23192  0.04248  1
 C  C8  1  0.04248  0.53698  0.23192  1
 O  O1  1  0.42497  0.30279  0.94238  1
 O  O2  1  0.94238  0.42497  0.30279  1
 O  O3  1  0.44238  0.80279  0.92497  1
 O  O4  1  0.44055  0.44055  0.44055  1
 O  O5  1  0.30279  0.94238  0.42497  1
 O  O6  1  0.92497  0.44238  0.80279  1
 O  O7  1  0.80279  0.92497  0.44238  1
 O  O8  1  0.94055  0.94055  0.94055  1
