CIF file written using JARVIS-Tools package.
data_AlVO4
_symmetry_space_group_name_H-M  'P-1'
_cell_length_a       6.58068
_cell_length_b       7.81992
_cell_length_c       9.18725
_cell_angle_alpha    96.31
_cell_angle_beta     107.099
_cell_angle_gamma    101.377

_symmetry_Int_Tables_number  2
_chemical_formula_structural  AlVO4
_chemical_formula_sum  Al6V6O24
_cell_volume  435.8322245965731
_cell_formula_units_Z  6
loop_
  _symmetry_equiv_pos_site_id
 _symmetry_equiv_pos_as_xyz
 1  'x, y, z'
loop_
 _atom_site_type_symbol
 _atom_site_label
 _atom_site_symmetry_multiplicity
 _atom_site_fract_x
 _atom_site_fract_y
 _atom_site_fract_z
 _atom_site_fract_occupancy
 Al  Al1  1  0.74874  0.70053  0.40886  1
 Al  Al2  1  0.25126  0.29947  0.59114  1
 Al  Al3  1  0.46115  0.88405  0.21060  1
 Al  Al4  1  0.53885  0.11595  0.78940  1
 Al  Al5  1  0.96249  0.30785  0.00786  1
 Al  Al6  1  0.03751  0.69215  0.99214  1
 O  O1  1  0.24889  0.13577  0.73692  1
 O  O2  1  0.95760  0.29915  0.57240  1
 O  O3  1  0.54374  0.25592  0.63840  1
 O  O4  1  0.45626  0.74408  0.36160  1
 O  O5  1  0.83884  0.90347  0.56697  1
 O  O6  1  0.16116  0.09653  0.43303  1
 O  O7  1  0.74025  0.56617  0.56590  1
 O  O8  1  0.04240  0.70085  0.42760  1
 O  O9  1  0.47681  0.88082  0.78319  1
 O  O10  1  0.25975  0.43383  0.43410  1
 O  O11  1  0.35724  0.50717  0.74548  1
 O  O12  1  0.64276  0.49283  0.25452  1
 O  O13  1  0.04913  0.52430  0.14264  1
 O  O14  1  0.15559  0.86918  0.17308  1
 O  O15  1  0.64524  0.27320  0.97577  1
 O  O16  1  0.35476  0.72680  0.02423  1
 O  O17  1  0.75111  0.86423  0.26308  1
 O  O18  1  0.25201  0.29729  0.03276  1
 O  O19  1  0.74799  0.70271  0.96724  1
 O  O20  1  0.95024  0.15295  0.14850  1
 O  O21  1  0.04976  0.84705  0.85150  1
 O  O22  1  0.52319  0.11918  0.21681  1
 O  O23  1  0.84441  0.13082  0.82692  1
 O  O24  1  0.95087  0.47570  0.85736  1
 V  V1  1  0.19657  0.60056  0.34449  1
 V  V2  1  0.00261  0.99615  0.25481  1
 V  V3  1  0.99739  0.00385  0.74519  1
 V  V4  1  0.48267  0.69897  0.87452  1
 V  V5  1  0.80343  0.39944  0.65551  1
 V  V6  1  0.51733  0.30103  0.12548  1
