CIF file written using JARVIS-Tools package.
data_Mn2OF3
_symmetry_space_group_name_H-M  'Cmcm'
_cell_length_a       4.78249
_cell_length_b       4.78249
_cell_length_c       12.6682
_cell_angle_alpha    90
_cell_angle_beta     90
_cell_angle_gamma    93.4228

_symmetry_Int_Tables_number  63
_chemical_formula_structural  Mn2OF3
_chemical_formula_sum  Mn8O4F2
_cell_volume  289.2334612974498
_cell_formula_units_Z  4
loop_
  _symmetry_equiv_pos_site_id
 _symmetry_equiv_pos_as_xyz
 1  'x, y, z'
loop_
 _atom_site_type_symbol
 _atom_site_label
 _atom_site_symmetry_multiplicity
 _atom_site_fract_x
 _atom_site_fract_y
 _atom_site_fract_z
 _atom_site_fract_occupancy
 F  F1  1  0.79916  0.20084  0.87500  1
 F  F2  1  0.77802  0.17001  0.12500  1
 F  F3  1  0.72334  0.72334  0.74479  1
 F  F4  1  0.72334  0.72334  0.50521  1
 F  F5  1  0.27666  0.27666  0.24479  1
 F  F6  1  0.27666  0.27666  0.00521  1
 F  F7  1  0.20084  0.79916  0.87500  1
 F  F8  1  0.22198  0.82999  0.62500  1
 F  F9  1  0.20084  0.79916  0.37500  1
 F  F10  1  0.17001  0.77802  0.12500  1
 F  F11  1  0.82999  0.22198  0.62500  1
 F  F12  1  0.79916  0.20084  0.37500  1
 Mn  Mn1  1  0.96455  0.96455  0.99960  1
 Mn  Mn2  1  0.50000  0.50000  0.87500  1
 Mn  Mn3  1  0.50000  0.50000  0.37500  1
 Mn  Mn4  1  0.50222  0.50222  0.12500  1
 Mn  Mn5  1  0.49778  0.49778  0.62500  1
 Mn  Mn6  1  0.03545  0.03545  0.75040  1
 Mn  Mn7  1  0.03545  0.03545  0.49960  1
 Mn  Mn8  1  0.96455  0.96455  0.25040  1
 O  O1  1  0.67303  0.67303  0.25193  1
 O  O2  1  0.67303  0.67303  0.99807  1
 O  O3  1  0.32697  0.32697  0.49807  1
 O  O4  1  0.32697  0.32697  0.75193  1
