CIF file written using JARVIS-Tools package.
data_CrN2
_symmetry_space_group_name_H-M  'P6_2'
_cell_length_a       5.44154
_cell_length_b       5.44154
_cell_length_c       6.02644
_cell_angle_alpha    90
_cell_angle_beta     90
_cell_angle_gamma    120

_symmetry_Int_Tables_number  171
_chemical_formula_structural  CrN2
_chemical_formula_sum  Cr3N6
_cell_volume  154.53799616099485
_cell_formula_units_Z  3
loop_
  _symmetry_equiv_pos_site_id
 _symmetry_equiv_pos_as_xyz
 1  'x, y, z'
loop_
 _atom_site_type_symbol
 _atom_site_label
 _atom_site_symmetry_multiplicity
 _atom_site_fract_x
 _atom_site_fract_y
 _atom_site_fract_z
 _atom_site_fract_occupancy
 Cr  Cr1  1  0.49996  0.00000  0.00259  1
 Cr  Cr2  1  0.50004  0.50004  0.33592  1
 Cr  Cr3  1  -0.00000  0.49996  0.66925  1
 N  N1  1  0.42608  0.20869  0.16533  1
 N  N2  1  0.78261  0.57392  0.49867  1
 N  N3  1  0.79131  0.21739  0.83200  1
 N  N4  1  0.20855  0.78244  0.83211  1
 N  N5  1  0.21756  0.42611  0.49878  1
 N  N6  1  0.57389  0.79145  0.16544  1
