CIF file written using JARVIS-Tools package.
data_AsPdS
_symmetry_space_group_name_H-M  'P2_13'
_cell_length_a       6.03386
_cell_length_b       6.03386
_cell_length_c       6.03386
_cell_angle_alpha    89.9981
_cell_angle_beta     89.9981
_cell_angle_gamma    89.9981

_symmetry_Int_Tables_number  198
_chemical_formula_structural  AsPdS
_chemical_formula_sum  As4Pd4S4
_cell_volume  219.67766451772164
_cell_formula_units_Z  4
loop_
  _symmetry_equiv_pos_site_id
 _symmetry_equiv_pos_as_xyz
 1  'x, y, z'
loop_
 _atom_site_type_symbol
 _atom_site_label
 _atom_site_symmetry_multiplicity
 _atom_site_fract_x
 _atom_site_fract_y
 _atom_site_fract_z
 _atom_site_fract_occupancy
 As  As1  1  0.61343  0.61343  0.61343  1
 As  As2  1  0.88658  0.38657  0.11343  1
 As  As3  1  0.38657  0.11343  0.88658  1
 As  As4  1  0.11343  0.88658  0.38657  1
 Pd  Pd1  1  0.99949  0.99949  0.99949  1
 Pd  Pd2  1  0.50051  0.00051  0.49949  1
 Pd  Pd3  1  0.00051  0.49949  0.50051  1
 Pd  Pd4  1  0.49949  0.50051  0.00051  1
 S  S1  1  0.39265  0.39265  0.39265  1
 S  S2  1  0.10734  0.60734  0.89265  1
 S  S3  1  0.60734  0.89265  0.10734  1
 S  S4  1  0.89265  0.10734  0.60734  1
