CIF file written using JARVIS-Tools package.
data_Ca2B5H2ClO10
_symmetry_space_group_name_H-M  'Cc'
_cell_length_a       11.4707
_cell_length_b       6.50326
_cell_length_c       6.50326
_cell_angle_alpha    121.729
_cell_angle_beta     89.9713
_cell_angle_gamma    89.9713

_symmetry_Int_Tables_number  9
_chemical_formula_structural  Ca2B5H2ClO10
_chemical_formula_sum  Ca4B0H4Cl2O20
_cell_volume  412.61885416222435
_cell_formula_units_Z  2
loop_
  _symmetry_equiv_pos_site_id
 _symmetry_equiv_pos_as_xyz
 1  'x, y, z'
loop_
 _atom_site_type_symbol
 _atom_site_label
 _atom_site_symmetry_multiplicity
 _atom_site_fract_x
 _atom_site_fract_y
 _atom_site_fract_z
 _atom_site_fract_occupancy
 B  B1  1  0.06160  0.80327  0.29181  1
 B  B2  1  0.56160  0.29181  0.80327  1
 B  B3  1  0.33695  0.25109  0.77929  1
 B  B4  1  0.83695  0.77929  0.25109  1
 B  B5  1  0.22550  0.63935  0.01369  1
 B  B6  1  0.72550  0.01369  0.63935  1
 B  B7  1  0.27190  0.92233  0.85401  1
 B  B8  1  0.77190  0.85401  0.92233  1
 B  B9  1  0.26446  0.85231  0.45023  1
 B  B10  1  0.76446  0.45023  0.85231  1
 Ca  Ca1  1  0.50219  0.75653  0.25339  1
 Ca  Ca2  1  0.00219  0.25339  0.75653  1
 Ca  Ca3  1  0.77701  0.37084  0.32132  1
 Ca  Ca4  1  0.27701  0.32132  0.37084  1
 Cl  Cl1  1  0.02691  0.39330  0.41154  1
 Cl  Cl2  1  0.52691  0.41154  0.39330  1
 H  H1  1  0.54308  -0.00954  -0.04690  1
 H  H2  1  0.04308  -0.04690  -0.00954  1
 H  H3  1  0.51254  0.71509  0.78360  1
 H  H4  1  0.01254  0.78360  0.71509  1
 O  O1  1  0.77459  0.61120  0.75232  1
 O  O2  1  0.27459  0.75232  0.61120  1
 O  O3  1  0.84771  0.52449  0.05164  1
 O  O4  1  0.34771  0.05164  0.52449  1
 O  O5  1  0.64372  0.46689  0.94185  1
 O  O6  1  0.14372  0.94185  0.46689  1
 O  O7  1  0.79324  0.21207  0.65454  1
 O  O8  1  0.29324  0.65454  0.21207  1
 O  O9  1  0.29283  0.16191  0.93581  1
 O  O10  1  0.45030  0.36843  0.87220  1
 O  O11  1  0.75483  0.78419  0.42788  1
 O  O12  1  0.25483  0.42788  0.78419  1
 O  O13  1  0.74086  0.02831  0.87606  1
 O  O14  1  0.24086  0.87606  0.02831  1
 O  O15  1  0.59591  0.06109  0.62794  1
 O  O16  1  0.09591  0.62794  0.06109  1
 O  O17  1  0.50259  0.85626  0.94972  1
 O  O18  1  0.79283  0.93581  0.16191  1
 O  O19  1  0.95030  0.87220  0.36843  1
 O  O20  1  0.00259  0.94972  0.85626  1
