CIF file written using JARVIS-Tools package.
data_Ti6Al16Rh7
_symmetry_space_group_name_H-M  'Fm-3m'
_cell_length_a       8.58292
_cell_length_b       8.58292
_cell_length_c       8.58292
_cell_angle_alpha    60
_cell_angle_beta     60
_cell_angle_gamma    60

_symmetry_Int_Tables_number  225
_chemical_formula_structural  Ti6Al16Rh7
_chemical_formula_sum  Ti6Al6Rh7
_cell_volume  447.0851523588138
_cell_formula_units_Z  1
loop_
  _symmetry_equiv_pos_site_id
 _symmetry_equiv_pos_as_xyz
 1  'x, y, z'
loop_
 _atom_site_type_symbol
 _atom_site_label
 _atom_site_symmetry_multiplicity
 _atom_site_fract_x
 _atom_site_fract_y
 _atom_site_fract_z
 _atom_site_fract_occupancy
 Al  Al1  1  0.64010  0.11997  0.11997  1
 Al  Al2  1  0.88003  0.35990  0.88003  1
 Al  Al3  1  0.65789  0.65789  0.02632  1
 Al  Al4  1  0.34211  0.34211  0.97368  1
 Al  Al5  1  0.88003  0.88003  0.88003  1
 Al  Al6  1  0.34211  0.97368  0.34211  1
 Al  Al7  1  0.11997  0.11997  0.64010  1
 Al  Al8  1  0.11997  0.11997  0.11997  1
 Al  Al9  1  0.34211  0.34211  0.34211  1
 Al  Al10  1  0.88003  0.88003  0.35990  1
 Al  Al11  1  0.11997  0.64010  0.11997  1
 Al  Al12  1  0.65789  0.65789  0.65789  1
 Al  Al13  1  0.65789  0.02632  0.65789  1
 Al  Al14  1  0.02632  0.65789  0.65789  1
 Al  Al15  1  0.97368  0.34211  0.34211  1
 Al  Al16  1  0.35990  0.88003  0.88003  1
 Rh  Rh1  1  -0.00000  0.00000  0.50000  1
 Rh  Rh2  1  0.00000  0.00000  0.00000  1
 Rh  Rh3  1  0.50000  -0.00000  0.00000  1
 Rh  Rh4  1  -0.00000  0.50000  0.00000  1
 Rh  Rh5  1  0.50000  0.00000  0.50000  1
 Rh  Rh6  1  -0.00000  0.50000  0.50000  1
 Rh  Rh7  1  0.50000  0.50000  0.00000  1
 Ti  Ti1  1  0.32427  0.67573  0.32427  1
 Ti  Ti2  1  0.67573  0.67573  0.32427  1
 Ti  Ti3  1  0.32427  0.32427  0.67573  1
 Ti  Ti4  1  0.32427  0.67573  0.67573  1
 Ti  Ti5  1  0.67573  0.32427  0.32427  1
 Ti  Ti6  1  0.67573  0.32427  0.67573  1
