CIF file written using JARVIS-Tools package.
data_SrZnSbF
_symmetry_space_group_name_H-M  'P4/nmm'
_cell_length_a       4.32595
_cell_length_b       4.32595
_cell_length_c       9.43289
_cell_angle_alpha    90
_cell_angle_beta     90
_cell_angle_gamma    90

_symmetry_Int_Tables_number  129
_chemical_formula_structural  SrZnSbF
_chemical_formula_sum  Sr2Zn2Sb2F2
_cell_volume  176.5253116474771
_cell_formula_units_Z  2
loop_
  _symmetry_equiv_pos_site_id
 _symmetry_equiv_pos_as_xyz
 1  'x, y, z'
loop_
 _atom_site_type_symbol
 _atom_site_label
 _atom_site_symmetry_multiplicity
 _atom_site_fract_x
 _atom_site_fract_y
 _atom_site_fract_z
 _atom_site_fract_occupancy
 F  F1  1  0.25000  0.75000  0.00000  1
 F  F2  1  0.75000  0.25000  0.00000  1
 Sb  Sb1  1  0.75000  0.75000  0.31870  1
 Sb  Sb2  1  0.25000  0.25000  0.68130  1
 Sr  Sr1  1  0.75000  0.75000  0.86104  1
 Sr  Sr2  1  0.25000  0.25000  0.13896  1
 Zn  Zn1  1  0.25000  0.75000  0.50000  1
 Zn  Zn2  1  0.75000  0.25000  0.50000  1
