CIF file written using JARVIS-Tools package.
data_CeSi2Pt
_symmetry_space_group_name_H-M  'Cmcm'
_cell_length_a       4.25567
_cell_length_b       4.27193
_cell_length_c       8.62852
_cell_angle_alpha    104.332
_cell_angle_beta     90
_cell_angle_gamma    90

_symmetry_Int_Tables_number  63
_chemical_formula_structural  CeSi2Pt
_chemical_formula_sum  Ce2Si4Pt2
_cell_volume  151.98348260966876
_cell_formula_units_Z  2
loop_
  _symmetry_equiv_pos_site_id
 _symmetry_equiv_pos_as_xyz
 1  'x, y, z'
loop_
 _atom_site_type_symbol
 _atom_site_label
 _atom_site_symmetry_multiplicity
 _atom_site_fract_x
 _atom_site_fract_y
 _atom_site_fract_z
 _atom_site_fract_occupancy
 Ce  Ce1  1  0.25000  0.60308  0.20617  1
 Ce  Ce2  1  0.75000  0.39692  0.79383  1
 Pt  Pt1  1  0.75000  0.17898  0.35796  1
 Pt  Pt2  1  0.25000  0.82102  0.64204  1
 Si  Si1  1  0.25000  0.96540  0.93079  1
 Si  Si2  1  0.75000  0.03460  0.06921  1
 Si  Si3  1  0.75000  0.74925  0.49849  1
 Si  Si4  1  0.25000  0.25075  0.50151  1
