CIF file written using JARVIS-Tools package.
data_PrMgPd
_symmetry_space_group_name_H-M  'P-62m'
_cell_length_a       4.1169
_cell_length_b       7.6859
_cell_length_c       7.68663
_cell_angle_alpha    119.997
_cell_angle_beta     90
_cell_angle_gamma    90

_symmetry_Int_Tables_number  189
_chemical_formula_structural  PrMgPd
_chemical_formula_sum  Pr3Mg3Pd3
_cell_volume  210.64215651189687
_cell_formula_units_Z  3
loop_
  _symmetry_equiv_pos_site_id
 _symmetry_equiv_pos_as_xyz
 1  'x, y, z'
loop_
 _atom_site_type_symbol
 _atom_site_label
 _atom_site_symmetry_multiplicity
 _atom_site_fract_x
 _atom_site_fract_y
 _atom_site_fract_z
 _atom_site_fract_occupancy
 Mg  Mg1  1  0.00000  0.23859  0.00000  1
 Mg  Mg2  1  0.00000  0.76140  0.76141  1
 Mg  Mg3  1  0.00000  -0.00001  0.23859  1
 Pd  Pd1  1  0.00000  0.33332  0.66667  1
 Pd  Pd2  1  0.00000  0.66665  0.33333  1
 Pd  Pd3  1  0.50000  0.99999  0.00000  1
 Pr  Pr1  1  0.50000  0.58501  -0.00000  1
 Pr  Pr2  1  0.50000  0.41497  0.41499  1
 Pr  Pr3  1  0.50000  0.99998  0.58501  1
