CIF file written using JARVIS-Tools package.
data_Mn3Au
_symmetry_space_group_name_H-M  'P4/mmm'
_cell_length_a       3.7851
_cell_length_b       3.7851
_cell_length_c       10.5785
_cell_angle_alpha    90
_cell_angle_beta     90
_cell_angle_gamma    90

_symmetry_Int_Tables_number  123
_chemical_formula_structural  Mn3Au
_chemical_formula_sum  Mn9Au3
_cell_volume  151.55774546619298
_cell_formula_units_Z  3
loop_
  _symmetry_equiv_pos_site_id
 _symmetry_equiv_pos_as_xyz
 1  'x, y, z'
loop_
 _atom_site_type_symbol
 _atom_site_label
 _atom_site_symmetry_multiplicity
 _atom_site_fract_x
 _atom_site_fract_y
 _atom_site_fract_z
 _atom_site_fract_occupancy
 Au  Au1  1  0.00000  0.00000  0.00000  1
 Au  Au2  1  0.50000  0.00000  0.50000  1
 Au  Au3  1  0.00000  0.50000  0.50000  1
 Mn  Mn1  1  0.50000  0.50000  0.00000  1
 Mn  Mn2  1  0.50000  0.50000  0.30099  1
 Mn  Mn3  1  0.50000  0.50000  0.69901  1
 Mn  Mn4  1  0.00000  0.00000  0.30161  1
 Mn  Mn5  1  0.00000  0.00000  0.69839  1
 Mn  Mn6  1  0.50000  0.00000  0.82414  1
 Mn  Mn7  1  0.00000  0.50000  0.82414  1
 Mn  Mn8  1  0.50000  0.00000  0.17586  1
 Mn  Mn9  1  0.00000  0.50000  0.17586  1
