CIF file written using JARVIS-Tools package.
data_Al5BO9
_symmetry_space_group_name_H-M  'Cmc2_1'
_cell_length_a       8.08398
_cell_length_b       8.08398
_cell_length_c       7.76096
_cell_angle_alpha    90
_cell_angle_beta     90
_cell_angle_gamma    138.502

_symmetry_Int_Tables_number  36
_chemical_formula_structural  Al5BO9
_chemical_formula_sum  Al0B2O8
_cell_volume  336.0575566690617
_cell_formula_units_Z  2
loop_
  _symmetry_equiv_pos_site_id
 _symmetry_equiv_pos_as_xyz
 1  'x, y, z'
loop_
 _atom_site_type_symbol
 _atom_site_label
 _atom_site_symmetry_multiplicity
 _atom_site_fract_x
 _atom_site_fract_y
 _atom_site_fract_z
 _atom_site_fract_occupancy
 Al  Al1  1  0.63251  0.86410  0.66699  1
 Al  Al2  1  0.36749  0.13590  0.16699  1
 Al  Al3  1  0.86410  0.63251  0.16699  1
 Al  Al4  1  0.13590  0.36749  0.66699  1
 Al  Al5  1  0.29706  0.70294  0.33284  1
 Al  Al6  1  0.74473  0.25527  0.48072  1
 Al  Al7  1  0.55614  0.44386  0.48267  1
 Al  Al8  1  0.44386  0.55614  0.98267  1
 Al  Al9  1  0.70294  0.29706  0.83284  1
 Al  Al10  1  0.25527  0.74473  0.98072  1
 B  B1  1  0.98447  0.01553  0.94507  1
 B  B2  1  0.01553  0.98447  0.44507  1
 O  O1  1  0.54546  0.45454  0.09473  1
 O  O2  1  0.66958  0.33042  0.29762  1
 O  O3  1  0.33042  0.66958  0.79762  1
 O  O4  1  0.83781  0.74225  0.38076  1
 O  O5  1  0.44667  0.06719  0.96622  1
 O  O6  1  0.93281  0.55333  0.96622  1
 O  O7  1  0.06719  0.44667  0.46622  1
 O  O8  1  0.55333  0.93281  0.46622  1
 O  O9  1  0.74225  0.83781  0.88076  1
 O  O10  1  0.64815  0.35185  0.62864  1
 O  O11  1  0.35185  0.64815  0.12864  1
 O  O12  1  0.80899  0.19101  0.73134  1
 O  O13  1  0.19101  0.80899  0.23134  1
 O  O14  1  0.45454  0.54546  0.59473  1
 O  O15  1  0.25775  0.16219  0.38076  1
 O  O16  1  0.04603  0.95397  0.07363  1
 O  O17  1  0.95397  0.04603  0.57363  1
 O  O18  1  0.16219  0.25775  0.88076  1
