CIF file written using JARVIS-Tools package.
data_BaZrBi2
_symmetry_space_group_name_H-M  'P4/mmm'
_cell_length_a       6.05251
_cell_length_b       6.05251
_cell_length_c       3.4245
_cell_angle_alpha    90
_cell_angle_beta     90
_cell_angle_gamma    90

_symmetry_Int_Tables_number  123
_chemical_formula_structural  BaZrBi2
_chemical_formula_sum  BaZrBi2
_cell_volume  125.449366080914
_cell_formula_units_Z  1
loop_
  _symmetry_equiv_pos_site_id
 _symmetry_equiv_pos_as_xyz
 1  'x, y, z'
loop_
 _atom_site_type_symbol
 _atom_site_label
 _atom_site_symmetry_multiplicity
 _atom_site_fract_x
 _atom_site_fract_y
 _atom_site_fract_z
 _atom_site_fract_occupancy
 Ba  Ba1  1  0.50000  0.50000  0.50000  1
 Bi  Bi1  1  0.00000  0.50000  0.00000  1
 Bi  Bi2  1  0.50000  0.00000  0.00000  1
 Zr  Zr1  1  0.00000  0.00000  0.50000  1
