CIF file written using JARVIS-Tools package.
data_Na3As
_symmetry_space_group_name_H-M  'P6_3cm'
_cell_length_a       8.77324
_cell_length_b       8.77324
_cell_length_c       8.98845
_cell_angle_alpha    90
_cell_angle_beta     90
_cell_angle_gamma    120

_symmetry_Int_Tables_number  185
_chemical_formula_structural  Na3As
_chemical_formula_sum  Na8As6
_cell_volume  599.1498115610636
_cell_formula_units_Z  6
loop_
  _symmetry_equiv_pos_site_id
 _symmetry_equiv_pos_as_xyz
 1  'x, y, z'
loop_
 _atom_site_type_symbol
 _atom_site_label
 _atom_site_symmetry_multiplicity
 _atom_site_fract_x
 _atom_site_fract_y
 _atom_site_fract_z
 _atom_site_fract_occupancy
 As  As1  1  0.66925  -0.00000  0.24489  1
 As  As2  1  0.33075  0.00000  0.74489  1
 As  As3  1  0.00000  0.33075  0.74489  1
 As  As4  1  0.66925  0.66925  0.74489  1
 As  As5  1  -0.00000  0.66925  0.24489  1
 As  As6  1  0.33075  0.33075  0.24489  1
 Na  Na1  1  0.36104  -0.00000  0.07558  1
 Na  Na2  1  0.00000  0.30145  0.41408  1
 Na  Na3  1  0.30145  0.00000  0.41408  1
 Na  Na4  1  0.30145  0.30145  0.91408  1
 Na  Na5  1  -0.00000  0.69855  0.91408  1
 Na  Na6  1  0.69855  -0.00000  0.91408  1
 Na  Na7  1  0.69855  0.69855  0.41408  1
 Na  Na8  1  0.63896  0.00000  0.57558  1
 Na  Na9  1  0.36104  0.36104  0.57558  1
 Na  Na10  1  0.00000  0.63896  0.57558  1
 Na  Na11  1  0.66667  0.33333  0.76769  1
 Na  Na12  1  0.33333  0.66667  0.26769  1
 Na  Na13  1  0.66667  0.33333  0.26769  1
 Na  Na14  1  0.33333  0.66667  0.76769  1
 Na  Na15  1  0.00000  0.00000  0.70284  1
 Na  Na16  1  0.00000  0.00000  0.20284  1
 Na  Na17  1  -0.00000  0.36104  0.07558  1
 Na  Na18  1  0.63896  0.63896  0.07558  1
