CIF file written using JARVIS-Tools package.
data_SiBr3
_symmetry_space_group_name_H-M  'C2/m'
_cell_length_a       6.58427
_cell_length_b       6.58427
_cell_length_c       7.46136
_cell_angle_alpha    98.9065
_cell_angle_beta     98.9065
_cell_angle_gamma    119.924

_symmetry_Int_Tables_number  12
_chemical_formula_structural  SiBr3
_chemical_formula_sum  Si2Br6
_cell_volume  266.6008083626912
_cell_formula_units_Z  2
loop_
  _symmetry_equiv_pos_site_id
 _symmetry_equiv_pos_as_xyz
 1  'x, y, z'
loop_
 _atom_site_type_symbol
 _atom_site_label
 _atom_site_symmetry_multiplicity
 _atom_site_fract_x
 _atom_site_fract_y
 _atom_site_fract_z
 _atom_site_fract_occupancy
 Br  Br1  1  0.74629  0.74629  0.25091  1
 Br  Br2  1  0.25371  0.25371  0.74909  1
 Br  Br3  1  0.09922  0.41973  0.22907  1
 Br  Br4  1  0.41973  0.09922  0.22907  1
 Br  Br5  1  0.90078  0.58027  0.77093  1
 Br  Br6  1  0.58027  0.90078  0.77093  1
 Si  Si1  1  0.45092  0.45092  0.33487  1
 Si  Si2  1  0.54908  0.54908  0.66513  1
