CIF file written using JARVIS-Tools package.
data_PF5
_symmetry_space_group_name_H-M  'P6_3/mmc'
_cell_length_a       5.47708
_cell_length_b       5.47708
_cell_length_c       6.03774
_cell_angle_alpha    90
_cell_angle_beta     90
_cell_angle_gamma    120

_symmetry_Int_Tables_number  194
_chemical_formula_structural  PF5
_chemical_formula_sum  P2F0
_cell_volume  156.8569873406651
_cell_formula_units_Z  2
loop_
  _symmetry_equiv_pos_site_id
 _symmetry_equiv_pos_as_xyz
 1  'x, y, z'
loop_
 _atom_site_type_symbol
 _atom_site_label
 _atom_site_symmetry_multiplicity
 _atom_site_fract_x
 _atom_site_fract_y
 _atom_site_fract_z
 _atom_site_fract_occupancy
 F  F1  1  0.83067  0.66134  0.75000  1
 F  F2  1  0.16933  0.83067  0.25000  1
 F  F3  1  0.33333  0.66667  0.51712  1
 F  F4  1  0.66667  0.33333  0.01712  1
 F  F5  1  0.66667  0.33333  0.48288  1
 F  F6  1  0.33333  0.66667  0.98288  1
 F  F7  1  0.16933  0.33866  0.25000  1
 F  F8  1  0.83067  0.16933  0.75000  1
 F  F9  1  0.33866  0.16933  0.75000  1
 F  F10  1  0.66134  0.83067  0.25000  1
 P  P1  1  0.66667  0.33333  0.75000  1
 P  P2  1  0.33333  0.66667  0.25000  1
