CIF file written using JARVIS-Tools package.
data_BaIrCl2
_symmetry_space_group_name_H-M  'Pmm2'
_cell_length_a       4.3214
_cell_length_b       4.33756
_cell_length_c       6.07266
_cell_angle_alpha    90
_cell_angle_beta     90
_cell_angle_gamma    90

_symmetry_Int_Tables_number  25
_chemical_formula_structural  BaIrCl2
_chemical_formula_sum  BaIrCl2
_cell_volume  113.82794956513506
_cell_formula_units_Z  1
loop_
  _symmetry_equiv_pos_site_id
 _symmetry_equiv_pos_as_xyz
 1  'x, y, z'
loop_
 _atom_site_type_symbol
 _atom_site_label
 _atom_site_symmetry_multiplicity
 _atom_site_fract_x
 _atom_site_fract_y
 _atom_site_fract_z
 _atom_site_fract_occupancy
 Ba  Ba1  1  0.50000  0.50000  0.77513  1
 Cl  Cl1  1  0.00000  0.00000  0.90904  1
 Cl  Cl2  1  0.50000  0.50000  0.28433  1
 Ir  Ir1  1  0.00000  0.00000  0.53150  1
