CIF file written using JARVIS-Tools package.
data_CaB2H8
_symmetry_space_group_name_H-M  'C2/c'
_cell_length_a       5.67594
_cell_length_b       5.67594
_cell_length_c       7.47465
_cell_angle_alpha    69.5263
_cell_angle_beta     69.5263
_cell_angle_gamma    97.3749

_symmetry_Int_Tables_number  15
_chemical_formula_structural  CaB2H8
_chemical_formula_sum  Ca2B4H6
_cell_volume  202.53821408620027
_cell_formula_units_Z  2
loop_
  _symmetry_equiv_pos_site_id
 _symmetry_equiv_pos_as_xyz
 1  'x, y, z'
loop_
 _atom_site_type_symbol
 _atom_site_label
 _atom_site_symmetry_multiplicity
 _atom_site_fract_x
 _atom_site_fract_y
 _atom_site_fract_z
 _atom_site_fract_occupancy
 B  B1  1  0.85937  0.56448  0.79494  1
 B  B2  1  0.43552  0.14063  0.70506  1
 B  B3  1  0.14063  0.43552  0.20506  1
 B  B4  1  0.56448  0.85937  0.29494  1
 Ca  Ca1  1  0.61467  0.38533  0.25000  1
 Ca  Ca2  1  0.38533  0.61467  0.75000  1
 H  H1  1  0.84418  0.73134  0.64575  1
 H  H2  1  0.26866  0.15582  0.85425  1
 H  H3  1  0.15582  0.26866  0.35425  1
 H  H4  1  0.73134  0.84418  0.14575  1
 H  H5  1  -0.00615  0.55660  0.26922  1
 H  H6  1  0.32156  0.06405  0.61326  1
 H  H7  1  0.93595  0.67844  0.88674  1
 H  H8  1  0.64727  0.39789  0.91792  1
 H  H9  1  0.60211  0.35273  0.58208  1
 H  H10  1  0.06405  0.32156  0.11326  1
 H  H11  1  0.39789  0.64727  0.41792  1
 H  H12  1  0.35273  0.60211  0.08208  1
 H  H13  1  0.00615  0.44340  0.73078  1
 H  H14  1  0.55660  -0.00615  0.76922  1
 H  H15  1  0.67844  0.93595  0.38674  1
 H  H16  1  0.44340  0.00615  0.23078  1
