CIF file written using JARVIS-Tools package.
data_Mn3Ge
_symmetry_space_group_name_H-M  'P6_3/mmc'
_cell_length_a       4.15979
_cell_length_b       5.15297
_cell_length_c       5.15297
_cell_angle_alpha    120.003
_cell_angle_beta     90
_cell_angle_gamma    90

_symmetry_Int_Tables_number  194
_chemical_formula_structural  Mn3Ge
_chemical_formula_sum  Mn6Ge2
_cell_volume  95.65405698517648
_cell_formula_units_Z  2
loop_
  _symmetry_equiv_pos_site_id
 _symmetry_equiv_pos_as_xyz
 1  'x, y, z'
loop_
 _atom_site_type_symbol
 _atom_site_label
 _atom_site_symmetry_multiplicity
 _atom_site_fract_x
 _atom_site_fract_y
 _atom_site_fract_z
 _atom_site_fract_occupancy
 Ge  Ge1  1  0.75000  0.66667  0.33333  1
 Ge  Ge2  1  0.25000  0.33333  0.66667  1
 Mn  Mn1  1  0.75000  0.16036  0.32070  1
 Mn  Mn2  1  0.75000  0.16038  0.83962  1
 Mn  Mn3  1  0.75000  0.67930  0.83964  1
 Mn  Mn4  1  0.25000  0.83964  0.67930  1
 Mn  Mn5  1  0.25000  0.83962  0.16038  1
 Mn  Mn6  1  0.25000  0.32070  0.16036  1
