CIF file written using JARVIS-Tools package.
data_NbSe2
_symmetry_space_group_name_H-M  'Cmce'
_cell_length_a       3.49779
_cell_length_b       3.48886
_cell_length_c       25.651
_cell_angle_alpha    90
_cell_angle_beta     90
_cell_angle_gamma    120.085

_symmetry_Int_Tables_number  64
_chemical_formula_structural  NbSe2
_chemical_formula_sum  Nb4Se8
_cell_volume  270.8565604077425
_cell_formula_units_Z  4
loop_
  _symmetry_equiv_pos_site_id
 _symmetry_equiv_pos_as_xyz
 1  'x, y, z'
loop_
 _atom_site_type_symbol
 _atom_site_label
 _atom_site_symmetry_multiplicity
 _atom_site_fract_x
 _atom_site_fract_y
 _atom_site_fract_z
 _atom_site_fract_occupancy
 Nb  Nb1  1  0.25018  0.00029  0.37663  1
 Nb  Nb2  1  0.24989  -0.00029  0.62337  1
 Nb  Nb3  1  0.74982  -0.00029  0.87663  1
 Nb  Nb4  1  0.75011  0.00029  0.12337  1
 Se  Se1  1  0.08416  0.66841  0.18904  1
 Se  Se2  1  0.41574  0.33159  0.81096  1
 Se  Se3  1  0.91636  0.33269  0.55798  1
 Se  Se4  1  0.41632  0.33269  0.94202  1
 Se  Se5  1  0.58426  0.66841  0.31096  1
 Se  Se6  1  0.08364  0.66731  0.05798  1
 Se  Se7  1  0.91584  0.33159  0.68904  1
 Se  Se8  1  0.58368  0.66731  0.44202  1
