CIF file written using JARVIS-Tools package.
data_TlFeBr3
_symmetry_space_group_name_H-M  'Pnma'
_cell_length_a       3.91933
_cell_length_b       9.25674
_cell_length_c       15.1486
_cell_angle_alpha    90
_cell_angle_beta     90
_cell_angle_gamma    90

_symmetry_Int_Tables_number  62
_chemical_formula_structural  TlFeBr3
_chemical_formula_sum  Tl4Fe4Br2
_cell_volume  549.5935958662494
_cell_formula_units_Z  4
loop_
  _symmetry_equiv_pos_site_id
 _symmetry_equiv_pos_as_xyz
 1  'x, y, z'
loop_
 _atom_site_type_symbol
 _atom_site_label
 _atom_site_symmetry_multiplicity
 _atom_site_fract_x
 _atom_site_fract_y
 _atom_site_fract_z
 _atom_site_fract_occupancy
 Br  Br1  1  0.75000  0.32268  0.99797  1
 Br  Br2  1  0.75000  0.82268  0.50203  1
 Br  Br3  1  0.25000  0.17732  0.49797  1
 Br  Br4  1  0.25000  0.52639  0.60125  1
 Br  Br5  1  0.75000  0.47361  0.39875  1
 Br  Br6  1  0.25000  0.02639  0.89875  1
 Br  Br7  1  0.75000  0.97361  0.10125  1
 Br  Br8  1  0.25000  0.77416  0.29460  1
 Br  Br9  1  0.75000  0.22584  0.70540  1
 Br  Br10  1  0.25000  0.27416  0.20540  1
 Br  Br11  1  0.75000  0.72584  0.79460  1
 Br  Br12  1  0.25000  0.67732  0.00203  1
 Fe  Fe1  1  0.25000  0.65573  0.44530  1
 Fe  Fe2  1  0.75000  0.34427  0.55470  1
 Fe  Fe3  1  0.75000  0.84427  0.94530  1
 Fe  Fe4  1  0.25000  0.15573  0.05470  1
 Tl  Tl1  1  0.25000  0.94004  0.67208  1
 Tl  Tl2  1  0.75000  0.05996  0.32792  1
 Tl  Tl3  1  0.25000  0.44004  0.82792  1
 Tl  Tl4  1  0.75000  0.55996  0.17208  1
