CIF file written using JARVIS-Tools package.
data_TbB2Ru
_symmetry_space_group_name_H-M  'Pnma'
_cell_length_a       5.3288
_cell_length_b       5.92797
_cell_length_c       6.39718
_cell_angle_alpha    90
_cell_angle_beta     90
_cell_angle_gamma    90

_symmetry_Int_Tables_number  62
_chemical_formula_structural  TbB2Ru
_chemical_formula_sum  Tb4B8Ru4
_cell_volume  202.08035927383807
_cell_formula_units_Z  4
loop_
  _symmetry_equiv_pos_site_id
 _symmetry_equiv_pos_as_xyz
 1  'x, y, z'
loop_
 _atom_site_type_symbol
 _atom_site_label
 _atom_site_symmetry_multiplicity
 _atom_site_fract_x
 _atom_site_fract_y
 _atom_site_fract_z
 _atom_site_fract_occupancy
 B  B1  1  0.08577  0.37298  0.46181  1
 B  B2  1  0.91423  0.12702  0.96181  1
 B  B3  1  0.58577  0.62702  0.53819  1
 B  B4  1  0.41423  0.87298  0.03819  1
 B  B5  1  0.91423  0.62702  0.53819  1
 B  B6  1  0.08577  0.87298  0.03819  1
 B  B7  1  0.41423  0.37298  0.46181  1
 B  B8  1  0.58577  0.12702  0.96181  1
 Ru  Ru1  1  0.25000  0.18558  0.18362  1
 Ru  Ru2  1  0.75000  0.31442  0.68362  1
 Ru  Ru3  1  0.75000  0.81442  0.81638  1
 Ru  Ru4  1  0.25000  0.68558  0.31638  1
 Tb  Tb1  1  0.25000  0.00958  0.66102  1
 Tb  Tb2  1  0.75000  0.49042  0.16102  1
 Tb  Tb3  1  0.75000  0.99042  0.33898  1
 Tb  Tb4  1  0.25000  0.50958  0.83898  1
