CIF file written using JARVIS-Tools package.
data_CuI4N4
_symmetry_space_group_name_H-M  'C2/m'
_cell_length_a       8.25914
_cell_length_b       7.81367
_cell_length_c       7.81367
_cell_angle_alpha    40.7745
_cell_angle_beta     43.1407
_cell_angle_gamma    43.1407

_symmetry_Int_Tables_number  12
_chemical_formula_structural  CuI4N4
_chemical_formula_sum  CuI4N4
_cell_volume  206.71927551379517
_cell_formula_units_Z  1
loop_
  _symmetry_equiv_pos_site_id
 _symmetry_equiv_pos_as_xyz
 1  'x, y, z'
loop_
 _atom_site_type_symbol
 _atom_site_label
 _atom_site_symmetry_multiplicity
 _atom_site_fract_x
 _atom_site_fract_y
 _atom_site_fract_z
 _atom_site_fract_occupancy
 Cu  Cu1  1  0.50000  -0.00000  -0.00000  1
 I  I1  1  0.89857  0.24839  0.24839  1
 I  I2  1  0.10143  0.75161  0.75161  1
 I  I3  1  0.72496  0.64738  0.64738  1
 I  I4  1  0.27504  0.35262  0.35262  1
 N  N1  1  0.77826  0.66164  0.12396  1
 N  N2  1  0.77826  0.12396  0.66164  1
 N  N3  1  0.22174  0.33836  0.87604  1
 N  N4  1  0.22174  0.87604  0.33836  1
