CIF file written using JARVIS-Tools package.
data_TlFeSe2
_symmetry_space_group_name_H-M  'C2/m'
_cell_length_a       5.28086
_cell_length_b       6.52693
_cell_length_c       7.01222
_cell_angle_alpha    115.204
_cell_angle_beta     90
_cell_angle_gamma    113.862

_symmetry_Int_Tables_number  12
_chemical_formula_structural  TlFeSe2
_chemical_formula_sum  Tl2Fe2Se4
_cell_volume  195.61017183301834
_cell_formula_units_Z  2
loop_
  _symmetry_equiv_pos_site_id
 _symmetry_equiv_pos_as_xyz
 1  'x, y, z'
loop_
 _atom_site_type_symbol
 _atom_site_label
 _atom_site_symmetry_multiplicity
 _atom_site_fract_x
 _atom_site_fract_y
 _atom_site_fract_z
 _atom_site_fract_occupancy
 Fe  Fe1  1  0.75102  0.00000  0.00000  1
 Fe  Fe2  1  0.24898  -0.00000  -0.00000  1
 Se  Se1  1  0.53576  0.07153  0.28500  1
 Se  Se2  1  0.46424  0.92847  0.71500  1
 Se  Se3  1  0.16989  0.33978  0.07664  1
 Se  Se4  1  0.83011  0.66022  0.92336  1
 Tl  Tl1  1  0.17761  0.35522  0.62413  1
 Tl  Tl2  1  0.82239  0.64478  0.37587  1
