CIF file written using JARVIS-Tools package.
data_Eu3As4
_symmetry_space_group_name_H-M  'Cc'
_cell_length_a       5.48782
_cell_length_b       7.9851
_cell_length_c       8.66158
_cell_angle_alpha    83.7361
_cell_angle_beta     71.4927
_cell_angle_gamma    69.9012

_symmetry_Int_Tables_number  9
_chemical_formula_structural  Eu3As4
_chemical_formula_sum  Eu6As8
_cell_volume  338.0089771047218
_cell_formula_units_Z  2
loop_
  _symmetry_equiv_pos_site_id
 _symmetry_equiv_pos_as_xyz
 1  'x, y, z'
loop_
 _atom_site_type_symbol
 _atom_site_label
 _atom_site_symmetry_multiplicity
 _atom_site_fract_x
 _atom_site_fract_y
 _atom_site_fract_z
 _atom_site_fract_occupancy
 As  As1  1  0.58796  0.78125  0.95803  1
 As  As2  1  0.74336  0.30980  0.81812  1
 As  As3  1  0.11827  0.72071  0.45806  1
 As  As4  1  0.87158  0.69225  0.18126  1
 As  As5  1  0.80215  0.19219  0.31812  1
 As  As6  1  0.29507  0.27999  0.54219  1
 As  As7  1  0.32412  0.22198  0.04216  1
 As  As8  1  0.31281  0.80974  0.68126  1
 Eu  Eu1  1  0.45545  0.49667  0.16681  1
 Eu  Eu2  1  0.11781  0.50556  0.83217  1
 Eu  Eu3  1  0.37241  0.99643  0.33217  1
 Eu  Eu4  1  0.70114  0.00533  0.66682  1
 Eu  Eu5  1  0.00073  0.00098  -0.00048  1
 Eu  Eu6  1  0.75070  0.50101  0.49951  1
