CIF file written using JARVIS-Tools package.
data_NdCr2B6
_symmetry_space_group_name_H-M  'Immm'
_cell_length_a       3.11387
_cell_length_b       5.5346
_cell_length_c       5.5346
_cell_angle_alpha    73.137
_cell_angle_beta     73.6617
_cell_angle_gamma    73.6617

_symmetry_Int_Tables_number  71
_chemical_formula_structural  NdCr2B6
_chemical_formula_sum  NdCr2B6
_cell_volume  85.49954459603343
_cell_formula_units_Z  1
loop_
  _symmetry_equiv_pos_site_id
 _symmetry_equiv_pos_as_xyz
 1  'x, y, z'
loop_
 _atom_site_type_symbol
 _atom_site_label
 _atom_site_symmetry_multiplicity
 _atom_site_fract_x
 _atom_site_fract_y
 _atom_site_fract_z
 _atom_site_fract_occupancy
 B  B1  1  0.50000  0.13775  0.86225  1
 B  B2  1  0.50000  0.86225  0.13775  1
 B  B3  1  0.69764  0.03752  0.56721  1
 B  B4  1  0.30236  0.43279  0.96248  1
 B  B5  1  0.69764  0.56721  0.03752  1
 B  B6  1  0.30236  0.96248  0.43279  1
 Cr  Cr1  1  0.84541  0.15459  0.15459  1
 Cr  Cr2  1  0.15459  0.84541  0.84541  1
 Nd  Nd1  1  -0.00000  0.50000  0.50000  1
