CIF file written using JARVIS-Tools package.
data_MnSnO3
_symmetry_space_group_name_H-M  'R3c'
_cell_length_a       5.68114
_cell_length_b       5.68114
_cell_length_c       5.68114
_cell_angle_alpha    57.085
_cell_angle_beta     57.085
_cell_angle_gamma    57.0849

_symmetry_Int_Tables_number  161
_chemical_formula_structural  MnSnO3
_chemical_formula_sum  Mn2Sn2O6
_cell_volume  120.94422829838516
_cell_formula_units_Z  2
loop_
  _symmetry_equiv_pos_site_id
 _symmetry_equiv_pos_as_xyz
 1  'x, y, z'
loop_
 _atom_site_type_symbol
 _atom_site_label
 _atom_site_symmetry_multiplicity
 _atom_site_fract_x
 _atom_site_fract_y
 _atom_site_fract_z
 _atom_site_fract_occupancy
 Mn  Mn1  1  0.36575  0.36575  0.36575  1
 Mn  Mn2  1  0.86575  0.86575  0.86575  1
 O  O1  1  0.03659  0.76359  0.43710  1
 O  O2  1  0.43710  0.03659  0.76359  1
 O  O3  1  0.76359  0.43710  0.03659  1
 O  O4  1  0.26359  0.53659  0.93710  1
 O  O5  1  0.53659  0.93710  0.26359  1
 O  O6  1  0.93710  0.26359  0.53659  1
 Sn  Sn1  1  0.14697  0.14697  0.14697  1
 Sn  Sn2  1  0.64697  0.64697  0.64697  1
