CIF file written using JARVIS-Tools package.
data_TiTlPS5
_symmetry_space_group_name_H-M  'P-1'
_cell_length_a       6.29743
_cell_length_b       7.08319
_cell_length_c       9.1091
_cell_angle_alpha    106.586
_cell_angle_beta     97.5552
_cell_angle_gamma    91.6594

_symmetry_Int_Tables_number  2
_chemical_formula_structural  TiTlPS5
_chemical_formula_sum  Ti2Tl2P2S0
_cell_volume  385.0868636161246
_cell_formula_units_Z  2
loop_
  _symmetry_equiv_pos_site_id
 _symmetry_equiv_pos_as_xyz
 1  'x, y, z'
loop_
 _atom_site_type_symbol
 _atom_site_label
 _atom_site_symmetry_multiplicity
 _atom_site_fract_x
 _atom_site_fract_y
 _atom_site_fract_z
 _atom_site_fract_occupancy
 P  P1  1  0.27729  0.89544  0.72909  1
 P  P2  1  0.72271  0.10456  0.27091  1
 S  S1  1  0.15597  0.69260  0.82639  1
 S  S2  1  0.33240  0.54373  0.13252  1
 S  S3  1  0.39710  0.06171  0.17528  1
 S  S4  1  0.60290  0.93829  0.82472  1
 S  S5  1  0.15928  0.16387  0.83131  1
 S  S6  1  0.77279  0.18806  0.50179  1
 S  S7  1  0.66760  0.45627  0.86748  1
 S  S8  1  0.22721  0.81194  0.49821  1
 S  S9  1  0.84072  0.83613  0.16869  1
 S  S10  1  0.84403  0.30740  0.17361  1
 Ti  Ti1  1  0.50234  0.27692  0.00082  1
 Ti  Ti2  1  0.49766  0.72308  0.99918  1
 Tl  Tl1  1  0.72528  0.68506  0.45093  1
 Tl  Tl2  1  0.27472  0.31494  0.54907  1
