CIF file written using JARVIS-Tools package.
data_ErAsPt
_symmetry_space_group_name_H-M  'P6_3/mmc'
_cell_length_a       4.29168
_cell_length_b       4.29168
_cell_length_c       14.9991
_cell_angle_alpha    90
_cell_angle_beta     90
_cell_angle_gamma    120

_symmetry_Int_Tables_number  194
_chemical_formula_structural  ErAsPt
_chemical_formula_sum  Er4As4Pt4
_cell_volume  239.24884540259933
_cell_formula_units_Z  4
loop_
  _symmetry_equiv_pos_site_id
 _symmetry_equiv_pos_as_xyz
 1  'x, y, z'
loop_
 _atom_site_type_symbol
 _atom_site_label
 _atom_site_symmetry_multiplicity
 _atom_site_fract_x
 _atom_site_fract_y
 _atom_site_fract_z
 _atom_site_fract_occupancy
 As  As1  1  0.66667  0.33333  0.61359  1
 As  As2  1  0.33333  0.66667  0.11359  1
 As  As3  1  0.33333  0.66667  0.38641  1
 As  As4  1  0.66667  0.33333  0.88641  1
 Er  Er1  1  0.00000  0.00000  0.00000  1
 Er  Er2  1  0.00000  0.00000  0.50000  1
 Er  Er3  1  0.00000  0.00000  0.25000  1
 Er  Er4  1  0.00000  0.00000  0.75000  1
 Pt  Pt1  1  0.66667  0.33333  0.13853  1
 Pt  Pt2  1  0.33333  0.66667  0.63853  1
 Pt  Pt3  1  0.33333  0.66667  0.86147  1
 Pt  Pt4  1  0.66667  0.33333  0.36147  1
