CIF file written using JARVIS-Tools package.
data_Rb6Si10O23
_symmetry_space_group_name_H-M  'Amm2'
_cell_length_a       8.07586
_cell_length_b       9.383
_cell_length_c       9.44233
_cell_angle_alpha    119.792
_cell_angle_beta     90
_cell_angle_gamma    90

_symmetry_Int_Tables_number  38
_chemical_formula_structural  Rb6Si10O23
_chemical_formula_sum  Rb6Si0O23
_cell_volume  620.9334209215666
_cell_formula_units_Z  1
loop_
  _symmetry_equiv_pos_site_id
 _symmetry_equiv_pos_as_xyz
 1  'x, y, z'
loop_
 _atom_site_type_symbol
 _atom_site_label
 _atom_site_symmetry_multiplicity
 _atom_site_fract_x
 _atom_site_fract_y
 _atom_site_fract_z
 _atom_site_fract_occupancy
 O  O1  1  0.18667  0.15212  0.56979  1
 O  O2  1  0.81333  0.58233  0.43021  1
 O  O3  1  0.81333  0.15212  0.56979  1
 O  O4  1  0.18667  0.58233  0.43021  1
 O  O5  1  0.30252  0.85542  0.43338  1
 O  O6  1  0.69748  0.42204  0.56662  1
 O  O7  1  0.69748  0.85542  0.43338  1
 O  O8  1  0.30252  0.42204  0.56662  1
 O  O9  1  0.00000  0.53415  0.62919  1
 O  O10  1  0.00000  0.90496  0.37081  1
 O  O11  1  0.74982  0.99713  0.23963  1
 O  O12  1  0.25018  0.75751  0.76037  1
 O  O13  1  0.27297  0.57677  0.15421  1
 O  O14  1  0.72703  0.42256  0.84579  1
 O  O15  1  0.72703  0.57677  0.15421  1
 O  O16  1  0.27297  0.42256  0.84579  1
 O  O17  1  0.00000  0.43315  0.00000  1
 O  O18  1  0.25018  0.99713  0.23963  1
 O  O19  1  0.74982  0.75751  0.76037  1
 O  O20  1  0.50000  0.23244  0.62570  1
 O  O21  1  0.75144  0.23739  -0.00000  1
 O  O22  1  0.50000  0.60674  0.37430  1
 O  O23  1  0.24856  0.23739  -0.00000  1
 Rb  Rb1  1  0.50000  0.99023  0.76329  1
 Rb  Rb2  1  0.50000  0.22694  0.23671  1
 Rb  Rb3  1  0.50000  0.74926  -0.00000  1
 Rb  Rb4  1  0.00000  0.24328  0.24349  1
 Rb  Rb5  1  0.00000  -0.00021  0.75651  1
 Rb  Rb6  1  0.00000  0.75760  -0.00000  1
 Si  Si1  1  0.19093  0.97852  0.38953  1
 Si  Si2  1  0.79902  0.40122  0.00000  1
 Si  Si3  1  0.20098  0.40122  0.00000  1
 Si  Si4  1  0.31194  0.30828  0.65223  1
 Si  Si5  1  0.68806  0.65605  0.34777  1
 Si  Si6  1  0.68806  0.30828  0.65223  1
 Si  Si7  1  0.31194  0.65605  0.34777  1
 Si  Si8  1  0.80907  0.58898  0.61047  1
 Si  Si9  1  0.80907  0.97852  0.38953  1
 Si  Si10  1  0.19093  0.58898  0.61047  1
