CIF file written using JARVIS-Tools package.
data_TmTe3
_symmetry_space_group_name_H-M  'Cmcm'
_cell_length_a       4.01231
_cell_length_b       4.57976
_cell_length_c       14.0007
_cell_angle_alpha    90
_cell_angle_beta     98.2383
_cell_angle_gamma    90

_symmetry_Int_Tables_number  63
_chemical_formula_structural  TmTe3
_chemical_formula_sum  Tm2Te6
_cell_volume  254.61352904588216
_cell_formula_units_Z  2
loop_
  _symmetry_equiv_pos_site_id
 _symmetry_equiv_pos_as_xyz
 1  'x, y, z'
loop_
 _atom_site_type_symbol
 _atom_site_label
 _atom_site_symmetry_multiplicity
 _atom_site_fract_x
 _atom_site_fract_y
 _atom_site_fract_z
 _atom_site_fract_occupancy
 Te  Te1  1  0.83656  0.25000  0.67313  1
 Te  Te2  1  0.16344  0.75000  0.32687  1
 Te  Te3  1  0.68724  0.25000  0.37447  1
 Te  Te4  1  0.31276  0.75000  0.62553  1
 Te  Te5  1  0.55260  0.25000  0.10521  1
 Te  Te6  1  0.44740  0.75000  0.89479  1
 Tm  Tm1  1  0.94938  0.25000  0.89877  1
 Tm  Tm2  1  0.05062  0.75000  0.10123  1
