CIF file written using JARVIS-Tools package.
data_HgC2Se2N2
_symmetry_space_group_name_H-M  'P1'
_cell_length_a       4.24941
_cell_length_b       6.16945
_cell_length_c       11.5423
_cell_angle_alpha    92.1435
_cell_angle_beta     90.0014
_cell_angle_gamma    89.9991

_symmetry_Int_Tables_number  1
_chemical_formula_structural  HgC2Se2N2
_chemical_formula_sum  Hg2C4Se4N4
_cell_volume  302.3870029056319
_cell_formula_units_Z  2
loop_
  _symmetry_equiv_pos_site_id
 _symmetry_equiv_pos_as_xyz
 1  'x, y, z'
loop_
 _atom_site_type_symbol
 _atom_site_label
 _atom_site_symmetry_multiplicity
 _atom_site_fract_x
 _atom_site_fract_y
 _atom_site_fract_z
 _atom_site_fract_occupancy
 C  C1  1  0.21467  0.44907  0.62849  1
 C  C2  1  0.78533  0.55093  0.37151  1
 C  C3  1  0.64472  0.83725  0.84300  1
 C  C4  1  0.85529  0.83726  0.34299  1
 Hg  Hg1  1  0.50000  -0.00000  0.50000  1
 Hg  Hg2  1  0.00000  0.00000  0.00000  1
 N  N1  1  0.74994  0.36471  0.88315  1
 N  N2  1  0.25006  0.63529  0.11685  1
 N  N3  1  0.75006  0.36472  0.38315  1
 N  N4  1  0.24994  0.63528  0.61685  1
 Se  Se1  1  0.35528  0.16275  0.15700  1
 Se  Se2  1  0.14471  0.16274  0.65701  1
 Se  Se3  1  0.28533  0.44909  0.12849  1
 Se  Se4  1  0.71467  0.55091  0.87151  1
