CIF file written using JARVIS-Tools package.
data_NaZn4As3
_symmetry_space_group_name_H-M  'R-3m'
_cell_length_a       11.2714
_cell_length_b       11.2714
_cell_length_c       11.2714
_cell_angle_alpha    21.3976
_cell_angle_beta     21.3976
_cell_angle_gamma    21.3976

_symmetry_Int_Tables_number  166
_chemical_formula_structural  NaZn4As3
_chemical_formula_sum  NaZn4As3
_cell_volume  166.98418612030622
_cell_formula_units_Z  1
loop_
  _symmetry_equiv_pos_site_id
 _symmetry_equiv_pos_as_xyz
 1  'x, y, z'
loop_
 _atom_site_type_symbol
 _atom_site_label
 _atom_site_symmetry_multiplicity
 _atom_site_fract_x
 _atom_site_fract_y
 _atom_site_fract_z
 _atom_site_fract_occupancy
 As  As1  1  0.77495  0.77495  0.77495  1
 As  As2  1  0.22505  0.22505  0.22505  1
 As  As3  1  0.00000  0.00000  0.00000  1
 Na  Na1  1  0.50000  0.50000  0.50000  1
 Zn  Zn1  1  0.90760  0.90760  0.90760  1
 Zn  Zn2  1  0.09240  0.09240  0.09240  1
 Zn  Zn3  1  0.69971  0.69971  0.69971  1
 Zn  Zn4  1  0.30029  0.30029  0.30029  1
