CIF file written using JARVIS-Tools package.
data_TbP12Ru4
_symmetry_space_group_name_H-M  'Im-3'
_cell_length_a       7.03055
_cell_length_b       7.03055
_cell_length_c       7.03055
_cell_angle_alpha    109.471
_cell_angle_beta     109.471
_cell_angle_gamma    109.471

_symmetry_Int_Tables_number  204
_chemical_formula_structural  TbP12Ru4
_chemical_formula_sum  TbP2Ru4
_cell_volume  267.51424417890576
_cell_formula_units_Z  1
loop_
  _symmetry_equiv_pos_site_id
 _symmetry_equiv_pos_as_xyz
 1  'x, y, z'
loop_
 _atom_site_type_symbol
 _atom_site_label
 _atom_site_symmetry_multiplicity
 _atom_site_fract_x
 _atom_site_fract_y
 _atom_site_fract_z
 _atom_site_fract_occupancy
 P  P1  1  0.14281  0.35620  0.49901  1
 P  P2  1  0.64380  0.50099  0.85719  1
 P  P3  1  0.85719  0.35620  0.21338  1
 P  P4  1  0.64380  0.78662  0.14281  1
 P  P5  1  0.35620  0.21338  0.85719  1
 P  P6  1  0.14281  0.64380  0.78662  1
 P  P7  1  0.50099  0.85719  0.64380  1
 P  P8  1  0.35620  0.49901  0.14281  1
 P  P9  1  0.78662  0.14281  0.64380  1
 P  P10  1  0.21338  0.85719  0.35620  1
 P  P11  1  0.49901  0.14281  0.35620  1
 P  P12  1  0.85719  0.64380  0.50099  1
 Ru  Ru1  1  0.50000  0.00000  0.00000  1
 Ru  Ru2  1  -0.00000  0.50000  -0.00000  1
 Ru  Ru3  1  0.00000  0.00000  0.50000  1
 Ru  Ru4  1  0.50000  0.50000  0.50000  1
 Tb  Tb1  1  0.00000  0.00000  0.00000  1
