CIF file written using JARVIS-Tools package.
data_Sr5Sn2As6
_symmetry_space_group_name_H-M  'Pbam'
_cell_length_a       4.29555
_cell_length_b       12.5585
_cell_length_c       14.1196
_cell_angle_alpha    90
_cell_angle_beta     90
_cell_angle_gamma    90

_symmetry_Int_Tables_number  55
_chemical_formula_structural  Sr5Sn2As6
_chemical_formula_sum  Sr0Sn4As2
_cell_volume  761.6915494405007
_cell_formula_units_Z  2
loop_
  _symmetry_equiv_pos_site_id
 _symmetry_equiv_pos_as_xyz
 1  'x, y, z'
loop_
 _atom_site_type_symbol
 _atom_site_label
 _atom_site_symmetry_multiplicity
 _atom_site_fract_x
 _atom_site_fract_y
 _atom_site_fract_z
 _atom_site_fract_occupancy
 As  As1  1  0.00000  0.87074  0.80180  1
 As  As2  1  0.00000  0.37074  0.69820  1
 As  As3  1  0.50000  0.66856  0.57986  1
 As  As4  1  0.50000  0.33144  0.42014  1
 As  As5  1  0.50000  0.83144  0.07986  1
 As  As6  1  0.50000  0.16856  0.92014  1
 As  As7  1  0.50000  0.57566  0.90084  1
 As  As8  1  0.50000  0.42434  0.09916  1
 As  As9  1  0.50000  0.92434  0.40084  1
 As  As10  1  0.50000  0.07566  0.59916  1
 As  As11  1  0.00000  0.12926  0.19820  1
 As  As12  1  0.00000  0.62926  0.30180  1
 Sn  Sn1  1  0.50000  0.71281  0.39488  1
 Sn  Sn2  1  0.50000  0.28719  0.60512  1
 Sn  Sn3  1  0.50000  0.78719  0.89488  1
 Sn  Sn4  1  0.50000  0.21281  0.10512  1
 Sr  Sr1  1  0.00000  0.50000  0.50000  1
 Sr  Sr2  1  0.00000  0.00000  0.00000  1
 Sr  Sr3  1  0.00000  0.86800  0.56860  1
 Sr  Sr4  1  0.00000  0.13200  0.43140  1
 Sr  Sr5  1  0.00000  0.63200  0.06860  1
 Sr  Sr6  1  0.00000  0.36800  0.93140  1
 Sr  Sr7  1  0.00000  0.62160  0.74429  1
 Sr  Sr8  1  0.00000  0.37840  0.25571  1
 Sr  Sr9  1  0.00000  0.87840  0.24429  1
 Sr  Sr10  1  0.00000  0.12160  0.75571  1
