CIF file written using JARVIS-Tools package.
data_PrPOsO
_symmetry_space_group_name_H-M  'P4/nmm'
_cell_length_a       4.07923
_cell_length_b       4.07923
_cell_length_c       8.31238
_cell_angle_alpha    90
_cell_angle_beta     90
_cell_angle_gamma    90

_symmetry_Int_Tables_number  129
_chemical_formula_structural  PrPOsO
_chemical_formula_sum  Pr2P2Os2O2
_cell_volume  138.3192523099092
_cell_formula_units_Z  2
loop_
  _symmetry_equiv_pos_site_id
 _symmetry_equiv_pos_as_xyz
 1  'x, y, z'
loop_
 _atom_site_type_symbol
 _atom_site_label
 _atom_site_symmetry_multiplicity
 _atom_site_fract_x
 _atom_site_fract_y
 _atom_site_fract_z
 _atom_site_fract_occupancy
 O  O1  1  0.75000  0.25000  0.00000  1
 O  O2  1  0.25000  0.75000  0.00000  1
 Os  Os1  1  0.75000  0.25000  0.50000  1
 Os  Os2  1  0.25000  0.75000  0.50000  1
 P  P1  1  0.75000  0.75000  0.35469  1
 P  P2  1  0.25000  0.25000  0.64531  1
 Pr  Pr1  1  0.75000  0.75000  0.85610  1
 Pr  Pr2  1  0.25000  0.25000  0.14390  1
