CIF file written using JARVIS-Tools package.
data_KEuCu2Te4
_symmetry_space_group_name_H-M  'P4mm'
_cell_length_a       4.50429
_cell_length_b       4.50429
_cell_length_c       10.7011
_cell_angle_alpha    90
_cell_angle_beta     90
_cell_angle_gamma    90

_symmetry_Int_Tables_number  99
_chemical_formula_structural  KEuCu2Te4
_chemical_formula_sum  KEuCu2Te4
_cell_volume  217.1093729570818
_cell_formula_units_Z  1
loop_
  _symmetry_equiv_pos_site_id
 _symmetry_equiv_pos_as_xyz
 1  'x, y, z'
loop_
 _atom_site_type_symbol
 _atom_site_label
 _atom_site_symmetry_multiplicity
 _atom_site_fract_x
 _atom_site_fract_y
 _atom_site_fract_z
 _atom_site_fract_occupancy
 Cu  Cu1  1  0.00000  0.50000  0.23597  1
 Cu  Cu2  1  0.50000  0.00000  0.23597  1
 Eu  Eu1  1  0.00000  0.00000  0.98541  1
 K  K1  1  0.50000  0.50000  0.51307  1
 Te  Te1  1  0.00000  0.00000  0.36925  1
 Te  Te2  1  0.00000  0.50000  0.77645  1
 Te  Te3  1  0.50000  0.50000  0.08464  1
 Te  Te4  1  0.50000  0.00000  0.77645  1
