CIF file written using JARVIS-Tools package.
data_DyAu3
_symmetry_space_group_name_H-M  'Pmmn'
_cell_length_a       5.02233
_cell_length_b       5.12404
_cell_length_c       6.22591
_cell_angle_alpha    90
_cell_angle_beta     90
_cell_angle_gamma    90

_symmetry_Int_Tables_number  59
_chemical_formula_structural  DyAu3
_chemical_formula_sum  Dy2Au6
_cell_volume  160.22130614661157
_cell_formula_units_Z  2
loop_
  _symmetry_equiv_pos_site_id
 _symmetry_equiv_pos_as_xyz
 1  'x, y, z'
loop_
 _atom_site_type_symbol
 _atom_site_label
 _atom_site_symmetry_multiplicity
 _atom_site_fract_x
 _atom_site_fract_y
 _atom_site_fract_z
 _atom_site_fract_occupancy
 Au  Au1  1  0.75000  0.83627  0.00630  1
 Au  Au2  1  0.75000  0.83627  0.49370  1
 Au  Au3  1  0.25000  0.16373  0.99370  1
 Au  Au4  1  0.25000  0.16373  0.50630  1
 Au  Au5  1  0.25000  0.66719  0.75000  1
 Au  Au6  1  0.75000  0.33281  0.25000  1
 Dy  Dy1  1  0.75000  0.34138  0.75000  1
 Dy  Dy2  1  0.25000  0.65862  0.25000  1
