CIF file written using JARVIS-Tools package.
data_O
_symmetry_space_group_name_H-M  'C2/m'
_cell_length_a       4.1555
_cell_length_b       6.25725
_cell_length_c       6.25725
_cell_angle_alpha    114.779
_cell_angle_beta     102.287
_cell_angle_gamma    102.287

_symmetry_Int_Tables_number  12
_chemical_formula_structural  O
_chemical_formula_sum  O8
_cell_volume  135.7165479652421
_cell_formula_units_Z  8
loop_
  _symmetry_equiv_pos_site_id
 _symmetry_equiv_pos_as_xyz
 1  'x, y, z'
loop_
 _atom_site_type_symbol
 _atom_site_label
 _atom_site_symmetry_multiplicity
 _atom_site_fract_x
 _atom_site_fract_y
 _atom_site_fract_z
 _atom_site_fract_occupancy
 O  O1  1  0.39648  0.69888  -0.05101  1
 O  O2  1  0.10352  0.05101  0.30112  1
 O  O3  1  0.60352  0.30112  0.05101  1
 O  O4  1  0.89648  -0.05101  0.69888  1
 O  O5  1  0.10343  0.55124  0.80108  1
 O  O6  1  0.39657  0.19892  0.44876  1
 O  O7  1  0.89657  0.44876  0.19892  1
 O  O8  1  0.60343  0.80108  0.55124  1
