CIF file written using JARVIS-Tools package.
data_H3W
_symmetry_space_group_name_H-M  'P2_1/m'
_cell_length_a       3.0662
_cell_length_b       3.09078
_cell_length_c       6.55471
_cell_angle_alpha    102.717
_cell_angle_beta     90
_cell_angle_gamma    90

_symmetry_Int_Tables_number  11
_chemical_formula_structural  H3W
_chemical_formula_sum  H6W2
_cell_volume  60.59488313679907
_cell_formula_units_Z  2
loop_
  _symmetry_equiv_pos_site_id
 _symmetry_equiv_pos_as_xyz
 1  'x, y, z'
loop_
 _atom_site_type_symbol
 _atom_site_label
 _atom_site_symmetry_multiplicity
 _atom_site_fract_x
 _atom_site_fract_y
 _atom_site_fract_z
 _atom_site_fract_occupancy
 H  H1  1  0.25000  0.53207  0.17692  1
 H  H2  1  0.75000  0.46793  0.82308  1
 H  H3  1  0.25000  0.91337  0.82050  1
 H  H4  1  0.75000  0.08663  0.17950  1
 H  H5  1  0.75000  0.94553  0.63156  1
 H  H6  1  0.25000  0.05447  0.36844  1
 W  W1  1  0.75000  0.66444  0.35899  1
 W  W2  1  0.25000  0.33556  0.64101  1
