CIF file written using JARVIS-Tools package.
data_Zn3BPO7
_symmetry_space_group_name_H-M  'Cm'
_cell_length_a       8.09539
_cell_length_b       8.09539
_cell_length_c       4.94054
_cell_angle_alpha    72.4482
_cell_angle_beta     72.4482
_cell_angle_gamma    105.524

_symmetry_Int_Tables_number  8
_chemical_formula_structural  Zn3BPO7
_chemical_formula_sum  Zn6B2P2O4
_cell_volume  270.4683046339549
_cell_formula_units_Z  2
loop_
  _symmetry_equiv_pos_site_id
 _symmetry_equiv_pos_as_xyz
 1  'x, y, z'
loop_
 _atom_site_type_symbol
 _atom_site_label
 _atom_site_symmetry_multiplicity
 _atom_site_fract_x
 _atom_site_fract_y
 _atom_site_fract_z
 _atom_site_fract_occupancy
 B  B1  1  0.51768  0.94246  0.89882  1
 B  B2  1  0.94246  0.51768  0.89882  1
 O  O1  1  0.39662  0.80663  0.19825  1
 O  O2  1  0.48573  0.92425  0.64574  1
 O  O3  1  0.92425  0.48573  0.64574  1
 O  O4  1  0.39736  0.19725  0.26733  1
 O  O5  1  0.09876  0.66395  0.85354  1
 O  O6  1  0.75958  0.75958  0.27886  1
 O  O7  1  0.02103  0.02103  0.77854  1
 O  O8  1  0.54108  0.54108  0.90110  1
 O  O9  1  0.89177  0.09029  0.24042  1
 O  O10  1  0.66395  0.09876  0.85354  1
 O  O11  1  0.19725  0.39736  0.26733  1
 O  O12  1  0.44095  0.44095  0.49035  1
 O  O13  1  0.09029  0.89177  0.24042  1
 O  O14  1  0.80663  0.39662  0.19825  1
 P  P1  1  0.94002  0.94002  0.14134  1
 P  P2  1  0.39371  0.39371  0.23309  1
 Zn  Zn1  1  0.93320  0.20419  0.53729  1
 Zn  Zn2  1  0.15013  0.64787  0.22952  1
 Zn  Zn3  1  0.64787  0.15013  0.22952  1
 Zn  Zn4  1  0.47996  0.69840  0.53846  1
 Zn  Zn5  1  0.69840  0.47996  0.53846  1
 Zn  Zn6  1  0.20419  0.93320  0.53729  1
