CIF file written using JARVIS-Tools package.
data_BAsO4
_symmetry_space_group_name_H-M  'P3_121'
_cell_length_a       4.57658
_cell_length_b       4.57642
_cell_length_c       10.4726
_cell_angle_alpha    90
_cell_angle_beta     90.0021
_cell_angle_gamma    60.0013

_symmetry_Int_Tables_number  152
_chemical_formula_structural  BAsO4
_chemical_formula_sum  B3As3O2
_cell_volume  189.95878881072437
_cell_formula_units_Z  3
loop_
  _symmetry_equiv_pos_site_id
 _symmetry_equiv_pos_as_xyz
 1  'x, y, z'
loop_
 _atom_site_type_symbol
 _atom_site_label
 _atom_site_symmetry_multiplicity
 _atom_site_fract_x
 _atom_site_fract_y
 _atom_site_fract_z
 _atom_site_fract_occupancy
 As  As1  1  0.54506  0.00003  0.83332  1
 As  As2  1  0.45493  0.54509  0.16666  1
 As  As3  1  0.00000  0.45488  0.49999  1
 B  B1  1  0.54180  0.00002  0.33333  1
 B  B2  1  0.45821  0.54181  0.66665  1
 B  B3  1  1.00000  0.45817  -0.00001  1
 O  O1  1  0.87814  0.72052  0.37020  1
 O  O2  1  0.40139  0.87818  0.70350  1
 O  O3  1  0.60710  0.31580  0.77809  1
 O  O4  1  0.12187  0.59866  0.62978  1
 O  O5  1  0.72051  0.40130  0.03686  1
 O  O6  1  0.39290  0.92289  0.22190  1
 O  O7  1  0.92284  0.68430  0.88859  1
 O  O8  1  0.59862  0.27956  0.29648  1
 O  O9  1  0.68432  0.39276  0.55527  1
 O  O10  1  0.07715  0.60713  0.11140  1
 O  O11  1  0.27947  0.12182  0.96312  1
 O  O12  1  0.31568  0.07709  0.44472  1
