CIF file written using JARVIS-Tools package.
data_TbGa2Ni
_symmetry_space_group_name_H-M  'Cmcm'
_cell_length_a       4.14485
_cell_length_b       5.4591
_cell_length_c       6.6214
_cell_angle_alpha    90
_cell_angle_beta     90
_cell_angle_gamma    112.311

_symmetry_Int_Tables_number  63
_chemical_formula_structural  TbGa2Ni
_chemical_formula_sum  Tb2Ga4Ni2
_cell_volume  138.60747870083753
_cell_formula_units_Z  2
loop_
  _symmetry_equiv_pos_site_id
 _symmetry_equiv_pos_as_xyz
 1  'x, y, z'
loop_
 _atom_site_type_symbol
 _atom_site_label
 _atom_site_symmetry_multiplicity
 _atom_site_fract_x
 _atom_site_fract_y
 _atom_site_fract_z
 _atom_site_fract_occupancy
 Ga  Ga1  1  0.14234  0.28469  0.44625  1
 Ga  Ga2  1  0.85766  0.71531  0.55375  1
 Ga  Ga3  1  0.14234  0.28469  0.05375  1
 Ga  Ga4  1  0.85766  0.71531  0.94625  1
 Ni  Ni1  1  0.70904  0.41808  0.25000  1
 Ni  Ni2  1  0.29096  0.58192  0.75000  1
 Tb  Tb1  1  0.42668  0.85335  0.25000  1
 Tb  Tb2  1  0.57332  0.14665  0.75000  1
