CIF file written using JARVIS-Tools package.
data_RbC2I3N2
_symmetry_space_group_name_H-M  'Pmmn'
_cell_length_a       4.33547
_cell_length_b       6.70074
_cell_length_c       16.1169
_cell_angle_alpha    90
_cell_angle_beta     90
_cell_angle_gamma    90

_symmetry_Int_Tables_number  59
_chemical_formula_structural  RbC2I3N2
_chemical_formula_sum  Rb2C4I6N4
_cell_volume  468.20995206685467
_cell_formula_units_Z  2
loop_
  _symmetry_equiv_pos_site_id
 _symmetry_equiv_pos_as_xyz
 1  'x, y, z'
loop_
 _atom_site_type_symbol
 _atom_site_label
 _atom_site_symmetry_multiplicity
 _atom_site_fract_x
 _atom_site_fract_y
 _atom_site_fract_z
 _atom_site_fract_occupancy
 C  C1  1  0.29050  0.75000  0.04811  1
 C  C2  1  0.29050  0.75000  0.45189  1
 C  C3  1  0.70950  0.25000  0.95189  1
 C  C4  1  0.70950  0.25000  0.54811  1
 I  I1  1  0.89043  0.25000  0.42946  1
 I  I2  1  0.22941  0.25000  0.25000  1
 I  I3  1  0.10957  0.75000  0.57054  1
 I  I4  1  0.10957  0.75000  0.92946  1
 I  I5  1  0.89043  0.25000  0.07054  1
 I  I6  1  0.77059  0.75000  0.75000  1
 N  N1  1  0.38329  0.75000  0.11624  1
 N  N2  1  0.61671  0.25000  0.88376  1
 N  N3  1  0.38329  0.75000  0.38376  1
 N  N4  1  0.61671  0.25000  0.61624  1
 Rb  Rb1  1  0.14468  0.25000  0.75000  1
 Rb  Rb2  1  0.85532  0.75000  0.25000  1
