CIF file written using JARVIS-Tools package.
data_LiVCrO4
_symmetry_space_group_name_H-M  'Imma'
_cell_length_a       5.75725
_cell_length_b       5.75725
_cell_length_c       5.9614
_cell_angle_alpha    58.8224
_cell_angle_beta     58.8224
_cell_angle_gamma    88.2474

_symmetry_Int_Tables_number  74
_chemical_formula_structural  LiVCrO4
_chemical_formula_sum  Li2V2Cr2O8
_cell_volume  136.81939710840211
_cell_formula_units_Z  2
loop_
  _symmetry_equiv_pos_site_id
 _symmetry_equiv_pos_as_xyz
 1  'x, y, z'
loop_
 _atom_site_type_symbol
 _atom_site_label
 _atom_site_symmetry_multiplicity
 _atom_site_fract_x
 _atom_site_fract_y
 _atom_site_fract_z
 _atom_site_fract_occupancy
 Cr  Cr1  1  -0.00000  0.00000  0.50000  1
 Cr  Cr2  1  0.00000  0.00000  0.00000  1
 Li  Li1  1  -0.00000  0.50000  0.00000  1
 Li  Li2  1  0.50000  0.00000  0.50000  1
 O  O1  1  0.76656  0.78434  0.97453  1
 O  O2  1  0.24453  0.75550  0.48061  1
 O  O3  1  0.21566  0.23344  0.52547  1
 O  O4  1  0.75550  0.24453  0.98061  1
 O  O5  1  0.24450  0.75547  0.01939  1
 O  O6  1  0.78434  0.76656  0.47453  1
 O  O7  1  0.75547  0.24450  0.51939  1
 O  O8  1  0.23344  0.21566  0.02547  1
 V  V1  1  -0.00000  0.50000  0.50000  1
 V  V2  1  0.50000  -0.00000  -0.00000  1
