CIF file written using JARVIS-Tools package.
data_Tb5SbAu2
_symmetry_space_group_name_H-M  'I4/mcm'
_cell_length_a       7.37682
_cell_length_b       7.37683
_cell_length_c       10.0919
_cell_angle_alpha    111.437
_cell_angle_beta     111.437
_cell_angle_gamma    90

_symmetry_Int_Tables_number  140
_chemical_formula_structural  Tb5SbAu2
_chemical_formula_sum  Tb0Sb2Au4
_cell_volume  470.13002671678197
_cell_formula_units_Z  2
loop_
  _symmetry_equiv_pos_site_id
 _symmetry_equiv_pos_as_xyz
 1  'x, y, z'
loop_
 _atom_site_type_symbol
 _atom_site_label
 _atom_site_symmetry_multiplicity
 _atom_site_fract_x
 _atom_site_fract_y
 _atom_site_fract_z
 _atom_site_fract_occupancy
 Au  Au1  1  0.12785  0.62785  0.00000  1
 Au  Au2  1  0.37215  0.12785  0.00000  1
 Au  Au3  1  0.62785  0.87215  -0.00000  1
 Au  Au4  1  0.87215  0.37215  -0.00000  1
 Sb  Sb1  1  0.75000  0.75000  0.50000  1
 Sb  Sb2  1  0.25000  0.25000  0.50000  1
 Tb  Tb1  1  0.99697  0.49697  0.66747  1
 Tb  Tb2  1  0.00303  0.50303  0.33253  1
 Tb  Tb3  1  0.50303  0.32950  0.33253  1
 Tb  Tb4  1  0.82950  0.00303  0.33253  1
 Tb  Tb5  1  0.49697  0.67050  0.66747  1
 Tb  Tb6  1  0.67050  0.17050  0.66747  1
 Tb  Tb7  1  0.17050  0.99697  0.66747  1
 Tb  Tb8  1  0.00000  0.00000  0.00000  1
 Tb  Tb9  1  0.50000  0.50000  0.00000  1
 Tb  Tb10  1  0.32950  0.82950  0.33253  1
