CIF file written using JARVIS-Tools package.
data_LiB11
_symmetry_space_group_name_H-M  'I-4m2'
_cell_length_a       4.75907
_cell_length_b       4.75907
_cell_length_c       4.75907
_cell_angle_alpha    110.061
_cell_angle_beta     110.061
_cell_angle_gamma    108.298

_symmetry_Int_Tables_number  119
_chemical_formula_structural  LiB11
_chemical_formula_sum  LiB
_cell_volume  82.9485765077433
_cell_formula_units_Z  1
loop_
  _symmetry_equiv_pos_site_id
 _symmetry_equiv_pos_as_xyz
 1  'x, y, z'
loop_
 _atom_site_type_symbol
 _atom_site_label
 _atom_site_symmetry_multiplicity
 _atom_site_fract_x
 _atom_site_fract_y
 _atom_site_fract_z
 _atom_site_fract_occupancy
 B  B1  1  0.32025  0.32025  0.00000  1
 B  B2  1  0.67975  0.67975  -0.00000  1
 B  B3  1  0.70344  0.70344  0.40688  1
 B  B4  1  0.29656  0.29656  0.59312  1
 B  B5  1  0.29656  0.70344  -0.00000  1
 B  B6  1  0.70344  0.29656  0.00000  1
 B  B7  1  0.16124  0.87486  0.71362  1
 B  B8  1  0.16124  0.44762  0.28638  1
 B  B9  1  0.12514  0.83876  0.28638  1
 B  B10  1  0.55238  0.83876  0.71362  1
 B  B11  1  0.00000  0.00000  0.00000  1
 Li  Li1  1  0.75000  0.25000  0.50000  1
