CIF file written using JARVIS-Tools package.
data_LiCo3O2F6
_symmetry_space_group_name_H-M  'P2_1/c'
_cell_length_a       5.31577
_cell_length_b       4.46113
_cell_length_c       9.9992
_cell_angle_alpha    90
_cell_angle_beta     96.8564
_cell_angle_gamma    90

_symmetry_Int_Tables_number  14
_chemical_formula_structural  LiCo3O2F6
_chemical_formula_sum  Li2Co6O4F2
_cell_volume  235.42904243457718
_cell_formula_units_Z  2
loop_
  _symmetry_equiv_pos_site_id
 _symmetry_equiv_pos_as_xyz
 1  'x, y, z'
loop_
 _atom_site_type_symbol
 _atom_site_label
 _atom_site_symmetry_multiplicity
 _atom_site_fract_x
 _atom_site_fract_y
 _atom_site_fract_z
 _atom_site_fract_occupancy
 Co  Co1  1  0.50000  0.50000  0.00000  1
 Co  Co2  1  0.27167  0.97875  0.75537  1
 Co  Co3  1  0.72833  0.47875  0.74463  1
 Co  Co4  1  0.50000  0.00000  0.50000  1
 Co  Co5  1  0.27167  0.52125  0.25537  1
 Co  Co6  1  0.72833  0.02125  0.24463  1
 F  F1  1  0.72099  0.79822  0.07139  1
 F  F2  1  0.97451  0.78570  0.81882  1
 F  F3  1  0.76657  0.29869  0.93330  1
 F  F4  1  0.27901  0.20178  0.92861  1
 F  F5  1  0.23343  0.70131  0.06670  1
 F  F6  1  0.76657  0.20131  0.43330  1
 F  F7  1  0.72099  0.70178  0.57139  1
 F  F8  1  0.27901  0.29822  0.42861  1
 F  F9  1  0.02549  0.28570  0.68118  1
 F  F10  1  0.97451  0.71430  0.31882  1
 F  F11  1  0.02549  0.21430  0.18118  1
 F  F12  1  0.23343  0.79869  0.56670  1
 Li  Li1  1  0.00000  0.00000  0.00000  1
 Li  Li2  1  0.00000  0.50000  0.50000  1
 O  O1  1  0.52149  0.32072  0.17455  1
 O  O2  1  0.47851  0.82072  0.32545  1
 O  O3  1  0.47851  0.67928  0.82545  1
 O  O4  1  0.52149  0.17928  0.67455  1
