CIF file written using JARVIS-Tools package.
data_Tl4HgBr6
_symmetry_space_group_name_H-M  'P4/mnc'
_cell_length_a       8.82539
_cell_length_b       8.9293
_cell_length_c       8.9293
_cell_angle_alpha    90
_cell_angle_beta     90
_cell_angle_gamma    90

_symmetry_Int_Tables_number  128
_chemical_formula_structural  Tl4HgBr6
_chemical_formula_sum  Tl8Hg2Br2
_cell_volume  703.6692331076424
_cell_formula_units_Z  2
loop_
  _symmetry_equiv_pos_site_id
 _symmetry_equiv_pos_as_xyz
 1  'x, y, z'
loop_
 _atom_site_type_symbol
 _atom_site_label
 _atom_site_symmetry_multiplicity
 _atom_site_fract_x
 _atom_site_fract_y
 _atom_site_fract_z
 _atom_site_fract_occupancy
 Br  Br1  1  0.20759  0.50000  0.50000  1
 Br  Br2  1  0.50000  0.64132  0.82206  1
 Br  Br3  1  0.50000  0.17794  0.64132  1
 Br  Br4  1  0.50000  0.82206  0.35868  1
 Br  Br5  1  0.00000  0.67794  0.85868  1
 Br  Br6  1  0.00000  0.14132  0.67794  1
 Br  Br7  1  0.00000  0.85868  0.32206  1
 Br  Br8  1  0.00000  0.32206  0.14132  1
 Br  Br9  1  0.79241  0.50000  0.50000  1
 Br  Br10  1  0.50000  0.35868  0.17794  1
 Br  Br11  1  0.29241  0.00000  0.00000  1
 Br  Br12  1  0.70759  0.00000  0.00000  1
 Hg  Hg1  1  0.00000  0.00000  0.00000  1
 Hg  Hg2  1  0.50000  0.50000  0.50000  1
 Tl  Tl1  1  0.75000  0.64806  0.14806  1
 Tl  Tl2  1  0.75000  0.35194  0.85194  1
 Tl  Tl3  1  0.75000  0.85194  0.64806  1
 Tl  Tl4  1  0.25000  0.85194  0.64806  1
 Tl  Tl5  1  0.25000  0.35194  0.85194  1
 Tl  Tl6  1  0.25000  0.64806  0.14806  1
 Tl  Tl7  1  0.25000  0.14806  0.35194  1
 Tl  Tl8  1  0.75000  0.14806  0.35194  1
