CIF file written using JARVIS-Tools package.
data_EuCu
_symmetry_space_group_name_H-M  'Pm-3m'
_cell_length_a       3.50919
_cell_length_b       3.50914
_cell_length_c       3.50917
_cell_angle_alpha    89.9997
_cell_angle_beta     89.9993
_cell_angle_gamma    90.0007

_symmetry_Int_Tables_number  221
_chemical_formula_structural  EuCu
_chemical_formula_sum  EuCu
_cell_volume  43.21279029566659
_cell_formula_units_Z  1
loop_
  _symmetry_equiv_pos_site_id
 _symmetry_equiv_pos_as_xyz
 1  'x, y, z'
loop_
 _atom_site_type_symbol
 _atom_site_label
 _atom_site_symmetry_multiplicity
 _atom_site_fract_x
 _atom_site_fract_y
 _atom_site_fract_z
 _atom_site_fract_occupancy
 Cu  Cu1  1  -0.00000  0.00000  0.00000  1
 Eu  Eu1  1  0.50000  0.50000  0.50000  1
