CIF file written using JARVIS-Tools package.
data_NdSnAu
_symmetry_space_group_name_H-M  'P6_3mc'
_cell_length_a       4.77036
_cell_length_b       4.77036
_cell_length_c       7.68025
_cell_angle_alpha    90
_cell_angle_beta     90
_cell_angle_gamma    119.999

_symmetry_Int_Tables_number  186
_chemical_formula_structural  NdSnAu
_chemical_formula_sum  Nd2Sn2Au2
_cell_volume  151.36049461803165
_cell_formula_units_Z  2
loop_
  _symmetry_equiv_pos_site_id
 _symmetry_equiv_pos_as_xyz
 1  'x, y, z'
loop_
 _atom_site_type_symbol
 _atom_site_label
 _atom_site_symmetry_multiplicity
 _atom_site_fract_x
 _atom_site_fract_y
 _atom_site_fract_z
 _atom_site_fract_occupancy
 Au  Au1  1  0.33332  0.66668  0.06059  1
 Au  Au2  1  0.66668  0.33332  0.56059  1
 Nd  Nd1  1  -0.00001  0.00001  0.24441  1
 Nd  Nd2  1  0.00001  -0.00001  0.74441  1
 Sn  Sn1  1  0.33334  0.66666  0.46900  1
 Sn  Sn2  1  0.66666  0.33334  0.96900  1
