CIF file written using JARVIS-Tools package.
data_KAs2F7
_symmetry_space_group_name_H-M  'P2_1/c'
_cell_length_a       8.54883
_cell_length_b       7.28655
_cell_length_c       10.802
_cell_angle_alpha    90
_cell_angle_beta     109.914
_cell_angle_gamma    90

_symmetry_Int_Tables_number  14
_chemical_formula_structural  KAs2F7
_chemical_formula_sum  K4As8F28
_cell_volume  632.6389869648666
_cell_formula_units_Z  4
loop_
  _symmetry_equiv_pos_site_id
 _symmetry_equiv_pos_as_xyz
 1  'x, y, z'
loop_
 _atom_site_type_symbol
 _atom_site_label
 _atom_site_symmetry_multiplicity
 _atom_site_fract_x
 _atom_site_fract_y
 _atom_site_fract_z
 _atom_site_fract_occupancy
 As  As1  1  0.62731  0.66993  0.40485  1
 As  As2  1  0.66577  0.18533  0.23279  1
 As  As3  1  0.83423  0.68533  0.76721  1
 As  As4  1  0.33423  0.81467  0.76721  1
 As  As5  1  0.16577  0.31467  0.23279  1
 As  As6  1  0.87269  0.16993  0.59515  1
 As  As7  1  0.37269  0.33007  0.59515  1
 As  As8  1  0.12731  0.83007  0.40485  1
 F  F1  1  0.52225  0.70688  0.23110  1
 F  F2  1  0.97775  0.20688  0.76890  1
 F  F3  1  0.47775  0.29312  0.76890  1
 F  F4  1  0.02225  0.79312  0.23110  1
 F  F5  1  0.79584  0.49778  0.62076  1
 F  F6  1  0.68530  0.11663  0.62706  1
 F  F7  1  0.05147  0.62575  0.81290  1
 F  F8  1  0.31470  0.88337  0.37294  1
 F  F9  1  0.55510  0.43237  0.38101  1
 F  F10  1  0.81470  0.61663  0.37294  1
 F  F11  1  0.94490  0.93237  0.61899  1
 F  F12  1  0.44490  0.56763  0.61899  1
 F  F13  1  0.05510  0.06763  0.38101  1
 F  F14  1  0.18530  0.38337  0.62706  1
 F  F15  1  0.40319  0.67468  0.92973  1
 F  F16  1  0.70416  -0.00222  0.37924  1
 F  F17  1  0.90319  0.82532  0.92973  1
 F  F18  1  0.20416  0.50222  0.37924  1
 F  F19  1  0.44853  0.12575  0.18710  1
 F  F20  1  0.09681  0.17468  0.07027  1
 F  F21  1  0.55147  0.87425  0.81290  1
 F  F22  1  0.29584  0.00222  0.62076  1
 F  F23  1  0.70985  0.00407  0.13534  1
 F  F24  1  0.29015  0.99593  0.86466  1
 F  F25  1  0.20985  0.49593  0.13534  1
 F  F26  1  0.59681  0.32532  0.07027  1
 F  F27  1  0.79015  0.50407  0.86466  1
 F  F28  1  0.94853  0.37425  0.18710  1
 K  K1  1  0.72835  0.65611  0.07826  1
 K  K2  1  0.77165  0.15611  0.92174  1
 K  K3  1  0.27165  0.34389  0.92174  1
 K  K4  1  0.22835  0.84389  0.07826  1
