CIF file written using JARVIS-Tools package.
data_BC7
_symmetry_space_group_name_H-M  'Pmm2'
_cell_length_a       2.51495
_cell_length_b       3.68665
_cell_length_c       5.12407
_cell_angle_alpha    90
_cell_angle_beta     90
_cell_angle_gamma    90

_symmetry_Int_Tables_number  25
_chemical_formula_structural  BC7
_chemical_formula_sum  BC7
_cell_volume  47.50901260463645
_cell_formula_units_Z  1
loop_
  _symmetry_equiv_pos_site_id
 _symmetry_equiv_pos_as_xyz
 1  'x, y, z'
loop_
 _atom_site_type_symbol
 _atom_site_label
 _atom_site_symmetry_multiplicity
 _atom_site_fract_x
 _atom_site_fract_y
 _atom_site_fract_z
 _atom_site_fract_occupancy
 B  B1  1  0.50000  0.34300  0.50000  1
 C  C1  1  0.50000  0.10164  0.24167  1
 C  C2  1  0.50000  0.10164  0.75833  1
 C  C3  1  0.00000  0.63855  0.50000  1
 C  C4  1  0.00000  0.59822  0.00000  1
 C  C5  1  0.50000  0.35542  0.00000  1
 C  C6  1  0.00000  0.85806  0.24584  1
 C  C7  1  0.00000  0.85806  0.75416  1
