CIF file written using JARVIS-Tools package.
data_TeHO3
_symmetry_space_group_name_H-M  'Pna2_1'
_cell_length_a       12.0069
_cell_length_b       8.11694
_cell_length_c       4.78943
_cell_angle_alpha    90
_cell_angle_beta     90.0004
_cell_angle_gamma    90

_symmetry_Int_Tables_number  33
_chemical_formula_structural  TeHO3
_chemical_formula_sum  Te8H8O24
_cell_volume  466.77359006927014
_cell_formula_units_Z  8
loop_
  _symmetry_equiv_pos_site_id
 _symmetry_equiv_pos_as_xyz
 1  'x, y, z'
loop_
 _atom_site_type_symbol
 _atom_site_label
 _atom_site_symmetry_multiplicity
 _atom_site_fract_x
 _atom_site_fract_y
 _atom_site_fract_z
 _atom_site_fract_occupancy
 H  H1  1  0.30228  0.66225  0.91772  1
 H  H2  1  0.37471  0.95525  0.49226  1
 H  H3  1  0.87471  0.54475  0.49226  1
 H  H4  1  0.19789  0.16223  0.41772  1
 H  H5  1  0.80228  0.83775  0.91772  1
 H  H6  1  0.69789  0.33777  0.41772  1
 H  H7  1  0.12544  0.45526  0.99227  1
 H  H8  1  0.62544  0.04474  0.99227  1
 O  O1  1  0.83120  0.13389  0.67688  1
 O  O2  1  0.23069  0.06430  0.72657  1
 O  O3  1  0.66896  0.63388  0.17687  1
 O  O4  1  0.33120  0.36611  0.67688  1
 O  O5  1  0.42839  0.04677  0.51455  1
 O  O6  1  0.04769  0.24718  0.78067  1
 O  O7  1  0.57176  0.95322  0.01456  1
 O  O8  1  0.07176  0.54678  0.01456  1
 O  O9  1  0.92839  0.45323  0.51455  1
 O  O10  1  0.80812  0.79420  0.72120  1
 O  O11  1  0.76946  0.93570  0.22658  1
 O  O12  1  0.26946  0.56430  0.22658  1
 O  O13  1  0.73069  0.43570  0.72657  1
 O  O14  1  0.52697  0.59048  0.72461  1
 O  O15  1  0.02697  0.90952  0.72461  1
 O  O16  1  0.19205  0.20580  0.22121  1
 O  O17  1  0.54769  0.25282  0.78067  1
 O  O18  1  0.45247  0.74715  0.28065  1
 O  O19  1  0.95247  0.75285  0.28065  1
 O  O20  1  0.16896  0.86612  0.17687  1
 O  O21  1  0.69205  0.29420  0.22121  1
 O  O22  1  0.30812  0.70580  0.72120  1
 O  O23  1  0.47318  0.40950  0.22462  1
 O  O24  1  0.97318  0.09050  0.22462  1
 Te  Te1  1  0.39087  0.16686  0.85509  1
 Te  Te2  1  0.60928  0.83312  0.35509  1
 Te  Te3  1  0.10928  0.66688  0.35509  1
 Te  Te4  1  0.89087  0.33314  0.85509  1
 Te  Te5  1  0.10732  0.06028  0.97950  1
 Te  Te6  1  0.89284  0.93974  0.47950  1
 Te  Te7  1  0.39284  0.56026  0.47950  1
 Te  Te8  1  0.60732  0.43972  0.97950  1
