CIF file written using JARVIS-Tools package.
data_K2CdN12
_symmetry_space_group_name_H-M  'C2/m'
_cell_length_a       3.7944
_cell_length_b       7.45831
_cell_length_c       8.63882
_cell_angle_alpha    92.4976
_cell_angle_beta     90
_cell_angle_gamma    104.737

_symmetry_Int_Tables_number  12
_chemical_formula_structural  K2CdN12
_chemical_formula_sum  K2CdN2
_cell_volume  236.19465388624616
_cell_formula_units_Z  1
loop_
  _symmetry_equiv_pos_site_id
 _symmetry_equiv_pos_as_xyz
 1  'x, y, z'
loop_
 _atom_site_type_symbol
 _atom_site_label
 _atom_site_symmetry_multiplicity
 _atom_site_fract_x
 _atom_site_fract_y
 _atom_site_fract_z
 _atom_site_fract_occupancy
 Cd  Cd1  1  0.00000  0.00000  0.50000  1
 K  K1  1  0.34523  0.69046  0.82993  1
 K  K2  1  0.65477  0.30954  0.17007  1
 N  N1  1  0.39831  0.79662  0.48488  1
 N  N2  1  0.60169  0.20338  0.51512  1
 N  N3  1  0.32413  0.64827  0.41558  1
 N  N4  1  0.67587  0.35173  0.58442  1
 N  N5  1  0.25131  0.50263  0.35153  1
 N  N6  1  0.74869  0.49737  0.64847  1
 N  N7  1  0.99664  0.99327  0.77394  1
 N  N8  1  0.00336  0.00673  0.22606  1
 N  N9  1  0.06955  0.13911  0.84582  1
 N  N10  1  0.93045  0.86089  0.15418  1
 N  N11  1  0.14036  0.28072  0.91885  1
 N  N12  1  0.85964  0.71928  0.08115  1
