CIF file written using JARVIS-Tools package.
data_LiBH2
_symmetry_space_group_name_H-M  'Pnma'
_cell_length_a       3.06475
_cell_length_b       5.34947
_cell_length_c       8.33471
_cell_angle_alpha    90
_cell_angle_beta     90
_cell_angle_gamma    90

_symmetry_Int_Tables_number  62
_chemical_formula_structural  LiBH2
_chemical_formula_sum  Li4B4H8
_cell_volume  136.64565338837645
_cell_formula_units_Z  4
loop_
  _symmetry_equiv_pos_site_id
 _symmetry_equiv_pos_as_xyz
 1  'x, y, z'
loop_
 _atom_site_type_symbol
 _atom_site_label
 _atom_site_symmetry_multiplicity
 _atom_site_fract_x
 _atom_site_fract_y
 _atom_site_fract_z
 _atom_site_fract_occupancy
 B  B1  1  0.25000  0.41749  0.45471  1
 B  B2  1  0.25000  0.08251  0.95471  1
 B  B3  1  0.75000  0.91749  0.04529  1
 B  B4  1  0.75000  0.58251  0.54529  1
 H  H1  1  0.75000  0.43290  0.41420  1
 H  H2  1  0.75000  0.70413  0.99035  1
 H  H3  1  0.25000  0.29587  0.00965  1
 H  H4  1  0.25000  0.20413  0.50965  1
 H  H5  1  0.25000  0.56710  0.58580  1
 H  H6  1  0.75000  0.79587  0.49035  1
 H  H7  1  0.25000  0.93290  0.08580  1
 H  H8  1  0.75000  0.06710  0.91420  1
 Li  Li1  1  0.75000  0.83856  0.77173  1
 Li  Li2  1  0.75000  0.66144  0.27173  1
 Li  Li3  1  0.25000  0.33856  0.72827  1
 Li  Li4  1  0.25000  0.16144  0.22827  1
