CIF file written using JARVIS-Tools package.
data_Na2AgAs
_symmetry_space_group_name_H-M  'Cmcm'
_cell_length_a       5.73282
_cell_length_b       5.73282
_cell_length_c       5.64857
_cell_angle_alpha    90
_cell_angle_beta     90
_cell_angle_gamma    100.043

_symmetry_Int_Tables_number  63
_chemical_formula_structural  Na2AgAs
_chemical_formula_sum  Na4Ag2As2
_cell_volume  182.79670239313327
_cell_formula_units_Z  2
loop_
  _symmetry_equiv_pos_site_id
 _symmetry_equiv_pos_as_xyz
 1  'x, y, z'
loop_
 _atom_site_type_symbol
 _atom_site_label
 _atom_site_symmetry_multiplicity
 _atom_site_fract_x
 _atom_site_fract_y
 _atom_site_fract_z
 _atom_site_fract_occupancy
 Ag  Ag1  1  0.50001  0.49999  0.00000  1
 Ag  Ag2  1  0.49999  0.50001  0.50000  1
 As  As1  1  0.79057  0.79057  0.75000  1
 As  As2  1  0.20943  0.20943  0.25000  1
 Na  Na1  1  0.96923  0.32554  0.74996  1
 Na  Na2  1  0.03077  0.67446  0.24996  1
 Na  Na3  1  0.32554  0.96923  0.75004  1
 Na  Na4  1  0.67446  0.03077  0.25004  1
