CIF file written using JARVIS-Tools package.
data_Ho5SbAu2
_symmetry_space_group_name_H-M  'I4/mcm'
_cell_length_a       8.57146
_cell_length_b       8.57146
_cell_length_c       8.57146
_cell_angle_alpha    124.361
_cell_angle_beta     124.361
_cell_angle_gamma    82.5992

_symmetry_Int_Tables_number  140
_chemical_formula_structural  Ho5SbAu2
_chemical_formula_sum  Ho0Sb2Au4
_cell_volume  412.1672841220486
_cell_formula_units_Z  2
loop_
  _symmetry_equiv_pos_site_id
 _symmetry_equiv_pos_as_xyz
 1  'x, y, z'
loop_
 _atom_site_type_symbol
 _atom_site_label
 _atom_site_symmetry_multiplicity
 _atom_site_fract_x
 _atom_site_fract_y
 _atom_site_fract_z
 _atom_site_fract_occupancy
 Au  Au1  1  0.63912  0.86088  0.50000  1
 Au  Au2  1  0.36088  0.13912  0.50000  1
 Au  Au3  1  0.86088  0.36088  0.22175  1
 Au  Au4  1  0.13912  0.63912  0.77825  1
 Ho  Ho1  1  0.00000  0.00000  0.00000  1
 Ho  Ho2  1  0.50000  0.50000  0.00000  1
 Ho  Ho3  1  0.29757  0.48932  0.50000  1
 Ho  Ho4  1  0.98932  0.79757  0.50000  1
 Ho  Ho5  1  0.48932  0.98932  0.19175  1
 Ho  Ho6  1  0.79757  0.29757  0.80825  1
 Ho  Ho7  1  0.20243  0.70243  0.19175  1
 Ho  Ho8  1  0.51068  0.01068  0.80825  1
 Ho  Ho9  1  0.01068  0.20243  0.50000  1
 Ho  Ho10  1  0.70243  0.51068  0.50000  1
 Sb  Sb1  1  0.25000  0.25000  0.00000  1
 Sb  Sb2  1  0.75000  0.75000  0.00000  1
