CIF file written using JARVIS-Tools package.
data_Li4Fe3O2F6
_symmetry_space_group_name_H-M  'P-1'
_cell_length_a       5.03468
_cell_length_b       5.32319
_cell_length_c       5.82132
_cell_angle_alpha    107.087
_cell_angle_beta     89.0626
_cell_angle_gamma    100.196

_symmetry_Int_Tables_number  2
_chemical_formula_structural  Li4Fe3O2F6
_chemical_formula_sum  Li4Fe3O2F6
_cell_volume  146.66775535935705
_cell_formula_units_Z  1
loop_
  _symmetry_equiv_pos_site_id
 _symmetry_equiv_pos_as_xyz
 1  'x, y, z'
loop_
 _atom_site_type_symbol
 _atom_site_label
 _atom_site_symmetry_multiplicity
 _atom_site_fract_x
 _atom_site_fract_y
 _atom_site_fract_z
 _atom_site_fract_occupancy
 F  F1  1  0.13300  0.20668  0.68499  1
 F  F2  1  0.87560  0.76600  0.82069  1
 F  F3  1  0.59751  0.25325  0.43543  1
 F  F4  1  0.40249  0.74675  0.56457  1
 F  F5  1  0.12440  0.23400  0.17931  1
 F  F6  1  0.86700  0.79332  0.31501  1
 Fe  Fe1  1  0.49917  0.49644  0.78471  1
 Fe  Fe2  1  0.50083  0.50356  0.21529  1
 Fe  Fe3  1  0.00000  0.50000  0.00000  1
 Li  Li1  1  0.26263  0.97284  0.86422  1
 Li  Li2  1  0.75899  -0.00235  0.63385  1
 Li  Li3  1  0.24101  0.00235  0.36615  1
 Li  Li4  1  0.73737  0.02716  0.13578  1
 O  O1  1  0.64147  0.24363  0.93352  1
 O  O2  1  0.35853  0.75638  0.06648  1
