CIF file written using JARVIS-Tools package.
data_As4Se3
_symmetry_space_group_name_H-M  'Pnma'
_cell_length_a       8.02792
_cell_length_b       9.43057
_cell_length_c       10.5283
_cell_angle_alpha    90
_cell_angle_beta     90
_cell_angle_gamma    90

_symmetry_Int_Tables_number  62
_chemical_formula_structural  As4Se3
_chemical_formula_sum  As6Se2
_cell_volume  797.0777795116578
_cell_formula_units_Z  4
loop_
  _symmetry_equiv_pos_site_id
 _symmetry_equiv_pos_as_xyz
 1  'x, y, z'
loop_
 _atom_site_type_symbol
 _atom_site_label
 _atom_site_symmetry_multiplicity
 _atom_site_fract_x
 _atom_site_fract_y
 _atom_site_fract_z
 _atom_site_fract_occupancy
 As  As1  1  0.25000  0.03058  0.08777  1
 As  As2  1  0.25000  0.66563  0.93425  1
 As  As3  1  0.75000  0.46942  0.58777  1
 As  As4  1  0.25000  0.53058  0.41223  1
 As  As5  1  0.25000  0.16563  0.56575  1
 As  As6  1  0.75000  0.33437  0.06575  1
 As  As7  1  0.75000  0.83437  0.43425  1
 As  As8  1  0.09160  0.85916  0.22734  1
 As  As9  1  0.75000  0.96942  0.91223  1
 As  As10  1  0.90840  0.14084  0.77266  1
 As  As11  1  0.59160  0.64084  0.72734  1
 As  As12  1  0.40840  0.85916  0.22734  1
 As  As13  1  0.90840  0.64084  0.72734  1
 As  As14  1  0.40840  0.35916  0.27266  1
 As  As15  1  0.59160  0.14084  0.77266  1
 As  As16  1  0.09160  0.35916  0.27266  1
 Se  Se1  1  0.75000  0.58274  0.38418  1
 Se  Se2  1  0.02188  0.16785  0.41362  1
 Se  Se3  1  0.97812  0.33215  0.91362  1
 Se  Se4  1  0.47812  0.66785  0.08638  1
 Se  Se5  1  0.52188  0.83215  0.58638  1
 Se  Se6  1  0.52188  0.33215  0.91362  1
 Se  Se7  1  0.47812  0.16785  0.41362  1
 Se  Se8  1  0.25000  0.41726  0.61582  1
 Se  Se9  1  0.75000  0.08274  0.11582  1
 Se  Se10  1  0.97812  0.83215  0.58638  1
 Se  Se11  1  0.02188  0.66785  0.08638  1
 Se  Se12  1  0.25000  0.91726  0.88418  1
