CIF file written using JARVIS-Tools package.
data_CeNbO4
_symmetry_space_group_name_H-M  'C2/c'
_cell_length_a       5.19552
_cell_length_b       5.49076
_cell_length_c       6.67578
_cell_angle_alpha    111.547
_cell_angle_beta     110.039
_cell_angle_gamma    96.4884

_symmetry_Int_Tables_number  15
_chemical_formula_structural  CeNbO4
_chemical_formula_sum  Ce2Nb2O8
_cell_volume  160.07125321137164
_cell_formula_units_Z  2
loop_
  _symmetry_equiv_pos_site_id
 _symmetry_equiv_pos_as_xyz
 1  'x, y, z'
loop_
 _atom_site_type_symbol
 _atom_site_label
 _atom_site_symmetry_multiplicity
 _atom_site_fract_x
 _atom_site_fract_y
 _atom_site_fract_z
 _atom_site_fract_occupancy
 Ce  Ce1  1  0.88191  0.13191  0.76381  1
 Ce  Ce2  1  0.11809  0.86809  0.23619  1
 Nb  Nb1  1  0.34740  0.59740  0.69481  1
 Nb  Nb2  1  0.65260  0.40260  0.30519  1
 O  O1  1  0.29193  0.14269  0.08123  1
 O  O2  1  0.78930  0.43854  0.08123  1
 O  O3  1  0.70807  0.85731  0.91877  1
 O  O4  1  0.21070  0.56146  0.91877  1
 O  O5  1  0.49718  0.71079  0.43937  1
 O  O6  1  0.94220  0.22859  0.43937  1
 O  O7  1  0.50282  0.28921  0.56063  1
 O  O8  1  0.05780  0.77141  0.56063  1
