CIF file written using JARVIS-Tools package.
data_SiSbPt
_symmetry_space_group_name_H-M  'Pbca'
_cell_length_a       6.41506
_cell_length_b       6.4309
_cell_length_c       11.6849
_cell_angle_alpha    90
_cell_angle_beta     90
_cell_angle_gamma    90

_symmetry_Int_Tables_number  61
_chemical_formula_structural  SiSbPt
_chemical_formula_sum  Si8Sb8Pt8
_cell_volume  482.05578383039096
_cell_formula_units_Z  8
loop_
  _symmetry_equiv_pos_site_id
 _symmetry_equiv_pos_as_xyz
 1  'x, y, z'
loop_
 _atom_site_type_symbol
 _atom_site_label
 _atom_site_symmetry_multiplicity
 _atom_site_fract_x
 _atom_site_fract_y
 _atom_site_fract_z
 _atom_site_fract_occupancy
 Pt  Pt1  1  0.01289  0.11992  0.10634  1
 Pt  Pt2  1  0.98711  0.61992  0.39366  1
 Pt  Pt3  1  0.48711  0.88008  0.60634  1
 Pt  Pt4  1  0.98711  0.88008  0.89366  1
 Pt  Pt5  1  0.48711  0.61992  0.10634  1
 Pt  Pt6  1  0.01289  0.38008  0.60634  1
 Pt  Pt7  1  0.51289  0.11992  0.39366  1
 Pt  Pt8  1  0.51289  0.38008  0.89366  1
 Sb  Sb1  1  0.11777  0.00747  0.32674  1
 Sb  Sb2  1  0.61777  0.49253  0.67326  1
 Sb  Sb3  1  0.88223  0.50747  0.17326  1
 Sb  Sb4  1  0.38223  0.99253  0.82674  1
 Sb  Sb5  1  0.88223  0.99253  0.67326  1
 Sb  Sb6  1  0.11777  0.49253  0.82674  1
 Sb  Sb7  1  0.61777  0.00747  0.17326  1
 Sb  Sb8  1  0.38223  0.50747  0.32674  1
 Si  Si1  1  0.35546  0.26617  0.07354  1
 Si  Si2  1  0.85546  0.23383  0.92646  1
 Si  Si3  1  0.64454  0.76617  0.42646  1
 Si  Si4  1  0.14454  0.73383  0.57354  1
 Si  Si5  1  0.64454  0.73383  0.92646  1
 Si  Si6  1  0.14454  0.76617  0.07354  1
 Si  Si7  1  0.35546  0.23383  0.57354  1
 Si  Si8  1  0.85546  0.26617  0.42646  1
