CIF file written using JARVIS-Tools package.
data_Co3Mo3N
_symmetry_space_group_name_H-M  'Fd-3m'
_cell_length_a       7.76644
_cell_length_b       7.76644
_cell_length_c       7.76644
_cell_angle_alpha    60
_cell_angle_beta     60
_cell_angle_gamma    60

_symmetry_Int_Tables_number  227
_chemical_formula_structural  Co3Mo3N
_chemical_formula_sum  Co2Mo2N4
_cell_volume  331.2461739264807
_cell_formula_units_Z  4
loop_
  _symmetry_equiv_pos_site_id
 _symmetry_equiv_pos_as_xyz
 1  'x, y, z'
loop_
 _atom_site_type_symbol
 _atom_site_label
 _atom_site_symmetry_multiplicity
 _atom_site_fract_x
 _atom_site_fract_y
 _atom_site_fract_z
 _atom_site_fract_occupancy
 Co  Co1  1  0.29132  0.62603  0.29132  1
 Co  Co2  1  0.50000  0.00000  0.50000  1
 Co  Co3  1  0.50000  0.50000  0.50000  1
 Co  Co4  1  0.50000  0.50000  0.00000  1
 Co  Co5  1  0.70868  0.70868  0.37397  1
 Co  Co6  1  0.29132  0.29132  0.29132  1
 Co  Co7  1  0.00000  0.50000  0.50000  1
 Co  Co8  1  0.70868  0.37397  0.70868  1
 Co  Co9  1  0.62603  0.29132  0.29132  1
 Co  Co10  1  0.29132  0.29132  0.62603  1
 Co  Co11  1  0.70868  0.70868  0.70868  1
 Co  Co12  1  0.37397  0.70868  0.70868  1
 Mo  Mo1  1  0.32974  0.92026  0.92026  1
 Mo  Mo2  1  0.07974  0.07974  0.67026  1
 Mo  Mo3  1  0.07974  0.67026  0.67026  1
 Mo  Mo4  1  0.92026  0.32974  0.32974  1
 Mo  Mo5  1  0.67026  0.67026  0.07974  1
 Mo  Mo6  1  0.67026  0.07974  0.07974  1
 Mo  Mo7  1  0.32974  0.32974  0.92026  1
 Mo  Mo8  1  0.92026  0.32974  0.92026  1
 Mo  Mo9  1  0.92026  0.92026  0.32974  1
 Mo  Mo10  1  0.32974  0.92026  0.32974  1
 Mo  Mo11  1  0.67026  0.07974  0.67026  1
 Mo  Mo12  1  0.07974  0.67026  0.07974  1
 N  N1  1  0.00000  0.00000  0.50000  1
 N  N2  1  0.00000  0.50000  0.00000  1
 N  N3  1  0.50000  0.00000  0.00000  1
 N  N4  1  0.00000  0.00000  0.00000  1
