CIF file written using JARVIS-Tools package.
data_LiRhO2
_symmetry_space_group_name_H-M  'R-3m'
_cell_length_a       5.00442
_cell_length_b       5.00442
_cell_length_c       5.00441
_cell_angle_alpha    35.7211
_cell_angle_beta     35.7211
_cell_angle_gamma    35.7211

_symmetry_Int_Tables_number  166
_chemical_formula_structural  LiRhO2
_chemical_formula_sum  LiRhO2
_cell_volume  38.19286047895217
_cell_formula_units_Z  1
loop_
  _symmetry_equiv_pos_site_id
 _symmetry_equiv_pos_as_xyz
 1  'x, y, z'
loop_
 _atom_site_type_symbol
 _atom_site_label
 _atom_site_symmetry_multiplicity
 _atom_site_fract_x
 _atom_site_fract_y
 _atom_site_fract_z
 _atom_site_fract_occupancy
 Li  Li1  1  0.50000  0.50000  0.50000  1
 O  O1  1  0.74349  0.74349  0.74349  1
 O  O2  1  0.25651  0.25651  0.25651  1
 Rh  Rh1  1  0.00000  0.00000  0.00000  1
