CIF file written using JARVIS-Tools package.
data_CuSnF6
_symmetry_space_group_name_H-M  'P-1'
_cell_length_a       5.06018
_cell_length_b       5.05911
_cell_length_c       5.52579
_cell_angle_alpha    62.7862
_cell_angle_beta     89.9771
_cell_angle_gamma    60.1478

_symmetry_Int_Tables_number  2
_chemical_formula_structural  CuSnF6
_chemical_formula_sum  CuSnF6
_cell_volume  104.26668209548497
_cell_formula_units_Z  1
loop_
  _symmetry_equiv_pos_site_id
 _symmetry_equiv_pos_as_xyz
 1  'x, y, z'
loop_
 _atom_site_type_symbol
 _atom_site_label
 _atom_site_symmetry_multiplicity
 _atom_site_fract_x
 _atom_site_fract_y
 _atom_site_fract_z
 _atom_site_fract_occupancy
 Cu  Cu1  1  0.00000  0.00000  0.00000  1
 F  F1  1  0.74997  0.85217  0.25190  1
 F  F2  1  0.25003  0.14783  0.74810  1
 F  F3  1  0.60191  0.50298  0.74767  1
 F  F4  1  0.39809  0.49702  0.25233  1
 F  F5  1  0.10487  0.14484  0.25242  1
 F  F6  1  0.89513  0.85516  0.74758  1
 Sn  Sn1  1  0.50000  -0.00000  0.50000  1
