CIF file written using JARVIS-Tools package.
data_NaCeS2
_symmetry_space_group_name_H-M  'I4_1/amd'
_cell_length_a       8.03776
_cell_length_b       10.7436
_cell_length_c       7.12824
_cell_angle_alpha    29.0195
_cell_angle_beta     55.6806
_cell_angle_gamma    41.5692

_symmetry_Int_Tables_number  141
_chemical_formula_structural  NaCeS2
_chemical_formula_sum  Na2Ce2S4
_cell_volume  190.15595342014433
_cell_formula_units_Z  2
loop_
  _symmetry_equiv_pos_site_id
 _symmetry_equiv_pos_as_xyz
 1  'x, y, z'
loop_
 _atom_site_type_symbol
 _atom_site_label
 _atom_site_symmetry_multiplicity
 _atom_site_fract_x
 _atom_site_fract_y
 _atom_site_fract_z
 _atom_site_fract_occupancy
 Ce  Ce1  1  0.24998  0.50004  -0.00004  1
 Ce  Ce2  1  0.50002  -0.00004  0.00004  1
 Na  Na1  1  -0.00000  0.00001  -0.00002  1
 Na  Na2  1  0.75000  0.49999  0.00002  1
 S  S1  1  0.26007  0.00001  0.47987  1
 S  S2  1  0.01007  0.50000  0.47988  1
 S  S3  1  0.73993  0.00000  0.52012  1
 S  S4  1  0.48993  0.49999  0.52013  1
