CIF file written using JARVIS-Tools package.
data_Sm2IO2
_symmetry_space_group_name_H-M  'C2/m'
_cell_length_a       4.15003
_cell_length_b       6.69924
_cell_length_c       8.61434
_cell_angle_alpha    71.3027
_cell_angle_beta     76.0616
_cell_angle_gamma    71.9565

_symmetry_Int_Tables_number  12
_chemical_formula_structural  Sm2IO2
_chemical_formula_sum  Sm4I2O4
_cell_volume  213.0181146429789
_cell_formula_units_Z  2
loop_
  _symmetry_equiv_pos_site_id
 _symmetry_equiv_pos_as_xyz
 1  'x, y, z'
loop_
 _atom_site_type_symbol
 _atom_site_label
 _atom_site_symmetry_multiplicity
 _atom_site_fract_x
 _atom_site_fract_y
 _atom_site_fract_z
 _atom_site_fract_occupancy
 I  I1  1  0.68888  0.75407  0.86817  1
 I  I2  1  0.31112  0.24593  0.13183  1
 O  O1  1  0.46975  0.37160  0.68890  1
 O  O2  1  0.15605  0.11479  0.57312  1
 O  O3  1  0.53025  0.62840  0.31110  1
 O  O4  1  0.84395  0.88521  0.42688  1
 Sm  Sm1  1  0.02564  0.74292  0.20579  1
 Sm  Sm2  1  0.65169  0.24690  0.44973  1
 Sm  Sm3  1  0.97436  0.25708  0.79421  1
 Sm  Sm4  1  0.34831  0.75310  0.55027  1
