CIF file written using JARVIS-Tools package.
data_Fe4OF7
_symmetry_space_group_name_H-M  'P2_1'
_cell_length_a       5.74544
_cell_length_b       4.81164
_cell_length_c       10.4438
_cell_angle_alpha    90
_cell_angle_beta     94.8885
_cell_angle_gamma    90

_symmetry_Int_Tables_number  4
_chemical_formula_structural  Fe4OF7
_chemical_formula_sum  Fe8O2F4
_cell_volume  287.66879550745426
_cell_formula_units_Z  2
loop_
  _symmetry_equiv_pos_site_id
 _symmetry_equiv_pos_as_xyz
 1  'x, y, z'
loop_
 _atom_site_type_symbol
 _atom_site_label
 _atom_site_symmetry_multiplicity
 _atom_site_fract_x
 _atom_site_fract_y
 _atom_site_fract_z
 _atom_site_fract_occupancy
 F  F1  1  0.15676  0.21117  0.29962  1
 F  F2  1  0.60685  0.79292  0.45568  1
 F  F3  1  0.65807  0.21736  0.80339  1
 F  F4  1  0.10330  0.79941  0.95084  1
 F  F5  1  0.60945  0.70335  0.95828  1
 F  F6  1  0.84324  0.71117  0.70038  1
 F  F7  1  0.85093  0.79048  0.19817  1
 F  F8  1  0.10439  0.70247  0.44181  1
 F  F9  1  0.89670  0.29941  0.04916  1
 F  F10  1  0.39315  0.29292  0.54432  1
 F  F11  1  0.14907  0.29048  0.80183  1
 F  F12  1  0.89561  0.20247  0.55819  1
 F  F13  1  0.39055  0.20335  0.04172  1
 F  F14  1  0.34193  0.71736  0.19661  1
 Fe  Fe1  1  0.11721  0.00865  0.12599  1
 Fe  Fe2  1  0.87127  0.01803  0.37439  1
 Fe  Fe3  1  0.59490  0.99155  0.63360  1
 Fe  Fe4  1  0.38341  0.98111  0.86032  1
 Fe  Fe5  1  0.88279  0.50865  0.87401  1
 Fe  Fe6  1  0.40510  0.49155  0.36640  1
 Fe  Fe7  1  0.61659  0.48111  0.13968  1
 Fe  Fe8  1  0.12873  0.51803  0.62561  1
 O  O1  1  0.65797  0.28351  0.30002  1
 O  O2  1  0.34203  0.78351  0.69998  1
