CIF file written using JARVIS-Tools package.
data_Na2ZnH4Se2O10
_symmetry_space_group_name_H-M  'P-1'
_cell_length_a       5.99588
_cell_length_b       7.1614
_cell_length_c       5.58514
_cell_angle_alpha    98.5931
_cell_angle_beta     108.359
_cell_angle_gamma    108.175

_symmetry_Int_Tables_number  2
_chemical_formula_structural  Na2ZnH4Se2O10
_chemical_formula_sum  Na2ZnH4Se2O0
_cell_volume  207.94175368889483
_cell_formula_units_Z  1
loop_
  _symmetry_equiv_pos_site_id
 _symmetry_equiv_pos_as_xyz
 1  'x, y, z'
loop_
 _atom_site_type_symbol
 _atom_site_label
 _atom_site_symmetry_multiplicity
 _atom_site_fract_x
 _atom_site_fract_y
 _atom_site_fract_z
 _atom_site_fract_occupancy
 H  H1  1  0.87128  0.60784  0.85350  1
 H  H2  1  0.12872  0.39216  0.14650  1
 H  H3  1  0.15442  0.70147  0.07838  1
 H  H4  1  0.84558  0.29853  0.92162  1
 Na  Na1  1  0.72370  0.24763  0.34643  1
 Na  Na2  1  0.27630  0.75237  0.65357  1
 O  O1  1  0.03708  0.72790  0.92572  1
 O  O2  1  0.34748  0.13722  0.92918  1
 O  O3  1  0.77326  0.95492  0.59496  1
 O  O4  1  0.65252  0.86278  0.07082  1
 O  O5  1  0.82482  0.61043  0.34488  1
 O  O6  1  0.64158  0.37157  0.71635  1
 O  O7  1  0.35842  0.62843  0.28365  1
 O  O8  1  0.22674  0.04508  0.40504  1
 O  O9  1  0.17518  0.38957  0.65512  1
 O  O10  1  0.96292  0.27210  0.07428  1
 Se  Se1  1  0.33896  0.24124  0.67591  1
 Se  Se2  1  0.66104  0.75876  0.32409  1
 Zn  Zn1  1  0.00000  0.00000  0.00000  1
