CIF file written using JARVIS-Tools package.
data_KNiAu3C6N6
_symmetry_space_group_name_H-M  'P312'
_cell_length_a       6.68849
_cell_length_b       6.68849
_cell_length_c       7.79196
_cell_angle_alpha    90
_cell_angle_beta     90
_cell_angle_gamma    120

_symmetry_Int_Tables_number  149
_chemical_formula_structural  KNiAu3C6N6
_chemical_formula_sum  KNiAu3C6N6
_cell_volume  301.8788188807645
_cell_formula_units_Z  1
loop_
  _symmetry_equiv_pos_site_id
 _symmetry_equiv_pos_as_xyz
 1  'x, y, z'
loop_
 _atom_site_type_symbol
 _atom_site_label
 _atom_site_symmetry_multiplicity
 _atom_site_fract_x
 _atom_site_fract_y
 _atom_site_fract_z
 _atom_site_fract_occupancy
 Au  Au1  1  0.50341  0.00683  0.00000  1
 Au  Au2  1  0.50341  0.49659  0.00000  1
 Au  Au3  1  0.99317  0.49659  0.00000  1
 C  C1  1  0.34532  0.33805  0.78453  1
 C  C2  1  0.99273  0.65468  0.78453  1
 C  C3  1  0.66195  0.65468  0.21547  1
 C  C4  1  0.99273  0.33805  0.21547  1
 C  C5  1  0.34532  0.00727  0.21547  1
 C  C6  1  0.66195  0.00727  0.78453  1
 K  K1  1  0.33333  0.66667  0.50000  1
 N  N1  1  -0.00367  0.24223  0.33991  1
 N  N2  1  0.75777  0.00367  0.66009  1
 N  N3  1  0.24590  0.24223  0.66009  1
 N  N4  1  -0.00367  0.75410  0.66009  1
 N  N5  1  0.24590  0.00367  0.33991  1
 N  N6  1  0.75777  0.75410  0.33991  1
 Ni  Ni1  1  0.00000  0.00000  0.50000  1
