CIF file written using JARVIS-Tools package.
data_YCr2Si2
_symmetry_space_group_name_H-M  'I4/mmm'
_cell_length_a       3.85343
_cell_length_b       3.85342
_cell_length_c       6.02087
_cell_angle_alpha    108.663
_cell_angle_beta     108.663
_cell_angle_gamma    89.9999

_symmetry_Int_Tables_number  139
_chemical_formula_structural  YCr2Si2
_chemical_formula_sum  YCr2Si2
_cell_volume  79.72386727592557
_cell_formula_units_Z  1
loop_
  _symmetry_equiv_pos_site_id
 _symmetry_equiv_pos_as_xyz
 1  'x, y, z'
loop_
 _atom_site_type_symbol
 _atom_site_label
 _atom_site_symmetry_multiplicity
 _atom_site_fract_x
 _atom_site_fract_y
 _atom_site_fract_z
 _atom_site_fract_occupancy
 Cr  Cr1  1  0.25000  0.75000  0.50000  1
 Cr  Cr2  1  0.75000  0.25000  0.50000  1
 Si  Si1  1  0.61575  0.61575  0.23151  1
 Si  Si2  1  0.38425  0.38425  0.76849  1
 Y  Y1  1  0.00000  0.00000  0.00000  1
