CIF file written using JARVIS-Tools package.
data_Ba4CrRh
_symmetry_space_group_name_H-M  'F-43m'
_cell_length_a       6.892
_cell_length_b       6.892
_cell_length_c       6.892
_cell_angle_alpha    60
_cell_angle_beta     60
_cell_angle_gamma    60

_symmetry_Int_Tables_number  216
_chemical_formula_structural  Ba4CrRh
_chemical_formula_sum  Ba4CrRh
_cell_volume  231.48431478216818
_cell_formula_units_Z  1
loop_
  _symmetry_equiv_pos_site_id
 _symmetry_equiv_pos_as_xyz
 1  'x, y, z'
loop_
 _atom_site_type_symbol
 _atom_site_label
 _atom_site_symmetry_multiplicity
 _atom_site_fract_x
 _atom_site_fract_y
 _atom_site_fract_z
 _atom_site_fract_occupancy
 Ba  Ba1  1  0.12362  0.62546  0.62546  1
 Ba  Ba2  1  0.62546  0.62546  0.62546  1
 Ba  Ba3  1  0.62546  0.12362  0.62546  1
 Ba  Ba4  1  0.62546  0.62546  0.12362  1
 Cr  Cr1  1  0.25000  0.25000  0.25000  1
 Rh  Rh1  1  0.00000  0.00000  0.00000  1
