CIF file written using JARVIS-Tools package.
data_LaTmGe4Ir2
_symmetry_space_group_name_H-M  'Immm'
_cell_length_a       4.36103
_cell_length_b       8.92353
_cell_length_c       9.53138
_cell_angle_alpha    117.912
_cell_angle_beta     103.225
_cell_angle_gamma    90

_symmetry_Int_Tables_number  71
_chemical_formula_structural  LaTmGe4Ir2
_chemical_formula_sum  La2Tm2Ge8Ir4
_cell_volume  316.59638091648674
_cell_formula_units_Z  2
loop_
  _symmetry_equiv_pos_site_id
 _symmetry_equiv_pos_as_xyz
 1  'x, y, z'
loop_
 _atom_site_type_symbol
 _atom_site_label
 _atom_site_symmetry_multiplicity
 _atom_site_fract_x
 _atom_site_fract_y
 _atom_site_fract_z
 _atom_site_fract_occupancy
 Ge  Ge1  1  0.20121  0.05010  0.40241  1
 Ge  Ge2  1  0.79879  0.94990  0.59759  1
 Ge  Ge3  1  0.79879  0.64768  0.59759  1
 Ge  Ge4  1  0.20121  0.35232  0.40241  1
 Ge  Ge5  1  0.42189  0.92189  0.84378  1
 Ge  Ge6  1  0.41989  0.41989  0.83979  1
 Ge  Ge7  1  0.57811  0.07811  0.15622  1
 Ge  Ge8  1  0.58011  0.58011  0.16021  1
 Ir  Ir1  1  0.64903  0.39698  0.29807  1
 Ir  Ir2  1  0.35097  0.60302  0.70193  1
 Ir  Ir3  1  0.64903  0.90109  0.29807  1
 Ir  Ir4  1  0.35097  0.09891  0.70193  1
 La  La1  1  0.00000  0.26105  0.00000  1
 La  La2  1  1.00000  0.73895  1.00000  1
 Tm  Tm1  1  0.79357  0.29357  0.58714  1
 Tm  Tm2  1  0.20643  0.70643  0.41286  1
