CIF file written using JARVIS-Tools package.
data_ScAgGe
_symmetry_space_group_name_H-M  'P-62m'
_cell_length_a       4.01374
_cell_length_b       6.92577
_cell_length_c       6.92584
_cell_angle_alpha    120
_cell_angle_beta     90
_cell_angle_gamma    90

_symmetry_Int_Tables_number  189
_chemical_formula_structural  ScAgGe
_chemical_formula_sum  Sc3Ag3Ge3
_cell_volume  166.7329442631959
_cell_formula_units_Z  3
loop_
  _symmetry_equiv_pos_site_id
 _symmetry_equiv_pos_as_xyz
 1  'x, y, z'
loop_
 _atom_site_type_symbol
 _atom_site_label
 _atom_site_symmetry_multiplicity
 _atom_site_fract_x
 _atom_site_fract_y
 _atom_site_fract_z
 _atom_site_fract_occupancy
 Ag  Ag1  1  0.50000  0.25579  -0.00000  1
 Ag  Ag2  1  0.50000  0.74419  0.74420  1
 Ag  Ag3  1  0.50000  -0.00001  0.25580  1
 Ge  Ge1  1  0.50000  0.33332  0.66667  1
 Ge  Ge2  1  0.50000  0.66666  0.33333  1
 Ge  Ge3  1  0.00000  -0.00001  0.00000  1
 Sc  Sc1  1  0.00000  0.58484  -0.00000  1
 Sc  Sc2  1  0.00000  0.41514  0.41515  1
 Sc  Sc3  1  0.00000  0.99999  0.58485  1
