CIF file written using JARVIS-Tools package.
data_Ti4FeBi2
_symmetry_space_group_name_H-M  'I4/mcm'
_cell_length_a       4.95515
_cell_length_b       7.84972
_cell_length_c       7.84972
_cell_angle_alpha    84.2826
_cell_angle_beta     71.6014
_cell_angle_gamma    71.6013

_symmetry_Int_Tables_number  140
_chemical_formula_structural  Ti4FeBi2
_chemical_formula_sum  Ti8Fe2Bi4
_cell_volume  274.909580914061
_cell_formula_units_Z  2
loop_
  _symmetry_equiv_pos_site_id
 _symmetry_equiv_pos_as_xyz
 1  'x, y, z'
loop_
 _atom_site_type_symbol
 _atom_site_label
 _atom_site_symmetry_multiplicity
 _atom_site_fract_x
 _atom_site_fract_y
 _atom_site_fract_z
 _atom_site_fract_occupancy
 Bi  Bi1  1  0.36018  0.77963  0.50000  1
 Bi  Bi2  1  0.13982  0.50000  0.22037  1
 Bi  Bi3  1  0.63982  0.22037  0.50000  1
 Bi  Bi4  1  0.86018  0.50000  0.77963  1
 Fe  Fe1  1  0.25000  0.00000  -0.00000  1
 Fe  Fe2  1  0.75000  -0.00000  0.00000  1
 Ti  Ti1  1  0.57927  0.72952  0.11194  1
 Ti  Ti2  1  0.92073  0.88806  0.27048  1
 Ti  Ti3  1  0.30880  0.11194  0.27047  1
 Ti  Ti4  1  0.80880  0.27047  0.11194  1
 Ti  Ti5  1  0.69120  0.88806  0.72953  1
 Ti  Ti6  1  0.07927  0.11194  0.72952  1
 Ti  Ti7  1  0.42073  0.27048  0.88806  1
 Ti  Ti8  1  0.19120  0.72953  0.88806  1
