CIF file written using JARVIS-Tools package.
data_Er3Co2Ge4
_symmetry_space_group_name_H-M  'C2/m'
_cell_length_a       4.13098
_cell_length_b       5.66328
_cell_length_c       7.95703
_cell_angle_alpha    106.607
_cell_angle_beta     90
_cell_angle_gamma    111.39

_symmetry_Int_Tables_number  12
_chemical_formula_structural  Er3Co2Ge4
_chemical_formula_sum  Er3Co2Ge4
_cell_volume  164.9634979058346
_cell_formula_units_Z  1
loop_
  _symmetry_equiv_pos_site_id
 _symmetry_equiv_pos_as_xyz
 1  'x, y, z'
loop_
 _atom_site_type_symbol
 _atom_site_label
 _atom_site_symmetry_multiplicity
 _atom_site_fract_x
 _atom_site_fract_y
 _atom_site_fract_z
 _atom_site_fract_occupancy
 Co  Co1  1  0.30784  0.61567  0.62657  1
 Co  Co2  1  0.69216  0.38433  0.37343  1
 Er  Er1  1  0.37506  0.75011  0.30716  1
 Er  Er2  1  0.62494  0.24989  0.69284  1
 Er  Er3  1  0.00000  0.00000  0.00000  1
 Ge  Ge1  1  0.09436  0.18872  0.39703  1
 Ge  Ge2  1  0.90564  0.81128  0.60297  1
 Ge  Ge3  1  0.70588  0.41176  0.08029  1
 Ge  Ge4  1  0.29412  0.58824  0.91971  1
