CIF file written using JARVIS-Tools package.
data_Li3MnF7
_symmetry_space_group_name_H-M  'R3m'
_cell_length_a       5.61997
_cell_length_b       6.02921
_cell_length_c       6.0292
_cell_angle_alpha    120
_cell_angle_beta     122.439
_cell_angle_gamma    90

_symmetry_Int_Tables_number  160
_chemical_formula_structural  Li3MnF7
_chemical_formula_sum  Li3MnF7
_cell_volume  138.89936495477627
_cell_formula_units_Z  1
loop_
  _symmetry_equiv_pos_site_id
 _symmetry_equiv_pos_as_xyz
 1  'x, y, z'
loop_
 _atom_site_type_symbol
 _atom_site_label
 _atom_site_symmetry_multiplicity
 _atom_site_fract_x
 _atom_site_fract_y
 _atom_site_fract_z
 _atom_site_fract_occupancy
 F  F1  1  0.22190  0.21654  0.43308  1
 F  F2  1  0.22190  0.21654  0.00536  1
 F  F3  1  0.22190  0.78882  0.00536  1
 F  F4  1  0.76484  0.25495  0.50989  1
 F  F5  1  0.74727  0.76807  0.53615  1
 F  F6  1  0.74727  0.21113  0.97920  1
 F  F7  1  0.74727  0.76807  0.97920  1
 Li  Li1  1  0.65504  0.37810  0.75620  1
 Li  Li2  1  0.65504  0.37810  0.27694  1
 Li  Li3  1  0.65504  0.89884  0.27694  1
 Mn  Mn1  1  0.99313  0.99771  0.99542  1
