CIF file written using JARVIS-Tools package.
data_BiPO4
_symmetry_space_group_name_H-M  'Cmcm'
_cell_length_a       4.75419
_cell_length_b       4.75512
_cell_length_c       7.19499
_cell_angle_alpha    90
_cell_angle_beta     90
_cell_angle_gamma    95.4463

_symmetry_Int_Tables_number  63
_chemical_formula_structural  BiPO4
_chemical_formula_sum  Bi2P2O8
_cell_volume  161.92102905827963
_cell_formula_units_Z  2
loop_
  _symmetry_equiv_pos_site_id
 _symmetry_equiv_pos_as_xyz
 1  'x, y, z'
loop_
 _atom_site_type_symbol
 _atom_site_label
 _atom_site_symmetry_multiplicity
 _atom_site_fract_x
 _atom_site_fract_y
 _atom_site_fract_z
 _atom_site_fract_occupancy
 Bi  Bi1  1  0.86325  0.86304  0.50000  1
 Bi  Bi2  1  0.13675  0.13696  -0.00000  1
 O  O1  1  0.19357  0.19314  0.33119  1
 O  O2  1  0.68485  0.33331  -0.00000  1
 O  O3  1  0.80643  0.80686  0.83119  1
 O  O4  1  0.80643  0.80685  0.16882  1
 O  O5  1  0.19357  0.19315  0.66882  1
 O  O6  1  0.31515  0.66669  0.50000  1
 O  O7  1  0.66711  0.31510  0.50000  1
 O  O8  1  0.33289  0.68490  -0.00000  1
 P  P1  1  0.34638  0.34608  0.50000  1
 P  P2  1  0.65362  0.65392  0.00000  1
