CIF file written using JARVIS-Tools package.
data_MnPRh
_symmetry_space_group_name_H-M  'P-62m'
_cell_length_a       3.57159
_cell_length_b       6.23819
_cell_length_c       6.23836
_cell_angle_alpha    119.999
_cell_angle_beta     90
_cell_angle_gamma    90

_symmetry_Int_Tables_number  189
_chemical_formula_structural  MnPRh
_chemical_formula_sum  Mn3P3Rh3
_cell_volume  120.37181010477184
_cell_formula_units_Z  3
loop_
  _symmetry_equiv_pos_site_id
 _symmetry_equiv_pos_as_xyz
 1  'x, y, z'
loop_
 _atom_site_type_symbol
 _atom_site_label
 _atom_site_symmetry_multiplicity
 _atom_site_fract_x
 _atom_site_fract_y
 _atom_site_fract_z
 _atom_site_fract_occupancy
 Mn  Mn1  1  0.50000  0.59987  -0.00000  1
 Mn  Mn2  1  0.50000  0.40010  0.40011  1
 Mn  Mn3  1  0.50000  -0.00001  0.59989  1
 P  P1  1  0.00000  0.33331  0.66665  1
 P  P2  1  0.00000  0.66666  0.33335  1
 P  P3  1  0.50000  -0.00001  -0.00000  1
 Rh  Rh1  1  0.00000  0.26569  -0.00000  1
 Rh  Rh2  1  0.00000  0.73430  0.73432  1
 Rh  Rh3  1  0.00000  -0.00002  0.26568  1
