CIF file written using JARVIS-Tools package.
data_DyMgAg
_symmetry_space_group_name_H-M  'P-62m'
_cell_length_a       4.15703
_cell_length_b       7.59905
_cell_length_c       7.59916
_cell_angle_alpha    119.999
_cell_angle_beta     90
_cell_angle_gamma    90

_symmetry_Int_Tables_number  189
_chemical_formula_structural  DyMgAg
_chemical_formula_sum  Dy3Mg3Ag3
_cell_volume  207.89338331927954
_cell_formula_units_Z  3
loop_
  _symmetry_equiv_pos_site_id
 _symmetry_equiv_pos_as_xyz
 1  'x, y, z'
loop_
 _atom_site_type_symbol
 _atom_site_label
 _atom_site_symmetry_multiplicity
 _atom_site_fract_x
 _atom_site_fract_y
 _atom_site_fract_z
 _atom_site_fract_occupancy
 Ag  Ag1  1  0.00000  0.33332  0.66666  1
 Ag  Ag2  1  0.00000  0.66666  0.33334  1
 Ag  Ag3  1  0.50000  0.99999  0.00000  1
 Dy  Dy1  1  0.50000  0.58623  -0.00000  1
 Dy  Dy2  1  0.50000  0.41375  0.41376  1
 Dy  Dy3  1  0.50000  -0.00001  0.58624  1
 Mg  Mg1  1  0.00000  0.24576  0.00000  1
 Mg  Mg2  1  0.00000  0.75422  0.75423  1
 Mg  Mg3  1  0.00000  -0.00001  0.24577  1
