CIF file written using JARVIS-Tools package.
data_TmTlO2
_symmetry_space_group_name_H-M  'R-3m'
_cell_length_a       3.42981
_cell_length_b       6.74904
_cell_length_c       3.42981
_cell_angle_alpha    104.72
_cell_angle_beta     59.9999
_cell_angle_gamma    104.72

_symmetry_Int_Tables_number  166
_chemical_formula_structural  TmTlO2
_chemical_formula_sum  TmTlO2
_cell_volume  65.73026159530554
_cell_formula_units_Z  1
loop_
  _symmetry_equiv_pos_site_id
 _symmetry_equiv_pos_as_xyz
 1  'x, y, z'
loop_
 _atom_site_type_symbol
 _atom_site_label
 _atom_site_symmetry_multiplicity
 _atom_site_fract_x
 _atom_site_fract_y
 _atom_site_fract_z
 _atom_site_fract_occupancy
 O  O1  1  0.22340  0.67021  0.22340  1
 O  O2  1  0.77660  0.32979  0.77660  1
 Tl  Tl1  1  0.00000  0.00000  0.00000  1
 Tm  Tm1  1  0.50000  0.50000  0.50000  1
