CIF file written using JARVIS-Tools package.
data_BaYPd2
_symmetry_space_group_name_H-M  'I-4m2'
_cell_length_a       6.24178
_cell_length_b       6.24178
_cell_length_c       6.24178
_cell_angle_alpha    139.907
_cell_angle_beta     139.907
_cell_angle_gamma    57.9944

_symmetry_Int_Tables_number  119
_chemical_formula_structural  BaYPd2
_chemical_formula_sum  BaYPd2
_cell_volume  99.96637604532997
_cell_formula_units_Z  1
loop_
  _symmetry_equiv_pos_site_id
 _symmetry_equiv_pos_as_xyz
 1  'x, y, z'
loop_
 _atom_site_type_symbol
 _atom_site_label
 _atom_site_symmetry_multiplicity
 _atom_site_fract_x
 _atom_site_fract_y
 _atom_site_fract_z
 _atom_site_fract_occupancy
 Ba  Ba1  1  0.25000  0.75000  0.50000  1
 Pd  Pd1  1  0.00000  0.00000  0.00000  1
 Pd  Pd2  1  0.75000  0.25000  0.50000  1
 Y  Y1  1  0.50000  0.50000  0.00000  1
