CIF file written using JARVIS-Tools package.
data_BaHf4Cu
_symmetry_space_group_name_H-M  'F-43m'
_cell_length_a       5.96576
_cell_length_b       5.96576
_cell_length_c       5.96576
_cell_angle_alpha    60
_cell_angle_beta     60
_cell_angle_gamma    60

_symmetry_Int_Tables_number  216
_chemical_formula_structural  BaHf4Cu
_chemical_formula_sum  BaHf4Cu
_cell_volume  150.1351346125307
_cell_formula_units_Z  1
loop_
  _symmetry_equiv_pos_site_id
 _symmetry_equiv_pos_as_xyz
 1  'x, y, z'
loop_
 _atom_site_type_symbol
 _atom_site_label
 _atom_site_symmetry_multiplicity
 _atom_site_fract_x
 _atom_site_fract_y
 _atom_site_fract_z
 _atom_site_fract_occupancy
 Ba  Ba1  1  0.25000  0.25000  0.25000  1
 Cu  Cu1  1  0.00000  0.00000  0.00000  1
 Hf  Hf1  1  0.12343  0.62552  0.62552  1
 Hf  Hf2  1  0.62552  0.62552  0.62552  1
 Hf  Hf3  1  0.62552  0.12343  0.62552  1
 Hf  Hf4  1  0.62552  0.62552  0.12343  1
