CIF file written using JARVIS-Tools package.
data_Np2InRh2
_symmetry_space_group_name_H-M  'P4/mbm'
_cell_length_a       3.62366
_cell_length_b       7.59446
_cell_length_c       7.59457
_cell_angle_alpha    90.0012
_cell_angle_beta     89.9974
_cell_angle_gamma    89.9981

_symmetry_Int_Tables_number  127
_chemical_formula_structural  Np2InRh2
_chemical_formula_sum  Np4In2Rh4
_cell_volume  209.00043277197122
_cell_formula_units_Z  2
loop_
  _symmetry_equiv_pos_site_id
 _symmetry_equiv_pos_as_xyz
 1  'x, y, z'
loop_
 _atom_site_type_symbol
 _atom_site_label
 _atom_site_symmetry_multiplicity
 _atom_site_fract_x
 _atom_site_fract_y
 _atom_site_fract_z
 _atom_site_fract_occupancy
 In  In1  1  0.00000  -0.00000  0.00000  1
 In  In2  1  0.00000  0.50000  0.50000  1
 Np  Np1  1  0.49998  0.83790  0.33791  1
 Np  Np2  1  0.50002  0.16209  0.66209  1
 Np  Np3  1  0.49999  0.66209  0.83791  1
 Np  Np4  1  0.50001  0.33791  0.16209  1
 Rh  Rh1  1  -0.00000  0.64063  0.14063  1
 Rh  Rh2  1  -0.00000  0.85937  0.64063  1
 Rh  Rh3  1  0.00000  0.35937  0.85937  1
 Rh  Rh4  1  0.00000  0.14064  0.35937  1
