CIF file written using JARVIS-Tools package.
data_NdZnSbO
_symmetry_space_group_name_H-M  'P4/nmm'
_cell_length_a       4.18996
_cell_length_b       4.18996
_cell_length_c       9.57255
_cell_angle_alpha    90
_cell_angle_beta     90
_cell_angle_gamma    90

_symmetry_Int_Tables_number  129
_chemical_formula_structural  NdZnSbO
_chemical_formula_sum  Nd2Zn2Sb2O2
_cell_volume  168.05307723745463
_cell_formula_units_Z  2
loop_
  _symmetry_equiv_pos_site_id
 _symmetry_equiv_pos_as_xyz
 1  'x, y, z'
loop_
 _atom_site_type_symbol
 _atom_site_label
 _atom_site_symmetry_multiplicity
 _atom_site_fract_x
 _atom_site_fract_y
 _atom_site_fract_z
 _atom_site_fract_occupancy
 Nd  Nd1  1  0.00000  0.50000  0.88268  1
 Nd  Nd2  1  0.50000  0.00000  0.11732  1
 O  O1  1  0.50000  0.50000  0.00000  1
 O  O2  1  0.00000  0.00000  0.00000  1
 Sb  Sb1  1  0.50000  0.00000  0.68510  1
 Sb  Sb2  1  0.00000  0.50000  0.31490  1
 Zn  Zn1  1  0.00000  0.00000  0.50000  1
 Zn  Zn2  1  0.50000  0.50000  0.50000  1
