CIF file written using JARVIS-Tools package.
data_B2Mo2Ru
_symmetry_space_group_name_H-M  'Pnnm'
_cell_length_a       3.10127
_cell_length_b       7.53161
_cell_length_c       9.60732
_cell_angle_alpha    90
_cell_angle_beta     90
_cell_angle_gamma    90

_symmetry_Int_Tables_number  58
_chemical_formula_structural  B2Mo2Ru
_chemical_formula_sum  B8Mo8Ru4
_cell_volume  224.40316173322603
_cell_formula_units_Z  4
loop_
  _symmetry_equiv_pos_site_id
 _symmetry_equiv_pos_as_xyz
 1  'x, y, z'
loop_
 _atom_site_type_symbol
 _atom_site_label
 _atom_site_symmetry_multiplicity
 _atom_site_fract_x
 _atom_site_fract_y
 _atom_site_fract_z
 _atom_site_fract_occupancy
 B  B1  1  0.00000  0.38764  0.04060  1
 B  B2  1  0.00000  0.61236  0.95940  1
 B  B3  1  0.50000  0.88764  0.45940  1
 B  B4  1  0.50000  0.11236  0.54060  1
 B  B5  1  0.00000  0.37922  0.23257  1
 B  B6  1  0.00000  0.62078  0.76743  1
 B  B7  1  0.50000  0.87922  0.26743  1
 B  B8  1  0.50000  0.12078  0.73257  1
 Mo  Mo1  1  0.50000  0.80673  0.87023  1
 Mo  Mo2  1  0.00000  0.69327  0.37023  1
 Mo  Mo3  1  0.50000  0.19327  0.12977  1
 Mo  Mo4  1  0.00000  0.30673  0.62977  1
 Mo  Mo5  1  0.50000  0.42055  0.86089  1
 Mo  Mo6  1  0.00000  0.07945  0.36089  1
 Mo  Mo7  1  0.50000  0.57945  0.13911  1
 Mo  Mo8  1  0.00000  0.92055  0.63911  1
 Ru  Ru1  1  0.00000  0.11757  0.89273  1
 Ru  Ru2  1  0.50000  0.38243  0.39273  1
 Ru  Ru3  1  0.00000  0.88243  0.10727  1
 Ru  Ru4  1  0.50000  0.61757  0.60727  1
