CIF file written using JARVIS-Tools package.
data_EuCu
_symmetry_space_group_name_H-M  'Pnma'
_cell_length_a       4.50397
_cell_length_b       5.47125
_cell_length_c       7.19947
_cell_angle_alpha    90
_cell_angle_beta     90
_cell_angle_gamma    90

_symmetry_Int_Tables_number  62
_chemical_formula_structural  EuCu
_chemical_formula_sum  Eu4Cu4
_cell_volume  177.41176582561982
_cell_formula_units_Z  4
loop_
  _symmetry_equiv_pos_site_id
 _symmetry_equiv_pos_as_xyz
 1  'x, y, z'
loop_
 _atom_site_type_symbol
 _atom_site_label
 _atom_site_symmetry_multiplicity
 _atom_site_fract_x
 _atom_site_fract_y
 _atom_site_fract_z
 _atom_site_fract_occupancy
 Cu  Cu1  1  0.25000  0.87351  0.53482  1
 Cu  Cu2  1  0.25000  0.62649  0.03482  1
 Cu  Cu3  1  0.75000  0.12649  0.46518  1
 Cu  Cu4  1  0.75000  0.37351  0.96518  1
 Eu  Eu1  1  0.25000  0.36824  0.68073  1
 Eu  Eu2  1  0.25000  0.13176  0.18073  1
 Eu  Eu3  1  0.75000  0.63176  0.31927  1
 Eu  Eu4  1  0.75000  0.86824  0.81927  1
