CIF file written using JARVIS-Tools package.
data_MnO2
_symmetry_space_group_name_H-M  'C2/m'
_cell_length_a       2.87145
_cell_length_b       7.09649
_cell_length_c       8.84835
_cell_angle_alpha    91.4298
_cell_angle_beta     90.0027
_cell_angle_gamma    101.673

_symmetry_Int_Tables_number  12
_chemical_formula_structural  MnO2
_chemical_formula_sum  Mn6O2
_cell_volume  176.51812721524578
_cell_formula_units_Z  6
loop_
  _symmetry_equiv_pos_site_id
 _symmetry_equiv_pos_as_xyz
 1  'x, y, z'
loop_
 _atom_site_type_symbol
 _atom_site_label
 _atom_site_symmetry_multiplicity
 _atom_site_fract_x
 _atom_site_fract_y
 _atom_site_fract_z
 _atom_site_fract_occupancy
 Mn  Mn1  1  0.34269  0.67980  0.74297  1
 Mn  Mn2  1  0.34268  0.67980  0.24298  1
 Mn  Mn3  1  0.66174  0.31791  0.75529  1
 Mn  Mn4  1  0.66173  0.31791  0.25529  1
 Mn  Mn5  1  0.00222  0.99886  0.99914  1
 Mn  Mn6  1  0.00222  0.99886  0.49913  1
 O  O1  1  0.55967  0.11380  0.89469  1
 O  O2  1  0.55967  0.11379  0.39469  1
 O  O3  1  0.77752  0.54950  0.64071  1
 O  O4  1  0.44476  0.88391  0.10358  1
 O  O5  1  0.44476  0.88391  0.60357  1
 O  O6  1  0.89654  0.78749  0.35591  1
 O  O7  1  0.89655  0.78749  0.85590  1
 O  O8  1  0.10789  0.21022  0.64236  1
 O  O9  1  0.22692  0.44821  0.85756  1
 O  O10  1  0.22691  0.44821  0.35756  1
 O  O11  1  0.10788  0.21022  0.14236  1
 O  O12  1  0.77751  0.54950  0.14071  1
