CIF file written using JARVIS-Tools package.
data_Rb7NbAs4
_symmetry_space_group_name_H-M  'Pmn2_1'
_cell_length_a       8.55015
_cell_length_b       9.54147
_cell_length_c       10.5657
_cell_angle_alpha    90
_cell_angle_beta     90
_cell_angle_gamma    90

_symmetry_Int_Tables_number  31
_chemical_formula_structural  Rb7NbAs4
_chemical_formula_sum  Rb4Nb2As8
_cell_volume  861.9601624757676
_cell_formula_units_Z  2
loop_
  _symmetry_equiv_pos_site_id
 _symmetry_equiv_pos_as_xyz
 1  'x, y, z'
loop_
 _atom_site_type_symbol
 _atom_site_label
 _atom_site_symmetry_multiplicity
 _atom_site_fract_x
 _atom_site_fract_y
 _atom_site_fract_z
 _atom_site_fract_occupancy
 As  As1  1  0.90640  0.80716  0.19970  1
 As  As2  1  0.90640  0.80716  0.80030  1
 As  As3  1  0.42336  0.57886  0.50000  1
 As  As4  1  0.92336  0.42114  0.00000  1
 As  As5  1  0.79312  0.31498  0.50000  1
 As  As6  1  0.29312  0.68502  0.00000  1
 As  As7  1  0.40640  0.19284  0.30030  1
 As  As8  1  0.40640  0.19284  0.69970  1
 Nb  Nb1  1  0.49943  0.32221  0.50000  1
 Nb  Nb2  1  -0.00057  0.67779  0.00000  1
 Rb  Rb1  1  0.12178  0.46516  0.70849  1
 Rb  Rb2  1  0.63134  0.96353  0.50000  1
 Rb  Rb3  1  0.13134  0.03647  0.00000  1
 Rb  Rb4  1  0.34007  0.34230  0.00000  1
 Rb  Rb5  1  0.84007  0.65770  0.50000  1
 Rb  Rb6  1  0.79671  0.16776  0.78769  1
 Rb  Rb7  1  0.62178  0.53484  0.79151  1
 Rb  Rb8  1  0.62178  0.53484  0.20849  1
 Rb  Rb9  1  0.12178  0.46516  0.29151  1
 Rb  Rb10  1  0.29671  0.83224  0.71231  1
 Rb  Rb11  1  0.79671  0.16776  0.21231  1
 Rb  Rb12  1  0.29671  0.83224  0.28769  1
 Rb  Rb13  1  0.10180  0.09004  0.50000  1
 Rb  Rb14  1  0.60180  0.90996  0.00000  1
