CIF file written using JARVIS-Tools package.
data_SrCu2B2O6
_symmetry_space_group_name_H-M  'I4/mcm'
_cell_length_a       7.23968
_cell_length_b       7.23968
_cell_length_c       7.23968
_cell_angle_alpha    102.102
_cell_angle_beta     102.102
_cell_angle_gamma    125.498

_symmetry_Int_Tables_number  140
_chemical_formula_structural  SrCu2B2O6
_chemical_formula_sum  Sr2Cu4B4O2
_cell_volume  274.63856345480934
_cell_formula_units_Z  2
loop_
  _symmetry_equiv_pos_site_id
 _symmetry_equiv_pos_as_xyz
 1  'x, y, z'
loop_
 _atom_site_type_symbol
 _atom_site_label
 _atom_site_symmetry_multiplicity
 _atom_site_fract_x
 _atom_site_fract_y
 _atom_site_fract_z
 _atom_site_fract_occupancy
 B  B1  1  0.70397  0.20397  0.90795  1
 B  B2  1  0.20397  0.29603  0.50000  1
 B  B3  1  0.29603  0.79603  0.09205  1
 B  B4  1  0.79603  0.70397  0.50000  1
 Cu  Cu1  1  0.61405  0.88595  0.50000  1
 Cu  Cu2  1  0.38595  0.11405  0.50000  1
 Cu  Cu3  1  0.88595  0.38595  0.27190  1
 Cu  Cu4  1  0.11405  0.61405  0.72810  1
 O  O1  1  0.59803  0.09803  0.69606  1
 O  O2  1  0.14679  0.82799  0.97478  1
 O  O3  1  0.17201  0.14679  0.31879  1
 O  O4  1  0.82799  0.85321  0.68121  1
 O  O5  1  0.64679  0.67201  0.31879  1
 O  O6  1  0.35321  0.32799  0.68121  1
 O  O7  1  0.09803  0.40197  0.50000  1
 O  O8  1  0.67201  0.35321  0.02522  1
 O  O9  1  0.90197  0.59803  0.50000  1
 O  O10  1  0.40197  0.90197  0.30394  1
 O  O11  1  0.85321  0.17201  0.02522  1
 O  O12  1  0.32799  0.64679  0.97478  1
 Sr  Sr1  1  0.25000  0.25000  0.00000  1
 Sr  Sr2  1  0.75000  0.75000  0.00000  1
