CIF file written using JARVIS-Tools package.
data_KAsF6
_symmetry_space_group_name_H-M  'R-3m'
_cell_length_a       4.89278
_cell_length_b       4.89278
_cell_length_c       4.89278
_cell_angle_alpha    98.1357
_cell_angle_beta     98.1358
_cell_angle_gamma    98.1357

_symmetry_Int_Tables_number  166
_chemical_formula_structural  KAsF6
_chemical_formula_sum  KAsF6
_cell_volume  113.21381288986268
_cell_formula_units_Z  1
loop_
  _symmetry_equiv_pos_site_id
 _symmetry_equiv_pos_as_xyz
 1  'x, y, z'
loop_
 _atom_site_type_symbol
 _atom_site_label
 _atom_site_symmetry_multiplicity
 _atom_site_fract_x
 _atom_site_fract_y
 _atom_site_fract_z
 _atom_site_fract_occupancy
 As  As1  1  0.00000  0.00000  0.00000  1
 F  F1  1  0.74273  0.07910  0.74273  1
 F  F2  1  0.07910  0.74273  0.74273  1
 F  F3  1  0.25727  0.25727  0.92090  1
 F  F4  1  0.92090  0.25727  0.25727  1
 F  F5  1  0.25727  0.92090  0.25727  1
 F  F6  1  0.74273  0.74273  0.07910  1
 K  K1  1  0.50000  0.50000  0.50000  1
