CIF file written using JARVIS-Tools package.
data_BaTi2Cu
_symmetry_space_group_name_H-M  'I4/mmm'
_cell_length_a       5.82076
_cell_length_b       5.82076
_cell_length_c       5.82076
_cell_angle_alpha    137.91
_cell_angle_beta     137.91
_cell_angle_gamma    61.0414

_symmetry_Int_Tables_number  139
_chemical_formula_structural  BaTi2Cu
_chemical_formula_sum  BaTi2Cu
_cell_volume  87.63292345796975
_cell_formula_units_Z  1
loop_
  _symmetry_equiv_pos_site_id
 _symmetry_equiv_pos_as_xyz
 1  'x, y, z'
loop_
 _atom_site_type_symbol
 _atom_site_label
 _atom_site_symmetry_multiplicity
 _atom_site_fract_x
 _atom_site_fract_y
 _atom_site_fract_z
 _atom_site_fract_occupancy
 Ba  Ba1  1  0.25000  0.75000  0.50000  1
 Cu  Cu1  1  0.75000  0.25000  0.50000  1
 Ti  Ti1  1  0.00000  0.00000  0.00000  1
 Ti  Ti2  1  0.50000  0.50000  0.00000  1
