CIF file written using JARVIS-Tools package.
data_TlSb3S5
_symmetry_space_group_name_H-M  'P2_1/c'
_cell_length_a       7.28176
_cell_length_b       8.93033
_cell_length_c       15.8275
_cell_angle_alpha    90
_cell_angle_beta     90
_cell_angle_gamma    112.667

_symmetry_Int_Tables_number  14
_chemical_formula_structural  TlSb3S5
_chemical_formula_sum  Tl4Sb2S20
_cell_volume  949.7440129574999
_cell_formula_units_Z  4
loop_
  _symmetry_equiv_pos_site_id
 _symmetry_equiv_pos_as_xyz
 1  'x, y, z'
loop_
 _atom_site_type_symbol
 _atom_site_label
 _atom_site_symmetry_multiplicity
 _atom_site_fract_x
 _atom_site_fract_y
 _atom_site_fract_z
 _atom_site_fract_occupancy
 S  S1  1  0.28295  0.26414  0.65768  1
 S  S2  1  0.32391  0.38767  0.23123  1
 S  S3  1  0.32391  0.88767  0.26877  1
 S  S4  1  0.67609  0.61233  0.76877  1
 S  S5  1  0.21861  0.32946  0.87249  1
 S  S6  1  0.78139  0.17054  0.37249  1
 S  S7  1  0.78139  0.67054  0.12751  1
 S  S8  1  0.77814  0.89550  0.56305  1
 S  S9  1  0.28295  0.76414  0.84232  1
 S  S10  1  0.25239  0.01001  0.05292  1
 S  S11  1  0.25239  0.51001  0.44708  1
 S  S12  1  0.74761  0.98999  0.94708  1
 S  S13  1  0.77814  0.39550  0.93695  1
 S  S14  1  0.22186  0.10450  0.43695  1
 S  S15  1  0.22186  0.60450  0.06305  1
 S  S16  1  0.21861  0.82946  0.62751  1
 S  S17  1  0.67609  0.11233  0.73123  1
 S  S18  1  0.71705  0.73586  0.34232  1
 S  S19  1  0.71705  0.23586  0.15768  1
 S  S20  1  0.74761  0.48999  0.55292  1
 Sb  Sb1  1  0.47024  0.60777  0.90282  1
 Sb  Sb2  1  0.52976  0.89223  0.40282  1
 Sb  Sb3  1  0.52976  0.39223  0.09718  1
 Sb  Sb4  1  0.47024  0.10777  0.59718  1
 Sb  Sb5  1  0.99618  0.27628  0.00529  1
 Sb  Sb6  1  0.00382  0.72372  0.99471  1
 Sb  Sb7  1  0.49981  0.57456  0.62707  1
 Sb  Sb8  1  0.50019  0.92544  0.12707  1
 Sb  Sb9  1  0.50019  0.42544  0.37293  1
 Sb  Sb10  1  0.49981  0.07456  0.87293  1
 Sb  Sb11  1  0.99618  0.77628  0.49471  1
 Sb  Sb12  1  0.00382  0.22372  0.50529  1
 Tl  Tl1  1  0.01558  0.03909  0.23511  1
 Tl  Tl2  1  0.01558  0.53909  0.26489  1
 Tl  Tl3  1  0.98442  0.46091  0.73511  1
 Tl  Tl4  1  0.98442  0.96091  0.76489  1
