CIF file written using JARVIS-Tools package.
data_Ba2CaPd3O6
_symmetry_space_group_name_H-M  'Fmmm'
_cell_length_a       7.25198
_cell_length_b       7.25197
_cell_length_c       8.74304
_cell_angle_alpha    107.892
_cell_angle_beta     107.892
_cell_angle_gamma    105.023

_symmetry_Int_Tables_number  69
_chemical_formula_structural  Ba2CaPd3O6
_chemical_formula_sum  Ba4Ca2Pd6O2
_cell_volume  383.3533290336918
_cell_formula_units_Z  2
loop_
  _symmetry_equiv_pos_site_id
 _symmetry_equiv_pos_as_xyz
 1  'x, y, z'
loop_
 _atom_site_type_symbol
 _atom_site_label
 _atom_site_symmetry_multiplicity
 _atom_site_fract_x
 _atom_site_fract_y
 _atom_site_fract_z
 _atom_site_fract_occupancy
 Ba  Ba1  1  0.22838  0.77162  0.00000  1
 Ba  Ba2  1  0.25000  0.75000  0.50000  1
 Ba  Ba3  1  0.75000  0.25000  0.50000  1
 Ba  Ba4  1  0.77162  0.22838  -0.00000  1
 Ca  Ca1  1  0.32875  0.32875  0.65750  1
 Ca  Ca2  1  0.67125  0.67125  0.34250  1
 O  O1  1  0.90571  0.67013  0.20315  1
 O  O2  1  0.29744  0.53302  0.20315  1
 O  O3  1  0.32987  0.09429  0.79685  1
 O  O4  1  0.53302  0.29744  0.20315  1
 O  O5  1  0.09429  0.32987  0.79685  1
 O  O6  1  0.92404  0.68729  0.61133  1
 O  O7  1  0.67013  0.90571  0.20315  1
 O  O8  1  0.68729  0.92404  0.61133  1
 O  O9  1  0.70256  0.46698  0.79685  1
 O  O10  1  0.46698  0.70256  0.79685  1
 O  O11  1  0.07596  0.31271  0.38867  1
 O  O12  1  0.31271  0.07596  0.38867  1
 Pd  Pd1  1  0.30999  0.30999  0.30264  1
 Pd  Pd2  1  0.69001  0.69001  0.69736  1
 Pd  Pd3  1  0.99265  0.99265  0.30264  1
 Pd  Pd4  1  0.67281  0.67281  -0.00000  1
 Pd  Pd5  1  0.32719  0.32719  0.00000  1
 Pd  Pd6  1  0.00735  0.00735  0.69736  1
