CIF file written using JARVIS-Tools package.
data_LaGaO3
_symmetry_space_group_name_H-M  'Imma'
_cell_length_a       5.52075
_cell_length_b       5.58918
_cell_length_c       7.8219
_cell_angle_alpha    90
_cell_angle_beta     90
_cell_angle_gamma    90

_symmetry_Int_Tables_number  74
_chemical_formula_structural  LaGaO3
_chemical_formula_sum  La4Ga4O2
_cell_volume  241.356518600942
_cell_formula_units_Z  4
loop_
  _symmetry_equiv_pos_site_id
 _symmetry_equiv_pos_as_xyz
 1  'x, y, z'
loop_
 _atom_site_type_symbol
 _atom_site_label
 _atom_site_symmetry_multiplicity
 _atom_site_fract_x
 _atom_site_fract_y
 _atom_site_fract_z
 _atom_site_fract_occupancy
 Ga  Ga1  1  0.00000  0.50000  0.50000  1
 Ga  Ga2  1  0.50000  0.00000  0.50000  1
 Ga  Ga3  1  0.50000  0.00000  0.00000  1
 Ga  Ga4  1  0.00000  0.50000  0.00000  1
 La  La1  1  0.99978  0.99260  0.75000  1
 La  La2  1  0.50022  0.49260  0.25000  1
 La  La3  1  0.00022  0.00740  0.25000  1
 La  La4  1  0.49978  0.50740  0.75000  1
 O  O1  1  0.24950  0.75051  0.95674  1
 O  O2  1  0.25050  0.25051  0.45674  1
 O  O3  1  0.74950  0.74949  0.95674  1
 O  O4  1  0.75050  0.24949  0.04326  1
 O  O5  1  0.24950  0.75051  0.54326  1
 O  O6  1  0.75050  0.24949  0.45674  1
 O  O7  1  0.99974  0.57862  0.25000  1
 O  O8  1  0.49974  0.92138  0.25000  1
 O  O9  1  0.25050  0.25051  0.04326  1
 O  O10  1  0.74950  0.74949  0.54326  1
 O  O11  1  0.50026  0.07862  0.75000  1
 O  O12  1  0.00026  0.42138  0.75000  1
