CIF file written using JARVIS-Tools package.
data_BaPIr2
_symmetry_space_group_name_H-M  'P4/mmm'
_cell_length_a       4.31607
_cell_length_b       4.31607
_cell_length_c       4.31164
_cell_angle_alpha    90
_cell_angle_beta     90
_cell_angle_gamma    90

_symmetry_Int_Tables_number  123
_chemical_formula_structural  BaPIr2
_chemical_formula_sum  BaPIr2
_cell_volume  80.31918750266773
_cell_formula_units_Z  1
loop_
  _symmetry_equiv_pos_site_id
 _symmetry_equiv_pos_as_xyz
 1  'x, y, z'
loop_
 _atom_site_type_symbol
 _atom_site_label
 _atom_site_symmetry_multiplicity
 _atom_site_fract_x
 _atom_site_fract_y
 _atom_site_fract_z
 _atom_site_fract_occupancy
 Ba  Ba1  1  0.00000  0.00000  0.50000  1
 Ir  Ir1  1  0.50000  0.00000  0.00000  1
 Ir  Ir2  1  0.00000  0.50000  0.00000  1
 P  P1  1  0.50000  0.50000  0.50000  1
