CIF file written using JARVIS-Tools package.
data_Ba3Zn2As4
_symmetry_space_group_name_H-M  'C2/m'
_cell_length_a       4.51093
_cell_length_b       7.26978
_cell_length_c       8.77719
_cell_angle_alpha    111.901
_cell_angle_beta     104.89
_cell_angle_gamma    90

_symmetry_Int_Tables_number  12
_chemical_formula_structural  Ba3Zn2As4
_chemical_formula_sum  Ba3Zn2As4
_cell_volume  256.61550752595485
_cell_formula_units_Z  1
loop_
  _symmetry_equiv_pos_site_id
 _symmetry_equiv_pos_as_xyz
 1  'x, y, z'
loop_
 _atom_site_type_symbol
 _atom_site_label
 _atom_site_symmetry_multiplicity
 _atom_site_fract_x
 _atom_site_fract_y
 _atom_site_fract_z
 _atom_site_fract_occupancy
 As  As1  1  0.79362  0.83222  0.58725  1
 As  As2  1  0.20638  0.16778  0.41275  1
 As  As3  1  0.50978  0.68095  0.01957  1
 As  As4  1  0.49022  0.31905  0.98043  1
 Ba  Ba1  1  0.85554  0.41521  0.71108  1
 Ba  Ba2  1  0.14446  0.58479  0.28892  1
 Ba  Ba3  1  0.00000  0.00000  0.00000  1
 Zn  Zn1  1  0.66992  0.96370  0.33984  1
 Zn  Zn2  1  0.33008  0.03630  0.66016  1
