CIF file written using JARVIS-Tools package.
data_ScTe
_symmetry_space_group_name_H-M  'P6_3/mmc'
_cell_length_a       4.13306
_cell_length_b       4.13306
_cell_length_c       13.7406
_cell_angle_alpha    90
_cell_angle_beta     90
_cell_angle_gamma    119.998

_symmetry_Int_Tables_number  194
_chemical_formula_structural  ScTe
_chemical_formula_sum  Sc4Te4
_cell_volume  203.27701792672175
_cell_formula_units_Z  4
loop_
  _symmetry_equiv_pos_site_id
 _symmetry_equiv_pos_as_xyz
 1  'x, y, z'
loop_
 _atom_site_type_symbol
 _atom_site_label
 _atom_site_symmetry_multiplicity
 _atom_site_fract_x
 _atom_site_fract_y
 _atom_site_fract_z
 _atom_site_fract_occupancy
 Sc  Sc1  1  0.66666  0.33334  0.11964  1
 Sc  Sc2  1  0.33334  0.66666  0.88036  1
 Sc  Sc3  1  0.33334  0.66666  0.61964  1
 Sc  Sc4  1  0.66666  0.33334  0.38036  1
 Te  Te1  1  0.66668  0.33332  0.75000  1
 Te  Te2  1  0.33332  0.66668  0.25000  1
 Te  Te3  1  0.00000  0.00000  0.50000  1
 Te  Te4  1  0.00000  0.00000  0.00000  1
