CIF file written using JARVIS-Tools package.
data_NaCo3O4
_symmetry_space_group_name_H-M  'Pmn2_1'
_cell_length_a       5.32343
_cell_length_b       5.5815
_cell_length_c       6.58801
_cell_angle_alpha    89.9974
_cell_angle_beta     89.999
_cell_angle_gamma    89.9992

_symmetry_Int_Tables_number  31
_chemical_formula_structural  NaCo3O4
_chemical_formula_sum  Na2Co6O8
_cell_volume  195.74750343875576
_cell_formula_units_Z  2
loop_
  _symmetry_equiv_pos_site_id
 _symmetry_equiv_pos_as_xyz
 1  'x, y, z'
loop_
 _atom_site_type_symbol
 _atom_site_label
 _atom_site_symmetry_multiplicity
 _atom_site_fract_x
 _atom_site_fract_y
 _atom_site_fract_z
 _atom_site_fract_occupancy
 Co  Co1  1  0.49562  0.18792  0.00002  1
 Co  Co2  1  0.00617  0.33503  0.25505  1
 Co  Co3  1  0.50617  0.66496  0.24495  1
 Co  Co4  1  -0.00438  0.81208  0.49999  1
 Co  Co5  1  0.50618  0.66497  0.75504  1
 Co  Co6  1  0.00618  0.33504  0.74496  1
 Na  Na1  1  0.00554  0.83503  0.99998  1
 Na  Na2  1  0.50554  0.16498  0.50003  1
 O  O1  1  0.13672  0.22322  0.00000  1
 O  O2  1  0.56473  0.84753  -0.00001  1
 O  O3  1  0.15014  0.64669  0.28007  1
 O  O4  1  0.65015  0.35330  0.21993  1
 O  O5  1  0.06473  0.15247  0.50001  1
 O  O6  1  0.63672  0.77679  0.49999  1
 O  O7  1  0.65016  0.35331  0.78010  1
 O  O8  1  0.15016  0.64670  0.71990  1
