CIF file written using JARVIS-Tools package.
data_Nd3Al
_symmetry_space_group_name_H-M  'P6_3/mmc'
_cell_length_a       5.41343
_cell_length_b       7.06887
_cell_length_c       7.06887
_cell_angle_alpha    119.999
_cell_angle_beta     90
_cell_angle_gamma    90

_symmetry_Int_Tables_number  194
_chemical_formula_structural  Nd3Al
_chemical_formula_sum  Nd6Al2
_cell_volume  234.26417475852452
_cell_formula_units_Z  2
loop_
  _symmetry_equiv_pos_site_id
 _symmetry_equiv_pos_as_xyz
 1  'x, y, z'
loop_
 _atom_site_type_symbol
 _atom_site_label
 _atom_site_symmetry_multiplicity
 _atom_site_fract_x
 _atom_site_fract_y
 _atom_site_fract_z
 _atom_site_fract_occupancy
 Al  Al1  1  0.75000  0.66667  0.33333  1
 Al  Al2  1  0.25000  0.33333  0.66667  1
 Nd  Nd1  1  0.75000  0.17755  0.35512  1
 Nd  Nd2  1  0.75000  0.17756  0.82244  1
 Nd  Nd3  1  0.75000  0.64488  0.82245  1
 Nd  Nd4  1  0.25000  0.82245  0.64488  1
 Nd  Nd5  1  0.25000  0.82244  0.17756  1
 Nd  Nd6  1  0.25000  0.35512  0.17755  1
