CIF file written using JARVIS-Tools package.
data_Co3BPO7
_symmetry_space_group_name_H-M  'Cm'
_cell_length_a       7.94561
_cell_length_b       7.94561
_cell_length_c       4.89743
_cell_angle_alpha    72.0215
_cell_angle_beta     72.0215
_cell_angle_gamma    103.926

_symmetry_Int_Tables_number  8
_chemical_formula_structural  Co3BPO7
_chemical_formula_sum  Co6B2P2O4
_cell_volume  259.73217192537345
_cell_formula_units_Z  2
loop_
  _symmetry_equiv_pos_site_id
 _symmetry_equiv_pos_as_xyz
 1  'x, y, z'
loop_
 _atom_site_type_symbol
 _atom_site_label
 _atom_site_symmetry_multiplicity
 _atom_site_fract_x
 _atom_site_fract_y
 _atom_site_fract_z
 _atom_site_fract_occupancy
 B  B1  1  0.05645  0.48406  0.12959  1
 B  B2  1  0.48406  0.05645  0.12959  1
 Co  Co1  1  0.34889  0.85547  0.79673  1
 Co  Co2  1  0.85547  0.34889  0.79673  1
 Co  Co3  1  0.30423  0.51418  0.48857  1
 Co  Co4  1  0.51418  0.30423  0.48857  1
 Co  Co5  1  0.77264  0.07065  0.43116  1
 Co  Co6  1  0.07065  0.77264  0.43116  1
 O  O1  1  0.07583  0.51895  0.82358  1
 O  O2  1  0.51895  0.07583  0.82358  1
 O  O3  1  0.33569  0.90349  0.38221  1
 O  O4  1  0.90349  0.33569  0.38221  1
 O  O5  1  0.60564  0.19043  0.17910  1
 O  O6  1  0.19043  0.60564  0.17910  1
 O  O7  1  0.59273  0.79692  0.62685  1
 O  O8  1  0.23622  0.23622  0.54697  1
 O  O9  1  0.56108  0.56108  0.14302  1
 O  O10  1  0.44506  0.44506  0.77775  1
 O  O11  1  0.96990  0.96990  0.57512  1
 O  O12  1  0.10661  0.90547  0.98137  1
 O  O13  1  0.79692  0.59273  0.62685  1
 O  O14  1  0.90547  0.10661  0.98137  1
 P  P1  1  0.60010  0.60010  0.79347  1
 P  P2  1  0.05420  0.05420  0.77125  1
