CIF file written using JARVIS-Tools package.
data_Ga10GePb3O20
_symmetry_space_group_name_H-M  'C2/m'
_cell_length_a       5.16984
_cell_length_b       9.85392
_cell_length_c       9.85393
_cell_angle_alpha    73.7999
_cell_angle_beta     74.7692
_cell_angle_gamma    74.7692

_symmetry_Int_Tables_number  12
_chemical_formula_structural  Ga10GePb3O20
_chemical_formula_sum  Ga0GePb3O20
_cell_volume  455.3032018122178
_cell_formula_units_Z  1
loop_
  _symmetry_equiv_pos_site_id
 _symmetry_equiv_pos_as_xyz
 1  'x, y, z'
loop_
 _atom_site_type_symbol
 _atom_site_label
 _atom_site_symmetry_multiplicity
 _atom_site_fract_x
 _atom_site_fract_y
 _atom_site_fract_z
 _atom_site_fract_occupancy
 Ga  Ga1  1  0.16529  0.57765  0.14986  1
 Ga  Ga2  1  0.83471  0.42235  0.85014  1
 Ga  Ga3  1  0.16529  0.14986  0.57765  1
 Ga  Ga4  1  0.50000  0.63310  0.36690  1
 Ga  Ga5  1  0.50000  0.36690  0.63310  1
 Ga  Ga6  1  0.65918  0.99366  0.72143  1
 Ga  Ga7  1  0.34082  0.27857  0.00634  1
 Ga  Ga8  1  0.34082  0.00634  0.27857  1
 Ga  Ga9  1  0.65918  0.72143  0.99366  1
 Ga  Ga10  1  0.83471  0.85014  0.42235  1
 Ge  Ge1  1  -0.00000  0.50000  0.50000  1
 O  O1  1  0.38494  0.43316  0.43316  1
 O  O2  1  0.61506  0.56684  0.56684  1
 O  O3  1  0.10386  0.45551  0.68429  1
 O  O4  1  0.50212  0.09564  0.09564  1
 O  O5  1  0.64926  0.87620  0.60491  1
 O  O6  1  0.35074  0.39509  0.12380  1
 O  O7  1  0.35074  0.12380  0.39509  1
 O  O8  1  0.64926  0.60491  0.87620  1
 O  O9  1  0.49788  0.90436  0.90436  1
 O  O10  1  0.56547  0.33828  0.82704  1
 O  O11  1  0.01059  0.00751  0.71934  1
 O  O12  1  0.43453  0.66172  0.17296  1
 O  O13  1  0.01059  0.71934  0.00751  1
 O  O14  1  0.98941  0.99249  0.28066  1
 O  O15  1  0.98941  0.28066  0.99249  1
 O  O16  1  0.43453  0.17296  0.66172  1
 O  O17  1  0.89614  0.54449  0.31571  1
 O  O18  1  0.10386  0.68429  0.45551  1
 O  O19  1  0.56547  0.82704  0.33828  1
 O  O20  1  0.89614  0.31571  0.54449  1
 Pb  Pb1  1  0.67033  0.27680  0.27680  1
 Pb  Pb2  1  0.32967  0.72320  0.72320  1
 Pb  Pb3  1  0.00000  0.00000  0.00000  1
