CIF file written using JARVIS-Tools package.
data_B
_symmetry_space_group_name_H-M  'Pnnm'
_cell_length_a       5.03838
_cell_length_b       5.61406
_cell_length_c       6.95554
_cell_angle_alpha    90
_cell_angle_beta     90
_cell_angle_gamma    90

_symmetry_Int_Tables_number  58
_chemical_formula_structural  B
_chemical_formula_sum  B28
_cell_volume  196.74253283028682
_cell_formula_units_Z  28
loop_
  _symmetry_equiv_pos_site_id
 _symmetry_equiv_pos_as_xyz
 1  'x, y, z'
loop_
 _atom_site_type_symbol
 _atom_site_label
 _atom_site_symmetry_multiplicity
 _atom_site_fract_x
 _atom_site_fract_y
 _atom_site_fract_z
 _atom_site_fract_occupancy
 B  B1  1  0.15337  0.59305  0.79214  1
 B  B2  1  0.84663  0.40695  0.79214  1
 B  B3  1  0.34663  0.09305  0.70786  1
 B  B4  1  0.65337  0.90695  0.70786  1
 B  B5  1  0.84663  0.40695  0.20786  1
 B  B6  1  0.15337  0.59305  0.20786  1
 B  B7  1  0.65337  0.90695  0.29214  1
 B  B8  1  0.34663  0.09305  0.29214  1
 B  B9  1  0.64846  0.72925  0.50000  1
 B  B10  1  0.35154  0.27075  0.50000  1
 B  B11  1  0.85154  0.22925  0.00000  1
 B  B12  1  0.14846  0.77075  0.00000  1
 B  B13  1  0.33574  0.50759  0.00000  1
 B  B14  1  0.66426  0.49241  0.00000  1
 B  B15  1  0.16426  0.00759  0.50000  1
 B  B16  1  0.83574  0.99241  0.50000  1
 B  B17  1  0.83921  0.71946  0.87478  1
 B  B18  1  0.16079  0.28054  0.87478  1
 B  B19  1  0.66079  0.21946  0.62522  1
 B  B20  1  0.33921  0.78054  0.62522  1
 B  B21  1  0.16079  0.28054  0.12522  1
 B  B22  1  0.83921  0.71946  0.12522  1
 B  B23  1  0.33921  0.78054  0.37478  1
 B  B24  1  0.66079  0.21946  0.37478  1
 B  B25  1  0.66953  0.98093  0.00000  1
 B  B26  1  0.33047  0.01907  0.00000  1
 B  B27  1  0.83047  0.48093  0.50000  1
 B  B28  1  0.16953  0.51907  0.50000  1
