CIF file written using JARVIS-Tools package.
data_TbSnPt2
_symmetry_space_group_name_H-M  'P6_3/mmc'
_cell_length_a       4.57088
_cell_length_b       4.57088
_cell_length_c       9.11043
_cell_angle_alpha    90
_cell_angle_beta     90
_cell_angle_gamma    120.003

_symmetry_Int_Tables_number  194
_chemical_formula_structural  TbSnPt2
_chemical_formula_sum  Tb2Sn2Pt4
_cell_volume  164.8372086353249
_cell_formula_units_Z  2
loop_
  _symmetry_equiv_pos_site_id
 _symmetry_equiv_pos_as_xyz
 1  'x, y, z'
loop_
 _atom_site_type_symbol
 _atom_site_label
 _atom_site_symmetry_multiplicity
 _atom_site_fract_x
 _atom_site_fract_y
 _atom_site_fract_z
 _atom_site_fract_occupancy
 Pt  Pt1  1  0.66668  0.33332  0.09092  1
 Pt  Pt2  1  0.33332  0.66668  0.90908  1
 Pt  Pt3  1  0.33332  0.66668  0.59092  1
 Pt  Pt4  1  0.66668  0.33332  0.40908  1
 Sn  Sn1  1  0.00000  0.00000  0.50000  1
 Sn  Sn2  1  0.00000  0.00000  0.00000  1
 Tb  Tb1  1  0.66664  0.33336  0.75000  1
 Tb  Tb2  1  0.33336  0.66664  0.25000  1
