CIF file written using JARVIS-Tools package.
data_Li3AlF6
_symmetry_space_group_name_H-M  'Pna2_1'
_cell_length_a       4.89127
_cell_length_b       8.27974
_cell_length_c       9.47036
_cell_angle_alpha    90
_cell_angle_beta     90
_cell_angle_gamma    90

_symmetry_Int_Tables_number  33
_chemical_formula_structural  Li3AlF6
_chemical_formula_sum  Li2Al4F24
_cell_volume  383.5346330962263
_cell_formula_units_Z  4
loop_
  _symmetry_equiv_pos_site_id
 _symmetry_equiv_pos_as_xyz
 1  'x, y, z'
loop_
 _atom_site_type_symbol
 _atom_site_label
 _atom_site_symmetry_multiplicity
 _atom_site_fract_x
 _atom_site_fract_y
 _atom_site_fract_z
 _atom_site_fract_occupancy
 Al  Al1  1  -0.00012  0.76052  0.87151  1
 Al  Al2  1  0.49988  0.23948  0.12849  1
 Al  Al3  1  -0.00012  0.73948  0.37151  1
 Al  Al4  1  0.49988  0.26052  0.62849  1
 F  F1  1  0.17471  0.88200  0.25351  1
 F  F2  1  0.34833  0.40279  0.02830  1
 F  F3  1  0.84833  0.59721  0.97170  1
 F  F4  1  0.19500  0.26890  0.73857  1
 F  F5  1  0.64149  0.43445  0.72575  1
 F  F6  1  0.84833  0.90279  0.47170  1
 F  F7  1  0.19500  0.23110  0.23857  1
 F  F8  1  0.81146  0.25576  0.52289  1
 F  F9  1  0.31146  0.74424  0.47711  1
 F  F10  1  0.81146  0.24424  0.02289  1
 F  F11  1  0.31146  0.75576  0.97711  1
 F  F12  1  0.83071  0.59004  0.48857  1
 F  F13  1  0.14149  0.56555  0.27425  1
 F  F14  1  0.64149  0.06555  0.22575  1
 F  F15  1  0.14149  0.93445  0.77425  1
 F  F16  1  0.69500  0.76890  0.76143  1
 F  F17  1  0.34833  0.09721  0.52830  1
 F  F18  1  0.33071  0.40996  0.51143  1
 F  F19  1  0.67471  0.38200  0.24649  1
 F  F20  1  0.69500  0.73110  0.26143  1
 F  F21  1  0.67471  0.11800  0.74649  1
 F  F22  1  0.83071  0.90996  0.98857  1
 F  F23  1  0.33071  0.09004  0.01143  1
 F  F24  1  0.17471  0.61800  0.75351  1
 Li  Li1  1  0.00832  0.35154  0.37467  1
 Li  Li2  1  0.50832  0.85154  0.12533  1
 Li  Li3  1  0.00832  0.14846  0.87467  1
 Li  Li4  1  0.49472  0.54488  0.89669  1
 Li  Li5  1  0.99472  0.45512  0.10331  1
 Li  Li6  1  0.00255  0.45384  0.64724  1
 Li  Li7  1  0.99472  0.04488  0.60331  1
 Li  Li8  1  0.50255  0.54616  0.35276  1
 Li  Li9  1  0.00255  0.04616  0.14724  1
 Li  Li10  1  0.50255  0.95384  0.85276  1
 Li  Li11  1  0.49472  0.95512  0.39669  1
 Li  Li12  1  0.50832  0.64846  0.62533  1
