CIF file written using JARVIS-Tools package.
data_Er2CuGe6
_symmetry_space_group_name_H-M  'Amm2'
_cell_length_a       4.09036
_cell_length_b       4.03122
_cell_length_c       10.8471
_cell_angle_alpha    100.709
_cell_angle_beta     90
_cell_angle_gamma    90

_symmetry_Int_Tables_number  38
_chemical_formula_structural  Er2CuGe6
_chemical_formula_sum  Er2CuGe6
_cell_volume  175.7440496360096
_cell_formula_units_Z  1
loop_
  _symmetry_equiv_pos_site_id
 _symmetry_equiv_pos_as_xyz
 1  'x, y, z'
loop_
 _atom_site_type_symbol
 _atom_site_label
 _atom_site_symmetry_multiplicity
 _atom_site_fract_x
 _atom_site_fract_y
 _atom_site_fract_z
 _atom_site_fract_occupancy
 Cu  Cu1  1  0.50000  0.22391  0.44781  1
 Er  Er1  1  0.00000  0.00505  0.01010  1
 Er  Er2  1  0.00000  0.66814  0.33627  1
 Ge  Ge1  1  0.00000  0.28502  0.57005  1
 Ge  Ge2  1  0.00000  0.40253  0.80506  1
 Ge  Ge3  1  0.50000  0.54147  0.08295  1
 Ge  Ge4  1  0.50000  0.11540  0.23080  1
 Ge  Ge5  1  0.50000  0.90370  0.80740  1
 Ge  Ge6  1  0.50000  0.78578  0.57155  1
