CIF file written using JARVIS-Tools package.
data_ErAgSn
_symmetry_space_group_name_H-M  'P-62m'
_cell_length_a       7.36896
_cell_length_b       7.36895
_cell_length_c       4.42413
_cell_angle_alpha    90
_cell_angle_beta     90
_cell_angle_gamma    120

_symmetry_Int_Tables_number  189
_chemical_formula_structural  ErAgSn
_chemical_formula_sum  Er3Ag3Sn3
_cell_volume  208.05149681239396
_cell_formula_units_Z  3
loop_
  _symmetry_equiv_pos_site_id
 _symmetry_equiv_pos_as_xyz
 1  'x, y, z'
loop_
 _atom_site_type_symbol
 _atom_site_label
 _atom_site_symmetry_multiplicity
 _atom_site_fract_x
 _atom_site_fract_y
 _atom_site_fract_z
 _atom_site_fract_occupancy
 Ag  Ag1  1  -0.00000  0.24929  0.50000  1
 Ag  Ag2  1  0.75071  0.75071  0.50000  1
 Ag  Ag3  1  0.24929  0.00000  0.50000  1
 Er  Er1  1  -0.00000  0.57400  0.00000  1
 Er  Er2  1  0.42600  0.42600  0.00000  1
 Er  Er3  1  0.57400  0.00000  0.00000  1
 Sn  Sn1  1  0.00000  0.00000  0.00000  1
 Sn  Sn2  1  0.66667  0.33333  0.50000  1
 Sn  Sn3  1  0.33333  0.66667  0.50000  1
