CIF file written using JARVIS-Tools package.
data_Cr5B3
_symmetry_space_group_name_H-M  'I4/mcm'
_cell_length_a       6.28709
_cell_length_b       6.28709
_cell_length_c       6.28709
_cell_angle_alpha    128.749
_cell_angle_beta     128.749
_cell_angle_gamma    75.4143

_symmetry_Int_Tables_number  140
_chemical_formula_structural  Cr5B3
_chemical_formula_sum  Cr0B6
_cell_volume  147.098538737379
_cell_formula_units_Z  2
loop_
  _symmetry_equiv_pos_site_id
 _symmetry_equiv_pos_as_xyz
 1  'x, y, z'
loop_
 _atom_site_type_symbol
 _atom_site_label
 _atom_site_symmetry_multiplicity
 _atom_site_fract_x
 _atom_site_fract_y
 _atom_site_fract_z
 _atom_site_fract_occupancy
 B  B1  1  0.75000  0.75000  0.00000  1
 B  B2  1  0.25000  0.25000  0.00000  1
 B  B3  1  0.38271  0.88271  0.26543  1
 B  B4  1  0.61729  0.11729  0.73457  1
 B  B5  1  0.11729  0.38271  0.50000  1
 B  B6  1  0.88271  0.61729  0.50000  1
 Cr  Cr1  1  0.02514  0.52514  0.84319  1
 Cr  Cr2  1  0.68195  0.18195  0.15681  1
 Cr  Cr3  1  0.18195  0.02514  0.50000  1
 Cr  Cr4  1  0.52514  0.68195  0.50000  1
 Cr  Cr5  1  0.47486  0.31805  0.50000  1
 Cr  Cr6  1  0.81805  0.97486  0.50000  1
 Cr  Cr7  1  0.31805  0.81805  0.84319  1
 Cr  Cr8  1  0.97486  0.47486  0.15681  1
 Cr  Cr9  1  0.00000  0.00000  0.00000  1
 Cr  Cr10  1  0.50000  0.50000  0.00000  1
