CIF file written using JARVIS-Tools package.
data_MoWSe4
_symmetry_space_group_name_H-M  'P3m1'
_cell_length_a       3.3263
_cell_length_b       3.3263
_cell_length_c       21.9391
_cell_angle_alpha    90.0042
_cell_angle_beta     90
_cell_angle_gamma    120

_symmetry_Int_Tables_number  156
_chemical_formula_structural  MoWSe4
_chemical_formula_sum  MoWSe4
_cell_volume  210.21870282706624
_cell_formula_units_Z  1
loop_
  _symmetry_equiv_pos_site_id
 _symmetry_equiv_pos_as_xyz
 1  'x, y, z'
loop_
 _atom_site_type_symbol
 _atom_site_label
 _atom_site_symmetry_multiplicity
 _atom_site_fract_x
 _atom_site_fract_y
 _atom_site_fract_z
 _atom_site_fract_occupancy
 Mo  Mo1  1  0.66672  0.33344  0.45121  1
 Se  Se1  1  0.33341  0.66682  0.52742  1
 Se  Se2  1  0.66659  0.33318  0.07403  1
 Se  Se3  1  0.66664  0.33328  0.22738  1
 Se  Se4  1  0.33336  0.66672  0.37491  1
 W  W1  1  0.33328  0.66656  0.15066  1
