CIF file written using JARVIS-Tools package.
data_Mn2OF3
_symmetry_space_group_name_H-M  'P-3m1'
_cell_length_a       6.12111
_cell_length_b       6.12109
_cell_length_c       4.73493
_cell_angle_alpha    89.9974
_cell_angle_beta     90
_cell_angle_gamma    60

_symmetry_Int_Tables_number  164
_chemical_formula_structural  Mn2OF3
_chemical_formula_sum  Mn4O2F6
_cell_volume  153.63965460541573
_cell_formula_units_Z  2
loop_
  _symmetry_equiv_pos_site_id
 _symmetry_equiv_pos_as_xyz
 1  'x, y, z'
loop_
 _atom_site_type_symbol
 _atom_site_label
 _atom_site_symmetry_multiplicity
 _atom_site_fract_x
 _atom_site_fract_y
 _atom_site_fract_z
 _atom_site_fract_occupancy
 F  F1  1  0.83762  0.83767  0.74600  1
 F  F2  1  0.83759  0.32482  0.74610  1
 F  F3  1  0.32472  0.83767  0.74600  1
 F  F4  1  0.67528  0.16233  0.25400  1
 F  F5  1  0.16241  0.67518  0.25390  1
 F  F6  1  0.16238  0.16233  0.25400  1
 Mn  Mn1  1  0.50000  0.50000  0.50000  1
 Mn  Mn2  1  0.50000  -0.00000  0.50000  1
 Mn  Mn3  1  -0.00000  0.50000  0.50000  1
 Mn  Mn4  1  0.00000  0.00000  0.00000  1
 O  O1  1  0.66666  0.66668  0.34058  1
 O  O2  1  0.33334  0.33332  0.65942  1
