CIF file written using JARVIS-Tools package.
data_Er5Ni2Te2
_symmetry_space_group_name_H-M  'Cmcm'
_cell_length_a       3.94993
_cell_length_b       7.67932
_cell_length_c       14.7941
_cell_angle_alpha    90
_cell_angle_beta     90
_cell_angle_gamma    104.903

_symmetry_Int_Tables_number  63
_chemical_formula_structural  Er5Ni2Te2
_chemical_formula_sum  Er0Ni4Te4
_cell_volume  433.6528386321328
_cell_formula_units_Z  2
loop_
  _symmetry_equiv_pos_site_id
 _symmetry_equiv_pos_as_xyz
 1  'x, y, z'
loop_
 _atom_site_type_symbol
 _atom_site_label
 _atom_site_symmetry_multiplicity
 _atom_site_fract_x
 _atom_site_fract_y
 _atom_site_fract_z
 _atom_site_fract_occupancy
 Er  Er1  1  0.96103  0.92206  0.87335  1
 Er  Er2  1  0.60786  0.21571  0.75000  1
 Er  Er3  1  0.26062  0.52125  0.63060  1
 Er  Er4  1  0.03897  0.07794  0.37335  1
 Er  Er5  1  0.39214  0.78429  0.25000  1
 Er  Er6  1  0.03897  0.07794  0.12665  1
 Er  Er7  1  0.73938  0.47875  0.13060  1
 Er  Er8  1  0.26062  0.52125  0.86940  1
 Er  Er9  1  0.96103  0.92206  0.62665  1
 Er  Er10  1  0.73938  0.47875  0.36940  1
 Ni  Ni1  1  0.58281  0.16562  0.25000  1
 Ni  Ni2  1  0.81230  0.62460  0.75000  1
 Ni  Ni3  1  0.41719  0.83438  0.75000  1
 Ni  Ni4  1  0.18770  0.37540  0.25000  1
 Te  Te1  1  0.38287  0.76573  0.46077  1
 Te  Te2  1  0.61713  0.23427  0.96077  1
 Te  Te3  1  0.61713  0.23427  0.53923  1
 Te  Te4  1  0.38287  0.76573  0.03923  1
