CIF file written using JARVIS-Tools package.
data_CaClF
_symmetry_space_group_name_H-M  'P4/nmm'
_cell_length_a       3.88297
_cell_length_b       3.88297
_cell_length_c       6.81318
_cell_angle_alpha    90
_cell_angle_beta     90
_cell_angle_gamma    90

_symmetry_Int_Tables_number  129
_chemical_formula_structural  CaClF
_chemical_formula_sum  Ca2Cl2F2
_cell_volume  102.7253627238171
_cell_formula_units_Z  2
loop_
  _symmetry_equiv_pos_site_id
 _symmetry_equiv_pos_as_xyz
 1  'x, y, z'
loop_
 _atom_site_type_symbol
 _atom_site_label
 _atom_site_symmetry_multiplicity
 _atom_site_fract_x
 _atom_site_fract_y
 _atom_site_fract_z
 _atom_site_fract_occupancy
 Ca  Ca1  1  0.75000  0.75000  0.80331  1
 Ca  Ca2  1  0.25000  0.25000  0.19669  1
 Cl  Cl1  1  0.25000  0.25000  0.64355  1
 Cl  Cl2  1  0.75000  0.75000  0.35645  1
 F  F1  1  0.25000  0.75000  0.00000  1
 F  F2  1  0.75000  0.25000  0.00000  1
