CIF file written using JARVIS-Tools package.
data_Al3NO3
_symmetry_space_group_name_H-M  'Pnma'
_cell_length_a       5.66117
_cell_length_b       5.71055
_cell_length_c       8.06516
_cell_angle_alpha    90
_cell_angle_beta     90
_cell_angle_gamma    90

_symmetry_Int_Tables_number  62
_chemical_formula_structural  Al3NO3
_chemical_formula_sum  Al2N4O2
_cell_volume  260.73327559165364
_cell_formula_units_Z  4
loop_
  _symmetry_equiv_pos_site_id
 _symmetry_equiv_pos_as_xyz
 1  'x, y, z'
loop_
 _atom_site_type_symbol
 _atom_site_label
 _atom_site_symmetry_multiplicity
 _atom_site_fract_x
 _atom_site_fract_y
 _atom_site_fract_z
 _atom_site_fract_occupancy
 Al  Al1  1  0.75000  0.99254  0.11764  1
 Al  Al2  1  0.25000  0.50746  0.61764  1
 Al  Al3  1  0.75000  0.25004  0.74292  1
 Al  Al4  1  0.25000  0.00746  0.88236  1
 Al  Al5  1  0.50000  0.00000  0.50000  1
 Al  Al6  1  0.75000  0.75004  0.75708  1
 Al  Al7  1  0.25000  0.74996  0.25708  1
 Al  Al8  1  0.50000  0.50000  0.00000  1
 Al  Al9  1  0.00000  0.50000  0.00000  1
 Al  Al10  1  0.75000  0.49254  0.38236  1
 Al  Al11  1  0.25000  0.24996  0.24292  1
 Al  Al12  1  0.00000  0.00000  0.50000  1
 N  N1  1  0.75000  0.22649  0.50852  1
 N  N2  1  0.75000  0.72649  0.99148  1
 N  N3  1  0.25000  0.27351  0.00852  1
 N  N4  1  0.25000  0.77351  0.49148  1
 O  O1  1  0.51338  0.99814  0.74615  1
 O  O2  1  0.75000  0.75929  0.51256  1
 O  O3  1  0.25000  0.74071  0.01256  1
 O  O4  1  0.51338  0.49814  0.75385  1
 O  O5  1  0.48662  0.50186  0.24615  1
 O  O6  1  0.01338  0.50186  0.24615  1
 O  O7  1  0.75000  0.25929  0.98744  1
 O  O8  1  0.25000  0.24071  0.48744  1
 O  O9  1  0.01338  0.00186  0.25385  1
 O  O10  1  0.48662  0.00186  0.25385  1
 O  O11  1  0.98662  0.99814  0.74615  1
 O  O12  1  0.98662  0.49814  0.75385  1
