CIF file written using JARVIS-Tools package.
data_PuS2
_symmetry_space_group_name_H-M  'P4/nmm'
_cell_length_a       3.93654
_cell_length_b       3.93654
_cell_length_c       7.71279
_cell_angle_alpha    90
_cell_angle_beta     90
_cell_angle_gamma    90

_symmetry_Int_Tables_number  129
_chemical_formula_structural  PuS2
_chemical_formula_sum  Pu2S4
_cell_volume  119.5203160565274
_cell_formula_units_Z  2
loop_
  _symmetry_equiv_pos_site_id
 _symmetry_equiv_pos_as_xyz
 1  'x, y, z'
loop_
 _atom_site_type_symbol
 _atom_site_label
 _atom_site_symmetry_multiplicity
 _atom_site_fract_x
 _atom_site_fract_y
 _atom_site_fract_z
 _atom_site_fract_occupancy
 Pu  Pu1  1  0.00000  0.00000  0.00158  1
 Pu  Pu2  1  0.50000  0.50000  0.46242  1
 S  S1  1  0.50000  0.50000  0.09383  1
 S  S2  1  0.00000  0.50000  0.73200  1
 S  S3  1  0.50000  0.00000  0.73200  1
 S  S4  1  0.00000  0.00000  0.37017  1
