CIF file written using JARVIS-Tools package.
data_BC2N
_symmetry_space_group_name_H-M  'Cm'
_cell_length_a       3.6371
_cell_length_b       3.63709
_cell_length_c       3.63765
_cell_angle_alpha    89.7602
_cell_angle_beta     90.2398
_cell_angle_gamma    90.507

_symmetry_Int_Tables_number  8
_chemical_formula_structural  BC2N
_chemical_formula_sum  B2C4N2
_cell_volume  48.117740553715514
_cell_formula_units_Z  2
loop_
  _symmetry_equiv_pos_site_id
 _symmetry_equiv_pos_as_xyz
 1  'x, y, z'
loop_
 _atom_site_type_symbol
 _atom_site_label
 _atom_site_symmetry_multiplicity
 _atom_site_fract_x
 _atom_site_fract_y
 _atom_site_fract_z
 _atom_site_fract_occupancy
 B  B1  1  0.74778  0.75222  0.75046  1
 B  B2  1  0.00313  0.49687  0.49590  1
 C  C1  1  0.49754  0.00246  0.49475  1
 C  C2  1  0.74471  0.25037  0.25433  1
 C  C3  1  0.24963  0.75529  0.25433  1
 C  C4  1  0.25199  0.24801  0.74987  1
 N  N1  1  0.00642  0.00119  0.00018  1
 N  N2  1  0.49881  0.49358  0.00018  1
