CIF file written using JARVIS-Tools package.
data_TcBr3
_symmetry_space_group_name_H-M  'Pmmn'
_cell_length_a       11.2844
_cell_length_b       5.92302
_cell_length_c       6.53311
_cell_angle_alpha    90
_cell_angle_beta     90
_cell_angle_gamma    90

_symmetry_Int_Tables_number  59
_chemical_formula_structural  TcBr3
_chemical_formula_sum  Tc4Br2
_cell_volume  436.6572586012933
_cell_formula_units_Z  4
loop_
  _symmetry_equiv_pos_site_id
 _symmetry_equiv_pos_as_xyz
 1  'x, y, z'
loop_
 _atom_site_type_symbol
 _atom_site_label
 _atom_site_symmetry_multiplicity
 _atom_site_fract_x
 _atom_site_fract_y
 _atom_site_fract_z
 _atom_site_fract_occupancy
 Br  Br1  1  0.75000  0.75000  0.09352  1
 Br  Br2  1  0.09951  0.75000  0.08891  1
 Br  Br3  1  0.40049  0.75000  0.08891  1
 Br  Br4  1  0.08257  0.25000  0.40389  1
 Br  Br5  1  0.41743  0.25000  0.40389  1
 Br  Br6  1  0.75000  0.25000  0.46020  1
 Br  Br7  1  0.25000  0.75000  0.53980  1
 Br  Br8  1  0.58257  0.75000  0.59610  1
 Br  Br9  1  0.91743  0.75000  0.59610  1
 Br  Br10  1  0.59951  0.25000  0.91109  1
 Br  Br11  1  0.90049  0.25000  0.91109  1
 Br  Br12  1  0.25000  0.25000  0.90648  1
 Tc  Tc1  1  0.25000  0.03020  0.23906  1
 Tc  Tc2  1  0.25000  0.46980  0.23906  1
 Tc  Tc3  1  0.75000  0.53020  0.76094  1
 Tc  Tc4  1  0.75000  0.96980  0.76094  1
