CIF file written using JARVIS-Tools package.
data_Li2V3TeO8
_symmetry_space_group_name_H-M  'P6_3mc'
_cell_length_a       5.85901
_cell_length_b       5.85901
_cell_length_c       10.2052
_cell_angle_alpha    90
_cell_angle_beta     90
_cell_angle_gamma    120

_symmetry_Int_Tables_number  186
_chemical_formula_structural  Li2V3TeO8
_chemical_formula_sum  Li4V6Te2O6
_cell_volume  303.39087438646584
_cell_formula_units_Z  2
loop_
  _symmetry_equiv_pos_site_id
 _symmetry_equiv_pos_as_xyz
 1  'x, y, z'
loop_
 _atom_site_type_symbol
 _atom_site_label
 _atom_site_symmetry_multiplicity
 _atom_site_fract_x
 _atom_site_fract_y
 _atom_site_fract_z
 _atom_site_fract_occupancy
 Li  Li1  1  0.66667  0.33333  0.89884  1
 Li  Li2  1  0.00000  0.00000  0.99032  1
 Li  Li3  1  0.00000  0.00000  0.49032  1
 Li  Li4  1  0.33333  0.66667  0.39884  1
 O  O1  1  0.84090  0.15910  0.60214  1
 O  O2  1  0.01925  0.50962  0.82888  1
 O  O3  1  0.66667  0.33333  0.10230  1
 O  O4  1  0.00000  0.00000  0.30645  1
 O  O5  1  0.00000  0.00000  0.80645  1
 O  O6  1  0.84090  0.68181  0.60214  1
 O  O7  1  0.98075  0.49037  0.32888  1
 O  O8  1  0.50963  0.49038  0.32888  1
 O  O9  1  0.31819  0.15910  0.60214  1
 O  O10  1  0.49038  0.50963  0.82888  1
 O  O11  1  0.49037  0.98075  0.82888  1
 O  O12  1  0.15910  0.31819  0.10214  1
 O  O13  1  0.50962  0.01925  0.32888  1
 O  O14  1  0.68181  0.84090  0.10214  1
 O  O15  1  0.33333  0.66667  0.60230  1
 O  O16  1  0.15910  0.84090  0.10214  1
 Te  Te1  1  0.33333  0.66667  0.00540  1
 Te  Te2  1  0.66667  0.33333  0.50540  1
 V  V1  1  0.35371  0.17686  0.21917  1
 V  V2  1  0.82314  0.17686  0.21917  1
 V  V3  1  0.82314  0.64629  0.21917  1
 V  V4  1  0.17686  0.82314  0.71917  1
 V  V5  1  0.64629  0.82314  0.71917  1
 V  V6  1  0.17686  0.35371  0.71917  1
