CIF file written using JARVIS-Tools package.
data_ZrBr3
_symmetry_space_group_name_H-M  'P6_3/mcm'
_cell_length_a       6.74951
_cell_length_b       6.74951
_cell_length_c       6.23254
_cell_angle_alpha    90
_cell_angle_beta     90
_cell_angle_gamma    120

_symmetry_Int_Tables_number  193
_chemical_formula_structural  ZrBr3
_chemical_formula_sum  Zr2Br6
_cell_volume  245.8899835535813
_cell_formula_units_Z  2
loop_
  _symmetry_equiv_pos_site_id
 _symmetry_equiv_pos_as_xyz
 1  'x, y, z'
loop_
 _atom_site_type_symbol
 _atom_site_label
 _atom_site_symmetry_multiplicity
 _atom_site_fract_x
 _atom_site_fract_y
 _atom_site_fract_z
 _atom_site_fract_occupancy
 Br  Br1  1  0.00000  0.67219  0.75000  1
 Br  Br2  1  0.32781  -0.00000  0.25000  1
 Br  Br3  1  -0.00000  0.32781  0.25000  1
 Br  Br4  1  0.67219  0.00000  0.75000  1
 Br  Br5  1  0.32781  0.32781  0.75000  1
 Br  Br6  1  0.67219  0.67219  0.25000  1
 Zr  Zr1  1  0.00000  0.00000  0.50000  1
 Zr  Zr2  1  0.00000  0.00000  0.00000  1
