CIF file written using JARVIS-Tools package.
data_Ga2Au
_symmetry_space_group_name_H-M  'Pnma'
_cell_length_a       3.76463
_cell_length_b       7.27916
_cell_length_c       8.27104
_cell_angle_alpha    90
_cell_angle_beta     90
_cell_angle_gamma    90

_symmetry_Int_Tables_number  62
_chemical_formula_structural  Ga2Au
_chemical_formula_sum  Ga8Au4
_cell_volume  226.6541459531339
_cell_formula_units_Z  4
loop_
  _symmetry_equiv_pos_site_id
 _symmetry_equiv_pos_as_xyz
 1  'x, y, z'
loop_
 _atom_site_type_symbol
 _atom_site_label
 _atom_site_symmetry_multiplicity
 _atom_site_fract_x
 _atom_site_fract_y
 _atom_site_fract_z
 _atom_site_fract_occupancy
 Au  Au1  1  0.25000  0.24439  0.63981  1
 Au  Au2  1  0.75000  0.25561  0.13981  1
 Au  Au3  1  0.75000  0.75561  0.36019  1
 Au  Au4  1  0.25000  0.74439  0.86019  1
 Ga  Ga1  1  0.25000  0.87090  0.56597  1
 Ga  Ga2  1  0.75000  0.62910  0.06597  1
 Ga  Ga3  1  0.75000  0.12910  0.43403  1
 Ga  Ga4  1  0.25000  0.37090  0.93403  1
 Ga  Ga5  1  0.25000  0.45650  0.34823  1
 Ga  Ga6  1  0.75000  0.04350  0.84823  1
 Ga  Ga7  1  0.75000  0.54350  0.65177  1
 Ga  Ga8  1  0.25000  0.95650  0.15177  1
