CIF file written using JARVIS-Tools package.
data_Zr2Ni
_symmetry_space_group_name_H-M  'I4/mcm'
_cell_length_a       5.22551
_cell_length_b       5.28154
_cell_length_c       5.28154
_cell_angle_alpha    75.8345
_cell_angle_beta     60.3503
_cell_angle_gamma    60.3503

_symmetry_Int_Tables_number  140
_chemical_formula_structural  Zr2Ni
_chemical_formula_sum  Zr4Ni2
_cell_volume  110.09223202390001
_cell_formula_units_Z  2
loop_
  _symmetry_equiv_pos_site_id
 _symmetry_equiv_pos_as_xyz
 1  'x, y, z'
loop_
 _atom_site_type_symbol
 _atom_site_label
 _atom_site_symmetry_multiplicity
 _atom_site_fract_x
 _atom_site_fract_y
 _atom_site_fract_z
 _atom_site_fract_occupancy
 Ni  Ni1  1  0.25000  0.00000  0.00000  1
 Ni  Ni2  1  0.75000  0.00000  -0.00000  1
 Zr  Zr1  1  0.16239  0.50000  0.17523  1
 Zr  Zr2  1  0.33761  0.82477  0.50000  1
 Zr  Zr3  1  0.66239  0.17523  0.50000  1
 Zr  Zr4  1  0.83761  0.50000  0.82477  1
