CIF file written using JARVIS-Tools package.
data_UFe2B6
_symmetry_space_group_name_H-M  'Immm'
_cell_length_a       5.35569
_cell_length_b       5.35569
_cell_length_c       5.35569
_cell_angle_alpha    145.993
_cell_angle_beta     110.03
_cell_angle_gamma    80.1266

_symmetry_Int_Tables_number  71
_chemical_formula_structural  UFe2B6
_chemical_formula_sum  UFe2B6
_cell_volume  78.85253456333983
_cell_formula_units_Z  1
loop_
  _symmetry_equiv_pos_site_id
 _symmetry_equiv_pos_as_xyz
 1  'x, y, z'
loop_
 _atom_site_type_symbol
 _atom_site_label
 _atom_site_symmetry_multiplicity
 _atom_site_fract_x
 _atom_site_fract_y
 _atom_site_fract_z
 _atom_site_fract_occupancy
 B  B1  1  0.85518  0.50000  0.35518  1
 B  B2  1  0.14482  0.50000  0.64482  1
 B  B3  1  0.95721  0.69607  0.26114  1
 B  B4  1  0.43493  0.69607  0.73886  1
 B  B5  1  0.56507  0.30393  0.26114  1
 B  B6  1  0.04279  0.30393  0.73886  1
 Fe  Fe1  1  0.84643  0.84643  -0.00000  1
 Fe  Fe2  1  0.15357  0.15357  -0.00000  1
 U  U1  1  0.50000  0.00000  0.50000  1
