CIF file written using JARVIS-Tools package.
data_BaB2F8
_symmetry_space_group_name_H-M  'C2/m'
_cell_length_a       6.79115
_cell_length_b       6.79115
_cell_length_c       4.75005
_cell_angle_alpha    69.9296
_cell_angle_beta     69.9296
_cell_angle_gamma    43.6563

_symmetry_Int_Tables_number  12
_chemical_formula_structural  BaB2F8
_chemical_formula_sum  BaB2F8
_cell_volume  140.51777500940457
_cell_formula_units_Z  1
loop_
  _symmetry_equiv_pos_site_id
 _symmetry_equiv_pos_as_xyz
 1  'x, y, z'
loop_
 _atom_site_type_symbol
 _atom_site_label
 _atom_site_symmetry_multiplicity
 _atom_site_fract_x
 _atom_site_fract_y
 _atom_site_fract_z
 _atom_site_fract_occupancy
 B  B1  1  0.65263  0.65263  0.28607  1
 B  B2  1  0.34737  0.34737  0.71393  1
 Ba  Ba1  1  0.00000  0.00000  0.00000  1
 F  F1  1  0.60065  0.60065  0.06355  1
 F  F2  1  0.39935  0.39935  0.93645  1
 F  F3  1  0.77155  0.77155  0.14276  1
 F  F4  1  0.22845  0.22845  0.85724  1
 F  F5  1  0.38534  0.84543  0.46499  1
 F  F6  1  0.15457  0.61466  0.53501  1
 F  F7  1  0.61466  0.15457  0.53501  1
 F  F8  1  0.84543  0.38534  0.46499  1
