CIF file written using JARVIS-Tools package.
data_NaCr4O8
_symmetry_space_group_name_H-M  'I4/m'
_cell_length_a       2.94337
_cell_length_b       7.00465
_cell_length_c       7.00149
_cell_angle_alpha    92.5029
_cell_angle_beta     102.134
_cell_angle_gamma    77.8718

_symmetry_Int_Tables_number  87
_chemical_formula_structural  NaCr4O8
_chemical_formula_sum  NaCr4O8
_cell_volume  137.9765685603983
_cell_formula_units_Z  1
loop_
  _symmetry_equiv_pos_site_id
 _symmetry_equiv_pos_as_xyz
 1  'x, y, z'
loop_
 _atom_site_type_symbol
 _atom_site_label
 _atom_site_symmetry_multiplicity
 _atom_site_fract_x
 _atom_site_fract_y
 _atom_site_fract_z
 _atom_site_fract_occupancy
 Cr  Cr1  1  0.34986  0.81700  0.51671  1
 Cr  Cr2  1  0.83311  0.51685  0.18307  1
 Cr  Cr3  1  0.16689  0.48315  0.81693  1
 Cr  Cr4  1  0.65014  0.18300  0.48329  1
 Na  Na1  1  0.50000  0.00000  0.00000  1
 O  O1  1  0.84911  0.95440  0.65262  1
 O  O2  1  0.83818  0.70470  0.38107  1
 O  O3  1  0.19639  0.65256  0.04535  1
 O  O4  1  0.54286  0.61861  0.70433  1
 O  O5  1  0.45714  0.38139  0.29567  1
 O  O6  1  0.80361  0.34744  0.95465  1
 O  O7  1  0.16182  0.29530  0.61893  1
 O  O8  1  0.15089  0.04560  0.34738  1
