CIF file written using JARVIS-Tools package.
data_CrFe2Se4
_symmetry_space_group_name_H-M  'C2/m'
_cell_length_a       3.4937
_cell_length_b       6.23098
_cell_length_c       6.55985
_cell_angle_alpha    115.94
_cell_angle_beta     105.453
_cell_angle_gamma    90.0232

_symmetry_Int_Tables_number  12
_chemical_formula_structural  CrFe2Se4
_chemical_formula_sum  CrFe2Se4
_cell_volume  122.64139221211475
_cell_formula_units_Z  1
loop_
  _symmetry_equiv_pos_site_id
 _symmetry_equiv_pos_as_xyz
 1  'x, y, z'
loop_
 _atom_site_type_symbol
 _atom_site_label
 _atom_site_symmetry_multiplicity
 _atom_site_fract_x
 _atom_site_fract_y
 _atom_site_fract_z
 _atom_site_fract_occupancy
 Cr  Cr1  1  0.00000  0.00000  0.00000  1
 Fe  Fe1  1  0.25751  0.30660  0.51545  1
 Fe  Fe2  1  0.74249  0.69340  0.48455  1
 Se  Se1  1  0.63637  0.97541  0.27253  1
 Se  Se2  1  0.88908  0.55038  0.77824  1
 Se  Se3  1  0.11092  0.44962  0.22176  1
 Se  Se4  1  0.36363  0.02459  0.72747  1
