CIF file written using JARVIS-Tools package.
data_Li2MnF4
_symmetry_space_group_name_H-M  'I-4'
_cell_length_a       4.78357
_cell_length_b       5.24473
_cell_length_c       4.78357
_cell_angle_alpha    62.8683
_cell_angle_beta     90
_cell_angle_gamma    117.132

_symmetry_Int_Tables_number  82
_chemical_formula_structural  Li2MnF4
_chemical_formula_sum  Li2MnF4
_cell_volume  91.71835555644859
_cell_formula_units_Z  1
loop_
  _symmetry_equiv_pos_site_id
 _symmetry_equiv_pos_as_xyz
 1  'x, y, z'
loop_
 _atom_site_type_symbol
 _atom_site_label
 _atom_site_symmetry_multiplicity
 _atom_site_fract_x
 _atom_site_fract_y
 _atom_site_fract_z
 _atom_site_fract_occupancy
 F  F1  1  0.40801  0.23333  0.11398  1
 F  F2  1  0.65270  0.76667  0.40801  1
 F  F3  1  0.82532  0.23333  0.65270  1
 F  F4  1  0.11398  0.76667  0.82532  1
 Li  Li1  1  0.50000  0.00000  0.50000  1
 Li  Li2  1  0.75000  0.50000  0.75000  1
 Mn  Mn1  1  0.00000  0.00000  0.00000  1
