CIF file written using JARVIS-Tools package.
data_BaSn2Te
_symmetry_space_group_name_H-M  'P4mm'
_cell_length_a       4.49384
_cell_length_b       4.49668
_cell_length_c       7.00808
_cell_angle_alpha    90
_cell_angle_beta     90
_cell_angle_gamma    90

_symmetry_Int_Tables_number  99
_chemical_formula_structural  BaSn2Te
_chemical_formula_sum  BaSn2Te
_cell_volume  141.6146369062141
_cell_formula_units_Z  1
loop_
  _symmetry_equiv_pos_site_id
 _symmetry_equiv_pos_as_xyz
 1  'x, y, z'
loop_
 _atom_site_type_symbol
 _atom_site_label
 _atom_site_symmetry_multiplicity
 _atom_site_fract_x
 _atom_site_fract_y
 _atom_site_fract_z
 _atom_site_fract_occupancy
 Ba  Ba1  1  0.50000  0.50000  0.70453  1
 Sn  Sn1  1  0.00000  0.00000  0.07496  1
 Sn  Sn2  1  0.50000  0.50000  0.19650  1
 Te  Te1  1  0.00000  0.00000  0.52401  1
