CIF file written using JARVIS-Tools package.
data_ErAu4
_symmetry_space_group_name_H-M  'I4/m'
_cell_length_a       5.21598
_cell_length_b       5.21598
_cell_length_c       5.21598
_cell_angle_alpha    99.2995
_cell_angle_beta     99.2995
_cell_angle_gamma    132.595

_symmetry_Int_Tables_number  87
_chemical_formula_structural  ErAu4
_chemical_formula_sum  ErAu4
_cell_volume  95.6549913342471
_cell_formula_units_Z  1
loop_
  _symmetry_equiv_pos_site_id
 _symmetry_equiv_pos_as_xyz
 1  'x, y, z'
loop_
 _atom_site_type_symbol
 _atom_site_label
 _atom_site_symmetry_multiplicity
 _atom_site_fract_x
 _atom_site_fract_y
 _atom_site_fract_z
 _atom_site_fract_occupancy
 Au  Au1  1  0.80003  0.40007  0.20010  1
 Au  Au2  1  0.19997  0.59993  0.79990  1
 Au  Au3  1  0.40007  0.19997  0.60003  1
 Au  Au4  1  0.59993  0.80003  0.39997  1
 Er  Er1  1  0.00000  0.00000  0.00000  1
