CIF file written using JARVIS-Tools package.
data_FeOF
_symmetry_space_group_name_H-M  'P4_12_12'
_cell_length_a       4.63224
_cell_length_b       4.63224
_cell_length_c       5.96088
_cell_angle_alpha    90
_cell_angle_beta     90
_cell_angle_gamma    90

_symmetry_Int_Tables_number  92
_chemical_formula_structural  FeOF
_chemical_formula_sum  Fe4O4F4
_cell_volume  127.90627900325237
_cell_formula_units_Z  4
loop_
  _symmetry_equiv_pos_site_id
 _symmetry_equiv_pos_as_xyz
 1  'x, y, z'
loop_
 _atom_site_type_symbol
 _atom_site_label
 _atom_site_symmetry_multiplicity
 _atom_site_fract_x
 _atom_site_fract_y
 _atom_site_fract_z
 _atom_site_fract_occupancy
 F  F1  1  0.77893  0.22107  0.25000  1
 F  F2  1  0.27893  0.27893  0.50000  1
 F  F3  1  0.22107  0.77893  0.75000  1
 F  F4  1  0.72107  0.72107  0.00000  1
 Fe  Fe1  1  0.03072  0.03072  0.00000  1
 Fe  Fe2  1  0.46928  0.53072  0.25000  1
 Fe  Fe3  1  0.96928  0.96928  0.50000  1
 Fe  Fe4  1  0.53072  0.46928  0.75000  1
 O  O1  1  0.18512  0.81488  0.25000  1
 O  O2  1  0.68512  0.68512  0.50000  1
 O  O3  1  0.81488  0.18512  0.75000  1
 O  O4  1  0.31488  0.31488  0.00000  1
