CIF file written using JARVIS-Tools package.
data_Mn6O5F7
_symmetry_space_group_name_H-M  'C2'
_cell_length_a       7.07665
_cell_length_b       5.63471
_cell_length_c       5.63471
_cell_angle_alpha    75.0628
_cell_angle_beta     74.3209
_cell_angle_gamma    74.3209

_symmetry_Int_Tables_number  5
_chemical_formula_structural  Mn6O5F7
_chemical_formula_sum  Mn6O5F7
_cell_volume  204.09661468513593
_cell_formula_units_Z  1
loop_
  _symmetry_equiv_pos_site_id
 _symmetry_equiv_pos_as_xyz
 1  'x, y, z'
loop_
 _atom_site_type_symbol
 _atom_site_label
 _atom_site_symmetry_multiplicity
 _atom_site_fract_x
 _atom_site_fract_y
 _atom_site_fract_z
 _atom_site_fract_occupancy
 F  F1  1  0.01588  0.66319  0.29946  1
 F  F2  1  0.66513  0.63053  0.02137  1
 F  F3  1  0.37273  0.41966  0.41384  1
 F  F4  1  0.29393  0.91949  0.91367  1
 F  F5  1  0.33333  0.39099  0.94234  1
 F  F6  1  0.65079  0.03388  0.67015  1
 F  F7  1  0.00154  0.31196  0.70280  1
 Mn  Mn1  1  0.83333  0.67547  0.65786  1
 Mn  Mn2  1  0.98682  0.99479  0.00186  1
 Mn  Mn3  1  0.50338  0.00301  0.03432  1
 Mn  Mn4  1  0.16329  0.29901  0.33033  1
 Mn  Mn5  1  0.33333  0.68882  0.64451  1
 Mn  Mn6  1  0.67984  0.33147  0.33854  1
 O  O1  1  0.33333  0.97484  0.35850  1
 O  O2  1  0.96523  0.20961  0.23844  1
 O  O3  1  0.63282  0.57480  0.54975  1
 O  O4  1  0.03385  0.78359  0.75853  1
 O  O5  1  0.70144  0.09489  0.12373  1
