CIF file written using JARVIS-Tools package.
data_TeSeO4
_symmetry_space_group_name_H-M  'Cc'
_cell_length_a       4.29524
_cell_length_b       6.81957
_cell_length_c       7.48379
_cell_angle_alpha    116.933
_cell_angle_beta     106.43
_cell_angle_gamma    90.5205

_symmetry_Int_Tables_number  9
_chemical_formula_structural  TeSeO4
_chemical_formula_sum  Te2Se2O8
_cell_volume  185.02699629113118
_cell_formula_units_Z  2
loop_
  _symmetry_equiv_pos_site_id
 _symmetry_equiv_pos_as_xyz
 1  'x, y, z'
loop_
 _atom_site_type_symbol
 _atom_site_label
 _atom_site_symmetry_multiplicity
 _atom_site_fract_x
 _atom_site_fract_y
 _atom_site_fract_z
 _atom_site_fract_occupancy
 O  O1  1  0.79350  0.94338  0.90149  1
 O  O2  1  0.15534  0.21551  0.79295  1
 O  O3  1  0.65749  0.74682  0.50464  1
 O  O4  1  0.86248  0.42260  0.20707  1
 O  O5  1  0.39210  0.04204  0.09869  1
 O  O6  1  0.88919  0.80537  0.22839  1
 O  O7  1  0.65294  0.24252  0.49553  1
 O  O8  1  0.16108  0.57716  0.77200  1
 Se  Se1  1  0.60588  0.62398  0.23974  1
 Se  Se2  1  0.86622  0.38434  0.76044  1
 Te  Te1  1  0.14298  0.88695  0.77524  1
 Te  Te2  1  0.86783  0.11185  0.22493  1
