CIF file written using JARVIS-Tools package.
data_Ga2O3
_symmetry_space_group_name_H-M  'Cmcm'
_cell_length_a       2.81671
_cell_length_b       4.89127
_cell_length_c       7.23061
_cell_angle_alpha    90
_cell_angle_beta     90
_cell_angle_gamma    106.734

_symmetry_Int_Tables_number  63
_chemical_formula_structural  Ga2O3
_chemical_formula_sum  Ga4O6
_cell_volume  95.39937862137704
_cell_formula_units_Z  2
loop_
  _symmetry_equiv_pos_site_id
 _symmetry_equiv_pos_as_xyz
 1  'x, y, z'
loop_
 _atom_site_type_symbol
 _atom_site_label
 _atom_site_symmetry_multiplicity
 _atom_site_fract_x
 _atom_site_fract_y
 _atom_site_fract_z
 _atom_site_fract_occupancy
 Ga  Ga1  1  0.75182  0.50364  0.25000  1
 Ga  Ga2  1  0.24818  0.49636  0.75000  1
 Ga  Ga3  1  0.00000  0.00000  0.50000  1
 Ga  Ga4  1  0.00000  0.00000  0.00000  1
 O  O1  1  0.63765  0.27531  0.92533  1
 O  O2  1  0.36235  0.72469  0.07467  1
 O  O3  1  0.36235  0.72469  0.42533  1
 O  O4  1  0.63765  0.27531  0.57467  1
 O  O5  1  0.89430  0.78860  0.75000  1
 O  O6  1  0.10570  0.21140  0.25000  1
