CIF file written using JARVIS-Tools package.
data_HgCSO3F3
_symmetry_space_group_name_H-M  'P-1'
_cell_length_a       5.10484
_cell_length_b       5.25054
_cell_length_c       9.88749
_cell_angle_alpha    92.3862
_cell_angle_beta     97.7862
_cell_angle_gamma    94.0345

_symmetry_Int_Tables_number  2
_chemical_formula_structural  HgCSO3F3
_chemical_formula_sum  Hg2C2S2O6F6
_cell_volume  261.5706595562895
_cell_formula_units_Z  2
loop_
  _symmetry_equiv_pos_site_id
 _symmetry_equiv_pos_as_xyz
 1  'x, y, z'
loop_
 _atom_site_type_symbol
 _atom_site_label
 _atom_site_symmetry_multiplicity
 _atom_site_fract_x
 _atom_site_fract_y
 _atom_site_fract_z
 _atom_site_fract_occupancy
 C  C1  1  0.33540  0.23891  0.12683  1
 C  C2  1  0.66460  0.76109  0.87317  1
 F  F1  1  0.42062  0.83261  0.88771  1
 F  F2  1  0.83070  -0.02893  0.86729  1
 F  F3  1  0.24336  0.37095  0.01927  1
 F  F4  1  0.57938  0.16739  0.11229  1
 F  F5  1  0.16930  0.02893  0.13271  1
 F  F6  1  0.75664  0.62905  0.98073  1
 Hg  Hg1  1  0.16820  0.13321  0.58718  1
 Hg  Hg2  1  0.83180  0.86679  0.41282  1
 O  O1  1  0.51522  0.66903  0.26234  1
 O  O2  1  0.48478  0.33097  0.73766  1
 O  O3  1  0.49223  0.28035  0.39240  1
 O  O4  1  0.08286  0.47636  0.30473  1
 O  O5  1  0.91714  0.52364  0.69527  1
 O  O6  1  0.50777  0.71965  0.60760  1
 S  S1  1  0.64488  0.56564  0.70976  1
 S  S2  1  0.35512  0.43436  0.29024  1
