CIF file written using JARVIS-Tools package.
data_Hf3N4
_symmetry_space_group_name_H-M  'Fd-3m'
_cell_length_a       6.40548
_cell_length_b       6.40548
_cell_length_c       6.40548
_cell_angle_alpha    60
_cell_angle_beta     90
_cell_angle_gamma    120

_symmetry_Int_Tables_number  227
_chemical_formula_structural  Hf3N4
_chemical_formula_sum  Hf6N8
_cell_volume  185.83998764943138
_cell_formula_units_Z  2
loop_
  _symmetry_equiv_pos_site_id
 _symmetry_equiv_pos_as_xyz
 1  'x, y, z'
loop_
 _atom_site_type_symbol
 _atom_site_label
 _atom_site_symmetry_multiplicity
 _atom_site_fract_x
 _atom_site_fract_y
 _atom_site_fract_z
 _atom_site_fract_occupancy
 Hf  Hf1  1  0.50000  0.00000  -0.00000  1
 Hf  Hf2  1  0.50000  0.00000  0.50000  1
 Hf  Hf3  1  0.12500  0.25000  0.12500  1
 Hf  Hf4  1  0.50000  0.50000  0.50000  1
 Hf  Hf5  1  0.87500  0.75000  0.87500  1
 Hf  Hf6  1  -0.00000  0.50000  0.50000  1
 N  N1  1  0.74223  0.48445  0.27333  1
 N  N2  1  0.74223  0.01555  0.74223  1
 N  N3  1  0.27333  0.01555  0.74223  1
 N  N4  1  0.74223  0.48445  0.74223  1
 N  N5  1  0.25777  0.51555  0.25777  1
 N  N6  1  0.72667  0.98445  0.25777  1
 N  N7  1  0.25777  0.51555  0.72667  1
 N  N8  1  0.25777  0.98445  0.25777  1
