CIF file written using JARVIS-Tools package.
data_LiAgF4
_symmetry_space_group_name_H-M  'I4/mcm'
_cell_length_a       5.32527
_cell_length_b       6.2994
_cell_length_c       5.32528
_cell_angle_alpha    64.996
_cell_angle_beta     90
_cell_angle_gamma    64.996

_symmetry_Int_Tables_number  140
_chemical_formula_structural  LiAgF4
_chemical_formula_sum  Li2Ag2F8
_cell_volume  143.21246304909192
_cell_formula_units_Z  2
loop_
  _symmetry_equiv_pos_site_id
 _symmetry_equiv_pos_as_xyz
 1  'x, y, z'
loop_
 _atom_site_type_symbol
 _atom_site_label
 _atom_site_symmetry_multiplicity
 _atom_site_fract_x
 _atom_site_fract_y
 _atom_site_fract_z
 _atom_site_fract_occupancy
 Ag  Ag1  1  0.50000  0.00000  0.00000  1
 Ag  Ag2  1  -0.00000  0.00000  0.50000  1
 F  F1  1  0.94790  0.73120  0.82090  1
 F  F2  1  0.82090  0.73120  0.32090  1
 F  F3  1  0.67910  0.26880  0.55210  1
 F  F4  1  0.44790  0.73120  0.94790  1
 F  F5  1  0.55210  0.26880  0.05210  1
 F  F6  1  0.32090  0.73120  0.44790  1
 F  F7  1  0.17910  0.26880  0.67910  1
 F  F8  1  0.05210  0.26880  0.17910  1
 Li  Li1  1  0.75000  0.50000  0.75000  1
 Li  Li2  1  0.25000  0.50000  0.25000  1
