CIF file written using JARVIS-Tools package.
data_MgBeAl4O8
_symmetry_space_group_name_H-M  'P6_3mc'
_cell_length_a       5.65082
_cell_length_b       5.65082
_cell_length_c       18.2886
_cell_angle_alpha    90
_cell_angle_beta     90
_cell_angle_gamma    120

_symmetry_Int_Tables_number  186
_chemical_formula_structural  MgBeAl4O8
_chemical_formula_sum  Mg4Be4Al6O32
_cell_volume  505.74630299749714
_cell_formula_units_Z  4
loop_
  _symmetry_equiv_pos_site_id
 _symmetry_equiv_pos_as_xyz
 1  'x, y, z'
loop_
 _atom_site_type_symbol
 _atom_site_label
 _atom_site_symmetry_multiplicity
 _atom_site_fract_x
 _atom_site_fract_y
 _atom_site_fract_z
 _atom_site_fract_occupancy
 Al  Al1  1  0.66667  0.33333  0.31283  1
 Al  Al2  1  0.16339  0.83661  0.68647  1
 Al  Al3  1  0.67322  0.83661  0.68647  1
 Al  Al4  1  0.49870  0.99740  0.93768  1
 Al  Al5  1  0.83661  0.16339  0.18647  1
 Al  Al6  1  0.32678  0.16339  0.18647  1
 Al  Al7  1  0.00260  0.50130  0.93768  1
 Al  Al8  1  0.49870  0.50130  0.93768  1
 Al  Al9  1  0.99740  0.49870  0.43768  1
 Al  Al10  1  0.50130  0.00260  0.43768  1
 Al  Al11  1  0.50130  0.49870  0.43768  1
 Al  Al12  1  0.00000  0.00000  0.05350  1
 Al  Al13  1  0.00000  0.00000  0.55350  1
 Al  Al14  1  0.83661  0.67322  0.18647  1
 Al  Al15  1  0.16339  0.32678  0.68647  1
 Al  Al16  1  0.33333  0.66667  0.81283  1
 Be  Be1  1  0.66667  0.33333  0.04564  1
 Be  Be2  1  0.33333  0.66667  0.54564  1
 Be  Be3  1  0.33333  0.66667  0.28155  1
 Be  Be4  1  0.66667  0.33333  0.78155  1
 Mg  Mg1  1  0.00000  0.00000  0.84434  1
 Mg  Mg2  1  0.33333  0.66667  0.09459  1
 Mg  Mg3  1  0.66667  0.33333  0.59459  1
 Mg  Mg4  1  0.00000  0.00000  0.34434  1
 O  O1  1  0.81611  0.18389  0.37860  1
 O  O2  1  0.81611  0.63222  0.37860  1
 O  O3  1  0.63222  0.81611  0.87860  1
 O  O4  1  0.18389  0.81611  0.87860  1
 O  O5  1  0.18389  0.36778  0.87860  1
 O  O6  1  0.66667  0.33333  0.13337  1
 O  O7  1  0.33333  0.66667  0.99058  1
 O  O8  1  0.36778  0.18389  0.37860  1
 O  O9  1  0.66667  0.33333  0.49058  1
 O  O10  1  0.14761  0.29521  0.12535  1
 O  O11  1  0.66667  0.33333  0.87879  1
 O  O12  1  0.00000  0.00000  0.23998  1
 O  O13  1  0.00000  0.00000  0.73998  1
 O  O14  1  0.33333  0.66667  0.63337  1
 O  O15  1  0.33333  0.66667  0.37879  1
 O  O16  1  0.36012  0.18006  0.00021  1
 O  O17  1  0.63988  0.81994  0.50021  1
 O  O18  1  0.49349  0.50651  0.74830  1
 O  O19  1  0.70479  0.85239  0.12535  1
 O  O20  1  0.85239  0.14761  0.62535  1
 O  O21  1  0.85239  0.70479  0.62535  1
 O  O22  1  0.18006  0.81994  0.50021  1
 O  O23  1  0.18006  0.36012  0.50021  1
 O  O24  1  0.29521  0.14761  0.62535  1
 O  O25  1  0.81994  0.18006  0.00021  1
 O  O26  1  0.81994  0.63988  0.00021  1
 O  O27  1  0.01302  0.50651  0.74830  1
 O  O28  1  0.50651  0.49349  0.24830  1
 O  O29  1  0.50651  0.01302  0.24830  1
 O  O30  1  0.98698  0.49349  0.24830  1
 O  O31  1  0.49349  0.98698  0.74830  1
 O  O32  1  0.14761  0.85239  0.12535  1
