CIF file written using JARVIS-Tools package.
data_TeHO3
_symmetry_space_group_name_H-M  'Pc'
_cell_length_a       11.9282
_cell_length_b       8.17189
_cell_length_c       4.79196
_cell_angle_alpha    90
_cell_angle_beta     91.7811
_cell_angle_gamma    90

_symmetry_Int_Tables_number  7
_chemical_formula_structural  TeHO3
_chemical_formula_sum  Te8H8O24
_cell_volume  466.873340463304
_cell_formula_units_Z  8
loop_
  _symmetry_equiv_pos_site_id
 _symmetry_equiv_pos_as_xyz
 1  'x, y, z'
loop_
 _atom_site_type_symbol
 _atom_site_label
 _atom_site_symmetry_multiplicity
 _atom_site_fract_x
 _atom_site_fract_y
 _atom_site_fract_z
 _atom_site_fract_occupancy
 H  H1  1  0.28063  0.60889  0.88906  1
 H  H2  1  0.36085  0.95718  0.50736  1
 H  H3  1  0.23605  0.38516  0.20918  1
 H  H4  1  0.21072  0.14059  0.44261  1
 H  H5  1  0.78063  0.89111  0.88906  1
 H  H6  1  0.71072  0.35941  0.44261  1
 H  H7  1  0.73605  0.11484  0.20918  1
 H  H8  1  0.86085  0.54282  0.50736  1
 O  O1  1  0.84553  0.16691  0.67885  1
 O  O2  1  0.23775  0.04290  0.74424  1
 O  O3  1  0.65741  0.64480  0.18249  1
 O  O4  1  0.34553  0.33309  0.67885  1
 O  O5  1  0.42918  0.02666  0.51764  1
 O  O6  1  0.06597  0.25613  0.78904  1
 O  O7  1  0.54075  0.93959  0.99454  1
 O  O8  1  0.04075  0.56041  0.99454  1
 O  O9  1  0.92918  0.47334  0.51764  1
 O  O10  1  0.79390  0.83728  0.70596  1
 O  O11  1  0.76128  0.99624  0.21643  1
 O  O12  1  0.26128  0.50376  0.21643  1
 O  O13  1  0.73775  0.45710  0.74424  1
 O  O14  1  0.52290  0.58110  0.72336  1
 O  O15  1  0.02290  0.91890  0.72336  1
 O  O16  1  0.20743  0.18665  0.24510  1
 O  O17  1  0.56597  0.24387  0.78904  1
 O  O18  1  0.42652  0.72225  0.27978  1
 O  O19  1  0.92652  0.77775  0.27978  1
 O  O20  1  0.15741  0.85520  0.18249  1
 O  O21  1  0.70743  0.31335  0.24510  1
 O  O22  1  0.29390  0.66272  0.70596  1
 O  O23  1  0.48222  0.39612  0.22143  1
 O  O24  1  0.98222  0.10388  0.22143  1
 Te  Te1  1  0.42177  0.13956  0.88462  1
 Te  Te2  1  0.57392  0.83243  0.33434  1
 Te  Te3  1  0.07392  0.66757  0.33434  1
 Te  Te4  1  0.92177  0.36044  0.88462  1
 Te  Te5  1  0.11581  0.05610  0.98221  1
 Te  Te6  1  0.88994  0.97410  0.48594  1
 Te  Te7  1  0.38994  0.52590  0.48594  1
 Te  Te8  1  0.61581  0.44390  0.98221  1
