CIF file written using JARVIS-Tools package.
data_PrNi2As2
_symmetry_space_group_name_H-M  'P4/nmm'
_cell_length_a       4.25471
_cell_length_b       4.25471
_cell_length_c       9.48224
_cell_angle_alpha    90
_cell_angle_beta     90
_cell_angle_gamma    90

_symmetry_Int_Tables_number  129
_chemical_formula_structural  PrNi2As2
_chemical_formula_sum  Pr2Ni4As4
_cell_volume  171.65261801812326
_cell_formula_units_Z  2
loop_
  _symmetry_equiv_pos_site_id
 _symmetry_equiv_pos_as_xyz
 1  'x, y, z'
loop_
 _atom_site_type_symbol
 _atom_site_label
 _atom_site_symmetry_multiplicity
 _atom_site_fract_x
 _atom_site_fract_y
 _atom_site_fract_z
 _atom_site_fract_occupancy
 As  As1  1  0.50000  0.50000  0.50000  1
 As  As2  1  0.00000  0.00000  0.50000  1
 As  As3  1  0.00000  0.50000  0.12824  1
 As  As4  1  0.50000  0.00000  0.87176  1
 Ni  Ni1  1  0.50000  0.50000  0.00000  1
 Ni  Ni2  1  0.00000  0.00000  0.00000  1
 Ni  Ni3  1  0.00000  0.50000  0.38199  1
 Ni  Ni4  1  0.50000  0.00000  0.61801  1
 Pr  Pr1  1  0.00000  0.50000  0.75294  1
 Pr  Pr2  1  0.50000  0.00000  0.24706  1
