CIF file written using JARVIS-Tools package.
data_Lu5Te2Au2
_symmetry_space_group_name_H-M  'Cmce'
_cell_length_a       8.4762
_cell_length_b       8.4762
_cell_length_c       7.80826
_cell_angle_alpha    90
_cell_angle_beta     90
_cell_angle_gamma    125.165

_symmetry_Int_Tables_number  64
_chemical_formula_structural  Lu5Te2Au2
_chemical_formula_sum  Lu0Te4Au4
_cell_volume  458.6087970976043
_cell_formula_units_Z  2
loop_
  _symmetry_equiv_pos_site_id
 _symmetry_equiv_pos_as_xyz
 1  'x, y, z'
loop_
 _atom_site_type_symbol
 _atom_site_label
 _atom_site_symmetry_multiplicity
 _atom_site_fract_x
 _atom_site_fract_y
 _atom_site_fract_z
 _atom_site_fract_occupancy
 Au  Au1  1  0.13797  0.13797  0.36372  1
 Au  Au2  1  0.63797  0.63797  0.13628  1
 Au  Au3  1  0.86203  0.86203  0.63628  1
 Au  Au4  1  0.36203  0.36203  0.86372  1
 Lu  Lu1  1  0.95910  0.71865  0.34013  1
 Lu  Lu2  1  0.78135  0.54090  0.84013  1
 Lu  Lu3  1  0.71865  0.95910  0.34013  1
 Lu  Lu4  1  0.04090  0.28135  0.65987  1
 Lu  Lu5  1  0.45910  0.21865  0.15987  1
 Lu  Lu6  1  0.50000  0.50000  0.50000  1
 Lu  Lu7  1  0.00000  0.00000  0.00000  1
 Lu  Lu8  1  0.21865  0.45910  0.15987  1
 Lu  Lu9  1  0.28135  0.04090  0.65987  1
 Lu  Lu10  1  0.54090  0.78135  0.84013  1
 Te  Te1  1  0.29142  0.70858  0.50000  1
 Te  Te2  1  0.20858  0.79142  0.00000  1
 Te  Te3  1  0.70858  0.29142  0.50000  1
 Te  Te4  1  0.79142  0.20858  0.00000  1
