CIF file written using JARVIS-Tools package.
data_Mg3Ti
_symmetry_space_group_name_H-M  'Pmmn'
_cell_length_a       4.93894
_cell_length_b       6.17143
_cell_length_c       5.49718
_cell_angle_alpha    90
_cell_angle_beta     90
_cell_angle_gamma    90

_symmetry_Int_Tables_number  59
_chemical_formula_structural  Mg3Ti
_chemical_formula_sum  Mg6Ti2
_cell_volume  167.55569554269977
_cell_formula_units_Z  2
loop_
  _symmetry_equiv_pos_site_id
 _symmetry_equiv_pos_as_xyz
 1  'x, y, z'
loop_
 _atom_site_type_symbol
 _atom_site_label
 _atom_site_symmetry_multiplicity
 _atom_site_fract_x
 _atom_site_fract_y
 _atom_site_fract_z
 _atom_site_fract_occupancy
 Mg  Mg1  1  0.00000  0.24802  0.66467  1
 Mg  Mg2  1  0.00000  0.50000  0.16161  1
 Mg  Mg3  1  0.00000  0.75198  0.66467  1
 Mg  Mg4  1  0.50000  0.00000  0.83839  1
 Mg  Mg5  1  0.50000  0.25198  0.33533  1
 Mg  Mg6  1  0.50000  0.74802  0.33533  1
 Ti  Ti1  1  0.00000  0.00000  0.14960  1
 Ti  Ti2  1  0.50000  0.50000  0.85040  1
