CIF file written using JARVIS-Tools package.
data_Li2NdAs2
_symmetry_space_group_name_H-M  'P-3m1'
_cell_length_a       4.26728
_cell_length_b       4.26738
_cell_length_c       7.00639
_cell_angle_alpha    90.0051
_cell_angle_beta     90
_cell_angle_gamma    119.999

_symmetry_Int_Tables_number  164
_chemical_formula_structural  Li2NdAs2
_chemical_formula_sum  Li2NdAs2
_cell_volume  110.49461472999982
_cell_formula_units_Z  1
loop_
  _symmetry_equiv_pos_site_id
 _symmetry_equiv_pos_as_xyz
 1  'x, y, z'
loop_
 _atom_site_type_symbol
 _atom_site_label
 _atom_site_symmetry_multiplicity
 _atom_site_fract_x
 _atom_site_fract_y
 _atom_site_fract_z
 _atom_site_fract_occupancy
 As  As1  1  0.66670  0.33339  0.24630  1
 As  As2  1  0.33330  0.66661  0.75370  1
 Li  Li1  1  0.66662  0.33324  0.62295  1
 Li  Li2  1  0.33338  0.66676  0.37705  1
 Nd  Nd1  1  0.00000  0.00000  0.00000  1
