CIF file written using JARVIS-Tools package.
data_UH2O4
_symmetry_space_group_name_H-M  'C2'
_cell_length_a       4.17734
_cell_length_b       6.09231
_cell_length_c       7.23008
_cell_angle_alpha    35.1061
_cell_angle_beta     73.2076
_cell_angle_gamma    69.9519

_symmetry_Int_Tables_number  5
_chemical_formula_structural  UH2O4
_chemical_formula_sum  UH2O4
_cell_volume  99.3943322138277
_cell_formula_units_Z  1
loop_
  _symmetry_equiv_pos_site_id
 _symmetry_equiv_pos_as_xyz
 1  'x, y, z'
loop_
 _atom_site_type_symbol
 _atom_site_label
 _atom_site_symmetry_multiplicity
 _atom_site_fract_x
 _atom_site_fract_y
 _atom_site_fract_z
 _atom_site_fract_occupancy
 H  H1  1  0.41998  0.57830  0.94845  1
 H  H2  1  0.94707  0.51497  0.95763  1
 O  O1  1  0.17040  0.69935  0.93356  1
 O  O2  1  0.80365  0.39392  0.97251  1
 O  O3  1  0.48479  0.04664  0.95303  1
 O  O4  1  0.98962  0.54664  0.45304  1
 U  U1  1  0.98904  0.04664  0.95304  1
