CIF file written using JARVIS-Tools package.
data_LiLaTiO4
_symmetry_space_group_name_H-M  'P4/nmm'
_cell_length_a       3.76029
_cell_length_b       3.76029
_cell_length_c       12.2918
_cell_angle_alpha    90
_cell_angle_beta     90
_cell_angle_gamma    90

_symmetry_Int_Tables_number  129
_chemical_formula_structural  LiLaTiO4
_chemical_formula_sum  Li2La2Ti2O8
_cell_volume  173.8028804161159
_cell_formula_units_Z  2
loop_
  _symmetry_equiv_pos_site_id
 _symmetry_equiv_pos_as_xyz
 1  'x, y, z'
loop_
 _atom_site_type_symbol
 _atom_site_label
 _atom_site_symmetry_multiplicity
 _atom_site_fract_x
 _atom_site_fract_y
 _atom_site_fract_z
 _atom_site_fract_occupancy
 La  La1  1  0.75000  0.75000  0.11796  1
 La  La2  1  0.25000  0.25000  0.88204  1
 Li  Li1  1  0.25000  0.75000  0.50000  1
 Li  Li2  1  0.75000  0.25000  0.50000  1
 O  O1  1  0.75000  0.75000  0.92365  1
 O  O2  1  0.25000  0.25000  0.07635  1
 O  O3  1  0.75000  0.75000  0.55760  1
 O  O4  1  0.25000  0.25000  0.44240  1
 O  O5  1  0.75000  0.25000  0.74373  1
 O  O6  1  0.25000  0.75000  0.74373  1
 O  O7  1  0.25000  0.75000  0.25627  1
 O  O8  1  0.75000  0.25000  0.25627  1
 Ti  Ti1  1  0.75000  0.75000  0.70357  1
 Ti  Ti2  1  0.25000  0.25000  0.29643  1
