CIF file written using JARVIS-Tools package.
data_CaTa2O6
_symmetry_space_group_name_H-M  'Pm-3'
_cell_length_a       7.82974
_cell_length_b       7.82974
_cell_length_c       7.82974
_cell_angle_alpha    90
_cell_angle_beta     90
_cell_angle_gamma    90

_symmetry_Int_Tables_number  200
_chemical_formula_structural  CaTa2O6
_chemical_formula_sum  Ca4Ta8O24
_cell_volume  480.00079726907336
_cell_formula_units_Z  4
loop_
  _symmetry_equiv_pos_site_id
 _symmetry_equiv_pos_as_xyz
 1  'x, y, z'
loop_
 _atom_site_type_symbol
 _atom_site_label
 _atom_site_symmetry_multiplicity
 _atom_site_fract_x
 _atom_site_fract_y
 _atom_site_fract_z
 _atom_site_fract_occupancy
 Ca  Ca1  1  0.50000  0.00000  0.00000  1
 Ca  Ca2  1  0.50000  0.50000  0.50000  1
 Ca  Ca3  1  0.00000  0.50000  0.00000  1
 Ca  Ca4  1  0.00000  0.00000  0.50000  1
 O  O1  1  0.22358  0.72050  0.50000  1
 O  O2  1  0.79104  0.00000  0.71615  1
 O  O3  1  0.79104  0.00000  0.28385  1
 O  O4  1  0.28385  0.20896  0.00000  1
 O  O5  1  0.27950  0.50000  0.22358  1
 O  O6  1  0.50000  0.77642  0.72050  1
 O  O7  1  0.20896  0.00000  0.71615  1
 O  O8  1  0.50000  0.22358  0.27950  1
 O  O9  1  0.22358  0.27950  0.50000  1
 O  O10  1  0.71615  0.79104  0.00000  1
 O  O11  1  0.00000  0.28385  0.79104  1
 O  O12  1  0.77642  0.27950  0.50000  1
 O  O13  1  0.28385  0.79104  0.00000  1
 O  O14  1  0.50000  0.22358  0.72050  1
 O  O15  1  0.72050  0.50000  0.22358  1
 O  O16  1  0.50000  0.77642  0.27950  1
 O  O17  1  0.71615  0.20896  0.00000  1
 O  O18  1  0.00000  0.28385  0.20896  1
 O  O19  1  0.77642  0.72050  0.50000  1
 O  O20  1  0.27950  0.50000  0.77642  1
 O  O21  1  0.00000  0.71615  0.20896  1
 O  O22  1  0.20896  0.00000  0.28385  1
 O  O23  1  0.00000  0.71615  0.79104  1
 O  O24  1  0.72050  0.50000  0.77642  1
 Ta  Ta1  1  0.75077  0.75077  0.24923  1
 Ta  Ta2  1  0.75077  0.24923  0.75077  1
 Ta  Ta3  1  0.24923  0.24923  0.24923  1
 Ta  Ta4  1  0.75077  0.75077  0.75077  1
 Ta  Ta5  1  0.24923  0.75077  0.75077  1
 Ta  Ta6  1  0.24923  0.24923  0.75077  1
 Ta  Ta7  1  0.75077  0.24923  0.24923  1
 Ta  Ta8  1  0.24923  0.75077  0.24923  1
