CIF file written using JARVIS-Tools package.
data_LiEu2Si3
_symmetry_space_group_name_H-M  'C2/m'
_cell_length_a       4.30055
_cell_length_b       7.67575
_cell_length_c       7.79504
_cell_angle_alpha    104.269
_cell_angle_beta     106.013
_cell_angle_gamma    89.9994

_symmetry_Int_Tables_number  12
_chemical_formula_structural  LiEu2Si3
_chemical_formula_sum  Li2Eu4Si6
_cell_volume  239.06082289988768
_cell_formula_units_Z  2
loop_
  _symmetry_equiv_pos_site_id
 _symmetry_equiv_pos_as_xyz
 1  'x, y, z'
loop_
 _atom_site_type_symbol
 _atom_site_label
 _atom_site_symmetry_multiplicity
 _atom_site_fract_x
 _atom_site_fract_y
 _atom_site_fract_z
 _atom_site_fract_occupancy
 Eu  Eu1  1  0.61816  0.93166  0.23640  1
 Eu  Eu2  1  0.38546  0.56494  0.77086  1
 Eu  Eu3  1  0.38184  0.06834  0.76360  1
 Eu  Eu4  1  0.61454  0.43506  0.22914  1
 Li  Li1  1  0.21323  0.24069  0.42646  1
 Li  Li2  1  0.78677  0.75931  0.57354  1
 Si  Si1  1  0.79008  0.27094  0.58015  1
 Si  Si2  1  0.95099  0.85228  0.90186  1
 Si  Si3  1  0.04901  0.14772  0.09814  1
 Si  Si4  1  0.95409  0.34949  0.90803  1
 Si  Si5  1  0.20992  0.72906  0.41985  1
 Si  Si6  1  0.04591  0.65051  0.09197  1
