CIF file written using JARVIS-Tools package.
data_AlAu2
_symmetry_space_group_name_H-M  'Pnma'
_cell_length_a       3.31723
_cell_length_b       6.8815
_cell_length_c       8.95597
_cell_angle_alpha    90
_cell_angle_beta     90
_cell_angle_gamma    90

_symmetry_Int_Tables_number  62
_chemical_formula_structural  AlAu2
_chemical_formula_sum  Al4Au8
_cell_volume  204.4424523138619
_cell_formula_units_Z  4
loop_
  _symmetry_equiv_pos_site_id
 _symmetry_equiv_pos_as_xyz
 1  'x, y, z'
loop_
 _atom_site_type_symbol
 _atom_site_label
 _atom_site_symmetry_multiplicity
 _atom_site_fract_x
 _atom_site_fract_y
 _atom_site_fract_z
 _atom_site_fract_occupancy
 Al  Al1  1  0.75000  0.35960  0.72418  1
 Al  Al2  1  0.25000  0.64040  0.27582  1
 Al  Al3  1  0.25000  0.14040  0.22418  1
 Al  Al4  1  0.75000  0.85960  0.77582  1
 Au  Au1  1  0.75000  0.84979  0.07100  1
 Au  Au2  1  0.75000  0.42164  0.11969  1
 Au  Au3  1  0.25000  0.57836  0.88031  1
 Au  Au4  1  0.25000  0.07836  0.61969  1
 Au  Au5  1  0.75000  0.34979  0.42900  1
 Au  Au6  1  0.25000  0.65021  0.57100  1
 Au  Au7  1  0.75000  0.92164  0.38031  1
 Au  Au8  1  0.25000  0.15021  0.92900  1
