CIF file written using JARVIS-Tools package.
data_Li4Mn3OF8
_symmetry_space_group_name_H-M  'Cm'
_cell_length_a       2.94787
_cell_length_b       5.0711
_cell_length_c       11.5465
_cell_angle_alpha    78.5329
_cell_angle_beta     90
_cell_angle_gamma    73.1028

_symmetry_Int_Tables_number  8
_chemical_formula_structural  Li4Mn3OF8
_chemical_formula_sum  Li4Mn3OF8
_cell_volume  161.55235373418742
_cell_formula_units_Z  1
loop_
  _symmetry_equiv_pos_site_id
 _symmetry_equiv_pos_as_xyz
 1  'x, y, z'
loop_
 _atom_site_type_symbol
 _atom_site_label
 _atom_site_symmetry_multiplicity
 _atom_site_fract_x
 _atom_site_fract_y
 _atom_site_fract_z
 _atom_site_fract_occupancy
 F  F1  1  0.62696  0.74608  0.96270  1
 F  F2  1  0.09160  0.81680  0.70837  1
 F  F3  1  0.12855  0.74290  0.16661  1
 F  F4  1  0.20019  0.59961  0.39401  1
 F  F5  1  0.80250  0.39500  0.59379  1
 F  F6  1  0.90033  0.19934  0.27861  1
 F  F7  1  0.37528  0.24943  0.06323  1
 F  F8  1  0.50396  0.99208  0.48308  1
 Li  Li1  1  0.14086  0.71828  0.54811  1
 Li  Li2  1  0.76876  0.46247  0.12686  1
 Li  Li3  1  0.86131  0.27739  0.44239  1
 Li  Li4  1  -0.00254  0.00508  0.00667  1
 Mn  Mn1  1  0.56115  0.87769  0.28954  1
 Mn  Mn2  1  0.24337  0.51325  0.88080  1
 Mn  Mn3  1  0.42604  0.14792  0.71878  1
 O  O1  1  0.87166  0.25668  0.83645  1
