CIF file written using JARVIS-Tools package.
data_HfAu4
_symmetry_space_group_name_H-M  'Pnma'
_cell_length_a       4.92086
_cell_length_b       5.09001
_cell_length_c       14.4909
_cell_angle_alpha    90
_cell_angle_beta     90
_cell_angle_gamma    90

_symmetry_Int_Tables_number  62
_chemical_formula_structural  HfAu4
_chemical_formula_sum  Hf4Au6
_cell_volume  362.9582392069824
_cell_formula_units_Z  4
loop_
  _symmetry_equiv_pos_site_id
 _symmetry_equiv_pos_as_xyz
 1  'x, y, z'
loop_
 _atom_site_type_symbol
 _atom_site_label
 _atom_site_symmetry_multiplicity
 _atom_site_fract_x
 _atom_site_fract_y
 _atom_site_fract_z
 _atom_site_fract_occupancy
 Au  Au1  1  0.25000  0.15496  0.59907  1
 Au  Au2  1  0.25000  0.16049  0.00170  1
 Au  Au3  1  0.75000  0.33951  0.50170  1
 Au  Au4  1  0.75000  0.83951  0.99830  1
 Au  Au5  1  0.25000  0.66049  0.49830  1
 Au  Au6  1  0.25000  0.15704  0.20182  1
 Au  Au7  1  0.75000  0.32612  0.30487  1
 Au  Au8  1  0.75000  0.34296  0.70182  1
 Au  Au9  1  0.25000  0.65704  0.29818  1
 Au  Au10  1  0.25000  0.17388  0.80487  1
 Au  Au11  1  0.75000  0.34504  0.09907  1
 Au  Au12  1  0.75000  0.84504  0.40093  1
 Au  Au13  1  0.25000  0.65496  0.90093  1
 Au  Au14  1  0.25000  0.67388  0.69513  1
 Au  Au15  1  0.75000  0.82612  0.19513  1
 Au  Au16  1  0.75000  0.84296  0.79818  1
 Hf  Hf1  1  0.25000  0.15642  0.40111  1
 Hf  Hf2  1  0.75000  0.34358  0.90111  1
 Hf  Hf3  1  0.75000  0.84358  0.59889  1
 Hf  Hf4  1  0.25000  0.65642  0.09889  1
