CIF file written using JARVIS-Tools package.
data_NiRh2Se4
_symmetry_space_group_name_H-M  'C2/m'
_cell_length_a       3.71484
_cell_length_b       6.38745
_cell_length_c       6.44987
_cell_angle_alpha    118.161
_cell_angle_beta     106.737
_cell_angle_gamma    90

_symmetry_Int_Tables_number  12
_chemical_formula_structural  NiRh2Se4
_chemical_formula_sum  NiRh2Se4
_cell_volume  127.5268203441708
_cell_formula_units_Z  1
loop_
  _symmetry_equiv_pos_site_id
 _symmetry_equiv_pos_as_xyz
 1  'x, y, z'
loop_
 _atom_site_type_symbol
 _atom_site_label
 _atom_site_symmetry_multiplicity
 _atom_site_fract_x
 _atom_site_fract_y
 _atom_site_fract_z
 _atom_site_fract_occupancy
 Ni  Ni1  1  0.00000  0.00000  0.00000  1
 Rh  Rh1  1  0.73664  0.71879  0.47329  1
 Rh  Rh2  1  0.26336  0.28121  0.52671  1
 Se  Se1  1  0.63086  0.97445  0.26172  1
 Se  Se2  1  0.36914  0.02555  0.73828  1
 Se  Se3  1  0.88309  0.55101  0.76617  1
 Se  Se4  1  0.11691  0.44899  0.23383  1
