CIF file written using JARVIS-Tools package.
data_FeSe
_symmetry_space_group_name_H-M  'P6_3/mmc'
_cell_length_a       3.81289
_cell_length_b       5.0585
_cell_length_c       6.60459
_cell_angle_alpha    90
_cell_angle_beta     90
_cell_angle_gamma    90

_symmetry_Int_Tables_number  194
_chemical_formula_structural  FeSe
_chemical_formula_sum  Fe4Se4
_cell_volume  127.38612453828073
_cell_formula_units_Z  4
loop_
  _symmetry_equiv_pos_site_id
 _symmetry_equiv_pos_as_xyz
 1  'x, y, z'
loop_
 _atom_site_type_symbol
 _atom_site_label
 _atom_site_symmetry_multiplicity
 _atom_site_fract_x
 _atom_site_fract_y
 _atom_site_fract_z
 _atom_site_fract_occupancy
 Fe  Fe1  1  0.75000  0.49994  0.74991  1
 Fe  Fe2  1  0.75000  -0.00006  0.75009  1
 Fe  Fe3  1  0.25000  0.50006  0.25009  1
 Fe  Fe4  1  0.25000  0.00006  0.24991  1
 Se  Se1  1  0.75000  0.25011  0.08333  1
 Se  Se2  1  0.75000  0.75011  0.41667  1
 Se  Se3  1  0.25000  0.74989  0.91667  1
 Se  Se4  1  0.25000  0.24989  0.58333  1
