CIF file written using JARVIS-Tools package.
data_Co2B2O5
_symmetry_space_group_name_H-M  'P-1'
_cell_length_a       3.10947
_cell_length_b       6.26358
_cell_length_c       9.12572
_cell_angle_alpha    103.443
_cell_angle_beta     90.1974
_cell_angle_gamma    91.1576

_symmetry_Int_Tables_number  2
_chemical_formula_structural  Co2B2O5
_chemical_formula_sum  Co4B4O0
_cell_volume  172.82566029107267
_cell_formula_units_Z  2
loop_
  _symmetry_equiv_pos_site_id
 _symmetry_equiv_pos_as_xyz
 1  'x, y, z'
loop_
 _atom_site_type_symbol
 _atom_site_label
 _atom_site_symmetry_multiplicity
 _atom_site_fract_x
 _atom_site_fract_y
 _atom_site_fract_z
 _atom_site_fract_occupancy
 B  B1  1  0.69907  0.68741  0.36024  1
 B  B2  1  0.30093  0.31259  0.63976  1
 B  B3  1  0.34181  0.88385  0.16828  1
 B  B4  1  0.65819  0.11615  0.83172  1
 Co  Co1  1  0.73116  0.21513  0.34911  1
 Co  Co2  1  0.26884  0.78487  0.65089  1
 Co  Co3  1  0.22827  0.38166  0.10008  1
 Co  Co4  1  0.77173  0.61834  0.89992  1
 O  O1  1  0.77917  0.72711  0.51040  1
 O  O2  1  0.73848  0.29954  0.94377  1
 O  O3  1  0.23287  0.09512  0.17455  1
 O  O4  1  0.26152  0.70046  0.05623  1
 O  O5  1  0.43396  0.13561  0.69888  1
 O  O6  1  0.26738  0.51527  0.73669  1
 O  O7  1  0.56604  0.86439  0.30112  1
 O  O8  1  0.76713  0.90488  0.82545  1
 O  O9  1  0.73262  0.48473  0.26331  1
 O  O10  1  0.22083  0.27289  0.48960  1
