CIF file written using JARVIS-Tools package.
data_Ba2TeO
_symmetry_space_group_name_H-M  'P4/nmm'
_cell_length_a       5.08716
_cell_length_b       5.08716
_cell_length_c       10.0795
_cell_angle_alpha    90
_cell_angle_beta     90
_cell_angle_gamma    90

_symmetry_Int_Tables_number  129
_chemical_formula_structural  Ba2TeO
_chemical_formula_sum  Ba4Te2O2
_cell_volume  260.84940642089555
_cell_formula_units_Z  2
loop_
  _symmetry_equiv_pos_site_id
 _symmetry_equiv_pos_as_xyz
 1  'x, y, z'
loop_
 _atom_site_type_symbol
 _atom_site_label
 _atom_site_symmetry_multiplicity
 _atom_site_fract_x
 _atom_site_fract_y
 _atom_site_fract_z
 _atom_site_fract_occupancy
 Ba  Ba1  1  0.25000  0.25000  0.83541  1
 Ba  Ba2  1  0.75000  0.75000  0.16459  1
 Ba  Ba3  1  0.25000  0.75000  0.50000  1
 Ba  Ba4  1  0.75000  0.25000  0.50000  1
 O  O1  1  0.25000  0.25000  0.58841  1
 O  O2  1  0.75000  0.75000  0.41159  1
 Te  Te1  1  0.75000  0.75000  0.80006  1
 Te  Te2  1  0.25000  0.25000  0.19994  1
