CIF file written using JARVIS-Tools package.
data_UFeB4
_symmetry_space_group_name_H-M  'Pbam'
_cell_length_a       3.40743
_cell_length_b       5.87505
_cell_length_c       11.3849
_cell_angle_alpha    90
_cell_angle_beta     90
_cell_angle_gamma    90

_symmetry_Int_Tables_number  55
_chemical_formula_structural  UFeB4
_chemical_formula_sum  U4Fe4B6
_cell_volume  227.91369347090938
_cell_formula_units_Z  4
loop_
  _symmetry_equiv_pos_site_id
 _symmetry_equiv_pos_as_xyz
 1  'x, y, z'
loop_
 _atom_site_type_symbol
 _atom_site_label
 _atom_site_symmetry_multiplicity
 _atom_site_fract_x
 _atom_site_fract_y
 _atom_site_fract_z
 _atom_site_fract_occupancy
 B  B1  1  0.50000  0.11286  0.45430  1
 B  B2  1  0.50000  0.28256  0.68652  1
 B  B3  1  0.50000  0.71744  0.31348  1
 B  B4  1  0.50000  0.21744  0.18652  1
 B  B5  1  0.50000  0.02591  0.30888  1
 B  B6  1  0.50000  0.36375  0.53364  1
 B  B7  1  0.50000  0.63625  0.46636  1
 B  B8  1  0.50000  0.78256  0.81348  1
 B  B9  1  0.50000  0.86375  0.96636  1
 B  B10  1  0.50000  0.38714  0.95430  1
 B  B11  1  0.50000  0.61286  0.04570  1
 B  B12  1  0.50000  0.97409  0.69112  1
 B  B13  1  0.50000  0.88714  0.54570  1
 B  B14  1  0.50000  0.47409  0.80888  1
 B  B15  1  0.50000  0.52591  0.19112  1
 B  B16  1  0.50000  0.13625  0.03364  1
 Fe  Fe1  1  0.00000  0.63436  0.91037  1
 Fe  Fe2  1  0.00000  0.36564  0.08963  1
 Fe  Fe3  1  0.00000  0.86564  0.41037  1
 Fe  Fe4  1  0.00000  0.13436  0.58963  1
 U  U1  1  0.00000  0.62625  0.65027  1
 U  U2  1  0.00000  0.37375  0.34973  1
 U  U3  1  0.00000  0.87375  0.15027  1
 U  U4  1  0.00000  0.12625  0.84973  1
