CIF file written using JARVIS-Tools package.
data_Yb2O3
_symmetry_space_group_name_H-M  'Ia-3'
_cell_length_a       9.1958
_cell_length_b       9.19579
_cell_length_c       9.19579
_cell_angle_alpha    109.471
_cell_angle_beta     109.471
_cell_angle_gamma    109.471

_symmetry_Int_Tables_number  206
_chemical_formula_structural  Yb2O3
_chemical_formula_sum  Yb6O24
_cell_volume  598.6122119675565
_cell_formula_units_Z  8
loop_
  _symmetry_equiv_pos_site_id
 _symmetry_equiv_pos_as_xyz
 1  'x, y, z'
loop_
 _atom_site_type_symbol
 _atom_site_label
 _atom_site_symmetry_multiplicity
 _atom_site_fract_x
 _atom_site_fract_y
 _atom_site_fract_z
 _atom_site_fract_occupancy
 O  O1  1  0.73095  0.26146  0.76887  1
 O  O2  1  0.23113  0.26905  0.73854  1
 O  O3  1  0.26887  0.00741  0.03792  1
 O  O4  1  0.23095  0.46208  0.46949  1
 O  O5  1  0.46208  0.46949  0.23095  1
 O  O6  1  0.76146  0.03051  0.49259  1
 O  O7  1  0.26905  0.73854  0.23113  1
 O  O8  1  0.03792  0.26887  0.00741  1
 O  O9  1  0.99259  0.96208  0.73113  1
 O  O10  1  0.26146  0.76887  0.73095  1
 O  O11  1  0.00741  0.03792  0.26887  1
 O  O12  1  0.46949  0.23095  0.46208  1
 O  O13  1  0.96949  0.50741  0.23854  1
 O  O14  1  0.76887  0.73095  0.26146  1
 O  O15  1  0.73113  0.99259  0.96208  1
 O  O16  1  0.76905  0.53792  0.53051  1
 O  O17  1  0.53051  0.76905  0.53792  1
 O  O18  1  0.49259  0.76146  0.03051  1
 O  O19  1  0.03051  0.49259  0.76146  1
 O  O20  1  0.50741  0.23854  0.96949  1
 O  O21  1  0.23854  0.96949  0.50741  1
 O  O22  1  0.53792  0.53051  0.76905  1
 O  O23  1  0.96208  0.73113  0.99259  1
 O  O24  1  0.73854  0.23113  0.26905  1
 Yb  Yb1  1  0.25000  0.71907  0.46907  1
 Yb  Yb2  1  0.03093  0.75000  0.78093  1
 Yb  Yb3  1  0.78093  0.03093  0.75000  1
 Yb  Yb4  1  0.46907  0.25000  0.71907  1
 Yb  Yb5  1  0.71907  0.46907  0.25000  1
 Yb  Yb6  1  0.75000  0.28093  0.53093  1
 Yb  Yb7  1  0.75000  0.78093  0.03093  1
 Yb  Yb8  1  0.53093  0.75000  0.28093  1
 Yb  Yb9  1  0.28093  0.53093  0.75000  1
 Yb  Yb10  1  0.25000  0.21907  0.96907  1
 Yb  Yb11  1  0.00000  0.50000  -0.00000  1
 Yb  Yb12  1  0.50000  0.00000  0.00000  1
 Yb  Yb13  1  0.96907  0.25000  0.21907  1
 Yb  Yb14  1  0.00000  0.00000  0.50000  1
 Yb  Yb15  1  0.21907  0.96907  0.25000  1
 Yb  Yb16  1  0.50000  0.50000  0.50000  1
