CIF file written using JARVIS-Tools package.
data_BiOF
_symmetry_space_group_name_H-M  'R-3m'
_cell_length_a       3.99746
_cell_length_b       7.13518
_cell_length_c       3.99747
_cell_angle_alpha    106.268
_cell_angle_beta     120
_cell_angle_gamma    90

_symmetry_Int_Tables_number  166
_chemical_formula_structural  BiOF
_chemical_formula_sum  Bi2O2F2
_cell_volume  93.43445763575625
_cell_formula_units_Z  2
loop_
  _symmetry_equiv_pos_site_id
 _symmetry_equiv_pos_as_xyz
 1  'x, y, z'
loop_
 _atom_site_type_symbol
 _atom_site_label
 _atom_site_symmetry_multiplicity
 _atom_site_fract_x
 _atom_site_fract_y
 _atom_site_fract_z
 _atom_site_fract_occupancy
 Bi  Bi1  1  0.75992  0.27976  0.51984  1
 Bi  Bi2  1  0.24008  0.72024  0.48016  1
 F  F1  1  0.37629  0.12888  0.75259  1
 F  F2  1  0.62371  0.87112  0.24741  1
 O  O1  1  0.12726  0.38179  0.25452  1
 O  O2  1  0.87274  0.61821  0.74548  1
