CIF file written using JARVIS-Tools package.
data_EuCu4P3
_symmetry_space_group_name_H-M  'P4/mmm'
_cell_length_a       4.02987
_cell_length_b       4.02987
_cell_length_c       7.49343
_cell_angle_alpha    90
_cell_angle_beta     90
_cell_angle_gamma    90

_symmetry_Int_Tables_number  123
_chemical_formula_structural  EuCu4P3
_chemical_formula_sum  EuCu4P3
_cell_volume  121.69231162967945
_cell_formula_units_Z  1
loop_
  _symmetry_equiv_pos_site_id
 _symmetry_equiv_pos_as_xyz
 1  'x, y, z'
loop_
 _atom_site_type_symbol
 _atom_site_label
 _atom_site_symmetry_multiplicity
 _atom_site_fract_x
 _atom_site_fract_y
 _atom_site_fract_z
 _atom_site_fract_occupancy
 Cu  Cu1  1  0.00000  0.50000  0.82154  1
 Cu  Cu2  1  0.50000  0.00000  0.82154  1
 Cu  Cu3  1  0.00000  0.50000  0.17846  1
 Cu  Cu4  1  0.50000  0.00000  0.17846  1
 Eu  Eu1  1  0.00000  0.00000  0.50000  1
 P  P1  1  0.00000  0.00000  0.00000  1
 P  P2  1  0.50000  0.50000  0.65105  1
 P  P3  1  0.50000  0.50000  0.34895  1
