CIF file written using JARVIS-Tools package.
data_MnOF
_symmetry_space_group_name_H-M  'Pmn2_1'
_cell_length_a       4.53618
_cell_length_b       4.54779
_cell_length_c       9.35284
_cell_angle_alpha    90
_cell_angle_beta     90
_cell_angle_gamma    90

_symmetry_Int_Tables_number  31
_chemical_formula_structural  MnOF
_chemical_formula_sum  Mn6O6F6
_cell_volume  192.94549128330226
_cell_formula_units_Z  6
loop_
  _symmetry_equiv_pos_site_id
 _symmetry_equiv_pos_as_xyz
 1  'x, y, z'
loop_
 _atom_site_type_symbol
 _atom_site_label
 _atom_site_symmetry_multiplicity
 _atom_site_fract_x
 _atom_site_fract_y
 _atom_site_fract_z
 _atom_site_fract_occupancy
 F  F1  1  0.01876  0.21404  0.34105  1
 F  F2  1  0.49594  0.27590  0.50000  1
 F  F3  1  0.98124  0.71404  0.84105  1
 F  F4  1  0.98124  0.71404  0.15895  1
 F  F5  1  0.50406  0.77590  0.00000  1
 F  F6  1  0.01876  0.21404  0.65895  1
 Mn  Mn1  1  0.28163  0.02165  0.16631  1
 Mn  Mn2  1  0.71837  0.52165  0.66631  1
 Mn  Mn3  1  0.77152  0.44332  0.00000  1
 Mn  Mn4  1  0.71837  0.52165  0.33369  1
 Mn  Mn5  1  0.22848  0.94332  0.50000  1
 Mn  Mn6  1  0.28163  0.02165  0.83369  1
 O  O1  1  0.57494  0.30884  0.82876  1
 O  O2  1  0.90598  0.69173  0.50000  1
 O  O3  1  0.42506  0.80884  0.32876  1
 O  O4  1  0.42506  0.80884  0.67124  1
 O  O5  1  0.09402  0.19173  0.00000  1
 O  O6  1  0.57494  0.30884  0.17124  1
