CIF file written using JARVIS-Tools package.
data_Li2Mn3SbO8
_symmetry_space_group_name_H-M  'P-1'
_cell_length_a       5.93936
_cell_length_b       5.93313
_cell_length_c       5.9873
_cell_angle_alpha    117.05
_cell_angle_beta     119.765
_cell_angle_gamma    89.8879

_symmetry_Int_Tables_number  2
_chemical_formula_structural  Li2Mn3SbO8
_chemical_formula_sum  Li2Mn3SbO8
_cell_volume  156.13056065207334
_cell_formula_units_Z  1
loop_
  _symmetry_equiv_pos_site_id
 _symmetry_equiv_pos_as_xyz
 1  'x, y, z'
loop_
 _atom_site_type_symbol
 _atom_site_label
 _atom_site_symmetry_multiplicity
 _atom_site_fract_x
 _atom_site_fract_y
 _atom_site_fract_z
 _atom_site_fract_occupancy
 Li  Li1  1  0.50003  0.00004  0.50004  1
 Li  Li2  1  0.00003  0.00008  0.50005  1
 Mn  Mn1  1  0.50000  -0.00002  0.00000  1
 Mn  Mn2  1  0.49998  0.49999  0.49996  1
 Mn  Mn3  1  -0.00004  0.50000  0.49992  1
 O  O1  1  0.29423  0.75261  0.56460  1
 O  O2  1  0.26886  0.79027  0.02009  1
 O  O3  1  0.76344  0.80212  0.04232  1
 O  O4  1  0.24110  0.25607  0.45927  1
 O  O5  1  0.75888  0.74393  0.54072  1
 O  O6  1  0.23656  0.19786  0.95770  1
 O  O7  1  0.73116  0.20970  0.97992  1
 O  O8  1  0.70577  0.24739  0.43540  1
 Sb  Sb1  1  0.00000  -0.00003  -0.00000  1
