CIF file written using JARVIS-Tools package.
data_Mn3O2F4
_symmetry_space_group_name_H-M  'C2/m'
_cell_length_a       4.76245
_cell_length_b       4.76245
_cell_length_c       9.34861
_cell_angle_alpha    90.0126
_cell_angle_beta     90.0126
_cell_angle_gamma    95.3007

_symmetry_Int_Tables_number  12
_chemical_formula_structural  Mn3O2F4
_chemical_formula_sum  Mn6O4F8
_cell_volume  211.12868337727616
_cell_formula_units_Z  2
loop_
  _symmetry_equiv_pos_site_id
 _symmetry_equiv_pos_as_xyz
 1  'x, y, z'
loop_
 _atom_site_type_symbol
 _atom_site_label
 _atom_site_symmetry_multiplicity
 _atom_site_fract_x
 _atom_site_fract_y
 _atom_site_fract_z
 _atom_site_fract_occupancy
 F  F1  1  0.81594  0.20624  0.83254  1
 F  F2  1  0.71917  0.71917  0.67515  1
 F  F3  1  0.28083  0.28083  0.32485  1
 F  F4  1  0.20624  0.81594  0.83254  1
 F  F5  1  0.19763  0.80237  0.50000  1
 F  F6  1  0.18406  0.79376  0.16746  1
 F  F7  1  0.80237  0.19763  0.50000  1
 F  F8  1  0.79376  0.18406  0.16746  1
 Mn  Mn1  1  0.00000  0.00000  0.00000  1
 Mn  Mn2  1  0.50000  0.50000  0.50000  1
 Mn  Mn3  1  0.50128  0.50128  0.15676  1
 Mn  Mn4  1  0.49872  0.49872  0.84324  1
 Mn  Mn5  1  0.03368  0.03368  0.66870  1
 Mn  Mn6  1  0.96632  0.96632  0.33130  1
 O  O1  1  0.32609  0.32609  0.67136  1
 O  O2  1  0.67391  0.67391  0.32864  1
 O  O3  1  0.69721  0.69721  0.99879  1
 O  O4  1  0.30279  0.30279  0.00121  1
