CIF file written using JARVIS-Tools package.
data_NaSb3F10
_symmetry_space_group_name_H-M  'P6_3'
_cell_length_a       8.24663
_cell_length_b       8.24663
_cell_length_c       7.3775
_cell_angle_alpha    90
_cell_angle_beta     90
_cell_angle_gamma    120

_symmetry_Int_Tables_number  173
_chemical_formula_structural  NaSb3F10
_chemical_formula_sum  Na2Sb6F20
_cell_volume  434.50265594617736
_cell_formula_units_Z  2
loop_
  _symmetry_equiv_pos_site_id
 _symmetry_equiv_pos_as_xyz
 1  'x, y, z'
loop_
 _atom_site_type_symbol
 _atom_site_label
 _atom_site_symmetry_multiplicity
 _atom_site_fract_x
 _atom_site_fract_y
 _atom_site_fract_z
 _atom_site_fract_occupancy
 F  F1  1  0.11336  0.22471  0.34273  1
 F  F2  1  0.66667  0.33333  0.20987  1
 F  F3  1  0.96668  0.50415  0.78823  1
 F  F4  1  0.46253  0.96668  0.28823  1
 F  F5  1  0.50415  0.53747  0.28823  1
 F  F6  1  0.49585  0.46253  0.78823  1
 F  F7  1  0.53747  0.03332  0.78823  1
 F  F8  1  0.03332  0.49585  0.28823  1
 F  F9  1  0.20065  0.39888  -0.00064  1
 F  F10  1  0.80177  0.20065  0.49936  1
 F  F11  1  0.39888  0.19823  0.49936  1
 F  F12  1  0.60112  0.80177  -0.00064  1
 F  F13  1  0.33333  0.66667  0.70987  1
 F  F14  1  0.79935  0.60112  0.49936  1
 F  F15  1  0.88865  0.11336  0.84273  1
 F  F16  1  0.22471  0.11135  0.84273  1
 F  F17  1  0.77529  0.88865  0.34273  1
 F  F18  1  0.11135  0.88664  0.34273  1
 F  F19  1  0.88664  0.77529  0.84273  1
 F  F20  1  0.19823  0.79935  -0.00064  1
 Na  Na1  1  0.66667  0.33333  0.67827  1
 Na  Na2  1  0.33333  0.66667  0.17827  1
 Sb  Sb1  1  0.66049  0.87988  0.74264  1
 Sb  Sb2  1  0.12012  0.78061  0.74264  1
 Sb  Sb3  1  0.33951  0.12012  0.24264  1
 Sb  Sb4  1  0.78061  0.66049  0.24264  1
 Sb  Sb5  1  0.21939  0.33951  0.74264  1
 Sb  Sb6  1  0.87988  0.21939  0.24264  1
