CIF file written using JARVIS-Tools package.
data_Ag2PHO4
_symmetry_space_group_name_H-M  'P3_1'
_cell_length_a       6.42463
_cell_length_b       6.42464
_cell_length_c       8.51265
_cell_angle_alpha    90
_cell_angle_beta     90
_cell_angle_gamma    120

_symmetry_Int_Tables_number  144
_chemical_formula_structural  Ag2PHO4
_chemical_formula_sum  Ag6P3H3O2
_cell_volume  304.29325289342876
_cell_formula_units_Z  3
loop_
  _symmetry_equiv_pos_site_id
 _symmetry_equiv_pos_as_xyz
 1  'x, y, z'
loop_
 _atom_site_type_symbol
 _atom_site_label
 _atom_site_symmetry_multiplicity
 _atom_site_fract_x
 _atom_site_fract_y
 _atom_site_fract_z
 _atom_site_fract_occupancy
 Ag  Ag1  1  0.13710  0.07430  0.00571  1
 Ag  Ag2  1  0.92570  0.06280  0.33905  1
 Ag  Ag3  1  0.93720  0.86290  0.67238  1
 Ag  Ag4  1  0.60598  0.79378  0.00101  1
 Ag  Ag5  1  0.20622  0.81220  0.33434  1
 Ag  Ag6  1  0.18780  0.39402  0.66767  1
 H  H1  1  0.62763  0.32634  0.82672  1
 H  H2  1  0.69871  0.37237  0.49339  1
 H  H3  1  0.67366  0.30129  0.16006  1
 O  O1  1  0.83066  0.53304  0.87687  1
 O  O2  1  0.70238  0.16934  0.54353  1
 O  O3  1  0.15418  0.41358  0.92343  1
 O  O4  1  0.58642  0.74061  0.25677  1
 O  O5  1  0.25939  0.84582  0.59010  1
 O  O6  1  0.15076  0.74805  0.08076  1
 O  O7  1  0.59729  0.84924  0.74743  1
 O  O8  1  0.25195  0.40271  0.41410  1
 O  O9  1  0.83322  0.30226  0.12139  1
 O  O10  1  0.69774  0.53096  0.45472  1
 O  O11  1  0.46904  0.16678  0.78805  1
 O  O12  1  0.46696  0.29762  0.21020  1
 P  P1  1  0.49672  0.48867  0.33084  1
 P  P2  1  0.99195  0.50328  0.99751  1
 P  P3  1  0.51133  0.00805  0.66417  1
