CIF file written using JARVIS-Tools package.
data_BaHf2Br
_symmetry_space_group_name_H-M  'I4/mmm'
_cell_length_a       7.91775
_cell_length_b       7.91775
_cell_length_c       7.91775
_cell_angle_alpha    148.709
_cell_angle_beta     148.709
_cell_angle_gamma    44.8395

_symmetry_Int_Tables_number  139
_chemical_formula_structural  BaHf2Br
_chemical_formula_sum  BaHf2Br
_cell_volume  133.48648252509318
_cell_formula_units_Z  1
loop_
  _symmetry_equiv_pos_site_id
 _symmetry_equiv_pos_as_xyz
 1  'x, y, z'
loop_
 _atom_site_type_symbol
 _atom_site_label
 _atom_site_symmetry_multiplicity
 _atom_site_fract_x
 _atom_site_fract_y
 _atom_site_fract_z
 _atom_site_fract_occupancy
 Ba  Ba1  1  0.25000  0.75000  0.50000  1
 Br  Br1  1  0.75000  0.25000  0.50000  1
 Hf  Hf1  1  0.00000  0.00000  0.00000  1
 Hf  Hf2  1  0.50000  0.50000  0.00000  1
