CIF file written using JARVIS-Tools package.
data_NaCdH3C3O6
_symmetry_space_group_name_H-M  'Pcca'
_cell_length_a       6.38932
_cell_length_b       7.19174
_cell_length_c       14.4992
_cell_angle_alpha    90
_cell_angle_beta     90
_cell_angle_gamma    90

_symmetry_Int_Tables_number  54
_chemical_formula_structural  NaCdH3C3O6
_chemical_formula_sum  Na4Cd4H2C2O24
_cell_volume  666.2447603456748
_cell_formula_units_Z  4
loop_
  _symmetry_equiv_pos_site_id
 _symmetry_equiv_pos_as_xyz
 1  'x, y, z'
loop_
 _atom_site_type_symbol
 _atom_site_label
 _atom_site_symmetry_multiplicity
 _atom_site_fract_x
 _atom_site_fract_y
 _atom_site_fract_z
 _atom_site_fract_occupancy
 C  C1  1  0.64061  0.29335  0.58920  1
 C  C2  1  0.35939  0.29335  0.91080  1
 C  C3  1  0.00000  0.90114  0.25000  1
 C  C4  1  0.35939  0.70665  0.41080  1
 C  C5  1  0.14061  0.29335  0.41080  1
 C  C6  1  0.14061  0.70665  0.91080  1
 C  C7  1  0.85939  0.70665  0.58920  1
 C  C8  1  0.50000  0.09886  0.25000  1
 C  C9  1  0.50000  0.90114  0.75000  1
 C  C10  1  0.64061  0.70665  0.08920  1
 C  C11  1  0.00000  0.09886  0.75000  1
 C  C12  1  0.85939  0.29335  0.08920  1
 Cd  Cd1  1  0.25000  0.00000  0.07211  1
 Cd  Cd2  1  0.75000  0.00000  0.42789  1
 Cd  Cd3  1  0.25000  0.00000  0.57211  1
 Cd  Cd4  1  0.75000  0.00000  0.92789  1
 H  H1  1  0.19391  0.32810  0.92656  1
 H  H2  1  0.80609  0.32810  0.57344  1
 H  H3  1  0.00000  0.94415  0.75000  1
 H  H4  1  0.00000  0.05585  0.25000  1
 H  H5  1  0.30609  0.32810  0.42656  1
 H  H6  1  0.50000  0.94415  0.25000  1
 H  H7  1  0.19391  0.67190  0.42656  1
 H  H8  1  0.50000  0.05585  0.75000  1
 H  H9  1  0.80609  0.67190  0.07344  1
 H  H10  1  0.30609  0.67190  0.92656  1
 H  H11  1  0.69391  0.32810  0.07344  1
 H  H12  1  0.69391  0.67190  0.57344  1
 Na  Na1  1  0.75000  0.50000  0.27990  1
 Na  Na2  1  0.25000  0.50000  0.72010  1
 Na  Na3  1  0.75000  0.50000  0.77990  1
 Na  Na4  1  0.25000  0.50000  0.22010  1
 O  O1  1  0.04641  0.38061  0.34937  1
 O  O2  1  0.45359  0.38061  0.84937  1
 O  O3  1  0.43837  0.16011  0.95902  1
 O  O4  1  0.60364  0.18230  0.31222  1
 O  O5  1  0.06163  0.16011  0.45902  1
 O  O6  1  0.04641  0.61939  0.84937  1
 O  O7  1  0.93837  0.83989  0.54098  1
 O  O8  1  0.43837  0.83989  0.45902  1
 O  O9  1  0.60364  0.81770  0.81222  1
 O  O10  1  0.56163  0.83989  0.04098  1
 O  O11  1  0.89636  0.18230  0.81222  1
 O  O12  1  0.95359  0.61939  0.65063  1
 O  O13  1  0.56163  0.16011  0.54098  1
 O  O14  1  0.93837  0.16011  0.04098  1
 O  O15  1  0.89636  0.81770  0.31222  1
 O  O16  1  0.54641  0.61939  0.15063  1
 O  O17  1  0.95359  0.38061  0.15063  1
 O  O18  1  0.06163  0.83989  0.95902  1
 O  O19  1  0.39636  0.18230  0.18778  1
 O  O20  1  0.10364  0.18230  0.68778  1
 O  O21  1  0.54641  0.38061  0.65063  1
 O  O22  1  0.10364  0.81770  0.18778  1
 O  O23  1  0.39636  0.81770  0.68778  1
 O  O24  1  0.45359  0.61939  0.34937  1
