CIF file written using JARVIS-Tools package.
data_Th3B2C3
_symmetry_space_group_name_H-M  'P2/m'
_cell_length_a       3.75744
_cell_length_b       3.79752
_cell_length_c       9.25145
_cell_angle_alpha    90
_cell_angle_beta     99.7274
_cell_angle_gamma    90

_symmetry_Int_Tables_number  10
_chemical_formula_structural  Th3B2C3
_chemical_formula_sum  Th3B2C3
_cell_volume  130.1103523296162
_cell_formula_units_Z  1
loop_
  _symmetry_equiv_pos_site_id
 _symmetry_equiv_pos_as_xyz
 1  'x, y, z'
loop_
 _atom_site_type_symbol
 _atom_site_label
 _atom_site_symmetry_multiplicity
 _atom_site_fract_x
 _atom_site_fract_y
 _atom_site_fract_z
 _atom_site_fract_occupancy
 B  B1  1  0.86294  0.00000  0.56056  1
 B  B2  1  0.13706  0.00000  0.43944  1
 C  C1  1  0.50000  0.50000  -0.00000  1
 C  C2  1  0.88420  0.00000  0.72358  1
 C  C3  1  0.11580  0.00000  0.27642  1
 Th  Th1  1  0.00000  0.00000  0.00000  1
 Th  Th2  1  0.38064  0.50000  0.69878  1
 Th  Th3  1  0.61936  0.50000  0.30122  1
