CIF file written using JARVIS-Tools package.
data_Sr2InI5
_symmetry_space_group_name_H-M  'I4/mcm'
_cell_length_a       9.09462
_cell_length_b       9.09462
_cell_length_c       9.87201
_cell_angle_alpha    117.427
_cell_angle_beta     117.428
_cell_angle_gamma    90

_symmetry_Int_Tables_number  140
_chemical_formula_structural  Sr2InI5
_chemical_formula_sum  Sr4In2I0
_cell_volume  619.5161779093548
_cell_formula_units_Z  2
loop_
  _symmetry_equiv_pos_site_id
 _symmetry_equiv_pos_as_xyz
 1  'x, y, z'
loop_
 _atom_site_type_symbol
 _atom_site_label
 _atom_site_symmetry_multiplicity
 _atom_site_fract_x
 _atom_site_fract_y
 _atom_site_fract_z
 _atom_site_fract_occupancy
 I  I1  1  0.00000  0.00000  0.00000  1
 I  I2  1  0.50000  0.50000  0.00000  1
 I  I3  1  0.50999  0.00999  0.71837  1
 I  I4  1  0.70839  0.50999  0.71837  1
 I  I5  1  0.00999  0.20839  0.71837  1
 I  I6  1  0.29161  0.49001  0.28163  1
 I  I7  1  0.99001  0.79161  0.28163  1
 I  I8  1  0.79161  0.29161  0.28163  1
 I  I9  1  0.49001  0.99001  0.28163  1
 I  I10  1  0.20839  0.70839  0.71837  1
 In  In1  1  0.75000  0.75000  0.50000  1
 In  In2  1  0.25000  0.25000  0.50000  1
 Sr  Sr1  1  0.84533  0.34533  0.00000  1
 Sr  Sr2  1  0.65467  0.84533  0.00000  1
 Sr  Sr3  1  0.15467  0.65467  -0.00000  1
 Sr  Sr4  1  0.34533  0.15467  -0.00000  1
