CIF file written using JARVIS-Tools package.
data_PrAs2
_symmetry_space_group_name_H-M  'P2_1/c'
_cell_length_a       4.17926
_cell_length_b       6.94307
_cell_length_c       10.6748
_cell_angle_alpha    90
_cell_angle_beta     106.733
_cell_angle_gamma    90

_symmetry_Int_Tables_number  14
_chemical_formula_structural  PrAs2
_chemical_formula_sum  Pr4As8
_cell_volume  296.6335784067021
_cell_formula_units_Z  4
loop_
  _symmetry_equiv_pos_site_id
 _symmetry_equiv_pos_as_xyz
 1  'x, y, z'
loop_
 _atom_site_type_symbol
 _atom_site_label
 _atom_site_symmetry_multiplicity
 _atom_site_fract_x
 _atom_site_fract_y
 _atom_site_fract_z
 _atom_site_fract_occupancy
 As  As1  1  0.53884  0.35644  0.82915  1
 As  As2  1  0.46116  0.85644  0.67085  1
 As  As3  1  0.46116  0.64356  0.17085  1
 As  As4  1  0.53884  0.14356  0.32915  1
 As  As5  1  0.72660  0.62352  0.54965  1
 As  As6  1  0.27340  0.12352  0.95035  1
 As  As7  1  0.27340  0.37648  0.45035  1
 As  As8  1  0.72660  0.87648  0.04965  1
 Pr  Pr1  1  0.08827  0.68751  0.85962  1
 Pr  Pr2  1  0.91173  0.18751  0.64038  1
 Pr  Pr3  1  0.91173  0.31249  0.14038  1
 Pr  Pr4  1  0.08827  0.81249  0.35962  1
