CIF file written using JARVIS-Tools package.
data_DyFeB4
_symmetry_space_group_name_H-M  'Pbam'
_cell_length_a       3.39613
_cell_length_b       5.88545
_cell_length_c       11.3842
_cell_angle_alpha    90
_cell_angle_beta     90
_cell_angle_gamma    90

_symmetry_Int_Tables_number  55
_chemical_formula_structural  DyFeB4
_chemical_formula_sum  Dy4Fe4B6
_cell_volume  227.54468048654329
_cell_formula_units_Z  4
loop_
  _symmetry_equiv_pos_site_id
 _symmetry_equiv_pos_as_xyz
 1  'x, y, z'
loop_
 _atom_site_type_symbol
 _atom_site_label
 _atom_site_symmetry_multiplicity
 _atom_site_fract_x
 _atom_site_fract_y
 _atom_site_fract_z
 _atom_site_fract_occupancy
 B  B1  1  0.50000  0.11120  0.45412  1
 B  B2  1  0.50000  0.28200  0.68363  1
 B  B3  1  0.50000  0.71800  0.31637  1
 B  B4  1  0.50000  0.21800  0.18363  1
 B  B5  1  0.50000  0.02457  0.30981  1
 B  B6  1  0.50000  0.36072  0.53175  1
 B  B7  1  0.50000  0.63928  0.46825  1
 B  B8  1  0.50000  0.78200  0.81637  1
 B  B9  1  0.50000  0.86072  0.96825  1
 B  B10  1  0.50000  0.38880  0.95412  1
 B  B11  1  0.50000  0.61120  0.04588  1
 B  B12  1  0.50000  0.97543  0.69019  1
 B  B13  1  0.50000  0.88880  0.54588  1
 B  B14  1  0.50000  0.47543  0.80981  1
 B  B15  1  0.50000  0.52457  0.19019  1
 B  B16  1  0.50000  0.13928  0.03175  1
 Dy  Dy1  1  0.00000  0.62638  0.65036  1
 Dy  Dy2  1  0.00000  0.37362  0.34964  1
 Dy  Dy3  1  0.00000  0.87362  0.15036  1
 Dy  Dy4  1  0.00000  0.12638  0.84964  1
 Fe  Fe1  1  0.00000  0.63298  0.91159  1
 Fe  Fe2  1  0.00000  0.36702  0.08841  1
 Fe  Fe3  1  0.00000  0.86702  0.41159  1
 Fe  Fe4  1  0.00000  0.13298  0.58841  1
