CIF file written using JARVIS-Tools package.
data_GaAsO4
_symmetry_space_group_name_H-M  'P3_121'
_cell_length_a       4.99208
_cell_length_b       4.99212
_cell_length_c       11.569
_cell_angle_alpha    90.001
_cell_angle_beta     89.9997
_cell_angle_gamma    120

_symmetry_Int_Tables_number  152
_chemical_formula_structural  GaAsO4
_chemical_formula_sum  Ga3As3O2
_cell_volume  249.68562413416086
_cell_formula_units_Z  3
loop_
  _symmetry_equiv_pos_site_id
 _symmetry_equiv_pos_as_xyz
 1  'x, y, z'
loop_
 _atom_site_type_symbol
 _atom_site_label
 _atom_site_symmetry_multiplicity
 _atom_site_fract_x
 _atom_site_fract_y
 _atom_site_fract_z
 _atom_site_fract_occupancy
 As  As1  1  0.00000  0.55592  0.83333  1
 As  As2  1  0.44408  0.44408  0.16666  1
 As  As3  1  0.55593  0.00000  0.49999  1
 Ga  Ga1  1  -0.00000  0.55330  0.33333  1
 Ga  Ga2  1  0.44670  0.44670  0.66666  1
 Ga  Ga3  1  0.55330  0.00000  0.99999  1
 O  O1  1  0.32395  0.93120  0.38099  1
 O  O2  1  0.06880  0.39274  0.71432  1
 O  O3  1  0.69747  0.60979  0.79663  1
 O  O4  1  0.39274  0.06880  0.61899  1
 O  O5  1  0.60726  0.67607  0.04766  1
 O  O6  1  0.08768  0.39021  0.20335  1
 O  O7  1  0.30253  0.91232  0.87002  1
 O  O8  1  0.67605  0.60725  0.28566  1
 O  O9  1  0.60980  0.69748  0.53669  1
 O  O10  1  0.39020  0.08768  0.12996  1
 O  O11  1  0.93120  0.32394  0.95232  1
 O  O12  1  0.91232  0.30253  0.46329  1
