CIF file written using JARVIS-Tools package.
data_LiVF3
_symmetry_space_group_name_H-M  'P2_13'
_cell_length_a       6.041
_cell_length_b       6.041
_cell_length_c       6.041
_cell_angle_alpha    90
_cell_angle_beta     90
_cell_angle_gamma    90

_symmetry_Int_Tables_number  198
_chemical_formula_structural  LiVF3
_chemical_formula_sum  Li4V4F2
_cell_volume  220.4587151143935
_cell_formula_units_Z  4
loop_
  _symmetry_equiv_pos_site_id
 _symmetry_equiv_pos_as_xyz
 1  'x, y, z'
loop_
 _atom_site_type_symbol
 _atom_site_label
 _atom_site_symmetry_multiplicity
 _atom_site_fract_x
 _atom_site_fract_y
 _atom_site_fract_z
 _atom_site_fract_occupancy
 F  F1  1  0.62962  0.00859  0.72580  1
 F  F2  1  0.00859  0.72580  0.62962  1
 F  F3  1  0.72580  0.62962  0.00859  1
 F  F4  1  0.12962  0.49141  0.27420  1
 F  F5  1  0.37038  0.50859  0.77420  1
 F  F6  1  0.27420  0.12962  0.49141  1
 F  F7  1  0.49141  0.27420  0.12962  1
 F  F8  1  0.50859  0.77420  0.37038  1
 F  F9  1  0.77420  0.37038  0.50859  1
 F  F10  1  0.99141  0.22580  0.87038  1
 F  F11  1  0.87038  0.99141  0.22580  1
 F  F12  1  0.22580  0.87038  0.99141  1
 Li  Li1  1  0.37701  0.62299  0.12299  1
 Li  Li2  1  0.62299  0.12299  0.37701  1
 Li  Li3  1  0.12299  0.37701  0.62299  1
 Li  Li4  1  0.87701  0.87701  0.87701  1
 V  V1  1  0.83673  0.66327  0.33673  1
 V  V2  1  0.66327  0.33673  0.83673  1
 V  V3  1  0.33673  0.83673  0.66327  1
 V  V4  1  0.16327  0.16327  0.16327  1
