CIF file written using JARVIS-Tools package.
data_Li2MnFeB2O6
_symmetry_space_group_name_H-M  'P-1'
_cell_length_a       5.16372
_cell_length_b       5.18309
_cell_length_c       10.6714
_cell_angle_alpha    77.518
_cell_angle_beta     76.098
_cell_angle_gamma    60.3724

_symmetry_Int_Tables_number  2
_chemical_formula_structural  Li2MnFeB2O6
_chemical_formula_sum  Li4Mn2Fe2B4O2
_cell_volume  239.38598244558196
_cell_formula_units_Z  2
loop_
  _symmetry_equiv_pos_site_id
 _symmetry_equiv_pos_as_xyz
 1  'x, y, z'
loop_
 _atom_site_type_symbol
 _atom_site_label
 _atom_site_symmetry_multiplicity
 _atom_site_fract_x
 _atom_site_fract_y
 _atom_site_fract_z
 _atom_site_fract_occupancy
 B  B1  1  0.42598  0.31346  0.63413  1
 B  B2  1  0.00124  0.24942  0.87739  1
 B  B3  1  0.99876  0.75058  0.12261  1
 B  B4  1  0.57402  0.68654  0.36587  1
 Fe  Fe1  1  0.33821  0.08593  0.10346  1
 Fe  Fe2  1  0.66179  0.91407  0.89654  1
 Li  Li1  1  0.34695  0.57967  0.84898  1
 Li  Li2  1  0.65305  0.42033  0.15102  1
 Li  Li3  1  0.92121  0.01522  0.33538  1
 Li  Li4  1  0.07879  0.98478  0.66462  1
 Mn  Mn1  1  0.75989  0.65507  0.61796  1
 Mn  Mn2  1  0.24011  0.34493  0.38204  1
 O  O1  1  0.31440  0.94813  0.34237  1
 O  O2  1  0.60887  0.41501  0.34751  1
 O  O3  1  0.80625  0.70065  0.40567  1
 O  O4  1  0.19375  0.29935  0.59433  1
 O  O5  1  0.39113  0.58499  0.65249  1
 O  O6  1  0.02495  0.98305  0.85863  1
 O  O7  1  0.24922  0.25571  0.90546  1
 O  O8  1  0.74051  0.51601  0.86165  1
 O  O9  1  0.75078  0.74429  0.09454  1
 O  O10  1  0.97505  0.01695  0.14137  1
 O  O11  1  0.68560  0.05187  0.65763  1
 O  O12  1  0.25949  0.48399  0.13835  1
