CIF file written using JARVIS-Tools package.
data_BaNa2V
_symmetry_space_group_name_H-M  'P4/mmm'
_cell_length_a       3.97737
_cell_length_b       3.97737
_cell_length_c       8.1199
_cell_angle_alpha    90
_cell_angle_beta     90
_cell_angle_gamma    90

_symmetry_Int_Tables_number  123
_chemical_formula_structural  BaNa2V
_chemical_formula_sum  BaNa2V
_cell_volume  128.4525755385731
_cell_formula_units_Z  1
loop_
  _symmetry_equiv_pos_site_id
 _symmetry_equiv_pos_as_xyz
 1  'x, y, z'
loop_
 _atom_site_type_symbol
 _atom_site_label
 _atom_site_symmetry_multiplicity
 _atom_site_fract_x
 _atom_site_fract_y
 _atom_site_fract_z
 _atom_site_fract_occupancy
 Ba  Ba1  1  0.50000  0.50000  0.50000  1
 Na  Na1  1  0.00000  0.00000  0.81125  1
 Na  Na2  1  0.00000  0.00000  0.18875  1
 V  V1  1  0.50000  0.50000  0.00000  1
