CIF file written using JARVIS-Tools package.
data_LuB4Ru
_symmetry_space_group_name_H-M  'Pbam'
_cell_length_a       3.53302
_cell_length_b       5.89599
_cell_length_c       11.3962
_cell_angle_alpha    90
_cell_angle_beta     90
_cell_angle_gamma    90

_symmetry_Int_Tables_number  55
_chemical_formula_structural  LuB4Ru
_chemical_formula_sum  Lu4B6Ru4
_cell_volume  237.3906165839776
_cell_formula_units_Z  4
loop_
  _symmetry_equiv_pos_site_id
 _symmetry_equiv_pos_as_xyz
 1  'x, y, z'
loop_
 _atom_site_type_symbol
 _atom_site_label
 _atom_site_symmetry_multiplicity
 _atom_site_fract_x
 _atom_site_fract_y
 _atom_site_fract_z
 _atom_site_fract_occupancy
 B  B1  1  0.50000  0.38699  0.95248  1
 B  B2  1  0.50000  0.29207  0.68608  1
 B  B3  1  0.50000  0.70793  0.31392  1
 B  B4  1  0.50000  0.20793  0.18608  1
 B  B5  1  0.50000  0.97633  0.69285  1
 B  B6  1  0.50000  0.02367  0.30715  1
 B  B7  1  0.50000  0.52367  0.19285  1
 B  B8  1  0.50000  0.47633  0.80715  1
 B  B9  1  0.50000  0.88699  0.54752  1
 B  B10  1  0.50000  0.11301  0.45248  1
 B  B11  1  0.50000  0.61301  0.04752  1
 B  B12  1  0.50000  0.79207  0.81392  1
 B  B13  1  0.50000  0.86529  0.97037  1
 B  B14  1  0.50000  0.13471  0.02963  1
 B  B15  1  0.50000  0.63471  0.47037  1
 B  B16  1  0.50000  0.36529  0.52963  1
 Lu  Lu1  1  0.00000  0.12926  0.85015  1
 Lu  Lu2  1  0.00000  0.62926  0.64985  1
 Lu  Lu3  1  0.00000  0.37074  0.35015  1
 Lu  Lu4  1  0.00000  0.87074  0.14985  1
 Ru  Ru1  1  0.00000  0.14205  0.59361  1
 Ru  Ru2  1  0.00000  0.85795  0.40639  1
 Ru  Ru3  1  0.00000  0.35795  0.09361  1
 Ru  Ru4  1  0.00000  0.64205  0.90639  1
