CIF file written using JARVIS-Tools package.
data_Al2Cd3Si3O12
_symmetry_space_group_name_H-M  'Ia-3d'
_cell_length_a       10.339
_cell_length_b       10.339
_cell_length_c       10.339
_cell_angle_alpha    109.471
_cell_angle_beta     109.471
_cell_angle_gamma    109.471

_symmetry_Int_Tables_number  230
_chemical_formula_structural  Al2Cd3Si3O12
_chemical_formula_sum  Al8Cd2Si2O48
_cell_volume  850.7838575723077
_cell_formula_units_Z  4
loop_
  _symmetry_equiv_pos_site_id
 _symmetry_equiv_pos_as_xyz
 1  'x, y, z'
loop_
 _atom_site_type_symbol
 _atom_site_label
 _atom_site_symmetry_multiplicity
 _atom_site_fract_x
 _atom_site_fract_y
 _atom_site_fract_z
 _atom_site_fract_occupancy
 Al  Al1  1  -0.00000  0.50000  0.50000  1
 Al  Al2  1  0.50000  0.00000  0.50000  1
 Al  Al3  1  0.50000  0.50000  0.50000  1
 Al  Al4  1  0.50000  0.00000  0.00000  1
 Al  Al5  1  0.00000  0.00000  0.50000  1
 Al  Al6  1  -0.00000  0.50000  0.00000  1
 Al  Al7  1  0.00000  0.00000  0.00000  1
 Al  Al8  1  0.50000  0.50000  0.00000  1
 Cd  Cd1  1  0.62500  0.87500  0.75000  1
 Cd  Cd2  1  0.87500  0.75000  0.62500  1
 Cd  Cd3  1  0.87500  0.62500  0.25000  1
 Cd  Cd4  1  0.75000  0.12500  0.37500  1
 Cd  Cd5  1  0.12500  0.37500  0.75000  1
 Cd  Cd6  1  0.75000  0.62500  0.87500  1
 Cd  Cd7  1  0.12500  0.25000  0.37500  1
 Cd  Cd8  1  0.62500  0.25000  0.87500  1
 Cd  Cd9  1  0.37500  0.75000  0.12500  1
 Cd  Cd10  1  0.25000  0.87500  0.62500  1
 Cd  Cd11  1  0.25000  0.37500  0.12500  1
 Cd  Cd12  1  0.37500  0.12500  0.25000  1
 O  O1  1  0.80494  0.41777  0.81143  1
 O  O2  1  0.41777  0.81143  0.80494  1
 O  O3  1  0.31143  0.91777  0.30494  1
 O  O4  1  0.50649  0.39366  0.81143  1
 O  O5  1  0.68857  0.10634  0.99351  1
 O  O6  1  0.08223  0.88717  0.39366  1
 O  O7  1  0.50649  0.61283  0.69506  1
 O  O8  1  0.39366  0.08223  0.88717  1
 O  O9  1  0.10634  0.99351  0.68857  1
 O  O10  1  0.61283  0.41777  0.10634  1
 O  O11  1  0.00649  0.19506  0.11283  1
 O  O12  1  0.61283  0.69506  0.50649  1
 O  O13  1  0.18857  0.49351  0.60634  1
 O  O14  1  0.31143  0.89366  0.00649  1
 O  O15  1  0.11283  0.00649  0.19506  1
 O  O16  1  0.49351  0.60634  0.18857  1
 O  O17  1  0.38717  0.58223  0.89366  1
 O  O18  1  0.89366  0.00649  0.31143  1
 O  O19  1  0.80494  0.88717  0.99351  1
 O  O20  1  0.60634  0.91777  0.11283  1
 O  O21  1  0.49351  0.38717  0.30494  1
 O  O22  1  0.38717  0.30494  0.49351  1
 O  O23  1  0.88717  0.99351  0.80494  1
 O  O24  1  0.30494  0.31143  0.91777  1
 O  O25  1  0.69506  0.50649  0.61283  1
 O  O26  1  0.99351  0.68857  0.10634  1
 O  O27  1  0.88717  0.39366  0.08223  1
 O  O28  1  0.58223  0.89366  0.38717  1
 O  O29  1  0.39366  0.81143  0.50649  1
 O  O30  1  0.60634  0.18857  0.49351  1
 O  O31  1  0.81143  0.50649  0.39366  1
 O  O32  1  0.18857  0.19506  0.58223  1
 O  O33  1  0.41777  0.10634  0.61283  1
 O  O34  1  0.00649  0.31143  0.89366  1
 O  O35  1  0.11283  0.60634  0.91777  1
 O  O36  1  0.19506  0.58223  0.18857  1
 O  O37  1  0.19506  0.11283  0.00649  1
 O  O38  1  0.58223  0.18857  0.19506  1
 O  O39  1  0.30494  0.49351  0.38717  1
 O  O40  1  0.69506  0.68857  0.08223  1
 O  O41  1  0.91777  0.11283  0.60634  1
 O  O42  1  0.99351  0.80494  0.88717  1
 O  O43  1  0.08223  0.69506  0.68857  1
 O  O44  1  0.89366  0.38717  0.58223  1
 O  O45  1  0.10634  0.61283  0.41777  1
 O  O46  1  0.81143  0.80494  0.41777  1
 O  O47  1  0.91777  0.30494  0.31143  1
 O  O48  1  0.68857  0.08223  0.69506  1
 Si  Si1  1  0.25000  0.62500  0.37500  1
 Si  Si2  1  0.12500  0.75000  0.87500  1
 Si  Si3  1  0.75000  0.37500  0.62500  1
 Si  Si4  1  0.87500  0.25000  0.12500  1
 Si  Si5  1  0.62500  0.37500  0.25000  1
 Si  Si6  1  0.37500  0.25000  0.62500  1
 Si  Si7  1  0.75000  0.87500  0.12500  1
 Si  Si8  1  0.37500  0.62500  0.75000  1
 Si  Si9  1  0.62500  0.75000  0.37500  1
 Si  Si10  1  0.25000  0.12500  0.87500  1
 Si  Si11  1  0.12500  0.87500  0.25000  1
 Si  Si12  1  0.87500  0.12500  0.75000  1
