CIF file written using JARVIS-Tools package.
data_BN
_symmetry_space_group_name_H-M  'Cc'
_cell_length_a       3.2053
_cell_length_b       4.34967
_cell_length_c       4.99596
_cell_angle_alpha    85.0096
_cell_angle_beta     108.711
_cell_angle_gamma    105.734

_symmetry_Int_Tables_number  9
_chemical_formula_structural  BN
_chemical_formula_sum  B4N4
_cell_volume  63.500713219867876
_cell_formula_units_Z  4
loop_
  _symmetry_equiv_pos_site_id
 _symmetry_equiv_pos_as_xyz
 1  'x, y, z'
loop_
 _atom_site_type_symbol
 _atom_site_label
 _atom_site_symmetry_multiplicity
 _atom_site_fract_x
 _atom_site_fract_y
 _atom_site_fract_z
 _atom_site_fract_occupancy
 B  B1  1  0.56612  0.00011  0.13146  1
 B  B2  1  0.43466  0.50011  0.86854  1
 B  B3  1  0.56454  0.49183  0.38649  1
 B  B4  1  0.17805  0.99183  0.61351  1
 N  N1  1  0.77772  0.84034  0.39105  1
 N  N2  1  0.38668  0.34034  0.60895  1
 N  N3  1  0.51071  0.32132  0.13140  1
 N  N4  1  0.37931  0.82131  0.86860  1
