CIF file written using JARVIS-Tools package.
data_CeZr7O16
_symmetry_space_group_name_H-M  'Cm'
_cell_length_a       7.29947
_cell_length_b       7.37331
_cell_length_c       6.42312
_cell_angle_alpha    72.2332
_cell_angle_beta     90
_cell_angle_gamma    60.3307

_symmetry_Int_Tables_number  8
_chemical_formula_structural  CeZr7O16
_chemical_formula_sum  CeZr7O6
_cell_volume  281.24593944064964
_cell_formula_units_Z  1
loop_
  _symmetry_equiv_pos_site_id
 _symmetry_equiv_pos_as_xyz
 1  'x, y, z'
loop_
 _atom_site_type_symbol
 _atom_site_label
 _atom_site_symmetry_multiplicity
 _atom_site_fract_x
 _atom_site_fract_y
 _atom_site_fract_z
 _atom_site_fract_occupancy
 Ce  Ce1  1  0.99976  0.50048  0.99916  1
 O  O1  1  0.92316  0.65368  0.63446  1
 O  O2  1  0.79781  0.90437  0.90108  1
 O  O3  1  0.57760  0.85003  0.34999  1
 O  O4  1  0.05246  0.39508  0.40333  1
 O  O5  1  0.68101  0.60776  0.10746  1
 O  O6  1  0.95084  0.09839  0.59805  1
 O  O7  1  0.82055  0.34889  0.84899  1
 O  O8  1  0.42467  0.65066  0.64937  1
 O  O9  1  0.55429  0.39143  0.41341  1
 O  O10  1  0.67329  0.15342  0.15144  1
 O  O11  1  0.07237  0.85003  0.34999  1
 O  O12  1  0.45076  0.09839  0.59805  1
 O  O13  1  0.33056  0.34889  0.84899  1
 O  O14  1  0.21124  0.60776  0.10746  1
 O  O15  1  0.29415  0.91171  0.88607  1
 O  O16  1  0.18488  0.13024  0.15312  1
 Zr  Zr1  1  0.00492  0.99715  0.00269  1
 Zr  Zr2  1  0.25071  0.99858  0.50467  1
 Zr  Zr3  1  0.49793  0.99715  0.00269  1
 Zr  Zr4  1  0.25058  0.50170  0.49842  1
 Zr  Zr5  1  0.50142  0.49717  0.99604  1
 Zr  Zr6  1  0.74733  0.00535  0.49664  1
 Zr  Zr7  1  0.74772  0.50170  0.49842  1
