CIF file written using JARVIS-Tools package.
data_TbCo12B6
_symmetry_space_group_name_H-M  'R-3m'
_cell_length_a       5.95601
_cell_length_b       5.95601
_cell_length_c       5.95602
_cell_angle_alpha    104.052
_cell_angle_beta     104.052
_cell_angle_gamma    104.052

_symmetry_Int_Tables_number  166
_chemical_formula_structural  TbCo12B6
_chemical_formula_sum  TbCo2B6
_cell_volume  188.32768583130127
_cell_formula_units_Z  1
loop_
  _symmetry_equiv_pos_site_id
 _symmetry_equiv_pos_as_xyz
 1  'x, y, z'
loop_
 _atom_site_type_symbol
 _atom_site_label
 _atom_site_symmetry_multiplicity
 _atom_site_fract_x
 _atom_site_fract_y
 _atom_site_fract_z
 _atom_site_fract_occupancy
 B  B1  1  0.76761  0.32237  0.76761  1
 B  B2  1  0.76761  0.76761  0.32237  1
 B  B3  1  0.23239  0.67763  0.23239  1
 B  B4  1  0.23239  0.23239  0.67763  1
 B  B5  1  0.67763  0.23239  0.23239  1
 B  B6  1  0.32237  0.76761  0.76761  1
 Co  Co1  1  0.13243  0.50000  0.86757  1
 Co  Co2  1  0.50000  0.86757  0.13243  1
 Co  Co3  1  0.86757  0.13243  0.50000  1
 Co  Co4  1  0.50000  0.13243  0.86757  1
 Co  Co5  1  0.13243  0.86757  0.50000  1
 Co  Co6  1  0.86757  0.50000  0.13243  1
 Co  Co7  1  0.54492  0.81359  0.54492  1
 Co  Co8  1  0.81359  0.54492  0.54492  1
 Co  Co9  1  0.54492  0.54492  0.81359  1
 Co  Co10  1  0.45508  0.18641  0.45508  1
 Co  Co11  1  0.45508  0.45508  0.18641  1
 Co  Co12  1  0.18641  0.45508  0.45508  1
 Tb  Tb1  1  0.00000  0.00000  0.00000  1
