CIF file written using JARVIS-Tools package.
data_Na2SnH6O6
_symmetry_space_group_name_H-M  'R-3'
_cell_length_a       5.81715
_cell_length_b       5.81715
_cell_length_c       5.81715
_cell_angle_alpha    61.5062
_cell_angle_beta     61.5062
_cell_angle_gamma    61.5062

_symmetry_Int_Tables_number  148
_chemical_formula_structural  Na2SnH6O6
_chemical_formula_sum  Na2SnH6O6
_cell_volume  143.89876490248332
_cell_formula_units_Z  1
loop_
  _symmetry_equiv_pos_site_id
 _symmetry_equiv_pos_as_xyz
 1  'x, y, z'
loop_
 _atom_site_type_symbol
 _atom_site_label
 _atom_site_symmetry_multiplicity
 _atom_site_fract_x
 _atom_site_fract_y
 _atom_site_fract_z
 _atom_site_fract_occupancy
 H  H1  1  0.86874  0.38635  0.18856  1
 H  H2  1  0.38635  0.18856  0.86874  1
 H  H3  1  0.18856  0.86874  0.38635  1
 H  H4  1  0.13126  0.61365  0.81144  1
 H  H5  1  0.61365  0.81144  0.13126  1
 H  H6  1  0.81144  0.13126  0.61365  1
 Na  Na1  1  0.66721  0.66721  0.66721  1
 Na  Na2  1  0.33279  0.33279  0.33279  1
 O  O1  1  0.37601  0.08393  0.78470  1
 O  O2  1  0.08393  0.78470  0.37601  1
 O  O3  1  0.78470  0.37601  0.08393  1
 O  O4  1  0.62399  0.91607  0.21530  1
 O  O5  1  0.91607  0.21530  0.62399  1
 O  O6  1  0.21530  0.62399  0.91607  1
 Sn  Sn1  1  0.00000  0.00000  0.00000  1
