CIF file written using JARVIS-Tools package.
data_AuCl2
_symmetry_space_group_name_H-M  'P-1'
_cell_length_a       6.77013
_cell_length_b       6.70774
_cell_length_c       7.10773
_cell_angle_alpha    86.2692
_cell_angle_beta     71.8808
_cell_angle_gamma    83.3031

_symmetry_Int_Tables_number  2
_chemical_formula_structural  AuCl2
_chemical_formula_sum  Au4Cl8
_cell_volume  304.53721020324593
_cell_formula_units_Z  4
loop_
  _symmetry_equiv_pos_site_id
 _symmetry_equiv_pos_as_xyz
 1  'x, y, z'
loop_
 _atom_site_type_symbol
 _atom_site_label
 _atom_site_symmetry_multiplicity
 _atom_site_fract_x
 _atom_site_fract_y
 _atom_site_fract_z
 _atom_site_fract_occupancy
 Au  Au1  1  0.73598  0.51660  0.46881  1
 Au  Au2  1  0.26402  0.48340  0.53119  1
 Au  Au3  1  0.63822  0.23417  0.08854  1
 Au  Au4  1  0.36178  0.76583  0.91146  1
 Cl  Cl1  1  0.85167  0.21932  0.29922  1
 Cl  Cl2  1  0.14833  0.78068  0.70078  1
 Cl  Cl3  1  0.34327  0.18125  0.37191  1
 Cl  Cl4  1  0.65673  0.81875  0.62809  1
 Cl  Cl5  1  0.42737  0.25846  0.88534  1
 Cl  Cl6  1  0.57263  0.74154  0.11466  1
 Cl  Cl7  1  0.92531  0.28771  0.81743  1
 Cl  Cl8  1  0.07469  0.71229  0.18257  1
