CIF file written using JARVIS-Tools package.
data_BaTiPd2
_symmetry_space_group_name_H-M  'P4/mmm'
_cell_length_a       3.3346
_cell_length_b       3.3346
_cell_length_c       7.73008
_cell_angle_alpha    90
_cell_angle_beta     90
_cell_angle_gamma    90

_symmetry_Int_Tables_number  123
_chemical_formula_structural  BaTiPd2
_chemical_formula_sum  BaTiPd2
_cell_volume  85.95488419956041
_cell_formula_units_Z  1
loop_
  _symmetry_equiv_pos_site_id
 _symmetry_equiv_pos_as_xyz
 1  'x, y, z'
loop_
 _atom_site_type_symbol
 _atom_site_label
 _atom_site_symmetry_multiplicity
 _atom_site_fract_x
 _atom_site_fract_y
 _atom_site_fract_z
 _atom_site_fract_occupancy
 Ba  Ba1  1  0.50000  0.50000  0.50000  1
 Pd  Pd1  1  0.00000  0.00000  0.82221  1
 Pd  Pd2  1  0.00000  0.00000  0.17779  1
 Ti  Ti1  1  0.50000  0.50000  0.00000  1
