CIF file written using JARVIS-Tools package.
data_BaP2Pb
_symmetry_space_group_name_H-M  'P4mm'
_cell_length_a       4.31789
_cell_length_b       4.31789
_cell_length_c       6.70385
_cell_angle_alpha    90
_cell_angle_beta     90
_cell_angle_gamma    90

_symmetry_Int_Tables_number  99
_chemical_formula_structural  BaP2Pb
_chemical_formula_sum  BaP2Pb
_cell_volume  124.98781691075888
_cell_formula_units_Z  1
loop_
  _symmetry_equiv_pos_site_id
 _symmetry_equiv_pos_as_xyz
 1  'x, y, z'
loop_
 _atom_site_type_symbol
 _atom_site_label
 _atom_site_symmetry_multiplicity
 _atom_site_fract_x
 _atom_site_fract_y
 _atom_site_fract_z
 _atom_site_fract_occupancy
 Ba  Ba1  1  0.50000  0.50000  0.84711  1
 P  P1  1  0.00000  0.00000  0.94891  1
 P  P2  1  0.50000  0.50000  0.36194  1
 Pb  Pb1  1  0.00000  0.00000  0.34203  1
