CIF file written using JARVIS-Tools package.
data_KAlH6O2F6
_symmetry_space_group_name_H-M  'Pa-3'
_cell_length_a       8.65377
_cell_length_b       8.65377
_cell_length_c       8.65377
_cell_angle_alpha    90
_cell_angle_beta     90
_cell_angle_gamma    90

_symmetry_Int_Tables_number  205
_chemical_formula_structural  KAlH6O2F6
_chemical_formula_sum  K4Al4H24O8F24
_cell_volume  648.0612244626749
_cell_formula_units_Z  4
loop_
  _symmetry_equiv_pos_site_id
 _symmetry_equiv_pos_as_xyz
 1  'x, y, z'
loop_
 _atom_site_type_symbol
 _atom_site_label
 _atom_site_symmetry_multiplicity
 _atom_site_fract_x
 _atom_site_fract_y
 _atom_site_fract_z
 _atom_site_fract_occupancy
 Al  Al1  1  0.50000  0.00000  0.00000  1
 Al  Al2  1  0.00000  0.00000  0.50000  1
 Al  Al3  1  0.50000  0.50000  0.50000  1
 Al  Al4  1  0.00000  0.50000  0.00000  1
 F  F1  1  0.69787  0.04807  0.05918  1
 F  F2  1  0.80213  0.95193  0.55918  1
 F  F3  1  0.19787  0.45193  0.94082  1
 F  F4  1  0.04807  0.05918  0.69787  1
 F  F5  1  0.54807  0.44082  0.30213  1
 F  F6  1  0.45193  0.94082  0.19787  1
 F  F7  1  0.95193  0.55918  0.80213  1
 F  F8  1  0.05918  0.69787  0.04807  1
 F  F9  1  0.44082  0.30213  0.54807  1
 F  F10  1  0.94082  0.19787  0.45193  1
 F  F11  1  0.55918  0.80213  0.95193  1
 F  F12  1  0.30213  0.95193  0.94082  1
 F  F13  1  0.80213  0.54807  0.05918  1
 F  F14  1  0.69787  0.45193  0.55918  1
 F  F15  1  0.19787  0.04807  0.44082  1
 F  F16  1  0.95193  0.94082  0.30213  1
 F  F17  1  0.45193  0.55918  0.69787  1
 F  F18  1  0.54807  0.05918  0.80213  1
 F  F19  1  0.04807  0.44082  0.19787  1
 F  F20  1  0.94082  0.30213  0.95193  1
 F  F21  1  0.55918  0.69787  0.45193  1
 F  F22  1  0.44082  0.19787  0.04807  1
 F  F23  1  0.30213  0.54807  0.44082  1
 F  F24  1  0.05918  0.80213  0.54807  1
 H  H1  1  0.30078  0.20248  0.13805  1
 H  H2  1  0.29752  0.86195  0.80078  1
 H  H3  1  0.69922  0.70248  0.36195  1
 H  H4  1  0.30078  0.29752  0.63805  1
 H  H5  1  0.19922  0.70248  0.13805  1
 H  H6  1  0.86195  0.69922  0.79752  1
 H  H7  1  0.36195  0.80078  0.20248  1
 H  H8  1  0.20248  0.36195  0.80078  1
 H  H9  1  0.13805  0.19922  0.70248  1
 H  H10  1  0.79752  0.86195  0.69922  1
 H  H11  1  0.80078  0.20248  0.36195  1
 H  H12  1  0.29752  0.63805  0.30078  1
 H  H13  1  0.63805  0.30078  0.29752  1
 H  H14  1  0.69922  0.79752  0.86195  1
 H  H15  1  0.70248  0.13805  0.19922  1
 H  H16  1  0.19922  0.79752  0.63805  1
 H  H17  1  0.79752  0.63805  0.19922  1
 H  H18  1  0.70248  0.36195  0.69922  1
 H  H19  1  0.86195  0.80078  0.29752  1
 H  H20  1  0.36195  0.69922  0.70248  1
 H  H21  1  0.63805  0.19922  0.79752  1
 H  H22  1  0.13805  0.30078  0.20248  1
 H  H23  1  0.80078  0.29752  0.86195  1
 H  H24  1  0.20248  0.13805  0.30078  1
 K  K1  1  0.50000  0.00000  0.50000  1
 K  K2  1  0.00000  0.50000  0.50000  1
 K  K3  1  0.50000  0.50000  0.00000  1
 K  K4  1  0.00000  0.00000  0.00000  1
 O  O1  1  0.19649  0.30351  0.69649  1
 O  O2  1  0.30351  0.69649  0.19649  1
 O  O3  1  0.69649  0.30351  0.80351  1
 O  O4  1  0.80351  0.69649  0.30351  1
 O  O5  1  0.30351  0.80351  0.69649  1
 O  O6  1  0.19649  0.19649  0.19649  1
 O  O7  1  0.69649  0.19649  0.30351  1
 O  O8  1  0.80351  0.80351  0.80351  1
