CIF file written using JARVIS-Tools package.
data_CaMg3
_symmetry_space_group_name_H-M  'P6_3/mmc'
_cell_length_a       6.82777
_cell_length_b       6.82777
_cell_length_c       5.29169
_cell_angle_alpha    90
_cell_angle_beta     90
_cell_angle_gamma    120

_symmetry_Int_Tables_number  194
_chemical_formula_structural  CaMg3
_chemical_formula_sum  Ca2Mg6
_cell_volume  213.6402277127914
_cell_formula_units_Z  2
loop_
  _symmetry_equiv_pos_site_id
 _symmetry_equiv_pos_as_xyz
 1  'x, y, z'
loop_
 _atom_site_type_symbol
 _atom_site_label
 _atom_site_symmetry_multiplicity
 _atom_site_fract_x
 _atom_site_fract_y
 _atom_site_fract_z
 _atom_site_fract_occupancy
 Ca  Ca1  1  0.33333  0.66667  0.25000  1
 Ca  Ca2  1  0.66667  0.33333  0.75000  1
 Mg  Mg1  1  0.84042  0.15958  0.25000  1
 Mg  Mg2  1  0.84042  0.68084  0.25000  1
 Mg  Mg3  1  0.31916  0.15958  0.25000  1
 Mg  Mg4  1  0.68084  0.84042  0.75000  1
 Mg  Mg5  1  0.15958  0.84042  0.75000  1
 Mg  Mg6  1  0.15958  0.31916  0.75000  1
