CIF file written using JARVIS-Tools package.
data_TmC2
_symmetry_space_group_name_H-M  'I4/mmm'
_cell_length_a       3.59454
_cell_length_b       3.59454
_cell_length_c       3.97074
_cell_angle_alpha    116.912
_cell_angle_beta     116.913
_cell_angle_gamma    89.9999

_symmetry_Int_Tables_number  139
_chemical_formula_structural  TmC2
_chemical_formula_sum  TmC2
_cell_volume  39.41641547400897
_cell_formula_units_Z  1
loop_
  _symmetry_equiv_pos_site_id
 _symmetry_equiv_pos_as_xyz
 1  'x, y, z'
loop_
 _atom_site_type_symbol
 _atom_site_label
 _atom_site_symmetry_multiplicity
 _atom_site_fract_x
 _atom_site_fract_y
 _atom_site_fract_z
 _atom_site_fract_occupancy
 C  C1  1  0.60635  0.60635  0.21270  1
 C  C2  1  0.39365  0.39365  0.78730  1
 Tm  Tm1  1  0.00000  0.00000  0.00000  1
