CIF file written using JARVIS-Tools package.
data_VF4
_symmetry_space_group_name_H-M  'C2/m'
_cell_length_a       3.05258
_cell_length_b       4.72208
_cell_length_c       8.90957
_cell_angle_alpha    91.7502
_cell_angle_beta     89.9967
_cell_angle_gamma    89.9982

_symmetry_Int_Tables_number  12
_chemical_formula_structural  VF4
_chemical_formula_sum  V2F8
_cell_volume  128.36746563898097
_cell_formula_units_Z  2
loop_
  _symmetry_equiv_pos_site_id
 _symmetry_equiv_pos_as_xyz
 1  'x, y, z'
loop_
 _atom_site_type_symbol
 _atom_site_label
 _atom_site_symmetry_multiplicity
 _atom_site_fract_x
 _atom_site_fract_y
 _atom_site_fract_z
 _atom_site_fract_occupancy
 F  F1  1  0.24987  0.96966  0.87152  1
 F  F2  1  0.25021  0.92277  0.36669  1
 F  F3  1  0.24976  0.55577  0.63864  1
 F  F4  1  0.25027  0.60128  0.14344  1
 F  F5  1  0.75017  0.46896  0.37151  1
 F  F6  1  0.74971  0.42344  0.86671  1
 F  F7  1  0.75021  0.05507  0.13863  1
 F  F8  1  0.74981  0.10199  0.64345  1
 V  V1  1  0.75028  0.76202  0.25507  1
 V  V2  1  0.24971  0.26271  0.75508  1
