CIF file written using JARVIS-Tools package.
data_Zr3Fe
_symmetry_space_group_name_H-M  'Cmcm'
_cell_length_a       3.28789
_cell_length_b       5.65155
_cell_length_c       8.93291
_cell_angle_alpha    90
_cell_angle_beta     90
_cell_angle_gamma    106.911

_symmetry_Int_Tables_number  63
_chemical_formula_structural  Zr3Fe
_chemical_formula_sum  Zr6Fe2
_cell_volume  158.81090543398247
_cell_formula_units_Z  2
loop_
  _symmetry_equiv_pos_site_id
 _symmetry_equiv_pos_as_xyz
 1  'x, y, z'
loop_
 _atom_site_type_symbol
 _atom_site_label
 _atom_site_symmetry_multiplicity
 _atom_site_fract_x
 _atom_site_fract_y
 _atom_site_fract_z
 _atom_site_fract_occupancy
 Fe  Fe1  1  0.72884  0.45769  0.25000  1
 Fe  Fe2  1  0.27116  0.54231  0.75000  1
 Zr  Zr1  1  0.13685  0.27371  0.44059  1
 Zr  Zr2  1  0.86315  0.72629  0.55941  1
 Zr  Zr3  1  0.13685  0.27371  0.05941  1
 Zr  Zr4  1  0.86315  0.72629  0.94059  1
 Zr  Zr5  1  0.41833  0.83667  0.25000  1
 Zr  Zr6  1  0.58167  0.16333  0.75000  1
