CIF file written using JARVIS-Tools package.
data_YbAlB4
_symmetry_space_group_name_H-M  'Pbam'
_cell_length_a       3.47098
_cell_length_b       6.00306
_cell_length_c       11.6184
_cell_angle_alpha    90
_cell_angle_beta     90
_cell_angle_gamma    90

_symmetry_Int_Tables_number  55
_chemical_formula_structural  YbAlB4
_chemical_formula_sum  Yb4Al4B6
_cell_volume  242.08707507185332
_cell_formula_units_Z  4
loop_
  _symmetry_equiv_pos_site_id
 _symmetry_equiv_pos_as_xyz
 1  'x, y, z'
loop_
 _atom_site_type_symbol
 _atom_site_label
 _atom_site_symmetry_multiplicity
 _atom_site_fract_x
 _atom_site_fract_y
 _atom_site_fract_z
 _atom_site_fract_occupancy
 Al  Al1  1  0.00000  0.14076  0.59214  1
 Al  Al2  1  0.00000  0.85924  0.40786  1
 Al  Al3  1  0.00000  0.35924  0.09214  1
 Al  Al4  1  0.00000  0.64076  0.90786  1
 B  B1  1  0.50000  0.11399  0.45321  1
 B  B2  1  0.50000  0.28972  0.68775  1
 B  B3  1  0.50000  0.71028  0.31225  1
 B  B4  1  0.50000  0.21028  0.18775  1
 B  B5  1  0.50000  0.02711  0.30776  1
 B  B6  1  0.50000  0.36583  0.53078  1
 B  B7  1  0.50000  0.63417  0.46922  1
 B  B8  1  0.50000  0.78972  0.81225  1
 B  B9  1  0.50000  0.86583  0.96922  1
 B  B10  1  0.50000  0.97289  0.69224  1
 B  B11  1  0.50000  0.61399  0.04679  1
 B  B12  1  0.50000  0.13417  0.03078  1
 B  B13  1  0.50000  0.88601  0.54679  1
 B  B14  1  0.50000  0.47289  0.80776  1
 B  B15  1  0.50000  0.52711  0.19224  1
 B  B16  1  0.50000  0.38601  0.95321  1
 Yb  Yb1  1  0.00000  0.62778  0.65028  1
 Yb  Yb2  1  0.00000  0.37222  0.34972  1
 Yb  Yb3  1  0.00000  0.87222  0.15028  1
 Yb  Yb4  1  0.00000  0.12778  0.84972  1
