CIF file written using JARVIS-Tools package.
data_LiDySn2
_symmetry_space_group_name_H-M  'Cmcm'
_cell_length_a       4.39785
_cell_length_b       4.47178
_cell_length_c       9.69387
_cell_angle_alpha    90
_cell_angle_beta     103.111
_cell_angle_gamma    90

_symmetry_Int_Tables_number  63
_chemical_formula_structural  LiDySn2
_chemical_formula_sum  Li2Dy2Sn4
_cell_volume  185.67259557086174
_cell_formula_units_Z  2
loop_
  _symmetry_equiv_pos_site_id
 _symmetry_equiv_pos_as_xyz
 1  'x, y, z'
loop_
 _atom_site_type_symbol
 _atom_site_label
 _atom_site_symmetry_multiplicity
 _atom_site_fract_x
 _atom_site_fract_y
 _atom_site_fract_z
 _atom_site_fract_occupancy
 Dy  Dy1  1  0.89228  0.75000  0.78456  1
 Dy  Dy2  1  0.10772  0.25000  0.21544  1
 Li  Li1  1  0.67493  0.75000  0.34985  1
 Li  Li2  1  0.32507  0.25000  0.65015  1
 Sn  Sn1  1  0.54565  0.75000  0.09130  1
 Sn  Sn2  1  0.45435  0.25000  0.90870  1
 Sn  Sn3  1  0.25123  0.75000  0.50246  1
 Sn  Sn4  1  0.74877  0.25000  0.49754  1
