CIF file written using JARVIS-Tools package.
data_ThAs12Os4
_symmetry_space_group_name_H-M  'Im-3'
_cell_length_a       7.4969
_cell_length_b       7.4969
_cell_length_c       7.4969
_cell_angle_alpha    109.471
_cell_angle_beta     109.471
_cell_angle_gamma    109.471

_symmetry_Int_Tables_number  204
_chemical_formula_structural  ThAs12Os4
_chemical_formula_sum  ThAs2Os4
_cell_volume  324.3572106113036
_cell_formula_units_Z  1
loop_
  _symmetry_equiv_pos_site_id
 _symmetry_equiv_pos_as_xyz
 1  'x, y, z'
loop_
 _atom_site_type_symbol
 _atom_site_label
 _atom_site_symmetry_multiplicity
 _atom_site_fract_x
 _atom_site_fract_y
 _atom_site_fract_z
 _atom_site_fract_occupancy
 As  As1  1  0.85100  0.34577  0.19677  1
 As  As2  1  0.50523  0.85100  0.65423  1
 As  As3  1  0.80323  0.14900  0.65423  1
 As  As4  1  0.19677  0.85100  0.34577  1
 As  As5  1  0.65423  0.80323  0.14900  1
 As  As6  1  0.65423  0.50523  0.85100  1
 As  As7  1  0.14900  0.65423  0.80323  1
 As  As8  1  0.34577  0.19677  0.85100  1
 As  As9  1  0.14900  0.34577  0.49477  1
 As  As10  1  0.85100  0.65423  0.50523  1
 As  As11  1  0.34577  0.49477  0.14900  1
 As  As12  1  0.49477  0.14900  0.34577  1
 Os  Os1  1  0.50000  0.00000  0.00000  1
 Os  Os2  1  -0.00000  -0.00000  0.50000  1
 Os  Os3  1  0.50000  0.50000  0.50000  1
 Os  Os4  1  0.00000  0.50000  -0.00000  1
 Th  Th1  1  0.00000  0.00000  0.00000  1
