CIF file written using JARVIS-Tools package.
data_Al5BO9
_symmetry_space_group_name_H-M  'Cmc2_1'
_cell_length_a       8.08395
_cell_length_b       8.08395
_cell_length_c       7.76093
_cell_angle_alpha    90
_cell_angle_beta     90
_cell_angle_gamma    138.501

_symmetry_Int_Tables_number  36
_chemical_formula_structural  Al5BO9
_chemical_formula_sum  Al0B2O8
_cell_volume  336.05920874659034
_cell_formula_units_Z  2
loop_
  _symmetry_equiv_pos_site_id
 _symmetry_equiv_pos_as_xyz
 1  'x, y, z'
loop_
 _atom_site_type_symbol
 _atom_site_label
 _atom_site_symmetry_multiplicity
 _atom_site_fract_x
 _atom_site_fract_y
 _atom_site_fract_z
 _atom_site_fract_occupancy
 Al  Al1  1  0.86411  0.63251  0.33230  1
 Al  Al2  1  0.13589  0.36749  0.83230  1
 Al  Al3  1  0.63251  0.86411  0.83230  1
 Al  Al4  1  0.36749  0.13589  0.33230  1
 Al  Al5  1  0.70294  0.29706  0.66643  1
 Al  Al6  1  0.25528  0.74472  0.51855  1
 Al  Al7  1  0.44386  0.55614  0.51663  1
 Al  Al8  1  0.55614  0.44386  0.01663  1
 Al  Al9  1  0.29706  0.70294  0.16643  1
 Al  Al10  1  0.74472  0.25528  0.01855  1
 B  B1  1  0.01553  0.98447  0.05422  1
 B  B2  1  0.98447  0.01553  0.55422  1
 O  O1  1  0.45453  0.54547  0.90460  1
 O  O2  1  0.33043  0.66957  0.70165  1
 O  O3  1  0.66957  0.33043  0.20165  1
 O  O4  1  0.74226  0.83782  0.61854  1
 O  O5  1  0.06718  0.44668  0.03305  1
 O  O6  1  0.55332  0.93282  0.03305  1
 O  O7  1  0.44668  0.06718  0.53305  1
 O  O8  1  0.93282  0.55332  0.53305  1
 O  O9  1  0.83782  0.74226  0.11854  1
 O  O10  1  0.35186  0.64814  0.37063  1
 O  O11  1  0.64814  0.35186  0.87063  1
 O  O12  1  0.19101  0.80899  0.26795  1
 O  O13  1  0.80899  0.19101  0.76795  1
 O  O14  1  0.54547  0.45453  0.40460  1
 O  O15  1  0.16218  0.25774  0.61854  1
 O  O16  1  0.95397  0.04603  0.92566  1
 O  O17  1  0.04603  0.95397  0.42566  1
 O  O18  1  0.25774  0.16218  0.11854  1
