CIF file written using JARVIS-Tools package.
data_CrAuS2
_symmetry_space_group_name_H-M  'R-3m'
_cell_length_a       7.43568
_cell_length_b       7.4357
_cell_length_c       7.4357
_cell_angle_alpha    27.3954
_cell_angle_beta     27.3955
_cell_angle_gamma    27.3955

_symmetry_Int_Tables_number  166
_chemical_formula_structural  CrAuS2
_chemical_formula_sum  CrAuS2
_cell_volume  76.81437026636722
_cell_formula_units_Z  1
loop_
  _symmetry_equiv_pos_site_id
 _symmetry_equiv_pos_as_xyz
 1  'x, y, z'
loop_
 _atom_site_type_symbol
 _atom_site_label
 _atom_site_symmetry_multiplicity
 _atom_site_fract_x
 _atom_site_fract_y
 _atom_site_fract_z
 _atom_site_fract_occupancy
 Au  Au1  1  0.16708  0.16700  0.16700  1
 Cr  Cr1  1  0.66707  0.66700  0.66701  1
 S  S1  1  0.05925  0.05917  0.05918  1
 S  S2  1  0.27490  0.27482  0.27483  1
