CIF file written using JARVIS-Tools package.
data_LiBeCd
_symmetry_space_group_name_H-M  'I4mm'
_cell_length_a       4.86669
_cell_length_b       4.86669
_cell_length_c       4.86669
_cell_angle_alpha    142.481
_cell_angle_beta     142.481
_cell_angle_gamma    54.1046

_symmetry_Int_Tables_number  107
_chemical_formula_structural  LiBeCd
_chemical_formula_sum  LiBeCd
_cell_volume  42.467258931221714
_cell_formula_units_Z  1
loop_
  _symmetry_equiv_pos_site_id
 _symmetry_equiv_pos_as_xyz
 1  'x, y, z'
loop_
 _atom_site_type_symbol
 _atom_site_label
 _atom_site_symmetry_multiplicity
 _atom_site_fract_x
 _atom_site_fract_y
 _atom_site_fract_z
 _atom_site_fract_occupancy
 Be  Be1  1  0.00817  0.00817  -0.00000  1
 Cd  Cd1  1  0.33789  0.33789  -0.00000  1
 Li  Li1  1  0.65394  0.65394  -0.00000  1
