CIF file written using JARVIS-Tools package.
data_LiVF3
_symmetry_space_group_name_H-M  'P2_13'
_cell_length_a       6.04662
_cell_length_b       6.04662
_cell_length_c       6.04662
_cell_angle_alpha    90
_cell_angle_beta     90
_cell_angle_gamma    90

_symmetry_Int_Tables_number  198
_chemical_formula_structural  LiVF3
_chemical_formula_sum  Li4V4F2
_cell_volume  221.07469883165368
_cell_formula_units_Z  4
loop_
  _symmetry_equiv_pos_site_id
 _symmetry_equiv_pos_as_xyz
 1  'x, y, z'
loop_
 _atom_site_type_symbol
 _atom_site_label
 _atom_site_symmetry_multiplicity
 _atom_site_fract_x
 _atom_site_fract_y
 _atom_site_fract_z
 _atom_site_fract_occupancy
 F  F1  1  0.75493  0.13047  0.98657  1
 F  F2  1  0.01343  0.25493  0.36953  1
 F  F3  1  0.86953  0.48657  0.74507  1
 F  F4  1  0.25493  0.36953  0.01343  1
 F  F5  1  0.24507  0.63047  0.51343  1
 F  F6  1  0.13047  0.98657  0.75493  1
 F  F7  1  0.48657  0.74507  0.86953  1
 F  F8  1  0.51343  0.24507  0.63047  1
 F  F9  1  0.63047  0.51343  0.24507  1
 F  F10  1  0.98657  0.75493  0.13047  1
 F  F11  1  0.74507  0.86953  0.48657  1
 F  F12  1  0.36953  0.01343  0.25493  1
 Li  Li1  1  0.91567  0.58433  0.41567  1
 Li  Li2  1  0.58433  0.41567  0.91567  1
 Li  Li3  1  0.41567  0.91567  0.58433  1
 Li  Li4  1  0.08433  0.08433  0.08433  1
 V  V1  1  0.84786  0.15214  0.65214  1
 V  V2  1  0.65214  0.84786  0.15214  1
 V  V3  1  0.34786  0.34786  0.34786  1
 V  V4  1  0.15214  0.65214  0.84786  1
