CIF file written using JARVIS-Tools package.
data_Tb10B2Br15
_symmetry_space_group_name_H-M  'P-1'
_cell_length_a       8.95907
_cell_length_b       9.7245
_cell_length_c       10.5349
_cell_angle_alpha    91.1298
_cell_angle_beta     114.55
_cell_angle_gamma    110.896

_symmetry_Int_Tables_number  2
_chemical_formula_structural  Tb10B2Br15
_chemical_formula_sum  Tb0B2Br5
_cell_volume  764.5702926924951
_cell_formula_units_Z  1
loop_
  _symmetry_equiv_pos_site_id
 _symmetry_equiv_pos_as_xyz
 1  'x, y, z'
loop_
 _atom_site_type_symbol
 _atom_site_label
 _atom_site_symmetry_multiplicity
 _atom_site_fract_x
 _atom_site_fract_y
 _atom_site_fract_z
 _atom_site_fract_occupancy
 B  B1  1  0.53257  0.18178  0.12380  1
 B  B2  1  0.46743  0.81822  0.87620  1
 Br  Br1  1  0.35661  0.11646  0.41817  1
 Br  Br2  1  0.15814  0.05760  0.69848  1
 Br  Br3  1  0.64339  0.88354  0.58183  1
 Br  Br4  1  0.22282  0.40727  0.94077  1
 Br  Br5  1  0.77718  0.59273  0.05923  1
 Br  Br6  1  0.40548  0.45813  0.64906  1
 Br  Br7  1  0.59452  0.54187  0.35094  1
 Br  Br8  1  0.84186  0.94240  0.30152  1
 Br  Br9  1  0.06249  0.34811  0.23256  1
 Br  Br10  1  0.28210  0.75638  0.18004  1
 Br  Br11  1  0.11403  0.70417  0.46558  1
 Br  Br12  1  0.88597  0.29583  0.53442  1
 Br  Br13  1  0.00000  0.00000  0.00000  1
 Br  Br14  1  0.71790  0.24362  0.81996  1
 Br  Br15  1  0.93751  0.65189  0.76744  1
 Tb  Tb1  1  0.47498  0.29841  0.90339  1
 Tb  Tb2  1  0.72491  0.07566  0.04953  1
 Tb  Tb3  1  0.41598  0.96188  0.67428  1
 Tb  Tb4  1  0.58402  0.03812  0.32572  1
 Tb  Tb5  1  0.19845  0.58853  0.72001  1
 Tb  Tb6  1  0.52502  0.70159  0.09661  1
 Tb  Tb7  1  0.32511  0.25648  0.18031  1
 Tb  Tb8  1  0.67489  0.74352  0.81969  1
 Tb  Tb9  1  0.80155  0.41147  0.27999  1
 Tb  Tb10  1  0.27509  0.92434  0.95047  1
