CIF file written using JARVIS-Tools package.
data_CaCrF6
_symmetry_space_group_name_H-M  'R-3'
_cell_length_a       5.65573
_cell_length_b       5.65573
_cell_length_c       5.65573
_cell_angle_alpha    54.2768
_cell_angle_beta     54.2768
_cell_angle_gamma    54.2768

_symmetry_Int_Tables_number  148
_chemical_formula_structural  CaCrF6
_chemical_formula_sum  CaCrF6
_cell_volume  110.84066007892304
_cell_formula_units_Z  1
loop_
  _symmetry_equiv_pos_site_id
 _symmetry_equiv_pos_as_xyz
 1  'x, y, z'
loop_
 _atom_site_type_symbol
 _atom_site_label
 _atom_site_symmetry_multiplicity
 _atom_site_fract_x
 _atom_site_fract_y
 _atom_site_fract_z
 _atom_site_fract_occupancy
 Ca  Ca1  1  0.50000  0.50000  0.50000  1
 Cr  Cr1  1  0.00000  0.00000  0.00000  1
 F  F1  1  0.36530  0.07269  0.78476  1
 F  F2  1  0.07269  0.78476  0.36530  1
 F  F3  1  0.21524  0.63470  0.92731  1
 F  F4  1  0.92731  0.21524  0.63470  1
 F  F5  1  0.63470  0.92731  0.21524  1
 F  F6  1  0.78476  0.36530  0.07269  1
