CIF file written using JARVIS-Tools package.
data_Zr3N2O3
_symmetry_space_group_name_H-M  'Cmcm'
_cell_length_a       4.06829
_cell_length_b       5.71746
_cell_length_c       10.6915
_cell_angle_alpha    90
_cell_angle_beta     90
_cell_angle_gamma    110.841

_symmetry_Int_Tables_number  63
_chemical_formula_structural  Zr3N2O3
_chemical_formula_sum  Zr6N4O6
_cell_volume  232.41583387938874
_cell_formula_units_Z  2
loop_
  _symmetry_equiv_pos_site_id
 _symmetry_equiv_pos_as_xyz
 1  'x, y, z'
loop_
 _atom_site_type_symbol
 _atom_site_label
 _atom_site_symmetry_multiplicity
 _atom_site_fract_x
 _atom_site_fract_y
 _atom_site_fract_z
 _atom_site_fract_occupancy
 N  N1  1  0.29912  0.59823  0.42121  1
 N  N2  1  0.29912  0.59823  0.07879  1
 N  N3  1  0.70088  0.40177  0.57879  1
 N  N4  1  0.70088  0.40177  0.92121  1
 O  O1  1  0.24699  0.49398  0.75000  1
 O  O2  1  0.04355  0.08710  0.11599  1
 O  O3  1  0.04355  0.08710  0.38401  1
 O  O4  1  0.75301  0.50602  0.25000  1
 O  O5  1  0.95645  0.91290  0.88401  1
 O  O6  1  0.95645  0.91290  0.61599  1
 Zr  Zr1  1  0.19097  0.38194  0.25000  1
 Zr  Zr2  1  0.14344  0.28688  0.94209  1
 Zr  Zr3  1  0.14344  0.28688  0.55791  1
 Zr  Zr4  1  0.80903  0.61806  0.75000  1
 Zr  Zr5  1  0.85656  0.71312  0.05791  1
 Zr  Zr6  1  0.85656  0.71312  0.44209  1
