CIF file written using JARVIS-Tools package.
data_KAg2PS4
_symmetry_space_group_name_H-M  'I-42m'
_cell_length_a       6.23248
_cell_length_b       6.23248
_cell_length_c       6.23248
_cell_angle_alpha    98.1157
_cell_angle_beta     115.43
_cell_angle_gamma    115.43

_symmetry_Int_Tables_number  121
_chemical_formula_structural  KAg2PS4
_chemical_formula_sum  KAg2PS4
_cell_volume  181.03883060981187
_cell_formula_units_Z  1
loop_
  _symmetry_equiv_pos_site_id
 _symmetry_equiv_pos_as_xyz
 1  'x, y, z'
loop_
 _atom_site_type_symbol
 _atom_site_label
 _atom_site_symmetry_multiplicity
 _atom_site_fract_x
 _atom_site_fract_y
 _atom_site_fract_z
 _atom_site_fract_occupancy
 Ag  Ag1  1  0.50000  0.25000  0.75000  1
 Ag  Ag2  1  0.50000  0.75000  0.25000  1
 K  K1  1  -0.00000  0.50000  0.50000  1
 P  P1  1  0.00000  0.00000  0.00000  1
 S  S1  1  0.00000  0.67627  0.04133  1
 S  S2  1  -0.00000  0.04133  0.67627  1
 S  S3  1  0.63494  0.95867  0.95867  1
 S  S4  1  0.36506  0.32373  0.32373  1
