CIF file written using JARVIS-Tools package.
data_BeTeW
_symmetry_space_group_name_H-M  'I4mm'
_cell_length_a       4.8132
_cell_length_b       4.8132
_cell_length_c       4.8132
_cell_angle_alpha    139.315
_cell_angle_beta     139.315
_cell_angle_gamma    58.8942

_symmetry_Int_Tables_number  107
_chemical_formula_structural  BeTeW
_chemical_formula_sum  BeTeW
_cell_volume  46.93655782397175
_cell_formula_units_Z  1
loop_
  _symmetry_equiv_pos_site_id
 _symmetry_equiv_pos_as_xyz
 1  'x, y, z'
loop_
 _atom_site_type_symbol
 _atom_site_label
 _atom_site_symmetry_multiplicity
 _atom_site_fract_x
 _atom_site_fract_y
 _atom_site_fract_z
 _atom_site_fract_occupancy
 Be  Be1  1  0.01472  0.01472  0.00000  1
 Te  Te1  1  0.32989  0.32989  0.00000  1
 W  W1  1  0.65540  0.65540  0.00000  1
