CIF file written using JARVIS-Tools package.
data_Na2FeO3
_symmetry_space_group_name_H-M  'C2/m'
_cell_length_a       5.2004
_cell_length_b       5.2004
_cell_length_c       5.57436
_cell_angle_alpha    80.7948
_cell_angle_beta     99.2052
_cell_angle_gamma    59.9368

_symmetry_Int_Tables_number  12
_chemical_formula_structural  Na2FeO3
_chemical_formula_sum  Na4Fe2O6
_cell_volume  123.60190683832163
_cell_formula_units_Z  2
loop_
  _symmetry_equiv_pos_site_id
 _symmetry_equiv_pos_as_xyz
 1  'x, y, z'
loop_
 _atom_site_type_symbol
 _atom_site_label
 _atom_site_symmetry_multiplicity
 _atom_site_fract_x
 _atom_site_fract_y
 _atom_site_fract_z
 _atom_site_fract_occupancy
 Fe  Fe1  1  0.66725  0.66725  -0.00000  1
 Fe  Fe2  1  0.33275  0.33275  0.00000  1
 Na  Na1  1  0.15715  0.15715  0.50000  1
 Na  Na2  1  0.84285  0.84285  0.50000  1
 Na  Na3  1  0.50000  0.50000  0.50000  1
 Na  Na4  1  0.00000  0.00000  0.00000  1
 O  O1  1  0.30946  0.69054  0.80180  1
 O  O2  1  0.06743  0.55415  0.19718  1
 O  O3  1  0.44585  0.93257  0.19718  1
 O  O4  1  0.93257  0.44585  0.80282  1
 O  O5  1  0.55415  0.06743  0.80282  1
 O  O6  1  0.69054  0.30946  0.19820  1
