CIF file written using JARVIS-Tools package.
data_ErB2Ru
_symmetry_space_group_name_H-M  'Pnma'
_cell_length_a       5.28283
_cell_length_b       5.8726
_cell_length_c       6.34256
_cell_angle_alpha    90
_cell_angle_beta     90
_cell_angle_gamma    90

_symmetry_Int_Tables_number  62
_chemical_formula_structural  ErB2Ru
_chemical_formula_sum  Er4B8Ru4
_cell_volume  196.77117816139602
_cell_formula_units_Z  4
loop_
  _symmetry_equiv_pos_site_id
 _symmetry_equiv_pos_as_xyz
 1  'x, y, z'
loop_
 _atom_site_type_symbol
 _atom_site_label
 _atom_site_symmetry_multiplicity
 _atom_site_fract_x
 _atom_site_fract_y
 _atom_site_fract_z
 _atom_site_fract_occupancy
 B  B1  1  0.08491  0.36946  0.46370  1
 B  B2  1  0.91509  0.13054  0.96370  1
 B  B3  1  0.58491  0.63054  0.53630  1
 B  B4  1  0.41509  0.86946  0.03630  1
 B  B5  1  0.91509  0.63054  0.53630  1
 B  B6  1  0.08491  0.86946  0.03630  1
 B  B7  1  0.41509  0.36946  0.46370  1
 B  B8  1  0.58491  0.13054  0.96370  1
 Er  Er1  1  0.25000  0.01060  0.66311  1
 Er  Er2  1  0.75000  0.48940  0.16311  1
 Er  Er3  1  0.75000  0.98940  0.33689  1
 Er  Er4  1  0.25000  0.51060  0.83689  1
 Ru  Ru1  1  0.25000  0.18457  0.18292  1
 Ru  Ru2  1  0.75000  0.31543  0.68292  1
 Ru  Ru3  1  0.75000  0.81543  0.81708  1
 Ru  Ru4  1  0.25000  0.68457  0.31708  1
