CIF file written using JARVIS-Tools package.
data_ZrNbO4
_symmetry_space_group_name_H-M  'C2/c'
_cell_length_a       6.50063
_cell_length_b       6.31547
_cell_length_c       6.50063
_cell_angle_alpha    132.698
_cell_angle_beta     71.4311
_cell_angle_gamma    132.763

_symmetry_Int_Tables_number  15
_chemical_formula_structural  ZrNbO4
_chemical_formula_sum  Zr2Nb2O8
_cell_volume  138.92568815082385
_cell_formula_units_Z  2
loop_
  _symmetry_equiv_pos_site_id
 _symmetry_equiv_pos_as_xyz
 1  'x, y, z'
loop_
 _atom_site_type_symbol
 _atom_site_label
 _atom_site_symmetry_multiplicity
 _atom_site_fract_x
 _atom_site_fract_y
 _atom_site_fract_z
 _atom_site_fract_occupancy
 Nb  Nb1  1  0.85225  0.75000  0.60225  1
 Nb  Nb2  1  0.14775  0.25000  0.39775  1
 O  O1  1  0.00883  0.71750  0.26663  1
 O  O2  1  0.45087  0.21750  0.20867  1
 O  O3  1  0.76070  0.80623  0.11430  1
 O  O4  1  0.69193  0.30623  0.54554  1
 O  O5  1  0.30807  0.69377  0.45446  1
 O  O6  1  0.23930  0.19377  0.88570  1
 O  O7  1  0.54913  0.78250  0.79133  1
 O  O8  1  0.99117  0.28250  0.73337  1
 Zr  Zr1  1  0.38192  0.75000  0.13192  1
 Zr  Zr2  1  0.61808  0.25000  0.86808  1
