CIF file written using JARVIS-Tools package.
data_Li2NiO3
_symmetry_space_group_name_H-M  'C2/c'
_cell_length_a       4.88724
_cell_length_b       4.88974
_cell_length_c       9.50116
_cell_angle_alpha    85.0419
_cell_angle_beta     80.0409
_cell_angle_gamma    60.0169

_symmetry_Int_Tables_number  15
_chemical_formula_structural  Li2NiO3
_chemical_formula_sum  Li8Ni4O2
_cell_volume  193.70321829211073
_cell_formula_units_Z  4
loop_
  _symmetry_equiv_pos_site_id
 _symmetry_equiv_pos_as_xyz
 1  'x, y, z'
loop_
 _atom_site_type_symbol
 _atom_site_label
 _atom_site_symmetry_multiplicity
 _atom_site_fract_x
 _atom_site_fract_y
 _atom_site_fract_z
 _atom_site_fract_occupancy
 Li  Li1  1  0.67289  0.16403  0.50022  1
 Li  Li2  1  0.83696  0.83595  0.00023  1
 Li  Li3  1  0.99998  0.49999  0.50001  1
 Li  Li4  1  0.91595  0.16811  0.75000  1
 Li  Li5  1  0.08405  0.83190  0.25000  1
 Li  Li6  1  0.16308  0.16403  0.99978  1
 Li  Li7  1  0.50002  0.49999  0.99999  1
 Li  Li8  1  0.32709  0.83594  0.49977  1
 Ni  Ni1  1  0.24967  0.50068  0.75000  1
 Ni  Ni2  1  0.58285  0.83431  0.75000  1
 Ni  Ni3  1  0.41715  0.16569  0.25000  1
 Ni  Ni4  1  0.75033  0.49933  0.25000  1
 O  O1  1  0.69050  0.83206  0.36194  1
 O  O2  1  0.87860  0.52373  0.86207  1
 O  O3  1  0.04611  0.18779  0.36349  1
 O  O4  1  0.12140  0.47628  0.13793  1
 O  O5  1  0.30949  0.16794  0.63806  1
 O  O6  1  0.40231  0.47628  0.36207  1
 O  O7  1  0.52257  0.16795  0.86193  1
 O  O8  1  0.23391  0.81222  0.86349  1
 O  O9  1  0.76609  0.18779  0.13651  1
 O  O10  1  0.47743  0.83206  0.13806  1
 O  O11  1  0.59768  0.52373  0.63793  1
 O  O12  1  0.95388  0.81222  0.63651  1
