CIF file written using JARVIS-Tools package.
data_CoAsS
_symmetry_space_group_name_H-M  'Pmn2_1'
_cell_length_a       3.4869
_cell_length_b       5.59646
_cell_length_c       4.63082
_cell_angle_alpha    90
_cell_angle_beta     90.0002
_cell_angle_gamma    90

_symmetry_Int_Tables_number  31
_chemical_formula_structural  CoAsS
_chemical_formula_sum  Co2As2S2
_cell_volume  90.36739628942571
_cell_formula_units_Z  2
loop_
  _symmetry_equiv_pos_site_id
 _symmetry_equiv_pos_as_xyz
 1  'x, y, z'
loop_
 _atom_site_type_symbol
 _atom_site_label
 _atom_site_symmetry_multiplicity
 _atom_site_fract_x
 _atom_site_fract_y
 _atom_site_fract_z
 _atom_site_fract_occupancy
 As  As1  1  0.25000  0.62871  0.95970  1
 As  As2  1  0.75000  0.12871  0.04030  1
 Co  Co1  1  0.24999  0.00277  0.73749  1
 Co  Co2  1  0.75001  0.50277  0.26251  1
 S  S1  1  0.25001  0.37467  0.54977  1
 S  S2  1  0.74999  0.87467  0.45023  1
