CIF file written using JARVIS-Tools package.
data_NbTe4Ir
_symmetry_space_group_name_H-M  'Pmn2_1'
_cell_length_a       3.83255
_cell_length_b       12.7008
_cell_length_c       13.3781
_cell_angle_alpha    90
_cell_angle_beta     90
_cell_angle_gamma    90

_symmetry_Int_Tables_number  31
_chemical_formula_structural  NbTe4Ir
_chemical_formula_sum  Nb4Te6Ir4
_cell_volume  651.1981658127521
_cell_formula_units_Z  4
loop_
  _symmetry_equiv_pos_site_id
 _symmetry_equiv_pos_as_xyz
 1  'x, y, z'
loop_
 _atom_site_type_symbol
 _atom_site_label
 _atom_site_symmetry_multiplicity
 _atom_site_fract_x
 _atom_site_fract_y
 _atom_site_fract_z
 _atom_site_fract_occupancy
 Ir  Ir1  1  0.00000  0.53458  0.99994  1
 Ir  Ir2  1  0.00000  0.75334  0.49249  1
 Ir  Ir3  1  0.50000  0.24666  0.99249  1
 Ir  Ir4  1  0.50000  0.46542  0.49994  1
 Nb  Nb1  1  0.00000  0.05459  0.00469  1
 Nb  Nb2  1  0.50000  0.94541  0.50469  1
 Nb  Nb3  1  0.00000  0.27042  0.49167  1
 Nb  Nb4  1  0.50000  0.72958  0.99167  1
 Te  Te1  1  0.00000  0.84949  0.10789  1
 Te  Te2  1  0.50000  0.10777  0.14787  1
 Te  Te3  1  0.00000  0.34570  0.09620  1
 Te  Te4  1  0.00000  0.06574  0.39121  1
 Te  Te5  1  0.50000  0.93426  0.89121  1
 Te  Te6  1  0.00000  0.19375  0.85453  1
 Te  Te7  1  0.00000  0.89223  0.64787  1
 Te  Te8  1  0.50000  0.80625  0.35453  1
 Te  Te9  1  0.50000  0.65430  0.59620  1
 Te  Te10  1  0.50000  0.58592  0.13789  1
 Te  Te11  1  0.00000  0.56436  0.39545  1
 Te  Te12  1  0.50000  0.43564  0.89545  1
 Te  Te13  1  0.00000  0.67642  0.84837  1
 Te  Te14  1  0.50000  0.32358  0.34837  1
 Te  Te15  1  0.50000  0.15051  0.60789  1
 Te  Te16  1  0.00000  0.41408  0.63789  1
