CIF file written using JARVIS-Tools package.
data_CaAlB3O7
_symmetry_space_group_name_H-M  'Cmme'
_cell_length_a       7.12374
_cell_length_b       7.12374
_cell_length_c       4.40008
_cell_angle_alpha    90
_cell_angle_beta     90
_cell_angle_gamma    111.727

_symmetry_Int_Tables_number  67
_chemical_formula_structural  CaAlB3O7
_chemical_formula_sum  Ca2Al2B6O4
_cell_volume  207.42990551756455
_cell_formula_units_Z  2
loop_
  _symmetry_equiv_pos_site_id
 _symmetry_equiv_pos_as_xyz
 1  'x, y, z'
loop_
 _atom_site_type_symbol
 _atom_site_label
 _atom_site_symmetry_multiplicity
 _atom_site_fract_x
 _atom_site_fract_y
 _atom_site_fract_z
 _atom_site_fract_occupancy
 Al  Al1  1  0.00000  0.00000  0.00000  1
 Al  Al2  1  0.50000  0.50000  0.00000  1
 B  B1  1  0.75000  0.75000  0.50000  1
 B  B2  1  0.25000  0.25000  0.50000  1
 B  B3  1  0.86291  0.13709  0.54185  1
 B  B4  1  0.63709  0.36291  0.54185  1
 B  B5  1  0.36291  0.63709  0.45815  1
 B  B6  1  0.13709  0.86291  0.45815  1
 Ca  Ca1  1  0.50000  -0.00000  0.00000  1
 Ca  Ca2  1  -0.00000  0.50000  0.00000  1
 O  O1  1  0.75000  0.25000  0.67068  1
 O  O2  1  0.42641  0.28036  0.69947  1
 O  O3  1  0.86832  0.13168  0.22412  1
 O  O4  1  0.63168  0.36832  0.22412  1
 O  O5  1  0.36832  0.63168  0.77588  1
 O  O6  1  0.25000  0.75000  0.32932  1
 O  O7  1  0.21964  0.07359  0.30053  1
 O  O8  1  0.71964  0.57359  0.69947  1
 O  O9  1  0.57359  0.71964  0.30053  1
 O  O10  1  0.92641  0.78036  0.30053  1
 O  O11  1  0.13168  0.86832  0.77588  1
 O  O12  1  0.28036  0.42641  0.30053  1
 O  O13  1  0.78036  0.92641  0.69947  1
 O  O14  1  0.07359  0.21964  0.69947  1
