CIF file written using JARVIS-Tools package.
data_SrB2S4
_symmetry_space_group_name_H-M  'P2_1/c'
_cell_length_a       6.10569
_cell_length_b       14.1992
_cell_length_c       6.48324
_cell_angle_alpha    90
_cell_angle_beta     110.558
_cell_angle_gamma    90

_symmetry_Int_Tables_number  14
_chemical_formula_structural  SrB2S4
_chemical_formula_sum  Sr4B8S6
_cell_volume  526.2761306736131
_cell_formula_units_Z  4
loop_
  _symmetry_equiv_pos_site_id
 _symmetry_equiv_pos_as_xyz
 1  'x, y, z'
loop_
 _atom_site_type_symbol
 _atom_site_label
 _atom_site_symmetry_multiplicity
 _atom_site_fract_x
 _atom_site_fract_y
 _atom_site_fract_z
 _atom_site_fract_occupancy
 B  B1  1  0.18151  0.22768  0.23224  1
 B  B2  1  0.06837  0.58433  0.96508  1
 B  B3  1  0.43163  0.08433  0.03492  1
 B  B4  1  0.56837  0.91567  0.96508  1
 B  B5  1  0.93163  0.41567  0.03492  1
 B  B6  1  0.31849  0.72768  0.76776  1
 B  B7  1  0.68151  0.27232  0.23224  1
 B  B8  1  0.81849  0.77232  0.76776  1
 S  S1  1  0.49726  0.26198  0.41931  1
 S  S2  1  0.00274  0.76198  0.58069  1
 S  S3  1  0.14865  0.50769  0.23511  1
 S  S4  1  0.05994  0.30370  0.97176  1
 S  S5  1  0.35135  0.00769  0.76489  1
 S  S6  1  0.55994  0.19630  0.97176  1
 S  S7  1  0.64865  0.99231  0.23511  1
 S  S8  1  0.85135  0.49231  0.76489  1
 S  S9  1  0.50274  0.73802  0.58069  1
 S  S10  1  0.94006  0.69630  0.02824  1
 S  S11  1  0.17209  0.09929  0.13319  1
 S  S12  1  0.32791  0.59929  0.86681  1
 S  S13  1  0.44006  0.80370  0.02824  1
 S  S14  1  0.99726  0.23802  0.41931  1
 S  S15  1  0.82791  0.90071  0.86681  1
 S  S16  1  0.67209  0.40071  0.13319  1
 Sr  Sr1  1  0.69569  0.60238  0.31173  1
 Sr  Sr2  1  0.80431  0.10238  0.68827  1
 Sr  Sr3  1  0.30431  0.39762  0.68827  1
 Sr  Sr4  1  0.19569  0.89762  0.31173  1
