CIF file written using JARVIS-Tools package.
data_Ni2Sn4Au
_symmetry_space_group_name_H-M  'R-3m'
_cell_length_a       9.3465
_cell_length_b       9.3465
_cell_length_c       9.3465
_cell_angle_alpha    26.5449
_cell_angle_beta     26.5449
_cell_angle_gamma    26.5449

_symmetry_Int_Tables_number  166
_chemical_formula_structural  Ni2Sn4Au
_chemical_formula_sum  Ni2Sn4Au
_cell_volume  143.74431049607819
_cell_formula_units_Z  1
loop_
  _symmetry_equiv_pos_site_id
 _symmetry_equiv_pos_as_xyz
 1  'x, y, z'
loop_
 _atom_site_type_symbol
 _atom_site_label
 _atom_site_symmetry_multiplicity
 _atom_site_fract_x
 _atom_site_fract_y
 _atom_site_fract_z
 _atom_site_fract_occupancy
 Au  Au1  1  0.50000  0.50000  0.50000  1
 Ni  Ni1  1  0.59958  0.59958  0.59958  1
 Ni  Ni2  1  0.40042  0.40042  0.40042  1
 Sn  Sn1  1  0.70037  0.70037  0.70037  1
 Sn  Sn2  1  0.88858  0.88858  0.88858  1
 Sn  Sn3  1  0.29963  0.29963  0.29963  1
 Sn  Sn4  1  0.11142  0.11142  0.11142  1
