CIF file written using JARVIS-Tools package.
data_BaCo2Br
_symmetry_space_group_name_H-M  'P4/mmm'
_cell_length_a       4.38835
_cell_length_b       4.38491
_cell_length_c       6.31748
_cell_angle_alpha    90
_cell_angle_beta     90
_cell_angle_gamma    90

_symmetry_Int_Tables_number  123
_chemical_formula_structural  BaCo2Br
_chemical_formula_sum  BaCo2Br
_cell_volume  121.5641365430056
_cell_formula_units_Z  1
loop_
  _symmetry_equiv_pos_site_id
 _symmetry_equiv_pos_as_xyz
 1  'x, y, z'
loop_
 _atom_site_type_symbol
 _atom_site_label
 _atom_site_symmetry_multiplicity
 _atom_site_fract_x
 _atom_site_fract_y
 _atom_site_fract_z
 _atom_site_fract_occupancy
 Ba  Ba1  1  0.50000  0.50000  0.00000  1
 Br  Br1  1  0.50000  0.50000  0.50000  1
 Co  Co1  1  0.00000  0.00000  0.83524  1
 Co  Co2  1  0.00000  0.00000  0.16476  1
