CIF file written using JARVIS-Tools package.
data_DyAu3
_symmetry_space_group_name_H-M  'Pmmn'
_cell_length_a       5.02294
_cell_length_b       5.12438
_cell_length_c       6.22432
_cell_angle_alpha    90
_cell_angle_beta     90
_cell_angle_gamma    90

_symmetry_Int_Tables_number  59
_chemical_formula_structural  DyAu3
_chemical_formula_sum  Dy2Au6
_cell_volume  160.21051513630948
_cell_formula_units_Z  2
loop_
  _symmetry_equiv_pos_site_id
 _symmetry_equiv_pos_as_xyz
 1  'x, y, z'
loop_
 _atom_site_type_symbol
 _atom_site_label
 _atom_site_symmetry_multiplicity
 _atom_site_fract_x
 _atom_site_fract_y
 _atom_site_fract_z
 _atom_site_fract_occupancy
 Au  Au1  1  0.00000  0.16368  0.25630  1
 Au  Au2  1  0.00000  0.16368  0.74370  1
 Au  Au3  1  0.50000  0.83632  0.24370  1
 Au  Au4  1  0.50000  0.83632  0.75630  1
 Au  Au5  1  0.50000  0.33290  0.00000  1
 Au  Au6  1  0.00000  0.66710  0.50000  1
 Dy  Dy1  1  0.00000  0.65861  0.00000  1
 Dy  Dy2  1  0.50000  0.34139  0.50000  1
