CIF file written using JARVIS-Tools package.
data_CeGaPd2
_symmetry_space_group_name_H-M  'Pnma'
_cell_length_a       5.75371
_cell_length_b       7.02808
_cell_length_c       7.59459
_cell_angle_alpha    90
_cell_angle_beta     90
_cell_angle_gamma    90

_symmetry_Int_Tables_number  62
_chemical_formula_structural  CeGaPd2
_chemical_formula_sum  Ce4Ga4Pd8
_cell_volume  307.10656124185573
_cell_formula_units_Z  4
loop_
  _symmetry_equiv_pos_site_id
 _symmetry_equiv_pos_as_xyz
 1  'x, y, z'
loop_
 _atom_site_type_symbol
 _atom_site_label
 _atom_site_symmetry_multiplicity
 _atom_site_fract_x
 _atom_site_fract_y
 _atom_site_fract_z
 _atom_site_fract_occupancy
 Ce  Ce1  1  0.84509  0.25000  0.53845  1
 Ce  Ce2  1  0.15491  0.75000  0.46155  1
 Ce  Ce3  1  0.34509  0.75000  0.96155  1
 Ce  Ce4  1  0.65491  0.25000  0.03845  1
 Ga  Ga1  1  0.65708  0.75000  0.61294  1
 Ga  Ga2  1  0.34292  0.25000  0.38706  1
 Ga  Ga3  1  0.84292  0.75000  0.11294  1
 Ga  Ga4  1  0.15708  0.25000  0.88706  1
 Pd  Pd1  1  0.91510  0.54997  0.81664  1
 Pd  Pd2  1  0.58490  0.95003  0.31664  1
 Pd  Pd3  1  0.58490  0.54997  0.31664  1
 Pd  Pd4  1  0.41510  0.45003  0.68336  1
 Pd  Pd5  1  0.41510  0.04997  0.68336  1
 Pd  Pd6  1  0.91510  0.95003  0.81664  1
 Pd  Pd7  1  0.08490  0.04997  0.18336  1
 Pd  Pd8  1  0.08490  0.45003  0.18336  1
