CIF file written using JARVIS-Tools package.
data_BaMg2Ta
_symmetry_space_group_name_H-M  'Cmmm'
_cell_length_a       5.81727
_cell_length_b       5.81727
_cell_length_c       3.08271
_cell_angle_alpha    90
_cell_angle_beta     90
_cell_angle_gamma    109.239

_symmetry_Int_Tables_number  65
_chemical_formula_structural  BaMg2Ta
_chemical_formula_sum  BaMg2Ta
_cell_volume  98.49513382380152
_cell_formula_units_Z  1
loop_
  _symmetry_equiv_pos_site_id
 _symmetry_equiv_pos_as_xyz
 1  'x, y, z'
loop_
 _atom_site_type_symbol
 _atom_site_label
 _atom_site_symmetry_multiplicity
 _atom_site_fract_x
 _atom_site_fract_y
 _atom_site_fract_z
 _atom_site_fract_occupancy
 Ba  Ba1  1  -0.00000  0.50000  0.50000  1
 Mg  Mg1  1  0.00000  0.00000  0.00000  1
 Mg  Mg2  1  0.50000  0.50000  0.00000  1
 Ta  Ta1  1  0.50000  -0.00000  0.50000  1
