CIF file written using JARVIS-Tools package.
data_NbTe2
_symmetry_space_group_name_H-M  'P-3m1'
_cell_length_a       3.7176
_cell_length_b       3.7176
_cell_length_c       6.90723
_cell_angle_alpha    90
_cell_angle_beta     90.0029
_cell_angle_gamma    120

_symmetry_Int_Tables_number  164
_chemical_formula_structural  NbTe2
_chemical_formula_sum  NbTe2
_cell_volume  82.67226251853656
_cell_formula_units_Z  1
loop_
  _symmetry_equiv_pos_site_id
 _symmetry_equiv_pos_as_xyz
 1  'x, y, z'
loop_
 _atom_site_type_symbol
 _atom_site_label
 _atom_site_symmetry_multiplicity
 _atom_site_fract_x
 _atom_site_fract_y
 _atom_site_fract_z
 _atom_site_fract_occupancy
 Nb  Nb1  1  0.00000  0.00000  0.00000  1
 Te  Te1  1  0.66663  0.33332  0.73445  1
 Te  Te2  1  0.33337  0.66668  0.26555  1
