CIF file written using JARVIS-Tools package.
data_Li2CoSiO4
_symmetry_space_group_name_H-M  'P2_1'
_cell_length_a       5.34542
_cell_length_b       4.96315
_cell_length_c       6.23995
_cell_angle_alpha    90
_cell_angle_beta     90.3606
_cell_angle_gamma    90

_symmetry_Int_Tables_number  4
_chemical_formula_structural  Li2CoSiO4
_chemical_formula_sum  Li4Co2Si2O8
_cell_volume  165.54327425832014
_cell_formula_units_Z  2
loop_
  _symmetry_equiv_pos_site_id
 _symmetry_equiv_pos_as_xyz
 1  'x, y, z'
loop_
 _atom_site_type_symbol
 _atom_site_label
 _atom_site_symmetry_multiplicity
 _atom_site_fract_x
 _atom_site_fract_y
 _atom_site_fract_z
 _atom_site_fract_occupancy
 Co  Co1  1  0.17405  0.49982  0.99441  1
 Co  Co2  1  0.82595  0.99982  0.00559  1
 Li  Li1  1  0.33993  0.99926  0.73496  1
 Li  Li2  1  0.16260  0.49737  0.49977  1
 Li  Li3  1  0.83740  0.99737  0.50023  1
 Li  Li4  1  0.66007  0.49926  0.26504  1
 O  O1  1  0.18566  0.09651  0.02937  1
 O  O2  1  0.18349  0.10630  0.46776  1
 O  O3  1  0.32327  0.65961  0.24982  1
 O  O4  1  0.62162  0.10157  0.25054  1
 O  O5  1  0.37838  0.60157  0.74946  1
 O  O6  1  0.67673  0.15961  0.75018  1
 O  O7  1  0.81651  0.60630  0.53224  1
 O  O8  1  0.81434  0.59651  0.97063  1
 Si  Si1  1  0.32853  0.99353  0.25883  1
 Si  Si2  1  0.67147  0.49353  0.74117  1
