CIF file written using JARVIS-Tools package.
data_Mg7W
_symmetry_space_group_name_H-M  'P-6m2'
_cell_length_a       6.18216
_cell_length_b       6.18216
_cell_length_c       4.91677
_cell_angle_alpha    90
_cell_angle_beta     90
_cell_angle_gamma    120

_symmetry_Int_Tables_number  187
_chemical_formula_structural  Mg7W
_chemical_formula_sum  Mg7W
_cell_volume  162.73896888892685
_cell_formula_units_Z  1
loop_
  _symmetry_equiv_pos_site_id
 _symmetry_equiv_pos_as_xyz
 1  'x, y, z'
loop_
 _atom_site_type_symbol
 _atom_site_label
 _atom_site_symmetry_multiplicity
 _atom_site_fract_x
 _atom_site_fract_y
 _atom_site_fract_z
 _atom_site_fract_occupancy
 Mg  Mg1  1  0.16930  0.83465  0.25000  1
 Mg  Mg2  1  0.66535  0.33070  0.25000  1
 Mg  Mg3  1  0.66535  0.83465  0.25000  1
 Mg  Mg4  1  0.32231  0.17769  0.75000  1
 Mg  Mg5  1  0.32231  0.64461  0.75000  1
 Mg  Mg6  1  0.85539  0.17769  0.75000  1
 Mg  Mg7  1  0.83333  0.66667  0.75000  1
 W  W1  1  0.16667  0.33333  0.25000  1
