CIF file written using JARVIS-Tools package.
data_UBN
_symmetry_space_group_name_H-M  'Cmcm'
_cell_length_a       6.17312
_cell_length_b       6.17312
_cell_length_c       3.26172
_cell_angle_alpha    90
_cell_angle_beta     90
_cell_angle_gamma    146.27

_symmetry_Int_Tables_number  63
_chemical_formula_structural  UBN
_chemical_formula_sum  U2B2N2
_cell_volume  69.01852111455474
_cell_formula_units_Z  2
loop_
  _symmetry_equiv_pos_site_id
 _symmetry_equiv_pos_as_xyz
 1  'x, y, z'
loop_
 _atom_site_type_symbol
 _atom_site_label
 _atom_site_symmetry_multiplicity
 _atom_site_fract_x
 _atom_site_fract_y
 _atom_site_fract_z
 _atom_site_fract_occupancy
 B  B1  1  0.46635  0.53365  0.25000  1
 B  B2  1  0.53365  0.46635  0.75000  1
 N  N1  1  0.33812  0.66188  0.25000  1
 N  N2  1  0.66188  0.33812  0.75000  1
 U  U1  1  0.13728  0.86272  0.25000  1
 U  U2  1  0.86272  0.13728  0.75000  1
