CIF file written using JARVIS-Tools package.
data_SnPb2O4
_symmetry_space_group_name_H-M  'Pbam'
_cell_length_a       6.44216
_cell_length_b       8.80642
_cell_length_c       8.85102
_cell_angle_alpha    90
_cell_angle_beta     90
_cell_angle_gamma    90

_symmetry_Int_Tables_number  55
_chemical_formula_structural  SnPb2O4
_chemical_formula_sum  Sn4Pb8O6
_cell_volume  502.139378888161
_cell_formula_units_Z  4
loop_
  _symmetry_equiv_pos_site_id
 _symmetry_equiv_pos_as_xyz
 1  'x, y, z'
loop_
 _atom_site_type_symbol
 _atom_site_label
 _atom_site_symmetry_multiplicity
 _atom_site_fract_x
 _atom_site_fract_y
 _atom_site_fract_z
 _atom_site_fract_occupancy
 O  O1  1  0.24998  0.33374  0.16611  1
 O  O2  1  0.50000  0.90388  0.62497  1
 O  O3  1  0.50000  0.59612  0.12497  1
 O  O4  1  0.50000  0.40388  0.87503  1
 O  O5  1  0.00000  0.12581  0.40449  1
 O  O6  1  0.00000  0.87419  0.59551  1
 O  O7  1  0.00000  0.62581  0.09551  1
 O  O8  1  0.00000  0.37419  0.90449  1
 O  O9  1  0.75002  0.33374  0.16611  1
 O  O10  1  0.75002  0.66626  0.83389  1
 O  O11  1  0.24998  0.83374  0.33389  1
 O  O12  1  0.24998  0.16626  0.66611  1
 O  O13  1  0.50000  0.09612  0.37503  1
 O  O14  1  0.75002  0.16626  0.66611  1
 O  O15  1  0.24998  0.66626  0.83389  1
 O  O16  1  0.75002  0.83374  0.33389  1
 Pb  Pb1  1  0.50000  0.64045  0.66045  1
 Pb  Pb2  1  0.00000  0.65919  0.35790  1
 Pb  Pb3  1  0.00000  0.34081  0.64210  1
 Pb  Pb4  1  0.00000  0.15919  0.14210  1
 Pb  Pb5  1  0.00000  0.84081  0.85790  1
 Pb  Pb6  1  0.50000  0.14045  0.83955  1
 Pb  Pb7  1  0.50000  0.85955  0.16045  1
 Pb  Pb8  1  0.50000  0.35955  0.33955  1
 Sn  Sn1  1  0.75005  0.50000  0.00000  1
 Sn  Sn2  1  0.24995  0.00000  0.50000  1
 Sn  Sn3  1  0.24995  0.50000  0.00000  1
 Sn  Sn4  1  0.75005  0.00000  0.50000  1
