CIF file written using JARVIS-Tools package.
data_RbCd4As3
_symmetry_space_group_name_H-M  'R-3m'
_cell_length_a       12.6663
_cell_length_b       12.6663
_cell_length_c       12.6663
_cell_angle_alpha    20.6576
_cell_angle_beta     20.6576
_cell_angle_gamma    20.6577

_symmetry_Int_Tables_number  166
_chemical_formula_structural  RbCd4As3
_chemical_formula_sum  RbCd4As3
_cell_volume  221.3964021673973
_cell_formula_units_Z  1
loop_
  _symmetry_equiv_pos_site_id
 _symmetry_equiv_pos_as_xyz
 1  'x, y, z'
loop_
 _atom_site_type_symbol
 _atom_site_label
 _atom_site_symmetry_multiplicity
 _atom_site_fract_x
 _atom_site_fract_y
 _atom_site_fract_z
 _atom_site_fract_occupancy
 As  As1  1  0.22981  0.22981  0.22981  1
 As  As2  1  0.77019  0.77019  0.77019  1
 As  As3  1  0.00000  0.00000  0.00000  1
 Cd  Cd1  1  0.08707  0.08707  0.08707  1
 Cd  Cd2  1  0.91293  0.91293  0.91293  1
 Cd  Cd3  1  0.30214  0.30214  0.30214  1
 Cd  Cd4  1  0.69786  0.69786  0.69786  1
 Rb  Rb1  1  0.50000  0.50000  0.50000  1
