CIF file written using JARVIS-Tools package.
data_TiSe
_symmetry_space_group_name_H-M  'Pnma'
_cell_length_a       3.49262
_cell_length_b       6.2556
_cell_length_c       6.46897
_cell_angle_alpha    90
_cell_angle_beta     90
_cell_angle_gamma    90

_symmetry_Int_Tables_number  62
_chemical_formula_structural  TiSe
_chemical_formula_sum  Ti4Se4
_cell_volume  141.33678434299696
_cell_formula_units_Z  4
loop_
  _symmetry_equiv_pos_site_id
 _symmetry_equiv_pos_as_xyz
 1  'x, y, z'
loop_
 _atom_site_type_symbol
 _atom_site_label
 _atom_site_symmetry_multiplicity
 _atom_site_fract_x
 _atom_site_fract_y
 _atom_site_fract_z
 _atom_site_fract_occupancy
 Se  Se1  1  0.75000  0.91914  0.28366  1
 Se  Se2  1  0.25000  0.08086  0.71634  1
 Se  Se3  1  0.25000  0.41914  0.21634  1
 Se  Se4  1  0.75000  0.58086  0.78366  1
 Ti  Ti1  1  0.25000  0.69352  0.50647  1
 Ti  Ti2  1  0.25000  0.80648  0.00647  1
 Ti  Ti3  1  0.75000  0.30648  0.49353  1
 Ti  Ti4  1  0.75000  0.19352  0.99353  1
