CIF file written using JARVIS-Tools package.
data_LiMnF3
_symmetry_space_group_name_H-M  'C2'
_cell_length_a       5.41507
_cell_length_b       5.41451
_cell_length_c       9.90356
_cell_angle_alpha    97.8427
_cell_angle_beta     97.8129
_cell_angle_gamma    119.964

_symmetry_Int_Tables_number  5
_chemical_formula_structural  LiMnF3
_chemical_formula_sum  Li4Mn4F2
_cell_volume  242.0587527105528
_cell_formula_units_Z  4
loop_
  _symmetry_equiv_pos_site_id
 _symmetry_equiv_pos_as_xyz
 1  'x, y, z'
loop_
 _atom_site_type_symbol
 _atom_site_label
 _atom_site_symmetry_multiplicity
 _atom_site_fract_x
 _atom_site_fract_y
 _atom_site_fract_z
 _atom_site_fract_occupancy
 F  F1  1  0.25446  0.00745  0.14397  1
 F  F2  1  0.31930  0.22618  0.63271  1
 F  F3  1  -0.00813  0.74491  0.35599  1
 F  F4  1  0.77436  0.68150  0.86725  1
 F  F5  1  0.63731  -0.11081  0.64405  1
 F  F6  1  0.11134  0.36335  0.85589  1
 F  F7  1  0.68468  0.09287  0.36720  1
 F  F8  1  0.43913  0.03903  0.88390  1
 F  F9  1  -0.09348  0.31448  0.13275  1
 F  F10  1  0.55485  0.65535  0.11611  1
 F  F11  1  0.34418  0.44480  0.38386  1
 F  F12  1  0.96139  0.56114  0.61607  1
 Li  Li1  1  0.54469  0.28500  0.07043  1
 Li  Li2  1  0.71453  0.45483  0.42970  1
 Li  Li3  1  0.28610  0.52595  0.57055  1
 Li  Li4  1  0.47463  0.71444  0.92955  1
 Mn  Mn1  1  0.70989  0.29068  0.75007  1
 Mn  Mn2  1  0.04152  -0.04096  0.74994  1
 Mn  Mn3  1  -0.04117  0.04067  0.25007  1
 Mn  Mn4  1  0.29041  0.70893  0.24994  1
