CIF file written using JARVIS-Tools package.
data_FeB2
_symmetry_space_group_name_H-M  'Pnma'
_cell_length_a       3.75554
_cell_length_b       4.80033
_cell_length_c       4.829
_cell_angle_alpha    90
_cell_angle_beta     90
_cell_angle_gamma    90

_symmetry_Int_Tables_number  62
_chemical_formula_structural  FeB2
_chemical_formula_sum  Fe4B8
_cell_volume  87.05645169277061
_cell_formula_units_Z  4
loop_
  _symmetry_equiv_pos_site_id
 _symmetry_equiv_pos_as_xyz
 1  'x, y, z'
loop_
 _atom_site_type_symbol
 _atom_site_label
 _atom_site_symmetry_multiplicity
 _atom_site_fract_x
 _atom_site_fract_y
 _atom_site_fract_z
 _atom_site_fract_occupancy
 B  B1  1  0.89373  0.57001  0.65980  1
 B  B2  1  0.39373  0.42999  0.84020  1
 B  B3  1  0.10627  0.07001  0.34020  1
 B  B4  1  0.60627  0.92999  0.15980  1
 B  B5  1  0.10627  0.42999  0.34020  1
 B  B6  1  0.60627  0.57001  0.15980  1
 B  B7  1  0.89373  0.92999  0.65980  1
 B  B8  1  0.39373  0.07001  0.84020  1
 Fe  Fe1  1  0.62420  0.25000  0.48109  1
 Fe  Fe2  1  0.12420  0.75000  0.01891  1
 Fe  Fe3  1  0.37580  0.75000  0.51891  1
 Fe  Fe4  1  0.87580  0.25000  0.98109  1
