CIF file written using JARVIS-Tools package.
data_Cu2SnHgTe4
_symmetry_space_group_name_H-M  'I-42m'
_cell_length_a       6.31431
_cell_length_b       6.31431
_cell_length_c       7.6621
_cell_angle_alpha    114.334
_cell_angle_beta     114.334
_cell_angle_gamma    90

_symmetry_Int_Tables_number  121
_chemical_formula_structural  Cu2SnHgTe4
_chemical_formula_sum  Cu2SnHgTe4
_cell_volume  248.26391068507164
_cell_formula_units_Z  1
loop_
  _symmetry_equiv_pos_site_id
 _symmetry_equiv_pos_as_xyz
 1  'x, y, z'
loop_
 _atom_site_type_symbol
 _atom_site_label
 _atom_site_symmetry_multiplicity
 _atom_site_fract_x
 _atom_site_fract_y
 _atom_site_fract_z
 _atom_site_fract_occupancy
 Cu  Cu1  1  0.75000  0.25000  0.50000  1
 Cu  Cu2  1  0.25000  0.75000  0.50000  1
 Hg  Hg1  1  0.00000  0.00000  0.00000  1
 Sn  Sn1  1  0.50000  0.50000  0.00000  1
 Te  Te1  1  0.89108  0.89108  0.28608  1
 Te  Te2  1  0.39500  0.39500  0.28608  1
 Te  Te3  1  0.10892  0.60500  0.71392  1
 Te  Te4  1  0.60500  0.10892  0.71392  1
