CIF file written using JARVIS-Tools package.
data_CaAl2Cl8
_symmetry_space_group_name_H-M  'I4_1/acd'
_cell_length_a       12.5632
_cell_length_b       12.5632
_cell_length_c       12.5632
_cell_angle_alpha    126.371
_cell_angle_beta     126.371
_cell_angle_gamma    79.2789

_symmetry_Int_Tables_number  142
_chemical_formula_structural  CaAl2Cl8
_chemical_formula_sum  Ca4Al8Cl32
_cell_volume  1242.9114721020458
_cell_formula_units_Z  4
loop_
  _symmetry_equiv_pos_site_id
 _symmetry_equiv_pos_as_xyz
 1  'x, y, z'
loop_
 _atom_site_type_symbol
 _atom_site_label
 _atom_site_symmetry_multiplicity
 _atom_site_fract_x
 _atom_site_fract_y
 _atom_site_fract_z
 _atom_site_fract_occupancy
 Al  Al1  1  0.75000  0.22549  0.97549  1
 Al  Al2  1  0.72549  0.25000  0.47549  1
 Al  Al3  1  0.27451  0.75000  0.52451  1
 Al  Al4  1  0.25000  0.27451  0.52451  1
 Al  Al5  1  0.25000  0.77451  0.02451  1
 Al  Al6  1  0.75000  0.72549  0.47549  1
 Al  Al7  1  0.22549  0.25000  0.97549  1
 Al  Al8  1  0.77451  0.75000  0.02451  1
 Ca  Ca1  1  0.37500  0.62500  0.25000  1
 Ca  Ca2  1  0.62500  0.37500  0.75000  1
 Ca  Ca3  1  0.12500  0.87500  0.75000  1
 Ca  Ca4  1  0.87500  0.12500  0.25000  1
 Cl  Cl1  1  0.92681  0.30930  0.55768  1
 Cl  Cl2  1  0.19070  0.57319  0.94232  1
 Cl  Cl3  1  0.63088  0.74838  0.55768  1
 Cl  Cl4  1  0.90097  0.61539  0.53248  1
 Cl  Cl5  1  0.57319  0.63088  0.88249  1
 Cl  Cl6  1  0.69070  0.24838  0.11751  1
 Cl  Cl7  1  0.25162  0.80930  0.38249  1
 Cl  Cl8  1  0.24838  0.13088  0.05768  1
 Cl  Cl9  1  0.07319  0.69070  0.44232  1
 Cl  Cl10  1  0.80930  0.42681  0.05768  1
 Cl  Cl11  1  0.36912  0.25162  0.44232  1
 Cl  Cl12  1  0.75162  0.86912  0.94232  1
 Cl  Cl13  1  0.42681  0.36912  0.11751  1
 Cl  Cl14  1  0.13088  0.07319  0.38249  1
 Cl  Cl15  1  0.74838  0.19070  0.61751  1
 Cl  Cl16  1  0.59903  0.63151  0.21442  1
 Cl  Cl17  1  0.91710  0.13151  0.03248  1
 Cl  Cl18  1  0.86849  0.90097  0.28558  1
 Cl  Cl19  1  0.11539  0.40097  0.03248  1
 Cl  Cl20  1  0.41710  0.88461  0.28558  1
 Cl  Cl21  1  0.86912  0.92681  0.61751  1
 Cl  Cl22  1  0.63151  0.41710  0.53248  1
 Cl  Cl23  1  0.88461  0.59903  0.96752  1
 Cl  Cl24  1  0.61539  0.08290  0.21442  1
 Cl  Cl25  1  0.09903  0.38461  0.46752  1
 Cl  Cl26  1  0.38461  0.91710  0.78558  1
 Cl  Cl27  1  0.58290  0.11539  0.71442  1
 Cl  Cl28  1  0.40097  0.36849  0.78558  1
 Cl  Cl29  1  0.36849  0.58290  0.46752  1
 Cl  Cl30  1  0.13151  0.09903  0.71442  1
 Cl  Cl31  1  0.30930  0.75162  0.88249  1
 Cl  Cl32  1  0.08290  0.86849  0.96752  1
