CIF file written using JARVIS-Tools package.
data_NaBeTl
_symmetry_space_group_name_H-M  'I4mm'
_cell_length_a       5.87828
_cell_length_b       5.87828
_cell_length_c       5.87828
_cell_angle_alpha    144.875
_cell_angle_beta     144.875
_cell_angle_gamma    50.5203

_symmetry_Int_Tables_number  107
_chemical_formula_structural  NaBeTl
_chemical_formula_sum  NaBeTl
_cell_volume  66.90190450065559
_cell_formula_units_Z  1
loop_
  _symmetry_equiv_pos_site_id
 _symmetry_equiv_pos_as_xyz
 1  'x, y, z'
loop_
 _atom_site_type_symbol
 _atom_site_label
 _atom_site_symmetry_multiplicity
 _atom_site_fract_x
 _atom_site_fract_y
 _atom_site_fract_z
 _atom_site_fract_occupancy
 Be  Be1  1  0.03772  0.03772  0.00000  1
 Na  Na1  1  0.33489  0.33489  0.00000  1
 Tl  Tl1  1  0.62738  0.62738  0.00000  1
