CIF file written using JARVIS-Tools package.
data_BaBi4Cl2O6
_symmetry_space_group_name_H-M  'I4/mmm'
_cell_length_a       3.99855
_cell_length_b       3.99854
_cell_length_c       16.0861
_cell_angle_alpha    97.1395
_cell_angle_beta     97.1395
_cell_angle_gamma    90.0001

_symmetry_Int_Tables_number  139
_chemical_formula_structural  BaBi4Cl2O6
_chemical_formula_sum  BaBi4Cl2O6
_cell_volume  253.18708314474608
_cell_formula_units_Z  1
loop_
  _symmetry_equiv_pos_site_id
 _symmetry_equiv_pos_as_xyz
 1  'x, y, z'
loop_
 _atom_site_type_symbol
 _atom_site_label
 _atom_site_symmetry_multiplicity
 _atom_site_fract_x
 _atom_site_fract_y
 _atom_site_fract_z
 _atom_site_fract_occupancy
 Ba  Ba1  1  0.50000  0.50000  -0.00000  1
 Bi  Bi1  1  0.21105  0.21105  0.42209  1
 Bi  Bi2  1  0.78895  0.78895  0.57791  1
 Bi  Bi3  1  0.91074  0.91074  0.82147  1
 Bi  Bi4  1  0.08926  0.08926  0.17853  1
 Cl  Cl1  1  0.33285  0.33285  0.66571  1
 Cl  Cl2  1  0.66715  0.66715  0.33429  1
 O  O1  1  0.44132  0.94132  0.88264  1
 O  O2  1  0.05868  0.55868  0.11736  1
 O  O3  1  0.55868  0.05868  0.11736  1
 O  O4  1  0.94132  0.44132  0.88264  1
 O  O5  1  0.25000  0.75000  0.50000  1
 O  O6  1  0.75000  0.25000  0.50000  1
