CIF file written using JARVIS-Tools package.
data_Li4CuF5
_symmetry_space_group_name_H-M  'I4/m'
_cell_length_a       4.00583
_cell_length_b       5.17739
_cell_length_c       5.17739
_cell_angle_alpha    98.6071
_cell_angle_beta     112.759
_cell_angle_gamma    67.2409

_symmetry_Int_Tables_number  87
_chemical_formula_structural  Li4CuF5
_chemical_formula_sum  Li4CuF5
_cell_volume  91.30777113090726
_cell_formula_units_Z  1
loop_
  _symmetry_equiv_pos_site_id
 _symmetry_equiv_pos_as_xyz
 1  'x, y, z'
loop_
 _atom_site_type_symbol
 _atom_site_label
 _atom_site_symmetry_multiplicity
 _atom_site_fract_x
 _atom_site_fract_y
 _atom_site_fract_z
 _atom_site_fract_occupancy
 Cu  Cu1  1  0.00000  0.00000  0.00000  1
 F  F1  1  0.12150  0.20512  0.44812  1
 F  F2  1  0.50000  0.00000  0.00000  1
 F  F3  1  0.32662  0.55188  0.20512  1
 F  F4  1  0.67338  0.44812  0.79488  1
 F  F5  1  0.87850  0.79488  0.55188  1
 Li  Li1  1  0.18837  0.42146  0.79820  1
 Li  Li2  1  0.60983  0.20180  0.42146  1
 Li  Li3  1  0.39017  0.79820  0.57854  1
 Li  Li4  1  0.81163  0.57854  0.20180  1
