CIF file written using JARVIS-Tools package.
data_LiVS2
_symmetry_space_group_name_H-M  'R-3m'
_cell_length_a       3.50436
_cell_length_b       6.29487
_cell_length_c       3.50436
_cell_angle_alpha    106.162
_cell_angle_beta     60
_cell_angle_gamma    106.162

_symmetry_Int_Tables_number  166
_chemical_formula_structural  LiVS2
_chemical_formula_sum  LiVS2
_cell_volume  63.39530921547909
_cell_formula_units_Z  1
loop_
  _symmetry_equiv_pos_site_id
 _symmetry_equiv_pos_as_xyz
 1  'x, y, z'
loop_
 _atom_site_type_symbol
 _atom_site_label
 _atom_site_symmetry_multiplicity
 _atom_site_fract_x
 _atom_site_fract_y
 _atom_site_fract_z
 _atom_site_fract_occupancy
 Li  Li1  1  0.00000  0.00000  0.00000  1
 S  S1  1  0.24390  0.73170  0.24390  1
 S  S2  1  0.75610  0.26830  0.75610  1
 V  V1  1  0.50000  0.50000  0.50000  1
