CIF file written using JARVIS-Tools package.
data_MnOF
_symmetry_space_group_name_H-M  'P2_1'
_cell_length_a       4.60935
_cell_length_b       4.60107
_cell_length_c       9.28761
_cell_angle_alpha    90
_cell_angle_beta     89.8761
_cell_angle_gamma    90

_symmetry_Int_Tables_number  4
_chemical_formula_structural  MnOF
_chemical_formula_sum  Mn6O6F6
_cell_volume  196.97063950280292
_cell_formula_units_Z  6
loop_
  _symmetry_equiv_pos_site_id
 _symmetry_equiv_pos_as_xyz
 1  'x, y, z'
loop_
 _atom_site_type_symbol
 _atom_site_label
 _atom_site_symmetry_multiplicity
 _atom_site_fract_x
 _atom_site_fract_y
 _atom_site_fract_z
 _atom_site_fract_occupancy
 F  F1  1  0.02981  0.78635  0.73802  1
 F  F2  1  0.94859  0.26967  0.57351  1
 F  F3  1  0.97019  0.28635  0.26198  1
 F  F4  1  0.52529  0.73903  0.91463  1
 F  F5  1  0.47471  0.23903  0.08537  1
 F  F6  1  0.05141  0.76967  0.42649  1
 Mn  Mn1  1  0.21773  0.04176  0.91679  1
 Mn  Mn2  1  0.71556  0.48462  0.41660  1
 Mn  Mn3  1  0.78227  0.54176  0.08321  1
 Mn  Mn4  1  0.71729  0.48202  0.75020  1
 Mn  Mn5  1  0.28444  0.98462  0.58340  1
 Mn  Mn6  1  0.28271  0.98202  0.24980  1
 O  O1  1  0.92889  0.33514  0.91597  1
 O  O2  1  0.57828  0.69085  0.25105  1
 O  O3  1  0.42172  0.19085  0.74895  1
 O  O4  1  0.45066  0.17055  0.41743  1
 O  O5  1  0.07111  0.83514  0.08403  1
 O  O6  1  0.54934  0.67055  0.58257  1
