CIF file written using JARVIS-Tools package.
data_Ba2CdB6O12
_symmetry_space_group_name_H-M  'R-3'
_cell_length_a       7.0831
_cell_length_b       7.0831
_cell_length_c       7.08309
_cell_angle_alpha    61.235
_cell_angle_beta     61.235
_cell_angle_gamma    61.235

_symmetry_Int_Tables_number  148
_chemical_formula_structural  Ba2CdB6O12
_chemical_formula_sum  Ba2CdB6O2
_cell_volume  258.2569234945346
_cell_formula_units_Z  1
loop_
  _symmetry_equiv_pos_site_id
 _symmetry_equiv_pos_as_xyz
 1  'x, y, z'
loop_
 _atom_site_type_symbol
 _atom_site_label
 _atom_site_symmetry_multiplicity
 _atom_site_fract_x
 _atom_site_fract_y
 _atom_site_fract_z
 _atom_site_fract_occupancy
 B  B1  1  0.63408  0.75753  0.36760  1
 B  B2  1  0.36760  0.63408  0.75753  1
 B  B3  1  0.75753  0.36760  0.63408  1
 B  B4  1  0.36592  0.24247  0.63240  1
 B  B5  1  0.63240  0.36592  0.24247  1
 B  B6  1  0.24247  0.63240  0.36592  1
 Ba  Ba1  1  0.78915  0.78915  0.78915  1
 Ba  Ba2  1  0.21085  0.21085  0.21085  1
 Cd  Cd1  1  0.00000  0.00000  0.00000  1
 O  O1  1  0.66387  0.91447  0.16250  1
 O  O2  1  0.45638  0.57627  0.20091  1
 O  O3  1  0.91447  0.16250  0.66387  1
 O  O4  1  0.33613  0.08553  0.83750  1
 O  O5  1  0.16250  0.66387  0.91447  1
 O  O6  1  0.79909  0.54362  0.42373  1
 O  O7  1  0.42373  0.79909  0.54362  1
 O  O8  1  0.54362  0.42373  0.79909  1
 O  O9  1  0.83750  0.33613  0.08553  1
 O  O10  1  0.57627  0.20091  0.45638  1
 O  O11  1  0.08553  0.83750  0.33613  1
 O  O12  1  0.20091  0.45638  0.57627  1
