CIF file written using JARVIS-Tools package.
data_Te3As2
_symmetry_space_group_name_H-M  'R-3m'
_cell_length_a       4.11517
_cell_length_b       4.11517
_cell_length_c       29.6489
_cell_angle_alpha    90
_cell_angle_beta     90
_cell_angle_gamma    120

_symmetry_Int_Tables_number  166
_chemical_formula_structural  Te3As2
_chemical_formula_sum  Te9As6
_cell_volume  434.82441529100157
_cell_formula_units_Z  3
loop_
  _symmetry_equiv_pos_site_id
 _symmetry_equiv_pos_as_xyz
 1  'x, y, z'
loop_
 _atom_site_type_symbol
 _atom_site_label
 _atom_site_symmetry_multiplicity
 _atom_site_fract_x
 _atom_site_fract_y
 _atom_site_fract_z
 _atom_site_fract_occupancy
 As  As1  1  0.66667  0.33333  0.93759  1
 As  As2  1  0.00000  0.00000  0.60424  1
 As  As3  1  0.33333  0.66667  0.27092  1
 As  As4  1  0.66667  0.33333  0.73036  1
 As  As5  1  0.00000  0.00000  0.39702  1
 As  As6  1  0.33333  0.66667  0.06368  1
 Te  Te1  1  0.00000  0.00000  0.00063  1
 Te  Te2  1  0.33333  0.66667  0.66730  1
 Te  Te3  1  0.66667  0.33333  0.33396  1
 Te  Te4  1  0.33333  0.66667  0.88343  1
 Te  Te5  1  0.66667  0.33333  0.55008  1
 Te  Te6  1  0.00000  0.00000  0.21675  1
 Te  Te7  1  0.00000  0.00000  0.78452  1
 Te  Te8  1  0.33333  0.66667  0.45118  1
 Te  Te9  1  0.66667  0.33333  0.11784  1
