CIF file written using JARVIS-Tools package.
data_CrWO4
_symmetry_space_group_name_H-M  'C2/m'
_cell_length_a       4.71985
_cell_length_b       5.47701
_cell_length_c       5.47701
_cell_angle_alpha    61.4541
_cell_angle_beta     89.1242
_cell_angle_gamma    89.1242

_symmetry_Int_Tables_number  12
_chemical_formula_structural  CrWO4
_chemical_formula_sum  Cr2W2O8
_cell_volume  124.35243116605939
_cell_formula_units_Z  2
loop_
  _symmetry_equiv_pos_site_id
 _symmetry_equiv_pos_as_xyz
 1  'x, y, z'
loop_
 _atom_site_type_symbol
 _atom_site_label
 _atom_site_symmetry_multiplicity
 _atom_site_fract_x
 _atom_site_fract_y
 _atom_site_fract_z
 _atom_site_fract_occupancy
 Cr  Cr1  1  0.50241  0.25670  0.25670  1
 Cr  Cr2  1  0.49759  0.74330  0.74330  1
 O  O1  1  0.20394  0.60085  0.60085  1
 O  O2  1  0.79606  0.39915  0.39915  1
 O  O3  1  0.77690  0.88356  0.88356  1
 O  O4  1  0.22310  0.11644  0.11644  1
 O  O5  1  0.70185  0.39167  0.90289  1
 O  O6  1  0.29815  0.09711  0.60833  1
 O  O7  1  0.29815  0.60833  0.09711  1
 O  O8  1  0.70185  0.90289  0.39167  1
 W  W1  1  0.00000  0.76995  0.23005  1
 W  W2  1  -0.00000  0.23005  0.76995  1
