CIF file written using JARVIS-Tools package.
data_Li4MnW3O12
_symmetry_space_group_name_H-M  'P2'
_cell_length_a       4.94153
_cell_length_b       8.85389
_cell_length_c       5.04811
_cell_angle_alpha    90
_cell_angle_beta     90.8873
_cell_angle_gamma    90

_symmetry_Int_Tables_number  3
_chemical_formula_structural  Li4MnW3O12
_chemical_formula_sum  Li4MnW3O2
_cell_volume  220.83692972686507
_cell_formula_units_Z  1
loop_
  _symmetry_equiv_pos_site_id
 _symmetry_equiv_pos_as_xyz
 1  'x, y, z'
loop_
 _atom_site_type_symbol
 _atom_site_label
 _atom_site_symmetry_multiplicity
 _atom_site_fract_x
 _atom_site_fract_y
 _atom_site_fract_z
 _atom_site_fract_occupancy
 Li  Li1  1  0.00000  0.70390  0.00000  1
 Li  Li2  1  0.50000  0.83354  -0.00000  1
 Li  Li3  1  0.00000  0.35302  0.50000  1
 Li  Li4  1  0.50000  0.19683  0.50000  1
 Mn  Mn1  1  0.00000  0.10635  0.00000  1
 O  O1  1  0.26212  0.26347  0.83500  1
 O  O2  1  0.70475  0.57717  0.18970  1
 O  O3  1  0.19531  0.90027  0.81299  1
 O  O4  1  0.70728  0.43407  0.68788  1
 O  O5  1  0.29525  0.57717  0.81030  1
 O  O6  1  0.74341  0.75087  0.65199  1
 O  O7  1  0.29272  0.43407  0.31212  1
 O  O8  1  0.22733  0.07340  0.34322  1
 O  O9  1  0.77267  0.07340  0.65678  1
 O  O10  1  0.80469  0.90027  0.18701  1
 O  O11  1  0.25659  0.75087  0.34801  1
 O  O12  1  0.73788  0.26347  0.16500  1
 W  W1  1  0.00000  0.93671  0.50000  1
 W  W2  1  0.50000  0.39392  -0.00000  1
 W  W3  1  0.50000  0.61833  0.50000  1
