CIF file written using JARVIS-Tools package.
data_Ca3N2
_symmetry_space_group_name_H-M  'P-3m1'
_cell_length_a       3.882
_cell_length_b       3.882
_cell_length_c       6.57882
_cell_angle_alpha    90
_cell_angle_beta     90
_cell_angle_gamma    120

_symmetry_Int_Tables_number  164
_chemical_formula_structural  Ca3N2
_chemical_formula_sum  Ca3N2
_cell_volume  85.85956084734404
_cell_formula_units_Z  1
loop_
  _symmetry_equiv_pos_site_id
 _symmetry_equiv_pos_as_xyz
 1  'x, y, z'
loop_
 _atom_site_type_symbol
 _atom_site_label
 _atom_site_symmetry_multiplicity
 _atom_site_fract_x
 _atom_site_fract_y
 _atom_site_fract_z
 _atom_site_fract_occupancy
 Ca  Ca1  1  0.00000  0.00000  0.00000  1
 Ca  Ca2  1  0.66667  0.33333  0.33950  1
 Ca  Ca3  1  0.33333  0.66667  0.66050  1
 N  N1  1  0.66667  0.33333  0.76426  1
 N  N2  1  0.33333  0.66667  0.23574  1
