CIF file written using JARVIS-Tools package.
data_Rb3B12H12I
_symmetry_space_group_name_H-M  'R-3m'
_cell_length_a       7.05431
_cell_length_b       7.05431
_cell_length_c       7.05431
_cell_angle_alpha    93.6385
_cell_angle_beta     93.6385
_cell_angle_gamma    93.6385

_symmetry_Int_Tables_number  166
_chemical_formula_structural  Rb3B12H12I
_chemical_formula_sum  Rb3B2H2I
_cell_volume  348.82875278660975
_cell_formula_units_Z  1
loop_
  _symmetry_equiv_pos_site_id
 _symmetry_equiv_pos_as_xyz
 1  'x, y, z'
loop_
 _atom_site_type_symbol
 _atom_site_label
 _atom_site_symmetry_multiplicity
 _atom_site_fract_x
 _atom_site_fract_y
 _atom_site_fract_z
 _atom_site_fract_occupancy
 B  B1  1  0.06031  0.23316  0.06031  1
 B  B2  1  0.87859  0.87859  0.15869  1
 B  B3  1  0.06031  0.06031  0.23316  1
 B  B4  1  0.93969  0.76684  0.93969  1
 B  B5  1  0.93969  0.93969  0.76684  1
 B  B6  1  0.15869  0.87859  0.87859  1
 B  B7  1  0.23316  0.06031  0.06031  1
 B  B8  1  0.76684  0.93969  0.93969  1
 B  B9  1  0.84131  0.12141  0.12141  1
 B  B10  1  0.12141  0.84131  0.12141  1
 B  B11  1  0.12141  0.12141  0.84131  1
 B  B12  1  0.87859  0.15869  0.87859  1
 H  H1  1  0.39892  0.10298  0.10298  1
 H  H2  1  0.60108  0.89702  0.89702  1
 H  H3  1  0.89702  0.89702  0.60108  1
 H  H4  1  0.79101  0.79101  0.27033  1
 H  H5  1  0.20899  0.20899  0.72967  1
 H  H6  1  0.20899  0.72967  0.20899  1
 H  H7  1  0.72967  0.20899  0.20899  1
 H  H8  1  0.79101  0.27033  0.79101  1
 H  H9  1  0.10298  0.10298  0.39892  1
 H  H10  1  0.27033  0.79101  0.79101  1
 H  H11  1  0.10298  0.39892  0.10298  1
 H  H12  1  0.89702  0.60108  0.89702  1
 I  I1  1  0.50000  0.50000  0.50000  1
 Rb  Rb1  1  0.50000  0.50000  0.00000  1
 Rb  Rb2  1  0.50000  -0.00000  0.50000  1
 Rb  Rb3  1  -0.00000  0.50000  0.50000  1
