CIF file written using JARVIS-Tools package.
data_YbAl2Pd
_symmetry_space_group_name_H-M  'Cmcm'
_cell_length_a       4.2882
_cell_length_b       5.38758
_cell_length_c       7.29699
_cell_angle_alpha    90
_cell_angle_beta     90
_cell_angle_gamma    113.451

_symmetry_Int_Tables_number  63
_chemical_formula_structural  YbAl2Pd
_chemical_formula_sum  Yb2Al4Pd2
_cell_volume  154.65705674515485
_cell_formula_units_Z  2
loop_
  _symmetry_equiv_pos_site_id
 _symmetry_equiv_pos_as_xyz
 1  'x, y, z'
loop_
 _atom_site_type_symbol
 _atom_site_label
 _atom_site_symmetry_multiplicity
 _atom_site_fract_x
 _atom_site_fract_y
 _atom_site_fract_z
 _atom_site_fract_occupancy
 Al  Al1  1  0.14948  0.29896  0.44449  1
 Al  Al2  1  0.85052  0.70104  0.55551  1
 Al  Al3  1  0.14948  0.29896  0.05551  1
 Al  Al4  1  0.85052  0.70104  0.94449  1
 Pd  Pd1  1  0.71641  0.43282  0.25000  1
 Pd  Pd2  1  0.28359  0.56718  0.75000  1
 Yb  Yb1  1  0.43597  0.87194  0.25000  1
 Yb  Yb2  1  0.56403  0.12806  0.75000  1
