CIF file written using JARVIS-Tools package.
data_LuSnPd
_symmetry_space_group_name_H-M  'P-62m'
_cell_length_a       3.8156
_cell_length_b       7.56143
_cell_length_c       7.56141
_cell_angle_alpha    120
_cell_angle_beta     90
_cell_angle_gamma    90

_symmetry_Int_Tables_number  189
_chemical_formula_structural  LuSnPd
_chemical_formula_sum  Lu3Sn3Pd3
_cell_volume  188.92993681233978
_cell_formula_units_Z  3
loop_
  _symmetry_equiv_pos_site_id
 _symmetry_equiv_pos_as_xyz
 1  'x, y, z'
loop_
 _atom_site_type_symbol
 _atom_site_label
 _atom_site_symmetry_multiplicity
 _atom_site_fract_x
 _atom_site_fract_y
 _atom_site_fract_z
 _atom_site_fract_occupancy
 Lu  Lu1  1  0.50000  0.59929  0.00000  1
 Lu  Lu2  1  0.50000  0.40069  0.40070  1
 Lu  Lu3  1  0.50000  0.99999  0.59930  1
 Pd  Pd1  1  0.00000  0.33332  0.66667  1
 Pd  Pd2  1  0.00000  0.66665  0.33333  1
 Pd  Pd3  1  0.50000  0.99999  0.00000  1
 Sn  Sn1  1  0.00000  0.26589  0.00000  1
 Sn  Sn2  1  0.00000  0.73409  0.73410  1
 Sn  Sn3  1  0.00000  0.99999  0.26590  1
