CIF file written using JARVIS-Tools package.
data_Li2B2S5
_symmetry_space_group_name_H-M  'Cmcm'
_cell_length_a       8.61753
_cell_length_b       8.61753
_cell_length_c       6.79143
_cell_angle_alpha    90
_cell_angle_beta     90
_cell_angle_gamma    136.715

_symmetry_Int_Tables_number  63
_chemical_formula_structural  Li2B2S5
_chemical_formula_sum  Li4B4S0
_cell_volume  345.78872645736703
_cell_formula_units_Z  2
loop_
  _symmetry_equiv_pos_site_id
 _symmetry_equiv_pos_as_xyz
 1  'x, y, z'
loop_
 _atom_site_type_symbol
 _atom_site_label
 _atom_site_symmetry_multiplicity
 _atom_site_fract_x
 _atom_site_fract_y
 _atom_site_fract_z
 _atom_site_fract_occupancy
 B  B1  1  0.44754  0.27401  0.75000  1
 B  B2  1  0.55246  0.72599  0.25000  1
 B  B3  1  0.27401  0.44754  0.75000  1
 B  B4  1  0.72599  0.55246  0.25000  1
 Li  Li1  1  0.22968  0.77032  0.50000  1
 Li  Li2  1  0.77032  0.22968  0.00000  1
 Li  Li3  1  0.77032  0.22968  0.50000  1
 Li  Li4  1  0.22968  0.77032  0.00000  1
 S  S1  1  0.08048  0.46889  0.75000  1
 S  S2  1  0.82211  0.82211  0.25000  1
 S  S3  1  0.57456  0.70570  0.75000  1
 S  S4  1  0.17789  0.17789  0.75000  1
 S  S5  1  0.53111  0.91952  0.25000  1
 S  S6  1  0.29430  0.42544  0.25000  1
 S  S7  1  0.46889  0.08048  0.75000  1
 S  S8  1  0.42544  0.29430  0.25000  1
 S  S9  1  0.70570  0.57456  0.75000  1
 S  S10  1  0.91952  0.53111  0.25000  1
