CIF file written using JARVIS-Tools package.
data_NdGe2Pd
_symmetry_space_group_name_H-M  'Cmcm'
_cell_length_a       4.4493
_cell_length_b       4.30936
_cell_length_c       8.95944
_cell_angle_alpha    103.916
_cell_angle_beta     90
_cell_angle_gamma    90

_symmetry_Int_Tables_number  63
_chemical_formula_structural  NdGe2Pd
_chemical_formula_sum  Nd2Ge4Pd2
_cell_volume  166.7430695366675
_cell_formula_units_Z  2
loop_
  _symmetry_equiv_pos_site_id
 _symmetry_equiv_pos_as_xyz
 1  'x, y, z'
loop_
 _atom_site_type_symbol
 _atom_site_label
 _atom_site_symmetry_multiplicity
 _atom_site_fract_x
 _atom_site_fract_y
 _atom_site_fract_z
 _atom_site_fract_occupancy
 Ge  Ge1  1  0.75000  0.46489  0.92977  1
 Ge  Ge2  1  0.25000  0.53511  0.07023  1
 Ge  Ge3  1  0.75000  0.74753  0.49507  1
 Ge  Ge4  1  0.25000  0.25247  0.50493  1
 Nd  Nd1  1  0.75000  0.10737  0.21474  1
 Nd  Nd2  1  0.25000  0.89263  0.78526  1
 Pd  Pd1  1  0.75000  0.32411  0.64822  1
 Pd  Pd2  1  0.25000  0.67589  0.35178  1
