CIF file written using JARVIS-Tools package.
data_Na5P3O10
_symmetry_space_group_name_H-M  'C2/c'
_cell_length_a       5.35376
_cell_length_b       5.53845
_cell_length_c       18.5796
_cell_angle_alpha    96.2068
_cell_angle_beta     90
_cell_angle_gamma    118.903

_symmetry_Int_Tables_number  15
_chemical_formula_structural  Na5P3O10
_chemical_formula_sum  Na0P6O20
_cell_volume  478.5985124163437
_cell_formula_units_Z  2
loop_
  _symmetry_equiv_pos_site_id
 _symmetry_equiv_pos_as_xyz
 1  'x, y, z'
loop_
 _atom_site_type_symbol
 _atom_site_label
 _atom_site_symmetry_multiplicity
 _atom_site_fract_x
 _atom_site_fract_y
 _atom_site_fract_z
 _atom_site_fract_occupancy
 Na  Na1  1  0.34684  0.65235  0.06701  1
 Na  Na2  1  0.88967  0.92829  0.82454  1
 Na  Na3  1  0.46137  0.07171  0.67546  1
 Na  Na4  1  0.19448  0.34765  0.43299  1
 Na  Na5  1  0.65316  0.34765  0.93299  1
 Na  Na6  1  0.53863  0.92829  0.32454  1
 Na  Na7  1  0.00000  0.00000  0.00000  1
 Na  Na8  1  0.11033  0.07171  0.17546  1
 Na  Na9  1  0.80552  0.65235  0.56701  1
 Na  Na10  1  0.50000  0.00000  0.50000  1
 O  O1  1  0.60186  0.90981  0.92489  1
 O  O2  1  0.26130  0.41583  0.68619  1
 O  O3  1  0.39814  0.09019  0.07511  1
 O  O4  1  0.80795  0.90981  0.42489  1
 O  O5  1  0.08203  0.75119  0.73336  1
 O  O6  1  0.83265  0.26787  0.59712  1
 O  O7  1  0.24305  0.40552  0.93712  1
 O  O8  1  0.16916  0.75119  0.23336  1
 O  O9  1  0.65453  0.41583  0.18619  1
 O  O10  1  0.33753  0.59448  0.56288  1
 O  O11  1  0.19205  0.09019  0.57511  1
 O  O12  1  0.16735  0.73213  0.40288  1
 O  O13  1  0.73870  0.58417  0.31381  1
 O  O14  1  0.91797  0.24881  0.26664  1
 O  O15  1  0.66247  0.40552  0.43712  1
 O  O16  1  0.75695  0.59448  0.06288  1
 O  O17  1  0.06478  0.73213  0.90288  1
 O  O18  1  0.83084  0.24881  0.76664  1
 O  O19  1  0.93522  0.26787  0.09712  1
 O  O20  1  0.34547  0.58417  0.81381  1
 P  P1  1  0.85531  0.66385  0.40129  1
 P  P2  1  0.30854  0.66385  0.90129  1
 P  P3  1  0.89889  0.50000  0.25000  1
 P  P4  1  0.10111  0.50000  0.75000  1
 P  P5  1  0.69146  0.33615  0.09871  1
 P  P6  1  0.14469  0.33615  0.59871  1
