CIF file written using JARVIS-Tools package.
data_CaB2H8
_symmetry_space_group_name_H-M  'P4_2/m'
_cell_length_a       6.68179
_cell_length_b       6.68179
_cell_length_c       4.37416
_cell_angle_alpha    90
_cell_angle_beta     90
_cell_angle_gamma    90

_symmetry_Int_Tables_number  84
_chemical_formula_structural  CaB2H8
_chemical_formula_sum  Ca2B4H6
_cell_volume  195.29020986490184
_cell_formula_units_Z  2
loop_
  _symmetry_equiv_pos_site_id
 _symmetry_equiv_pos_as_xyz
 1  'x, y, z'
loop_
 _atom_site_type_symbol
 _atom_site_label
 _atom_site_symmetry_multiplicity
 _atom_site_fract_x
 _atom_site_fract_y
 _atom_site_fract_z
 _atom_site_fract_occupancy
 B  B1  1  0.68479  0.22052  0.52255  1
 B  B2  1  0.31521  0.77948  0.52255  1
 B  B3  1  0.22052  0.31521  0.02255  1
 B  B4  1  0.77948  0.68479  0.02255  1
 Ca  Ca1  1  0.50000  0.00000  0.02255  1
 Ca  Ca2  1  0.00000  0.50000  0.52255  1
 H  H1  1  0.67365  0.40292  0.52259  1
 H  H2  1  0.32635  0.59708  0.52259  1
 H  H3  1  0.40292  0.32635  0.02259  1
 H  H4  1  0.59708  0.67365  0.02259  1
 H  H5  1  0.16609  0.48978  0.02255  1
 H  H6  1  0.22570  0.84096  0.29533  1
 H  H7  1  0.77430  0.15904  0.29533  1
 H  H8  1  0.22568  0.84100  0.74971  1
 H  H9  1  0.77432  0.15900  0.74971  1
 H  H10  1  0.15904  0.22570  0.79533  1
 H  H11  1  0.15900  0.22568  0.24971  1
 H  H12  1  0.84100  0.77432  0.24971  1
 H  H13  1  0.51022  0.16609  0.52255  1
 H  H14  1  0.48978  0.83391  0.52255  1
 H  H15  1  0.84096  0.77430  0.79533  1
 H  H16  1  0.83391  0.51022  0.02255  1
