CIF file written using JARVIS-Tools package.
data_MoF3
_symmetry_space_group_name_H-M  'R-3c'
_cell_length_a       5.78813
_cell_length_b       5.78812
_cell_length_c       5.78812
_cell_angle_alpha    52.737
_cell_angle_beta     52.737
_cell_angle_gamma    52.737

_symmetry_Int_Tables_number  167
_chemical_formula_structural  MoF3
_chemical_formula_sum  Mo2F6
_cell_volume  113.75682372059727
_cell_formula_units_Z  2
loop_
  _symmetry_equiv_pos_site_id
 _symmetry_equiv_pos_as_xyz
 1  'x, y, z'
loop_
 _atom_site_type_symbol
 _atom_site_label
 _atom_site_symmetry_multiplicity
 _atom_site_fract_x
 _atom_site_fract_y
 _atom_site_fract_z
 _atom_site_fract_occupancy
 F  F1  1  0.37077  0.75000  0.12923  1
 F  F2  1  0.75000  0.12923  0.37077  1
 F  F3  1  0.87077  0.62923  0.25000  1
 F  F4  1  0.25000  0.87077  0.62923  1
 F  F5  1  0.62923  0.25000  0.87077  1
 F  F6  1  0.12923  0.37077  0.75000  1
 Mo  Mo1  1  0.50000  0.50000  0.50000  1
 Mo  Mo2  1  0.00000  0.00000  0.00000  1
