CIF file written using JARVIS-Tools package.
data_CaSiBHO5
_symmetry_space_group_name_H-M  'P2_1/c'
_cell_length_a       4.84261
_cell_length_b       7.64258
_cell_length_c       9.70654
_cell_angle_alpha    90
_cell_angle_beta     90.226
_cell_angle_gamma    90

_symmetry_Int_Tables_number  14
_chemical_formula_structural  CaSiBHO5
_chemical_formula_sum  Ca4Si4B4H4O20
_cell_volume  359.23689021130406
_cell_formula_units_Z  4
loop_
  _symmetry_equiv_pos_site_id
 _symmetry_equiv_pos_as_xyz
 1  'x, y, z'
loop_
 _atom_site_type_symbol
 _atom_site_label
 _atom_site_symmetry_multiplicity
 _atom_site_fract_x
 _atom_site_fract_y
 _atom_site_fract_z
 _atom_site_fract_occupancy
 B  B1  1  0.42842  0.58864  0.65902  1
 B  B2  1  0.57158  0.08864  0.84098  1
 B  B3  1  0.57158  0.41136  0.34098  1
 B  B4  1  0.42842  0.91136  0.15902  1
 Ca  Ca1  1  0.99198  0.39373  0.83644  1
 Ca  Ca2  1  0.99198  0.10627  0.33644  1
 Ca  Ca3  1  0.00802  0.60627  0.16356  1
 Ca  Ca4  1  0.00802  0.89373  0.66356  1
 H  H1  1  0.18999  0.03514  0.92264  1
 H  H2  1  0.81001  0.53514  0.57736  1
 H  H3  1  0.81001  0.96486  0.07736  1
 H  H4  1  0.18999  0.46486  0.42264  1
 O  O1  1  0.24171  0.09546  0.53599  1
 O  O2  1  0.32591  0.69758  0.54235  1
 O  O3  1  0.67409  0.19758  0.95765  1
 O  O4  1  0.67409  0.30242  0.45765  1
 O  O5  1  0.26101  0.08626  0.83669  1
 O  O6  1  0.75829  0.59546  0.96401  1
 O  O7  1  0.67830  0.16474  0.71121  1
 O  O8  1  0.75829  0.90454  0.46401  1
 O  O9  1  0.24171  0.40454  0.03599  1
 O  O10  1  0.32591  0.80242  0.04235  1
 O  O11  1  0.32170  0.83526  0.28879  1
 O  O12  1  0.26101  0.41374  0.33669  1
 O  O13  1  0.31262  0.41101  0.64571  1
 O  O14  1  0.31262  0.08899  0.14571  1
 O  O15  1  0.68738  0.58899  0.35429  1
 O  O16  1  0.73899  0.91374  0.16331  1
 O  O17  1  0.32170  0.66474  0.78879  1
 O  O18  1  0.67830  0.33526  0.21121  1
 O  O19  1  0.68738  0.91101  0.85429  1
 O  O20  1  0.73899  0.58626  0.66331  1
 Si  Si1  1  0.52926  0.76758  0.41593  1
 Si  Si2  1  0.47074  0.26758  0.08407  1
 Si  Si3  1  0.47074  0.23242  0.58407  1
 Si  Si4  1  0.52926  0.73242  0.91593  1
