CIF file written using JARVIS-Tools package.
data_KAuN12
_symmetry_space_group_name_H-M  'C2/c'
_cell_length_a       7.46513
_cell_length_b       7.46513
_cell_length_c       7.52988
_cell_angle_alpha    90.3922
_cell_angle_beta     90.3922
_cell_angle_gamma    89.6957

_symmetry_Int_Tables_number  15
_chemical_formula_structural  KAuN12
_chemical_formula_sum  K2Au2N24
_cell_volume  419.60088807718193
_cell_formula_units_Z  2
loop_
  _symmetry_equiv_pos_site_id
 _symmetry_equiv_pos_as_xyz
 1  'x, y, z'
loop_
 _atom_site_type_symbol
 _atom_site_label
 _atom_site_symmetry_multiplicity
 _atom_site_fract_x
 _atom_site_fract_y
 _atom_site_fract_z
 _atom_site_fract_occupancy
 Au  Au1  1  0.51031  0.48969  0.25000  1
 Au  Au2  1  0.48969  0.51031  0.75000  1
 K  K1  1  0.92257  0.07743  0.25000  1
 K  K2  1  0.07743  0.92257  0.75000  1
 N  N1  1  0.77867  0.46709  0.31886  1
 N  N2  1  0.53291  0.22133  0.18114  1
 N  N3  1  0.22133  0.53291  0.68114  1
 N  N4  1  0.46709  0.77867  0.81886  1
 N  N5  1  0.84427  0.59721  0.39153  1
 N  N6  1  0.40279  0.15573  0.10847  1
 N  N7  1  0.15573  0.40279  0.60847  1
 N  N8  1  0.59721  0.84427  0.89153  1
 N  N9  1  0.91410  0.71717  0.46049  1
 N  N10  1  0.92136  0.27156  0.92498  1
 N  N11  1  0.28283  0.08590  0.03951  1
 N  N12  1  0.24395  0.47986  0.18326  1
 N  N13  1  0.08590  0.28283  0.53951  1
 N  N14  1  0.52014  0.75605  0.31674  1
 N  N15  1  0.75605  0.52014  0.81674  1
 N  N16  1  0.47986  0.24395  0.68326  1
 N  N17  1  0.16645  0.61167  0.12782  1
 N  N18  1  0.38833  0.83355  0.37218  1
 N  N19  1  0.83355  0.38833  0.87218  1
 N  N20  1  0.61167  0.16645  0.62782  1
 N  N21  1  0.07864  0.72844  0.07502  1
 N  N22  1  0.27156  0.92136  0.42498  1
 N  N23  1  0.71717  0.91410  0.96049  1
 N  N24  1  0.72844  0.07864  0.57502  1
