CIF file written using JARVIS-Tools package.
data_LiVPO4
_symmetry_space_group_name_H-M  'Fdd2'
_cell_length_a       5.40824
_cell_length_b       6.33721
_cell_length_c       5.40824
_cell_angle_alpha    76.9513
_cell_angle_beta     61.9088
_cell_angle_gamma    103.049

_symmetry_Int_Tables_number  43
_chemical_formula_structural  LiVPO4
_chemical_formula_sum  Li2V2P2O8
_cell_volume  146.92647830761248
_cell_formula_units_Z  2
loop_
  _symmetry_equiv_pos_site_id
 _symmetry_equiv_pos_as_xyz
 1  'x, y, z'
loop_
 _atom_site_type_symbol
 _atom_site_label
 _atom_site_symmetry_multiplicity
 _atom_site_fract_x
 _atom_site_fract_y
 _atom_site_fract_z
 _atom_site_fract_occupancy
 Li  Li1  1  0.80061  0.25000  0.80061  1
 Li  Li2  1  0.55061  0.75000  0.55061  1
 O  O1  1  0.78434  0.10427  0.26991  1
 O  O2  1  0.30655  0.09833  0.15428  1
 O  O3  1  0.75261  0.59833  0.20822  1
 O  O4  1  0.87418  0.60427  0.68007  1
 O  O5  1  0.15428  0.40167  0.30655  1
 O  O6  1  0.26991  0.39573  0.78434  1
 O  O7  1  0.68007  0.89573  0.87418  1
 O  O8  1  0.20822  0.90167  0.75261  1
 P  P1  1  0.12312  0.25000  0.12312  1
 P  P2  1  0.87312  0.75000  0.87312  1
 V  V1  1  0.43618  0.25000  0.43618  1
 V  V2  1  0.18618  0.75000  0.18618  1
