CIF file written using JARVIS-Tools package.
data_USnRu
_symmetry_space_group_name_H-M  'P-62m'
_cell_length_a       4.00779
_cell_length_b       7.34042
_cell_length_c       7.34146
_cell_angle_alpha    119.995
_cell_angle_beta     90
_cell_angle_gamma    90

_symmetry_Int_Tables_number  189
_chemical_formula_structural  USnRu
_chemical_formula_sum  U3Sn3Ru3
_cell_volume  187.05063175933898
_cell_formula_units_Z  3
loop_
  _symmetry_equiv_pos_site_id
 _symmetry_equiv_pos_as_xyz
 1  'x, y, z'
loop_
 _atom_site_type_symbol
 _atom_site_label
 _atom_site_symmetry_multiplicity
 _atom_site_fract_x
 _atom_site_fract_y
 _atom_site_fract_z
 _atom_site_fract_occupancy
 Ru  Ru1  1  0.00000  0.33328  0.66665  1
 Ru  Ru2  1  0.00000  0.66662  0.33335  1
 Ru  Ru3  1  0.50000  0.99996  -0.00000  1
 Sn  Sn1  1  0.00000  0.25364  -0.00000  1
 Sn  Sn2  1  0.00000  0.74632  0.74634  1
 Sn  Sn3  1  0.00000  -0.00001  0.25366  1
 U  U1  1  0.50000  0.58576  -0.00000  1
 U  U2  1  0.50000  0.41427  0.41421  1
 U  U3  1  0.50000  0.00006  0.58579  1
