CIF file written using JARVIS-Tools package.
data_Na4MnO4
_symmetry_space_group_name_H-M  'P-1'
_cell_length_a       5.60785
_cell_length_b       5.82927
_cell_length_c       8.52271
_cell_angle_alpha    78.1062
_cell_angle_beta     70.392
_cell_angle_gamma    68.2725

_symmetry_Int_Tables_number  2
_chemical_formula_structural  Na4MnO4
_chemical_formula_sum  Na8Mn2O8
_cell_volume  242.7333387456552
_cell_formula_units_Z  2
loop_
  _symmetry_equiv_pos_site_id
 _symmetry_equiv_pos_as_xyz
 1  'x, y, z'
loop_
 _atom_site_type_symbol
 _atom_site_label
 _atom_site_symmetry_multiplicity
 _atom_site_fract_x
 _atom_site_fract_y
 _atom_site_fract_z
 _atom_site_fract_occupancy
 Mn  Mn1  1  0.00743  0.99645  0.00513  1
 Mn  Mn2  1  0.31056  0.55866  0.49985  1
 Na  Na1  1  0.57701  0.51208  0.08254  1
 Na  Na2  1  0.39379  0.02495  0.22897  1
 Na  Na3  1  0.92423  0.53014  0.27600  1
 Na  Na4  1  0.64161  0.00222  0.81951  1
 Na  Na5  1  0.20290  0.04976  0.63544  1
 Na  Na6  1  0.67639  0.55292  0.68548  1
 Na  Na7  1  0.11512  0.50532  0.86955  1
 Na  Na8  1  0.74100  0.04303  0.42246  1
 O  O1  1  0.80455  0.79784  0.05430  1
 O  O2  1  0.86201  0.25130  0.87058  1
 O  O3  1  0.32211  0.78417  0.90078  1
 O  O4  1  -0.00410  0.77095  0.60420  1
 O  O5  1  0.45596  0.30382  0.63441  1
 O  O6  1  0.51347  0.75725  0.45068  1
 O  O7  1  0.31982  0.38343  0.34562  1
 O  O8  1  -0.00183  0.17168  0.15936  1
