CIF file written using JARVIS-Tools package.
data_Dy4Fe3B6
_symmetry_space_group_name_H-M  'R-3m'
_cell_length_a       7.7757
_cell_length_b       7.7757
_cell_length_c       7.7757
_cell_angle_alpha    39.6823
_cell_angle_beta     39.6823
_cell_angle_gamma    39.6823

_symmetry_Int_Tables_number  166
_chemical_formula_structural  Dy4Fe3B6
_chemical_formula_sum  Dy4Fe3B6
_cell_volume  172.6054355400654
_cell_formula_units_Z  1
loop_
  _symmetry_equiv_pos_site_id
 _symmetry_equiv_pos_as_xyz
 1  'x, y, z'
loop_
 _atom_site_type_symbol
 _atom_site_label
 _atom_site_symmetry_multiplicity
 _atom_site_fract_x
 _atom_site_fract_y
 _atom_site_fract_z
 _atom_site_fract_occupancy
 B  B1  1  0.16740  0.50000  0.83260  1
 B  B2  1  0.50000  0.83260  0.16740  1
 B  B3  1  0.83260  0.16740  0.50000  1
 B  B4  1  0.83260  0.50000  0.16740  1
 B  B5  1  0.50000  0.16740  0.83260  1
 B  B6  1  0.16740  0.83260  0.50000  1
 Dy  Dy1  1  0.74225  0.74225  0.74225  1
 Dy  Dy2  1  0.25775  0.25775  0.25775  1
 Dy  Dy3  1  0.59058  0.59058  0.59058  1
 Dy  Dy4  1  0.40942  0.40942  0.40942  1
 Fe  Fe1  1  0.00000  0.00000  0.00000  1
 Fe  Fe2  1  0.89156  0.89156  0.89156  1
 Fe  Fe3  1  0.10844  0.10844  0.10844  1
