CIF file written using JARVIS-Tools package.
data_Co5B2P
_symmetry_space_group_name_H-M  'I4/mcm'
_cell_length_a       6.46113
_cell_length_b       6.46113
_cell_length_c       6.46113
_cell_angle_alpha    131.651
_cell_angle_beta     131.651
_cell_angle_gamma    70.7814

_symmetry_Int_Tables_number  140
_chemical_formula_structural  Co5B2P
_chemical_formula_sum  Co0B4P2
_cell_volume  147.50638183935686
_cell_formula_units_Z  2
loop_
  _symmetry_equiv_pos_site_id
 _symmetry_equiv_pos_as_xyz
 1  'x, y, z'
loop_
 _atom_site_type_symbol
 _atom_site_label
 _atom_site_symmetry_multiplicity
 _atom_site_fract_x
 _atom_site_fract_y
 _atom_site_fract_z
 _atom_site_fract_occupancy
 B  B1  1  0.87743  0.37743  0.25486  1
 B  B2  1  0.12257  0.62257  0.74514  1
 B  B3  1  0.37743  0.12257  0.50000  1
 B  B4  1  0.62257  0.87743  0.50000  1
 Co  Co1  1  0.00000  0.00000  0.00000  1
 Co  Co2  1  0.50000  0.50000  0.00000  1
 Co  Co3  1  0.81103  0.31103  0.84044  1
 Co  Co4  1  0.47058  0.97058  0.15956  1
 Co  Co5  1  0.31103  0.47058  0.50000  1
 Co  Co6  1  0.97058  0.81103  0.50000  1
 Co  Co7  1  0.02942  0.18897  0.50000  1
 Co  Co8  1  0.68897  0.52942  0.50000  1
 Co  Co9  1  0.52942  0.02942  0.84044  1
 Co  Co10  1  0.18897  0.68897  0.15956  1
 P  P1  1  0.25000  0.25000  0.00000  1
 P  P2  1  0.75000  0.75000  0.00000  1
