CIF file written using JARVIS-Tools package.
data_ZrCl
_symmetry_space_group_name_H-M  'R-3m'
_cell_length_a       3.43825
_cell_length_b       3.43833
_cell_length_c       9.11975
_cell_angle_alpha    100.85
_cell_angle_beta     90
_cell_angle_gamma    119.999

_symmetry_Int_Tables_number  166
_chemical_formula_structural  ZrCl
_chemical_formula_sum  Zr2Cl2
_cell_volume  91.13647731685808
_cell_formula_units_Z  2
loop_
  _symmetry_equiv_pos_site_id
 _symmetry_equiv_pos_as_xyz
 1  'x, y, z'
loop_
 _atom_site_type_symbol
 _atom_site_label
 _atom_site_symmetry_multiplicity
 _atom_site_fract_x
 _atom_site_fract_y
 _atom_site_fract_z
 _atom_site_fract_occupancy
 Cl  Cl1  1  0.89016  0.78032  0.67007  1
 Cl  Cl2  1  0.10984  0.21968  0.32993  1
 Zr  Zr1  1  0.62209  0.24418  0.86608  1
 Zr  Zr2  1  0.37791  0.75582  0.13392  1
