CIF file written using JARVIS-Tools package.
data_LiVF4
_symmetry_space_group_name_H-M  'P-1'
_cell_length_a       4.0115
_cell_length_b       6.52397
_cell_length_c       6.54724
_cell_angle_alpha    106.566
_cell_angle_beta     107.778
_cell_angle_gamma    89.9976

_symmetry_Int_Tables_number  2
_chemical_formula_structural  LiVF4
_chemical_formula_sum  Li2V2F8
_cell_volume  155.68062268526128
_cell_formula_units_Z  2
loop_
  _symmetry_equiv_pos_site_id
 _symmetry_equiv_pos_as_xyz
 1  'x, y, z'
loop_
 _atom_site_type_symbol
 _atom_site_label
 _atom_site_symmetry_multiplicity
 _atom_site_fract_x
 _atom_site_fract_y
 _atom_site_fract_z
 _atom_site_fract_occupancy
 F  F1  1  0.92709  0.11796  0.85751  1
 F  F2  1  0.86311  0.49660  0.72948  1
 F  F3  1  0.27757  0.14538  0.55754  1
 F  F4  1  0.35364  0.79703  0.71018  1
 F  F5  1  0.64488  0.20421  0.29122  1
 F  F6  1  0.72094  0.85585  0.44385  1
 F  F7  1  0.13546  0.50463  0.27191  1
 F  F8  1  0.07141  0.88327  0.14389  1
 Li  Li1  1  0.91303  0.79972  0.82908  1
 Li  Li2  1  0.08556  0.20151  0.17231  1
 V  V1  1  0.79546  0.20633  0.59347  1
 V  V2  1  0.20306  0.79490  0.40792  1
