CIF file written using JARVIS-Tools package.
data_Hf9AsW4
_symmetry_space_group_name_H-M  'P6_3/mmc'
_cell_length_a       8.67934
_cell_length_b       8.67934
_cell_length_c       8.6755
_cell_angle_alpha    90
_cell_angle_beta     90
_cell_angle_gamma    120

_symmetry_Int_Tables_number  194
_chemical_formula_structural  Hf9AsW4
_chemical_formula_sum  Hf8As2W8
_cell_volume  565.9778326236253
_cell_formula_units_Z  2
loop_
  _symmetry_equiv_pos_site_id
 _symmetry_equiv_pos_as_xyz
 1  'x, y, z'
loop_
 _atom_site_type_symbol
 _atom_site_label
 _atom_site_symmetry_multiplicity
 _atom_site_fract_x
 _atom_site_fract_y
 _atom_site_fract_z
 _atom_site_fract_occupancy
 As  As1  1  0.66667  0.33333  0.25000  1
 As  As2  1  0.33333  0.66667  0.75000  1
 Hf  Hf1  1  0.39056  0.19528  0.04530  1
 Hf  Hf2  1  0.19528  0.39056  0.95470  1
 Hf  Hf3  1  0.80472  0.19528  0.04530  1
 Hf  Hf4  1  0.80472  0.60944  0.04530  1
 Hf  Hf5  1  0.60944  0.80472  0.54530  1
 Hf  Hf6  1  0.19528  0.39056  0.54530  1
 Hf  Hf7  1  0.19528  0.80472  0.95470  1
 Hf  Hf8  1  0.60944  0.80472  0.95470  1
 Hf  Hf9  1  0.19528  0.80472  0.54530  1
 Hf  Hf10  1  0.80472  0.19528  0.45470  1
 Hf  Hf11  1  0.45952  0.54048  0.25000  1
 Hf  Hf12  1  0.54048  0.45952  0.75000  1
 Hf  Hf13  1  0.91905  0.45952  0.75000  1
 Hf  Hf14  1  0.45952  0.91905  0.25000  1
 Hf  Hf15  1  0.54048  0.08095  0.75000  1
 Hf  Hf16  1  0.80472  0.60944  0.45470  1
 Hf  Hf17  1  0.39056  0.19528  0.45470  1
 Hf  Hf18  1  0.08095  0.54048  0.25000  1
 W  W1  1  0.00000  0.00000  0.00000  1
 W  W2  1  0.77947  0.88973  0.25000  1
 W  W3  1  0.11027  0.88973  0.25000  1
 W  W4  1  0.11027  0.22053  0.25000  1
 W  W5  1  0.22053  0.11027  0.75000  1
 W  W6  1  0.88973  0.11027  0.75000  1
 W  W7  1  0.88973  0.77947  0.75000  1
 W  W8  1  0.00000  0.00000  0.50000  1
