CIF file written using JARVIS-Tools package.
data_V3O5F
_symmetry_space_group_name_H-M  'P1'
_cell_length_a       5.45535
_cell_length_b       5.45393
_cell_length_c       7.11546
_cell_angle_alpha    71.0203
_cell_angle_beta     71.0061
_cell_angle_gamma    73.3731

_symmetry_Int_Tables_number  1
_chemical_formula_structural  V3O5F
_chemical_formula_sum  V6O0F2
_cell_volume  185.40924911994765
_cell_formula_units_Z  2
loop_
  _symmetry_equiv_pos_site_id
 _symmetry_equiv_pos_as_xyz
 1  'x, y, z'
loop_
 _atom_site_type_symbol
 _atom_site_label
 _atom_site_symmetry_multiplicity
 _atom_site_fract_x
 _atom_site_fract_y
 _atom_site_fract_z
 _atom_site_fract_occupancy
 F  F1  1  0.89673  0.89973  0.30170  1
 F  F2  1  0.03768  0.63607  0.66621  1
 O  O1  1  0.76454  0.77054  0.03907  1
 O  O2  1  0.36159  0.96073  0.33347  1
 O  O3  1  0.23589  0.23346  0.96319  1
 O  O4  1  0.10497  0.10683  0.69494  1
 O  O5  1  0.56921  0.56695  0.63434  1
 O  O6  1  0.42836  0.42646  0.36889  1
 O  O7  1  0.29470  0.70405  0.00068  1
 O  O8  1  0.65148  0.02261  0.66713  1
 O  O9  1  0.70155  0.30144  0.99924  1
 O  O10  1  0.95902  0.37017  0.33036  1
 V  V1  1  -0.00095  0.00980  0.98196  1
 V  V2  1  0.01015  0.03319  0.49574  1
 V  V3  1  0.33157  0.32932  0.16384  1
 V  V4  1  0.64092  0.65277  0.33534  1
 V  V5  1  0.36996  0.31165  0.67159  1
 V  V6  1  0.64262  0.66423  0.85229  1
