CIF file written using JARVIS-Tools package.
data_CuN3
_symmetry_space_group_name_H-M  'I4_1/amd'
_cell_length_a       5.86294
_cell_length_b       6.6769
_cell_length_c       6.67691
_cell_angle_alpha    78.886
_cell_angle_beta     63.9569
_cell_angle_gamma    63.957

_symmetry_Int_Tables_number  141
_chemical_formula_structural  CuN3
_chemical_formula_sum  Cu4N2
_cell_volume  210.99285557211232
_cell_formula_units_Z  4
loop_
  _symmetry_equiv_pos_site_id
 _symmetry_equiv_pos_as_xyz
 1  'x, y, z'
loop_
 _atom_site_type_symbol
 _atom_site_label
 _atom_site_symmetry_multiplicity
 _atom_site_fract_x
 _atom_site_fract_y
 _atom_site_fract_z
 _atom_site_fract_occupancy
 Cu  Cu1  1  0.50000  0.50000  0.50000  1
 Cu  Cu2  1  -0.00000  -0.00000  0.50000  1
 Cu  Cu3  1  0.50000  0.50000  -0.00000  1
 Cu  Cu4  1  0.50000  0.00000  0.00000  1
 N  N1  1  0.81101  0.45113  0.54890  1
 N  N2  1  0.35991  0.95110  0.45113  1
 N  N3  1  0.76214  0.54890  0.04887  1
 N  N4  1  0.81103  0.04887  0.95110  1
 N  N5  1  0.00000  0.00000  0.00000  1
 N  N6  1  -0.00000  0.50000  -0.00000  1
 N  N7  1  0.50000  -0.00000  0.50000  1
 N  N8  1  -0.00000  0.50000  0.50000  1
 N  N9  1  0.18897  0.95113  0.04890  1
 N  N10  1  0.23786  0.45110  0.95113  1
 N  N11  1  0.64009  0.04890  0.54887  1
 N  N12  1  0.18899  0.54887  0.45110  1
