CIF file written using JARVIS-Tools package.
data_Li4Ti3V3Te2O16
_symmetry_space_group_name_H-M  'Cm'
_cell_length_a       5.89834
_cell_length_b       5.94702
_cell_length_c       10.2187
_cell_angle_alpha    89.731
_cell_angle_beta     90.0012
_cell_angle_gamma    119.73

_symmetry_Int_Tables_number  8
_chemical_formula_structural  Li4Ti3V3Te2O16
_chemical_formula_sum  Li4Ti3V3Te2O6
_cell_volume  311.2588065308016
_cell_formula_units_Z  1
loop_
  _symmetry_equiv_pos_site_id
 _symmetry_equiv_pos_as_xyz
 1  'x, y, z'
loop_
 _atom_site_type_symbol
 _atom_site_label
 _atom_site_symmetry_multiplicity
 _atom_site_fract_x
 _atom_site_fract_y
 _atom_site_fract_z
 _atom_site_fract_occupancy
 Li  Li1  1  0.33451  0.66903  0.09811  1
 Li  Li2  1  0.99944  0.99888  0.01172  1
 Li  Li3  1  -0.00040  -0.00077  0.50709  1
 Li  Li4  1  0.66340  0.32683  0.60218  1
 O  O1  1  0.16331  0.83901  0.39777  1
 O  O2  1  0.51485  0.02972  0.16145  1
 O  O3  1  0.33930  0.67862  0.89526  1
 O  O4  1  0.00071  0.00142  0.68983  1
 O  O5  1  0.00045  0.00094  0.19381  1
 O  O6  1  0.67566  0.83901  0.39777  1
 O  O7  1  0.48621  0.97243  0.67514  1
 O  O8  1  0.49814  0.51255  0.67525  1
 O  O9  1  0.15848  0.31698  0.39639  1
 O  O10  1  0.51593  0.49779  0.17034  1
 O  O11  1  0.98185  0.49781  0.17035  1
 O  O12  1  0.31697  0.15483  0.90146  1
 O  O13  1  0.01438  0.51254  0.67525  1
 O  O14  1  0.84697  0.69396  0.89696  1
 O  O15  1  0.67208  0.34418  0.39606  1
 O  O16  1  0.83785  0.15483  0.90146  1
 Te  Te1  1  0.66026  0.32053  -0.00063  1
 Te  Te2  1  0.33010  0.66024  0.49221  1
 Ti  Ti1  1  0.82490  0.64982  0.27370  1
 Ti  Ti2  1  0.65385  0.81669  0.77936  1
 Ti  Ti3  1  0.16282  0.81668  0.77936  1
 V  V1  1  0.17456  0.34914  0.78795  1
 V  V2  1  0.82022  0.17315  0.28328  1
 V  V3  1  0.35290  0.17315  0.28327  1
