CIF file written using JARVIS-Tools package.
data_RbIn6Au4
_symmetry_space_group_name_H-M  'P-6m2'
_cell_length_a       8.27078
_cell_length_b       8.27078
_cell_length_c       4.55952
_cell_angle_alpha    90
_cell_angle_beta     90
_cell_angle_gamma    120

_symmetry_Int_Tables_number  187
_chemical_formula_structural  RbIn6Au4
_chemical_formula_sum  RbIn6Au4
_cell_volume  270.110922515532
_cell_formula_units_Z  1
loop_
  _symmetry_equiv_pos_site_id
 _symmetry_equiv_pos_as_xyz
 1  'x, y, z'
loop_
 _atom_site_type_symbol
 _atom_site_label
 _atom_site_symmetry_multiplicity
 _atom_site_fract_x
 _atom_site_fract_y
 _atom_site_fract_z
 _atom_site_fract_occupancy
 Au  Au1  1  0.66667  0.33333  0.00000  1
 Au  Au2  1  0.59219  0.79610  0.50000  1
 Au  Au3  1  0.20390  0.40781  0.50000  1
 Au  Au4  1  0.20390  0.79610  0.50000  1
 In  In1  1  0.39363  0.19681  0.50000  1
 In  In2  1  0.80319  0.60637  0.50000  1
 In  In3  1  0.80319  0.19681  0.50000  1
 In  In4  1  0.07053  0.53527  0.00000  1
 In  In5  1  0.46473  0.92947  0.00000  1
 In  In6  1  0.46473  0.53527  0.00000  1
 Rb  Rb1  1  0.00000  0.00000  0.00000  1
