CIF file written using JARVIS-Tools package.
data_YbCu4Au
_symmetry_space_group_name_H-M  'F-43m'
_cell_length_a       4.99968
_cell_length_b       4.99968
_cell_length_c       4.99968
_cell_angle_alpha    60
_cell_angle_beta     60
_cell_angle_gamma    60

_symmetry_Int_Tables_number  216
_chemical_formula_structural  YbCu4Au
_chemical_formula_sum  YbCu4Au
_cell_volume  88.3717815384753
_cell_formula_units_Z  1
loop_
  _symmetry_equiv_pos_site_id
 _symmetry_equiv_pos_as_xyz
 1  'x, y, z'
loop_
 _atom_site_type_symbol
 _atom_site_label
 _atom_site_symmetry_multiplicity
 _atom_site_fract_x
 _atom_site_fract_y
 _atom_site_fract_z
 _atom_site_fract_occupancy
 Au  Au1  1  0.25000  0.25000  0.25000  1
 Cu  Cu1  1  0.62479  0.12564  0.62479  1
 Cu  Cu2  1  0.12564  0.62479  0.62479  1
 Cu  Cu3  1  0.62479  0.62479  0.62479  1
 Cu  Cu4  1  0.62479  0.62479  0.12564  1
 Yb  Yb1  1  0.00000  0.00000  0.00000  1
