CIF file written using JARVIS-Tools package.
data_DyP2Pt8
_symmetry_space_group_name_H-M  'C2/m'
_cell_length_a       4.0383
_cell_length_b       6.34588
_cell_length_c       7.79486
_cell_angle_alpha    83.2881
_cell_angle_beta     74.9884
_cell_angle_gamma    71.4468

_symmetry_Int_Tables_number  12
_chemical_formula_structural  DyP2Pt8
_chemical_formula_sum  DyP2Pt8
_cell_volume  182.78184179945492
_cell_formula_units_Z  1
loop_
  _symmetry_equiv_pos_site_id
 _symmetry_equiv_pos_as_xyz
 1  'x, y, z'
loop_
 _atom_site_type_symbol
 _atom_site_label
 _atom_site_symmetry_multiplicity
 _atom_site_fract_x
 _atom_site_fract_y
 _atom_site_fract_z
 _atom_site_fract_occupancy
 Dy  Dy1  1  0.50000  0.50000  0.50000  1
 P  P1  1  0.05814  0.17319  0.71056  1
 P  P2  1  0.94186  0.82681  0.28944  1
 Pt  Pt1  1  0.21767  0.14790  0.41674  1
 Pt  Pt2  1  0.82305  0.50937  0.84457  1
 Pt  Pt3  1  0.17695  0.49063  0.15543  1
 Pt  Pt4  1  0.16835  0.81718  0.84615  1
 Pt  Pt5  1  0.47519  0.17887  0.87079  1
 Pt  Pt6  1  0.52481  0.82113  0.12921  1
 Pt  Pt7  1  0.78233  0.85210  0.58326  1
 Pt  Pt8  1  0.83165  0.18282  0.15385  1
