CIF file written using JARVIS-Tools package.
data_Li6Co6O5F11
_symmetry_space_group_name_H-M  'Cm'
_cell_length_a       5.81288
_cell_length_b       5.86927
_cell_length_c       10.3428
_cell_angle_alpha    89.5837
_cell_angle_beta     106.324
_cell_angle_gamma    119.681

_symmetry_Int_Tables_number  8
_chemical_formula_structural  Li6Co6O5F11
_chemical_formula_sum  Li6Co6O5F
_cell_volume  290.50721309049345
_cell_formula_units_Z  1
loop_
  _symmetry_equiv_pos_site_id
 _symmetry_equiv_pos_as_xyz
 1  'x, y, z'
loop_
 _atom_site_type_symbol
 _atom_site_label
 _atom_site_symmetry_multiplicity
 _atom_site_fract_x
 _atom_site_fract_y
 _atom_site_fract_z
 _atom_site_fract_occupancy
 Co  Co1  1  0.59651  0.57045  0.18471  1
 Co  Co2  1  0.15876  0.57045  0.18472  1
 Co  Co3  1  0.16430  0.08121  0.68929  1
 Co  Co4  1  0.60451  0.52142  0.68775  1
 Co  Co5  1  0.61770  0.30546  0.92999  1
 Co  Co6  1  0.60607  0.08120  0.68929  1
 F  F1  1  0.39709  0.70085  0.57098  1
 F  F2  1  0.87265  0.17620  0.56923  1
 F  F3  1  0.87463  0.70084  0.57100  1
 F  F4  1  0.86426  0.19986  0.06118  1
 F  F5  1  0.85068  0.92444  0.31098  1
 F  F6  1  0.38495  0.92445  0.31099  1
 F  F7  1  0.38570  0.44621  0.32499  1
 F  F8  1  0.85783  0.66057  0.05505  1
 F  F9  1  0.86823  0.44686  0.28946  1
 F  F10  1  0.86031  0.92761  0.79313  1
 F  F11  1  0.39679  0.19984  0.06118  1
 Li  Li1  1  0.25497  0.62808  0.88198  1
 Li  Li2  1  -0.00751  -0.00255  0.98756  1
 Li  Li3  1  0.62707  0.06269  0.19129  1
 Li  Li4  1  0.23817  0.10372  0.37243  1
 Li  Li5  1  -0.00244  0.50110  0.49412  1
 Li  Li6  1  0.63654  0.82955  0.44339  1
 O  O1  1  0.39765  0.97438  0.82101  1
 O  O2  1  0.84304  0.41775  0.81857  1
 O  O3  1  0.37486  0.18713  0.56275  1
 O  O4  1  0.39319  0.41776  0.81858  1
 O  O5  1  0.38347  0.69247  0.07442  1
