CIF file written using JARVIS-Tools package.
data_MgB2H8
_symmetry_space_group_name_H-M  'I-4m2'
_cell_length_a       7.55625
_cell_length_b       7.55625
_cell_length_c       7.55625
_cell_angle_alpha    113.851
_cell_angle_beta     113.851
_cell_angle_gamma    101.028

_symmetry_Int_Tables_number  119
_chemical_formula_structural  MgB2H8
_chemical_formula_sum  Mg2B4H6
_cell_volume  326.8266294116779
_cell_formula_units_Z  2
loop_
  _symmetry_equiv_pos_site_id
 _symmetry_equiv_pos_as_xyz
 1  'x, y, z'
loop_
 _atom_site_type_symbol
 _atom_site_label
 _atom_site_symmetry_multiplicity
 _atom_site_fract_x
 _atom_site_fract_y
 _atom_site_fract_z
 _atom_site_fract_occupancy
 B  B1  1  0.84455  0.07332  0.22877  1
 B  B2  1  0.38423  0.15545  0.22877  1
 B  B3  1  0.92668  0.15545  0.77123  1
 B  B4  1  0.84455  0.61577  0.77123  1
 H  H1  1  0.28419  0.00310  0.03024  1
 H  H2  1  0.02995  0.28128  0.74867  1
 H  H3  1  0.71872  0.46738  0.74867  1
 H  H4  1  0.71872  0.97005  0.25133  1
 H  H5  1  0.73097  0.08358  0.64738  1
 H  H6  1  0.43620  0.08358  0.35262  1
 H  H7  1  0.91642  0.56380  0.64738  1
 H  H8  1  0.28419  0.25395  0.28109  1
 H  H9  1  0.91642  0.26903  0.35262  1
 H  H10  1  0.74605  0.02715  0.03024  1
 H  H11  1  0.97285  0.00310  0.71891  1
 H  H12  1  0.97285  0.25395  0.96976  1
 H  H13  1  -0.00310  0.02715  0.28109  1
 H  H14  1  0.74605  0.71581  0.71891  1
 H  H15  1  0.53262  0.28128  0.25133  1
 H  H16  1  -0.00310  0.71581  0.96976  1
 Mg  Mg1  1  0.75000  0.25000  0.50000  1
 Mg  Mg2  1  0.00000  0.00000  0.00000  1
