CIF file written using JARVIS-Tools package.
data_CrAu4
_symmetry_space_group_name_H-M  'I4/m'
_cell_length_a       5.04578
_cell_length_b       5.04578
_cell_length_c       5.04578
_cell_angle_alpha    99.3446
_cell_angle_beta     99.3446
_cell_angle_gamma    132.474

_symmetry_Int_Tables_number  87
_chemical_formula_structural  CrAu4
_chemical_formula_sum  CrAu4
_cell_volume  86.72046430520861
_cell_formula_units_Z  1
loop_
  _symmetry_equiv_pos_site_id
 _symmetry_equiv_pos_as_xyz
 1  'x, y, z'
loop_
 _atom_site_type_symbol
 _atom_site_label
 _atom_site_symmetry_multiplicity
 _atom_site_fract_x
 _atom_site_fract_y
 _atom_site_fract_z
 _atom_site_fract_occupancy
 Au  Au1  1  0.60229  0.79610  0.39839  1
 Au  Au2  1  0.39771  0.20390  0.60161  1
 Au  Au3  1  0.79610  0.39771  0.19381  1
 Au  Au4  1  0.20390  0.60229  0.80619  1
 Cr  Cr1  1  0.00000  0.00000  0.00000  1
