CIF file written using JARVIS-Tools package.
data_Li5AuO4
_symmetry_space_group_name_H-M  'C2/m'
_cell_length_a       3.50052
_cell_length_b       5.43337
_cell_length_c       5.58641
_cell_angle_alpha    80.7482
_cell_angle_beta     71.7982
_cell_angle_gamma    71.2201

_symmetry_Int_Tables_number  12
_chemical_formula_structural  Li5AuO4
_chemical_formula_sum  Li5AuO4
_cell_volume  95.34690028891268
_cell_formula_units_Z  1
loop_
  _symmetry_equiv_pos_site_id
 _symmetry_equiv_pos_as_xyz
 1  'x, y, z'
loop_
 _atom_site_type_symbol
 _atom_site_label
 _atom_site_symmetry_multiplicity
 _atom_site_fract_x
 _atom_site_fract_y
 _atom_site_fract_z
 _atom_site_fract_occupancy
 Au  Au1  1  0.50000  0.50000  0.50000  1
 Li  Li1  1  0.00000  0.00000  0.00000  1
 Li  Li2  1  0.81606  0.97998  0.38769  1
 Li  Li3  1  0.68270  0.65729  0.97724  1
 Li  Li4  1  0.31730  0.34271  0.02276  1
 Li  Li5  1  0.18394  0.02002  0.61231  1
 O  O1  1  0.75753  0.31250  0.17288  1
 O  O2  1  0.57335  0.14694  0.70692  1
 O  O3  1  0.42665  0.85306  0.29308  1
 O  O4  1  0.24247  0.68750  0.82712  1
