CIF file written using JARVIS-Tools package.
data_Cr2H24I3N9
_symmetry_space_group_name_H-M  'P6_3/mmc'
_cell_length_a       7.60698
_cell_length_b       7.60705
_cell_length_c       17.3622
_cell_angle_alpha    90
_cell_angle_beta     90
_cell_angle_gamma    120

_symmetry_Int_Tables_number  194
_chemical_formula_structural  Cr2H24I3N9
_chemical_formula_sum  Cr4H48I6N8
_cell_volume  870.0917466860421
_cell_formula_units_Z  2
loop_
  _symmetry_equiv_pos_site_id
 _symmetry_equiv_pos_as_xyz
 1  'x, y, z'
loop_
 _atom_site_type_symbol
 _atom_site_label
 _atom_site_symmetry_multiplicity
 _atom_site_fract_x
 _atom_site_fract_y
 _atom_site_fract_z
 _atom_site_fract_occupancy
 Cr  Cr1  1  0.33334  0.66667  0.32920  1
 Cr  Cr2  1  0.66666  0.33333  0.67080  1
 Cr  Cr3  1  0.66666  0.33333  0.82920  1
 Cr  Cr4  1  0.33334  0.66667  0.17080  1
 H  H1  1  0.60300  0.98692  0.25000  1
 H  H2  1  0.01307  0.61608  0.25000  1
 H  H3  1  0.60301  0.61608  0.25000  1
 H  H4  1  0.01307  0.39700  0.25000  1
 H  H5  1  0.38392  0.98692  0.25000  1
 H  H6  1  0.61608  0.60300  0.75000  1
 H  H7  1  0.39700  0.01308  0.75000  1
 H  H8  1  0.39699  0.38392  0.75000  1
 H  H9  1  0.98693  0.60300  0.75000  1
 H  H10  1  0.38392  0.39700  0.25000  1
 H  H11  1  0.22105  0.44209  0.45880  1
 H  H12  1  0.55791  0.77895  0.04120  1
 H  H13  1  0.61608  0.01308  0.75000  1
 H  H14  1  0.55791  0.77895  0.45880  1
 H  H15  1  0.77897  0.22105  0.54120  1
 H  H16  1  0.77895  0.55791  0.54120  1
 H  H17  1  0.44209  0.22105  0.54120  1
 H  H18  1  0.77897  0.22105  0.95880  1
 H  H19  1  0.77895  0.55791  0.95880  1
 H  H20  1  0.44209  0.22105  0.95880  1
 H  H21  1  0.22103  0.77895  0.04120  1
 H  H22  1  0.22103  0.77895  0.45880  1
 H  H23  1  0.22105  0.44209  0.04120  1
 H  H24  1  0.98693  0.38392  0.75000  1
 H  H25  1  0.26867  0.95093  0.39011  1
 H  H26  1  0.95093  0.26864  0.60990  1
 H  H27  1  0.04907  0.73136  0.39010  1
 H  H28  1  0.68227  0.95093  0.39011  1
 H  H29  1  0.26866  0.31773  0.39011  1
 H  H30  1  0.73133  0.04907  0.60989  1
 H  H31  1  0.95093  0.68227  0.60989  1
 H  H32  1  0.31771  0.26864  0.60990  1
 H  H33  1  0.31773  0.04907  0.60989  1
 H  H34  1  0.73134  0.68227  0.60989  1
 H  H35  1  0.73133  0.04907  0.89011  1
 H  H36  1  0.31771  0.26864  0.89010  1
 H  H37  1  0.68229  0.73136  0.39010  1
 H  H38  1  0.95093  0.26864  0.89010  1
 H  H39  1  0.31773  0.04907  0.89011  1
 H  H40  1  0.04907  0.31773  0.39011  1
 H  H41  1  0.73134  0.68227  0.89011  1
 H  H42  1  0.26867  0.95093  0.10989  1
 H  H43  1  0.04907  0.31773  0.10989  1
 H  H44  1  0.68229  0.73136  0.10990  1
 H  H45  1  0.04907  0.73136  0.10990  1
 H  H46  1  0.68227  0.95093  0.10989  1
 H  H47  1  0.26866  0.31773  0.10989  1
 H  H48  1  0.95093  0.68227  0.89011  1
 I  I1  1  0.33333  0.66667  0.90569  1
 I  I2  1  0.00000  0.00000  0.25000  1
 I  I3  1  -0.00000  -0.00000  0.75000  1
 I  I4  1  0.66667  0.33333  0.40569  1
 I  I5  1  0.33333  0.66667  0.59431  1
 I  I6  1  0.66667  0.33333  0.09431  1
 N  N1  1  0.20222  0.79778  0.40101  1
 N  N2  1  0.20222  0.40444  0.09899  1
 N  N3  1  0.44761  0.89523  0.25000  1
 N  N4  1  0.10477  0.55239  0.25000  1
 N  N5  1  0.55238  0.44761  0.75000  1
 N  N6  1  0.55239  0.10477  0.75000  1
 N  N7  1  0.89523  0.44761  0.75000  1
 N  N8  1  0.44762  0.55239  0.25000  1
 N  N9  1  0.79778  0.20222  0.59899  1
 N  N10  1  0.79778  0.59556  0.59899  1
 N  N11  1  0.40444  0.20222  0.59899  1
 N  N12  1  0.79778  0.20222  0.90101  1
 N  N13  1  0.79778  0.59556  0.90101  1
 N  N14  1  0.40444  0.20222  0.90101  1
 N  N15  1  0.20222  0.79778  0.09899  1
 N  N16  1  0.20222  0.40444  0.40101  1
 N  N17  1  0.59556  0.79778  0.40101  1
 N  N18  1  0.59556  0.79778  0.09899  1
