CIF file written using JARVIS-Tools package.
data_Tl3BS3
_symmetry_space_group_name_H-M  'P2_1/m'
_cell_length_a       5.51812
_cell_length_b       6.67484
_cell_length_c       9.8175
_cell_angle_alpha    90
_cell_angle_beta     90
_cell_angle_gamma    97.6771

_symmetry_Int_Tables_number  11
_chemical_formula_structural  Tl3BS3
_chemical_formula_sum  Tl6B2S6
_cell_volume  358.3628310531369
_cell_formula_units_Z  2
loop_
  _symmetry_equiv_pos_site_id
 _symmetry_equiv_pos_as_xyz
 1  'x, y, z'
loop_
 _atom_site_type_symbol
 _atom_site_label
 _atom_site_symmetry_multiplicity
 _atom_site_fract_x
 _atom_site_fract_y
 _atom_site_fract_z
 _atom_site_fract_occupancy
 B  B1  1  0.38946  0.25928  0.25000  1
 B  B2  1  0.61054  0.74072  0.75000  1
 S  S1  1  0.75120  0.82692  0.58836  1
 S  S2  1  0.24880  0.17308  0.08836  1
 S  S3  1  0.24880  0.17308  0.41164  1
 S  S4  1  0.75120  0.82692  0.91164  1
 S  S5  1  0.32507  0.56739  0.75000  1
 S  S6  1  0.67493  0.43261  0.25000  1
 Tl  Tl1  1  0.27097  0.67206  0.05448  1
 Tl  Tl2  1  0.72903  0.32794  0.55448  1
 Tl  Tl3  1  0.72903  0.32794  0.94552  1
 Tl  Tl4  1  0.27097  0.67206  0.44552  1
 Tl  Tl5  1  0.81871  0.97520  0.25000  1
 Tl  Tl6  1  0.18129  0.02480  0.75000  1
