CIF file written using JARVIS-Tools package.
data_SrH16O10
_symmetry_space_group_name_H-M  'C2/c'
_cell_length_a       6.30493
_cell_length_b       6.30493
_cell_length_c       11.0281
_cell_angle_alpha    89.3173
_cell_angle_beta     89.3173
_cell_angle_gamma    89.9405

_symmetry_Int_Tables_number  15
_chemical_formula_structural  SrH16O10
_chemical_formula_sum  Sr2H32O20
_cell_volume  438.3291867372766
_cell_formula_units_Z  2
loop_
  _symmetry_equiv_pos_site_id
 _symmetry_equiv_pos_as_xyz
 1  'x, y, z'
loop_
 _atom_site_type_symbol
 _atom_site_label
 _atom_site_symmetry_multiplicity
 _atom_site_fract_x
 _atom_site_fract_y
 _atom_site_fract_z
 _atom_site_fract_occupancy
 H  H1  1  0.85938  0.68571  0.46945  1
 H  H2  1  0.38791  0.27052  0.85301  1
 H  H3  1  0.45030  0.02572  0.87068  1
 H  H4  1  0.27454  0.60648  0.85336  1
 H  H5  1  0.02942  0.54521  0.87072  1
 H  H6  1  0.86194  0.31041  0.97088  1
 H  H7  1  0.72170  0.38512  0.85665  1
 H  H8  1  0.31041  0.86194  0.47088  1
 H  H9  1  0.38512  0.72170  0.35665  1
 H  H10  1  0.54521  0.02942  0.37072  1
 H  H11  1  0.60648  0.27454  0.35336  1
 H  H12  1  0.71702  0.60892  0.35700  1
 H  H13  1  0.27052  0.38791  0.35301  1
 H  H14  1  0.68571  0.85938  0.96945  1
 H  H15  1  0.60892  0.71702  0.85700  1
 H  H16  1  0.27773  0.61437  0.14591  1
 H  H17  1  0.02572  0.45030  0.37068  1
 H  H18  1  0.97380  0.54911  0.63184  1
 H  H19  1  0.28250  0.39047  0.64551  1
 H  H20  1  0.14014  0.31369  0.53306  1
 H  H21  1  0.39301  0.72488  0.64917  1
 H  H22  1  0.72902  0.61149  0.64952  1
 H  H23  1  0.61437  0.27773  0.64591  1
 H  H24  1  0.68905  0.13748  0.53167  1
 H  H25  1  0.13748  0.68905  0.03167  1
 H  H26  1  0.45427  0.97000  0.63183  1
 H  H27  1  0.72488  0.39301  0.14917  1
 H  H28  1  0.54911  0.97380  0.13184  1
 H  H29  1  0.61149  0.72902  0.14952  1
 H  H30  1  0.39047  0.28250  0.14551  1
 H  H31  1  0.31369  0.14014  0.03306  1
 H  H32  1  0.97000  0.45427  0.13183  1
 O  O1  1  0.49515  0.49770  0.31911  1
 O  O2  1  0.49770  0.49515  0.81911  1
 O  O3  1  0.67263  0.87359  0.12579  1
 O  O4  1  0.50436  0.50173  0.68342  1
 O  O5  1  0.50173  0.50436  0.18342  1
 O  O6  1  0.12594  0.32678  0.37672  1
 O  O7  1  0.86063  0.67019  0.37895  1
 O  O8  1  0.66790  0.12999  0.37617  1
 O  O9  1  0.32342  0.86502  0.37999  1
 O  O10  1  0.12999  0.66790  0.87617  1
 O  O11  1  0.32921  0.13890  0.12356  1
 O  O12  1  0.67019  0.86063  0.87895  1
 O  O13  1  0.87359  0.67263  0.62579  1
 O  O14  1  0.13890  0.32921  0.62356  1
 O  O15  1  0.33157  0.86943  0.62639  1
 O  O16  1  0.67605  0.13440  0.62256  1
 O  O17  1  0.13440  0.67605  0.12256  1
 O  O18  1  0.32678  0.12594  0.87672  1
 O  O19  1  0.86502  0.32342  0.87999  1
 O  O20  1  0.86943  0.33157  0.12639  1
 Sr  Sr1  1  -0.00136  0.00081  0.75127  1
 Sr  Sr2  1  0.00081  -0.00136  0.25127  1
