CIF file written using JARVIS-Tools package.
data_H3AuC2NCl
_symmetry_space_group_name_H-M  'P2_1/m'
_cell_length_a       4.04017
_cell_length_b       6.1879
_cell_length_c       9.05892
_cell_angle_alpha    90
_cell_angle_beta     93.286
_cell_angle_gamma    90

_symmetry_Int_Tables_number  11
_chemical_formula_structural  H3AuC2NCl
_chemical_formula_sum  H6Au2C4N2Cl2
_cell_volume  226.1021807710729
_cell_formula_units_Z  2
loop_
  _symmetry_equiv_pos_site_id
 _symmetry_equiv_pos_as_xyz
 1  'x, y, z'
loop_
 _atom_site_type_symbol
 _atom_site_label
 _atom_site_symmetry_multiplicity
 _atom_site_fract_x
 _atom_site_fract_y
 _atom_site_fract_z
 _atom_site_fract_occupancy
 Au  Au1  1  0.13893  0.70676  0.58492  1
 Au  Au2  1  0.86107  0.20676  0.41508  1
 C  C1  1  0.67709  0.20676  0.60593  1
 C  C2  1  0.32291  0.70676  0.39407  1
 C  C3  1  0.43462  0.20676  0.86307  1
 C  C4  1  0.56538  0.70676  0.13693  1
 Cl  Cl1  1  0.07924  0.20676  0.18696  1
 Cl  Cl2  1  0.92076  0.70676  0.81304  1
 H  H1  1  0.71862  0.56090  0.12675  1
 H  H2  1  0.36389  0.70660  0.04985  1
 H  H3  1  0.28180  0.35280  0.87333  1
 H  H4  1  0.28138  0.06090  0.87325  1
 H  H5  1  0.63611  0.20660  0.95015  1
 H  H6  1  0.71820  0.85280  0.12667  1
 N  N1  1  0.43006  0.70676  0.27748  1
 N  N2  1  0.56994  0.20676  0.72252  1
