CIF file written using JARVIS-Tools package.
data_CuSb2Xe4F20
_symmetry_space_group_name_H-M  'I-4'
_cell_length_a       8.37227
_cell_length_b       8.77735
_cell_length_c       8.77735
_cell_angle_alpha    76.8526
_cell_angle_beta     61.5152
_cell_angle_gamma    61.5153

_symmetry_Int_Tables_number  82
_chemical_formula_structural  CuSb2Xe4F20
_chemical_formula_sum  CuSb2Xe4F20
_cell_volume  498.3014590991688
_cell_formula_units_Z  1
loop_
  _symmetry_equiv_pos_site_id
 _symmetry_equiv_pos_as_xyz
 1  'x, y, z'
loop_
 _atom_site_type_symbol
 _atom_site_label
 _atom_site_symmetry_multiplicity
 _atom_site_fract_x
 _atom_site_fract_y
 _atom_site_fract_z
 _atom_site_fract_occupancy
 Cu  Cu1  1  0.50000  0.00000  0.00000  1
 F  F1  1  0.65346  0.85186  0.79967  1
 F  F2  1  0.60517  0.53093  0.74690  1
 F  F3  1  0.95116  0.63238  0.89754  1
 F  F4  1  0.64793  0.74690  0.46907  1
 F  F5  1  0.06428  0.77470  0.10512  1
 F  F6  1  0.86390  0.25310  0.53093  1
 F  F7  1  0.83061  0.10512  0.22530  1
 F  F8  1  0.48109  0.36762  0.10246  1
 F  F9  1  0.41646  0.10246  0.63238  1
 F  F10  1  0.94409  0.22530  0.89488  1
 F  F11  1  0.51934  0.50000  0.50000  1
 F  F12  1  0.98066  0.50000  0.50000  1
 F  F13  1  0.54687  0.79967  0.14814  1
 F  F14  1  0.49468  0.20033  0.85186  1
 F  F15  1  0.16102  0.89488  0.77470  1
 F  F16  1  0.15129  0.89754  0.36762  1
 F  F17  1  0.30499  0.14814  0.20033  1
 F  F18  1  0.88300  0.46907  0.25310  1
 F  F19  1  0.76817  -0.00000  -0.00000  1
 F  F20  1  0.23183  0.00000  0.00000  1
 Sb  Sb1  1  0.00000  0.00000  0.00000  1
 Sb  Sb2  1  0.75000  0.50000  0.50000  1
 Xe  Xe1  1  0.52022  0.57335  0.11969  1
 Xe  Xe2  1  0.36009  0.11969  0.42665  1
 Xe  Xe3  1  0.21326  0.42665  0.88031  1
 Xe  Xe4  1  0.90643  0.88031  0.57335  1
