CIF file written using JARVIS-Tools package.
data_UTeAs
_symmetry_space_group_name_H-M  'I4/mmm'
_cell_length_a       4.17783
_cell_length_b       4.17782
_cell_length_c       9.13183
_cell_angle_alpha    103.224
_cell_angle_beta     103.224
_cell_angle_gamma    90

_symmetry_Int_Tables_number  139
_chemical_formula_structural  UTeAs
_chemical_formula_sum  U2Te2As2
_cell_volume  150.81831478956585
_cell_formula_units_Z  2
loop_
  _symmetry_equiv_pos_site_id
 _symmetry_equiv_pos_as_xyz
 1  'x, y, z'
loop_
 _atom_site_type_symbol
 _atom_site_label
 _atom_site_symmetry_multiplicity
 _atom_site_fract_x
 _atom_site_fract_y
 _atom_site_fract_z
 _atom_site_fract_occupancy
 As  As1  1  0.50000  0.00000  0.00000  1
 As  As2  1  -0.00000  0.50000  0.00000  1
 Te  Te1  1  0.31349  0.31349  0.62698  1
 Te  Te2  1  0.68651  0.68651  0.37302  1
 U  U1  1  0.11883  0.11883  0.23766  1
 U  U2  1  0.88117  0.88117  0.76234  1
