CIF file written using JARVIS-Tools package.
data_Li3SbS4
_symmetry_space_group_name_H-M  'P2/c'
_cell_length_a       6.36624
_cell_length_b       7.45692
_cell_length_c       6.43483
_cell_angle_alpha    90
_cell_angle_beta     109.389
_cell_angle_gamma    90

_symmetry_Int_Tables_number  13
_chemical_formula_structural  Li3SbS4
_chemical_formula_sum  Li6Sb2S8
_cell_volume  288.153012760257
_cell_formula_units_Z  2
loop_
  _symmetry_equiv_pos_site_id
 _symmetry_equiv_pos_as_xyz
 1  'x, y, z'
loop_
 _atom_site_type_symbol
 _atom_site_label
 _atom_site_symmetry_multiplicity
 _atom_site_fract_x
 _atom_site_fract_y
 _atom_site_fract_z
 _atom_site_fract_occupancy
 Li  Li1  1  0.25000  0.61283  -0.00000  1
 Li  Li2  1  0.75000  0.38717  -0.00000  1
 Li  Li3  1  0.25000  0.38278  0.50000  1
 Li  Li4  1  0.25000  0.85235  0.50000  1
 Li  Li5  1  0.75000  0.61722  0.50000  1
 Li  Li6  1  0.75000  0.14765  0.50000  1
 S  S1  1  0.01867  0.36621  0.74636  1
 S  S2  1  0.49960  0.11249  0.76191  1
 S  S3  1  0.51867  0.63379  0.74636  1
 S  S4  1  -0.00040  0.88751  0.76191  1
 S  S5  1  0.00040  0.11249  0.23809  1
 S  S6  1  0.48133  0.36621  0.25364  1
 S  S7  1  0.50040  0.88751  0.23809  1
 S  S8  1  0.98133  0.63379  0.25364  1
 Sb  Sb1  1  0.25000  0.13952  -0.00000  1
 Sb  Sb2  1  0.75000  0.86048  -0.00000  1
