CIF file written using JARVIS-Tools package.
data_Dy2B4C
_symmetry_space_group_name_H-M  'Immm'
_cell_length_a       3.27313
_cell_length_b       5.26971
_cell_length_c       5.2697
_cell_angle_alpha    76.9515
_cell_angle_beta     71.907
_cell_angle_gamma    71.9069

_symmetry_Int_Tables_number  71
_chemical_formula_structural  Dy2B4C
_chemical_formula_sum  Dy2B4C
_cell_volume  81.2819682744849
_cell_formula_units_Z  1
loop_
  _symmetry_equiv_pos_site_id
 _symmetry_equiv_pos_as_xyz
 1  'x, y, z'
loop_
 _atom_site_type_symbol
 _atom_site_label
 _atom_site_symmetry_multiplicity
 _atom_site_fract_x
 _atom_site_fract_y
 _atom_site_fract_z
 _atom_site_fract_occupancy
 B  B1  1  -0.00000  0.36565  0.63435  1
 B  B2  1  0.50000  0.77292  0.22708  1
 B  B3  1  0.00000  0.63435  0.36565  1
 B  B4  1  0.50000  0.22708  0.77292  1
 C  C1  1  0.50000  0.00000  -0.00000  1
 Dy  Dy1  1  0.76557  0.23443  0.23443  1
 Dy  Dy2  1  0.23443  0.76557  0.76557  1
