CIF file written using JARVIS-Tools package.
data_GaSi3C3N
_symmetry_space_group_name_H-M  'Pm'
_cell_length_a       3.11464
_cell_length_b       5.11525
_cell_length_c       5.40485
_cell_angle_alpha    89.7798
_cell_angle_beta     90
_cell_angle_gamma    90

_symmetry_Int_Tables_number  6
_chemical_formula_structural  GaSi3C3N
_chemical_formula_sum  GaSi3C3N
_cell_volume  86.11038803141987
_cell_formula_units_Z  1
loop_
  _symmetry_equiv_pos_site_id
 _symmetry_equiv_pos_as_xyz
 1  'x, y, z'
loop_
 _atom_site_type_symbol
 _atom_site_label
 _atom_site_symmetry_multiplicity
 _atom_site_fract_x
 _atom_site_fract_y
 _atom_site_fract_z
 _atom_site_fract_occupancy
 C  C1  1  0.50000  0.90394  0.83047  1
 C  C2  1  0.50000  0.37062  0.18472  1
 C  C3  1  0.00000  0.87165  0.33542  1
 Ga  Ga1  1  0.50000  0.50900  0.83728  1
 N  N1  1  0.00000  0.36577  0.64573  1
 Si  Si1  1  0.00000  0.00815  0.66269  1
 Si  Si2  1  0.00000  0.49760  0.33481  1
 Si  Si3  1  0.50000  0.00137  0.16887  1
