CIF file written using JARVIS-Tools package.
data_NiPW
_symmetry_space_group_name_H-M  'P-62m'
_cell_length_a       3.81732
_cell_length_b       5.8494
_cell_length_c       5.84946
_cell_angle_alpha    120
_cell_angle_beta     90
_cell_angle_gamma    90

_symmetry_Int_Tables_number  189
_chemical_formula_structural  NiPW
_chemical_formula_sum  Ni3P3W3
_cell_volume  113.11417731648592
_cell_formula_units_Z  3
loop_
  _symmetry_equiv_pos_site_id
 _symmetry_equiv_pos_as_xyz
 1  'x, y, z'
loop_
 _atom_site_type_symbol
 _atom_site_label
 _atom_site_symmetry_multiplicity
 _atom_site_fract_x
 _atom_site_fract_y
 _atom_site_fract_z
 _atom_site_fract_occupancy
 Ni  Ni1  1  0.00000  0.25365  0.00000  1
 Ni  Ni2  1  0.00000  0.74632  0.74632  1
 Ni  Ni3  1  0.00000  -0.00001  0.25368  1
 P  P1  1  0.00000  0.33332  0.66667  1
 P  P2  1  0.00000  0.66665  0.33333  1
 P  P3  1  0.50000  -0.00001  0.00000  1
 W  W1  1  0.50000  0.58593  -0.00000  1
 W  W2  1  0.50000  0.41405  0.41406  1
 W  W3  1  0.50000  -0.00000  0.58594  1
