CIF file written using JARVIS-Tools package.
data_Li5SbS4
_symmetry_space_group_name_H-M  'Cmc2_1'
_cell_length_a       7.2596
_cell_length_b       7.2596
_cell_length_c       7.81149
_cell_angle_alpha    90
_cell_angle_beta     90
_cell_angle_gamma    62.4421

_symmetry_Int_Tables_number  36
_chemical_formula_structural  Li5SbS4
_chemical_formula_sum  Li0Sb2S8
_cell_volume  364.9720005805836
_cell_formula_units_Z  2
loop_
  _symmetry_equiv_pos_site_id
 _symmetry_equiv_pos_as_xyz
 1  'x, y, z'
loop_
 _atom_site_type_symbol
 _atom_site_label
 _atom_site_symmetry_multiplicity
 _atom_site_fract_x
 _atom_site_fract_y
 _atom_site_fract_z
 _atom_site_fract_occupancy
 Li  Li1  1  0.24710  0.88213  0.30747  1
 Li  Li2  1  0.11787  0.75290  0.80747  1
 Li  Li3  1  0.42053  0.84158  0.01585  1
 Li  Li4  1  0.15842  0.57947  0.51585  1
 Li  Li5  1  0.88213  0.24710  0.30747  1
 Li  Li6  1  0.13387  0.13387  0.71518  1
 Li  Li7  1  0.57947  0.15842  0.51585  1
 Li  Li8  1  0.84158  0.42053  0.01585  1
 Li  Li9  1  0.75290  0.11787  0.80747  1
 Li  Li10  1  0.86613  0.86613  0.21518  1
 S  S1  1  0.52112  0.52112  0.21045  1
 S  S2  1  0.49940  0.01610  0.26397  1
 S  S3  1  0.50060  0.98390  0.76397  1
 S  S4  1  0.01610  0.49940  0.26397  1
 S  S5  1  0.02247  0.02247  0.02606  1
 S  S6  1  0.97753  0.97753  0.52606  1
 S  S7  1  0.47888  0.47888  0.71045  1
 S  S8  1  0.98390  0.50060  0.76397  1
 Sb  Sb1  1  0.33608  0.33608  0.08943  1
 Sb  Sb2  1  0.66392  0.66392  0.58943  1
