CIF file written using JARVIS-Tools package.
data_Li2FeSi2O6
_symmetry_space_group_name_H-M  'P2_1'
_cell_length_a       5.35198
_cell_length_b       4.74783
_cell_length_c       9.71152
_cell_angle_alpha    90
_cell_angle_beta     94.4414
_cell_angle_gamma    90

_symmetry_Int_Tables_number  4
_chemical_formula_structural  Li2FeSi2O6
_chemical_formula_sum  Li4Fe2Si4O2
_cell_volume  246.03147073432933
_cell_formula_units_Z  2
loop_
  _symmetry_equiv_pos_site_id
 _symmetry_equiv_pos_as_xyz
 1  'x, y, z'
loop_
 _atom_site_type_symbol
 _atom_site_label
 _atom_site_symmetry_multiplicity
 _atom_site_fract_x
 _atom_site_fract_y
 _atom_site_fract_z
 _atom_site_fract_occupancy
 Fe  Fe1  1  0.73175  0.69269  0.13796  1
 Fe  Fe2  1  0.26825  0.19269  0.86204  1
 Li  Li1  1  0.64892  0.19802  0.33625  1
 Li  Li2  1  0.83976  0.69920  0.48790  1
 Li  Li3  1  0.16024  0.19920  0.51210  1
 Li  Li4  1  0.35108  0.69802  0.66375  1
 O  O1  1  0.17470  0.79818  0.81523  1
 O  O2  1  0.82530  0.29818  0.18477  1
 O  O3  1  0.12852  0.86169  0.21358  1
 O  O4  1  0.27865  0.35505  0.31890  1
 O  O5  1  0.25977  0.29702  0.04648  1
 O  O6  1  0.19658  0.79016  0.48613  1
 O  O7  1  0.80342  0.29016  0.51387  1
 O  O8  1  0.87148  0.36169  0.78642  1
 O  O9  1  0.72135  0.85505  0.68110  1
 O  O10  1  0.59978  0.78868  0.32667  1
 O  O11  1  0.40022  0.28868  0.67333  1
 O  O12  1  0.74023  0.79702  0.95352  1
 Si  Si1  1  0.88494  0.70850  0.82208  1
 Si  Si2  1  0.69323  0.20653  0.65833  1
 Si  Si3  1  0.30677  0.70653  0.34167  1
 Si  Si4  1  0.11506  0.20850  0.17792  1
