CIF file written using JARVIS-Tools package.
data_Ta2PdS6
_symmetry_space_group_name_H-M  'C2/m'
_cell_length_a       3.28959
_cell_length_b       6.20845
_cell_length_c       9.34222
_cell_angle_alpha    77.8575
_cell_angle_beta     79.8596
_cell_angle_gamma    74.6373

_symmetry_Int_Tables_number  12
_chemical_formula_structural  Ta2PdS6
_chemical_formula_sum  Ta2PdS6
_cell_volume  178.39352595276748
_cell_formula_units_Z  1
loop_
  _symmetry_equiv_pos_site_id
 _symmetry_equiv_pos_as_xyz
 1  'x, y, z'
loop_
 _atom_site_type_symbol
 _atom_site_label
 _atom_site_symmetry_multiplicity
 _atom_site_fract_x
 _atom_site_fract_y
 _atom_site_fract_z
 _atom_site_fract_occupancy
 Pd  Pd1  1  0.00000  0.00000  0.00000  1
 S  S1  1  0.34001  0.77985  0.54012  1
 S  S2  1  0.98775  0.78377  0.24073  1
 S  S3  1  0.01225  0.21623  0.75927  1
 S  S4  1  0.65999  0.22015  0.45988  1
 S  S5  1  0.21813  0.69217  0.87157  1
 S  S6  1  0.78187  0.30783  0.12843  1
 Ta  Ta1  1  0.68442  0.92464  0.70653  1
 Ta  Ta2  1  0.31558  0.07536  0.29347  1
