CIF file written using JARVIS-Tools package.
data_Ti8O13
_symmetry_space_group_name_H-M  'R-3'
_cell_length_a       6.48587
_cell_length_b       6.48587
_cell_length_c       6.48587
_cell_angle_alpha    73.6738
_cell_angle_beta     73.6738
_cell_angle_gamma    73.6738

_symmetry_Int_Tables_number  148
_chemical_formula_structural  Ti8O13
_chemical_formula_sum  Ti8O3
_cell_volume  245.15469416894555
_cell_formula_units_Z  1
loop_
  _symmetry_equiv_pos_site_id
 _symmetry_equiv_pos_as_xyz
 1  'x, y, z'
loop_
 _atom_site_type_symbol
 _atom_site_label
 _atom_site_symmetry_multiplicity
 _atom_site_fract_x
 _atom_site_fract_y
 _atom_site_fract_z
 _atom_site_fract_occupancy
 O  O1  1  0.64356  0.79589  0.04106  1
 O  O2  1  0.00000  0.00000  0.00000  1
 O  O3  1  0.17103  0.25841  0.58067  1
 O  O4  1  0.95894  0.35644  0.20411  1
 O  O5  1  0.25841  0.58067  0.17103  1
 O  O6  1  0.20411  0.95894  0.35644  1
 O  O7  1  0.04106  0.64356  0.79589  1
 O  O8  1  0.58067  0.17103  0.25841  1
 O  O9  1  0.41933  0.82897  0.74159  1
 O  O10  1  0.35644  0.20411  0.95894  1
 O  O11  1  0.82897  0.74159  0.41933  1
 O  O12  1  0.74159  0.41933  0.82897  1
 O  O13  1  0.79589  0.04106  0.64356  1
 Ti  Ti1  1  0.94120  0.68315  0.12496  1
 Ti  Ti2  1  0.72283  0.72283  0.72283  1
 Ti  Ti3  1  0.68315  0.12496  0.94120  1
 Ti  Ti4  1  0.87504  0.05880  0.31685  1
 Ti  Ti5  1  0.12496  0.94120  0.68315  1
 Ti  Ti6  1  0.31685  0.87504  0.05880  1
 Ti  Ti7  1  0.27717  0.27717  0.27717  1
 Ti  Ti8  1  0.05880  0.31685  0.87504  1
