CIF file written using JARVIS-Tools package.
data_LiAlGeO4
_symmetry_space_group_name_H-M  'R-3'
_cell_length_a       8.57653
_cell_length_b       8.57653
_cell_length_c       8.57652
_cell_angle_alpha    107.795
_cell_angle_beta     107.795
_cell_angle_gamma    107.795

_symmetry_Int_Tables_number  148
_chemical_formula_structural  LiAlGeO4
_chemical_formula_sum  Li6Al6Ge6O24
_cell_volume  513.5647613219699
_cell_formula_units_Z  6
loop_
  _symmetry_equiv_pos_site_id
 _symmetry_equiv_pos_as_xyz
 1  'x, y, z'
loop_
 _atom_site_type_symbol
 _atom_site_label
 _atom_site_symmetry_multiplicity
 _atom_site_fract_x
 _atom_site_fract_y
 _atom_site_fract_z
 _atom_site_fract_occupancy
 Al  Al1  1  0.79146  0.56403  0.38541  1
 Al  Al2  1  0.38541  0.79146  0.56403  1
 Al  Al3  1  0.56403  0.38541  0.79146  1
 Al  Al4  1  0.20854  0.43597  0.61459  1
 Al  Al5  1  0.61459  0.20854  0.43597  1
 Al  Al6  1  0.43597  0.61459  0.20854  1
 Ge  Ge1  1  0.27963  0.86549  0.10642  1
 Ge  Ge2  1  0.10642  0.27963  0.86549  1
 Ge  Ge3  1  0.89358  0.72037  0.13451  1
 Ge  Ge4  1  0.86549  0.10642  0.27963  1
 Ge  Ge5  1  0.72037  0.13451  0.89358  1
 Ge  Ge6  1  0.13451  0.89358  0.72037  1
 Li  Li1  1  0.23775  0.07315  0.46875  1
 Li  Li2  1  0.07315  0.46875  0.23775  1
 Li  Li3  1  0.53125  0.76225  0.92685  1
 Li  Li4  1  0.92685  0.53125  0.76225  1
 Li  Li5  1  0.76225  0.92685  0.53125  1
 Li  Li6  1  0.46875  0.23775  0.07315  1
 O  O1  1  0.71750  0.02295  0.04258  1
 O  O2  1  0.59539  0.26010  0.92353  1
 O  O3  1  0.92353  0.59539  0.26010  1
 O  O4  1  0.37740  0.04489  0.32679  1
 O  O5  1  0.40461  0.73990  0.07647  1
 O  O6  1  0.07647  0.40461  0.73990  1
 O  O7  1  0.73990  0.07647  0.40461  1
 O  O8  1  0.28250  0.97705  0.95742  1
 O  O9  1  0.95742  0.28250  0.97705  1
 O  O10  1  0.97705  0.95742  0.28250  1
 O  O11  1  0.26010  0.92353  0.59539  1
 O  O12  1  0.67321  0.62260  0.95511  1
 O  O13  1  0.31433  0.65327  0.33521  1
 O  O14  1  0.33521  0.31433  0.65327  1
 O  O15  1  0.34673  0.66479  0.68567  1
 O  O16  1  0.68567  0.34673  0.66479  1
 O  O17  1  0.66479  0.68567  0.34673  1
 O  O18  1  0.95511  0.67321  0.62260  1
 O  O19  1  0.62260  0.95511  0.67321  1
 O  O20  1  0.04258  0.71750  0.02295  1
 O  O21  1  0.04489  0.32679  0.37740  1
 O  O22  1  0.65327  0.33521  0.31433  1
 O  O23  1  0.02295  0.04258  0.71750  1
 O  O24  1  0.32679  0.37740  0.04489  1
