CIF file written using JARVIS-Tools package.
data_SrIn3Au3
_symmetry_space_group_name_H-M  'Pmmn'
_cell_length_a       4.58813
_cell_length_b       7.92515
_cell_length_c       9.30314
_cell_angle_alpha    90
_cell_angle_beta     90
_cell_angle_gamma    90

_symmetry_Int_Tables_number  59
_chemical_formula_structural  SrIn3Au3
_chemical_formula_sum  Sr2In6Au6
_cell_volume  338.27756531388
_cell_formula_units_Z  2
loop_
  _symmetry_equiv_pos_site_id
 _symmetry_equiv_pos_as_xyz
 1  'x, y, z'
loop_
 _atom_site_type_symbol
 _atom_site_label
 _atom_site_symmetry_multiplicity
 _atom_site_fract_x
 _atom_site_fract_y
 _atom_site_fract_z
 _atom_site_fract_occupancy
 Au  Au1  1  0.25000  0.98580  0.59235  1
 Au  Au2  1  0.75000  0.01420  0.40765  1
 Au  Au3  1  0.75000  0.75000  0.95136  1
 Au  Au4  1  0.25000  0.25000  0.04864  1
 Au  Au5  1  0.75000  0.48580  0.40765  1
 Au  Au6  1  0.25000  0.51420  0.59235  1
 In  In1  1  0.25000  0.55027  0.88492  1
 In  In2  1  0.75000  0.44973  0.11508  1
 In  In3  1  0.25000  0.94973  0.88492  1
 In  In4  1  0.25000  0.25000  0.36776  1
 In  In5  1  0.75000  0.05027  0.11508  1
 In  In6  1  0.75000  0.75000  0.63224  1
 Sr  Sr1  1  0.75000  0.25000  0.72300  1
 Sr  Sr2  1  0.25000  0.75000  0.27700  1
