CIF file written using JARVIS-Tools package.
data_SiPt3
_symmetry_space_group_name_H-M  'C2/m'
_cell_length_a       5.44165
_cell_length_b       5.54669
_cell_length_c       5.5467
_cell_angle_alpha    91.3159
_cell_angle_beta     118.42
_cell_angle_gamma    118.421

_symmetry_Int_Tables_number  12
_chemical_formula_structural  SiPt3
_chemical_formula_sum  Si2Pt6
_cell_volume  122.57321788870091
_cell_formula_units_Z  2
loop_
  _symmetry_equiv_pos_site_id
 _symmetry_equiv_pos_as_xyz
 1  'x, y, z'
loop_
 _atom_site_type_symbol
 _atom_site_label
 _atom_site_symmetry_multiplicity
 _atom_site_fract_x
 _atom_site_fract_y
 _atom_site_fract_z
 _atom_site_fract_occupancy
 Pt  Pt1  1  0.50000  0.72563  0.27437  1
 Pt  Pt2  1  0.50000  0.27437  0.72563  1
 Pt  Pt3  1  -0.00000  0.81565  0.18435  1
 Pt  Pt4  1  0.00000  0.18435  0.81565  1
 Pt  Pt5  1  0.63900  0.28140  0.28140  1
 Pt  Pt6  1  0.36100  0.71860  0.71860  1
 Si  Si1  1  0.07830  0.28720  0.28720  1
 Si  Si2  1  0.92170  0.71280  0.71280  1
