CIF file written using JARVIS-Tools package.
data_NbI5
_symmetry_space_group_name_H-M  'P-1'
_cell_length_a       7.04312
_cell_length_b       7.64123
_cell_length_c       10.3848
_cell_angle_alpha    108.917
_cell_angle_beta     90.8943
_cell_angle_gamma    116.356

_symmetry_Int_Tables_number  2
_chemical_formula_structural  NbI5
_chemical_formula_sum  Nb2I0
_cell_volume  465.2795113956634
_cell_formula_units_Z  2
loop_
  _symmetry_equiv_pos_site_id
 _symmetry_equiv_pos_as_xyz
 1  'x, y, z'
loop_
 _atom_site_type_symbol
 _atom_site_label
 _atom_site_symmetry_multiplicity
 _atom_site_fract_x
 _atom_site_fract_y
 _atom_site_fract_z
 _atom_site_fract_occupancy
 I  I1  1  0.87185  0.38918  0.14964  1
 I  I2  1  0.75063  0.80912  0.04622  1
 I  I3  1  0.31796  0.00414  0.25023  1
 I  I4  1  0.68204  0.99586  0.74977  1
 I  I5  1  0.24937  0.19088  0.95378  1
 I  I6  1  0.12815  0.61082  0.85036  1
 I  I7  1  0.46302  0.59381  0.33766  1
 I  I8  1  0.92407  0.18783  0.44334  1
 I  I9  1  0.53698  0.40619  0.66234  1
 I  I10  1  0.07593  0.81217  0.55666  1
 Nb  Nb1  1  0.10752  0.22351  0.22382  1
 Nb  Nb2  1  0.89248  0.77649  0.77618  1
