CIF file written using JARVIS-Tools package.
data_CaZn
_symmetry_space_group_name_H-M  'Fm-3m'
_cell_length_a       6.11325
_cell_length_b       6.11325
_cell_length_c       6.11325
_cell_angle_alpha    90
_cell_angle_beta     90
_cell_angle_gamma    90

_symmetry_Int_Tables_number  225
_chemical_formula_structural  CaZn
_chemical_formula_sum  Ca4Zn4
_cell_volume  228.4638662073355
_cell_formula_units_Z  4
loop_
  _symmetry_equiv_pos_site_id
 _symmetry_equiv_pos_as_xyz
 1  'x, y, z'
loop_
 _atom_site_type_symbol
 _atom_site_label
 _atom_site_symmetry_multiplicity
 _atom_site_fract_x
 _atom_site_fract_y
 _atom_site_fract_z
 _atom_site_fract_occupancy
 Ca  Ca1  1  0.00000  0.00000  0.00000  1
 Ca  Ca2  1  0.00000  0.50000  0.50000  1
 Ca  Ca3  1  0.50000  0.00000  0.50000  1
 Ca  Ca4  1  0.50000  0.50000  0.00000  1
 Zn  Zn1  1  0.50000  0.00000  0.00000  1
 Zn  Zn2  1  0.50000  0.50000  0.50000  1
 Zn  Zn3  1  0.00000  0.00000  0.50000  1
 Zn  Zn4  1  0.00000  0.50000  0.00000  1
