CIF file written using JARVIS-Tools package.
data_Np2InPt2
_symmetry_space_group_name_H-M  'P4/mbm'
_cell_length_a       3.69894
_cell_length_b       7.76845
_cell_length_c       7.7688
_cell_angle_alpha    89.9944
_cell_angle_beta     89.9996
_cell_angle_gamma    89.9984

_symmetry_Int_Tables_number  127
_chemical_formula_structural  Np2InPt2
_chemical_formula_sum  Np4In2Pt4
_cell_volume  223.23647523316234
_cell_formula_units_Z  2
loop_
  _symmetry_equiv_pos_site_id
 _symmetry_equiv_pos_as_xyz
 1  'x, y, z'
loop_
 _atom_site_type_symbol
 _atom_site_label
 _atom_site_symmetry_multiplicity
 _atom_site_fract_x
 _atom_site_fract_y
 _atom_site_fract_z
 _atom_site_fract_occupancy
 In  In1  1  0.00000  -0.00000  0.00002  1
 In  In2  1  0.00000  0.49998  0.49999  1
 Np  Np1  1  0.50000  0.83116  0.33117  1
 Np  Np2  1  0.50000  0.66884  0.83115  1
 Np  Np3  1  0.50000  0.33116  0.16883  1
 Np  Np4  1  0.50000  0.16883  0.66885  1
 Pt  Pt1  1  0.00000  0.13319  0.36683  1
 Pt  Pt2  1  -0.00000  0.63319  0.13317  1
 Pt  Pt3  1  0.00000  0.36682  0.86681  1
 Pt  Pt4  1  -0.00000  0.86682  0.63318  1
