CIF file written using JARVIS-Tools package.
data_Li2Mn3SnO8
_symmetry_space_group_name_H-M  'R-3m'
_cell_length_a       6.06965
_cell_length_b       6.06965
_cell_length_c       6.06965
_cell_angle_alpha    56.6105
_cell_angle_beta     56.6105
_cell_angle_gamma    56.6105

_symmetry_Int_Tables_number  166
_chemical_formula_structural  Li2Mn3SnO8
_chemical_formula_sum  Li2Mn3SnO8
_cell_volume  145.73472496150356
_cell_formula_units_Z  1
loop_
  _symmetry_equiv_pos_site_id
 _symmetry_equiv_pos_as_xyz
 1  'x, y, z'
loop_
 _atom_site_type_symbol
 _atom_site_label
 _atom_site_symmetry_multiplicity
 _atom_site_fract_x
 _atom_site_fract_y
 _atom_site_fract_z
 _atom_site_fract_occupancy
 Li  Li1  1  0.12102  0.12102  0.12102  1
 Li  Li2  1  0.87898  0.87898  0.87898  1
 Mn  Mn1  1  0.00000  0.50000  0.50000  1
 Mn  Mn2  1  0.50000  -0.00000  0.50000  1
 Mn  Mn3  1  0.50000  0.50000  -0.00000  1
 O  O1  1  0.26585  0.26585  0.26585  1
 O  O2  1  0.25167  0.25167  0.71676  1
 O  O3  1  0.25167  0.71676  0.25167  1
 O  O4  1  0.71676  0.25167  0.25167  1
 O  O5  1  0.28324  0.74833  0.74833  1
 O  O6  1  0.74833  0.28324  0.74833  1
 O  O7  1  0.74833  0.74833  0.28324  1
 O  O8  1  0.73415  0.73415  0.73415  1
 Sn  Sn1  1  0.50000  0.50000  0.50000  1
