CIF file written using JARVIS-Tools package.
data_Li4Co3TeO8
_symmetry_space_group_name_H-M  'R-3m'
_cell_length_a       5.9507
_cell_length_b       5.95071
_cell_length_c       5.95077
_cell_angle_alpha    61.0044
_cell_angle_beta     61.0045
_cell_angle_gamma    61.0055

_symmetry_Int_Tables_number  166
_chemical_formula_structural  Li4Co3TeO8
_chemical_formula_sum  Li4Co3TeO8
_cell_volume  152.37526009866983
_cell_formula_units_Z  1
loop_
  _symmetry_equiv_pos_site_id
 _symmetry_equiv_pos_as_xyz
 1  'x, y, z'
loop_
 _atom_site_type_symbol
 _atom_site_label
 _atom_site_symmetry_multiplicity
 _atom_site_fract_x
 _atom_site_fract_y
 _atom_site_fract_z
 _atom_site_fract_occupancy
 Co  Co1  1  0.00000  0.50000  0.50000  1
 Co  Co2  1  0.50000  0.00000  0.50000  1
 Co  Co3  1  0.50000  0.50000  -0.00000  1
 Li  Li1  1  0.50000  0.50000  0.50000  1
 Li  Li2  1  0.50000  -0.00000  -0.00000  1
 Li  Li3  1  0.00000  0.50000  -0.00000  1
 Li  Li4  1  0.00000  0.00000  0.50000  1
 O  O1  1  0.74103  0.74102  0.74102  1
 O  O2  1  0.76842  0.23458  0.23460  1
 O  O3  1  0.23461  0.76842  0.23457  1
 O  O4  1  0.25897  0.25898  0.25898  1
 O  O5  1  0.23458  0.23461  0.76841  1
 O  O6  1  0.23158  0.76542  0.76540  1
 O  O7  1  0.76539  0.23158  0.76543  1
 O  O8  1  0.76542  0.76539  0.23159  1
 Te  Te1  1  0.00000  0.00000  0.00000  1
