CIF file written using JARVIS-Tools package.
data_UGaPd
_symmetry_space_group_name_H-M  'P-62m'
_cell_length_a       4.20844
_cell_length_b       6.9219
_cell_length_c       6.92168
_cell_angle_alpha    120.001
_cell_angle_beta     90
_cell_angle_gamma    90

_symmetry_Int_Tables_number  189
_chemical_formula_structural  UGaPd
_chemical_formula_sum  U3Ga3Pd3
_cell_volume  174.6160272586126
_cell_formula_units_Z  3
loop_
  _symmetry_equiv_pos_site_id
 _symmetry_equiv_pos_as_xyz
 1  'x, y, z'
loop_
 _atom_site_type_symbol
 _atom_site_label
 _atom_site_symmetry_multiplicity
 _atom_site_fract_x
 _atom_site_fract_y
 _atom_site_fract_z
 _atom_site_fract_occupancy
 Ga  Ga1  1  0.00000  0.23898  -0.00000  1
 Ga  Ga2  1  0.00000  0.76100  0.76103  1
 Ga  Ga3  1  0.00000  0.99998  0.23897  1
 Pd  Pd1  1  0.00000  0.33331  0.66664  1
 Pd  Pd2  1  0.00000  0.66667  0.33336  1
 Pd  Pd3  1  0.50000  -0.00002  -0.00000  1
 U  U1  1  0.50000  0.57212  0.00000  1
 U  U2  1  0.50000  0.42786  0.42787  1
 U  U3  1  0.50000  0.99999  0.57213  1
