CIF file written using JARVIS-Tools package.
data_TbBaF6
_symmetry_space_group_name_H-M  'Cmme'
_cell_length_a       4.68097
_cell_length_b       7.64551
_cell_length_c       7.64551
_cell_angle_alpha    120.1
_cell_angle_beta     90
_cell_angle_gamma    90

_symmetry_Int_Tables_number  67
_chemical_formula_structural  TbBaF6
_chemical_formula_sum  Tb2Ba2F2
_cell_volume  236.72479205376607
_cell_formula_units_Z  2
loop_
  _symmetry_equiv_pos_site_id
 _symmetry_equiv_pos_as_xyz
 1  'x, y, z'
loop_
 _atom_site_type_symbol
 _atom_site_label
 _atom_site_symmetry_multiplicity
 _atom_site_fract_x
 _atom_site_fract_y
 _atom_site_fract_z
 _atom_site_fract_occupancy
 Ba  Ba1  1  0.67442  0.25000  0.75000  1
 Ba  Ba2  1  0.32558  0.75000  0.25000  1
 F  F1  1  0.75639  0.46094  0.16971  1
 F  F2  1  0.75639  0.03906  0.33029  1
 F  F3  1  0.24361  0.16971  0.46094  1
 F  F4  1  0.24361  0.33029  0.03906  1
 F  F5  1  0.76616  0.45129  0.54871  1
 F  F6  1  0.76616  0.04871  0.95129  1
 F  F7  1  0.23384  0.54871  0.45129  1
 F  F8  1  0.23384  0.95129  0.04871  1
 F  F9  1  0.75639  0.66971  0.96094  1
 F  F10  1  0.75639  0.83029  0.53906  1
 F  F11  1  0.24361  0.96094  0.66971  1
 F  F12  1  0.24361  0.53906  0.83029  1
 Tb  Tb1  1  0.00000  0.25000  0.25000  1
 Tb  Tb2  1  0.00000  0.75000  0.75000  1
