CIF file written using JARVIS-Tools package.
data_BeMoRh
_symmetry_space_group_name_H-M  'I4mm'
_cell_length_a       5.21646
_cell_length_b       5.21646
_cell_length_c       5.21646
_cell_angle_alpha    149.043
_cell_angle_beta     149.043
_cell_angle_gamma    44.3473

_symmetry_Int_Tables_number  107
_chemical_formula_structural  BeMoRh
_chemical_formula_sum  BeMoRh
_cell_volume  37.44761724468816
_cell_formula_units_Z  1
loop_
  _symmetry_equiv_pos_site_id
 _symmetry_equiv_pos_as_xyz
 1  'x, y, z'
loop_
 _atom_site_type_symbol
 _atom_site_label
 _atom_site_symmetry_multiplicity
 _atom_site_fract_x
 _atom_site_fract_y
 _atom_site_fract_z
 _atom_site_fract_occupancy
 Be  Be1  1  0.01349  0.01349  -0.00000  1
 Mo  Mo1  1  0.34073  0.34073  -0.00000  1
 Rh  Rh1  1  0.64577  0.64577  -0.00000  1
