CIF file written using JARVIS-Tools package.
data_Sr3Al2Si3O12
_symmetry_space_group_name_H-M  'Ia-3d'
_cell_length_a       10.6015
_cell_length_b       10.6015
_cell_length_c       10.6015
_cell_angle_alpha    109.471
_cell_angle_beta     109.471
_cell_angle_gamma    109.471

_symmetry_Int_Tables_number  230
_chemical_formula_structural  Sr3Al2Si3O12
_chemical_formula_sum  Sr2Al8Si2O48
_cell_volume  917.245419040244
_cell_formula_units_Z  4
loop_
  _symmetry_equiv_pos_site_id
 _symmetry_equiv_pos_as_xyz
 1  'x, y, z'
loop_
 _atom_site_type_symbol
 _atom_site_label
 _atom_site_symmetry_multiplicity
 _atom_site_fract_x
 _atom_site_fract_y
 _atom_site_fract_z
 _atom_site_fract_occupancy
 Al  Al1  1  0.00000  0.50000  0.50000  1
 Al  Al2  1  0.50000  0.50000  -0.00000  1
 Al  Al3  1  0.00000  0.00000  0.00000  1
 Al  Al4  1  0.00000  0.50000  -0.00000  1
 Al  Al5  1  0.00000  0.00000  0.50000  1
 Al  Al6  1  0.50000  0.00000  -0.00000  1
 Al  Al7  1  0.50000  0.50000  0.50000  1
 Al  Al8  1  0.50000  0.00000  0.50000  1
 O  O1  1  0.30839  0.91680  0.30874  1
 O  O2  1  0.49965  0.39158  0.80839  1
 O  O3  1  0.69161  0.10842  0.00035  1
 O  O4  1  0.41680  0.80839  0.80874  1
 O  O5  1  0.60842  0.19161  0.50035  1
 O  O6  1  0.49965  0.60807  0.69126  1
 O  O7  1  0.08320  0.89193  0.39158  1
 O  O8  1  0.39158  0.08320  0.89193  1
 O  O9  1  0.10842  0.00035  0.69161  1
 O  O10  1  0.60807  0.41680  0.10842  1
 O  O11  1  0.89193  0.00035  0.80874  1
 O  O12  1  0.39158  0.80839  0.49965  1
 O  O13  1  0.41680  0.10842  0.60807  1
 O  O14  1  0.80839  0.49965  0.39158  1
 O  O15  1  0.00035  0.80874  0.89193  1
 O  O16  1  0.60807  0.69126  0.49965  1
 O  O17  1  0.80874  0.41680  0.80839  1
 O  O18  1  0.10807  0.99965  0.19126  1
 O  O19  1  0.19161  0.50035  0.60842  1
 O  O20  1  0.89193  0.39158  0.08320  1
 O  O21  1  0.00035  0.69161  0.10842  1
 O  O22  1  0.69126  0.49965  0.60807  1
 O  O23  1  0.30874  0.30839  0.91680  1
 O  O24  1  0.30839  0.89158  0.99965  1
 O  O25  1  0.39193  0.30874  0.50035  1
 O  O26  1  0.99965  0.19126  0.10807  1
 O  O27  1  0.50035  0.39193  0.30874  1
 O  O28  1  0.80874  0.89193  0.00035  1
 O  O29  1  0.89158  0.99965  0.30839  1
 O  O30  1  0.39193  0.58320  0.89158  1
 O  O31  1  0.50035  0.60842  0.19161  1
 O  O32  1  0.08320  0.69126  0.69161  1
 O  O33  1  0.58320  0.89158  0.39193  1
 O  O34  1  0.60842  0.91680  0.10807  1
 O  O35  1  0.69161  0.08320  0.69126  1
 O  O36  1  0.89158  0.39193  0.58320  1
 O  O37  1  0.80839  0.80874  0.41680  1
 O  O38  1  0.19161  0.19126  0.58320  1
 O  O39  1  0.30874  0.50035  0.39193  1
 O  O40  1  0.10807  0.60842  0.91680  1
 O  O41  1  0.19126  0.58320  0.19161  1
 O  O42  1  0.99965  0.30839  0.89158  1
 O  O43  1  0.58320  0.19161  0.19126  1
 O  O44  1  0.91680  0.10807  0.60842  1
 O  O45  1  0.69126  0.69161  0.08320  1
 O  O46  1  0.91680  0.30874  0.30839  1
 O  O47  1  0.19126  0.10807  0.99965  1
 O  O48  1  0.10842  0.60807  0.41680  1
 Si  Si1  1  0.62500  0.37500  0.25000  1
 Si  Si2  1  0.62500  0.75000  0.37500  1
 Si  Si3  1  0.25000  0.12500  0.87500  1
 Si  Si4  1  0.75000  0.87500  0.12500  1
 Si  Si5  1  0.37500  0.25000  0.62500  1
 Si  Si6  1  0.87500  0.25000  0.12500  1
 Si  Si7  1  0.75000  0.37500  0.62500  1
 Si  Si8  1  0.12500  0.87500  0.25000  1
 Si  Si9  1  0.37500  0.62500  0.75000  1
 Si  Si10  1  0.12500  0.75000  0.87500  1
 Si  Si11  1  0.25000  0.62500  0.37500  1
 Si  Si12  1  0.87500  0.12500  0.75000  1
 Sr  Sr1  1  0.25000  0.87500  0.62500  1
 Sr  Sr2  1  0.87500  0.62500  0.25000  1
 Sr  Sr3  1  0.62500  0.87500  0.75000  1
 Sr  Sr4  1  0.87500  0.75000  0.62500  1
 Sr  Sr5  1  0.62500  0.25000  0.87500  1
 Sr  Sr6  1  0.12500  0.37500  0.75000  1
 Sr  Sr7  1  0.75000  0.12500  0.37500  1
 Sr  Sr8  1  0.37500  0.12500  0.25000  1
 Sr  Sr9  1  0.12500  0.25000  0.37500  1
 Sr  Sr10  1  0.75000  0.62500  0.87500  1
 Sr  Sr11  1  0.37500  0.75000  0.12500  1
 Sr  Sr12  1  0.25000  0.37500  0.12500  1
