CIF file written using JARVIS-Tools package.
data_Li2MnB2O6
_symmetry_space_group_name_H-M  'P2_1/c'
_cell_length_a       5.33689
_cell_length_b       7.6986
_cell_length_c       5.84743
_cell_angle_alpha    90
_cell_angle_beta     118.288
_cell_angle_gamma    90

_symmetry_Int_Tables_number  14
_chemical_formula_structural  Li2MnB2O6
_chemical_formula_sum  Li4Mn2B4O2
_cell_volume  211.55970552919513
_cell_formula_units_Z  2
loop_
  _symmetry_equiv_pos_site_id
 _symmetry_equiv_pos_as_xyz
 1  'x, y, z'
loop_
 _atom_site_type_symbol
 _atom_site_label
 _atom_site_symmetry_multiplicity
 _atom_site_fract_x
 _atom_site_fract_y
 _atom_site_fract_z
 _atom_site_fract_occupancy
 B  B1  1  0.12599  0.25899  0.87357  1
 B  B2  1  0.87401  0.75899  0.62643  1
 B  B3  1  0.12599  0.24101  0.37357  1
 B  B4  1  0.87401  0.74101  0.12643  1
 Li  Li1  1  0.61080  0.43508  0.80829  1
 Li  Li2  1  0.38920  0.93508  0.69171  1
 Li  Li3  1  0.61080  0.06492  0.30829  1
 Li  Li4  1  0.38920  0.56492  0.19171  1
 Mn  Mn1  1  0.00000  0.00000  0.00000  1
 Mn  Mn2  1  0.00000  0.50000  0.50000  1
 O  O1  1  0.77147  0.58221  0.15195  1
 O  O2  1  0.22853  0.41779  0.84805  1
 O  O3  1  0.11904  0.73606  0.60094  1
 O  O4  1  0.88096  0.23606  0.89906  1
 O  O5  1  0.27538  0.10437  0.91544  1
 O  O6  1  0.88096  0.26394  0.39906  1
 O  O7  1  0.27538  0.39563  0.41544  1
 O  O8  1  0.22853  0.08221  0.34805  1
 O  O9  1  0.11904  0.76394  0.10094  1
 O  O10  1  0.77147  0.91779  0.65195  1
 O  O11  1  0.72462  0.60437  0.58456  1
 O  O12  1  0.72462  0.89563  0.08456  1
