CIF file written using JARVIS-Tools package.
data_CaSiBHO5
_symmetry_space_group_name_H-M  'P2_1/c'
_cell_length_a       4.84275
_cell_length_b       7.64246
_cell_length_c       9.70677
_cell_angle_alpha    90
_cell_angle_beta     90.2273
_cell_angle_gamma    90

_symmetry_Int_Tables_number  14
_chemical_formula_structural  CaSiBHO5
_chemical_formula_sum  Ca4Si4B4H4O20
_cell_volume  359.2500493428007
_cell_formula_units_Z  4
loop_
  _symmetry_equiv_pos_site_id
 _symmetry_equiv_pos_as_xyz
 1  'x, y, z'
loop_
 _atom_site_type_symbol
 _atom_site_label
 _atom_site_symmetry_multiplicity
 _atom_site_fract_x
 _atom_site_fract_y
 _atom_site_fract_z
 _atom_site_fract_occupancy
 B  B1  1  0.42844  0.58864  0.65902  1
 B  B2  1  0.57156  0.08864  0.84098  1
 B  B3  1  0.57156  0.41136  0.34098  1
 B  B4  1  0.42844  0.91136  0.15902  1
 Ca  Ca1  1  0.99197  0.39373  0.83644  1
 Ca  Ca2  1  0.99197  0.10627  0.33644  1
 Ca  Ca3  1  0.00803  0.60627  0.16356  1
 Ca  Ca4  1  0.00803  0.89373  0.66356  1
 H  H1  1  0.18998  0.03520  0.92266  1
 H  H2  1  0.81002  0.53520  0.57734  1
 H  H3  1  0.81002  0.96480  0.07734  1
 H  H4  1  0.18998  0.46480  0.42266  1
 O  O1  1  0.24171  0.09547  0.53598  1
 O  O2  1  0.32592  0.69759  0.54236  1
 O  O3  1  0.67408  0.19759  0.95764  1
 O  O4  1  0.67408  0.30241  0.45764  1
 O  O5  1  0.26100  0.08628  0.83670  1
 O  O6  1  0.75829  0.59547  0.96402  1
 O  O7  1  0.67829  0.16474  0.71121  1
 O  O8  1  0.75829  0.90453  0.46402  1
 O  O9  1  0.24171  0.40453  0.03598  1
 O  O10  1  0.32592  0.80241  0.04236  1
 O  O11  1  0.32171  0.83526  0.28879  1
 O  O12  1  0.26100  0.41372  0.33670  1
 O  O13  1  0.31264  0.41102  0.64571  1
 O  O14  1  0.31264  0.08898  0.14571  1
 O  O15  1  0.68736  0.58898  0.35429  1
 O  O16  1  0.73900  0.91372  0.16330  1
 O  O17  1  0.32171  0.66474  0.78879  1
 O  O18  1  0.67829  0.33526  0.21121  1
 O  O19  1  0.68736  0.91102  0.85429  1
 O  O20  1  0.73900  0.58628  0.66330  1
 Si  Si1  1  0.52925  0.76758  0.41593  1
 Si  Si2  1  0.47075  0.26758  0.08407  1
 Si  Si3  1  0.47075  0.23242  0.58407  1
 Si  Si4  1  0.52925  0.73242  0.91593  1
