CIF file written using JARVIS-Tools package.
data_Li2FeF4
_symmetry_space_group_name_H-M  'Pbam'
_cell_length_a       2.85598
_cell_length_b       4.93782
_cell_length_c       10.083
_cell_angle_alpha    90
_cell_angle_beta     90
_cell_angle_gamma    90

_symmetry_Int_Tables_number  55
_chemical_formula_structural  Li2FeF4
_chemical_formula_sum  Li4Fe2F8
_cell_volume  142.1937215001744
_cell_formula_units_Z  2
loop_
  _symmetry_equiv_pos_site_id
 _symmetry_equiv_pos_as_xyz
 1  'x, y, z'
loop_
 _atom_site_type_symbol
 _atom_site_label
 _atom_site_symmetry_multiplicity
 _atom_site_fract_x
 _atom_site_fract_y
 _atom_site_fract_z
 _atom_site_fract_occupancy
 F  F1  1  0.00000  0.21817  0.17394  1
 F  F2  1  0.50000  0.25913  0.40577  1
 F  F3  1  0.50000  0.24087  0.90577  1
 F  F4  1  0.00000  0.28183  0.67394  1
 F  F5  1  0.00000  0.71817  0.32606  1
 F  F6  1  0.50000  0.75913  0.09423  1
 F  F7  1  0.50000  0.74087  0.59423  1
 F  F8  1  0.00000  0.78183  0.82606  1
 Fe  Fe1  1  0.00000  0.00000  0.00000  1
 Fe  Fe2  1  0.00000  0.50000  0.50000  1
 Li  Li1  1  0.50000  0.02857  0.71702  1
 Li  Li2  1  0.50000  0.47143  0.21702  1
 Li  Li3  1  0.50000  0.52857  0.78298  1
 Li  Li4  1  0.50000  0.97143  0.28298  1
