CIF file written using JARVIS-Tools package.
data_BaCd2Cl
_symmetry_space_group_name_H-M  'P4mm'
_cell_length_a       4.2279
_cell_length_b       4.22807
_cell_length_c       7.1768
_cell_angle_alpha    90
_cell_angle_beta     90
_cell_angle_gamma    90

_symmetry_Int_Tables_number  99
_chemical_formula_structural  BaCd2Cl
_chemical_formula_sum  BaCd2Cl
_cell_volume  128.29148762598945
_cell_formula_units_Z  1
loop_
  _symmetry_equiv_pos_site_id
 _symmetry_equiv_pos_as_xyz
 1  'x, y, z'
loop_
 _atom_site_type_symbol
 _atom_site_label
 _atom_site_symmetry_multiplicity
 _atom_site_fract_x
 _atom_site_fract_y
 _atom_site_fract_z
 _atom_site_fract_occupancy
 Ba  Ba1  1  0.50000  0.50000  0.68928  1
 Cd  Cd1  1  0.00000  0.00000  0.06396  1
 Cd  Cd2  1  0.50000  0.50000  0.17910  1
 Cl  Cl1  1  0.00000  0.00000  0.56766  1
