CIF file written using JARVIS-Tools package.
data_ZrGaNi
_symmetry_space_group_name_H-M  'P-62m'
_cell_length_a       3.47826
_cell_length_b       6.87139
_cell_length_c       6.87148
_cell_angle_alpha    120
_cell_angle_beta     90
_cell_angle_gamma    90

_symmetry_Int_Tables_number  189
_chemical_formula_structural  ZrGaNi
_chemical_formula_sum  Zr3Ga3Ni3
_cell_volume  142.22968054483326
_cell_formula_units_Z  3
loop_
  _symmetry_equiv_pos_site_id
 _symmetry_equiv_pos_as_xyz
 1  'x, y, z'
loop_
 _atom_site_type_symbol
 _atom_site_label
 _atom_site_symmetry_multiplicity
 _atom_site_fract_x
 _atom_site_fract_y
 _atom_site_fract_z
 _atom_site_fract_occupancy
 Ga  Ga1  1  0.00000  0.25991  -0.00000  1
 Ga  Ga2  1  0.00000  0.74007  0.74008  1
 Ga  Ga3  1  0.00000  -0.00001  0.25992  1
 Ni  Ni1  1  0.00000  0.33332  0.66667  1
 Ni  Ni2  1  0.00000  0.66666  0.33333  1
 Ni  Ni3  1  0.50000  -0.00001  -0.00000  1
 Zr  Zr1  1  0.50000  0.59697  -0.00000  1
 Zr  Zr2  1  0.50000  0.40301  0.40302  1
 Zr  Zr3  1  0.50000  0.99999  0.59698  1
