CIF file written using JARVIS-Tools package.
data_ZnCu2SnSe4
_symmetry_space_group_name_H-M  'I-4'
_cell_length_a       5.74938
_cell_length_b       5.74938
_cell_length_c       7.03877
_cell_angle_alpha    114.105
_cell_angle_beta     114.105
_cell_angle_gamma    90

_symmetry_Int_Tables_number  82
_chemical_formula_structural  ZnCu2SnSe4
_chemical_formula_sum  ZnCu2SnSe4
_cell_volume  189.9362167395359
_cell_formula_units_Z  1
loop_
  _symmetry_equiv_pos_site_id
 _symmetry_equiv_pos_as_xyz
 1  'x, y, z'
loop_
 _atom_site_type_symbol
 _atom_site_label
 _atom_site_symmetry_multiplicity
 _atom_site_fract_x
 _atom_site_fract_y
 _atom_site_fract_z
 _atom_site_fract_occupancy
 Cu  Cu1  1  0.25000  0.75000  0.50000  1
 Cu  Cu2  1  0.00000  0.00000  0.00000  1
 Se  Se1  1  0.62977  0.10138  0.73930  1
 Se  Se2  1  0.10953  0.63792  0.73930  1
 Se  Se3  1  0.89862  0.89047  0.26070  1
 Se  Se4  1  0.36208  0.37023  0.26070  1
 Sn  Sn1  1  0.50000  0.50000  0.00000  1
 Zn  Zn1  1  0.75000  0.25000  0.50000  1
