CIF file written using JARVIS-Tools package.
data_YBeIr
_symmetry_space_group_name_H-M  'I4mm'
_cell_length_a       5.49598
_cell_length_b       5.49598
_cell_length_c       5.49598
_cell_angle_alpha    146.945
_cell_angle_beta     146.945
_cell_angle_gamma    47.4452

_symmetry_Int_Tables_number  107
_chemical_formula_structural  YBeIr
_chemical_formula_sum  YBeIr
_cell_volume  49.19740344982625
_cell_formula_units_Z  1
loop_
  _symmetry_equiv_pos_site_id
 _symmetry_equiv_pos_as_xyz
 1  'x, y, z'
loop_
 _atom_site_type_symbol
 _atom_site_label
 _atom_site_symmetry_multiplicity
 _atom_site_fract_x
 _atom_site_fract_y
 _atom_site_fract_z
 _atom_site_fract_occupancy
 Be  Be1  1  0.04112  0.04112  0.00000  1
 Ir  Ir1  1  0.62695  0.62695  -0.00000  1
 Y  Y1  1  0.33194  0.33194  -0.00000  1
