CIF file written using JARVIS-Tools package.
data_Na3MnO3
_symmetry_space_group_name_H-M  'P-1'
_cell_length_a       5.67074
_cell_length_b       5.88353
_cell_length_c       6.45131
_cell_angle_alpha    114.348
_cell_angle_beta     91.414
_cell_angle_gamma    91.436

_symmetry_Int_Tables_number  2
_chemical_formula_structural  Na3MnO3
_chemical_formula_sum  Na6Mn2O6
_cell_volume  195.8911564905677
_cell_formula_units_Z  2
loop_
  _symmetry_equiv_pos_site_id
 _symmetry_equiv_pos_as_xyz
 1  'x, y, z'
loop_
 _atom_site_type_symbol
 _atom_site_label
 _atom_site_symmetry_multiplicity
 _atom_site_fract_x
 _atom_site_fract_y
 _atom_site_fract_z
 _atom_site_fract_occupancy
 Mn  Mn1  1  0.61314  0.20664  0.69359  1
 Mn  Mn2  1  0.38686  0.79336  0.30641  1
 Na  Na1  1  0.93805  0.77200  0.55542  1
 Na  Na2  1  0.87189  0.76778  0.01908  1
 Na  Na3  1  0.56085  0.24698  0.23733  1
 Na  Na4  1  0.43915  0.75302  0.76267  1
 Na  Na5  1  0.12811  0.23222  0.98092  1
 Na  Na6  1  0.06195  0.22800  0.44458  1
 O  O1  1  0.74588  0.09291  0.89207  1
 O  O2  1  0.75918  0.47333  0.66444  1
 O  O3  1  0.69454  0.94096  0.35997  1
 O  O4  1  0.30546  0.05904  0.64003  1
 O  O5  1  0.24082  0.52667  0.33556  1
 O  O6  1  0.25412  0.90709  0.10793  1
