CIF file written using JARVIS-Tools package.
data_Rb2Be2O3
_symmetry_space_group_name_H-M  'P2_1/c'
_cell_length_a       4.99105
_cell_length_b       8.64519
_cell_length_c       6.48165
_cell_angle_alpha    90
_cell_angle_beta     115.745
_cell_angle_gamma    90

_symmetry_Int_Tables_number  14
_chemical_formula_structural  Rb2Be2O3
_chemical_formula_sum  Rb4Be4O6
_cell_volume  251.91248962203983
_cell_formula_units_Z  2
loop_
  _symmetry_equiv_pos_site_id
 _symmetry_equiv_pos_as_xyz
 1  'x, y, z'
loop_
 _atom_site_type_symbol
 _atom_site_label
 _atom_site_symmetry_multiplicity
 _atom_site_fract_x
 _atom_site_fract_y
 _atom_site_fract_z
 _atom_site_fract_occupancy
 Be  Be1  1  0.30247  0.50835  0.50334  1
 Be  Be2  1  0.69753  0.00835  0.99666  1
 Be  Be3  1  0.30247  0.99165  0.00334  1
 Be  Be4  1  0.69753  0.49165  0.49666  1
 O  O1  1  0.00000  0.50000  0.50000  1
 O  O2  1  0.00000  0.00000  0.00000  1
 O  O3  1  0.39399  0.94237  0.80732  1
 O  O4  1  0.60601  0.44237  0.69268  1
 O  O5  1  0.39399  0.55763  0.30732  1
 O  O6  1  0.60601  0.05763  0.19268  1
 Rb  Rb1  1  0.22518  0.34680  0.93531  1
 Rb  Rb2  1  0.22518  0.15320  0.43531  1
 Rb  Rb3  1  0.77482  0.84680  0.56469  1
 Rb  Rb4  1  0.77482  0.65320  0.06469  1
