CIF file written using JARVIS-Tools package.
data_Li4V3OF11
_symmetry_space_group_name_H-M  'P1'
_cell_length_a       5.61675
_cell_length_b       5.91439
_cell_length_c       6.3277
_cell_angle_alpha    100.037
_cell_angle_beta     100.778
_cell_angle_gamma    97.1446

_symmetry_Int_Tables_number  1
_chemical_formula_structural  Li4V3OF11
_chemical_formula_sum  Li4V3OF
_cell_volume  200.64078324357564
_cell_formula_units_Z  1
loop_
  _symmetry_equiv_pos_site_id
 _symmetry_equiv_pos_as_xyz
 1  'x, y, z'
loop_
 _atom_site_type_symbol
 _atom_site_label
 _atom_site_symmetry_multiplicity
 _atom_site_fract_x
 _atom_site_fract_y
 _atom_site_fract_z
 _atom_site_fract_occupancy
 F  F1  1  0.37469  0.18234  0.55007  1
 F  F2  1  0.93548  0.66744  0.02603  1
 F  F3  1  0.06227  0.88158  0.69730  1
 F  F4  1  0.57201  0.42059  0.19965  1
 F  F5  1  0.59059  0.81946  0.42265  1
 F  F6  1  0.89990  0.09558  0.26157  1
 F  F7  1  0.17340  0.56857  0.39459  1
 F  F8  1  0.68578  0.06225  0.86145  1
 F  F9  1  0.81689  0.38841  0.58734  1
 F  F10  1  0.12982  0.31258  0.95518  1
 F  F11  1  0.42303  0.60312  0.84612  1
 Li  Li1  1  0.16082  0.37646  0.62314  1
 Li  Li2  1  0.67937  0.39658  0.84759  1
 Li  Li3  1  0.40310  0.86213  0.68084  1
 Li  Li4  1  0.86767  0.65938  0.44974  1
 O  O1  1  0.32394  0.95103  0.12908  1
 V  V1  1  0.00953  0.99430  0.98643  1
 V  V2  1  0.58448  0.13966  0.34259  1
 V  V3  1  0.30724  0.61854  0.13864  1
