CIF file written using JARVIS-Tools package.
data_TiBrN
_symmetry_space_group_name_H-M  'Pmmn'
_cell_length_a       3.37346
_cell_length_b       3.94665
_cell_length_c       8.35562
_cell_angle_alpha    90
_cell_angle_beta     90
_cell_angle_gamma    90

_symmetry_Int_Tables_number  59
_chemical_formula_structural  TiBrN
_chemical_formula_sum  Ti2Br2N2
_cell_volume  111.24580587361314
_cell_formula_units_Z  2
loop_
  _symmetry_equiv_pos_site_id
 _symmetry_equiv_pos_as_xyz
 1  'x, y, z'
loop_
 _atom_site_type_symbol
 _atom_site_label
 _atom_site_symmetry_multiplicity
 _atom_site_fract_x
 _atom_site_fract_y
 _atom_site_fract_z
 _atom_site_fract_occupancy
 Br  Br1  1  0.50000  0.50000  0.67176  1
 Br  Br2  1  0.00000  0.00000  0.32824  1
 N  N1  1  0.00000  0.00000  0.95790  1
 N  N2  1  0.50000  0.50000  0.04210  1
 Ti  Ti1  1  0.00000  0.50000  0.90970  1
 Ti  Ti2  1  0.50000  0.00000  0.09030  1
