CIF file written using JARVIS-Tools package.
data_LiCrC2O6
_symmetry_space_group_name_H-M  'P2_1'
_cell_length_a       4.80308
_cell_length_b       7.78497
_cell_length_c       6.50681
_cell_angle_alpha    90
_cell_angle_beta     114.426
_cell_angle_gamma    90

_symmetry_Int_Tables_number  4
_chemical_formula_structural  LiCrC2O6
_chemical_formula_sum  Li2Cr2C4O2
_cell_volume  221.52482192947457
_cell_formula_units_Z  2
loop_
  _symmetry_equiv_pos_site_id
 _symmetry_equiv_pos_as_xyz
 1  'x, y, z'
loop_
 _atom_site_type_symbol
 _atom_site_label
 _atom_site_symmetry_multiplicity
 _atom_site_fract_x
 _atom_site_fract_y
 _atom_site_fract_z
 _atom_site_fract_occupancy
 C  C1  1  0.52691  0.73570  0.89212  1
 C  C2  1  0.47309  0.23570  0.10788  1
 C  C3  1  0.04099  0.75343  0.39944  1
 C  C4  1  0.95901  0.25343  0.60056  1
 Cr  Cr1  1  0.25903  0.99490  0.75911  1
 Cr  Cr2  1  0.74097  0.49490  0.24089  1
 Li  Li1  1  0.51556  0.95226  0.35951  1
 Li  Li2  1  0.48444  0.45226  0.64049  1
 O  O1  1  0.66333  0.87286  0.87231  1
 O  O2  1  0.80704  0.39519  0.54385  1
 O  O3  1  0.75933  0.25567  0.14617  1
 O  O4  1  0.24067  0.75567  0.85383  1
 O  O5  1  0.65766  0.58585  0.93651  1
 O  O6  1  0.25128  0.24641  0.65369  1
 O  O7  1  0.16573  0.60888  0.38568  1
 O  O8  1  0.19296  0.89519  0.45615  1
 O  O9  1  0.34234  0.08585  0.06349  1
 O  O10  1  0.74872  0.74641  0.34631  1
 O  O11  1  0.33667  0.37286  0.12769  1
 O  O12  1  0.83427  0.10888  0.61432  1
