CIF file written using JARVIS-Tools package.
data_BiSI
_symmetry_space_group_name_H-M  'Pnma'
_cell_length_a       4.19751
_cell_length_b       8.61743
_cell_length_c       10.4409
_cell_angle_alpha    90
_cell_angle_beta     90
_cell_angle_gamma    90

_symmetry_Int_Tables_number  62
_chemical_formula_structural  BiSI
_chemical_formula_sum  Bi4S4I4
_cell_volume  377.66558264736784
_cell_formula_units_Z  4
loop_
  _symmetry_equiv_pos_site_id
 _symmetry_equiv_pos_as_xyz
 1  'x, y, z'
loop_
 _atom_site_type_symbol
 _atom_site_label
 _atom_site_symmetry_multiplicity
 _atom_site_fract_x
 _atom_site_fract_y
 _atom_site_fract_z
 _atom_site_fract_occupancy
 Bi  Bi1  1  0.75000  0.36802  0.62355  1
 Bi  Bi2  1  0.25000  0.63198  0.37645  1
 Bi  Bi3  1  0.75000  0.86802  0.87645  1
 Bi  Bi4  1  0.25000  0.13198  0.12355  1
 I  I1  1  0.75000  0.48983  0.17067  1
 I  I2  1  0.25000  0.01017  0.67067  1
 I  I3  1  0.75000  0.98983  0.32933  1
 I  I4  1  0.25000  0.51017  0.82933  1
 S  S1  1  0.25000  0.33925  0.45112  1
 S  S2  1  0.75000  0.16075  0.95112  1
 S  S3  1  0.25000  0.83925  0.04888  1
 S  S4  1  0.75000  0.66075  0.54888  1
