CIF file written using JARVIS-Tools package.
data_Li2MnNb3O8
_symmetry_space_group_name_H-M  'R3m'
_cell_length_a       6.23146
_cell_length_b       6.23147
_cell_length_c       6.23146
_cell_angle_alpha    58.0452
_cell_angle_beta     58.0452
_cell_angle_gamma    58.0452

_symmetry_Int_Tables_number  160
_chemical_formula_structural  Li2MnNb3O8
_chemical_formula_sum  Li2MnNb3O8
_cell_volume  163.43163714916744
_cell_formula_units_Z  1
loop_
  _symmetry_equiv_pos_site_id
 _symmetry_equiv_pos_as_xyz
 1  'x, y, z'
loop_
 _atom_site_type_symbol
 _atom_site_label
 _atom_site_symmetry_multiplicity
 _atom_site_fract_x
 _atom_site_fract_y
 _atom_site_fract_z
 _atom_site_fract_occupancy
 Li  Li1  1  0.12401  0.12401  0.12401  1
 Li  Li2  1  0.49975  0.49975  0.49975  1
 Mn  Mn1  1  0.87617  0.87617  0.87617  1
 Nb  Nb1  1  0.00496  0.49898  0.49898  1
 Nb  Nb2  1  0.49898  0.00496  0.49898  1
 Nb  Nb3  1  0.49898  0.49898  0.00496  1
 O  O1  1  0.25282  0.25282  0.25282  1
 O  O2  1  0.25083  0.25083  0.72590  1
 O  O3  1  0.25083  0.72590  0.25083  1
 O  O4  1  0.72590  0.25083  0.25083  1
 O  O5  1  0.27658  0.74587  0.74587  1
 O  O6  1  0.74587  0.27658  0.74587  1
 O  O7  1  0.74587  0.74587  0.27658  1
 O  O8  1  0.74846  0.74846  0.74846  1
