CIF file written using JARVIS-Tools package.
data_CeNiSnH
_symmetry_space_group_name_H-M  'Pnma'
_cell_length_a       7.26918
_cell_length_b       8.29782
_cell_length_c       4.35285
_cell_angle_alpha    90
_cell_angle_beta     90
_cell_angle_gamma    90

_symmetry_Int_Tables_number  62
_chemical_formula_structural  CeNiSnH
_chemical_formula_sum  Ce4Ni4Sn4H4
_cell_volume  262.5567381273779
_cell_formula_units_Z  4
loop_
  _symmetry_equiv_pos_site_id
 _symmetry_equiv_pos_as_xyz
 1  'x, y, z'
loop_
 _atom_site_type_symbol
 _atom_site_label
 _atom_site_symmetry_multiplicity
 _atom_site_fract_x
 _atom_site_fract_y
 _atom_site_fract_z
 _atom_site_fract_occupancy
 Ce  Ce1  1  0.51130  0.19297  0.24275  1
 Ce  Ce2  1  0.48870  0.80703  0.74275  1
 Ce  Ce3  1  0.98870  0.69297  0.74275  1
 Ce  Ce4  1  0.01130  0.30703  0.24275  1
 H  H1  1  0.94301  0.42001  0.74275  1
 H  H2  1  0.05699  0.57999  0.24275  1
 H  H3  1  0.55699  0.92001  0.24275  1
 H  H4  1  0.44301  0.07999  0.74275  1
 Ni  Ni1  1  0.28448  0.60360  0.24274  1
 Ni  Ni2  1  0.71552  0.39640  0.74274  1
 Ni  Ni3  1  0.21552  0.10360  0.74274  1
 Ni  Ni4  1  0.78448  0.89640  0.24274  1
 Sn  Sn1  1  0.17088  0.92630  0.24275  1
 Sn  Sn2  1  0.82912  0.07370  0.74275  1
 Sn  Sn3  1  0.32912  0.42630  0.74275  1
 Sn  Sn4  1  0.67088  0.57370  0.24275  1
