CIF file written using JARVIS-Tools package.
data_TbLiSe2
_symmetry_space_group_name_H-M  'I4_1/amd'
_cell_length_a       8.05067
_cell_length_b       10.6877
_cell_length_c       7.02948
_cell_angle_alpha    29.1452
_cell_angle_beta     55.0657
_cell_angle_gamma    41.1258

_symmetry_Int_Tables_number  141
_chemical_formula_structural  TbLiSe2
_chemical_formula_sum  Tb2Li2Se4
_cell_volume  186.75523685563198
_cell_formula_units_Z  2
loop_
  _symmetry_equiv_pos_site_id
 _symmetry_equiv_pos_as_xyz
 1  'x, y, z'
loop_
 _atom_site_type_symbol
 _atom_site_label
 _atom_site_symmetry_multiplicity
 _atom_site_fract_x
 _atom_site_fract_y
 _atom_site_fract_z
 _atom_site_fract_occupancy
 Li  Li1  1  0.50000  0.00000  0.00000  1
 Li  Li2  1  0.25000  0.50000  0.00000  1
 Se  Se1  1  0.24810  0.00000  0.50381  1
 Se  Se2  1  0.99809  0.50000  0.50381  1
 Se  Se3  1  0.75191  -0.00000  0.49619  1
 Se  Se4  1  0.50190  0.50000  0.49619  1
 Tb  Tb1  1  1.00000  0.00000  0.00000  1
 Tb  Tb2  1  0.75000  0.50000  0.00000  1
