CIF file written using JARVIS-Tools package.
data_B2O3
_symmetry_space_group_name_H-M  'P3_121'
_cell_length_a       4.36354
_cell_length_b       4.36354
_cell_length_c       8.3504
_cell_angle_alpha    90
_cell_angle_beta     90
_cell_angle_gamma    120

_symmetry_Int_Tables_number  152
_chemical_formula_structural  B2O3
_chemical_formula_sum  B6O9
_cell_volume  137.69421822383686
_cell_formula_units_Z  3
loop_
  _symmetry_equiv_pos_site_id
 _symmetry_equiv_pos_as_xyz
 1  'x, y, z'
loop_
 _atom_site_type_symbol
 _atom_site_label
 _atom_site_symmetry_multiplicity
 _atom_site_fract_x
 _atom_site_fract_y
 _atom_site_fract_z
 _atom_site_fract_occupancy
 B  B1  1  0.23359  0.39562  0.97904  1
 B  B2  1  0.60438  0.83797  0.31237  1
 B  B3  1  0.16203  0.76641  0.64571  1
 B  B4  1  0.83792  0.60428  0.09591  1
 B  B5  1  0.39572  0.23364  0.42924  1
 B  B6  1  0.76636  0.16208  0.76258  1
 O  O1  1  0.55036  0.40155  -0.00078  1
 O  O2  1  0.59845  0.14881  0.33255  1
 O  O3  1  0.85119  0.44964  0.66588  1
 O  O4  1  0.14875  0.59832  0.07574  1
 O  O5  1  0.40168  0.55043  0.40908  1
 O  O6  1  0.44957  0.85125  0.74241  1
 O  O7  1  -0.00001  0.15607  0.87079  1
 O  O8  1  0.84393  0.84392  0.20412  1
 O  O9  1  0.15608  0.00001  0.53746  1
