CIF file written using JARVIS-Tools package.
data_Li3Mn2O4
_symmetry_space_group_name_H-M  'I4_1/amd'
_cell_length_a       5.80274
_cell_length_b       5.80274
_cell_length_c       6.39952
_cell_angle_alpha    116.966
_cell_angle_beta     116.966
_cell_angle_gamma    89.9946

_symmetry_Int_Tables_number  141
_chemical_formula_structural  Li3Mn2O4
_chemical_formula_sum  Li6Mn4O8
_cell_volume  165.34708910044185
_cell_formula_units_Z  2
loop_
  _symmetry_equiv_pos_site_id
 _symmetry_equiv_pos_as_xyz
 1  'x, y, z'
loop_
 _atom_site_type_symbol
 _atom_site_label
 _atom_site_symmetry_multiplicity
 _atom_site_fract_x
 _atom_site_fract_y
 _atom_site_fract_z
 _atom_site_fract_occupancy
 Li  Li1  1  0.87503  0.12497  0.75000  1
 Li  Li2  1  0.00000  -0.00000  0.50000  1
 Li  Li3  1  0.00000  0.00000  0.00000  1
 Li  Li4  1  0.00000  0.50000  -0.00000  1
 Li  Li5  1  0.12497  0.87503  0.25000  1
 Li  Li6  1  0.50000  -0.00000  0.50000  1
 Mn  Mn1  1  0.50000  0.50000  0.50000  1
 Mn  Mn2  1  0.00000  0.50000  0.50000  1
 Mn  Mn3  1  0.50000  -0.00000  -0.00000  1
 Mn  Mn4  1  0.50000  0.50000  -0.00000  1
 O  O1  1  0.24047  0.73469  0.48101  1
 O  O2  1  0.73469  0.24047  0.98101  1
 O  O3  1  0.26531  0.75953  0.01899  1
 O  O4  1  0.24634  0.24050  0.98105  1
 O  O5  1  0.75950  0.75366  0.51895  1
 O  O6  1  0.75953  0.26531  0.51899  1
 O  O7  1  0.24050  0.24634  0.48105  1
 O  O8  1  0.75366  0.75950  0.01895  1
