CIF file written using JARVIS-Tools package.
data_BaMoIr2
_symmetry_space_group_name_H-M  'P4mm'
_cell_length_a       3.34504
_cell_length_b       3.34504
_cell_length_c       7.72951
_cell_angle_alpha    90
_cell_angle_beta     90
_cell_angle_gamma    90

_symmetry_Int_Tables_number  99
_chemical_formula_structural  BaMoIr2
_chemical_formula_sum  BaMoIr2
_cell_volume  86.48794737717455
_cell_formula_units_Z  1
loop_
  _symmetry_equiv_pos_site_id
 _symmetry_equiv_pos_as_xyz
 1  'x, y, z'
loop_
 _atom_site_type_symbol
 _atom_site_label
 _atom_site_symmetry_multiplicity
 _atom_site_fract_x
 _atom_site_fract_y
 _atom_site_fract_z
 _atom_site_fract_occupancy
 Ba  Ba1  1  0.50000  0.50000  0.76713  1
 Ir  Ir1  1  0.00000  0.00000  0.06562  1
 Ir  Ir2  1  0.50000  0.50000  0.26745  1
 Mo  Mo1  1  0.00000  0.00000  0.39979  1
