CIF file written using JARVIS-Tools package.
data_TbCuW2O8
_symmetry_space_group_name_H-M  'P-1'
_cell_length_a       7.05027
_cell_length_b       7.30365
_cell_length_c       7.36158
_cell_angle_alpha    114.458
_cell_angle_beta     115.796
_cell_angle_gamma    90.7091

_symmetry_Int_Tables_number  2
_chemical_formula_structural  TbCuW2O8
_chemical_formula_sum  Tb2Cu2W4O6
_cell_volume  301.9688835900732
_cell_formula_units_Z  2
loop_
  _symmetry_equiv_pos_site_id
 _symmetry_equiv_pos_as_xyz
 1  'x, y, z'
loop_
 _atom_site_type_symbol
 _atom_site_label
 _atom_site_symmetry_multiplicity
 _atom_site_fract_x
 _atom_site_fract_y
 _atom_site_fract_z
 _atom_site_fract_occupancy
 Cu  Cu1  1  0.27417  0.69422  0.07443  1
 Cu  Cu2  1  0.72583  0.30578  0.92557  1
 O  O1  1  0.71619  0.01925  0.50269  1
 O  O2  1  0.45233  0.54758  0.24673  1
 O  O3  1  0.03018  0.30654  0.08469  1
 O  O4  1  0.96982  0.69346  0.91531  1
 O  O5  1  0.17143  0.33217  0.77050  1
 O  O6  1  0.82857  0.66783  0.22950  1
 O  O7  1  0.82032  0.37127  0.44730  1
 O  O8  1  0.17968  0.62873  0.55269  1
 O  O9  1  0.61667  0.81630  0.73553  1
 O  O10  1  0.38333  0.18370  0.26447  1
 O  O11  1  0.51626  0.17172  0.98369  1
 O  O12  1  0.48374  0.82828  0.01631  1
 O  O13  1  0.86591  0.01787  0.20016  1
 O  O14  1  0.28381  0.98075  0.49731  1
 O  O15  1  0.13409  0.98213  0.79984  1
 O  O16  1  0.54767  0.45242  0.75326  1
 Tb  Tb1  1  0.17573  0.28312  0.44802  1
 Tb  Tb2  1  0.82427  0.71688  0.55198  1
 W  W1  1  0.65006  0.11081  0.29801  1
 W  W2  1  0.25392  0.29682  0.01969  1
 W  W3  1  0.74608  0.70318  0.98031  1
 W  W4  1  0.34994  0.88919  0.70199  1
