CIF file written using JARVIS-Tools package.
data_Li2MnF4
_symmetry_space_group_name_H-M  'Pbam'
_cell_length_a       3.25159
_cell_length_b       8.60524
_cell_length_c       8.61646
_cell_angle_alpha    90
_cell_angle_beta     90
_cell_angle_gamma    90

_symmetry_Int_Tables_number  55
_chemical_formula_structural  Li2MnF4
_chemical_formula_sum  Li4Mn2F8
_cell_volume  241.09492139840268
_cell_formula_units_Z  2
loop_
  _symmetry_equiv_pos_site_id
 _symmetry_equiv_pos_as_xyz
 1  'x, y, z'
loop_
 _atom_site_type_symbol
 _atom_site_label
 _atom_site_symmetry_multiplicity
 _atom_site_fract_x
 _atom_site_fract_y
 _atom_site_fract_z
 _atom_site_fract_occupancy
 F  F1  1  0.00000  0.11034  0.13608  1
 F  F2  1  0.50000  0.16963  0.42303  1
 F  F3  1  0.50000  0.32307  0.92335  1
 F  F4  1  0.00000  0.38211  0.63606  1
 F  F5  1  0.00000  0.61034  0.86392  1
 F  F6  1  0.50000  0.66963  0.57697  1
 F  F7  1  0.50000  0.82307  0.07665  1
 F  F8  1  0.00000  0.88211  0.36394  1
 Li  Li1  1  0.00000  0.25821  0.98836  1
 Li  Li2  1  0.00000  0.23457  0.48799  1
 Li  Li3  1  0.00000  0.75821  0.01164  1
 Li  Li4  1  0.00000  0.73457  0.51201  1
 Mn  Mn1  1  0.50000  0.99621  0.24997  1
 Mn  Mn2  1  0.50000  0.49621  0.75003  1
