CIF file written using JARVIS-Tools package.
data_K3AsS3
_symmetry_space_group_name_H-M  'P2_13'
_cell_length_a       9.3277
_cell_length_b       9.3277
_cell_length_c       9.3277
_cell_angle_alpha    90
_cell_angle_beta     90
_cell_angle_gamma    90

_symmetry_Int_Tables_number  198
_chemical_formula_structural  K3AsS3
_chemical_formula_sum  K2As4S2
_cell_volume  811.5649347072923
_cell_formula_units_Z  4
loop_
  _symmetry_equiv_pos_site_id
 _symmetry_equiv_pos_as_xyz
 1  'x, y, z'
loop_
 _atom_site_type_symbol
 _atom_site_label
 _atom_site_symmetry_multiplicity
 _atom_site_fract_x
 _atom_site_fract_y
 _atom_site_fract_z
 _atom_site_fract_occupancy
 As  As1  1  0.77520  0.72480  0.27520  1
 As  As2  1  0.22480  0.22480  0.22480  1
 As  As3  1  0.27520  0.77520  0.72480  1
 As  As4  1  0.72480  0.27520  0.77520  1
 K  K1  1  0.17651  0.82349  0.32349  1
 K  K2  1  0.32349  0.17651  0.82349  1
 K  K3  1  0.82349  0.32349  0.17651  1
 K  K4  1  0.67651  0.67651  0.67651  1
 K  K5  1  0.43907  0.43907  0.43907  1
 K  K6  1  0.06625  0.43375  0.56625  1
 K  K7  1  0.56625  0.06625  0.43375  1
 K  K8  1  0.93375  0.93375  0.93375  1
 K  K9  1  0.93907  0.06093  0.56093  1
 K  K10  1  0.56093  0.93907  0.06093  1
 K  K11  1  0.06093  0.56093  0.93907  1
 K  K12  1  0.43375  0.56625  0.06625  1
 S  S1  1  0.54069  0.74509  0.34877  1
 S  S2  1  0.45931  0.24509  0.15123  1
 S  S3  1  0.75491  0.65123  0.04069  1
 S  S4  1  0.25491  0.84877  0.95931  1
 S  S5  1  0.74509  0.34877  0.54069  1
 S  S6  1  0.84877  0.95931  0.25491  1
 S  S7  1  0.65123  0.04069  0.75491  1
 S  S8  1  0.34877  0.54069  0.74509  1
 S  S9  1  0.15123  0.45931  0.24509  1
 S  S10  1  0.95931  0.25491  0.84877  1
 S  S11  1  0.24509  0.15123  0.45931  1
 S  S12  1  0.04069  0.75491  0.65123  1
