CIF file written using JARVIS-Tools package.
data_HfBeRu
_symmetry_space_group_name_H-M  'I4mm'
_cell_length_a       4.92026
_cell_length_b       4.92026
_cell_length_c       4.92026
_cell_angle_alpha    142.654
_cell_angle_beta     142.654
_cell_angle_gamma    53.8444

_symmetry_Int_Tables_number  107
_chemical_formula_structural  HfBeRu
_chemical_formula_sum  HfBeRu
_cell_volume  43.545997594426126
_cell_formula_units_Z  1
loop_
  _symmetry_equiv_pos_site_id
 _symmetry_equiv_pos_as_xyz
 1  'x, y, z'
loop_
 _atom_site_type_symbol
 _atom_site_label
 _atom_site_symmetry_multiplicity
 _atom_site_fract_x
 _atom_site_fract_y
 _atom_site_fract_z
 _atom_site_fract_occupancy
 Be  Be1  1  0.02572  0.02572  -0.00000  1
 Hf  Hf1  1  0.33380  0.33380  -0.00000  1
 Ru  Ru1  1  0.64048  0.64048  0.00000  1
