CIF file written using JARVIS-Tools package.
data_DyAgSe2
_symmetry_space_group_name_H-M  'I4_1md'
_cell_length_a       5.66374
_cell_length_b       5.66374
_cell_length_c       7.34047
_cell_angle_alpha    112.693
_cell_angle_beta     112.693
_cell_angle_gamma    90

_symmetry_Int_Tables_number  109
_chemical_formula_structural  DyAgSe2
_chemical_formula_sum  Dy2Ag2Se4
_cell_volume  197.33420987282568
_cell_formula_units_Z  2
loop_
  _symmetry_equiv_pos_site_id
 _symmetry_equiv_pos_as_xyz
 1  'x, y, z'
loop_
 _atom_site_type_symbol
 _atom_site_label
 _atom_site_symmetry_multiplicity
 _atom_site_fract_x
 _atom_site_fract_y
 _atom_site_fract_z
 _atom_site_fract_occupancy
 Ag  Ag1  1  0.78675  0.28675  0.57351  1
 Ag  Ag2  1  0.53675  0.53675  0.07351  1
 Dy  Dy1  1  0.25212  0.75212  0.50423  1
 Dy  Dy2  1  0.00212  0.00212  0.00423  1
 Se  Se1  1  0.48368  0.98368  0.96735  1
 Se  Se2  1  0.23368  0.23368  0.46735  1
 Se  Se3  1  0.01745  0.51745  0.03491  1
 Se  Se4  1  0.76745  0.76745  0.53491  1
