CIF file written using JARVIS-Tools package.
data_Pu2SnPd2
_symmetry_space_group_name_H-M  'P4/mbm'
_cell_length_a       3.90882
_cell_length_b       7.59998
_cell_length_c       7.59998
_cell_angle_alpha    90
_cell_angle_beta     90
_cell_angle_gamma    90

_symmetry_Int_Tables_number  127
_chemical_formula_structural  Pu2SnPd2
_chemical_formula_sum  Pu4Sn2Pd4
_cell_volume  225.77211005793416
_cell_formula_units_Z  2
loop_
  _symmetry_equiv_pos_site_id
 _symmetry_equiv_pos_as_xyz
 1  'x, y, z'
loop_
 _atom_site_type_symbol
 _atom_site_label
 _atom_site_symmetry_multiplicity
 _atom_site_fract_x
 _atom_site_fract_y
 _atom_site_fract_z
 _atom_site_fract_occupancy
 Pd  Pd1  1  0.00000  0.37179  0.87179  1
 Pd  Pd2  1  0.00000  0.12821  0.37179  1
 Pd  Pd3  1  0.00000  0.87179  0.62821  1
 Pd  Pd4  1  0.00000  0.62821  0.12821  1
 Pu  Pu1  1  0.50000  0.17522  0.67522  1
 Pu  Pu2  1  0.50000  0.32478  0.17522  1
 Pu  Pu3  1  0.50000  0.82478  0.32478  1
 Pu  Pu4  1  0.50000  0.67522  0.82478  1
 Sn  Sn1  1  0.00000  0.50000  0.50000  1
 Sn  Sn2  1  0.00000  0.00000  0.00000  1
