CIF file written using JARVIS-Tools package.
data_KLi2As
_symmetry_space_group_name_H-M  'Pmmn'
_cell_length_a       4.431
_cell_length_b       6.26197
_cell_length_c       6.62053
_cell_angle_alpha    90
_cell_angle_beta     90
_cell_angle_gamma    90

_symmetry_Int_Tables_number  59
_chemical_formula_structural  KLi2As
_chemical_formula_sum  K2Li4As2
_cell_volume  183.69868385487288
_cell_formula_units_Z  2
loop_
  _symmetry_equiv_pos_site_id
 _symmetry_equiv_pos_as_xyz
 1  'x, y, z'
loop_
 _atom_site_type_symbol
 _atom_site_label
 _atom_site_symmetry_multiplicity
 _atom_site_fract_x
 _atom_site_fract_y
 _atom_site_fract_z
 _atom_site_fract_occupancy
 As  As1  1  0.00000  0.66434  0.50000  1
 As  As2  1  0.50000  0.33566  0.00000  1
 K  K1  1  0.00000  0.90147  0.00000  1
 K  K2  1  0.50000  0.09853  0.50000  1
 Li  Li1  1  0.00000  0.40326  0.80352  1
 Li  Li2  1  0.00000  0.40326  0.19648  1
 Li  Li3  1  0.50000  0.59674  0.30352  1
 Li  Li4  1  0.50000  0.59674  0.69648  1
