CIF file written using JARVIS-Tools package.
data_K2BaZn
_symmetry_space_group_name_H-M  'P4mm'
_cell_length_a       4.23087
_cell_length_b       4.23087
_cell_length_c       11.0154
_cell_angle_alpha    90
_cell_angle_beta     90
_cell_angle_gamma    90

_symmetry_Int_Tables_number  99
_chemical_formula_structural  K2BaZn
_chemical_formula_sum  K2BaZn
_cell_volume  197.17893226743377
_cell_formula_units_Z  1
loop_
  _symmetry_equiv_pos_site_id
 _symmetry_equiv_pos_as_xyz
 1  'x, y, z'
loop_
 _atom_site_type_symbol
 _atom_site_label
 _atom_site_symmetry_multiplicity
 _atom_site_fract_x
 _atom_site_fract_y
 _atom_site_fract_z
 _atom_site_fract_occupancy
 Ba  Ba1  1  0.50000  0.50000  0.67175  1
 K  K1  1  0.00000  0.00000  0.98976  1
 K  K2  1  0.50000  0.50000  0.31849  1
 Zn  Zn1  1  0.00000  0.00000  0.52000  1
