CIF file written using JARVIS-Tools package.
data_B3Ru2
_symmetry_space_group_name_H-M  'P6_3/mmc'
_cell_length_a       2.83144
_cell_length_b       2.83146
_cell_length_c       13.5915
_cell_angle_alpha    90
_cell_angle_beta     90
_cell_angle_gamma    120

_symmetry_Int_Tables_number  194
_chemical_formula_structural  B3Ru2
_chemical_formula_sum  B6Ru4
_cell_volume  94.36628259689813
_cell_formula_units_Z  2
loop_
  _symmetry_equiv_pos_site_id
 _symmetry_equiv_pos_as_xyz
 1  'x, y, z'
loop_
 _atom_site_type_symbol
 _atom_site_label
 _atom_site_symmetry_multiplicity
 _atom_site_fract_x
 _atom_site_fract_y
 _atom_site_fract_z
 _atom_site_fract_occupancy
 B  B1  1  0.66670  0.33339  0.80950  1
 B  B2  1  0.33330  0.66661  0.30950  1
 B  B3  1  0.33330  0.66661  0.19050  1
 B  B4  1  0.66670  0.33339  0.69050  1
 B  B5  1  0.99997  0.99994  0.25000  1
 B  B6  1  0.00003  0.00006  0.75000  1
 Ru  Ru1  1  0.66665  0.33329  0.42105  1
 Ru  Ru2  1  0.33335  0.66671  0.92105  1
 Ru  Ru3  1  0.33335  0.66671  0.57895  1
 Ru  Ru4  1  0.66665  0.33329  0.07895  1
