CIF file written using JARVIS-Tools package.
data_BN
_symmetry_space_group_name_H-M  'R3m'
_cell_length_a       3.58438
_cell_length_b       3.58438
_cell_length_c       3.58439
_cell_angle_alpha    41.0241
_cell_angle_beta     41.024
_cell_angle_gamma    41.0241

_symmetry_Int_Tables_number  160
_chemical_formula_structural  BN
_chemical_formula_sum  BN
_cell_volume  17.912162547883746
_cell_formula_units_Z  1
loop_
  _symmetry_equiv_pos_site_id
 _symmetry_equiv_pos_as_xyz
 1  'x, y, z'
loop_
 _atom_site_type_symbol
 _atom_site_label
 _atom_site_symmetry_multiplicity
 _atom_site_fract_x
 _atom_site_fract_y
 _atom_site_fract_z
 _atom_site_fract_occupancy
 B  B1  1  0.99972  0.99972  0.99972  1
 N  N1  1  0.33272  0.33272  0.33272  1
