CIF file written using JARVIS-Tools package.
data_KAlH6O2F6
_symmetry_space_group_name_H-M  'Pa-3'
_cell_length_a       8.65446
_cell_length_b       8.65446
_cell_length_c       8.65446
_cell_angle_alpha    90
_cell_angle_beta     90
_cell_angle_gamma    90

_symmetry_Int_Tables_number  205
_chemical_formula_structural  KAlH6O2F6
_chemical_formula_sum  K4Al4H24O8F24
_cell_volume  648.2156244704178
_cell_formula_units_Z  4
loop_
  _symmetry_equiv_pos_site_id
 _symmetry_equiv_pos_as_xyz
 1  'x, y, z'
loop_
 _atom_site_type_symbol
 _atom_site_label
 _atom_site_symmetry_multiplicity
 _atom_site_fract_x
 _atom_site_fract_y
 _atom_site_fract_z
 _atom_site_fract_occupancy
 Al  Al1  1  0.50000  0.00000  0.00000  1
 Al  Al2  1  0.00000  0.00000  0.50000  1
 Al  Al3  1  0.50000  0.50000  0.50000  1
 Al  Al4  1  0.00000  0.50000  0.00000  1
 F  F1  1  0.69780  0.04812  0.05929  1
 F  F2  1  0.80220  0.95188  0.55929  1
 F  F3  1  0.19780  0.45188  0.94071  1
 F  F4  1  0.04812  0.05929  0.69780  1
 F  F5  1  0.54812  0.44071  0.30220  1
 F  F6  1  0.45188  0.94071  0.19780  1
 F  F7  1  0.95188  0.55929  0.80220  1
 F  F8  1  0.05929  0.69780  0.04812  1
 F  F9  1  0.44071  0.30220  0.54812  1
 F  F10  1  0.94071  0.19780  0.45188  1
 F  F11  1  0.55929  0.80220  0.95188  1
 F  F12  1  0.30220  0.95188  0.94071  1
 F  F13  1  0.80220  0.54812  0.05929  1
 F  F14  1  0.69780  0.45188  0.55929  1
 F  F15  1  0.19780  0.04812  0.44071  1
 F  F16  1  0.95188  0.94071  0.30220  1
 F  F17  1  0.45188  0.55929  0.69780  1
 F  F18  1  0.54812  0.05929  0.80220  1
 F  F19  1  0.04812  0.44071  0.19780  1
 F  F20  1  0.94071  0.30220  0.95188  1
 F  F21  1  0.55929  0.69780  0.45188  1
 F  F22  1  0.44071  0.19780  0.04812  1
 F  F23  1  0.30220  0.54812  0.44071  1
 F  F24  1  0.05929  0.80220  0.54812  1
 H  H1  1  0.30058  0.20231  0.13788  1
 H  H2  1  0.29769  0.86212  0.80058  1
 H  H3  1  0.69942  0.70231  0.36212  1
 H  H4  1  0.30058  0.29769  0.63788  1
 H  H5  1  0.19942  0.70231  0.13788  1
 H  H6  1  0.86212  0.69942  0.79769  1
 H  H7  1  0.36212  0.80058  0.20231  1
 H  H8  1  0.20231  0.36212  0.80058  1
 H  H9  1  0.13788  0.19942  0.70231  1
 H  H10  1  0.79769  0.86212  0.69942  1
 H  H11  1  0.80058  0.20231  0.36212  1
 H  H12  1  0.29769  0.63788  0.30058  1
 H  H13  1  0.63788  0.30058  0.29769  1
 H  H14  1  0.69942  0.79769  0.86212  1
 H  H15  1  0.70231  0.13788  0.19942  1
 H  H16  1  0.19942  0.79769  0.63788  1
 H  H17  1  0.79769  0.63788  0.19942  1
 H  H18  1  0.70231  0.36212  0.69942  1
 H  H19  1  0.86212  0.80058  0.29769  1
 H  H20  1  0.36212  0.69942  0.70231  1
 H  H21  1  0.63788  0.19942  0.79769  1
 H  H22  1  0.13788  0.30058  0.20231  1
 H  H23  1  0.80058  0.29769  0.86212  1
 H  H24  1  0.20231  0.13788  0.30058  1
 K  K1  1  0.50000  0.00000  0.50000  1
 K  K2  1  0.00000  0.50000  0.50000  1
 K  K3  1  0.50000  0.50000  0.00000  1
 K  K4  1  0.00000  0.00000  0.00000  1
 O  O1  1  0.19627  0.30373  0.69627  1
 O  O2  1  0.30373  0.69627  0.19627  1
 O  O3  1  0.69627  0.30373  0.80373  1
 O  O4  1  0.80373  0.69627  0.30373  1
 O  O5  1  0.30373  0.80373  0.69627  1
 O  O6  1  0.19627  0.19627  0.19627  1
 O  O7  1  0.69627  0.19627  0.30373  1
 O  O8  1  0.80373  0.80373  0.80373  1
