CIF file written using JARVIS-Tools package.
data_BeBiMo
_symmetry_space_group_name_H-M  'I4mm'
_cell_length_a       5.32722
_cell_length_b       5.32722
_cell_length_c       5.32722
_cell_angle_alpha    143.637
_cell_angle_beta     143.637
_cell_angle_gamma    52.37

_symmetry_Int_Tables_number  107
_chemical_formula_structural  BeBiMo
_chemical_formula_sum  BeBiMo
_cell_volume  52.834508731478685
_cell_formula_units_Z  1
loop_
  _symmetry_equiv_pos_site_id
 _symmetry_equiv_pos_as_xyz
 1  'x, y, z'
loop_
 _atom_site_type_symbol
 _atom_site_label
 _atom_site_symmetry_multiplicity
 _atom_site_fract_x
 _atom_site_fract_y
 _atom_site_fract_z
 _atom_site_fract_occupancy
 Be  Be1  1  0.04771  0.04771  0.00000  1
 Bi  Bi1  1  0.32479  0.32479  -0.00000  1
 Mo  Mo1  1  0.62750  0.62750  -0.00000  1
