CIF file written using JARVIS-Tools package.
data_BaTl2Bi
_symmetry_space_group_name_H-M  'P4/mmm'
_cell_length_a       4.24495
_cell_length_b       4.24495
_cell_length_c       7.55285
_cell_angle_alpha    90
_cell_angle_beta     90
_cell_angle_gamma    90

_symmetry_Int_Tables_number  123
_chemical_formula_structural  BaTl2Bi
_chemical_formula_sum  BaTl2Bi
_cell_volume  136.0994932339373
_cell_formula_units_Z  1
loop_
  _symmetry_equiv_pos_site_id
 _symmetry_equiv_pos_as_xyz
 1  'x, y, z'
loop_
 _atom_site_type_symbol
 _atom_site_label
 _atom_site_symmetry_multiplicity
 _atom_site_fract_x
 _atom_site_fract_y
 _atom_site_fract_z
 _atom_site_fract_occupancy
 Ba  Ba1  1  0.50000  0.50000  0.00000  1
 Bi  Bi1  1  0.50000  0.50000  0.50000  1
 Tl  Tl1  1  0.00000  0.00000  0.71090  1
 Tl  Tl2  1  0.00000  0.00000  0.28910  1
