CIF file written using JARVIS-Tools package.
data_SbCl4F
_symmetry_space_group_name_H-M  'I-4'
_cell_length_a       7.78361
_cell_length_b       9.87647
_cell_length_c       9.87647
_cell_angle_alpha    81.0673
_cell_angle_beta     66.7934
_cell_angle_gamma    66.7934

_symmetry_Int_Tables_number  82
_chemical_formula_structural  SbCl4F
_chemical_formula_sum  Sb4Cl6F4
_cell_volume  641.3575942562062
_cell_formula_units_Z  4
loop_
  _symmetry_equiv_pos_site_id
 _symmetry_equiv_pos_as_xyz
 1  'x, y, z'
loop_
 _atom_site_type_symbol
 _atom_site_label
 _atom_site_symmetry_multiplicity
 _atom_site_fract_x
 _atom_site_fract_y
 _atom_site_fract_z
 _atom_site_fract_occupancy
 Cl  Cl1  1  0.55602  0.31404  0.43053  1
 Cl  Cl2  1  0.03527  0.26968  0.19653  1
 Cl  Cl3  1  0.26099  0.08887  0.48357  1
 Cl  Cl4  1  0.25544  0.48357  0.91113  1
 Cl  Cl5  1  0.83343  0.91113  0.51643  1
 Cl  Cl6  1  0.69505  0.80347  0.26968  1
 Cl  Cl7  1  0.01345  0.43053  0.68596  1
 Cl  Cl8  1  0.12993  0.56947  0.31404  1
 Cl  Cl9  1  0.30059  0.68596  0.56947  1
 Cl  Cl10  1  0.36098  0.12731  0.78763  1
 Cl  Cl11  1  0.85139  0.78763  0.87269  1
 Cl  Cl12  1  0.51172  0.21237  0.12731  1
 Cl  Cl13  1  0.27592  0.87269  0.21237  1
 Cl  Cl14  1  0.65014  0.51643  0.08887  1
 Cl  Cl15  1  0.50149  0.73032  0.80347  1
 Cl  Cl16  1  0.76819  0.19653  0.73032  1
 F  F1  1  0.09304  0.79448  0.04305  1
 F  F2  1  0.93056  0.20552  0.95695  1
 F  F3  1  0.11248  0.95695  0.79448  1
 F  F4  1  0.86391  0.04305  0.20552  1
 Sb  Sb1  1  0.19526  0.72422  0.82206  1
 Sb  Sb2  1  0.98269  0.82206  0.27578  1
 Sb  Sb3  1  0.74153  0.27578  0.17794  1
 Sb  Sb4  1  0.08052  0.17794  0.72422  1
