CIF file written using JARVIS-Tools package.
data_V2WO6
_symmetry_space_group_name_H-M  'P4_2/mnm'
_cell_length_a       4.6648
_cell_length_b       4.6648
_cell_length_c       8.82096
_cell_angle_alpha    90
_cell_angle_beta     90
_cell_angle_gamma    90

_symmetry_Int_Tables_number  136
_chemical_formula_structural  V2WO6
_chemical_formula_sum  V4W2O2
_cell_volume  191.9477003152373
_cell_formula_units_Z  2
loop_
  _symmetry_equiv_pos_site_id
 _symmetry_equiv_pos_as_xyz
 1  'x, y, z'
loop_
 _atom_site_type_symbol
 _atom_site_label
 _atom_site_symmetry_multiplicity
 _atom_site_fract_x
 _atom_site_fract_y
 _atom_site_fract_z
 _atom_site_fract_occupancy
 O  O1  1  0.20107  0.79893  0.83714  1
 O  O2  1  0.29893  0.29893  0.66286  1
 O  O3  1  0.70106  0.70106  0.33714  1
 O  O4  1  0.20107  0.79893  0.16286  1
 O  O5  1  0.79893  0.20107  0.16286  1
 O  O6  1  0.79893  0.20107  0.83714  1
 O  O7  1  0.29747  0.29747  0.00000  1
 O  O8  1  0.70106  0.70106  0.66286  1
 O  O9  1  0.79747  0.20253  0.50000  1
 O  O10  1  0.29893  0.29893  0.33714  1
 O  O11  1  0.70253  0.70253  0.00000  1
 O  O12  1  0.20253  0.79747  0.50000  1
 V  V1  1  0.00000  0.00000  0.66657  1
 V  V2  1  0.50000  0.50000  0.16657  1
 V  V3  1  0.50000  0.50000  0.83343  1
 V  V4  1  0.00000  0.00000  0.33343  1
 W  W1  1  0.50000  0.50000  0.50000  1
 W  W2  1  0.00000  0.00000  0.00000  1
