CIF file written using JARVIS-Tools package.
data_TeAsRu
_symmetry_space_group_name_H-M  'P2_1/c'
_cell_length_a       6.4539
_cell_length_b       6.38112
_cell_length_c       6.49915
_cell_angle_alpha    90
_cell_angle_beta     113.616
_cell_angle_gamma    90

_symmetry_Int_Tables_number  14
_chemical_formula_structural  TeAsRu
_chemical_formula_sum  Te4As4Ru4
_cell_volume  245.23833098074255
_cell_formula_units_Z  4
loop_
  _symmetry_equiv_pos_site_id
 _symmetry_equiv_pos_as_xyz
 1  'x, y, z'
loop_
 _atom_site_type_symbol
 _atom_site_label
 _atom_site_symmetry_multiplicity
 _atom_site_fract_x
 _atom_site_fract_y
 _atom_site_fract_z
 _atom_site_fract_occupancy
 As  As1  1  0.35395  0.64492  0.16823  1
 As  As2  1  0.64605  0.14492  0.33177  1
 As  As3  1  0.64605  0.35508  0.83177  1
 As  As4  1  0.35395  0.85508  0.66823  1
 Ru  Ru1  1  0.28479  0.99113  0.29416  1
 Ru  Ru2  1  0.71521  0.49113  0.20584  1
 Ru  Ru3  1  0.71521  0.00887  0.70584  1
 Ru  Ru4  1  0.28479  0.50887  0.79416  1
 Te  Te1  1  0.15552  0.37440  0.36571  1
 Te  Te2  1  0.84448  0.87440  0.13429  1
 Te  Te3  1  0.84448  0.62560  0.63429  1
 Te  Te4  1  0.15552  0.12560  0.86571  1
