CIF file written using JARVIS-Tools package.
data_CuBi2O4
_symmetry_space_group_name_H-M  'I4cm'
_cell_length_a       5.55321
_cell_length_b       6.83839
_cell_length_c       6.83839
_cell_angle_alpha    80.5108
_cell_angle_beta     66.0442
_cell_angle_gamma    66.0442

_symmetry_Int_Tables_number  108
_chemical_formula_structural  CuBi2O4
_chemical_formula_sum  Cu2Bi4O8
_cell_volume  216.87537206754791
_cell_formula_units_Z  2
loop_
  _symmetry_equiv_pos_site_id
 _symmetry_equiv_pos_as_xyz
 1  'x, y, z'
loop_
 _atom_site_type_symbol
 _atom_site_label
 _atom_site_symmetry_multiplicity
 _atom_site_fract_x
 _atom_site_fract_y
 _atom_site_fract_z
 _atom_site_fract_occupancy
 Bi  Bi1  1  0.65622  0.50005  0.16425  1
 Bi  Bi2  1  0.82047  0.83575  0.50005  1
 Bi  Bi3  1  0.15628  0.16425  0.49995  1
 Bi  Bi4  1  0.32053  0.49995  0.83575  1
 Cu  Cu1  1  0.68008  -0.00000  0.00000  1
 Cu  Cu2  1  0.18003  -0.00000  0.00000  1
 O  O1  1  0.76379  0.09157  0.70428  1
 O  O2  1  0.35532  0.90850  0.70427  1
 O  O3  1  0.55964  0.90843  0.29572  1
 O  O4  1  0.46807  0.29572  0.09157  1
 O  O5  1  0.05960  0.29573  0.90850  1
 O  O6  1  0.96809  0.09150  0.29573  1
 O  O7  1  0.85536  0.70428  0.90843  1
 O  O8  1  0.26382  0.70427  0.09150  1
