CIF file written using JARVIS-Tools package.
data_Rb3Mn2Cl7
_symmetry_space_group_name_H-M  'I4/mmm'
_cell_length_a       4.80132
_cell_length_b       4.80133
_cell_length_c       15.8011
_cell_angle_alpha    98.7388
_cell_angle_beta     98.7389
_cell_angle_gamma    89.9999

_symmetry_Int_Tables_number  139
_chemical_formula_structural  Rb3Mn2Cl7
_chemical_formula_sum  Rb3Mn2Cl7
_cell_volume  355.75060117477926
_cell_formula_units_Z  1
loop_
  _symmetry_equiv_pos_site_id
 _symmetry_equiv_pos_as_xyz
 1  'x, y, z'
loop_
 _atom_site_type_symbol
 _atom_site_label
 _atom_site_symmetry_multiplicity
 _atom_site_fract_x
 _atom_site_fract_y
 _atom_site_fract_z
 _atom_site_fract_occupancy
 Cl  Cl1  1  0.70547  0.70547  0.41094  1
 Cl  Cl2  1  0.11130  0.61130  0.22259  1
 Cl  Cl3  1  0.38870  0.88870  0.77741  1
 Cl  Cl4  1  0.88870  0.38870  0.77741  1
 Cl  Cl5  1  0.29453  0.29453  0.58906  1
 Cl  Cl6  1  0.00000  0.00000  0.00000  1
 Cl  Cl7  1  0.61130  0.11130  0.22259  1
 Mn  Mn1  1  0.37284  0.37284  0.74567  1
 Mn  Mn2  1  0.62716  0.62716  0.25433  1
 Rb  Rb1  1  0.18750  0.18750  0.37501  1
 Rb  Rb2  1  0.81250  0.81250  0.62499  1
 Rb  Rb3  1  0.50000  0.50000  -0.00000  1
