CIF file written using JARVIS-Tools package.
data_Fe4O5F3
_symmetry_space_group_name_H-M  'P2_1'
_cell_length_a       5.8637
_cell_length_b       4.57505
_cell_length_c       9.59104
_cell_angle_alpha    90
_cell_angle_beta     107.876
_cell_angle_gamma    90

_symmetry_Int_Tables_number  4
_chemical_formula_structural  Fe4O5F3
_chemical_formula_sum  Fe8O0F6
_cell_volume  244.87453729072323
_cell_formula_units_Z  2
loop_
  _symmetry_equiv_pos_site_id
 _symmetry_equiv_pos_as_xyz
 1  'x, y, z'
loop_
 _atom_site_type_symbol
 _atom_site_label
 _atom_site_symmetry_multiplicity
 _atom_site_fract_x
 _atom_site_fract_y
 _atom_site_fract_z
 _atom_site_fract_occupancy
 F  F1  1  0.62250  0.17123  0.98054  1
 F  F2  1  0.13504  0.73825  0.51737  1
 F  F3  1  0.37750  0.67123  0.01946  1
 F  F4  1  0.25665  0.77008  0.26123  1
 F  F5  1  0.86496  0.23825  0.48263  1
 F  F6  1  0.74335  0.27008  0.73877  1
 Fe  Fe1  1  0.55314  0.01145  0.37425  1
 Fe  Fe2  1  0.17431  0.45289  0.11492  1
 Fe  Fe3  1  0.06936  0.03032  0.36766  1
 Fe  Fe4  1  0.29810  0.01799  0.85269  1
 Fe  Fe5  1  0.70190  0.51799  0.14731  1
 Fe  Fe6  1  0.44686  0.51145  0.62575  1
 Fe  Fe7  1  0.93064  0.53032  0.63234  1
 Fe  Fe8  1  0.82569  0.95289  0.88508  1
 O  O1  1  0.11003  0.17578  0.97512  1
 O  O2  1  0.36194  0.20945  0.47061  1
 O  O3  1  0.47657  0.29506  0.22195  1
 O  O4  1  0.23104  0.33273  0.71389  1
 O  O5  1  0.63806  0.70945  0.52939  1
 O  O6  1  0.52343  0.79506  0.77805  1
 O  O7  1  0.00459  0.79478  0.77862  1
 O  O8  1  0.76896  0.83273  0.28611  1
 O  O9  1  0.88997  0.67578  0.02488  1
 O  O10  1  0.99541  0.29478  0.22138  1
