CIF file written using JARVIS-Tools package.
data_Na4BeAlSi4ClO12
_symmetry_space_group_name_H-M  'I-4'
_cell_length_a       7.58788
_cell_length_b       7.58788
_cell_length_c       7.58788
_cell_angle_alpha    110.304
_cell_angle_beta     110.304
_cell_angle_gamma    107.818

_symmetry_Int_Tables_number  82
_chemical_formula_structural  Na4BeAlSi4ClO12
_chemical_formula_sum  Na4BeAlSi4ClO2
_cell_volume  336.1012252804501
_cell_formula_units_Z  1
loop_
  _symmetry_equiv_pos_site_id
 _symmetry_equiv_pos_as_xyz
 1  'x, y, z'
loop_
 _atom_site_type_symbol
 _atom_site_label
 _atom_site_symmetry_multiplicity
 _atom_site_fract_x
 _atom_site_fract_y
 _atom_site_fract_z
 _atom_site_fract_occupancy
 Al  Al1  1  0.25000  0.75000  0.50000  1
 Be  Be1  1  0.75000  0.25000  0.50000  1
 Cl  Cl1  1  0.00000  0.00000  0.00000  1
 Na  Na1  1  0.97195  0.01480  0.34904  1
 Na  Na2  1  0.66575  0.62291  0.65096  1
 Na  Na3  1  0.37709  0.02805  0.04285  1
 Na  Na4  1  0.98520  0.33425  0.95715  1
 O  O1  1  0.71163  0.69382  0.28306  1
 O  O2  1  0.99009  0.55662  0.27290  1
 O  O3  1  0.28371  0.71718  0.72710  1
 O  O4  1  0.44338  0.71629  0.43347  1
 O  O5  1  0.28282  0.00991  0.56653  1
 O  O6  1  0.60774  0.99692  0.30663  1
 O  O7  1  0.69029  0.30111  0.69337  1
 O  O8  1  0.30618  0.58924  0.01780  1
 O  O9  1  0.41076  0.42856  0.71694  1
 O  O10  1  0.57144  0.28837  0.98220  1
 O  O11  1  0.00308  0.30971  0.61082  1
 O  O12  1  0.69889  0.39226  0.38918  1
 Si  Si1  1  0.24160  0.50957  0.75988  1
 Si  Si2  1  0.74969  0.48172  0.24012  1
 Si  Si3  1  0.51828  0.75840  0.26797  1
 Si  Si4  1  0.49043  0.25031  0.73203  1
