CIF file written using JARVIS-Tools package.
data_Li5Fe4O8
_symmetry_space_group_name_H-M  'R3m'
_cell_length_a       5.80679
_cell_length_b       5.8068
_cell_length_c       5.8068
_cell_angle_alpha    59.3937
_cell_angle_beta     59.3936
_cell_angle_gamma    59.3937

_symmetry_Int_Tables_number  160
_chemical_formula_structural  Li5Fe4O8
_chemical_formula_sum  Li5Fe4O8
_cell_volume  136.54028029456697
_cell_formula_units_Z  1
loop_
  _symmetry_equiv_pos_site_id
 _symmetry_equiv_pos_as_xyz
 1  'x, y, z'
loop_
 _atom_site_type_symbol
 _atom_site_label
 _atom_site_symmetry_multiplicity
 _atom_site_fract_x
 _atom_site_fract_y
 _atom_site_fract_z
 _atom_site_fract_occupancy
 Fe  Fe1  1  0.98658  0.49102  0.49102  1
 Fe  Fe2  1  0.98112  0.98112  0.98112  1
 Fe  Fe3  1  0.49102  0.49102  0.98658  1
 Fe  Fe4  1  0.49102  0.98658  0.49102  1
 Li  Li1  1  0.96478  0.55352  0.96478  1
 Li  Li2  1  0.55352  0.96478  0.96478  1
 Li  Li3  1  0.12818  0.12818  0.12818  1
 Li  Li4  1  0.96478  0.96478  0.55352  1
 Li  Li5  1  0.48721  0.48721  0.48721  1
 O  O1  1  0.74511  0.25015  0.74511  1
 O  O2  1  0.74511  0.74511  0.25015  1
 O  O3  1  0.25199  0.25199  0.25199  1
 O  O4  1  0.22705  0.22705  0.73725  1
 O  O5  1  0.22705  0.73725  0.22705  1
 O  O6  1  0.73725  0.22705  0.22705  1
 O  O7  1  0.25015  0.74511  0.74511  1
 O  O8  1  0.73178  0.73178  0.73178  1
