CIF file written using JARVIS-Tools package.
data_SiI3
_symmetry_space_group_name_H-M  'R-3'
_cell_length_a       7.16985
_cell_length_b       7.16985
_cell_length_c       8.47675
_cell_angle_alpha    64.9814
_cell_angle_beta     64.9814
_cell_angle_gamma    60

_symmetry_Int_Tables_number  148
_chemical_formula_structural  SiI3
_chemical_formula_sum  Si2I6
_cell_volume  329.3234952909245
_cell_formula_units_Z  2
loop_
  _symmetry_equiv_pos_site_id
 _symmetry_equiv_pos_as_xyz
 1  'x, y, z'
loop_
 _atom_site_type_symbol
 _atom_site_label
 _atom_site_symmetry_multiplicity
 _atom_site_fract_x
 _atom_site_fract_y
 _atom_site_fract_z
 _atom_site_fract_occupancy
 I  I1  1  0.09141  0.75559  0.74073  1
 I  I2  1  0.75559  0.41227  0.74073  1
 I  I3  1  0.41227  0.09141  0.74073  1
 I  I4  1  0.90859  0.24441  0.25927  1
 I  I5  1  0.24441  0.58773  0.25927  1
 I  I6  1  0.58773  0.90859  0.25927  1
 Si  Si1  1  0.05317  0.05317  0.84048  1
 Si  Si2  1  0.94683  0.94683  0.15952  1
