CIF file written using JARVIS-Tools package.
data_BaCoNi2
_symmetry_space_group_name_H-M  'I4/mmm'
_cell_length_a       4.89189
_cell_length_b       4.89189
_cell_length_c       4.89189
_cell_angle_alpha    127.654
_cell_angle_beta     127.654
_cell_angle_gamma    77.1866

_symmetry_Int_Tables_number  139
_chemical_formula_structural  BaCoNi2
_chemical_formula_sum  BaCoNi2
_cell_volume  71.20580682895701
_cell_formula_units_Z  1
loop_
  _symmetry_equiv_pos_site_id
 _symmetry_equiv_pos_as_xyz
 1  'x, y, z'
loop_
 _atom_site_type_symbol
 _atom_site_label
 _atom_site_symmetry_multiplicity
 _atom_site_fract_x
 _atom_site_fract_y
 _atom_site_fract_z
 _atom_site_fract_occupancy
 Ba  Ba1  1  0.25000  0.75000  0.50000  1
 Co  Co1  1  0.75000  0.25000  0.50000  1
 Ni  Ni1  1  0.00000  0.00000  0.00000  1
 Ni  Ni2  1  0.50000  0.50000  0.00000  1
