CIF file written using JARVIS-Tools package.
data_NiB2W2
_symmetry_space_group_name_H-M  'Immm'
_cell_length_a       4.52413
_cell_length_b       4.52413
_cell_length_c       4.52413
_cell_angle_alpha    138.439
_cell_angle_beta     119.226
_cell_angle_gamma    76.3195

_symmetry_Int_Tables_number  71
_chemical_formula_structural  NiB2W2
_chemical_formula_sum  NiB2W2
_cell_volume  52.26714438200332
_cell_formula_units_Z  1
loop_
  _symmetry_equiv_pos_site_id
 _symmetry_equiv_pos_as_xyz
 1  'x, y, z'
loop_
 _atom_site_type_symbol
 _atom_site_label
 _atom_site_symmetry_multiplicity
 _atom_site_fract_x
 _atom_site_fract_y
 _atom_site_fract_z
 _atom_site_fract_occupancy
 B  B1  1  0.70122  0.50000  0.20122  1
 B  B2  1  0.29878  0.50000  0.79878  1
 Ni  Ni1  1  0.00000  0.00000  0.00000  1
 W  W1  1  0.70064  0.20064  0.50000  1
 W  W2  1  0.29936  0.79936  0.50000  1
