CIF file written using JARVIS-Tools package.
data_TlCo2Se2
_symmetry_space_group_name_H-M  'I4/mmm'
_cell_length_a       3.84854
_cell_length_b       3.84854
_cell_length_c       7.28312
_cell_angle_alpha    105.32
_cell_angle_beta     105.32
_cell_angle_gamma    90

_symmetry_Int_Tables_number  139
_chemical_formula_structural  TlCo2Se2
_chemical_formula_sum  TlCo2Se2
_cell_volume  100.05915888978807
_cell_formula_units_Z  1
loop_
  _symmetry_equiv_pos_site_id
 _symmetry_equiv_pos_as_xyz
 1  'x, y, z'
loop_
 _atom_site_type_symbol
 _atom_site_label
 _atom_site_symmetry_multiplicity
 _atom_site_fract_x
 _atom_site_fract_y
 _atom_site_fract_z
 _atom_site_fract_occupancy
 Co  Co1  1  0.25000  0.75000  0.50000  1
 Co  Co2  1  0.75000  0.25000  0.50000  1
 Se  Se1  1  0.65092  0.65092  0.30185  1
 Se  Se2  1  0.34908  0.34908  0.69815  1
 Tl  Tl1  1  0.00000  0.00000  0.00000  1
