CIF file written using JARVIS-Tools package.
data_NbCrN2
_symmetry_space_group_name_H-M  'P4/nmm'
_cell_length_a       3.20734
_cell_length_b       3.20734
_cell_length_c       8.31928
_cell_angle_alpha    90
_cell_angle_beta     90
_cell_angle_gamma    90

_symmetry_Int_Tables_number  129
_chemical_formula_structural  NbCrN2
_chemical_formula_sum  Nb2Cr2N4
_cell_volume  85.58081397776999
_cell_formula_units_Z  2
loop_
  _symmetry_equiv_pos_site_id
 _symmetry_equiv_pos_as_xyz
 1  'x, y, z'
loop_
 _atom_site_type_symbol
 _atom_site_label
 _atom_site_symmetry_multiplicity
 _atom_site_fract_x
 _atom_site_fract_y
 _atom_site_fract_z
 _atom_site_fract_occupancy
 Cr  Cr1  1  0.00000  0.50000  0.12379  1
 Cr  Cr2  1  0.50000  0.00000  0.87621  1
 N  N1  1  0.00000  0.50000  0.35474  1
 N  N2  1  0.50000  0.00000  0.64526  1
 N  N3  1  0.50000  0.50000  0.00000  1
 N  N4  1  0.00000  0.00000  0.00000  1
 Nb  Nb1  1  0.00000  0.50000  0.62041  1
 Nb  Nb2  1  0.50000  0.00000  0.37959  1
