CIF file written using JARVIS-Tools package.
data_Rb2FeI4
_symmetry_space_group_name_H-M  'P2_1'
_cell_length_a       7.56462
_cell_length_b       8.01238
_cell_length_c       10.3265
_cell_angle_alpha    90
_cell_angle_beta     109.782
_cell_angle_gamma    90

_symmetry_Int_Tables_number  4
_chemical_formula_structural  Rb2FeI4
_chemical_formula_sum  Rb4Fe2I8
_cell_volume  588.9587333977037
_cell_formula_units_Z  2
loop_
  _symmetry_equiv_pos_site_id
 _symmetry_equiv_pos_as_xyz
 1  'x, y, z'
loop_
 _atom_site_type_symbol
 _atom_site_label
 _atom_site_symmetry_multiplicity
 _atom_site_fract_x
 _atom_site_fract_y
 _atom_site_fract_z
 _atom_site_fract_occupancy
 Fe  Fe1  1  0.80182  0.74387  0.21428  1
 Fe  Fe2  1  0.19818  0.24387  0.78572  1
 I  I1  1  0.63230  0.74359  0.94506  1
 I  I2  1  0.58212  0.74376  0.36225  1
 I  I3  1  0.02915  0.48805  0.27992  1
 I  I4  1  0.36770  0.24359  0.05494  1
 I  I5  1  0.97172  0.50030  0.72037  1
 I  I6  1  0.41788  0.24376  0.63775  1
 I  I7  1  0.97085  0.98805  0.72008  1
 I  I8  1  0.02828  0.00030  0.27963  1
 Rb  Rb1  1  0.19895  0.74454  0.03734  1
 Rb  Rb2  1  0.29753  0.74460  0.58780  1
 Rb  Rb3  1  0.70247  0.24460  0.41220  1
 Rb  Rb4  1  0.80105  0.24454  0.96266  1
