CIF file written using JARVIS-Tools package.
data_BaVBr2
_symmetry_space_group_name_H-M  'P4mm'
_cell_length_a       4.04885
_cell_length_b       4.0492
_cell_length_c       7.27826
_cell_angle_alpha    90
_cell_angle_beta     90
_cell_angle_gamma    90

_symmetry_Int_Tables_number  99
_chemical_formula_structural  BaVBr2
_chemical_formula_sum  BaVBr2
_cell_volume  119.32423642614211
_cell_formula_units_Z  1
loop_
  _symmetry_equiv_pos_site_id
 _symmetry_equiv_pos_as_xyz
 1  'x, y, z'
loop_
 _atom_site_type_symbol
 _atom_site_label
 _atom_site_symmetry_multiplicity
 _atom_site_fract_x
 _atom_site_fract_y
 _atom_site_fract_z
 _atom_site_fract_occupancy
 Ba  Ba1  1  0.50000  0.50000  0.76899  1
 Br  Br1  1  0.00000  0.00000  0.00743  1
 Br  Br2  1  0.50000  0.50000  0.33940  1
 V  V1  1  0.00000  0.00000  0.38418  1
