CIF file written using JARVIS-Tools package.
data_K2La2Ti3O10
_symmetry_space_group_name_H-M  'I4/mmm'
_cell_length_a       3.89997
_cell_length_b       3.89998
_cell_length_c       15.147
_cell_angle_alpha    97.3966
_cell_angle_beta     97.3966
_cell_angle_gamma    90.0001

_symmetry_Int_Tables_number  139
_chemical_formula_structural  K2La2Ti3O10
_chemical_formula_sum  K2La2Ti3O0
_cell_volume  226.5330806082924
_cell_formula_units_Z  1
loop_
  _symmetry_equiv_pos_site_id
 _symmetry_equiv_pos_as_xyz
 1  'x, y, z'
loop_
 _atom_site_type_symbol
 _atom_site_label
 _atom_site_symmetry_multiplicity
 _atom_site_fract_x
 _atom_site_fract_y
 _atom_site_fract_z
 _atom_site_fract_occupancy
 K  K1  1  0.70797  0.70797  0.41594  1
 K  K2  1  0.29203  0.29203  0.58406  1
 La  La1  1  0.57179  0.57179  0.14357  1
 La  La2  1  0.42821  0.42821  0.85643  1
 O  O1  1  0.20016  0.20016  0.40032  1
 O  O2  1  0.87261  0.37261  0.74522  1
 O  O3  1  0.37261  0.87261  0.74522  1
 O  O4  1  0.12739  0.62739  0.25478  1
 O  O5  1  0.62739  0.12739  0.25478  1
 O  O6  1  0.79984  0.79984  0.59968  1
 O  O7  1  0.50000  0.00000  -0.00000  1
 O  O8  1  0.06470  0.06470  0.12941  1
 O  O9  1  0.93530  0.93530  0.87059  1
 O  O10  1  0.00000  0.50000  -0.00000  1
 Ti  Ti1  1  0.14095  0.14095  0.28190  1
 Ti  Ti2  1  0.85905  0.85905  0.71810  1
 Ti  Ti3  1  0.00000  0.00000  0.00000  1
