CIF file written using JARVIS-Tools package.
data_Dy2Al3Si2
_symmetry_space_group_name_H-M  'C2/m'
_cell_length_a       4.05678
_cell_length_b       5.49542
_cell_length_c       6.64351
_cell_angle_alpha    100.167
_cell_angle_beta     90
_cell_angle_gamma    111.66

_symmetry_Int_Tables_number  12
_chemical_formula_structural  Dy2Al3Si2
_chemical_formula_sum  Dy2Al3Si2
_cell_volume  135.1443073240811
_cell_formula_units_Z  1
loop_
  _symmetry_equiv_pos_site_id
 _symmetry_equiv_pos_as_xyz
 1  'x, y, z'
loop_
 _atom_site_type_symbol
 _atom_site_label
 _atom_site_symmetry_multiplicity
 _atom_site_fract_x
 _atom_site_fract_y
 _atom_site_fract_z
 _atom_site_fract_occupancy
 Al  Al1  1  0.69476  0.38953  0.86625  1
 Al  Al2  1  0.00000  0.00000  0.00000  1
 Al  Al3  1  0.30524  0.61047  0.13375  1
 Dy  Dy1  1  0.38053  0.76106  0.67852  1
 Dy  Dy2  1  0.61947  0.23894  0.32148  1
 Si  Si1  1  0.90632  0.81264  0.36101  1
 Si  Si2  1  0.09368  0.18736  0.63899  1
