CIF file written using JARVIS-Tools package.
data_CrF3
_symmetry_space_group_name_H-M  'R-3c'
_cell_length_a       5.2759
_cell_length_b       5.2759
_cell_length_c       5.2759
_cell_angle_alpha    55.1544
_cell_angle_beta     55.1543
_cell_angle_gamma    55.1544

_symmetry_Int_Tables_number  167
_chemical_formula_structural  CrF3
_chemical_formula_sum  Cr2F6
_cell_volume  92.1423113909687
_cell_formula_units_Z  2
loop_
  _symmetry_equiv_pos_site_id
 _symmetry_equiv_pos_as_xyz
 1  'x, y, z'
loop_
 _atom_site_type_symbol
 _atom_site_label
 _atom_site_symmetry_multiplicity
 _atom_site_fract_x
 _atom_site_fract_y
 _atom_site_fract_z
 _atom_site_fract_occupancy
 Cr  Cr1  1  0.50000  0.50000  0.50000  1
 Cr  Cr2  1  0.00000  0.00000  0.00000  1
 F  F1  1  0.39098  0.75000  0.10902  1
 F  F2  1  0.75000  0.10902  0.39098  1
 F  F3  1  0.89098  0.60902  0.25000  1
 F  F4  1  0.25000  0.89098  0.60902  1
 F  F5  1  0.60902  0.25000  0.89098  1
 F  F6  1  0.10902  0.39098  0.75000  1
