CIF file written using JARVIS-Tools package.
data_Ag3BO3
_symmetry_space_group_name_H-M  'R32'
_cell_length_a       5.94619
_cell_length_b       5.94618
_cell_length_c       5.94619
_cell_angle_alpha    116.884
_cell_angle_beta     116.884
_cell_angle_gamma    116.884

_symmetry_Int_Tables_number  155
_chemical_formula_structural  Ag3BO3
_chemical_formula_sum  Ag3BO3
_cell_volume  94.40929259929395
_cell_formula_units_Z  1
loop_
  _symmetry_equiv_pos_site_id
 _symmetry_equiv_pos_as_xyz
 1  'x, y, z'
loop_
 _atom_site_type_symbol
 _atom_site_label
 _atom_site_symmetry_multiplicity
 _atom_site_fract_x
 _atom_site_fract_y
 _atom_site_fract_z
 _atom_site_fract_occupancy
 Ag  Ag1  1  0.51246  0.00000  0.48754  1
 Ag  Ag2  1  -0.00000  0.48754  0.51246  1
 Ag  Ag3  1  0.48754  0.51246  -0.00000  1
 B  B1  1  0.00000  0.00000  0.00000  1
 O  O1  1  0.00000  0.86378  0.13622  1
 O  O2  1  0.86378  0.13622  0.00000  1
 O  O3  1  0.13622  -0.00000  0.86378  1
