CIF file written using JARVIS-Tools package.
data_MnF4
_symmetry_space_group_name_H-M  'Pbam'
_cell_length_a       2.93501
_cell_length_b       8.95956
_cell_length_c       4.57467
_cell_angle_alpha    90
_cell_angle_beta     90.0229
_cell_angle_gamma    90

_symmetry_Int_Tables_number  55
_chemical_formula_structural  MnF4
_chemical_formula_sum  Mn2F8
_cell_volume  120.29698361954802
_cell_formula_units_Z  2
loop_
  _symmetry_equiv_pos_site_id
 _symmetry_equiv_pos_as_xyz
 1  'x, y, z'
loop_
 _atom_site_type_symbol
 _atom_site_label
 _atom_site_symmetry_multiplicity
 _atom_site_fract_x
 _atom_site_fract_y
 _atom_site_fract_z
 _atom_site_fract_occupancy
 F  F1  1  -0.00011  0.13054  0.71194  1
 F  F2  1  -0.00011  0.36946  0.21194  1
 F  F3  1  0.49990  0.89948  0.82473  1
 F  F4  1  0.50010  0.39948  0.67527  1
 F  F5  1  0.49990  0.60052  0.32473  1
 F  F6  1  0.50010  0.10052  0.17527  1
 F  F7  1  0.00011  0.63054  0.78806  1
 F  F8  1  0.00011  0.86946  0.28806  1
 Mn  Mn1  1  0.00000  0.00000  0.00000  1
 Mn  Mn2  1  0.00000  0.50000  0.50000  1
