CIF file written using JARVIS-Tools package.
data_Ba4AgAuO6
_symmetry_space_group_name_H-M  'Cmcm'
_cell_length_a       7.30016
_cell_length_b       7.30016
_cell_length_c       11.5037
_cell_angle_alpha    90
_cell_angle_beta     90
_cell_angle_gamma    132.798

_symmetry_Int_Tables_number  63
_chemical_formula_structural  Ba4AgAuO6
_chemical_formula_sum  Ba8Ag2Au2O2
_cell_volume  449.8314235506462
_cell_formula_units_Z  2
loop_
  _symmetry_equiv_pos_site_id
 _symmetry_equiv_pos_as_xyz
 1  'x, y, z'
loop_
 _atom_site_type_symbol
 _atom_site_label
 _atom_site_symmetry_multiplicity
 _atom_site_fract_x
 _atom_site_fract_y
 _atom_site_fract_z
 _atom_site_fract_occupancy
 Ag  Ag1  1  0.40180  0.40180  0.75000  1
 Ag  Ag2  1  0.59820  0.59820  0.25000  1
 Au  Au1  1  0.00000  0.00000  0.50000  1
 Au  Au2  1  0.00000  0.00000  0.00000  1
 Ba  Ba1  1  0.64625  0.35375  0.00000  1
 Ba  Ba2  1  0.35375  0.64625  0.50000  1
 Ba  Ba3  1  0.21300  0.92179  0.25000  1
 Ba  Ba4  1  0.64625  0.35375  0.50000  1
 Ba  Ba5  1  0.07821  0.78700  0.75000  1
 Ba  Ba6  1  0.92179  0.21300  0.25000  1
 Ba  Ba7  1  0.78700  0.07821  0.75000  1
 Ba  Ba8  1  0.35375  0.64625  0.00000  1
 O  O1  1  0.24488  0.56266  0.75000  1
 O  O2  1  0.73015  0.73015  0.60987  1
 O  O3  1  0.26985  0.26985  0.10987  1
 O  O4  1  0.73015  0.73015  0.89013  1
 O  O5  1  0.26985  0.26985  0.39013  1
 O  O6  1  0.84583  0.15417  0.00000  1
 O  O7  1  0.84583  0.15417  0.50000  1
 O  O8  1  0.15417  0.84583  0.00000  1
 O  O9  1  0.56266  0.24488  0.75000  1
 O  O10  1  0.75512  0.43734  0.25000  1
 O  O11  1  0.15417  0.84583  0.50000  1
 O  O12  1  0.43734  0.75512  0.25000  1
