CIF file written using JARVIS-Tools package.
data_Al2CrS4
_symmetry_space_group_name_H-M  'Imma'
_cell_length_a       7.10639
_cell_length_b       7.10639
_cell_length_c       7.18729
_cell_angle_alpha    59.6226
_cell_angle_beta     59.6226
_cell_angle_gamma    59.2155

_symmetry_Int_Tables_number  74
_chemical_formula_structural  Al2CrS4
_chemical_formula_sum  Al4Cr2S8
_cell_volume  253.6504300210625
_cell_formula_units_Z  2
loop_
  _symmetry_equiv_pos_site_id
 _symmetry_equiv_pos_as_xyz
 1  'x, y, z'
loop_
 _atom_site_type_symbol
 _atom_site_label
 _atom_site_symmetry_multiplicity
 _atom_site_fract_x
 _atom_site_fract_y
 _atom_site_fract_z
 _atom_site_fract_occupancy
 Al  Al1  1  0.99124  0.99124  0.00876  1
 Al  Al2  1  0.25876  0.25876  0.24124  1
 Al  Al3  1  0.62500  0.62500  0.12500  1
 Al  Al4  1  0.62500  0.62500  0.62500  1
 Cr  Cr1  1  0.12500  0.62500  0.62500  1
 Cr  Cr2  1  0.62500  0.12500  0.62500  1
 S  S1  1  0.38507  0.38507  0.37942  1
 S  S2  1  0.38507  0.38507  0.85044  1
 S  S3  1  0.38256  0.85636  0.38054  1
 S  S4  1  0.85636  0.38256  0.38054  1
 S  S5  1  0.39364  0.86744  0.86946  1
 S  S6  1  0.86744  0.39364  0.86946  1
 S  S7  1  0.86493  0.86493  0.39956  1
 S  S8  1  0.86493  0.86493  0.87058  1
