CIF file written using JARVIS-Tools package.
data_MnSb2O6
_symmetry_space_group_name_H-M  'P-31m'
_cell_length_a       4.60815
_cell_length_b       5.27759
_cell_length_c       5.2776
_cell_angle_alpha    120
_cell_angle_beta     89.9996
_cell_angle_gamma    90.0002

_symmetry_Int_Tables_number  162
_chemical_formula_structural  MnSb2O6
_chemical_formula_sum  MnSb2O6
_cell_volume  111.1551608251955
_cell_formula_units_Z  1
loop_
  _symmetry_equiv_pos_site_id
 _symmetry_equiv_pos_as_xyz
 1  'x, y, z'
loop_
 _atom_site_type_symbol
 _atom_site_label
 _atom_site_symmetry_multiplicity
 _atom_site_fract_x
 _atom_site_fract_y
 _atom_site_fract_z
 _atom_site_fract_occupancy
 Mn  Mn1  1  0.00000  0.00000  0.00000  1
 O  O1  1  0.26455  0.35332  0.35333  1
 O  O2  1  0.26455  0.64667  -0.00000  1
 O  O3  1  0.26456  -0.00000  0.64667  1
 O  O4  1  0.73545  0.64668  0.64667  1
 O  O5  1  0.73545  0.35333  0.00000  1
 O  O6  1  0.73544  0.00000  0.35333  1
 Sb  Sb1  1  0.50000  0.66667  0.33333  1
 Sb  Sb2  1  0.50000  0.33333  0.66667  1
