CIF file written using JARVIS-Tools package.
data_Cu4S3N
_symmetry_space_group_name_H-M  'P4/mmm'
_cell_length_a       3.95083
_cell_length_b       3.95083
_cell_length_c       8.40991
_cell_angle_alpha    90
_cell_angle_beta     90
_cell_angle_gamma    90

_symmetry_Int_Tables_number  123
_chemical_formula_structural  Cu4S3N
_chemical_formula_sum  Cu4S3N
_cell_volume  131.27063589073387
_cell_formula_units_Z  1
loop_
  _symmetry_equiv_pos_site_id
 _symmetry_equiv_pos_as_xyz
 1  'x, y, z'
loop_
 _atom_site_type_symbol
 _atom_site_label
 _atom_site_symmetry_multiplicity
 _atom_site_fract_x
 _atom_site_fract_y
 _atom_site_fract_z
 _atom_site_fract_occupancy
 Cu  Cu1  1  0.50000  0.00000  0.81894  1
 Cu  Cu2  1  0.00000  0.50000  0.81894  1
 Cu  Cu3  1  0.50000  0.00000  0.18106  1
 Cu  Cu4  1  0.00000  0.50000  0.18106  1
 N  N1  1  0.00000  0.00000  0.50000  1
 S  S1  1  0.00000  0.00000  0.00000  1
 S  S2  1  0.50000  0.50000  0.68787  1
 S  S3  1  0.50000  0.50000  0.31213  1
