CIF file written using JARVIS-Tools package.
data_PrZr2F11
_symmetry_space_group_name_H-M  'Ibam'
_cell_length_a       7.8499
_cell_length_b       8.46045
_cell_length_c       8.46045
_cell_angle_alpha    73.79
_cell_angle_beta     62.3598
_cell_angle_gamma    62.3598

_symmetry_Int_Tables_number  72
_chemical_formula_structural  PrZr2F11
_chemical_formula_sum  Pr2Zr4F22
_cell_volume  439.49426771734005
_cell_formula_units_Z  2
loop_
  _symmetry_equiv_pos_site_id
 _symmetry_equiv_pos_as_xyz
 1  'x, y, z'
loop_
 _atom_site_type_symbol
 _atom_site_label
 _atom_site_symmetry_multiplicity
 _atom_site_fract_x
 _atom_site_fract_y
 _atom_site_fract_z
 _atom_site_fract_occupancy
 F  F1  1  0.60634  0.55368  0.70459  1
 F  F2  1  0.75985  0.32373  0.95146  1
 F  F3  1  0.86978  0.71921  0.28079  1
 F  F4  1  0.96496  0.95146  0.32373  1
 F  F5  1  0.36461  0.94632  0.79541  1
 F  F6  1  0.63022  0.21921  0.78079  1
 F  F7  1  0.89366  0.79541  0.94632  1
 F  F8  1  0.74015  0.54854  0.17627  1
 F  F9  1  0.63539  0.05368  0.20459  1
 F  F10  1  0.36978  0.78079  0.21921  1
 F  F11  1  0.39366  0.44632  0.29541  1
 F  F12  1  0.25985  0.45146  0.82373  1
 F  F13  1  0.13539  0.70459  0.55368  1
 F  F14  1  0.00000  0.50000  0.50000  1
 F  F15  1  0.03504  0.04854  0.67627  1
 F  F16  1  0.50000  0.00000  0.00000  1
 F  F17  1  0.46496  0.82373  0.45146  1
 F  F18  1  0.10634  0.20459  0.05368  1
 F  F19  1  0.24015  0.67627  0.04854  1
 F  F20  1  0.53504  0.17627  0.54854  1
 F  F21  1  0.13022  0.28079  0.71921  1
 F  F22  1  0.86461  0.29541  0.44632  1
 Pr  Pr1  1  0.25000  0.75000  0.75000  1
 Pr  Pr2  1  0.75000  0.25000  0.25000  1
 Zr  Zr1  1  0.13294  0.68043  0.31957  1
 Zr  Zr2  1  0.86706  0.31957  0.68043  1
 Zr  Zr3  1  0.36706  0.18043  0.81957  1
 Zr  Zr4  1  0.63294  0.81957  0.18043  1
