CIF file written using JARVIS-Tools package.
data_BaGe4Bi
_symmetry_space_group_name_H-M  'F-43m'
_cell_length_a       6.01424
_cell_length_b       6.01424
_cell_length_c       6.01424
_cell_angle_alpha    60
_cell_angle_beta     60
_cell_angle_gamma    60

_symmetry_Int_Tables_number  216
_chemical_formula_structural  BaGe4Bi
_chemical_formula_sum  BaGe4Bi
_cell_volume  153.82507223967207
_cell_formula_units_Z  1
loop_
  _symmetry_equiv_pos_site_id
 _symmetry_equiv_pos_as_xyz
 1  'x, y, z'
loop_
 _atom_site_type_symbol
 _atom_site_label
 _atom_site_symmetry_multiplicity
 _atom_site_fract_x
 _atom_site_fract_y
 _atom_site_fract_z
 _atom_site_fract_occupancy
 Ba  Ba1  1  0.25000  0.25000  0.25000  1
 Bi  Bi1  1  0.00000  0.00000  0.00000  1
 Ge  Ge1  1  0.09567  0.63478  0.63478  1
 Ge  Ge2  1  0.63478  0.63478  0.63478  1
 Ge  Ge3  1  0.63478  0.09567  0.63478  1
 Ge  Ge4  1  0.63478  0.63478  0.09567  1
