CIF file written using JARVIS-Tools package.
data_Al2Si2H4O9
_symmetry_space_group_name_H-M  'Cc'
_cell_length_a       5.20693
_cell_length_b       5.20693
_cell_length_c       14.3527
_cell_angle_alpha    86.6909
_cell_angle_beta     93.3091
_cell_angle_gamma    59.8593

_symmetry_Int_Tables_number  9
_chemical_formula_structural  Al2Si2H4O9
_chemical_formula_sum  Al4Si4H8O8
_cell_volume  334.2595286329264
_cell_formula_units_Z  2
loop_
  _symmetry_equiv_pos_site_id
 _symmetry_equiv_pos_as_xyz
 1  'x, y, z'
loop_
 _atom_site_type_symbol
 _atom_site_label
 _atom_site_symmetry_multiplicity
 _atom_site_fract_x
 _atom_site_fract_y
 _atom_site_fract_z
 _atom_site_fract_occupancy
 Al  Al1  1  0.66235  0.83101  0.73148  1
 Al  Al2  1  0.16899  0.33765  0.23148  1
 Al  Al3  1  0.00303  0.16050  0.73013  1
 Al  Al4  1  0.83950  0.99697  0.23013  1
 H  H1  1  0.30820  0.32931  0.65467  1
 H  H2  1  0.67069  0.69180  0.15467  1
 H  H3  1  0.04696  0.44478  0.86057  1
 H  H4  1  0.55522  0.95304  0.36057  1
 H  H5  1  0.36722  0.75530  0.85900  1
 H  H6  1  0.24470  0.63278  0.35900  1
 H  H7  1  0.85873  0.30457  0.35866  1
 H  H8  1  0.69543  0.14127  0.85866  1
 O  O1  1  0.92651  0.91012  0.64907  1
 O  O2  1  0.72916  0.20908  0.98846  1
 O  O3  1  0.79092  0.27084  0.48846  1
 O  O4  1  0.19187  0.28469  0.98878  1
 O  O5  1  0.73918  0.09170  0.79475  1
 O  O6  1  0.25883  0.72225  0.50086  1
 O  O7  1  0.27775  0.74117  0.00086  1
 O  O8  1  0.68696  0.53011  0.64969  1
 O  O9  1  0.71531  0.80813  0.48878  1
 O  O10  1  0.08988  0.07349  0.14907  1
 O  O11  1  0.14297  0.64609  0.29844  1
 O  O12  1  0.85892  0.69117  0.15448  1
 O  O13  1  0.96875  0.47616  0.79486  1
 O  O14  1  0.52384  0.03125  0.29486  1
 O  O15  1  0.35391  0.85703  0.79844  1
 O  O16  1  0.46989  0.31304  0.14969  1
 O  O17  1  0.30883  0.14108  0.65448  1
 O  O18  1  0.90830  0.26082  0.29475  1
 Si  Si1  1  0.07309  0.07246  0.03603  1
 Si  Si2  1  0.92754  0.92691  0.53603  1
 Si  Si3  1  0.41443  0.38869  0.03694  1
 Si  Si4  1  0.61131  0.58557  0.53694  1
