CIF file written using JARVIS-Tools package.
data_Ce2Ga10Ni
_symmetry_space_group_name_H-M  'I4/mmm'
_cell_length_a       4.3469
_cell_length_b       4.3469
_cell_length_c       13.3163
_cell_angle_alpha    99.3937
_cell_angle_beta     99.3937
_cell_angle_gamma    90

_symmetry_Int_Tables_number  139
_chemical_formula_structural  Ce2Ga10Ni
_chemical_formula_sum  Ce2Ga0Ni
_cell_volume  244.82438366515498
_cell_formula_units_Z  1
loop_
  _symmetry_equiv_pos_site_id
 _symmetry_equiv_pos_as_xyz
 1  'x, y, z'
loop_
 _atom_site_type_symbol
 _atom_site_label
 _atom_site_symmetry_multiplicity
 _atom_site_fract_x
 _atom_site_fract_y
 _atom_site_fract_z
 _atom_site_fract_occupancy
 Ce  Ce1  1  0.64231  0.64231  0.28462  1
 Ce  Ce2  1  0.35769  0.35769  0.71538  1
 Ga  Ga1  1  0.80345  0.80345  0.60689  1
 Ga  Ga2  1  0.75000  0.25000  0.50000  1
 Ga  Ga3  1  0.25000  0.75000  0.50000  1
 Ga  Ga4  1  0.95065  0.45065  0.90130  1
 Ga  Ga5  1  0.45065  0.95065  0.90130  1
 Ga  Ga6  1  0.04935  0.54935  0.09870  1
 Ga  Ga7  1  0.54935  0.04935  0.09870  1
 Ga  Ga8  1  0.10397  0.10397  0.20795  1
 Ga  Ga9  1  0.89603  0.89603  0.79205  1
 Ga  Ga10  1  0.19655  0.19655  0.39311  1
 Ni  Ni1  1  0.50000  0.50000  0.00000  1
