CIF file written using JARVIS-Tools package.
data_CuHgSeBr
_symmetry_space_group_name_H-M  'Pmma'
_cell_length_a       4.32894
_cell_length_b       9.80619
_cell_length_c       10.0364
_cell_angle_alpha    90
_cell_angle_beta     90
_cell_angle_gamma    90

_symmetry_Int_Tables_number  51
_chemical_formula_structural  CuHgSeBr
_chemical_formula_sum  Cu4Hg4Se4Br4
_cell_volume  426.0495559113078
_cell_formula_units_Z  4
loop_
  _symmetry_equiv_pos_site_id
 _symmetry_equiv_pos_as_xyz
 1  'x, y, z'
loop_
 _atom_site_type_symbol
 _atom_site_label
 _atom_site_symmetry_multiplicity
 _atom_site_fract_x
 _atom_site_fract_y
 _atom_site_fract_z
 _atom_site_fract_occupancy
 Br  Br1  1  0.00000  0.98762  0.75000  1
 Br  Br2  1  0.00000  0.01238  0.25000  1
 Br  Br3  1  0.00000  0.55348  0.75000  1
 Br  Br4  1  0.00000  0.44652  0.25000  1
 Cu  Cu1  1  0.00000  0.21640  0.10781  1
 Cu  Cu2  1  0.00000  0.21640  0.39219  1
 Cu  Cu3  1  0.00000  0.78360  0.60781  1
 Cu  Cu4  1  0.00000  0.78360  0.89219  1
 Hg  Hg1  1  0.50000  0.78414  0.25000  1
 Hg  Hg2  1  0.50000  0.50000  0.50000  1
 Hg  Hg3  1  0.50000  0.21586  0.75000  1
 Hg  Hg4  1  0.50000  0.50000  0.00000  1
 Se  Se1  1  0.50000  0.75941  0.50383  1
 Se  Se2  1  0.50000  0.24059  0.49617  1
 Se  Se3  1  0.50000  0.75941  -0.00383  1
 Se  Se4  1  0.50000  0.24059  0.00383  1
