CIF file written using JARVIS-Tools package.
data_Na4BeAlSi4ClO12
_symmetry_space_group_name_H-M  'I-4'
_cell_length_a       7.58793
_cell_length_b       7.58793
_cell_length_c       7.58793
_cell_angle_alpha    110.3
_cell_angle_beta     110.3
_cell_angle_gamma    107.825

_symmetry_Int_Tables_number  82
_chemical_formula_structural  Na4BeAlSi4ClO12
_chemical_formula_sum  Na4BeAlSi4ClO2
_cell_volume  336.10846180202066
_cell_formula_units_Z  1
loop_
  _symmetry_equiv_pos_site_id
 _symmetry_equiv_pos_as_xyz
 1  'x, y, z'
loop_
 _atom_site_type_symbol
 _atom_site_label
 _atom_site_symmetry_multiplicity
 _atom_site_fract_x
 _atom_site_fract_y
 _atom_site_fract_z
 _atom_site_fract_occupancy
 Al  Al1  1  0.25000  0.75000  0.50000  1
 Be  Be1  1  0.75000  0.25000  0.50000  1
 Cl  Cl1  1  0.00000  0.00000  0.00000  1
 Na  Na1  1  0.66578  0.62290  0.65090  1
 Na  Na2  1  0.97200  0.01487  0.34910  1
 Na  Na3  1  0.98513  0.33422  0.95713  1
 Na  Na4  1  0.37710  0.02800  0.04287  1
 O  O1  1  0.41076  0.42856  0.71694  1
 O  O2  1  0.28373  0.71718  0.72709  1
 O  O3  1  0.99009  0.55664  0.27291  1
 O  O4  1  0.28282  0.00991  0.56655  1
 O  O5  1  0.44336  0.71627  0.43345  1
 O  O6  1  0.69029  0.30113  0.69337  1
 O  O7  1  0.60777  0.99692  0.30663  1
 O  O8  1  0.57144  0.28838  0.98220  1
 O  O9  1  0.71162  0.69382  0.28306  1
 O  O10  1  0.30618  0.58924  0.01780  1
 O  O11  1  0.69887  0.39223  0.38916  1
 O  O12  1  0.00308  0.30971  0.61084  1
 Si  Si1  1  0.74968  0.48172  0.24011  1
 Si  Si2  1  0.24161  0.50957  0.75989  1
 Si  Si3  1  0.49043  0.25032  0.73204  1
 Si  Si4  1  0.51828  0.75839  0.26796  1
