CIF file written using JARVIS-Tools package.
data_YNiB4
_symmetry_space_group_name_H-M  'I4/mmm'
_cell_length_a       6.8295
_cell_length_b       6.8295
_cell_length_c       6.8295
_cell_angle_alpha    112.884
_cell_angle_beta     112.884
_cell_angle_gamma    102.842

_symmetry_Int_Tables_number  139
_chemical_formula_structural  YNiB4
_chemical_formula_sum  Y4Ni4B6
_cell_volume  242.79100862631987
_cell_formula_units_Z  4
loop_
  _symmetry_equiv_pos_site_id
 _symmetry_equiv_pos_as_xyz
 1  'x, y, z'
loop_
 _atom_site_type_symbol
 _atom_site_label
 _atom_site_symmetry_multiplicity
 _atom_site_fract_x
 _atom_site_fract_y
 _atom_site_fract_z
 _atom_site_fract_occupancy
 B  B1  1  0.88763  0.41816  0.00000  1
 B  B2  1  0.72504  0.88866  0.61369  1
 B  B3  1  0.88866  0.27496  0.16362  1
 B  B4  1  0.11134  0.72504  0.83638  1
 B  B5  1  0.72504  0.11134  0.83638  1
 B  B6  1  0.27496  0.88866  0.16362  1
 B  B7  1  0.11134  0.27496  0.38631  1
 B  B8  1  0.88866  0.72504  0.61369  1
 B  B9  1  0.11237  0.11237  0.53053  1
 B  B10  1  0.58184  0.58184  0.46947  1
 B  B11  1  0.27496  0.11134  0.38631  1
 B  B12  1  0.11237  0.58184  0.00000  1
 B  B13  1  0.41816  0.88763  0.00000  1
 B  B14  1  0.41816  0.41816  0.53053  1
 B  B15  1  0.88763  0.88763  0.46947  1
 B  B16  1  0.58184  0.11237  0.00000  1
 Ni  Ni1  1  0.27158  0.50000  0.77158  1
 Ni  Ni2  1  0.72842  0.50000  0.22842  1
 Ni  Ni3  1  0.50000  0.27158  0.77158  1
 Ni  Ni4  1  0.50000  0.72842  0.22842  1
 Y  Y1  1  0.75000  0.25000  0.50000  1
 Y  Y2  1  0.79594  0.79594  0.00000  1
 Y  Y3  1  0.20406  0.20406  0.00000  1
 Y  Y4  1  0.25000  0.75000  0.50000  1
