CIF file written using JARVIS-Tools package.
data_ScBeFe
_symmetry_space_group_name_H-M  'P3m1'
_cell_length_a       3.15845
_cell_length_b       3.15845
_cell_length_c       4.97801
_cell_angle_alpha    90
_cell_angle_beta     90
_cell_angle_gamma    120

_symmetry_Int_Tables_number  156
_chemical_formula_structural  ScBeFe
_chemical_formula_sum  ScBeFe
_cell_volume  43.0066325479712
_cell_formula_units_Z  1
loop_
  _symmetry_equiv_pos_site_id
 _symmetry_equiv_pos_as_xyz
 1  'x, y, z'
loop_
 _atom_site_type_symbol
 _atom_site_label
 _atom_site_symmetry_multiplicity
 _atom_site_fract_x
 _atom_site_fract_y
 _atom_site_fract_z
 _atom_site_fract_occupancy
 Be  Be1  1  0.00000  0.00000  0.93992  1
 Fe  Fe1  1  0.33333  0.66667  0.71910  1
 Sc  Sc1  1  0.66667  0.33333  0.34098  1
