CIF file written using JARVIS-Tools package.
data_CuS
_symmetry_space_group_name_H-M  'P6_3/mmc'
_cell_length_a       3.35539
_cell_length_b       3.3554
_cell_length_c       18.6932
_cell_angle_alpha    90
_cell_angle_beta     90
_cell_angle_gamma    120

_symmetry_Int_Tables_number  194
_chemical_formula_structural  CuS
_chemical_formula_sum  Cu6S6
_cell_volume  182.26437963037782
_cell_formula_units_Z  6
loop_
  _symmetry_equiv_pos_site_id
 _symmetry_equiv_pos_as_xyz
 1  'x, y, z'
loop_
 _atom_site_type_symbol
 _atom_site_label
 _atom_site_symmetry_multiplicity
 _atom_site_fract_x
 _atom_site_fract_y
 _atom_site_fract_z
 _atom_site_fract_occupancy
 Cu  Cu1  1  0.33333  0.66667  0.08332  1
 Cu  Cu2  1  0.66667  0.33333  0.91668  1
 Cu  Cu3  1  0.66667  0.33333  0.58332  1
 Cu  Cu4  1  0.66667  0.33333  0.25000  1
 Cu  Cu5  1  0.33333  0.66667  0.75000  1
 Cu  Cu6  1  0.33333  0.66667  0.41668  1
 S  S1  1  0.00000  0.00000  0.16666  1
 S  S2  1  0.00000  0.00000  0.66666  1
 S  S3  1  0.00000  0.00000  0.33334  1
 S  S4  1  0.00000  0.00000  0.00000  1
 S  S5  1  0.00000  0.00000  0.83334  1
 S  S6  1  0.00000  0.00000  0.50000  1
