CIF file written using JARVIS-Tools package.
data_V3O5F
_symmetry_space_group_name_H-M  'P1'
_cell_length_a       4.60653
_cell_length_b       5.44997
_cell_length_c       7.42848
_cell_angle_alpha    83.8721
_cell_angle_beta     88.6465
_cell_angle_gamma    88.3124

_symmetry_Int_Tables_number  1
_chemical_formula_structural  V3O5F
_chemical_formula_sum  V6O0F2
_cell_volume  185.31041452238776
_cell_formula_units_Z  2
loop_
  _symmetry_equiv_pos_site_id
 _symmetry_equiv_pos_as_xyz
 1  'x, y, z'
loop_
 _atom_site_type_symbol
 _atom_site_label
 _atom_site_symmetry_multiplicity
 _atom_site_fract_x
 _atom_site_fract_y
 _atom_site_fract_z
 _atom_site_fract_occupancy
 F  F1  1  0.19903  0.63094  0.56695  1
 F  F2  1  0.19883  0.96669  0.23139  1
 O  O1  1  0.70269  0.53250  0.76424  1
 O  O2  1  0.80592  0.36708  0.43808  1
 O  O3  1  0.80104  0.70258  0.09754  1
 O  O4  1  0.69992  0.20013  0.10500  1
 O  O5  1  0.79365  0.03094  0.76629  1
 O  O6  1  0.70223  0.86554  0.43175  1
 O  O7  1  0.30032  0.13239  0.56433  1
 O  O8  1  0.30135  0.46705  0.23785  1
 O  O9  1  0.20204  0.30105  0.90160  1
 O  O10  1  0.29529  0.80198  0.89953  1
 V  V1  1  0.99056  0.00957  0.98699  1
 V  V2  1  0.97268  0.65079  0.31882  1
 V  V3  1  0.99826  0.31548  0.67911  1
 V  V4  1  0.52590  0.18239  0.34235  1
 V  V5  1  0.49347  0.50436  0.99668  1
 V  V6  1  0.51682  0.83855  0.67151  1
