CIF file written using JARVIS-Tools package.
data_Mn6O5F7
_symmetry_space_group_name_H-M  'Cm'
_cell_length_a       7.22857
_cell_length_b       5.6374
_cell_length_c       5.6374
_cell_angle_alpha    72.9048
_cell_angle_beta     73.158
_cell_angle_gamma    73.158

_symmetry_Int_Tables_number  8
_chemical_formula_structural  Mn6O5F7
_chemical_formula_sum  Mn6O5F7
_cell_volume  204.83655940386876
_cell_formula_units_Z  1
loop_
  _symmetry_equiv_pos_site_id
 _symmetry_equiv_pos_as_xyz
 1  'x, y, z'
loop_
 _atom_site_type_symbol
 _atom_site_label
 _atom_site_symmetry_multiplicity
 _atom_site_fract_x
 _atom_site_fract_y
 _atom_site_fract_z
 _atom_site_fract_occupancy
 F  F1  1  0.99019  0.70333  0.32603  1
 F  F2  1  0.34494  0.95785  0.33382  1
 F  F3  1  0.69703  0.10561  0.10561  1
 F  F4  1  0.62978  0.58073  0.58073  1
 F  F5  1  0.30082  0.88097  0.88097  1
 F  F6  1  0.34494  0.33382  0.95785  1
 F  F7  1  0.99019  0.32603  0.70333  1
 Mn  Mn1  1  0.83042  0.69491  0.69491  1
 Mn  Mn2  1  -0.00121  0.00859  0.00859  1
 Mn  Mn3  1  0.51437  0.97990  0.97990  1
 Mn  Mn4  1  0.16498  0.32991  0.32991  1
 Mn  Mn5  1  0.31362  0.64832  0.64832  1
 Mn  Mn6  1  0.66993  0.33900  0.33900  1
 O  O1  1  0.67109  0.64468  0.02994  1
 O  O2  1  0.96427  0.23392  0.23392  1
 O  O3  1  0.67109  0.02994  0.64468  1
 O  O4  1  0.37149  0.42594  0.42594  1
 O  O5  1  0.03206  0.77654  0.77654  1
