CIF file written using JARVIS-Tools package.
data_Y3Mg
_symmetry_space_group_name_H-M  'P6_3/mmc'
_cell_length_a       7.01077
_cell_length_b       7.01078
_cell_length_c       5.55323
_cell_angle_alpha    90
_cell_angle_beta     90
_cell_angle_gamma    120

_symmetry_Int_Tables_number  194
_chemical_formula_structural  Y3Mg
_chemical_formula_sum  Y6Mg2
_cell_volume  236.3784721257924
_cell_formula_units_Z  2
loop_
  _symmetry_equiv_pos_site_id
 _symmetry_equiv_pos_as_xyz
 1  'x, y, z'
loop_
 _atom_site_type_symbol
 _atom_site_label
 _atom_site_symmetry_multiplicity
 _atom_site_fract_x
 _atom_site_fract_y
 _atom_site_fract_z
 _atom_site_fract_occupancy
 Mg  Mg1  1  0.66667  0.33333  0.75000  1
 Mg  Mg2  1  0.33333  0.66667  0.25000  1
 Y  Y1  1  0.65991  0.82995  0.75000  1
 Y  Y2  1  0.17005  0.34009  0.75000  1
 Y  Y3  1  0.17005  0.82995  0.75000  1
 Y  Y4  1  0.82995  0.65991  0.25000  1
 Y  Y5  1  0.82995  0.17005  0.25000  1
 Y  Y6  1  0.34009  0.17005  0.25000  1
