CIF file written using JARVIS-Tools package.
data_ZrMn2
_symmetry_space_group_name_H-M  'P6_3/mmc'
_cell_length_a       4.9101
_cell_length_b       4.9101
_cell_length_c       8.20153
_cell_angle_alpha    90
_cell_angle_beta     90
_cell_angle_gamma    120

_symmetry_Int_Tables_number  194
_chemical_formula_structural  ZrMn2
_chemical_formula_sum  Zr4Mn8
_cell_volume  171.24049523180022
_cell_formula_units_Z  4
loop_
  _symmetry_equiv_pos_site_id
 _symmetry_equiv_pos_as_xyz
 1  'x, y, z'
loop_
 _atom_site_type_symbol
 _atom_site_label
 _atom_site_symmetry_multiplicity
 _atom_site_fract_x
 _atom_site_fract_y
 _atom_site_fract_z
 _atom_site_fract_occupancy
 Mn  Mn1  1  0.00000  0.00000  0.50000  1
 Mn  Mn2  1  0.00000  0.00000  0.00000  1
 Mn  Mn3  1  0.16989  0.33978  0.75000  1
 Mn  Mn4  1  0.83011  0.16989  0.25000  1
 Mn  Mn5  1  0.83011  0.66022  0.25000  1
 Mn  Mn6  1  0.16989  0.83011  0.75000  1
 Mn  Mn7  1  0.66022  0.83011  0.75000  1
 Mn  Mn8  1  0.33978  0.16989  0.25000  1
 Zr  Zr1  1  0.33333  0.66667  0.06358  1
 Zr  Zr2  1  0.66667  0.33333  0.56358  1
 Zr  Zr3  1  0.66667  0.33333  0.93642  1
 Zr  Zr4  1  0.33333  0.66667  0.43642  1
