CIF file written using JARVIS-Tools package.
data_LuNi4Sn
_symmetry_space_group_name_H-M  'F-43m'
_cell_length_a       4.9473
_cell_length_b       4.94731
_cell_length_c       4.9473
_cell_angle_alpha    60
_cell_angle_beta     60
_cell_angle_gamma    60.0001

_symmetry_Int_Tables_number  216
_chemical_formula_structural  LuNi4Sn
_chemical_formula_sum  LuNi4Sn
_cell_volume  85.62310913985664
_cell_formula_units_Z  1
loop_
  _symmetry_equiv_pos_site_id
 _symmetry_equiv_pos_as_xyz
 1  'x, y, z'
loop_
 _atom_site_type_symbol
 _atom_site_label
 _atom_site_symmetry_multiplicity
 _atom_site_fract_x
 _atom_site_fract_y
 _atom_site_fract_z
 _atom_site_fract_occupancy
 Lu  Lu1  1  0.00000  0.00000  0.00000  1
 Ni  Ni1  1  0.62488  0.62488  0.12537  1
 Ni  Ni2  1  0.62488  0.12537  0.62488  1
 Ni  Ni3  1  0.12537  0.62488  0.62488  1
 Ni  Ni4  1  0.62488  0.62488  0.62488  1
 Sn  Sn1  1  0.25000  0.25000  0.25000  1
