CIF file written using JARVIS-Tools package.
data_NpH3
_symmetry_space_group_name_H-M  'P6_3/mmc'
_cell_length_a       3.71237
_cell_length_b       3.71237
_cell_length_c       6.61587
_cell_angle_alpha    90
_cell_angle_beta     90
_cell_angle_gamma    119.998

_symmetry_Int_Tables_number  194
_chemical_formula_structural  NpH3
_chemical_formula_sum  Np2H6
_cell_volume  78.96384211379652
_cell_formula_units_Z  2
loop_
  _symmetry_equiv_pos_site_id
 _symmetry_equiv_pos_as_xyz
 1  'x, y, z'
loop_
 _atom_site_type_symbol
 _atom_site_label
 _atom_site_symmetry_multiplicity
 _atom_site_fract_x
 _atom_site_fract_y
 _atom_site_fract_z
 _atom_site_fract_occupancy
 H  H1  1  -0.00002  0.00002  0.75000  1
 H  H2  1  0.00002  -0.00002  0.25000  1
 H  H3  1  0.66667  0.33333  0.09382  1
 H  H4  1  0.33333  0.66667  0.90618  1
 H  H5  1  0.33333  0.66667  0.59382  1
 H  H6  1  0.66667  0.33333  0.40618  1
 Np  Np1  1  0.66664  0.33336  0.75000  1
 Np  Np2  1  0.33336  0.66664  0.25000  1
