CIF file written using JARVIS-Tools package.
data_NdAl2Au2
_symmetry_space_group_name_H-M  'P4/nmm'
_cell_length_a       4.43486
_cell_length_b       4.43486
_cell_length_c       10.4083
_cell_angle_alpha    90
_cell_angle_beta     90
_cell_angle_gamma    90

_symmetry_Int_Tables_number  129
_chemical_formula_structural  NdAl2Au2
_chemical_formula_sum  Nd2Al4Au4
_cell_volume  204.71053835421873
_cell_formula_units_Z  2
loop_
  _symmetry_equiv_pos_site_id
 _symmetry_equiv_pos_as_xyz
 1  'x, y, z'
loop_
 _atom_site_type_symbol
 _atom_site_label
 _atom_site_symmetry_multiplicity
 _atom_site_fract_x
 _atom_site_fract_y
 _atom_site_fract_z
 _atom_site_fract_occupancy
 Al  Al1  1  0.50000  0.50000  0.50000  1
 Al  Al2  1  0.00000  0.00000  0.50000  1
 Al  Al3  1  0.00000  0.50000  0.13037  1
 Al  Al4  1  0.50000  0.00000  0.86963  1
 Au  Au1  1  0.50000  0.50000  0.00000  1
 Au  Au2  1  0.00000  0.00000  0.00000  1
 Au  Au3  1  0.00000  0.50000  0.37077  1
 Au  Au4  1  0.50000  0.00000  0.62923  1
 Nd  Nd1  1  0.00000  0.50000  0.75198  1
 Nd  Nd2  1  0.50000  0.00000  0.24802  1
