CIF file written using JARVIS-Tools package.
data_PH3O4
_symmetry_space_group_name_H-M  'P2_1/c'
_cell_length_a       6.0834
_cell_length_b       5.31548
_cell_length_c       9.80248
_cell_angle_alpha    90
_cell_angle_beta     96.3476
_cell_angle_gamma    90

_symmetry_Int_Tables_number  14
_chemical_formula_structural  PH3O4
_chemical_formula_sum  P4H2O6
_cell_volume  315.03243630259374
_cell_formula_units_Z  4
loop_
  _symmetry_equiv_pos_site_id
 _symmetry_equiv_pos_as_xyz
 1  'x, y, z'
loop_
 _atom_site_type_symbol
 _atom_site_label
 _atom_site_symmetry_multiplicity
 _atom_site_fract_x
 _atom_site_fract_y
 _atom_site_fract_z
 _atom_site_fract_occupancy
 H  H1  1  0.13048  0.56358  0.84420  1
 H  H2  1  0.29898  0.33236  0.46252  1
 H  H3  1  0.70102  0.83236  0.03748  1
 H  H4  1  0.70102  0.66764  0.53748  1
 H  H5  1  0.29898  0.16764  0.96252  1
 H  H6  1  0.46049  0.60570  0.16760  1
 H  H7  1  0.13048  0.93642  0.34420  1
 H  H8  1  0.86952  0.06358  0.65580  1
 H  H9  1  0.46049  0.89430  0.66760  1
 H  H10  1  0.53951  0.39430  0.83240  1
 H  H11  1  0.53951  0.10570  0.33240  1
 H  H12  1  0.86952  0.43642  0.15580  1
 O  O1  1  0.96236  0.29146  0.12699  1
 O  O2  1  0.68044  0.88349  0.93818  1
 O  O3  1  0.31956  0.38349  0.56182  1
 O  O4  1  0.70447  0.06758  0.34709  1
 O  O5  1  0.68044  0.61651  0.43818  1
 O  O6  1  0.31956  0.11651  0.06182  1
 O  O7  1  0.03764  0.70854  0.87301  1
 O  O8  1  0.96236  0.20854  0.62699  1
 O  O9  1  0.28314  0.32256  0.80827  1
 O  O10  1  0.29553  0.56758  0.15291  1
 O  O11  1  0.71686  0.67744  0.19173  1
 O  O12  1  0.28314  0.17744  0.30827  1
 O  O13  1  0.29553  0.93242  0.65291  1
 O  O14  1  0.70447  0.43242  0.84709  1
 O  O15  1  0.03764  0.79146  0.37301  1
 O  O16  1  0.71686  0.82256  0.69173  1
 P  P1  1  0.21680  0.29092  0.16592  1
 P  P2  1  0.78320  0.79092  0.33408  1
 P  P3  1  0.78320  0.70908  0.83408  1
 P  P4  1  0.21680  0.20908  0.66592  1
