CIF file written using JARVIS-Tools package.
data_Mn3O4F2
_symmetry_space_group_name_H-M  'P2_1/c'
_cell_length_a       4.50845
_cell_length_b       4.52568
_cell_length_c       9.95126
_cell_angle_alpha    90
_cell_angle_beta     117.425
_cell_angle_gamma    90

_symmetry_Int_Tables_number  14
_chemical_formula_structural  Mn3O4F2
_chemical_formula_sum  Mn6O8F4
_cell_volume  180.22496650288963
_cell_formula_units_Z  2
loop_
  _symmetry_equiv_pos_site_id
 _symmetry_equiv_pos_as_xyz
 1  'x, y, z'
loop_
 _atom_site_type_symbol
 _atom_site_label
 _atom_site_symmetry_multiplicity
 _atom_site_fract_x
 _atom_site_fract_y
 _atom_site_fract_z
 _atom_site_fract_occupancy
 F  F1  1  0.62823  0.79428  0.83335  1
 F  F2  1  0.37177  0.20572  0.16665  1
 F  F3  1  0.37177  0.29428  0.66665  1
 F  F4  1  0.62823  0.70572  0.33335  1
 Mn  Mn1  1  0.00000  0.50000  0.50000  1
 Mn  Mn2  1  0.00000  0.00000  0.00000  1
 Mn  Mn3  1  0.30574  0.48116  0.84182  1
 Mn  Mn4  1  0.69426  0.98116  0.65818  1
 Mn  Mn5  1  0.30574  0.01884  0.34182  1
 Mn  Mn6  1  0.69426  0.51884  0.15818  1
 O  O1  1  0.29580  0.80275  0.50120  1
 O  O2  1  0.97705  0.81954  0.16756  1
 O  O3  1  0.70420  0.30275  0.99880  1
 O  O4  1  0.29580  0.69725  0.00120  1
 O  O5  1  0.02295  0.18046  0.83244  1
 O  O6  1  0.70420  0.19725  0.49880  1
 O  O7  1  0.97705  0.68046  0.66756  1
 O  O8  1  0.02295  0.31954  0.33244  1
