CIF file written using JARVIS-Tools package.
data_K3U3Si2O13
_symmetry_space_group_name_H-M  'P-62c'
_cell_length_a       9.61771
_cell_length_b       9.61771
_cell_length_c       8.43785
_cell_angle_alpha    90
_cell_angle_beta     90
_cell_angle_gamma    120

_symmetry_Int_Tables_number  190
_chemical_formula_structural  K3U3Si2O13
_chemical_formula_sum  K6U6Si4O26
_cell_volume  675.936168599337
_cell_formula_units_Z  2
loop_
  _symmetry_equiv_pos_site_id
 _symmetry_equiv_pos_as_xyz
 1  'x, y, z'
loop_
 _atom_site_type_symbol
 _atom_site_label
 _atom_site_symmetry_multiplicity
 _atom_site_fract_x
 _atom_site_fract_y
 _atom_site_fract_z
 _atom_site_fract_occupancy
 K  K1  1  0.95957  0.57414  0.75000  1
 K  K2  1  0.04043  0.61457  0.25000  1
 K  K3  1  0.42586  0.38543  0.75000  1
 K  K4  1  0.38543  0.42586  0.25000  1
 K  K5  1  0.61457  0.04043  0.75000  1
 K  K6  1  0.57414  0.95957  0.25000  1
 O  O1  1  0.74740  0.74389  0.25000  1
 O  O2  1  0.17699  0.50349  0.01056  1
 O  O3  1  0.49650  0.67350  0.48944  1
 O  O4  1  0.25611  0.00351  0.25000  1
 O  O5  1  0.49650  0.67350  0.01056  1
 O  O6  1  0.82301  0.32650  0.98944  1
 O  O7  1  0.67350  0.49650  0.98944  1
 O  O8  1  0.80544  0.00000  0.50000  1
 O  O9  1  0.50349  0.17699  0.51056  1
 O  O10  1  0.19456  0.19456  0.00000  1
 O  O11  1  0.66667  0.33333  0.25000  1
 O  O12  1  1.00000  0.80544  0.00000  1
 O  O13  1  0.32650  0.82301  0.48944  1
 O  O14  1  0.32650  0.82301  0.01056  1
 O  O15  1  0.99649  0.25260  0.25000  1
 O  O16  1  1.00000  0.80544  0.50000  1
 O  O17  1  0.82301  0.32650  0.51056  1
 O  O18  1  0.67350  0.49650  0.51056  1
 O  O19  1  0.00351  0.25611  0.75000  1
 O  O20  1  0.25260  0.99649  0.75000  1
 O  O21  1  0.17699  0.50349  0.48944  1
 O  O22  1  0.19456  0.19456  0.50000  1
 O  O23  1  0.33333  0.66667  0.75000  1
 O  O24  1  0.50349  0.17699  0.98944  1
 O  O25  1  0.80544  0.00000  0.00000  1
 O  O26  1  0.74389  0.74740  0.75000  1
 Si  Si1  1  0.33333  0.66667  0.55395  1
 Si  Si2  1  0.66667  0.33333  0.05395  1
 Si  Si3  1  0.66667  0.33333  0.44605  1
 Si  Si4  1  0.33333  0.66667  0.94605  1
 U  U1  1  1.00000  0.24424  0.50000  1
 U  U2  1  0.75576  0.75576  0.50000  1
 U  U3  1  0.24424  0.00000  0.00000  1
 U  U4  1  0.24424  0.00000  0.50000  1
 U  U5  1  1.00000  0.24424  0.00000  1
 U  U6  1  0.75576  0.75576  0.00000  1
