CIF file written using JARVIS-Tools package.
data_HfTiF6
_symmetry_space_group_name_H-M  'Fm-3m'
_cell_length_a       8.18747
_cell_length_b       5.78941
_cell_length_c       5.78941
_cell_angle_alpha    60
_cell_angle_beta     45
_cell_angle_gamma    45

_symmetry_Int_Tables_number  225
_chemical_formula_structural  HfTiF6
_chemical_formula_sum  HfTiF6
_cell_volume  137.21101142403708
_cell_formula_units_Z  1
loop_
  _symmetry_equiv_pos_site_id
 _symmetry_equiv_pos_as_xyz
 1  'x, y, z'
loop_
 _atom_site_type_symbol
 _atom_site_label
 _atom_site_symmetry_multiplicity
 _atom_site_fract_x
 _atom_site_fract_y
 _atom_site_fract_z
 _atom_site_fract_occupancy
 F  F1  1  0.25413  0.00000  0.00000  1
 F  F2  1  0.25413  0.49174  0.00000  1
 F  F3  1  0.25413  0.00000  0.49174  1
 F  F4  1  0.74587  0.00000  0.00000  1
 F  F5  1  0.74587  0.00000  0.50826  1
 F  F6  1  0.74587  0.50826  0.00000  1
 Hf  Hf1  1  0.50000  0.00000  0.00000  1
 Ti  Ti1  1  0.00000  0.00000  0.00000  1
