CIF file written using JARVIS-Tools package.
data_CsSnI3
_symmetry_space_group_name_H-M  'Pm-3m'
_cell_length_a       6.19861
_cell_length_b       6.19861
_cell_length_c       6.19861
_cell_angle_alpha    90
_cell_angle_beta     90
_cell_angle_gamma    90

_symmetry_Int_Tables_number  221
_chemical_formula_structural  CsSnI3
_chemical_formula_sum  CsSnI3
_cell_volume  238.16829581757244
_cell_formula_units_Z  1
loop_
  _symmetry_equiv_pos_site_id
 _symmetry_equiv_pos_as_xyz
 1  'x, y, z'
loop_
 _atom_site_type_symbol
 _atom_site_label
 _atom_site_symmetry_multiplicity
 _atom_site_fract_x
 _atom_site_fract_y
 _atom_site_fract_z
 _atom_site_fract_occupancy
 Cs  Cs1  1  0.50000  0.50000  0.50000  1
 I  I1  1  0.50000  0.00000  0.00000  1
 I  I2  1  0.00000  0.00000  0.50000  1
 I  I3  1  0.00000  0.50000  0.00000  1
 Sn  Sn1  1  0.00000  0.00000  0.00000  1
