CIF file written using JARVIS-Tools package.
data_CaB2H8
_symmetry_space_group_name_H-M  'Fddd'
_cell_length_a       7.75096
_cell_length_b       7.38865
_cell_length_c       5.70659
_cell_angle_alpha    71.269
_cell_angle_beta     64.5244
_cell_angle_gamma    44.2067

_symmetry_Int_Tables_number  70
_chemical_formula_structural  CaB2H8
_chemical_formula_sum  Ca2B4H6
_cell_volume  205.67035258402265
_cell_formula_units_Z  2
loop_
  _symmetry_equiv_pos_site_id
 _symmetry_equiv_pos_as_xyz
 1  'x, y, z'
loop_
 _atom_site_type_symbol
 _atom_site_label
 _atom_site_symmetry_multiplicity
 _atom_site_fract_x
 _atom_site_fract_y
 _atom_site_fract_z
 _atom_site_fract_occupancy
 B  B1  1  0.14803  0.14803  0.10197  1
 B  B2  1  0.60197  0.60197  0.64803  1
 B  B3  1  0.85197  0.85197  0.89803  1
 B  B4  1  0.39803  0.39803  0.35197  1
 Ca  Ca1  1  0.37500  0.37500  0.87500  1
 Ca  Ca2  1  0.62500  0.62500  0.12500  1
 H  H1  1  0.06198  0.34402  0.18070  1
 H  H2  1  0.41330  0.68070  0.84402  1
 H  H3  1  0.68070  0.41330  0.56198  1
 H  H4  1  0.34402  0.06198  0.91330  1
 H  H5  1  0.52868  0.78595  0.49431  1
 H  H6  1  0.58670  0.31930  0.15598  1
 H  H7  1  0.93802  0.65598  0.81930  1
 H  H8  1  0.21405  0.47132  0.30894  1
 H  H9  1  0.00569  0.80894  0.97132  1
 H  H10  1  0.31930  0.58670  0.43802  1
 H  H11  1  0.47132  0.21405  0.50569  1
 H  H12  1  0.80894  0.00569  0.71405  1
 H  H13  1  0.99431  0.19106  0.02868  1
 H  H14  1  0.78595  0.52868  0.69106  1
 H  H15  1  0.65598  0.93802  0.08670  1
 H  H16  1  0.19106  0.99431  0.28595  1
