CIF file written using JARVIS-Tools package.
data_K4ZnO3
_symmetry_space_group_name_H-M  'P-1'
_cell_length_a       6.96162
_cell_length_b       8.81219
_cell_length_c       10.8971
_cell_angle_alpha    77.5292
_cell_angle_beta     89.2877
_cell_angle_gamma    71.0228

_symmetry_Int_Tables_number  2
_chemical_formula_structural  K4ZnO3
_chemical_formula_sum  K6Zn4O2
_cell_volume  616.0481098041448
_cell_formula_units_Z  4
loop_
  _symmetry_equiv_pos_site_id
 _symmetry_equiv_pos_as_xyz
 1  'x, y, z'
loop_
 _atom_site_type_symbol
 _atom_site_label
 _atom_site_symmetry_multiplicity
 _atom_site_fract_x
 _atom_site_fract_y
 _atom_site_fract_z
 _atom_site_fract_occupancy
 K  K1  1  0.16249  0.87761  0.62151  1
 K  K2  1  0.30960  0.64405  0.41245  1
 K  K3  1  0.37795  0.91748  0.11653  1
 K  K4  1  0.77659  0.65751  0.99022  1
 K  K5  1  0.69040  0.35595  0.58755  1
 K  K6  1  0.51003  0.46273  0.19832  1
 K  K7  1  0.48997  0.53727  0.80168  1
 K  K8  1  0.97736  0.56128  0.70572  1
 K  K9  1  0.09961  0.13541  0.79668  1
 K  K10  1  0.62287  0.91282  0.66337  1
 K  K11  1  0.37713  0.08718  0.33663  1
 K  K12  1  0.62205  0.08252  0.88347  1
 K  K13  1  0.22341  0.34249  0.00978  1
 K  K14  1  0.83751  0.12239  0.37849  1
 K  K15  1  0.90039  0.86459  0.20332  1
 K  K16  1  0.02264  0.43872  0.29428  1
 O  O1  1  0.07132  0.19977  0.53320  1
 O  O2  1  0.55342  0.68303  0.57779  1
 O  O3  1  0.44658  0.31697  0.42221  1
 O  O4  1  0.85117  0.36890  0.90155  1
 O  O5  1  0.14883  0.63110  0.09845  1
 O  O6  1  0.60482  0.15538  0.11070  1
 O  O7  1  0.39518  0.84462  0.88930  1
 O  O8  1  0.06149  0.16045  0.18196  1
 O  O9  1  0.93851  0.83955  0.81804  1
 O  O10  1  0.92868  0.80023  0.46680  1
 O  O11  1  0.35204  0.31791  0.72281  1
 O  O12  1  0.64796  0.68209  0.27719  1
 Zn  Zn1  1  0.71537  0.71786  0.43656  1
 Zn  Zn2  1  0.28463  0.28214  0.56344  1
 Zn  Zn3  1  0.16696  0.76978  0.93986  1
 Zn  Zn4  1  0.83304  0.23022  0.06014  1
