CIF file written using JARVIS-Tools package.
data_P2PbAu2
_symmetry_space_group_name_H-M  'Cmcm'
_cell_length_a       5.99702
_cell_length_b       5.99702
_cell_length_c       11.347
_cell_angle_alpha    90
_cell_angle_beta     90
_cell_angle_gamma    148.028

_symmetry_Int_Tables_number  63
_chemical_formula_structural  P2PbAu2
_chemical_formula_sum  P4Pb2Au4
_cell_volume  216.08206685703314
_cell_formula_units_Z  2
loop_
  _symmetry_equiv_pos_site_id
 _symmetry_equiv_pos_as_xyz
 1  'x, y, z'
loop_
 _atom_site_type_symbol
 _atom_site_label
 _atom_site_symmetry_multiplicity
 _atom_site_fract_x
 _atom_site_fract_y
 _atom_site_fract_z
 _atom_site_fract_occupancy
 Au  Au1  1  0.22397  0.77603  0.75000  1
 Au  Au2  1  0.77603  0.22397  0.25000  1
 Au  Au3  1  0.00000  0.00000  0.00000  1
 Au  Au4  1  0.00000  0.00000  0.50000  1
 P  P1  1  0.20123  0.79877  0.95616  1
 P  P2  1  0.79877  0.20123  0.45616  1
 P  P3  1  0.20123  0.79877  0.54384  1
 P  P4  1  0.79877  0.20123  0.04384  1
 Pb  Pb1  1  0.47741  0.52259  0.75000  1
 Pb  Pb2  1  0.52259  0.47741  0.25000  1
