CIF file written using JARVIS-Tools package.
data_ZrSnRh
_symmetry_space_group_name_H-M  'P-62m'
_cell_length_a       3.67489
_cell_length_b       7.38513
_cell_length_c       7.38515
_cell_angle_alpha    120
_cell_angle_beta     90
_cell_angle_gamma    90

_symmetry_Int_Tables_number  189
_chemical_formula_structural  ZrSnRh
_chemical_formula_sum  Zr3Sn3Rh3
_cell_volume  173.57724895491833
_cell_formula_units_Z  3
loop_
  _symmetry_equiv_pos_site_id
 _symmetry_equiv_pos_as_xyz
 1  'x, y, z'
loop_
 _atom_site_type_symbol
 _atom_site_label
 _atom_site_symmetry_multiplicity
 _atom_site_fract_x
 _atom_site_fract_y
 _atom_site_fract_z
 _atom_site_fract_occupancy
 Rh  Rh1  1  0.00000  0.33332  0.66667  1
 Rh  Rh2  1  0.00000  0.66665  0.33333  1
 Rh  Rh3  1  0.50000  0.99999  0.00000  1
 Sn  Sn1  1  0.00000  0.26844  -0.00000  1
 Sn  Sn2  1  0.00000  0.73153  0.73154  1
 Sn  Sn3  1  0.00000  0.99999  0.26846  1
 Zr  Zr1  1  0.50000  0.60314  -0.00000  1
 Zr  Zr2  1  0.50000  0.39684  0.39685  1
 Zr  Zr3  1  0.50000  0.99999  0.60315  1
