CIF file written using JARVIS-Tools package.
data_V6O11F
_symmetry_space_group_name_H-M  'Amm2'
_cell_length_a       4.58669
_cell_length_b       4.58669
_cell_length_c       8.67041
_cell_angle_alpha    90
_cell_angle_beta     90
_cell_angle_gamma    91.2782

_symmetry_Int_Tables_number  38
_chemical_formula_structural  V6O11F
_chemical_formula_sum  V6OF
_cell_volume  182.36087131824786
_cell_formula_units_Z  1
loop_
  _symmetry_equiv_pos_site_id
 _symmetry_equiv_pos_as_xyz
 1  'x, y, z'
loop_
 _atom_site_type_symbol
 _atom_site_label
 _atom_site_symmetry_multiplicity
 _atom_site_fract_x
 _atom_site_fract_y
 _atom_site_fract_z
 _atom_site_fract_occupancy
 F  F1  1  0.80022  0.19978  0.83333  1
 O  O1  1  0.20384  0.79616  0.16543  1
 O  O2  1  0.20384  0.79616  0.50123  1
 O  O3  1  0.79976  0.20024  0.50173  1
 O  O4  1  0.29790  0.30153  0.99592  1
 O  O5  1  0.18970  0.81030  0.83333  1
 O  O6  1  0.29790  0.30153  0.67075  1
 O  O7  1  0.69847  0.70210  0.99592  1
 O  O8  1  0.70303  0.70034  0.33333  1
 O  O9  1  0.69847  0.70210  0.67075  1
 O  O10  1  0.79976  0.20024  0.16494  1
 O  O11  1  0.29966  0.29697  0.33333  1
 V  V1  1  0.50830  0.49170  0.49761  1
 V  V2  1  0.46974  0.53026  0.83333  1
 V  V3  1  0.50830  0.49170  0.16905  1
 V  V4  1  0.01257  0.98743  0.65130  1
 V  V5  1  0.99595  0.00405  0.33333  1
 V  V6  1  0.01257  0.98743  0.01537  1
