CIF file written using JARVIS-Tools package.
data_GaP
_symmetry_space_group_name_H-M  'R-3m'
_cell_length_a       3.88306
_cell_length_b       3.88306
_cell_length_c       8.17382
_cell_angle_alpha    76.2592
_cell_angle_beta     76.2592
_cell_angle_gamma    60

_symmetry_Int_Tables_number  166
_chemical_formula_structural  GaP
_chemical_formula_sum  Ga2P2
_cell_volume  102.64093450855421
_cell_formula_units_Z  2
loop_
  _symmetry_equiv_pos_site_id
 _symmetry_equiv_pos_as_xyz
 1  'x, y, z'
loop_
 _atom_site_type_symbol
 _atom_site_label
 _atom_site_symmetry_multiplicity
 _atom_site_fract_x
 _atom_site_fract_y
 _atom_site_fract_z
 _atom_site_fract_occupancy
 Ga  Ga1  1  0.58966  0.58966  0.23103  1
 Ga  Ga2  1  0.41034  0.41034  0.76897  1
 P  P1  1  0.90195  0.90195  0.29414  1
 P  P2  1  0.09805  0.09805  0.70586  1
