CIF file written using JARVIS-Tools package.
data_CrCo3
_symmetry_space_group_name_H-M  'P6_3/mmc'
_cell_length_a       3.94412
_cell_length_b       4.94873
_cell_length_c       4.94873
_cell_angle_alpha    120
_cell_angle_beta     90
_cell_angle_gamma    90

_symmetry_Int_Tables_number  194
_chemical_formula_structural  CrCo3
_chemical_formula_sum  Cr2Co6
_cell_volume  83.65064371151772
_cell_formula_units_Z  2
loop_
  _symmetry_equiv_pos_site_id
 _symmetry_equiv_pos_as_xyz
 1  'x, y, z'
loop_
 _atom_site_type_symbol
 _atom_site_label
 _atom_site_symmetry_multiplicity
 _atom_site_fract_x
 _atom_site_fract_y
 _atom_site_fract_z
 _atom_site_fract_occupancy
 Co  Co1  1  0.75000  0.16604  0.33207  1
 Co  Co2  1  0.75000  0.16603  0.83397  1
 Co  Co3  1  0.75000  0.66793  0.83396  1
 Co  Co4  1  0.25000  0.83396  0.66793  1
 Co  Co5  1  0.25000  0.83397  0.16603  1
 Co  Co6  1  0.25000  0.33207  0.16604  1
 Cr  Cr1  1  0.75000  0.66667  0.33333  1
 Cr  Cr2  1  0.25000  0.33333  0.66667  1
