CIF file written using JARVIS-Tools package.
data_Na4BeAlSi4ClO12
_symmetry_space_group_name_H-M  'I-4'
_cell_length_a       7.58792
_cell_length_b       7.58792
_cell_length_c       7.58792
_cell_angle_alpha    110.304
_cell_angle_beta     110.304
_cell_angle_gamma    107.818

_symmetry_Int_Tables_number  82
_chemical_formula_structural  Na4BeAlSi4ClO12
_chemical_formula_sum  Na4BeAlSi4ClO2
_cell_volume  336.1049081280605
_cell_formula_units_Z  1
loop_
  _symmetry_equiv_pos_site_id
 _symmetry_equiv_pos_as_xyz
 1  'x, y, z'
loop_
 _atom_site_type_symbol
 _atom_site_label
 _atom_site_symmetry_multiplicity
 _atom_site_fract_x
 _atom_site_fract_y
 _atom_site_fract_z
 _atom_site_fract_occupancy
 Al  Al1  1  0.25000  0.75000  0.50000  1
 Be  Be1  1  0.75000  0.25000  0.50000  1
 Cl  Cl1  1  0.00000  0.00000  0.00000  1
 Na  Na1  1  0.97197  0.01482  0.34907  1
 Na  Na2  1  0.66574  0.62289  0.65093  1
 Na  Na3  1  0.37711  0.02803  0.04285  1
 Na  Na4  1  0.98518  0.33426  0.95715  1
 O  O1  1  0.71162  0.69382  0.28306  1
 O  O2  1  0.99008  0.55663  0.27292  1
 O  O3  1  0.28371  0.71717  0.72708  1
 O  O4  1  0.44337  0.71629  0.43346  1
 O  O5  1  0.28283  0.00992  0.56654  1
 O  O6  1  0.60775  0.99692  0.30662  1
 O  O7  1  0.69030  0.30112  0.69338  1
 O  O8  1  0.30618  0.58924  0.01780  1
 O  O9  1  0.41076  0.42856  0.71694  1
 O  O10  1  0.57144  0.28838  0.98220  1
 O  O11  1  0.00308  0.30970  0.61082  1
 O  O12  1  0.69888  0.39225  0.38918  1
 Si  Si1  1  0.24160  0.50956  0.75988  1
 Si  Si2  1  0.74968  0.48172  0.24012  1
 Si  Si3  1  0.51828  0.75840  0.26797  1
 Si  Si4  1  0.49044  0.25032  0.73203  1
