CIF file written using JARVIS-Tools package.
data_Ba3Al2Si3O12
_symmetry_space_group_name_H-M  'Ia-3d'
_cell_length_a       10.9461
_cell_length_b       10.9461
_cell_length_c       10.9461
_cell_angle_alpha    109.471
_cell_angle_beta     109.471
_cell_angle_gamma    109.471

_symmetry_Int_Tables_number  230
_chemical_formula_structural  Ba3Al2Si3O12
_chemical_formula_sum  Ba2Al8Si2O48
_cell_volume  1009.6073189593671
_cell_formula_units_Z  4
loop_
  _symmetry_equiv_pos_site_id
 _symmetry_equiv_pos_as_xyz
 1  'x, y, z'
loop_
 _atom_site_type_symbol
 _atom_site_label
 _atom_site_symmetry_multiplicity
 _atom_site_fract_x
 _atom_site_fract_y
 _atom_site_fract_z
 _atom_site_fract_occupancy
 Al  Al1  1  0.00000  0.00000  0.50000  1
 Al  Al2  1  0.50000  0.50000  -0.00000  1
 Al  Al3  1  0.00000  0.00000  0.00000  1
 Al  Al4  1  0.00000  0.50000  -0.00000  1
 Al  Al5  1  0.50000  0.00000  -0.00000  1
 Al  Al6  1  0.50000  0.50000  0.50000  1
 Al  Al7  1  0.50000  0.00000  0.50000  1
 Al  Al8  1  0.00000  0.50000  0.50000  1
 Ba  Ba1  1  0.75000  0.62500  0.87500  1
 Ba  Ba2  1  0.12500  0.25000  0.37500  1
 Ba  Ba3  1  0.25000  0.37500  0.12500  1
 Ba  Ba4  1  0.12500  0.37500  0.75000  1
 Ba  Ba5  1  0.75000  0.12500  0.37500  1
 Ba  Ba6  1  0.37500  0.75000  0.12500  1
 Ba  Ba7  1  0.62500  0.25000  0.87500  1
 Ba  Ba8  1  0.87500  0.75000  0.62500  1
 Ba  Ba9  1  0.62500  0.87500  0.75000  1
 Ba  Ba10  1  0.87500  0.62500  0.25000  1
 Ba  Ba11  1  0.25000  0.87500  0.62500  1
 Ba  Ba12  1  0.37500  0.12500  0.25000  1
 O  O1  1  0.81547  0.41755  0.80491  1
 O  O2  1  0.41755  0.80491  0.81547  1
 O  O3  1  0.30491  0.91755  0.31547  1
 O  O4  1  0.48944  0.38736  0.80491  1
 O  O5  1  0.69509  0.11264  0.01056  1
 O  O6  1  0.11264  0.01056  0.69509  1
 O  O7  1  0.48944  0.60208  0.68453  1
 O  O8  1  0.08245  0.89792  0.38736  1
 O  O9  1  0.38736  0.08245  0.89792  1
 O  O10  1  0.60208  0.41755  0.11264  1
 O  O11  1  0.98944  0.18453  0.10208  1
 O  O12  1  0.60208  0.68453  0.48944  1
 O  O13  1  0.19509  0.51056  0.61264  1
 O  O14  1  0.30491  0.88736  0.98944  1
 O  O15  1  0.10208  0.98944  0.18453  1
 O  O16  1  0.51056  0.61264  0.19509  1
 O  O17  1  0.39792  0.58245  0.88736  1
 O  O18  1  0.88736  0.98944  0.30491  1
 O  O19  1  0.81547  0.89792  0.01056  1
 O  O20  1  0.61264  0.91755  0.10208  1
 O  O21  1  0.51056  0.39792  0.31547  1
 O  O22  1  0.39792  0.31547  0.51056  1
 O  O23  1  0.89792  0.01056  0.81547  1
 O  O24  1  0.31547  0.30491  0.91755  1
 O  O25  1  0.68453  0.48944  0.60208  1
 O  O26  1  0.01056  0.69509  0.11264  1
 O  O27  1  0.89792  0.38736  0.08245  1
 O  O28  1  0.58245  0.88736  0.39792  1
 O  O29  1  0.38736  0.80491  0.48944  1
 O  O30  1  0.61264  0.19509  0.51056  1
 O  O31  1  0.80491  0.48944  0.38736  1
 O  O32  1  0.19509  0.18453  0.58245  1
 O  O33  1  0.41755  0.11264  0.60208  1
 O  O34  1  0.98944  0.30491  0.88736  1
 O  O35  1  0.10208  0.61264  0.91755  1
 O  O36  1  0.18453  0.58245  0.19509  1
 O  O37  1  0.18453  0.10208  0.98944  1
 O  O38  1  0.58245  0.19509  0.18453  1
 O  O39  1  0.31547  0.51056  0.39792  1
 O  O40  1  0.68453  0.69509  0.08245  1
 O  O41  1  0.91755  0.10208  0.61264  1
 O  O42  1  0.01056  0.81547  0.89792  1
 O  O43  1  0.08245  0.68453  0.69509  1
 O  O44  1  0.88736  0.39792  0.58245  1
 O  O45  1  0.11264  0.60208  0.41755  1
 O  O46  1  0.80491  0.81547  0.41755  1
 O  O47  1  0.91755  0.31547  0.30491  1
 O  O48  1  0.69509  0.08245  0.68453  1
 Si  Si1  1  0.25000  0.62500  0.37500  1
 Si  Si2  1  0.12500  0.75000  0.87500  1
 Si  Si3  1  0.37500  0.62500  0.75000  1
 Si  Si4  1  0.75000  0.37500  0.62500  1
 Si  Si5  1  0.87500  0.12500  0.75000  1
 Si  Si6  1  0.87500  0.25000  0.12500  1
 Si  Si7  1  0.62500  0.37500  0.25000  1
 Si  Si8  1  0.37500  0.25000  0.62500  1
 Si  Si9  1  0.75000  0.87500  0.12500  1
 Si  Si10  1  0.25000  0.12500  0.87500  1
 Si  Si11  1  0.62500  0.75000  0.37500  1
 Si  Si12  1  0.12500  0.87500  0.25000  1
