CIF file written using JARVIS-Tools package.
data_Mg3Pd
_symmetry_space_group_name_H-M  'P6_3/mmc'
_cell_length_a       4.64105
_cell_length_b       4.64105
_cell_length_c       8.38233
_cell_angle_alpha    90
_cell_angle_beta     90
_cell_angle_gamma    120.004

_symmetry_Int_Tables_number  194
_chemical_formula_structural  Mg3Pd
_chemical_formula_sum  Mg6Pd2
_cell_volume  156.3548893197059
_cell_formula_units_Z  2
loop_
  _symmetry_equiv_pos_site_id
 _symmetry_equiv_pos_as_xyz
 1  'x, y, z'
loop_
 _atom_site_type_symbol
 _atom_site_label
 _atom_site_symmetry_multiplicity
 _atom_site_fract_x
 _atom_site_fract_y
 _atom_site_fract_z
 _atom_site_fract_occupancy
 Mg  Mg1  1  0.00003  0.99997  0.75000  1
 Mg  Mg2  1  0.99997  0.00003  0.25000  1
 Mg  Mg3  1  0.66667  0.33333  0.07585  1
 Mg  Mg4  1  0.33333  0.66667  0.92415  1
 Mg  Mg5  1  0.33333  0.66667  0.57585  1
 Mg  Mg6  1  0.66667  0.33333  0.42415  1
 Pd  Pd1  1  0.66671  0.33329  0.75000  1
 Pd  Pd2  1  0.33329  0.66671  0.25000  1
