CIF file written using JARVIS-Tools package.
data_Ca2CuB2H12O12
_symmetry_space_group_name_H-M  'P-1'
_cell_length_a       5.66644
_cell_length_b       5.6757
_cell_length_c       8.06682
_cell_angle_alpha    96.2753
_cell_angle_beta     109.477
_cell_angle_gamma    89.2119

_symmetry_Int_Tables_number  2
_chemical_formula_structural  Ca2CuB2H12O12
_chemical_formula_sum  Ca2CuB2H2O2
_cell_volume  243.0537705816152
_cell_formula_units_Z  1
loop_
  _symmetry_equiv_pos_site_id
 _symmetry_equiv_pos_as_xyz
 1  'x, y, z'
loop_
 _atom_site_type_symbol
 _atom_site_label
 _atom_site_symmetry_multiplicity
 _atom_site_fract_x
 _atom_site_fract_y
 _atom_site_fract_z
 _atom_site_fract_occupancy
 B  B1  1  0.24911  0.28052  0.59074  1
 B  B2  1  0.75089  0.71948  0.40926  1
 Ca  Ca1  1  0.77706  0.50295  0.76050  1
 Ca  Ca2  1  0.22294  0.49705  0.23950  1
 Cu  Cu1  1  0.00000  0.00000  0.00000  1
 H  H1  1  0.80986  0.36075  0.38056  1
 H  H2  1  0.48276  -0.01175  0.61336  1
 H  H3  1  0.44353  0.05895  0.10582  1
 H  H4  1  0.20738  0.22482  0.82916  1
 H  H5  1  0.69136  0.29245  0.04300  1
 H  H6  1  0.04224  0.04093  0.36852  1
 H  H7  1  0.19014  0.63925  0.61944  1
 H  H8  1  0.30864  0.70755  0.95700  1
 H  H9  1  0.79262  0.77518  0.17084  1
 H  H10  1  0.95776  0.95907  0.63148  1
 H  H11  1  0.51724  0.01175  0.38664  1
 H  H12  1  0.55647  0.94105  0.89418  1
 O  O1  1  0.90318  0.76019  0.29544  1
 O  O2  1  0.48995  0.15854  0.64943  1
 O  O3  1  0.09682  0.23981  0.70456  1
 O  O4  1  0.32110  0.17668  0.05381  1
 O  O5  1  0.09816  0.21092  0.40345  1
 O  O6  1  0.14946  0.69115  0.97847  1
 O  O7  1  0.32406  0.53290  0.60446  1
 O  O8  1  0.67890  0.82332  0.94619  1
 O  O9  1  0.90184  0.78908  0.59655  1
 O  O10  1  0.85054  0.30885  0.02153  1
 O  O11  1  0.67594  0.46710  0.39554  1
 O  O12  1  0.51005  0.84146  0.35057  1
