CIF file written using JARVIS-Tools package.
data_LiCo2O2F3
_symmetry_space_group_name_H-M  'Cmcm'
_cell_length_a       3.64039
_cell_length_b       5.12382
_cell_length_c       10.2643
_cell_angle_alpha    90
_cell_angle_beta     90
_cell_angle_gamma    110.808

_symmetry_Int_Tables_number  63
_chemical_formula_structural  LiCo2O2F3
_chemical_formula_sum  Li2Co4O4F6
_cell_volume  178.96888765533444
_cell_formula_units_Z  2
loop_
  _symmetry_equiv_pos_site_id
 _symmetry_equiv_pos_as_xyz
 1  'x, y, z'
loop_
 _atom_site_type_symbol
 _atom_site_label
 _atom_site_symmetry_multiplicity
 _atom_site_fract_x
 _atom_site_fract_y
 _atom_site_fract_z
 _atom_site_fract_occupancy
 Co  Co1  1  0.15198  0.30396  0.55670  1
 Co  Co2  1  0.15198  0.30396  0.94330  1
 Co  Co3  1  0.84802  0.69604  0.05670  1
 Co  Co4  1  0.84802  0.69604  0.44330  1
 F  F1  1  0.03527  0.07054  0.11978  1
 F  F2  1  0.03527  0.07054  0.38022  1
 F  F3  1  0.24121  0.48242  0.75000  1
 F  F4  1  0.75879  0.51758  0.25000  1
 F  F5  1  0.96473  0.92946  0.61978  1
 F  F6  1  0.96473  0.92946  0.88022  1
 Li  Li1  1  0.17009  0.34017  0.25000  1
 Li  Li2  1  0.82991  0.65983  0.75000  1
 O  O1  1  0.31655  0.63310  0.45869  1
 O  O2  1  0.31655  0.63310  0.04131  1
 O  O3  1  0.68345  0.36690  0.95869  1
 O  O4  1  0.68345  0.36690  0.54131  1
