CIF file written using JARVIS-Tools package.
data_Li6CoSi2O8
_symmetry_space_group_name_H-M  'P-1'
_cell_length_a       5.03696
_cell_length_b       5.45479
_cell_length_c       6.16952
_cell_angle_alpha    89.0706
_cell_angle_beta     79.4864
_cell_angle_gamma    84.5868

_symmetry_Int_Tables_number  2
_chemical_formula_structural  Li6CoSi2O8
_chemical_formula_sum  Li6CoSi2O8
_cell_volume  165.92173185284452
_cell_formula_units_Z  1
loop_
  _symmetry_equiv_pos_site_id
 _symmetry_equiv_pos_as_xyz
 1  'x, y, z'
loop_
 _atom_site_type_symbol
 _atom_site_label
 _atom_site_symmetry_multiplicity
 _atom_site_fract_x
 _atom_site_fract_y
 _atom_site_fract_z
 _atom_site_fract_occupancy
 Co  Co1  1  0.50000  0.00000  0.50000  1
 Li  Li1  1  0.84653  0.60315  0.18889  1
 Li  Li2  1  0.38261  0.73739  0.96683  1
 Li  Li3  1  0.23439  0.63016  0.39330  1
 Li  Li4  1  0.76561  0.36984  0.60670  1
 Li  Li5  1  0.61739  0.26261  0.03317  1
 Li  Li6  1  0.15347  0.39685  0.81111  1
 O  O1  1  0.23425  0.41102  0.10031  1
 O  O2  1  0.76575  0.58898  0.89969  1
 O  O3  1  0.80895  0.71405  0.48292  1
 O  O4  1  0.29741  0.92899  0.22503  1
 O  O5  1  0.78827  0.21728  0.29472  1
 O  O6  1  0.70259  0.07101  0.77497  1
 O  O7  1  0.19105  0.28595  0.51708  1
 O  O8  1  0.21173  0.78272  0.70528  1
 Si  Si1  1  0.12163  0.19618  0.27695  1
 Si  Si2  1  0.87837  0.80382  0.72305  1
