CIF file written using JARVIS-Tools package.
data_LiB6H10O2
_symmetry_space_group_name_H-M  'C2/m'
_cell_length_a       6.99674
_cell_length_b       6.99674
_cell_length_c       7.22917
_cell_angle_alpha    68.1001
_cell_angle_beta     68.1001
_cell_angle_gamma    79.2917

_symmetry_Int_Tables_number  12
_chemical_formula_structural  LiB6H10O2
_chemical_formula_sum  Li2B2H20O4
_cell_volume  304.21675731411483
_cell_formula_units_Z  2
loop_
  _symmetry_equiv_pos_site_id
 _symmetry_equiv_pos_as_xyz
 1  'x, y, z'
loop_
 _atom_site_type_symbol
 _atom_site_label
 _atom_site_symmetry_multiplicity
 _atom_site_fract_x
 _atom_site_fract_y
 _atom_site_fract_z
 _atom_site_fract_occupancy
 B  B1  1  0.99716  0.79832  0.22117  1
 B  B2  1  0.79832  0.99716  0.22117  1
 B  B3  1  0.94925  0.94925  0.81056  1
 B  B4  1  0.82387  0.82387  0.08407  1
 B  B5  1  0.17613  0.17613  0.91593  1
 B  B6  1  0.09096  0.76871  0.96827  1
 B  B7  1  0.05075  0.05075  0.18944  1
 B  B8  1  0.90904  0.23129  0.03173  1
 B  B9  1  0.76871  0.09096  0.96827  1
 B  B10  1  0.20168  0.00284  0.77883  1
 B  B11  1  0.00284  0.20168  0.77883  1
 B  B12  1  0.23129  0.90904  0.03173  1
 H  H1  1  0.00741  0.34584  0.62088  1
 H  H2  1  0.65416  0.99259  0.37912  1
 H  H3  1  0.45347  0.27814  0.16901  1
 H  H4  1  0.30176  0.30176  0.85471  1
 H  H5  1  0.27814  0.45347  0.16901  1
 H  H6  1  0.72186  0.54653  0.83099  1
 H  H7  1  0.75752  0.30096  0.37699  1
 H  H8  1  0.54653  0.72186  0.83099  1
 H  H9  1  0.99259  0.65416  0.37912  1
 H  H10  1  0.08713  0.08713  0.32217  1
 H  H11  1  0.39629  0.84464  0.05376  1
 H  H12  1  0.15536  0.60371  0.94624  1
 H  H13  1  0.30096  0.75752  0.37699  1
 H  H14  1  0.69824  0.69824  0.14529  1
 H  H15  1  0.91287  0.91287  0.67783  1
 H  H16  1  0.69904  0.24248  0.62301  1
 H  H17  1  0.60371  0.15536  0.94624  1
 H  H18  1  0.34584  0.00741  0.62088  1
 H  H19  1  0.84464  0.39629  0.05376  1
 H  H20  1  0.24248  0.69904  0.62301  1
 Li  Li1  1  0.36167  0.36167  0.51650  1
 Li  Li2  1  0.63833  0.63833  0.48350  1
 O  O1  1  0.37601  0.37601  0.24214  1
 O  O2  1  0.33794  0.66206  0.50000  1
 O  O3  1  0.66206  0.33794  0.50000  1
 O  O4  1  0.62399  0.62399  0.75786  1
