CIF file written using JARVIS-Tools package.
data_Cd2RuC6N6
_symmetry_space_group_name_H-M  'P-31m'
_cell_length_a       6.3704
_cell_length_b       6.3704
_cell_length_c       6.67294
_cell_angle_alpha    90
_cell_angle_beta     90
_cell_angle_gamma    120

_symmetry_Int_Tables_number  162
_chemical_formula_structural  Cd2RuC6N6
_chemical_formula_sum  Cd2RuC6N6
_cell_volume  234.5205414369415
_cell_formula_units_Z  1
loop_
  _symmetry_equiv_pos_site_id
 _symmetry_equiv_pos_as_xyz
 1  'x, y, z'
loop_
 _atom_site_type_symbol
 _atom_site_label
 _atom_site_symmetry_multiplicity
 _atom_site_fract_x
 _atom_site_fract_y
 _atom_site_fract_z
 _atom_site_fract_occupancy
 C  C1  1  0.25010  0.00000  0.18322  1
 C  C2  1  0.00000  0.74991  0.81678  1
 C  C3  1  0.74991  0.74990  0.18322  1
 C  C4  1  0.74990  -0.00000  0.81678  1
 C  C5  1  -0.00000  0.25009  0.18322  1
 C  C6  1  0.25009  0.25010  0.81678  1
 Cd  Cd1  1  0.66667  0.33333  0.49998  1
 Cd  Cd2  1  0.33333  0.66667  0.50002  1
 N  N1  1  0.38577  0.38578  0.69614  1
 N  N2  1  1.00000  0.38577  0.30386  1
 N  N3  1  0.61423  0.61422  0.30386  1
 N  N4  1  0.38578  0.00000  0.30386  1
 N  N5  1  0.00000  0.61423  0.69614  1
 N  N6  1  0.61422  1.00000  0.69614  1
 Ru  Ru1  1  0.00000  0.00000  0.00000  1
