CIF file written using JARVIS-Tools package.
data_LiMn2B2O6
_symmetry_space_group_name_H-M  'P-1'
_cell_length_a       5.27646
_cell_length_b       5.71455
_cell_length_c       7.88866
_cell_angle_alpha    80.5108
_cell_angle_beta     90.3389
_cell_angle_gamma    89.7318

_symmetry_Int_Tables_number  2
_chemical_formula_structural  LiMn2B2O6
_chemical_formula_sum  Li2Mn4B4O2
_cell_volume  234.6015743016438
_cell_formula_units_Z  2
loop_
  _symmetry_equiv_pos_site_id
 _symmetry_equiv_pos_as_xyz
 1  'x, y, z'
loop_
 _atom_site_type_symbol
 _atom_site_label
 _atom_site_symmetry_multiplicity
 _atom_site_fract_x
 _atom_site_fract_y
 _atom_site_fract_z
 _atom_site_fract_occupancy
 B  B1  1  0.82448  0.15169  0.09663  1
 B  B2  1  0.67609  0.32185  0.41831  1
 B  B3  1  0.32391  0.67815  0.58169  1
 B  B4  1  0.17552  0.84831  0.90337  1
 Li  Li1  1  0.34381  0.04913  0.25785  1
 Li  Li2  1  0.65619  0.95087  0.74215  1
 Mn  Mn1  1  0.17707  0.19462  0.55998  1
 Mn  Mn2  1  0.29484  0.34895  0.91639  1
 Mn  Mn3  1  0.70516  0.65105  0.08361  1
 Mn  Mn4  1  0.82293  0.80538  0.44002  1
 O  O1  1  0.69476  0.95465  0.18917  1
 O  O2  1  0.30524  0.04535  0.81083  1
 O  O3  1  0.80257  0.13883  0.52714  1
 O  O4  1  0.42470  0.30755  0.38536  1
 O  O5  1  0.08148  0.16943  0.10466  1
 O  O6  1  0.19743  0.86117  0.47286  1
 O  O7  1  0.67286  0.33363  0.01075  1
 O  O8  1  0.18412  0.48834  0.66648  1
 O  O9  1  0.57530  0.69245  0.61464  1
 O  O10  1  0.81588  0.51166  0.33352  1
 O  O11  1  0.32714  0.66637  0.98925  1
 O  O12  1  0.91852  0.83057  0.89534  1
