CIF file written using JARVIS-Tools package.
data_Ba2SnO4
_symmetry_space_group_name_H-M  'I4/mmm'
_cell_length_a       4.1983
_cell_length_b       4.1983
_cell_length_c       7.33896
_cell_angle_alpha    106.62
_cell_angle_beta     106.62
_cell_angle_gamma    90

_symmetry_Int_Tables_number  139
_chemical_formula_structural  Ba2SnO4
_chemical_formula_sum  Ba2SnO4
_cell_volume  118.29956141112051
_cell_formula_units_Z  1
loop_
  _symmetry_equiv_pos_site_id
 _symmetry_equiv_pos_as_xyz
 1  'x, y, z'
loop_
 _atom_site_type_symbol
 _atom_site_label
 _atom_site_symmetry_multiplicity
 _atom_site_fract_x
 _atom_site_fract_y
 _atom_site_fract_z
 _atom_site_fract_occupancy
 Ba  Ba1  1  0.64591  0.64591  0.29182  1
 Ba  Ba2  1  0.35409  0.35409  0.70818  1
 O  O1  1  0.84398  0.84398  0.68796  1
 O  O2  1  0.15602  0.15602  0.31204  1
 O  O3  1  0.50000  -0.00000  -0.00000  1
 O  O4  1  -0.00000  0.50000  0.00000  1
 Sn  Sn1  1  0.00000  0.00000  0.00000  1
