CIF file written using JARVIS-Tools package.
data_LiBeOs
_symmetry_space_group_name_H-M  'I4mm'
_cell_length_a       4.91098
_cell_length_b       4.91098
_cell_length_c       4.91098
_cell_angle_alpha    146.596
_cell_angle_beta     146.596
_cell_angle_gamma    47.9618

_symmetry_Int_Tables_number  107
_chemical_formula_structural  LiBeOs
_chemical_formula_sum  LiBeOs
_cell_volume  35.75237360418923
_cell_formula_units_Z  1
loop_
  _symmetry_equiv_pos_site_id
 _symmetry_equiv_pos_as_xyz
 1  'x, y, z'
loop_
 _atom_site_type_symbol
 _atom_site_label
 _atom_site_symmetry_multiplicity
 _atom_site_fract_x
 _atom_site_fract_y
 _atom_site_fract_z
 _atom_site_fract_occupancy
 Be  Be1  1  0.01550  0.01550  0.00000  1
 Li  Li1  1  0.34066  0.34066  0.00000  1
 Os  Os1  1  0.64385  0.64385  -0.00000  1
