CIF file written using JARVIS-Tools package.
data_CaFeAsF
_symmetry_space_group_name_H-M  'P4/nmm'
_cell_length_a       3.87786
_cell_length_b       3.87802
_cell_length_c       8.29763
_cell_angle_alpha    90
_cell_angle_beta     90
_cell_angle_gamma    89.9978

_symmetry_Int_Tables_number  129
_chemical_formula_structural  CaFeAsF
_chemical_formula_sum  Ca2Fe2As2F2
_cell_volume  124.78349714276855
_cell_formula_units_Z  2
loop_
  _symmetry_equiv_pos_site_id
 _symmetry_equiv_pos_as_xyz
 1  'x, y, z'
loop_
 _atom_site_type_symbol
 _atom_site_label
 _atom_site_symmetry_multiplicity
 _atom_site_fract_x
 _atom_site_fract_y
 _atom_site_fract_z
 _atom_site_fract_occupancy
 As  As1  1  0.75000  0.25000  0.65523  1
 As  As2  1  0.25000  0.75000  0.34477  1
 Ca  Ca1  1  0.75000  0.25000  0.15845  1
 Ca  Ca2  1  0.25000  0.75000  0.84155  1
 F  F1  1  0.75000  0.75000  -0.00001  1
 F  F2  1  0.25000  0.25000  0.00001  1
 Fe  Fe1  1  0.75000  0.75000  0.50001  1
 Fe  Fe2  1  0.25000  0.25000  0.49999  1
