CIF file written using JARVIS-Tools package.
data_Li2RhO3
_symmetry_space_group_name_H-M  'C2/m'
_cell_length_a       5.11238
_cell_length_b       5.09947
_cell_length_c       5.09664
_cell_angle_alpha    80.3055
_cell_angle_beta     70.3658
_cell_angle_gamma    59.9253

_symmetry_Int_Tables_number  12
_chemical_formula_structural  Li2RhO3
_chemical_formula_sum  Li4Rh2O6
_cell_volume  108.29802371413054
_cell_formula_units_Z  2
loop_
  _symmetry_equiv_pos_site_id
 _symmetry_equiv_pos_as_xyz
 1  'x, y, z'
loop_
 _atom_site_type_symbol
 _atom_site_label
 _atom_site_symmetry_multiplicity
 _atom_site_fract_x
 _atom_site_fract_y
 _atom_site_fract_z
 _atom_site_fract_occupancy
 Li  Li1  1  0.50029  0.50019  0.50005  1
 Li  Li2  1  0.16023  0.18034  0.50006  1
 Li  Li3  1  0.84038  0.82001  0.50006  1
 Li  Li4  1  0.00030  0.50015  0.00007  1
 O  O1  1  0.42609  0.15305  0.76435  1
 O  O2  1  0.57450  0.84725  0.23576  1
 O  O3  1  0.26621  0.50014  0.23948  1
 O  O4  1  0.07896  0.84733  0.76439  1
 O  O5  1  0.92165  0.15297  0.23571  1
 O  O6  1  0.73438  0.50017  0.76062  1
 Rh  Rh1  1  0.33376  0.83327  0.00005  1
 Rh  Rh2  1  0.66684  0.16704  0.00006  1
