CIF file written using JARVIS-Tools package.
data_SN
_symmetry_space_group_name_H-M  'P2_1/c'
_cell_length_a       4.01919
_cell_length_b       4.48866
_cell_length_c       7.72335
_cell_angle_alpha    90
_cell_angle_beta     108.885
_cell_angle_gamma    90

_symmetry_Int_Tables_number  14
_chemical_formula_structural  SN
_chemical_formula_sum  S4N4
_cell_volume  131.83478419942307
_cell_formula_units_Z  4
loop_
  _symmetry_equiv_pos_site_id
 _symmetry_equiv_pos_as_xyz
 1  'x, y, z'
loop_
 _atom_site_type_symbol
 _atom_site_label
 _atom_site_symmetry_multiplicity
 _atom_site_fract_x
 _atom_site_fract_y
 _atom_site_fract_z
 _atom_site_fract_occupancy
 N  N1  1  0.13377  0.93252  0.81994  1
 N  N2  1  0.86623  0.43252  0.68006  1
 N  N3  1  0.86623  0.06748  0.18006  1
 N  N4  1  0.13377  0.56748  0.31994  1
 S  S1  1  0.17982  0.28448  0.84612  1
 S  S2  1  0.82018  0.78448  0.65388  1
 S  S3  1  0.82018  0.71552  0.15388  1
 S  S4  1  0.17982  0.21552  0.34612  1
