CIF file written using JARVIS-Tools package.
data_ZnCoO3
_symmetry_space_group_name_H-M  'C2/c'
_cell_length_a       6.40664
_cell_length_b       6.40664
_cell_length_c       5.04426
_cell_angle_alpha    83.7627
_cell_angle_beta     96.2373
_cell_angle_gamma    95.4621

_symmetry_Int_Tables_number  15
_chemical_formula_structural  ZnCoO3
_chemical_formula_sum  Zn4Co4O2
_cell_volume  203.86844090343646
_cell_formula_units_Z  4
loop_
  _symmetry_equiv_pos_site_id
 _symmetry_equiv_pos_as_xyz
 1  'x, y, z'
loop_
 _atom_site_type_symbol
 _atom_site_label
 _atom_site_symmetry_multiplicity
 _atom_site_fract_x
 _atom_site_fract_y
 _atom_site_fract_z
 _atom_site_fract_occupancy
 Co  Co1  1  0.08586  0.08586  0.75000  1
 Co  Co2  1  0.25456  0.25456  0.25000  1
 Co  Co3  1  0.74544  0.74544  0.75000  1
 Co  Co4  1  0.91414  0.91414  0.25000  1
 O  O1  1  0.73190  0.47890  0.65557  1
 O  O2  1  0.01892  0.81498  0.61140  1
 O  O3  1  0.87353  0.66589  0.09279  1
 O  O4  1  0.18502  0.98108  0.11140  1
 O  O5  1  0.26810  0.52110  0.34443  1
 O  O6  1  0.12647  0.33411  0.90721  1
 O  O7  1  0.33411  0.12647  0.59279  1
 O  O8  1  0.98108  0.18502  0.38860  1
 O  O9  1  0.52110  0.26810  0.15557  1
 O  O10  1  0.47890  0.73190  0.84443  1
 O  O11  1  0.81498  0.01892  0.88860  1
 O  O12  1  0.66589  0.87353  0.40721  1
 Zn  Zn1  1  0.78062  0.41228  0.30376  1
 Zn  Zn2  1  0.58772  0.21938  0.80376  1
 Zn  Zn3  1  0.41228  0.78062  0.19624  1
 Zn  Zn4  1  0.21938  0.58772  0.69624  1
