CIF file written using JARVIS-Tools package.
data_CaZn2
_symmetry_space_group_name_H-M  'P6_3/mmc'
_cell_length_a       5.58713
_cell_length_b       5.58714
_cell_length_c       8.84809
_cell_angle_alpha    90
_cell_angle_beta     90
_cell_angle_gamma    120

_symmetry_Int_Tables_number  194
_chemical_formula_structural  CaZn2
_chemical_formula_sum  Ca4Zn8
_cell_volume  239.1983656270307
_cell_formula_units_Z  4
loop_
  _symmetry_equiv_pos_site_id
 _symmetry_equiv_pos_as_xyz
 1  'x, y, z'
loop_
 _atom_site_type_symbol
 _atom_site_label
 _atom_site_symmetry_multiplicity
 _atom_site_fract_x
 _atom_site_fract_y
 _atom_site_fract_z
 _atom_site_fract_occupancy
 Ca  Ca1  1  0.33333  0.66667  0.05843  1
 Ca  Ca2  1  0.66667  0.33333  0.55843  1
 Ca  Ca3  1  0.66667  0.33333  0.94157  1
 Ca  Ca4  1  0.33333  0.66667  0.44157  1
 Zn  Zn1  1  0.00000  0.00000  0.00000  1
 Zn  Zn2  1  0.00000  0.00000  0.50000  1
 Zn  Zn3  1  0.83250  0.66501  0.25000  1
 Zn  Zn4  1  0.16750  0.83250  0.75000  1
 Zn  Zn5  1  0.66501  0.83250  0.75000  1
 Zn  Zn6  1  0.33499  0.16750  0.25000  1
 Zn  Zn7  1  0.83250  0.16750  0.25000  1
 Zn  Zn8  1  0.16750  0.33499  0.75000  1
