CIF file written using JARVIS-Tools package.
data_Cu2SiNiS4
_symmetry_space_group_name_H-M  'Cmmm'
_cell_length_a       4.77389
_cell_length_b       4.77552
_cell_length_c       6.21434
_cell_angle_alpha    90
_cell_angle_beta     90
_cell_angle_gamma    93.7599

_symmetry_Int_Tables_number  65
_chemical_formula_structural  Cu2SiNiS4
_chemical_formula_sum  Cu2SiNiS4
_cell_volume  141.3684388001287
_cell_formula_units_Z  1
loop_
  _symmetry_equiv_pos_site_id
 _symmetry_equiv_pos_as_xyz
 1  'x, y, z'
loop_
 _atom_site_type_symbol
 _atom_site_label
 _atom_site_symmetry_multiplicity
 _atom_site_fract_x
 _atom_site_fract_y
 _atom_site_fract_z
 _atom_site_fract_occupancy
 Cu  Cu1  1  0.50000  0.00000  0.50000  1
 Cu  Cu2  1  -0.00000  0.50000  0.50000  1
 Ni  Ni1  1  0.50000  0.50000  0.00000  1
 S  S1  1  0.25346  0.25346  0.75660  1
 S  S2  1  0.25346  0.25346  0.24340  1
 S  S3  1  0.74654  0.74654  0.24340  1
 S  S4  1  0.74654  0.74654  0.75660  1
 Si  Si1  1  0.00000  0.00000  0.00000  1
