CIF file written using JARVIS-Tools package.
data_Nd2Ni5B4
_symmetry_space_group_name_H-M  'C2/m'
_cell_length_a       5.52531
_cell_length_b       5.52531
_cell_length_c       6.77617
_cell_angle_alpha    58.8685
_cell_angle_beta     58.8685
_cell_angle_gamma    55.2561

_symmetry_Int_Tables_number  12
_chemical_formula_structural  Nd2Ni5B4
_chemical_formula_sum  Nd2Ni5B4
_cell_volume  138.04310993291085
_cell_formula_units_Z  1
loop_
  _symmetry_equiv_pos_site_id
 _symmetry_equiv_pos_as_xyz
 1  'x, y, z'
loop_
 _atom_site_type_symbol
 _atom_site_label
 _atom_site_symmetry_multiplicity
 _atom_site_fract_x
 _atom_site_fract_y
 _atom_site_fract_z
 _atom_site_fract_occupancy
 B  B1  1  0.22174  0.22174  0.16071  1
 B  B2  1  0.77826  0.77826  0.83929  1
 B  B3  1  0.59904  0.59904  0.86213  1
 B  B4  1  0.40096  0.40096  0.13787  1
 Nd  Nd1  1  0.72645  0.72645  0.35020  1
 Nd  Nd2  1  0.27355  0.27355  0.64980  1
 Ni  Ni1  1  0.82254  0.32567  0.13066  1
 Ni  Ni2  1  0.67433  0.17746  0.86934  1
 Ni  Ni3  1  0.17746  0.67433  0.86934  1
 Ni  Ni4  1  0.32567  0.82254  0.13066  1
 Ni  Ni5  1  -0.00000  -0.00000  0.50000  1
