CIF file written using JARVIS-Tools package.
data_LiBH4
_symmetry_space_group_name_H-M  'P6_3mc'
_cell_length_a       4.18629
_cell_length_b       4.18629
_cell_length_c       7.17787
_cell_angle_alpha    90
_cell_angle_beta     90
_cell_angle_gamma    119.995

_symmetry_Int_Tables_number  186
_chemical_formula_structural  LiBH4
_chemical_formula_sum  Li2B2H8
_cell_volume  108.94455853108326
_cell_formula_units_Z  2
loop_
  _symmetry_equiv_pos_site_id
 _symmetry_equiv_pos_as_xyz
 1  'x, y, z'
loop_
 _atom_site_type_symbol
 _atom_site_label
 _atom_site_symmetry_multiplicity
 _atom_site_fract_x
 _atom_site_fract_y
 _atom_site_fract_z
 _atom_site_fract_occupancy
 B  B1  1  0.33337  0.66663  0.55530  1
 B  B2  1  0.66663  0.33337  0.05530  1
 H  H1  1  0.33293  0.66707  0.38557  1
 H  H2  1  0.66707  0.33293  0.88557  1
 H  H3  1  0.17484  0.34920  0.61258  1
 H  H4  1  0.65080  0.82516  0.61258  1
 H  H5  1  0.17484  0.82516  0.61314  1
 H  H6  1  0.82516  0.65080  0.11258  1
 H  H7  1  0.34920  0.17484  0.11258  1
 H  H8  1  0.82516  0.17484  0.11314  1
 Li  Li1  1  0.33326  0.66674  0.12934  1
 Li  Li2  1  0.66674  0.33326  0.62934  1
