CIF file written using JARVIS-Tools package.
data_CaCd3O4
_symmetry_space_group_name_H-M  'Cmmm'
_cell_length_a       3.39288
_cell_length_b       5.82099
_cell_length_c       5.82099
_cell_angle_alpha    70.3489
_cell_angle_beta     90
_cell_angle_gamma    90

_symmetry_Int_Tables_number  65
_chemical_formula_structural  CaCd3O4
_chemical_formula_sum  CaCd3O4
_cell_volume  108.26857789048599
_cell_formula_units_Z  1
loop_
  _symmetry_equiv_pos_site_id
 _symmetry_equiv_pos_as_xyz
 1  'x, y, z'
loop_
 _atom_site_type_symbol
 _atom_site_label
 _atom_site_symmetry_multiplicity
 _atom_site_fract_x
 _atom_site_fract_y
 _atom_site_fract_z
 _atom_site_fract_occupancy
 Ca  Ca1  1  0.00000  0.50000  0.50000  1
 Cd  Cd1  1  0.50000  0.50000  -0.00000  1
 Cd  Cd2  1  0.50000  -0.00000  0.50000  1
 Cd  Cd3  1  0.00000  0.00000  0.00000  1
 O  O1  1  -0.00000  0.75042  0.75042  1
 O  O2  1  0.50000  0.74716  0.25284  1
 O  O3  1  0.50000  0.25284  0.74716  1
 O  O4  1  -0.00000  0.24958  0.24958  1
