CIF file written using JARVIS-Tools package.
data_Li2FeO3
_symmetry_space_group_name_H-M  'C2/m'
_cell_length_a       2.85145
_cell_length_b       5.78421
_cell_length_c       6.29379
_cell_angle_alpha    103.835
_cell_angle_beta     103.094
_cell_angle_gamma    89.9991

_symmetry_Int_Tables_number  12
_chemical_formula_structural  Li2FeO3
_chemical_formula_sum  Li4Fe2O6
_cell_volume  98.01266222382132
_cell_formula_units_Z  2
loop_
  _symmetry_equiv_pos_site_id
 _symmetry_equiv_pos_as_xyz
 1  'x, y, z'
loop_
 _atom_site_type_symbol
 _atom_site_label
 _atom_site_symmetry_multiplicity
 _atom_site_fract_x
 _atom_site_fract_y
 _atom_site_fract_z
 _atom_site_fract_occupancy
 Fe  Fe1  1  0.67281  0.34002  0.34562  1
 Fe  Fe2  1  0.99385  0.99331  0.98770  1
 Li  Li1  1  0.67363  0.82655  0.34700  1
 Li  Li2  1  0.99302  0.50676  0.98632  1
 Li  Li3  1  0.33333  0.16666  0.66666  1
 Li  Li4  1  0.33333  0.66667  0.66667  1
 O  O1  1  0.50724  0.22941  0.01450  1
 O  O2  1  0.82124  0.40870  0.64250  1
 O  O3  1  0.84543  0.92462  0.69083  1
 O  O4  1  0.50404  0.78173  0.00803  1
 O  O5  1  0.15942  0.10392  0.31882  1
 O  O6  1  0.16263  0.55160  0.32530  1
