CIF file written using JARVIS-Tools package.
data_YbMoClO4
_symmetry_space_group_name_H-M  'C2/m'
_cell_length_a       6.58813
_cell_length_b       6.58813
_cell_length_c       6.89342
_cell_angle_alpha    77.7121
_cell_angle_beta     77.7121
_cell_angle_gamma    63.0414

_symmetry_Int_Tables_number  12
_chemical_formula_structural  YbMoClO4
_chemical_formula_sum  Yb2Mo2Cl2O8
_cell_volume  258.2406711980185
_cell_formula_units_Z  2
loop_
  _symmetry_equiv_pos_site_id
 _symmetry_equiv_pos_as_xyz
 1  'x, y, z'
loop_
 _atom_site_type_symbol
 _atom_site_label
 _atom_site_symmetry_multiplicity
 _atom_site_fract_x
 _atom_site_fract_y
 _atom_site_fract_z
 _atom_site_fract_occupancy
 Cl  Cl1  1  -0.02292  -0.02292  0.86808  1
 Cl  Cl2  1  0.02292  0.02292  0.13192  1
 Mo  Mo1  1  0.35361  0.35361  0.27890  1
 Mo  Mo2  1  0.64639  0.64639  0.72110  1
 O  O1  1  0.50458  0.10894  0.14688  1
 O  O2  1  0.48501  0.48501  0.75265  1
 O  O3  1  0.10894  0.50458  0.14688  1
 O  O4  1  0.51499  0.51499  0.24735  1
 O  O5  1  0.49542  0.89106  0.85312  1
 O  O6  1  0.89106  0.49542  0.85312  1
 O  O7  1  0.27414  0.27414  0.53352  1
 O  O8  1  0.72586  0.72586  0.46648  1
 Yb  Yb1  1  0.27914  0.27914  0.86142  1
 Yb  Yb2  1  0.72086  0.72086  0.13858  1
