data_image0
_chemical_formula_structural       B2La2O6
_chemical_formula_sum              "B2 La2 O6"
_cell_length_a       6.26838
_cell_length_b       5.07336
_cell_length_c       4.159
_cell_angle_alpha    90
_cell_angle_beta     107.554
_cell_angle_gamma    90

_space_group_name_H-M_alt    "P 1"
_space_group_IT_number       1

loop_
  _space_group_symop_operation_xyz
  'x, y, z'

loop_
  _atom_site_type_symbol
  _atom_site_label
  _atom_site_symmetry_multiplicity
  _atom_site_fract_x
  _atom_site_fract_y
  _atom_site_fract_z
  _atom_site_occupancy
  B   B1        1.0  0.25500  0.25000  0.99600  1.0000
  B   B2        1.0  0.74500  0.75000  0.00442  1.0000
  La  La1       1.0  0.22400  0.75000  0.38000  1.0000
  La  La2       1.0  0.77600  0.25000  0.62000  1.0000
  O   O1        1.0  0.82700  0.51600  0.16100  1.0000
  O   O2        1.0  0.82700  0.98400  0.16100  1.0000
  O   O3        1.0  0.38400  0.25000  0.32800  1.0000
  O   O4        1.0  0.61600  0.75000  0.67200  1.0000
  O   O5        1.0  0.17300  0.01590  0.83900  1.0000
  O   O6        1.0  0.17300  0.48400  0.83900  1.0000
