CIF file written using JARVIS-Tools package.
data_EuMoClO4
_symmetry_space_group_name_H-M  'C2/m'
_cell_length_a       6.34867
_cell_length_b       6.34867
_cell_length_c       6.91025
_cell_angle_alpha    76.1881
_cell_angle_beta     76.1881
_cell_angle_gamma    70.723

_symmetry_Int_Tables_number  12
_chemical_formula_structural  EuMoClO4
_chemical_formula_sum  Eu2Mo2Cl2O8
_cell_volume  251.38926076642792
_cell_formula_units_Z  2
loop_
  _symmetry_equiv_pos_site_id
 _symmetry_equiv_pos_as_xyz
 1  'x, y, z'
loop_
 _atom_site_type_symbol
 _atom_site_label
 _atom_site_symmetry_multiplicity
 _atom_site_fract_x
 _atom_site_fract_y
 _atom_site_fract_z
 _atom_site_fract_occupancy
 Cl  Cl1  1  0.99029  0.99029  0.76082  1
 Cl  Cl2  1  0.00971  0.00971  0.23918  1
 Eu  Eu1  1  0.22186  0.22186  0.89010  1
 Eu  Eu2  1  0.77814  0.77814  0.10990  1
 Mo  Mo1  1  0.36256  0.36256  0.26942  1
 Mo  Mo2  1  0.63744  0.63744  0.73058  1
 O  O1  1  0.11463  0.48961  0.15251  1
 O  O2  1  0.46003  0.46003  0.79515  1
 O  O3  1  0.48961  0.11463  0.15251  1
 O  O4  1  0.29414  0.29414  0.53288  1
 O  O5  1  0.88537  0.51039  0.84749  1
 O  O6  1  0.51039  0.88537  0.84749  1
 O  O7  1  0.70586  0.70586  0.46712  1
 O  O8  1  0.53997  0.53997  0.20485  1
