CIF file written using JARVIS-Tools package.
data_LiBePd
_symmetry_space_group_name_H-M  'I4mm'
_cell_length_a       4.82471
_cell_length_b       4.82471
_cell_length_c       4.82471
_cell_angle_alpha    144.722
_cell_angle_beta     144.722
_cell_angle_gamma    50.7495

_symmetry_Int_Tables_number  107
_chemical_formula_structural  LiBePd
_chemical_formula_sum  LiBePd
_cell_volume  37.27029090030808
_cell_formula_units_Z  1
loop_
  _symmetry_equiv_pos_site_id
 _symmetry_equiv_pos_as_xyz
 1  'x, y, z'
loop_
 _atom_site_type_symbol
 _atom_site_label
 _atom_site_symmetry_multiplicity
 _atom_site_fract_x
 _atom_site_fract_y
 _atom_site_fract_z
 _atom_site_fract_occupancy
 Be  Be1  1  0.02333  0.02333  0.00000  1
 Li  Li1  1  0.33448  0.33448  0.00000  1
 Pd  Pd1  1  0.64219  0.64219  0.00000  1
