CIF file written using JARVIS-Tools package.
data_K6Na3AlSb4
_symmetry_space_group_name_H-M  'P6_3/mmc'
_cell_length_a       10.1631
_cell_length_b       10.1631
_cell_length_c       10.4839
_cell_angle_alpha    90
_cell_angle_beta     90
_cell_angle_gamma    120

_symmetry_Int_Tables_number  194
_chemical_formula_structural  K6Na3AlSb4
_chemical_formula_sum  K2Na6Al2Sb8
_cell_volume  937.7901355251397
_cell_formula_units_Z  2
loop_
  _symmetry_equiv_pos_site_id
 _symmetry_equiv_pos_as_xyz
 1  'x, y, z'
loop_
 _atom_site_type_symbol
 _atom_site_label
 _atom_site_symmetry_multiplicity
 _atom_site_fract_x
 _atom_site_fract_y
 _atom_site_fract_z
 _atom_site_fract_occupancy
 Al  Al1  1  0.33333  0.66667  0.75000  1
 Al  Al2  1  0.66667  0.33333  0.25000  1
 K  K1  1  0.41502  0.20751  0.54108  1
 K  K2  1  0.79249  0.20751  0.54108  1
 K  K3  1  0.79249  0.58498  0.54108  1
 K  K4  1  0.58498  0.79249  0.04108  1
 K  K5  1  0.20751  0.79249  0.04108  1
 K  K6  1  0.20751  0.41502  0.04108  1
 K  K7  1  0.20751  0.79249  0.45892  1
 K  K8  1  0.58498  0.79249  0.45892  1
 K  K9  1  0.20751  0.41502  0.45892  1
 K  K10  1  0.79249  0.20751  0.95892  1
 K  K11  1  0.41502  0.20751  0.95892  1
 K  K12  1  0.79249  0.58498  0.95892  1
 Na  Na1  1  0.88433  0.76867  0.25000  1
 Na  Na2  1  0.23133  0.11567  0.25000  1
 Na  Na3  1  0.11567  0.88433  0.75000  1
 Na  Na4  1  0.76867  0.88433  0.75000  1
 Na  Na5  1  0.11567  0.23133  0.75000  1
 Na  Na6  1  0.88433  0.11567  0.25000  1
 Sb  Sb1  1  0.48300  0.51700  0.75000  1
 Sb  Sb2  1  0.00000  0.00000  0.00000  1
 Sb  Sb3  1  0.51700  0.03399  0.25000  1
 Sb  Sb4  1  0.96601  0.48300  0.25000  1
 Sb  Sb5  1  0.51700  0.48300  0.25000  1
 Sb  Sb6  1  0.48300  0.96601  0.75000  1
 Sb  Sb7  1  0.03399  0.51700  0.75000  1
 Sb  Sb8  1  0.00000  0.00000  0.50000  1
