CIF file written using JARVIS-Tools package.
data_DyCdCu
_symmetry_space_group_name_H-M  'P-62m'
_cell_length_a       3.88025
_cell_length_b       7.4478
_cell_length_c       7.4477
_cell_angle_alpha    120.001
_cell_angle_beta     90
_cell_angle_gamma    90

_symmetry_Int_Tables_number  189
_chemical_formula_structural  DyCdCu
_chemical_formula_sum  Dy3Cd3Cu3
_cell_volume  186.39729520366188
_cell_formula_units_Z  3
loop_
  _symmetry_equiv_pos_site_id
 _symmetry_equiv_pos_as_xyz
 1  'x, y, z'
loop_
 _atom_site_type_symbol
 _atom_site_label
 _atom_site_symmetry_multiplicity
 _atom_site_fract_x
 _atom_site_fract_y
 _atom_site_fract_z
 _atom_site_fract_occupancy
 Cd  Cd1  1  0.00000  0.25379  -0.00000  1
 Cd  Cd2  1  0.00000  0.74619  0.74621  1
 Cd  Cd3  1  0.00000  0.99999  0.25379  1
 Cu  Cu1  1  0.00000  0.33332  0.66667  1
 Cu  Cu2  1  0.00000  0.66666  0.33333  1
 Cu  Cu3  1  0.50000  0.99999  0.00000  1
 Dy  Dy1  1  0.50000  0.58993  -0.00000  1
 Dy  Dy2  1  0.50000  0.41005  0.41006  1
 Dy  Dy3  1  0.50000  0.99999  0.58994  1
