CIF file written using JARVIS-Tools package.
data_Fe4O7F
_symmetry_space_group_name_H-M  'Cm'
_cell_length_a       4.3557
_cell_length_b       7.20546
_cell_length_c       7.20546
_cell_angle_alpha    74.3328
_cell_angle_beta     90.9462
_cell_angle_gamma    89.0538

_symmetry_Int_Tables_number  8
_chemical_formula_structural  Fe4O7F
_chemical_formula_sum  Fe8O4F2
_cell_volume  217.65897195193628
_cell_formula_units_Z  2
loop_
  _symmetry_equiv_pos_site_id
 _symmetry_equiv_pos_as_xyz
 1  'x, y, z'
loop_
 _atom_site_type_symbol
 _atom_site_label
 _atom_site_symmetry_multiplicity
 _atom_site_fract_x
 _atom_site_fract_y
 _atom_site_fract_z
 _atom_site_fract_occupancy
 F  F1  1  0.19819  0.47267  0.27640  1
 F  F2  1  0.19819  0.22360  0.02733  1
 Fe  Fe1  1  0.99046  0.99138  0.00102  1
 Fe  Fe2  1  0.97245  0.23593  0.26407  1
 Fe  Fe3  1  0.99046  0.49898  0.50862  1
 Fe  Fe4  1  0.49497  0.12365  0.62688  1
 Fe  Fe5  1  0.52439  0.63585  0.11388  1
 Fe  Fe6  1  0.49497  0.87312  0.37635  1
 Fe  Fe7  1  0.52439  0.38612  0.86415  1
 Fe  Fe8  1  0.00752  0.75501  0.74499  1
 O  O1  1  0.70134  0.40112  0.09888  1
 O  O2  1  0.80922  0.77849  0.96920  1
 O  O3  1  0.79715  0.27461  0.47731  1
 O  O4  1  0.80922  0.53080  0.72151  1
 O  O5  1  0.69276  0.90248  0.59752  1
 O  O6  1  0.69674  0.15250  0.84953  1
 O  O7  1  0.69674  0.65047  0.34750  1
 O  O8  1  0.31187  0.59967  0.90033  1
 O  O9  1  0.30374  0.35033  0.65338  1
 O  O10  1  0.29487  0.09735  0.40265  1
 O  O11  1  0.19473  0.72345  0.52689  1
 O  O12  1  0.19473  0.97311  0.77655  1
 O  O13  1  0.79715  0.02269  0.22539  1
 O  O14  1  0.30374  0.84662  0.14967  1
