data_image0
_chemical_formula_structural       Mn3Si3Ti3
_chemical_formula_sum              "Mn3 Si3 Ti3"
_cell_length_a       6.51718
_cell_length_b       6.51718
_cell_length_c       3.18214
_cell_angle_alpha    90
_cell_angle_beta     90
_cell_angle_gamma    119.962

_space_group_name_H-M_alt    "P 1"
_space_group_IT_number       1

loop_
  _space_group_symop_operation_xyz
  'x, y, z'

loop_
  _atom_site_type_symbol
  _atom_site_label
  _atom_site_symmetry_multiplicity
  _atom_site_fract_x
  _atom_site_fract_y
  _atom_site_fract_z
  _atom_site_occupancy
  Mn  Mn1       1.0  0.25800  0.00003  0.00000  1.0000
  Mn  Mn2       1.0  0.00003  0.25800  0.00000  1.0000
  Mn  Mn3       1.0  0.74200  0.74200  0.00000  1.0000
  Si  Si1       1.0  0.66700  0.33300  0.00000  1.0000
  Si  Si2       1.0  0.33300  0.66700  0.00000  1.0000
  Si  Si3       1.0  0.00030  0.00030  0.50000  1.0000
  Ti  Ti1       1.0  0.59600  0.00009  0.50000  1.0000
  Ti  Ti2       1.0  0.40400  0.40400  0.50000  1.0000
  Ti  Ti3       1.0  0.00009  0.59600  0.50000  1.0000
