CIF file written using JARVIS-Tools package.
data_Li2Fe2OF4
_symmetry_space_group_name_H-M  'Cmc2_1'
_cell_length_a       2.86066
_cell_length_b       5.06963
_cell_length_c       12.7627
_cell_angle_alpha    90
_cell_angle_beta     90
_cell_angle_gamma    106.388

_symmetry_Int_Tables_number  36
_chemical_formula_structural  Li2Fe2OF4
_chemical_formula_sum  Li4Fe4O2F8
_cell_volume  177.57156008167513
_cell_formula_units_Z  2
loop_
  _symmetry_equiv_pos_site_id
 _symmetry_equiv_pos_as_xyz
 1  'x, y, z'
loop_
 _atom_site_type_symbol
 _atom_site_label
 _atom_site_symmetry_multiplicity
 _atom_site_fract_x
 _atom_site_fract_y
 _atom_site_fract_z
 _atom_site_fract_occupancy
 F  F1  1  0.84868  0.69736  0.96595  1
 F  F2  1  0.87282  0.74565  0.52843  1
 F  F3  1  0.57844  0.15688  0.64361  1
 F  F4  1  0.42073  0.84145  0.35276  1
 F  F5  1  0.57927  0.15855  0.85276  1
 F  F6  1  0.42156  0.84312  0.14361  1
 F  F7  1  0.12718  0.25435  0.02843  1
 F  F8  1  0.15132  0.30264  0.46595  1
 Fe  Fe1  1  0.03783  0.07566  0.25799  1
 Fe  Fe2  1  0.24940  0.49881  0.61654  1
 Fe  Fe3  1  0.96217  0.92434  0.75799  1
 Fe  Fe4  1  0.75060  0.50119  0.11654  1
 Li  Li1  1  0.22510  0.45020  0.88817  1
 Li  Li2  1  0.51119  0.02238  0.49231  1
 Li  Li3  1  0.48881  0.97762  0.99231  1
 Li  Li4  1  0.77490  0.54980  0.38817  1
 O  O1  1  0.32407  0.64814  0.75423  1
 O  O2  1  0.67593  0.35186  0.25423  1
