CIF file written using JARVIS-Tools package.
data_BaLaTi4
_symmetry_space_group_name_H-M  'F-43m'
_cell_length_a       6.01587
_cell_length_b       6.01587
_cell_length_c       6.01587
_cell_angle_alpha    60
_cell_angle_beta     60
_cell_angle_gamma    60

_symmetry_Int_Tables_number  216
_chemical_formula_structural  BaLaTi4
_chemical_formula_sum  BaLaTi4
_cell_volume  153.95038133153435
_cell_formula_units_Z  1
loop_
  _symmetry_equiv_pos_site_id
 _symmetry_equiv_pos_as_xyz
 1  'x, y, z'
loop_
 _atom_site_type_symbol
 _atom_site_label
 _atom_site_symmetry_multiplicity
 _atom_site_fract_x
 _atom_site_fract_y
 _atom_site_fract_z
 _atom_site_fract_occupancy
 Ba  Ba1  1  0.25000  0.25000  0.25000  1
 La  La1  1  0.00000  0.00000  0.00000  1
 Ti  Ti1  1  0.08688  0.63771  0.63771  1
 Ti  Ti2  1  0.63771  0.63771  0.63771  1
 Ti  Ti3  1  0.63771  0.08688  0.63771  1
 Ti  Ti4  1  0.63771  0.63771  0.08688  1
