CIF file written using JARVIS-Tools package.
data_Li3Co5OF11
_symmetry_space_group_name_H-M  'P1'
_cell_length_a       5.12503
_cell_length_b       5.61306
_cell_length_c       8.86021
_cell_angle_alpha    68.8236
_cell_angle_beta     105.871
_cell_angle_gamma    116.651

_symmetry_Int_Tables_number  1
_chemical_formula_structural  Li3Co5OF11
_chemical_formula_sum  Li3Co5OF
_cell_volume  210.512583583067
_cell_formula_units_Z  1
loop_
  _symmetry_equiv_pos_site_id
 _symmetry_equiv_pos_as_xyz
 1  'x, y, z'
loop_
 _atom_site_type_symbol
 _atom_site_label
 _atom_site_symmetry_multiplicity
 _atom_site_fract_x
 _atom_site_fract_y
 _atom_site_fract_z
 _atom_site_fract_occupancy
 Co  Co1  1  0.48319  0.12507  0.84024  1
 Co  Co2  1  0.97844  0.64399  0.34282  1
 Co  Co3  1  0.01154  0.39054  0.65989  1
 Co  Co4  1  0.51535  0.86670  0.15739  1
 Co  Co5  1  0.74804  0.86724  0.57537  1
 F  F1  1  0.44336  0.87908  0.37324  1
 F  F2  1  0.46067  0.51230  0.71338  1
 F  F3  1  0.52781  0.47635  0.27922  1
 F  F4  1  0.56176  0.10611  0.62512  1
 F  F5  1  0.93057  0.37554  0.87744  1
 F  F6  1  0.02404  0.97015  0.78633  1
 F  F7  1  0.51781  0.75862  0.96033  1
 F  F8  1  0.96684  0.03488  0.21300  1
 F  F9  1  0.06402  0.63644  0.13264  1
 F  F10  1  0.47166  0.23103  0.03494  1
 F  F11  1  0.03650  0.27458  0.46452  1
 Li  Li1  1  0.21277  0.36032  0.07106  1
 Li  Li2  1  0.29063  0.14669  0.41844  1
 Li  Li3  1  0.79024  0.62565  0.94269  1
 O  O1  1  0.96476  0.71871  0.53195  1
