CIF file written using JARVIS-Tools package.
data_PrCdGa
_symmetry_space_group_name_H-M  'P-62m'
_cell_length_a       4.48919
_cell_length_b       7.48441
_cell_length_c       7.48441
_cell_angle_alpha    120
_cell_angle_beta     90
_cell_angle_gamma    90

_symmetry_Int_Tables_number  189
_chemical_formula_structural  PrCdGa
_chemical_formula_sum  Pr3Cd3Ga3
_cell_volume  217.7779935480774
_cell_formula_units_Z  3
loop_
  _symmetry_equiv_pos_site_id
 _symmetry_equiv_pos_as_xyz
 1  'x, y, z'
loop_
 _atom_site_type_symbol
 _atom_site_label
 _atom_site_symmetry_multiplicity
 _atom_site_fract_x
 _atom_site_fract_y
 _atom_site_fract_z
 _atom_site_fract_occupancy
 Cd  Cd1  1  0.00000  0.24857  0.00000  1
 Cd  Cd2  1  0.00000  0.75141  0.75142  1
 Cd  Cd3  1  0.00000  -0.00001  0.24858  1
 Ga  Ga1  1  0.00000  0.33332  0.66667  1
 Ga  Ga2  1  0.00000  0.66665  0.33333  1
 Ga  Ga3  1  0.50000  -0.00001  -0.00000  1
 Pr  Pr1  1  0.50000  0.58280  0.00000  1
 Pr  Pr2  1  0.50000  0.41718  0.41719  1
 Pr  Pr3  1  0.50000  0.99999  0.58281  1
