CIF file written using JARVIS-Tools package.
data_TiCrAs
_symmetry_space_group_name_H-M  'P-62m'
_cell_length_a       3.35028
_cell_length_b       6.62622
_cell_length_c       6.62624
_cell_angle_alpha    120
_cell_angle_beta     90
_cell_angle_gamma    90

_symmetry_Int_Tables_number  189
_chemical_formula_structural  TiCrAs
_chemical_formula_sum  Ti3Cr3As3
_cell_volume  127.39266628858435
_cell_formula_units_Z  3
loop_
  _symmetry_equiv_pos_site_id
 _symmetry_equiv_pos_as_xyz
 1  'x, y, z'
loop_
 _atom_site_type_symbol
 _atom_site_label
 _atom_site_symmetry_multiplicity
 _atom_site_fract_x
 _atom_site_fract_y
 _atom_site_fract_z
 _atom_site_fract_occupancy
 As  As1  1  0.00000  0.33333  0.66667  1
 As  As2  1  0.00000  0.66666  0.33333  1
 As  As3  1  0.50000  -0.00002  0.00000  1
 Cr  Cr1  1  0.00000  0.25684  -0.00000  1
 Cr  Cr2  1  0.00000  0.74314  0.74314  1
 Cr  Cr3  1  0.00000  0.99999  0.25686  1
 Ti  Ti1  1  0.50000  0.59662  -0.00000  1
 Ti  Ti2  1  0.50000  0.40335  0.40336  1
 Ti  Ti3  1  0.50000  -0.00000  0.59664  1
