CIF file written using JARVIS-Tools package.
data_Na3NbO4
_symmetry_space_group_name_H-M  'C2/m'
_cell_length_a       5.75904
_cell_length_b       8.59943
_cell_length_c       8.59943
_cell_angle_alpha    98.9059
_cell_angle_beta     102.401
_cell_angle_gamma    102.401

_symmetry_Int_Tables_number  12
_chemical_formula_structural  Na3NbO4
_chemical_formula_sum  Na2Nb4O6
_cell_volume  397.1271056151026
_cell_formula_units_Z  4
loop_
  _symmetry_equiv_pos_site_id
 _symmetry_equiv_pos_as_xyz
 1  'x, y, z'
loop_
 _atom_site_type_symbol
 _atom_site_label
 _atom_site_symmetry_multiplicity
 _atom_site_fract_x
 _atom_site_fract_y
 _atom_site_fract_z
 _atom_site_fract_occupancy
 Na  Na1  1  0.50000  0.50000  0.50000  1
 Na  Na2  1  0.00000  0.37603  0.62397  1
 Na  Na3  1  0.00000  0.50000  -0.00000  1
 Na  Na4  1  1.00000  0.62397  0.37603  1
 Na  Na5  1  0.47937  0.62662  0.88097  1
 Na  Na6  1  0.52063  0.11903  0.37338  1
 Na  Na7  1  0.52063  0.37338  0.11903  1
 Na  Na8  1  0.47937  0.88097  0.62662  1
 Na  Na9  1  0.50000  -0.00000  -0.00000  1
 Na  Na10  1  0.50000  0.74045  0.25955  1
 Na  Na11  1  0.50000  0.25955  0.74045  1
 Na  Na12  1  0.00000  0.00000  0.50000  1
 Nb  Nb1  1  0.02893  0.26163  0.26163  1
 Nb  Nb2  1  1.00000  0.13400  0.86600  1
 Nb  Nb3  1  0.00000  0.86600  0.13400  1
 Nb  Nb4  1  0.97107  0.73837  0.73837  1
 O  O1  1  0.76699  0.53504  0.75365  1
 O  O2  1  0.76699  0.75365  0.53504  1
 O  O3  1  0.23301  0.46496  0.24635  1
 O  O4  1  0.19384  0.99173  0.76716  1
 O  O5  1  0.80616  0.23284  0.00827  1
 O  O6  1  0.80616  0.00827  0.23284  1
 O  O7  1  0.19384  0.76716  0.99173  1
 O  O8  1  0.21010  0.65271  0.65271  1
 O  O9  1  0.77241  0.12480  0.66421  1
 O  O10  1  0.22759  0.33579  0.87520  1
 O  O11  1  0.22759  0.87520  0.33579  1
 O  O12  1  0.80033  0.88704  0.88704  1
 O  O13  1  0.23301  0.24635  0.46496  1
 O  O14  1  0.19967  0.11296  0.11296  1
 O  O15  1  0.78990  0.34729  0.34729  1
 O  O16  1  0.77241  0.66421  0.12480  1
