CIF file written using JARVIS-Tools package.
data_Be2SbSe
_symmetry_space_group_name_H-M  'P4mm'
_cell_length_a       3.37788
_cell_length_b       3.37788
_cell_length_c       6.6322
_cell_angle_alpha    90
_cell_angle_beta     90
_cell_angle_gamma    90

_symmetry_Int_Tables_number  99
_chemical_formula_structural  Be2SbSe
_chemical_formula_sum  Be2SbSe
_cell_volume  75.6740132945974
_cell_formula_units_Z  1
loop_
  _symmetry_equiv_pos_site_id
 _symmetry_equiv_pos_as_xyz
 1  'x, y, z'
loop_
 _atom_site_type_symbol
 _atom_site_label
 _atom_site_symmetry_multiplicity
 _atom_site_fract_x
 _atom_site_fract_y
 _atom_site_fract_z
 _atom_site_fract_occupancy
 Be  Be1  1  0.00000  0.00000  0.00020  1
 Be  Be2  1  0.50000  0.50000  0.21388  1
 Sb  Sb1  1  0.00000  0.00000  0.39358  1
 Se  Se1  1  0.50000  0.50000  0.89233  1
