CIF file written using JARVIS-Tools package.
data_CrAgP2S6
_symmetry_space_group_name_H-M  'P2/c'
_cell_length_a       5.94802
_cell_length_b       6.76126
_cell_length_c       10.6429
_cell_angle_alpha    90
_cell_angle_beta     90
_cell_angle_gamma    105.949

_symmetry_Int_Tables_number  13
_chemical_formula_structural  CrAgP2S6
_chemical_formula_sum  Cr2Ag2P4S2
_cell_volume  411.541182358717
_cell_formula_units_Z  2
loop_
  _symmetry_equiv_pos_site_id
 _symmetry_equiv_pos_as_xyz
 1  'x, y, z'
loop_
 _atom_site_type_symbol
 _atom_site_label
 _atom_site_symmetry_multiplicity
 _atom_site_fract_x
 _atom_site_fract_y
 _atom_site_fract_z
 _atom_site_fract_occupancy
 Ag  Ag1  1  0.25000  -0.00000  0.43863  1
 Ag  Ag2  1  0.75000  -0.00000  0.56137  1
 Cr  Cr1  1  0.25000  -0.00000  0.08181  1
 Cr  Cr2  1  0.75000  -0.00000  0.91819  1
 P  P1  1  0.20209  0.82855  0.75444  1
 P  P2  1  0.79791  0.17145  0.24556  1
 P  P3  1  0.70209  0.82855  0.24556  1
 P  P4  1  0.29791  0.17145  0.75444  1
 S  S1  1  0.00798  0.77422  0.92557  1
 S  S2  1  0.98312  0.28757  0.39594  1
 S  S3  1  0.51640  0.76093  0.76853  1
 S  S4  1  0.48312  0.28757  0.60406  1
 S  S5  1  0.48360  0.23907  0.23147  1
 S  S6  1  0.49202  0.22578  0.92557  1
 S  S7  1  0.51688  0.71243  0.39594  1
 S  S8  1  0.50798  0.77422  0.07443  1
 S  S9  1  0.99202  0.22578  0.07443  1
 S  S10  1  0.01688  0.71243  0.60406  1
 S  S11  1  0.98360  0.23907  0.76853  1
 S  S12  1  0.01640  0.76093  0.23147  1
