CIF file written using JARVIS-Tools package.
data_CoPO4
_symmetry_space_group_name_H-M  'Pnma'
_cell_length_a       4.69383
_cell_length_b       6.33341
_cell_length_c       8.41019
_cell_angle_alpha    90
_cell_angle_beta     90
_cell_angle_gamma    90

_symmetry_Int_Tables_number  62
_chemical_formula_structural  CoPO4
_chemical_formula_sum  Co4P4O6
_cell_volume  250.01782151842363
_cell_formula_units_Z  4
loop_
  _symmetry_equiv_pos_site_id
 _symmetry_equiv_pos_as_xyz
 1  'x, y, z'
loop_
 _atom_site_type_symbol
 _atom_site_label
 _atom_site_symmetry_multiplicity
 _atom_site_fract_x
 _atom_site_fract_y
 _atom_site_fract_z
 _atom_site_fract_occupancy
 Co  Co1  1  0.00000  0.50000  0.00000  1
 Co  Co2  1  0.00000  0.00000  0.00000  1
 Co  Co3  1  0.50000  0.50000  0.50000  1
 Co  Co4  1  0.50000  0.00000  0.50000  1
 O  O1  1  0.77428  0.75000  0.87552  1
 O  O2  1  0.31435  0.54525  0.87464  1
 O  O3  1  0.31435  0.95475  0.87464  1
 O  O4  1  0.68565  0.45475  0.12536  1
 O  O5  1  0.42097  0.75000  0.63133  1
 O  O6  1  0.81435  0.45475  0.62536  1
 O  O7  1  0.92097  0.25000  0.86867  1
 O  O8  1  0.27428  0.25000  0.62448  1
 O  O9  1  0.72572  0.75000  0.37552  1
 O  O10  1  0.18565  0.54525  0.37464  1
 O  O11  1  0.81435  0.04525  0.62536  1
 O  O12  1  0.57903  0.25000  0.36867  1
 O  O13  1  0.07903  0.75000  0.13133  1
 O  O14  1  0.68565  0.04525  0.12536  1
 O  O15  1  0.18565  0.95475  0.37464  1
 O  O16  1  0.22572  0.25000  0.12448  1
 P  P1  1  0.53773  0.25000  0.17963  1
 P  P2  1  0.03773  0.75000  0.32037  1
 P  P3  1  0.96227  0.25000  0.67963  1
 P  P4  1  0.46227  0.75000  0.82037  1
