CIF file written using JARVIS-Tools package.
data_BaNbBr2
_symmetry_space_group_name_H-M  'P4mm'
_cell_length_a       3.77659
_cell_length_b       3.77794
_cell_length_c       7.76679
_cell_angle_alpha    90
_cell_angle_beta     90
_cell_angle_gamma    90

_symmetry_Int_Tables_number  99
_chemical_formula_structural  BaNbBr2
_chemical_formula_sum  BaNbBr2
_cell_volume  110.81439576112707
_cell_formula_units_Z  1
loop_
  _symmetry_equiv_pos_site_id
 _symmetry_equiv_pos_as_xyz
 1  'x, y, z'
loop_
 _atom_site_type_symbol
 _atom_site_label
 _atom_site_symmetry_multiplicity
 _atom_site_fract_x
 _atom_site_fract_y
 _atom_site_fract_z
 _atom_site_fract_occupancy
 Ba  Ba1  1  0.50000  0.50000  0.75626  1
 Br  Br1  1  0.00000  0.00000  0.01574  1
 Br  Br2  1  0.50000  0.50000  0.31489  1
 Nb  Nb1  1  0.00000  0.00000  0.41311  1
