CIF file written using JARVIS-Tools package.
data_U3O5
_symmetry_space_group_name_H-M  'P3m1'
_cell_length_a       3.82867
_cell_length_b       3.82849
_cell_length_c       9.41107
_cell_angle_alpha    89.9986
_cell_angle_beta     90.002
_cell_angle_gamma    119.996

_symmetry_Int_Tables_number  156
_chemical_formula_structural  U3O5
_chemical_formula_sum  U3O5
_cell_volume  119.47114080067436
_cell_formula_units_Z  1
loop_
  _symmetry_equiv_pos_site_id
 _symmetry_equiv_pos_as_xyz
 1  'x, y, z'
loop_
 _atom_site_type_symbol
 _atom_site_label
 _atom_site_symmetry_multiplicity
 _atom_site_fract_x
 _atom_site_fract_y
 _atom_site_fract_z
 _atom_site_fract_occupancy
 O  O1  1  0.67082  0.33159  0.41456  1
 O  O2  1  0.00412  -0.00175  0.76163  1
 O  O3  1  0.33744  0.66492  0.58087  1
 O  O4  1  0.00414  0.99826  0.24316  1
 O  O5  1  0.33757  0.66496  0.05736  1
 U  U1  1  0.00418  0.99828  0.00012  1
 U  U2  1  0.67081  0.33160  0.65871  1
 U  U3  1  0.33748  0.66492  0.32937  1
