CIF file written using JARVIS-Tools package.
data_BeB2C2
_symmetry_space_group_name_H-M  'Pmmn'
_cell_length_a       4.69421
_cell_length_b       5.42681
_cell_length_c       6.14177
_cell_angle_alpha    90
_cell_angle_beta     90
_cell_angle_gamma    90

_symmetry_Int_Tables_number  59
_chemical_formula_structural  BeB2C2
_chemical_formula_sum  Be4B8C8
_cell_volume  156.45918069655207
_cell_formula_units_Z  4
loop_
  _symmetry_equiv_pos_site_id
 _symmetry_equiv_pos_as_xyz
 1  'x, y, z'
loop_
 _atom_site_type_symbol
 _atom_site_label
 _atom_site_symmetry_multiplicity
 _atom_site_fract_x
 _atom_site_fract_y
 _atom_site_fract_z
 _atom_site_fract_occupancy
 B  B1  1  0.00825  0.25162  0.00000  1
 B  B2  1  0.99175  0.75162  0.50000  1
 B  B3  1  0.00825  0.74838  0.00000  1
 B  B4  1  0.99175  0.24838  0.50000  1
 B  B5  1  0.47847  0.50000  0.50000  1
 B  B6  1  0.52153  0.00000  0.00000  1
 B  B7  1  0.49906  0.50000  0.00000  1
 B  B8  1  0.50094  0.00000  0.50000  1
 Be  Be1  1  0.81662  0.50000  0.70409  1
 Be  Be2  1  0.18338  0.00000  0.79591  1
 Be  Be3  1  0.81662  0.50000  0.29591  1
 Be  Be4  1  0.18338  0.00000  0.20409  1
 C  C1  1  0.16597  0.00000  0.50000  1
 C  C2  1  0.85590  0.00000  0.00000  1
 C  C3  1  0.33958  0.75711  0.00000  1
 C  C4  1  0.33958  0.24289  0.00000  1
 C  C5  1  0.66042  0.25711  0.50000  1
 C  C6  1  0.66042  0.74289  0.50000  1
 C  C7  1  0.83403  0.50000  0.00000  1
 C  C8  1  0.14410  0.50000  0.50000  1
