CIF file written using JARVIS-Tools package.
data_YbPd
_symmetry_space_group_name_H-M  'Pnma'
_cell_length_a       4.39771
_cell_length_b       5.55358
_cell_length_c       7.00756
_cell_angle_alpha    90
_cell_angle_beta     90
_cell_angle_gamma    90

_symmetry_Int_Tables_number  62
_chemical_formula_structural  YbPd
_chemical_formula_sum  Yb4Pd4
_cell_volume  171.14600866635908
_cell_formula_units_Z  4
loop_
  _symmetry_equiv_pos_site_id
 _symmetry_equiv_pos_as_xyz
 1  'x, y, z'
loop_
 _atom_site_type_symbol
 _atom_site_label
 _atom_site_symmetry_multiplicity
 _atom_site_fract_x
 _atom_site_fract_y
 _atom_site_fract_z
 _atom_site_fract_occupancy
 Pd  Pd1  1  0.25000  0.84450  0.53920  1
 Pd  Pd2  1  0.25000  0.65550  0.03920  1
 Pd  Pd3  1  0.75000  0.15550  0.46080  1
 Pd  Pd4  1  0.75000  0.34450  0.96080  1
 Yb  Yb1  1  0.25000  0.35749  0.68384  1
 Yb  Yb2  1  0.25000  0.14251  0.18384  1
 Yb  Yb3  1  0.75000  0.64251  0.31616  1
 Yb  Yb4  1  0.75000  0.85749  0.81616  1
