CIF file written using JARVIS-Tools package.
data_Ag3AsS4
_symmetry_space_group_name_H-M  'Pmn2_1'
_cell_length_a       6.64479
_cell_length_b       7.00599
_cell_length_c       7.83996
_cell_angle_alpha    90
_cell_angle_beta     90
_cell_angle_gamma    90

_symmetry_Int_Tables_number  31
_chemical_formula_structural  Ag3AsS4
_chemical_formula_sum  Ag6As2S8
_cell_volume  364.97584996567576
_cell_formula_units_Z  2
loop_
  _symmetry_equiv_pos_site_id
 _symmetry_equiv_pos_as_xyz
 1  'x, y, z'
loop_
 _atom_site_type_symbol
 _atom_site_label
 _atom_site_symmetry_multiplicity
 _atom_site_fract_x
 _atom_site_fract_y
 _atom_site_fract_z
 _atom_site_fract_occupancy
 Ag  Ag1  1  0.52529  0.84891  0.00000  1
 Ag  Ag2  1  0.02529  0.15109  0.50000  1
 Ag  Ag3  1  0.98016  0.69132  0.76792  1
 Ag  Ag4  1  0.48016  0.30868  0.73208  1
 Ag  Ag5  1  0.48016  0.30868  0.26792  1
 Ag  Ag6  1  0.98016  0.69132  0.23208  1
 As  As1  1  0.00100  0.18416  0.00000  1
 As  As2  1  0.50100  0.81584  0.50000  1
 S  S1  1  0.66603  0.18710  0.00000  1
 S  S2  1  0.16603  0.81290  0.50000  1
 S  S3  1  0.13629  0.89246  0.00000  1
 S  S4  1  0.63629  0.10754  0.50000  1
 S  S5  1  0.60658  0.65683  0.73190  1
 S  S6  1  0.10658  0.34317  0.76810  1
 S  S7  1  0.10658  0.34317  0.23190  1
 S  S8  1  0.60658  0.65683  0.26810  1
