CIF file written using JARVIS-Tools package.
data_Pu2Ni2Sn
_symmetry_space_group_name_H-M  'P4/mbm'
_cell_length_a       3.35751
_cell_length_b       7.31451
_cell_length_c       7.31451
_cell_angle_alpha    90
_cell_angle_beta     90
_cell_angle_gamma    90

_symmetry_Int_Tables_number  127
_chemical_formula_structural  Pu2Ni2Sn
_chemical_formula_sum  Pu4Ni4Sn2
_cell_volume  179.63348814090125
_cell_formula_units_Z  2
loop_
  _symmetry_equiv_pos_site_id
 _symmetry_equiv_pos_as_xyz
 1  'x, y, z'
loop_
 _atom_site_type_symbol
 _atom_site_label
 _atom_site_symmetry_multiplicity
 _atom_site_fract_x
 _atom_site_fract_y
 _atom_site_fract_z
 _atom_site_fract_occupancy
 Ni  Ni1  1  0.00000  0.69469  0.19469  1
 Ni  Ni2  1  0.00000  0.80531  0.69469  1
 Ni  Ni3  1  0.00000  0.19469  0.30531  1
 Ni  Ni4  1  0.00000  0.30531  0.80531  1
 Pu  Pu1  1  0.50000  0.39062  0.10938  1
 Pu  Pu2  1  0.50000  0.10938  0.60938  1
 Pu  Pu3  1  0.50000  0.60938  0.89062  1
 Pu  Pu4  1  0.50000  0.89062  0.39062  1
 Sn  Sn1  1  0.00000  0.00000  0.00000  1
 Sn  Sn2  1  0.00000  0.50000  0.50000  1
