CIF file written using JARVIS-Tools package.
data_MgB2H8
_symmetry_space_group_name_H-M  'Pmc2_1'
_cell_length_a       5.33486
_cell_length_b       4.30603
_cell_length_c       8.45112
_cell_angle_alpha    90
_cell_angle_beta     90.0004
_cell_angle_gamma    90

_symmetry_Int_Tables_number  26
_chemical_formula_structural  MgB2H8
_chemical_formula_sum  Mg2B4H6
_cell_volume  194.139752558042
_cell_formula_units_Z  2
loop_
  _symmetry_equiv_pos_site_id
 _symmetry_equiv_pos_as_xyz
 1  'x, y, z'
loop_
 _atom_site_type_symbol
 _atom_site_label
 _atom_site_symmetry_multiplicity
 _atom_site_fract_x
 _atom_site_fract_y
 _atom_site_fract_z
 _atom_site_fract_occupancy
 B  B1  1  0.05530  0.50000  0.52307  1
 B  B2  1  0.94470  0.50000  0.02308  1
 B  B3  1  0.47288  0.00000  0.75380  1
 B  B4  1  0.52712  0.00000  0.25379  1
 H  H1  1  0.24490  0.00000  0.73660  1
 H  H2  1  0.28189  0.50000  0.55596  1
 H  H3  1  0.71811  0.50000  0.05596  1
 H  H4  1  0.00340  0.27816  0.43675  1
 H  H5  1  0.99660  0.72184  0.93675  1
 H  H6  1  0.93297  0.50000  0.64301  1
 H  H7  1  0.00340  0.72184  0.43675  1
 H  H8  1  0.99660  0.27816  0.93675  1
 H  H9  1  0.06703  0.50000  0.14301  1
 H  H10  1  0.75510  0.00000  0.23660  1
 H  H11  1  0.59557  0.00000  0.63000  1
 H  H12  1  0.47545  0.24041  0.32381  1
 H  H13  1  0.52455  0.75959  0.82381  1
 H  H14  1  0.52455  0.24041  0.82381  1
 H  H15  1  0.47545  0.75959  0.32381  1
 H  H16  1  0.40442  0.00000  0.13000  1
 Mg  Mg1  1  0.28369  0.00000  0.49566  1
 Mg  Mg2  1  0.71630  0.00000  0.99566  1
