CIF file written using JARVIS-Tools package.
data_BC7
_symmetry_space_group_name_H-M  'P-43m'
_cell_length_a       3.6214
_cell_length_b       3.6214
_cell_length_c       3.6214
_cell_angle_alpha    90
_cell_angle_beta     90
_cell_angle_gamma    90

_symmetry_Int_Tables_number  215
_chemical_formula_structural  BC7
_chemical_formula_sum  BC7
_cell_volume  47.49292159261463
_cell_formula_units_Z  1
loop_
  _symmetry_equiv_pos_site_id
 _symmetry_equiv_pos_as_xyz
 1  'x, y, z'
loop_
 _atom_site_type_symbol
 _atom_site_label
 _atom_site_symmetry_multiplicity
 _atom_site_fract_x
 _atom_site_fract_y
 _atom_site_fract_z
 _atom_site_fract_occupancy
 B  B1  1  0.00000  0.00000  0.00000  1
 C  C1  1  0.00000  0.50000  0.50000  1
 C  C2  1  0.50000  0.50000  0.00000  1
 C  C3  1  0.50000  0.00000  0.50000  1
 C  C4  1  0.74528  0.74528  0.25472  1
 C  C5  1  0.74528  0.25472  0.74528  1
 C  C6  1  0.25472  0.74528  0.74528  1
 C  C7  1  0.25472  0.25472  0.25472  1
