CIF file written using JARVIS-Tools package.
data_SbS24I3
_symmetry_space_group_name_H-M  'R3m'
_cell_length_a       14.4636
_cell_length_b       14.4636
_cell_length_c       14.4636
_cell_angle_alpha    119.02
_cell_angle_beta     119.02
_cell_angle_gamma    119.02

_symmetry_Int_Tables_number  160
_chemical_formula_structural  SbS24I3
_chemical_formula_sum  SbS24I3
_cell_volume  775.4269025886867
_cell_formula_units_Z  1
loop_
  _symmetry_equiv_pos_site_id
 _symmetry_equiv_pos_as_xyz
 1  'x, y, z'
loop_
 _atom_site_type_symbol
 _atom_site_label
 _atom_site_symmetry_multiplicity
 _atom_site_fract_x
 _atom_site_fract_y
 _atom_site_fract_z
 _atom_site_fract_occupancy
 I  I1  1  0.95107  0.11817  0.95107  1
 I  I2  1  0.11817  0.95107  0.95107  1
 I  I3  1  0.95107  0.95107  0.11817  1
 S  S1  1  0.16878  0.44301  0.44301  1
 S  S2  1  0.44301  0.44301  0.16878  1
 S  S3  1  0.58584  -0.01649  0.58584  1
 S  S4  1  0.58584  0.58584  -0.01649  1
 S  S5  1  -0.01649  0.58584  0.58584  1
 S  S6  1  0.86791  0.24877  0.73453  1
 S  S7  1  0.73453  0.86791  0.24877  1
 S  S8  1  0.24877  0.73453  0.86791  1
 S  S9  1  0.24877  0.86791  0.73453  1
 S  S10  1  0.73453  0.24877  0.86791  1
 S  S11  1  0.86791  0.73453  0.24877  1
 S  S12  1  0.61665  0.08131  0.42484  1
 S  S13  1  0.08131  0.42484  0.61665  1
 S  S14  1  0.08131  0.61665  0.42484  1
 S  S15  1  0.42484  0.08131  0.61665  1
 S  S16  1  0.61665  0.42484  0.08131  1
 S  S17  1  0.76106  0.37380  0.62550  1
 S  S18  1  0.62550  0.76106  0.37380  1
 S  S19  1  0.37380  0.62550  0.76106  1
 S  S20  1  0.37380  0.76106  0.62550  1
 S  S21  1  0.62550  0.37380  0.76106  1
 S  S22  1  0.76106  0.62550  0.37380  1
 S  S23  1  0.44301  0.16878  0.44301  1
 S  S24  1  0.42484  0.61665  0.08131  1
 Sb  Sb1  1  0.34807  0.34807  0.34807  1
