CIF file written using JARVIS-Tools package.
data_InS
_symmetry_space_group_name_H-M  'Pnnm'
_cell_length_a       4.0019
_cell_length_b       4.50579
_cell_length_c       10.8157
_cell_angle_alpha    90
_cell_angle_beta     90
_cell_angle_gamma    90

_symmetry_Int_Tables_number  58
_chemical_formula_structural  InS
_chemical_formula_sum  In4S4
_cell_volume  195.02619181399186
_cell_formula_units_Z  4
loop_
  _symmetry_equiv_pos_site_id
 _symmetry_equiv_pos_as_xyz
 1  'x, y, z'
loop_
 _atom_site_type_symbol
 _atom_site_label
 _atom_site_symmetry_multiplicity
 _atom_site_fract_x
 _atom_site_fract_y
 _atom_site_fract_z
 _atom_site_fract_occupancy
 In  In1  1  0.50000  0.38020  0.61996  1
 In  In2  1  0.50000  0.61980  0.38004  1
 In  In3  1  0.00000  0.88020  0.88004  1
 In  In4  1  0.00000  0.11980  0.11996  1
 S  S1  1  0.50000  0.51909  0.84824  1
 S  S2  1  0.50000  0.48091  0.15176  1
 S  S3  1  0.00000  0.01909  0.65176  1
 S  S4  1  0.00000  0.98091  0.34824  1
