CIF file written using JARVIS-Tools package.
data_Zr6Al16Rh7
_symmetry_space_group_name_H-M  'Fm-3m'
_cell_length_a       8.73961
_cell_length_b       8.73961
_cell_length_c       8.73961
_cell_angle_alpha    60
_cell_angle_beta     60
_cell_angle_gamma    60

_symmetry_Int_Tables_number  225
_chemical_formula_structural  Zr6Al16Rh7
_chemical_formula_sum  Zr6Al6Rh7
_cell_volume  472.02127224541715
_cell_formula_units_Z  1
loop_
  _symmetry_equiv_pos_site_id
 _symmetry_equiv_pos_as_xyz
 1  'x, y, z'
loop_
 _atom_site_type_symbol
 _atom_site_label
 _atom_site_symmetry_multiplicity
 _atom_site_fract_x
 _atom_site_fract_y
 _atom_site_fract_z
 _atom_site_fract_occupancy
 Al  Al1  1  0.64105  0.11965  0.11965  1
 Al  Al2  1  0.88035  0.35895  0.88035  1
 Al  Al3  1  0.66241  0.66241  0.01277  1
 Al  Al4  1  0.33759  0.33759  0.98723  1
 Al  Al5  1  0.88035  0.88035  0.88035  1
 Al  Al6  1  0.33759  0.98723  0.33759  1
 Al  Al7  1  0.11965  0.11965  0.64105  1
 Al  Al8  1  0.11965  0.11965  0.11965  1
 Al  Al9  1  0.33759  0.33759  0.33759  1
 Al  Al10  1  0.88035  0.88035  0.35895  1
 Al  Al11  1  0.11965  0.64105  0.11965  1
 Al  Al12  1  0.66241  0.66241  0.66241  1
 Al  Al13  1  0.66241  0.01277  0.66241  1
 Al  Al14  1  0.01277  0.66241  0.66241  1
 Al  Al15  1  0.98723  0.33759  0.33759  1
 Al  Al16  1  0.35895  0.88035  0.88035  1
 Rh  Rh1  1  -0.00000  0.00000  0.50000  1
 Rh  Rh2  1  0.00000  0.00000  0.00000  1
 Rh  Rh3  1  0.50000  -0.00000  0.00000  1
 Rh  Rh4  1  -0.00000  0.50000  0.00000  1
 Rh  Rh5  1  0.50000  -0.00000  0.50000  1
 Rh  Rh6  1  -0.00000  0.50000  0.50000  1
 Rh  Rh7  1  0.50000  0.50000  0.00000  1
 Zr  Zr1  1  0.31163  0.68837  0.31163  1
 Zr  Zr2  1  0.68837  0.68837  0.31163  1
 Zr  Zr3  1  0.31163  0.31163  0.68837  1
 Zr  Zr4  1  0.31163  0.68837  0.68837  1
 Zr  Zr5  1  0.68837  0.31163  0.31163  1
 Zr  Zr6  1  0.68837  0.31163  0.68837  1
