CIF file written using JARVIS-Tools package.
data_BeNiHg
_symmetry_space_group_name_H-M  'I4mm'
_cell_length_a       5.07659
_cell_length_b       5.07659
_cell_length_c       5.07659
_cell_angle_alpha    146.336
_cell_angle_beta     146.336
_cell_angle_gamma    48.3476

_symmetry_Int_Tables_number  107
_chemical_formula_structural  BeNiHg
_chemical_formula_sum  BeNiHg
_cell_volume  40.03208602717706
_cell_formula_units_Z  1
loop_
  _symmetry_equiv_pos_site_id
 _symmetry_equiv_pos_as_xyz
 1  'x, y, z'
loop_
 _atom_site_type_symbol
 _atom_site_label
 _atom_site_symmetry_multiplicity
 _atom_site_fract_x
 _atom_site_fract_y
 _atom_site_fract_z
 _atom_site_fract_occupancy
 Be  Be1  1  0.03905  0.03905  0.00000  1
 Hg  Hg1  1  0.33405  0.33405  0.00000  1
 Ni  Ni1  1  0.62690  0.62690  -0.00000  1
