CIF file written using JARVIS-Tools package.
data_LiCoGeO4
_symmetry_space_group_name_H-M  'Pc'
_cell_length_a       5.10496
_cell_length_b       5.37071
_cell_length_c       8.34943
_cell_angle_alpha    90
_cell_angle_beta     128.065
_cell_angle_gamma    90

_symmetry_Int_Tables_number  7
_chemical_formula_structural  LiCoGeO4
_chemical_formula_sum  Li2Co2Ge2O8
_cell_volume  180.23176767683256
_cell_formula_units_Z  2
loop_
  _symmetry_equiv_pos_site_id
 _symmetry_equiv_pos_as_xyz
 1  'x, y, z'
loop_
 _atom_site_type_symbol
 _atom_site_label
 _atom_site_symmetry_multiplicity
 _atom_site_fract_x
 _atom_site_fract_y
 _atom_site_fract_z
 _atom_site_fract_occupancy
 Co  Co1  1  0.99581  0.16389  0.99949  1
 Co  Co2  1  0.99581  0.83611  0.49949  1
 Ge  Ge1  1  0.74953  0.67148  0.75338  1
 Ge  Ge2  1  0.74953  0.32852  0.25338  1
 Li  Li1  1  0.50320  0.83356  0.00309  1
 Li  Li2  1  0.50320  0.16644  0.50309  1
 O  O1  1  0.39305  0.72669  0.74288  1
 O  O2  1  0.08891  0.16367  0.47062  1
 O  O3  1  0.83265  0.65144  0.26338  1
 O  O4  1  0.67075  0.17654  0.03703  1
 O  O5  1  0.39305  0.27331  0.24288  1
 O  O6  1  0.08891  0.83633  0.97062  1
 O  O7  1  0.83265  0.34856  0.76338  1
 O  O8  1  0.67075  0.82346  0.53703  1
