CIF file written using JARVIS-Tools package.
data_MnPO4
_symmetry_space_group_name_H-M  'P-1'
_cell_length_a       4.99532
_cell_length_b       5.07489
_cell_length_c       6.16618
_cell_angle_alpha    100.778
_cell_angle_beta     89.3138
_cell_angle_gamma    106.028

_symmetry_Int_Tables_number  2
_chemical_formula_structural  MnPO4
_chemical_formula_sum  Mn2P2O8
_cell_volume  147.46015124253114
_cell_formula_units_Z  2
loop_
  _symmetry_equiv_pos_site_id
 _symmetry_equiv_pos_as_xyz
 1  'x, y, z'
loop_
 _atom_site_type_symbol
 _atom_site_label
 _atom_site_symmetry_multiplicity
 _atom_site_fract_x
 _atom_site_fract_y
 _atom_site_fract_z
 _atom_site_fract_occupancy
 Mn  Mn1  1  0.13319  0.73200  0.70213  1
 Mn  Mn2  1  0.86681  0.26800  0.29787  1
 O  O1  1  0.39568  0.07727  0.71196  1
 O  O2  1  0.80244  0.88236  0.75581  1
 O  O3  1  0.87701  0.34784  0.63122  1
 O  O4  1  0.74992  0.31607  0.02331  1
 O  O5  1  0.19756  0.11764  0.24419  1
 O  O6  1  0.25008  0.68393  0.97669  1
 O  O7  1  0.12299  0.65216  0.36878  1
 O  O8  1  0.60432  0.92273  0.28804  1
 P  P1  1  0.70849  0.14558  0.78617  1
 P  P2  1  0.29151  0.85442  0.21383  1
