CIF file written using JARVIS-Tools package.
data_CaAlAu
_symmetry_space_group_name_H-M  'Pnma'
_cell_length_a       4.53104
_cell_length_b       7.29424
_cell_length_c       7.78492
_cell_angle_alpha    90
_cell_angle_beta     90
_cell_angle_gamma    90

_symmetry_Int_Tables_number  62
_chemical_formula_structural  CaAlAu
_chemical_formula_sum  Ca4Al4Au4
_cell_volume  257.29544065289474
_cell_formula_units_Z  4
loop_
  _symmetry_equiv_pos_site_id
 _symmetry_equiv_pos_as_xyz
 1  'x, y, z'
loop_
 _atom_site_type_symbol
 _atom_site_label
 _atom_site_symmetry_multiplicity
 _atom_site_fract_x
 _atom_site_fract_y
 _atom_site_fract_z
 _atom_site_fract_occupancy
 Al  Al1  1  0.25000  0.15682  0.06918  1
 Al  Al2  1  0.75000  0.34318  0.56918  1
 Al  Al3  1  0.75000  0.84318  0.93082  1
 Al  Al4  1  0.25000  0.65682  0.43082  1
 Au  Au1  1  0.25000  0.29104  0.38826  1
 Au  Au2  1  0.75000  0.20896  0.88826  1
 Au  Au3  1  0.75000  0.70896  0.61174  1
 Au  Au4  1  0.25000  0.79104  0.11174  1
 Ca  Ca1  1  0.25000  0.01548  0.68277  1
 Ca  Ca2  1  0.75000  0.48452  0.18277  1
 Ca  Ca3  1  0.75000  0.98452  0.31723  1
 Ca  Ca4  1  0.25000  0.51548  0.81723  1
