CIF file written using JARVIS-Tools package.
data_NaCaBe
_symmetry_space_group_name_H-M  'I4mm'
_cell_length_a       6.72214
_cell_length_b       6.72214
_cell_length_c       6.72214
_cell_angle_alpha    149.255
_cell_angle_beta     149.255
_cell_angle_gamma    44.0355

_symmetry_Int_Tables_number  107
_chemical_formula_structural  NaCaBe
_chemical_formula_sum  NaCaBe
_cell_volume  79.15567182956308
_cell_formula_units_Z  1
loop_
  _symmetry_equiv_pos_site_id
 _symmetry_equiv_pos_as_xyz
 1  'x, y, z'
loop_
 _atom_site_type_symbol
 _atom_site_label
 _atom_site_symmetry_multiplicity
 _atom_site_fract_x
 _atom_site_fract_y
 _atom_site_fract_z
 _atom_site_fract_occupancy
 Be  Be1  1  0.99506  0.99506  0.00000  1
 Ca  Ca1  1  0.36883  0.36883  0.00000  1
 Na  Na1  1  0.63611  0.63611  0.00000  1
