CIF file written using JARVIS-Tools package.
data_Ta3SBr7
_symmetry_space_group_name_H-M  'Cm'
_cell_length_a       7.12111
_cell_length_b       7.12448
_cell_length_c       7.27567
_cell_angle_alpha    75.4466
_cell_angle_beta     60.7003
_cell_angle_gamma    60.0157

_symmetry_Int_Tables_number  8
_chemical_formula_structural  Ta3SBr7
_chemical_formula_sum  Ta3SBr7
_cell_volume  278.80973350670007
_cell_formula_units_Z  1
loop_
  _symmetry_equiv_pos_site_id
 _symmetry_equiv_pos_as_xyz
 1  'x, y, z'
loop_
 _atom_site_type_symbol
 _atom_site_label
 _atom_site_symmetry_multiplicity
 _atom_site_fract_x
 _atom_site_fract_y
 _atom_site_fract_z
 _atom_site_fract_occupancy
 Br  Br1  1  0.73689  0.91861  0.60762  1
 Br  Br2  1  0.12689  0.58432  0.16189  1
 Br  Br3  1  0.21043  0.92097  0.65818  1
 Br  Br4  1  0.62031  0.09051  0.16115  1
 Br  Br5  1  0.12802  0.09051  0.16115  1
 Br  Br6  1  0.21191  0.41398  0.65548  1
 Br  Br7  1  0.71863  0.41398  0.65548  1
 S  S1  1  0.64960  0.59078  0.11002  1
 Ta  Ta1  1  0.64800  0.31819  0.38581  1
 Ta  Ta2  1  0.64720  0.72098  0.38730  1
 Ta  Ta3  1  0.24452  0.72098  0.38730  1
