CIF file written using JARVIS-Tools package.
data_Li6CuB4O10
_symmetry_space_group_name_H-M  'P1'
_cell_length_a       4.71638
_cell_length_b       6.26714
_cell_length_c       7.2231
_cell_angle_alpha    81.2989
_cell_angle_beta     71.5812
_cell_angle_gamma    76.8946

_symmetry_Int_Tables_number  1
_chemical_formula_structural  Li6CuB4O10
_chemical_formula_sum  Li6CuB4O0
_cell_volume  196.55516052777625
_cell_formula_units_Z  1
loop_
  _symmetry_equiv_pos_site_id
 _symmetry_equiv_pos_as_xyz
 1  'x, y, z'
loop_
 _atom_site_type_symbol
 _atom_site_label
 _atom_site_symmetry_multiplicity
 _atom_site_fract_x
 _atom_site_fract_y
 _atom_site_fract_z
 _atom_site_fract_occupancy
 B  B1  1  0.28061  0.61044  0.67952  1
 B  B2  1  0.13150  0.53875  0.06010  1
 B  B3  1  0.22099  0.01666  0.98853  1
 B  B4  1  0.38874  0.11468  0.61507  1
 Cu  Cu1  1  0.75132  0.32745  0.84201  1
 Li  Li1  1  0.45266  0.63318  0.28256  1
 Li  Li2  1  0.74217  0.83438  0.00163  1
 Li  Li3  1  0.94683  0.83743  0.34191  1
 Li  Li4  1  0.86879  0.37327  0.43992  1
 Li  Li5  1  0.52328  0.14645  0.21965  1
 Li  Li6  1  0.89325  0.97119  0.62910  1
 O  O1  1  0.32841  0.92251  0.14144  1
 O  O2  1  0.44258  0.02697  0.80037  1
 O  O3  1  0.10054  0.20869  0.60879  1
 O  O4  1  0.91587  0.08779  0.01047  1
 O  O5  1  0.40643  0.42342  0.07782  1
 O  O6  1  0.57162  0.50055  0.65205  1
 O  O7  1  0.07822  0.61957  0.87615  1
 O  O8  1  0.88761  0.59806  0.21817  1
 O  O9  1  0.16887  0.71709  0.53295  1
 O  O10  1  0.63991  0.09010  0.45629  1
