CIF file written using JARVIS-Tools package.
data_FeHO2
_symmetry_space_group_name_H-M  'Pmn2_1'
_cell_length_a       2.83225
_cell_length_b       4.25434
_cell_length_c       4.73834
_cell_angle_alpha    90
_cell_angle_beta     90
_cell_angle_gamma    90

_symmetry_Int_Tables_number  31
_chemical_formula_structural  FeHO2
_chemical_formula_sum  Fe2H2O4
_cell_volume  57.09392361785103
_cell_formula_units_Z  2
loop_
  _symmetry_equiv_pos_site_id
 _symmetry_equiv_pos_as_xyz
 1  'x, y, z'
loop_
 _atom_site_type_symbol
 _atom_site_label
 _atom_site_symmetry_multiplicity
 _atom_site_fract_x
 _atom_site_fract_y
 _atom_site_fract_z
 _atom_site_fract_occupancy
 Fe  Fe1  1  0.00000  0.73364  0.01017  1
 Fe  Fe2  1  0.50000  0.26636  0.51017  1
 H  H1  1  0.00000  0.79629  0.49503  1
 H  H2  1  0.50000  0.20371  0.99503  1
 O  O1  1  0.00000  -0.00979  0.36105  1
 O  O2  1  0.50000  0.00979  0.86105  1
 O  O3  1  0.00000  0.50750  0.66554  1
 O  O4  1  0.50000  0.49250  0.16554  1
