CIF file written using JARVIS-Tools package.
data_NbFeF6
_symmetry_space_group_name_H-M  'R-3'
_cell_length_a       5.65843
_cell_length_b       5.65843
_cell_length_c       5.65843
_cell_angle_alpha    55.1266
_cell_angle_beta     55.1266
_cell_angle_gamma    55.1266

_symmetry_Int_Tables_number  148
_chemical_formula_structural  NbFeF6
_chemical_formula_sum  NbFeF6
_cell_volume  113.58859126614423
_cell_formula_units_Z  1
loop_
  _symmetry_equiv_pos_site_id
 _symmetry_equiv_pos_as_xyz
 1  'x, y, z'
loop_
 _atom_site_type_symbol
 _atom_site_label
 _atom_site_symmetry_multiplicity
 _atom_site_fract_x
 _atom_site_fract_y
 _atom_site_fract_z
 _atom_site_fract_occupancy
 F  F1  1  0.37323  0.13042  0.74868  1
 F  F2  1  0.74868  0.37323  0.13042  1
 F  F3  1  0.13042  0.74868  0.37323  1
 F  F4  1  0.62677  0.86958  0.25132  1
 F  F5  1  0.25132  0.62677  0.86958  1
 F  F6  1  0.86958  0.25132  0.62677  1
 Fe  Fe1  1  0.00000  0.00000  0.00000  1
 Nb  Nb1  1  0.50000  0.50000  0.50000  1
