CIF file written using JARVIS-Tools package.
data_Ce2Fe17
_symmetry_space_group_name_H-M  'R-3m'
_cell_length_a       6.28098
_cell_length_b       6.28098
_cell_length_c       6.28099
_cell_angle_alpha    81.8263
_cell_angle_beta     81.8263
_cell_angle_gamma    81.8263

_symmetry_Int_Tables_number  166
_chemical_formula_structural  Ce2Fe17
_chemical_formula_sum  Ce2Fe7
_cell_volume  240.8926047970969
_cell_formula_units_Z  1
loop_
  _symmetry_equiv_pos_site_id
 _symmetry_equiv_pos_as_xyz
 1  'x, y, z'
loop_
 _atom_site_type_symbol
 _atom_site_label
 _atom_site_symmetry_multiplicity
 _atom_site_fract_x
 _atom_site_fract_y
 _atom_site_fract_z
 _atom_site_fract_occupancy
 Ce  Ce1  1  0.34426  0.34426  0.34426  1
 Ce  Ce2  1  0.65574  0.65574  0.65574  1
 Fe  Fe1  1  0.33664  0.84669  0.33664  1
 Fe  Fe2  1  0.09082  0.09082  0.09082  1
 Fe  Fe3  1  0.90918  0.90918  0.90918  1
 Fe  Fe4  1  -0.00000  0.00000  0.50000  1
 Fe  Fe5  1  0.50000  0.00000  -0.00000  1
 Fe  Fe6  1  0.00000  0.50000  0.00000  1
 Fe  Fe7  1  0.29475  0.70525  0.00000  1
 Fe  Fe8  1  0.33664  0.33664  0.84669  1
 Fe  Fe9  1  0.70525  0.29475  1.00000  1
 Fe  Fe10  1  0.00000  0.70525  0.29475  1
 Fe  Fe11  1  0.29475  1.00000  0.70525  1
 Fe  Fe12  1  0.66336  0.15331  0.66336  1
 Fe  Fe13  1  0.66336  0.66336  0.15331  1
 Fe  Fe14  1  0.15331  0.66336  0.66336  1
 Fe  Fe15  1  0.84669  0.33664  0.33664  1
 Fe  Fe16  1  1.00000  0.29475  0.70525  1
 Fe  Fe17  1  0.70525  0.00000  0.29475  1
