CIF file written using JARVIS-Tools package.
data_Rb2CrCl4
_symmetry_space_group_name_H-M  'I4/mmm'
_cell_length_a       4.92683
_cell_length_b       4.92683
_cell_length_c       8.1353
_cell_angle_alpha    107.626
_cell_angle_beta     107.626
_cell_angle_gamma    90

_symmetry_Int_Tables_number  139
_chemical_formula_structural  Rb2CrCl4
_chemical_formula_sum  Rb2CrCl4
_cell_volume  178.450483719876
_cell_formula_units_Z  1
loop_
  _symmetry_equiv_pos_site_id
 _symmetry_equiv_pos_as_xyz
 1  'x, y, z'
loop_
 _atom_site_type_symbol
 _atom_site_label
 _atom_site_symmetry_multiplicity
 _atom_site_fract_x
 _atom_site_fract_y
 _atom_site_fract_z
 _atom_site_fract_occupancy
 Cl  Cl1  1  0.89427  0.39427  0.78854  1
 Cl  Cl2  1  0.39427  0.89427  0.78854  1
 Cl  Cl3  1  0.10573  0.60573  0.21146  1
 Cl  Cl4  1  0.60573  0.10573  0.21146  1
 Cr  Cr1  1  0.00000  0.00000  0.00000  1
 Rb  Rb1  1  0.73939  0.73939  0.47878  1
 Rb  Rb2  1  0.26061  0.26061  0.52122  1
