CIF file written using JARVIS-Tools package.
data_CuAs4S3Cl
_symmetry_space_group_name_H-M  'Pbcm'
_cell_length_a       7.24015
_cell_length_b       10.9153
_cell_length_c       11.0903
_cell_angle_alpha    90
_cell_angle_beta     90
_cell_angle_gamma    90

_symmetry_Int_Tables_number  57
_chemical_formula_structural  CuAs4S3Cl
_chemical_formula_sum  Cu4As6S2Cl4
_cell_volume  876.4457381151166
_cell_formula_units_Z  4
loop_
  _symmetry_equiv_pos_site_id
 _symmetry_equiv_pos_as_xyz
 1  'x, y, z'
loop_
 _atom_site_type_symbol
 _atom_site_label
 _atom_site_symmetry_multiplicity
 _atom_site_fract_x
 _atom_site_fract_y
 _atom_site_fract_z
 _atom_site_fract_occupancy
 As  As1  1  0.75000  0.93528  0.44476  1
 As  As2  1  0.75000  0.06472  0.94476  1
 As  As3  1  0.42465  0.36255  0.44318  1
 As  As4  1  0.92465  0.63745  0.55682  1
 As  As5  1  0.07535  0.63745  0.94318  1
 As  As6  1  0.75000  0.74943  0.72052  1
 As  As7  1  0.57535  0.63745  0.55682  1
 As  As8  1  0.07535  0.36255  0.44318  1
 As  As9  1  0.92465  0.36255  0.05682  1
 As  As10  1  0.42465  0.63745  0.94318  1
 As  As11  1  0.25000  0.25057  0.27948  1
 As  As12  1  0.25000  0.74943  0.77948  1
 As  As13  1  0.75000  0.25057  0.22052  1
 As  As14  1  0.57535  0.36255  0.05682  1
 As  As15  1  0.25000  0.93528  0.05524  1
 As  As16  1  0.25000  0.06472  0.55524  1
 Cl  Cl1  1  0.75000  0.55467  0.23673  1
 Cl  Cl2  1  0.75000  0.44533  0.73673  1
 Cl  Cl3  1  0.25000  0.44533  0.76327  1
 Cl  Cl4  1  0.25000  0.55467  0.26327  1
 Cu  Cu1  1  0.00000  0.30125  0.75000  1
 Cu  Cu2  1  0.00000  0.69875  0.25000  1
 Cu  Cu3  1  0.50000  0.69875  0.25000  1
 Cu  Cu4  1  0.50000  0.30125  0.75000  1
 S  S1  1  0.50790  0.20335  0.92946  1
 S  S2  1  0.00790  0.79665  0.07054  1
 S  S3  1  0.75000  0.05529  0.14974  1
 S  S4  1  0.00790  0.20335  0.57054  1
 S  S5  1  0.25000  0.94471  0.85026  1
 S  S6  1  0.75000  0.94471  0.64974  1
 S  S7  1  0.25000  0.05529  0.35026  1
 S  S8  1  0.99210  0.79665  0.42946  1
 S  S9  1  0.99210  0.20335  0.92946  1
 S  S10  1  0.49210  0.79665  0.07054  1
 S  S11  1  0.50790  0.79665  0.42946  1
 S  S12  1  0.49210  0.20335  0.57054  1
