CIF file written using JARVIS-Tools package.
data_V3As2
_symmetry_space_group_name_H-M  'P4/m'
_cell_length_a       9.44181
_cell_length_b       9.44181
_cell_length_c       3.31713
_cell_angle_alpha    90
_cell_angle_beta     90
_cell_angle_gamma    90

_symmetry_Int_Tables_number  83
_chemical_formula_structural  V3As2
_chemical_formula_sum  V2As8
_cell_volume  295.71509938897367
_cell_formula_units_Z  4
loop_
  _symmetry_equiv_pos_site_id
 _symmetry_equiv_pos_as_xyz
 1  'x, y, z'
loop_
 _atom_site_type_symbol
 _atom_site_label
 _atom_site_symmetry_multiplicity
 _atom_site_fract_x
 _atom_site_fract_y
 _atom_site_fract_z
 _atom_site_fract_occupancy
 As  As1  1  0.71414  0.04230  0.00000  1
 As  As2  1  0.04230  0.28586  0.00000  1
 As  As3  1  0.75445  0.40983  0.50000  1
 As  As4  1  0.24555  0.59017  0.50000  1
 As  As5  1  0.59017  0.75445  0.50000  1
 As  As6  1  0.40983  0.24555  0.50000  1
 As  As7  1  0.28586  0.95770  0.00000  1
 As  As8  1  0.95770  0.71414  0.00000  1
 V  V1  1  0.71386  0.60114  0.00000  1
 V  V2  1  0.82168  0.87013  0.50000  1
 V  V3  1  0.17832  0.12987  0.50000  1
 V  V4  1  0.28614  0.39886  0.00000  1
 V  V5  1  0.00000  0.50000  0.50000  1
 V  V6  1  0.39886  0.71386  0.00000  1
 V  V7  1  0.60114  0.28614  0.00000  1
 V  V8  1  0.50000  0.00000  0.50000  1
 V  V9  1  0.50000  0.50000  0.50000  1
 V  V10  1  0.00000  0.00000  0.00000  1
 V  V11  1  0.87013  0.17832  0.50000  1
 V  V12  1  0.12987  0.82168  0.50000  1
