CIF file written using JARVIS-Tools package.
data_Mg3Zn
_symmetry_space_group_name_H-M  'Imm2'
_cell_length_a       3.18014
_cell_length_b       9.83506
_cell_length_c       5.2299
_cell_angle_alpha    90
_cell_angle_beta     90
_cell_angle_gamma    90

_symmetry_Int_Tables_number  44
_chemical_formula_structural  Mg3Zn
_chemical_formula_sum  Mg6Zn2
_cell_volume  163.574828770462
_cell_formula_units_Z  2
loop_
  _symmetry_equiv_pos_site_id
 _symmetry_equiv_pos_as_xyz
 1  'x, y, z'
loop_
 _atom_site_type_symbol
 _atom_site_label
 _atom_site_symmetry_multiplicity
 _atom_site_fract_x
 _atom_site_fract_y
 _atom_site_fract_z
 _atom_site_fract_occupancy
 Mg  Mg1  1  0.00000  0.00000  0.37003  1
 Mg  Mg2  1  0.00000  0.76806  0.98008  1
 Mg  Mg3  1  0.50000  0.73194  0.48008  1
 Mg  Mg4  1  0.50000  0.50000  0.87003  1
 Mg  Mg5  1  0.50000  0.26806  0.48008  1
 Mg  Mg6  1  0.00000  0.23194  0.98008  1
 Zn  Zn1  1  0.50000  0.00000  0.83647  1
 Zn  Zn2  1  0.00000  0.50000  0.33647  1
