CIF file written using JARVIS-Tools package.
data_ScGePd
_symmetry_space_group_name_H-M  'P-62m'
_cell_length_a       3.92562
_cell_length_b       6.76964
_cell_length_c       6.76959
_cell_angle_alpha    120
_cell_angle_beta     90
_cell_angle_gamma    90

_symmetry_Int_Tables_number  189
_chemical_formula_structural  ScGePd
_chemical_formula_sum  Sc3Ge3Pd3
_cell_volume  155.79956594626674
_cell_formula_units_Z  3
loop_
  _symmetry_equiv_pos_site_id
 _symmetry_equiv_pos_as_xyz
 1  'x, y, z'
loop_
 _atom_site_type_symbol
 _atom_site_label
 _atom_site_symmetry_multiplicity
 _atom_site_fract_x
 _atom_site_fract_y
 _atom_site_fract_z
 _atom_site_fract_occupancy
 Ge  Ge1  1  0.50000  0.33332  0.66667  1
 Ge  Ge2  1  0.50000  0.66666  0.33333  1
 Ge  Ge3  1  0.00000  -0.00001  0.00000  1
 Pd  Pd1  1  0.50000  0.74940  0.00000  1
 Pd  Pd2  1  0.50000  0.25058  0.25060  1
 Pd  Pd3  1  0.50000  0.99998  0.74940  1
 Sc  Sc1  1  0.00000  0.42130  0.00000  1
 Sc  Sc2  1  0.00000  0.57869  0.57870  1
 Sc  Sc3  1  0.00000  0.99999  0.42130  1
