CIF file written using JARVIS-Tools package.
data_LiV2O3F
_symmetry_space_group_name_H-M  'Cm'
_cell_length_a       5.92911
_cell_length_b       5.92951
_cell_length_c       5.92644
_cell_angle_alpha    59.6926
_cell_angle_beta     59.7025
_cell_angle_gamma    59.0069

_symmetry_Int_Tables_number  8
_chemical_formula_structural  LiV2O3F
_chemical_formula_sum  Li2V4O6F2
_cell_volume  145.52950961832198
_cell_formula_units_Z  2
loop_
  _symmetry_equiv_pos_site_id
 _symmetry_equiv_pos_as_xyz
 1  'x, y, z'
loop_
 _atom_site_type_symbol
 _atom_site_label
 _atom_site_symmetry_multiplicity
 _atom_site_fract_x
 _atom_site_fract_y
 _atom_site_fract_z
 _atom_site_fract_occupancy
 F  F1  1  0.74299  0.76827  0.24779  1
 F  F2  1  0.26828  0.24301  0.24776  1
 Li  Li1  1  0.50315  0.00315  0.99179  1
 Li  Li2  1  0.86676  0.36675  0.38450  1
 O  O1  1  0.73784  0.74805  0.75709  1
 O  O2  1  0.74422  0.24433  0.77848  1
 O  O3  1  0.73477  0.23472  0.25062  1
 O  O4  1  0.24808  0.23778  0.75703  1
 O  O5  1  0.25725  0.75732  0.75421  1
 O  O6  1  0.24830  0.74829  0.22508  1
 V  V1  1  0.13015  0.63011  0.61172  1
 V  V2  1  0.99365  0.02523  0.98740  1
 V  V3  1  0.49934  -0.00071  0.51914  1
 V  V4  1  0.52521  0.49370  0.98739  1
