CIF file written using JARVIS-Tools package.
data_BeInRh2
_symmetry_space_group_name_H-M  'P4mm'
_cell_length_a       3.05639
_cell_length_b       3.05639
_cell_length_c       6.30508
_cell_angle_alpha    90
_cell_angle_beta     90
_cell_angle_gamma    90

_symmetry_Int_Tables_number  99
_chemical_formula_structural  BeInRh2
_chemical_formula_sum  BeInRh2
_cell_volume  58.899137985640174
_cell_formula_units_Z  1
loop_
  _symmetry_equiv_pos_site_id
 _symmetry_equiv_pos_as_xyz
 1  'x, y, z'
loop_
 _atom_site_type_symbol
 _atom_site_label
 _atom_site_symmetry_multiplicity
 _atom_site_fract_x
 _atom_site_fract_y
 _atom_site_fract_z
 _atom_site_fract_occupancy
 Be  Be1  1  0.00000  0.00000  0.41778  1
 In  In1  1  0.50000  0.50000  0.75084  1
 Rh  Rh1  1  0.00000  0.00000  0.01788  1
 Rh  Rh2  1  0.50000  0.50000  0.31350  1
