CIF file written using JARVIS-Tools package.
data_ZnCu2SnS4
_symmetry_space_group_name_H-M  'I-4'
_cell_length_a       5.45898
_cell_length_b       5.45898
_cell_length_c       6.68291
_cell_angle_alpha    114.106
_cell_angle_beta     114.106
_cell_angle_gamma    90

_symmetry_Int_Tables_number  82
_chemical_formula_structural  ZnCu2SnS4
_chemical_formula_sum  ZnCu2SnS4
_cell_volume  162.57284738286762
_cell_formula_units_Z  1
loop_
  _symmetry_equiv_pos_site_id
 _symmetry_equiv_pos_as_xyz
 1  'x, y, z'
loop_
 _atom_site_type_symbol
 _atom_site_label
 _atom_site_symmetry_multiplicity
 _atom_site_fract_x
 _atom_site_fract_y
 _atom_site_fract_z
 _atom_site_fract_occupancy
 Cu  Cu1  1  0.00000  0.00000  0.00000  1
 Cu  Cu2  1  0.25000  0.75000  0.50000  1
 S  S1  1  0.36406  0.88817  0.25900  1
 S  S2  1  0.89493  0.37083  0.25900  1
 S  S3  1  0.11183  0.10507  0.74100  1
 S  S4  1  0.62917  0.63594  0.74100  1
 Sn  Sn1  1  0.50000  0.50000  0.00000  1
 Zn  Zn1  1  0.75000  0.25000  0.50000  1
