CIF file written using JARVIS-Tools package.
data_LiV4O5F7
_symmetry_space_group_name_H-M  'P1'
_cell_length_a       4.97943
_cell_length_b       5.27322
_cell_length_c       8.79327
_cell_angle_alpha    72.8291
_cell_angle_beta     74.7018
_cell_angle_gamma    63.118

_symmetry_Int_Tables_number  1
_chemical_formula_structural  LiV4O5F7
_chemical_formula_sum  LiV4O5F7
_cell_volume  194.4453379683795
_cell_formula_units_Z  1
loop_
  _symmetry_equiv_pos_site_id
 _symmetry_equiv_pos_as_xyz
 1  'x, y, z'
loop_
 _atom_site_type_symbol
 _atom_site_label
 _atom_site_symmetry_multiplicity
 _atom_site_fract_x
 _atom_site_fract_y
 _atom_site_fract_z
 _atom_site_fract_occupancy
 F  F1  1  0.24381  0.62254  0.12976  1
 F  F2  1  0.24649  0.87771  0.37284  1
 F  F3  1  0.73201  0.12954  0.63085  1
 F  F4  1  0.32884  0.95117  0.82329  1
 F  F5  1  0.72819  0.38674  0.88062  1
 F  F6  1  0.32673  0.31470  0.42687  1
 F  F7  1  0.67255  0.06742  0.18933  1
 Li  Li1  1  0.42853  0.26121  0.85330  1
 O  O1  1  0.82552  0.42330  0.32390  1
 O  O2  1  0.67315  0.67109  0.57779  1
 O  O3  1  0.17812  0.18647  0.06698  1
 O  O4  1  0.18102  0.56417  0.67916  1
 O  O5  1  0.83611  0.83707  0.92045  1
 V  V1  1  0.20175  0.26355  0.24390  1
 V  V2  1  0.51322  0.51939  0.49334  1
 V  V3  1  0.79598  0.72857  0.73622  1
 V  V4  1  0.98569  0.98930  0.00707  1
