CIF file written using JARVIS-Tools package.
data_B2O3
_symmetry_space_group_name_H-M  'P3_121'
_cell_length_a       4.36354
_cell_length_b       4.36354
_cell_length_c       8.3519
_cell_angle_alpha    90
_cell_angle_beta     90
_cell_angle_gamma    120

_symmetry_Int_Tables_number  152
_chemical_formula_structural  B2O3
_chemical_formula_sum  B6O9
_cell_volume  137.71938407995052
_cell_formula_units_Z  3
loop_
  _symmetry_equiv_pos_site_id
 _symmetry_equiv_pos_as_xyz
 1  'x, y, z'
loop_
 _atom_site_type_symbol
 _atom_site_label
 _atom_site_symmetry_multiplicity
 _atom_site_fract_x
 _atom_site_fract_y
 _atom_site_fract_z
 _atom_site_fract_occupancy
 B  B1  1  0.56699  0.50448  0.00711  1
 B  B2  1  0.49552  0.06251  0.34044  1
 B  B3  1  0.93749  0.43301  0.67378  1
 B  B4  1  0.09982  0.27110  0.22357  1
 B  B5  1  0.72890  0.82873  0.55690  1
 B  B6  1  0.17127  0.90018  0.89024  1
 O  O1  1  0.88377  0.81531  0.98694  1
 O  O2  1  0.18469  0.06846  0.32028  1
 O  O3  1  0.93154  0.11623  0.65361  1
 O  O4  1  0.33337  0.51053  0.11530  1
 O  O5  1  0.48947  0.82284  0.44863  1
 O  O6  1  0.17716  0.66663  0.78196  1
 O  O7  1  0.73481  0.51787  0.57708  1
 O  O8  1  0.48213  0.21694  0.91042  1
 O  O9  1  0.78306  0.26519  0.24375  1
