CIF file written using JARVIS-Tools package.
data_Mn3O5F
_symmetry_space_group_name_H-M  'P-1'
_cell_length_a       5.3373
_cell_length_b       5.36924
_cell_length_c       6.89554
_cell_angle_alpha    73.3051
_cell_angle_beta     72.3279
_cell_angle_gamma    74.1486

_symmetry_Int_Tables_number  2
_chemical_formula_structural  Mn3O5F
_chemical_formula_sum  Mn6O0F2
_cell_volume  176.56292812218408
_cell_formula_units_Z  2
loop_
  _symmetry_equiv_pos_site_id
 _symmetry_equiv_pos_as_xyz
 1  'x, y, z'
loop_
 _atom_site_type_symbol
 _atom_site_label
 _atom_site_symmetry_multiplicity
 _atom_site_fract_x
 _atom_site_fract_y
 _atom_site_fract_z
 _atom_site_fract_occupancy
 F  F1  1  0.96479  0.39642  0.32311  1
 F  F2  1  0.03521  0.60358  0.67689  1
 Mn  Mn1  1  0.00000  0.00000  0.00000  1
 Mn  Mn2  1  0.00000  0.00000  0.50000  1
 Mn  Mn3  1  0.34883  0.33332  0.15942  1
 Mn  Mn4  1  0.35710  0.30494  0.66734  1
 Mn  Mn5  1  0.64290  0.69506  0.33266  1
 Mn  Mn6  1  0.65117  0.66668  0.84058  1
 O  O1  1  0.69412  0.30695  0.99784  1
 O  O2  1  0.30588  0.69305  0.00216  1
 O  O3  1  0.56648  0.56118  0.62971  1
 O  O4  1  0.23356  0.23197  0.96370  1
 O  O5  1  0.43352  0.43882  0.37029  1
 O  O6  1  0.76644  0.76803  0.03630  1
 O  O7  1  0.10942  0.08967  0.70412  1
 O  O8  1  0.35715  0.98178  0.32991  1
 O  O9  1  0.89058  0.91033  0.29588  1
 O  O10  1  0.64285  0.01822  0.67009  1
