CIF file written using JARVIS-Tools package.
data_YbSbAu
_symmetry_space_group_name_H-M  'P6_3mc'
_cell_length_a       4.68324
_cell_length_b       4.68324
_cell_length_c       7.61597
_cell_angle_alpha    90
_cell_angle_beta     90
_cell_angle_gamma    120

_symmetry_Int_Tables_number  186
_chemical_formula_structural  YbSbAu
_chemical_formula_sum  Yb2Sb2Au2
_cell_volume  144.65982382141812
_cell_formula_units_Z  2
loop_
  _symmetry_equiv_pos_site_id
 _symmetry_equiv_pos_as_xyz
 1  'x, y, z'
loop_
 _atom_site_type_symbol
 _atom_site_label
 _atom_site_symmetry_multiplicity
 _atom_site_fract_x
 _atom_site_fract_y
 _atom_site_fract_z
 _atom_site_fract_occupancy
 Au  Au1  1  0.33333  0.66667  0.06375  1
 Au  Au2  1  0.66667  0.33333  0.56375  1
 Sb  Sb1  1  0.33333  0.66667  0.46535  1
 Sb  Sb2  1  0.66667  0.33333  0.96535  1
 Yb  Yb1  1  0.00000  0.00000  0.24490  1
 Yb  Yb2  1  0.00000  0.00000  0.74490  1
