CIF file written using JARVIS-Tools package.
data_LiVF4
_symmetry_space_group_name_H-M  'Pbcn'
_cell_length_a       4.51317
_cell_length_b       11.4902
_cell_length_c       4.84921
_cell_angle_alpha    90
_cell_angle_beta     90.0003
_cell_angle_gamma    90

_symmetry_Int_Tables_number  60
_chemical_formula_structural  LiVF4
_chemical_formula_sum  Li4V4F6
_cell_volume  251.46573914153836
_cell_formula_units_Z  4
loop_
  _symmetry_equiv_pos_site_id
 _symmetry_equiv_pos_as_xyz
 1  'x, y, z'
loop_
 _atom_site_type_symbol
 _atom_site_label
 _atom_site_symmetry_multiplicity
 _atom_site_fract_x
 _atom_site_fract_y
 _atom_site_fract_z
 _atom_site_fract_occupancy
 F  F1  1  0.74874  0.56665  0.33216  1
 F  F2  1  0.23598  0.80716  0.67341  1
 F  F3  1  0.23598  0.19284  0.17341  1
 F  F4  1  0.24875  0.93334  0.16784  1
 F  F5  1  0.76402  0.80716  0.32659  1
 F  F6  1  0.25126  0.43335  0.16784  1
 F  F7  1  0.25126  0.56665  0.66784  1
 F  F8  1  0.24875  0.06666  0.66784  1
 F  F9  1  0.26402  0.30716  0.67342  1
 F  F10  1  0.73598  0.30716  0.32658  1
 F  F11  1  0.73598  0.69284  0.82658  1
 F  F12  1  0.76402  0.19284  0.82659  1
 F  F13  1  0.74874  0.43335  0.83216  1
 F  F14  1  0.75125  0.93334  0.83216  1
 F  F15  1  0.75125  0.06666  0.33216  1
 F  F16  1  0.26402  0.69284  0.17342  1
 Li  Li1  1  0.50000  0.55289  -0.00000  1
 Li  Li2  1  0.50000  0.44711  0.50000  1
 Li  Li3  1  0.00000  0.05289  0.00000  1
 Li  Li4  1  0.00000  0.94711  0.50000  1
 V  V1  1  0.50000  0.82103  -0.00000  1
 V  V2  1  0.50000  0.17897  0.50000  1
 V  V3  1  0.00000  0.32103  0.00000  1
 V  V4  1  0.00000  0.67897  0.50000  1
