CIF file written using JARVIS-Tools package.
data_LiMnO2
_symmetry_space_group_name_H-M  'C2/m'
_cell_length_a       2.82013
_cell_length_b       3.08145
_cell_length_c       5.0394
_cell_angle_alpha    100.93
_cell_angle_beta     106.249
_cell_angle_gamma    62.7679

_symmetry_Int_Tables_number  12
_chemical_formula_structural  LiMnO2
_chemical_formula_sum  LiMnO2
_cell_volume  37.28606576976011
_cell_formula_units_Z  1
loop_
  _symmetry_equiv_pos_site_id
 _symmetry_equiv_pos_as_xyz
 1  'x, y, z'
loop_
 _atom_site_type_symbol
 _atom_site_label
 _atom_site_symmetry_multiplicity
 _atom_site_fract_x
 _atom_site_fract_y
 _atom_site_fract_z
 _atom_site_fract_occupancy
 Li  Li1  1  0.50000  0.50000  0.50000  1
 Mn  Mn1  1  0.00000  0.00000  0.00000  1
 O  O1  1  0.72490  0.78535  0.23515  1
 O  O2  1  0.27510  0.21465  0.76485  1
