CIF file written using JARVIS-Tools package.
data_VOF3
_symmetry_space_group_name_H-M  'Cmc2_1'
_cell_length_a       4.92852
_cell_length_b       5.53707
_cell_length_c       4.9312
_cell_angle_alpha    90
_cell_angle_beta     111.662
_cell_angle_gamma    90

_symmetry_Int_Tables_number  36
_chemical_formula_structural  VOF3
_chemical_formula_sum  V2O2F6
_cell_volume  125.06674511041898
_cell_formula_units_Z  2
loop_
  _symmetry_equiv_pos_site_id
 _symmetry_equiv_pos_as_xyz
 1  'x, y, z'
loop_
 _atom_site_type_symbol
 _atom_site_label
 _atom_site_symmetry_multiplicity
 _atom_site_fract_x
 _atom_site_fract_y
 _atom_site_fract_z
 _atom_site_fract_occupancy
 F  F1  1  0.04892  0.97388  0.96495  1
 F  F2  1  -0.00684  0.21511  0.49302  1
 F  F3  1  0.95108  0.47388  0.03505  1
 F  F4  1  0.53480  0.47353  0.45077  1
 F  F5  1  0.46520  -0.02647  0.54923  1
 F  F6  1  0.00684  0.71511  0.50698  1
 O  O1  1  0.47121  0.27853  -0.02898  1
 O  O2  1  0.52879  0.77853  0.02898  1
 V  V1  1  0.27503  0.05896  0.77499  1
 V  V2  1  0.72497  0.55896  0.22501  1
