CIF file written using JARVIS-Tools package.
data_SrIn3
_symmetry_space_group_name_H-M  'P6_3/mmc'
_cell_length_a       5.18788
_cell_length_b       7.17879
_cell_length_c       7.17879
_cell_angle_alpha    119.946
_cell_angle_beta     90
_cell_angle_gamma    90

_symmetry_Int_Tables_number  194
_chemical_formula_structural  SrIn3
_chemical_formula_sum  Sr2In6
_cell_volume  231.66446249444027
_cell_formula_units_Z  2
loop_
  _symmetry_equiv_pos_site_id
 _symmetry_equiv_pos_as_xyz
 1  'x, y, z'
loop_
 _atom_site_type_symbol
 _atom_site_label
 _atom_site_symmetry_multiplicity
 _atom_site_fract_x
 _atom_site_fract_y
 _atom_site_fract_z
 _atom_site_fract_occupancy
 In  In1  1  0.75000  0.15296  0.30635  1
 In  In2  1  0.75000  0.15334  0.84666  1
 In  In3  1  0.75000  0.69365  0.84704  1
 In  In4  1  0.25000  0.84704  0.69365  1
 In  In5  1  0.25000  0.84666  0.15334  1
 In  In6  1  0.25000  0.30635  0.15296  1
 Sr  Sr1  1  0.75000  0.66648  0.33352  1
 Sr  Sr2  1  0.25000  0.33352  0.66648  1
