CIF file written using JARVIS-Tools package.
data_HoB2Os
_symmetry_space_group_name_H-M  'Pnma'
_cell_length_a       5.30404
_cell_length_b       5.89647
_cell_length_c       6.38222
_cell_angle_alpha    90
_cell_angle_beta     90
_cell_angle_gamma    90

_symmetry_Int_Tables_number  62
_chemical_formula_structural  HoB2Os
_chemical_formula_sum  Ho4B8Os4
_cell_volume  199.60456135582663
_cell_formula_units_Z  4
loop_
  _symmetry_equiv_pos_site_id
 _symmetry_equiv_pos_as_xyz
 1  'x, y, z'
loop_
 _atom_site_type_symbol
 _atom_site_label
 _atom_site_symmetry_multiplicity
 _atom_site_fract_x
 _atom_site_fract_y
 _atom_site_fract_z
 _atom_site_fract_occupancy
 B  B1  1  0.08352  0.36393  0.46239  1
 B  B2  1  0.91648  0.13607  0.96239  1
 B  B3  1  0.58352  0.63607  0.53761  1
 B  B4  1  0.41648  0.86393  0.03761  1
 B  B5  1  0.91648  0.63607  0.53761  1
 B  B6  1  0.08352  0.86393  0.03761  1
 B  B7  1  0.41648  0.36393  0.46239  1
 B  B8  1  0.58352  0.13607  0.96239  1
 Ho  Ho1  1  0.25000  0.00984  0.66421  1
 Ho  Ho2  1  0.75000  0.49016  0.16421  1
 Ho  Ho3  1  0.75000  0.99016  0.33579  1
 Ho  Ho4  1  0.25000  0.50984  0.83579  1
 Os  Os1  1  0.25000  0.17945  0.18110  1
 Os  Os2  1  0.75000  0.32055  0.68110  1
 Os  Os3  1  0.75000  0.82055  0.81890  1
 Os  Os4  1  0.25000  0.67945  0.31890  1
