CIF file written using JARVIS-Tools package.
data_YCo3H2
_symmetry_space_group_name_H-M  'R-3m'
_cell_length_a       9.57077
_cell_length_b       9.57077
_cell_length_c       9.57077
_cell_angle_alpha    29.7827
_cell_angle_beta     29.7827
_cell_angle_gamma    29.7827

_symmetry_Int_Tables_number  166
_chemical_formula_structural  YCo3H2
_chemical_formula_sum  Y3Co9H6
_cell_volume  191.5307668369042
_cell_formula_units_Z  3
loop_
  _symmetry_equiv_pos_site_id
 _symmetry_equiv_pos_as_xyz
 1  'x, y, z'
loop_
 _atom_site_type_symbol
 _atom_site_label
 _atom_site_symmetry_multiplicity
 _atom_site_fract_x
 _atom_site_fract_y
 _atom_site_fract_z
 _atom_site_fract_occupancy
 Co  Co1  1  0.42941  0.92758  0.42941  1
 Co  Co2  1  0.33223  0.33223  0.33223  1
 Co  Co3  1  0.50000  0.50000  0.50000  1
 Co  Co4  1  0.57059  0.07242  0.57059  1
 Co  Co5  1  0.66777  0.66777  0.66777  1
 Co  Co6  1  0.92758  0.42941  0.42941  1
 Co  Co7  1  0.42941  0.42941  0.92758  1
 Co  Co8  1  0.07242  0.57059  0.57059  1
 Co  Co9  1  0.57059  0.57059  0.07242  1
 H  H1  1  0.63169  0.13928  0.63169  1
 H  H2  1  0.63169  0.63169  0.13928  1
 H  H3  1  0.13928  0.63169  0.63169  1
 H  H4  1  0.36831  0.36831  0.86072  1
 H  H5  1  0.86072  0.36831  0.36831  1
 H  H6  1  0.36831  0.86072  0.36831  1
 Y  Y1  1  0.87229  0.87229  0.87229  1
 Y  Y2  1  0.00000  0.00000  0.00000  1
 Y  Y3  1  0.12771  0.12771  0.12771  1
