CIF file written using JARVIS-Tools package.
data_YBeMo
_symmetry_space_group_name_H-M  'I4mm'
_cell_length_a       6.40925
_cell_length_b       6.40925
_cell_length_c       6.40925
_cell_angle_alpha    153.785
_cell_angle_beta     153.785
_cell_angle_gamma    37.4119

_symmetry_Int_Tables_number  107
_chemical_formula_structural  YBeMo
_chemical_formula_sum  YBeMo
_cell_volume  51.29949052380065
_cell_formula_units_Z  1
loop_
  _symmetry_equiv_pos_site_id
 _symmetry_equiv_pos_as_xyz
 1  'x, y, z'
loop_
 _atom_site_type_symbol
 _atom_site_label
 _atom_site_symmetry_multiplicity
 _atom_site_fract_x
 _atom_site_fract_y
 _atom_site_fract_z
 _atom_site_fract_occupancy
 Be  Be1  1  0.98365  0.98365  0.00000  1
 Mo  Mo1  1  0.35972  0.35972  0.00000  1
 Y  Y1  1  0.65664  0.65664  0.00000  1
