CIF file written using JARVIS-Tools package.
data_TmMnO3
_symmetry_space_group_name_H-M  'P6_3cm'
_cell_length_a       6.07763
_cell_length_b       6.07763
_cell_length_c       11.4154
_cell_angle_alpha    90
_cell_angle_beta     90
_cell_angle_gamma    120

_symmetry_Int_Tables_number  185
_chemical_formula_structural  TmMnO3
_chemical_formula_sum  Tm6Mn6O8
_cell_volume  365.1678782046092
_cell_formula_units_Z  6
loop_
  _symmetry_equiv_pos_site_id
 _symmetry_equiv_pos_as_xyz
 1  'x, y, z'
loop_
 _atom_site_type_symbol
 _atom_site_label
 _atom_site_symmetry_multiplicity
 _atom_site_fract_x
 _atom_site_fract_y
 _atom_site_fract_z
 _atom_site_fract_occupancy
 Mn  Mn1  1  0.33350  0.00000  0.99720  1
 Mn  Mn2  1  -0.00000  0.66650  0.49720  1
 Mn  Mn3  1  0.66650  0.66650  0.99720  1
 Mn  Mn4  1  0.33350  0.33350  0.49720  1
 Mn  Mn5  1  0.66650  -0.00000  0.49720  1
 Mn  Mn6  1  0.00000  0.33350  0.99720  1
 O  O1  1  0.36137  -0.00000  0.83277  1
 O  O2  1  0.00000  0.30482  0.16198  1
 O  O3  1  0.33333  0.66667  0.51792  1
 O  O4  1  -0.00000  0.69518  0.66198  1
 O  O5  1  -0.00000  0.36137  0.83277  1
 O  O6  1  0.69518  -0.00000  0.66198  1
 O  O7  1  0.00000  0.00000  0.47289  1
 O  O8  1  0.63863  0.63863  0.83277  1
 O  O9  1  0.66667  0.33333  0.51792  1
 O  O10  1  0.00000  0.63863  0.33277  1
 O  O11  1  0.69518  0.69518  0.16198  1
 O  O12  1  0.66667  0.33333  0.01792  1
 O  O13  1  0.30482  0.00000  0.16198  1
 O  O14  1  0.33333  0.66667  0.01792  1
 O  O15  1  0.36137  0.36137  0.33277  1
 O  O16  1  0.63863  0.00000  0.33277  1
 O  O17  1  0.30482  0.30482  0.66198  1
 O  O18  1  0.00000  0.00000  0.97289  1
 Tm  Tm1  1  0.33333  0.66667  0.72756  1
 Tm  Tm2  1  0.00000  0.00000  0.27328  1
 Tm  Tm3  1  0.66667  0.33333  0.22756  1
 Tm  Tm4  1  0.33333  0.66667  0.22756  1
 Tm  Tm5  1  0.00000  0.00000  0.77328  1
 Tm  Tm6  1  0.66667  0.33333  0.72756  1
