CIF file written using JARVIS-Tools package.
data_KCo
_symmetry_space_group_name_H-M  'Imma'
_cell_length_a       3.64435
_cell_length_b       10.7184
_cell_length_c       5.58365
_cell_angle_alpha    90
_cell_angle_beta     90
_cell_angle_gamma    90

_symmetry_Int_Tables_number  74
_chemical_formula_structural  KCo
_chemical_formula_sum  K4Co4
_cell_volume  218.10587034989456
_cell_formula_units_Z  4
loop_
  _symmetry_equiv_pos_site_id
 _symmetry_equiv_pos_as_xyz
 1  'x, y, z'
loop_
 _atom_site_type_symbol
 _atom_site_label
 _atom_site_symmetry_multiplicity
 _atom_site_fract_x
 _atom_site_fract_y
 _atom_site_fract_z
 _atom_site_fract_occupancy
 Co  Co1  1  0.25000  0.80466  0.50014  1
 Co  Co2  1  0.75000  0.69534  0.49986  1
 Co  Co3  1  0.75000  0.30466  -0.00014  1
 Co  Co4  1  0.25000  0.19534  0.00014  1
 K  K1  1  0.25000  0.39970  0.49988  1
 K  K2  1  0.75000  0.10030  0.50012  1
 K  K3  1  0.75000  0.89970  0.00012  1
 K  K4  1  0.25000  0.60030  -0.00012  1
