CIF file written using JARVIS-Tools package.
data_Dy2Au
_symmetry_space_group_name_H-M  'Pnma'
_cell_length_a       4.91418
_cell_length_b       7.03002
_cell_length_c       8.92066
_cell_angle_alpha    90
_cell_angle_beta     90
_cell_angle_gamma    90

_symmetry_Int_Tables_number  62
_chemical_formula_structural  Dy2Au
_chemical_formula_sum  Dy8Au4
_cell_volume  308.18011216305956
_cell_formula_units_Z  4
loop_
  _symmetry_equiv_pos_site_id
 _symmetry_equiv_pos_as_xyz
 1  'x, y, z'
loop_
 _atom_site_type_symbol
 _atom_site_label
 _atom_site_symmetry_multiplicity
 _atom_site_fract_x
 _atom_site_fract_y
 _atom_site_fract_z
 _atom_site_fract_occupancy
 Au  Au1  1  0.25000  0.25877  0.09791  1
 Au  Au2  1  0.75000  0.24123  0.59791  1
 Au  Au3  1  0.75000  0.74123  0.90209  1
 Au  Au4  1  0.25000  0.75877  0.40209  1
 Dy  Dy1  1  0.25000  0.84792  0.08163  1
 Dy  Dy2  1  0.75000  0.65208  0.58163  1
 Dy  Dy3  1  0.75000  0.15208  0.91837  1
 Dy  Dy4  1  0.25000  0.34792  0.41837  1
 Dy  Dy5  1  0.25000  0.48911  0.82266  1
 Dy  Dy6  1  0.75000  0.01089  0.32266  1
 Dy  Dy7  1  0.75000  0.51089  0.17734  1
 Dy  Dy8  1  0.25000  0.98911  0.67734  1
