CIF file written using JARVIS-Tools package.
data_NdSnAu
_symmetry_space_group_name_H-M  'P6_3mc'
_cell_length_a       4.77052
_cell_length_b       4.77026
_cell_length_c       7.68038
_cell_angle_alpha    90
_cell_angle_beta     90
_cell_angle_gamma    120.002

_symmetry_Int_Tables_number  186
_chemical_formula_structural  NdSnAu
_chemical_formula_sum  Nd2Sn2Au2
_cell_volume  151.36060996751587
_cell_formula_units_Z  2
loop_
  _symmetry_equiv_pos_site_id
 _symmetry_equiv_pos_as_xyz
 1  'x, y, z'
loop_
 _atom_site_type_symbol
 _atom_site_label
 _atom_site_symmetry_multiplicity
 _atom_site_fract_x
 _atom_site_fract_y
 _atom_site_fract_z
 _atom_site_fract_occupancy
 Au  Au1  1  0.66669  0.33339  0.06999  1
 Au  Au2  1  0.33331  0.66661  0.56999  1
 Nd  Nd1  1  0.99997  0.99995  0.75384  1
 Nd  Nd2  1  0.00003  0.00005  0.25384  1
 Sn  Sn1  1  0.66666  0.33332  0.47837  1
 Sn  Sn2  1  0.33334  0.66668  0.97837  1
