CIF file written using JARVIS-Tools package.
data_Fe4O7F
_symmetry_space_group_name_H-M  'P1'
_cell_length_a       5.22427
_cell_length_b       5.21592
_cell_length_c       8.40291
_cell_angle_alpha    86.6758
_cell_angle_beta     86.5906
_cell_angle_gamma    72.7965

_symmetry_Int_Tables_number  1
_chemical_formula_structural  Fe4O7F
_chemical_formula_sum  Fe8O4F2
_cell_volume  218.14710783032956
_cell_formula_units_Z  2
loop_
  _symmetry_equiv_pos_site_id
 _symmetry_equiv_pos_as_xyz
 1  'x, y, z'
loop_
 _atom_site_type_symbol
 _atom_site_label
 _atom_site_symmetry_multiplicity
 _atom_site_fract_x
 _atom_site_fract_y
 _atom_site_fract_z
 _atom_site_fract_occupancy
 F  F1  1  0.02403  0.02465  0.77689  1
 F  F2  1  0.44908  0.05030  0.24965  1
 Fe  Fe1  1  -0.00131  0.00721  0.01167  1
 Fe  Fe2  1  0.86013  0.86156  0.61475  1
 Fe  Fe3  1  0.62818  0.62960  0.87620  1
 Fe  Fe4  1  0.11128  0.12838  0.38355  1
 Fe  Fe5  1  0.26080  0.26169  0.75135  1
 Fe  Fe6  1  0.49301  0.50064  0.49749  1
 Fe  Fe7  1  0.37307  0.39086  0.11832  1
 Fe  Fe8  1  0.77399  0.72372  0.24813  1
 O  O1  1  0.22444  0.22872  0.97225  1
 O  O2  1  0.06469  0.43675  0.25063  1
 O  O3  1  0.18830  0.80246  0.50175  1
 O  O4  1  0.27629  0.27599  0.52789  1
 O  O5  1  0.78185  0.77690  0.02950  1
 O  O6  1  0.47254  0.47856  0.72182  1
 O  O7  1  0.71874  0.71814  0.46798  1
 O  O8  1  0.97337  0.97170  0.22740  1
 O  O9  1  0.55253  0.94813  0.74895  1
 O  O10  1  0.30146  0.70360  0.99941  1
 O  O11  1  0.94509  0.55340  0.74785  1
 O  O12  1  0.69747  0.30665  0.99810  1
 O  O13  1  0.53130  0.52406  0.27444  1
 O  O14  1  0.79968  0.19631  0.50404  1
