CIF file written using JARVIS-Tools package.
data_AuN2
_symmetry_space_group_name_H-M  'Pnnm'
_cell_length_a       6.0451
_cell_length_b       4.96559
_cell_length_c       2.90164
_cell_angle_alpha    90
_cell_angle_beta     90
_cell_angle_gamma    90

_symmetry_Int_Tables_number  58
_chemical_formula_structural  AuN2
_chemical_formula_sum  Au2N4
_cell_volume  87.1001182734701
_cell_formula_units_Z  2
loop_
  _symmetry_equiv_pos_site_id
 _symmetry_equiv_pos_as_xyz
 1  'x, y, z'
loop_
 _atom_site_type_symbol
 _atom_site_label
 _atom_site_symmetry_multiplicity
 _atom_site_fract_x
 _atom_site_fract_y
 _atom_site_fract_z
 _atom_site_fract_occupancy
 Au  Au1  1  0.50000  0.50000  0.50000  1
 Au  Au2  1  0.00000  0.00000  0.00000  1
 N  N1  1  0.56764  0.08425  0.50000  1
 N  N2  1  0.43236  0.91575  0.50000  1
 N  N3  1  0.06764  0.41575  0.00000  1
 N  N4  1  0.93236  0.58425  0.00000  1
