CIF file written using JARVIS-Tools package.
data_Tb4Fe3B6
_symmetry_space_group_name_H-M  'R-3m'
_cell_length_a       7.80804
_cell_length_b       7.80804
_cell_length_c       7.80805
_cell_angle_alpha    39.5885
_cell_angle_beta     39.5885
_cell_angle_gamma    39.5886

_symmetry_Int_Tables_number  166
_chemical_formula_structural  Tb4Fe3B6
_chemical_formula_sum  Tb4Fe3B6
_cell_volume  174.04823876116276
_cell_formula_units_Z  1
loop_
  _symmetry_equiv_pos_site_id
 _symmetry_equiv_pos_as_xyz
 1  'x, y, z'
loop_
 _atom_site_type_symbol
 _atom_site_label
 _atom_site_symmetry_multiplicity
 _atom_site_fract_x
 _atom_site_fract_y
 _atom_site_fract_z
 _atom_site_fract_occupancy
 B  B1  1  0.50000  0.83273  0.16727  1
 B  B2  1  0.16727  0.50000  0.83273  1
 B  B3  1  0.83273  0.16727  0.50000  1
 B  B4  1  0.50000  0.16727  0.83273  1
 B  B5  1  0.83273  0.50000  0.16727  1
 B  B6  1  0.16727  0.83273  0.50000  1
 Fe  Fe1  1  0.00000  0.00000  0.00000  1
 Fe  Fe2  1  0.10872  0.10872  0.10872  1
 Fe  Fe3  1  0.89128  0.89128  0.89128  1
 Tb  Tb1  1  0.25791  0.25791  0.25791  1
 Tb  Tb2  1  0.74209  0.74209  0.74209  1
 Tb  Tb3  1  0.40926  0.40926  0.40926  1
 Tb  Tb4  1  0.59074  0.59074  0.59074  1
