CIF file written using JARVIS-Tools package.
data_ScBeRe
_symmetry_space_group_name_H-M  'I4mm'
_cell_length_a       6.08023
_cell_length_b       6.08023
_cell_length_c       6.08023
_cell_angle_alpha    153.718
_cell_angle_beta     153.718
_cell_angle_gamma    37.5091

_symmetry_Int_Tables_number  107
_chemical_formula_structural  ScBeRe
_chemical_formula_sum  ScBeRe
_cell_volume  44.00440518624902
_cell_formula_units_Z  1
loop_
  _symmetry_equiv_pos_site_id
 _symmetry_equiv_pos_as_xyz
 1  'x, y, z'
loop_
 _atom_site_type_symbol
 _atom_site_label
 _atom_site_symmetry_multiplicity
 _atom_site_fract_x
 _atom_site_fract_y
 _atom_site_fract_z
 _atom_site_fract_occupancy
 Be  Be1  1  0.98737  0.98737  0.00000  1
 Re  Re1  1  0.35482  0.35482  -0.00000  1
 Sc  Sc1  1  0.65781  0.65781  -0.00000  1
