CIF file written using JARVIS-Tools package.
data_Li2CoBO4
_symmetry_space_group_name_H-M  'C2/m'
_cell_length_a       4.98914
_cell_length_b       4.98914
_cell_length_c       6.05272
_cell_angle_alpha    89.538
_cell_angle_beta     90.462
_cell_angle_gamma    88.7052

_symmetry_Int_Tables_number  12
_chemical_formula_structural  Li2CoBO4
_chemical_formula_sum  Li4Co2B2O8
_cell_volume  150.6129651246001
_cell_formula_units_Z  2
loop_
  _symmetry_equiv_pos_site_id
 _symmetry_equiv_pos_as_xyz
 1  'x, y, z'
loop_
 _atom_site_type_symbol
 _atom_site_label
 _atom_site_symmetry_multiplicity
 _atom_site_fract_x
 _atom_site_fract_y
 _atom_site_fract_z
 _atom_site_fract_occupancy
 B  B1  1  0.31703  0.68297  0.25462  1
 B  B2  1  0.68297  0.31703  0.74538  1
 Co  Co1  1  0.19045  0.19045  0.00000  1
 Co  Co2  1  0.80955  0.80955  -0.00000  1
 Li  Li1  1  0.32261  0.67739  0.72058  1
 Li  Li2  1  0.17703  0.17703  0.50000  1
 Li  Li3  1  0.82297  0.82297  0.50000  1
 Li  Li4  1  0.67739  0.32261  0.27942  1
 O  O1  1  0.19913  0.80087  0.03185  1
 O  O2  1  0.20138  0.79862  0.44065  1
 O  O3  1  0.61672  0.72016  0.24388  1
 O  O4  1  0.27984  0.38328  0.24388  1
 O  O5  1  0.38328  0.27984  0.75612  1
 O  O6  1  0.72016  0.61672  0.75612  1
 O  O7  1  0.79862  0.20138  0.55935  1
 O  O8  1  0.80087  0.19913  0.96815  1
