CIF file written using JARVIS-Tools package.
data_ScSnPt
_symmetry_space_group_name_H-M  'P-62m'
_cell_length_a       3.71199
_cell_length_b       7.44152
_cell_length_c       7.44149
_cell_angle_alpha    120
_cell_angle_beta     90
_cell_angle_gamma    90

_symmetry_Int_Tables_number  189
_chemical_formula_structural  ScSnPt
_chemical_formula_sum  Sc3Sn3Pt3
_cell_volume  178.0156803700704
_cell_formula_units_Z  3
loop_
  _symmetry_equiv_pos_site_id
 _symmetry_equiv_pos_as_xyz
 1  'x, y, z'
loop_
 _atom_site_type_symbol
 _atom_site_label
 _atom_site_symmetry_multiplicity
 _atom_site_fract_x
 _atom_site_fract_y
 _atom_site_fract_z
 _atom_site_fract_occupancy
 Pt  Pt1  1  0.00000  0.33332  0.66667  1
 Pt  Pt2  1  0.00000  0.66666  0.33333  1
 Pt  Pt3  1  0.50000  0.99999  0.00000  1
 Sc  Sc1  1  0.50000  0.60574  -0.00000  1
 Sc  Sc2  1  0.50000  0.39424  0.39425  1
 Sc  Sc3  1  0.50000  0.99999  0.60575  1
 Sn  Sn1  1  0.00000  0.27206  -0.00000  1
 Sn  Sn2  1  0.00000  0.72792  0.72793  1
 Sn  Sn3  1  0.00000  0.99999  0.27207  1
