CIF file written using JARVIS-Tools package.
data_HfAsOs
_symmetry_space_group_name_H-M  'P-62m'
_cell_length_a       6.59512
_cell_length_b       6.59512
_cell_length_c       3.97462
_cell_angle_alpha    90
_cell_angle_beta     90
_cell_angle_gamma    120

_symmetry_Int_Tables_number  189
_chemical_formula_structural  HfAsOs
_chemical_formula_sum  Hf3As3Os3
_cell_volume  149.71731930453973
_cell_formula_units_Z  3
loop_
  _symmetry_equiv_pos_site_id
 _symmetry_equiv_pos_as_xyz
 1  'x, y, z'
loop_
 _atom_site_type_symbol
 _atom_site_label
 _atom_site_symmetry_multiplicity
 _atom_site_fract_x
 _atom_site_fract_y
 _atom_site_fract_z
 _atom_site_fract_occupancy
 As  As1  1  0.33333  0.66667  0.00000  1
 As  As2  1  0.66667  0.33333  0.00000  1
 As  As3  1  0.00000  0.00000  0.50000  1
 Hf  Hf1  1  0.57936  0.00000  0.50000  1
 Hf  Hf2  1  0.00000  0.57936  0.50000  1
 Hf  Hf3  1  0.42064  0.42064  0.50000  1
 Os  Os1  1  0.24708  -0.00000  0.00000  1
 Os  Os2  1  -0.00000  0.24708  0.00000  1
 Os  Os3  1  0.75292  0.75292  0.00000  1
