CIF file written using JARVIS-Tools package.
data_AsSe
_symmetry_space_group_name_H-M  'P2_1/c'
_cell_length_a       6.77102
_cell_length_b       13.9097
_cell_length_c       10.078
_cell_angle_alpha    90
_cell_angle_beta     113.804
_cell_angle_gamma    90

_symmetry_Int_Tables_number  14
_chemical_formula_structural  AsSe
_chemical_formula_sum  As6Se6
_cell_volume  868.4279040396563
_cell_formula_units_Z  16
loop_
  _symmetry_equiv_pos_site_id
 _symmetry_equiv_pos_as_xyz
 1  'x, y, z'
loop_
 _atom_site_type_symbol
 _atom_site_label
 _atom_site_symmetry_multiplicity
 _atom_site_fract_x
 _atom_site_fract_y
 _atom_site_fract_z
 _atom_site_fract_occupancy
 As  As1  1  0.35366  0.97827  0.11244  1
 As  As2  1  0.64634  0.47827  0.38756  1
 As  As3  1  0.64634  0.02173  0.88756  1
 As  As4  1  0.35366  0.52173  0.61244  1
 As  As5  1  0.57068  0.13799  0.43153  1
 As  As6  1  0.42932  0.63799  0.06847  1
 As  As7  1  0.42932  0.86201  0.56847  1
 As  As8  1  0.33835  0.33998  0.53518  1
 As  As9  1  0.57068  0.36201  0.93153  1
 As  As10  1  0.85070  0.63269  0.17352  1
 As  As11  1  0.85070  0.86731  0.67352  1
 As  As12  1  0.14930  0.36731  0.82648  1
 As  As13  1  0.33835  0.16002  0.03518  1
 As  As14  1  0.66165  0.66002  0.46482  1
 As  As15  1  0.66165  0.83998  0.96482  1
 As  As16  1  0.14930  0.13269  0.32648  1
 Se  Se1  1  0.94529  0.77910  0.89910  1
 Se  Se2  1  0.65615  0.98527  0.34967  1
 Se  Se3  1  0.34385  0.48527  0.15033  1
 Se  Se4  1  0.34385  0.01473  0.65033  1
 Se  Se5  1  0.65615  0.51473  0.84967  1
 Se  Se6  1  0.91870  0.47486  0.28795  1
 Se  Se7  1  0.08130  0.97486  0.21205  1
 Se  Se8  1  0.37511  0.73048  0.25570  1
 Se  Se9  1  0.62489  0.23048  0.24430  1
 Se  Se10  1  0.37511  0.76952  0.75570  1
 Se  Se11  1  0.62489  0.26952  0.74430  1
 Se  Se12  1  0.05471  0.22090  0.10090  1
 Se  Se13  1  0.94529  0.72090  0.39910  1
 Se  Se14  1  0.91870  0.02514  0.78795  1
 Se  Se15  1  0.08130  0.52514  0.71205  1
 Se  Se16  1  0.05471  0.27910  0.60090  1
