CIF file written using JARVIS-Tools package.
data_Cu3As2O8
_symmetry_space_group_name_H-M  'P2_1/c'
_cell_length_a       5.13982
_cell_length_b       5.48703
_cell_length_c       11.7164
_cell_angle_alpha    90
_cell_angle_beta     90
_cell_angle_gamma    111.834

_symmetry_Int_Tables_number  14
_chemical_formula_structural  Cu3As2O8
_chemical_formula_sum  Cu6As4O6
_cell_volume  306.7268260296708
_cell_formula_units_Z  2
loop_
  _symmetry_equiv_pos_site_id
 _symmetry_equiv_pos_as_xyz
 1  'x, y, z'
loop_
 _atom_site_type_symbol
 _atom_site_label
 _atom_site_symmetry_multiplicity
 _atom_site_fract_x
 _atom_site_fract_y
 _atom_site_fract_z
 _atom_site_fract_occupancy
 As  As1  1  0.89365  0.26742  0.11509  1
 As  As2  1  0.60635  0.73258  0.61509  1
 As  As3  1  0.39365  0.26742  0.38491  1
 As  As4  1  0.10635  0.73258  0.88491  1
 Cu  Cu1  1  0.75531  0.13858  0.83644  1
 Cu  Cu2  1  0.24469  0.86142  0.16356  1
 Cu  Cu3  1  0.25531  0.13858  0.66356  1
 Cu  Cu4  1  -0.00000  0.50000  0.50000  1
 Cu  Cu5  1  0.74469  0.86142  0.33644  1
 Cu  Cu6  1  0.50000  0.50000  0.00000  1
 O  O1  1  0.28716  0.72399  0.01273  1
 O  O2  1  0.78716  0.72399  0.48727  1
 O  O3  1  0.66938  0.99234  0.18701  1
 O  O4  1  0.09385  0.45634  0.81379  1
 O  O5  1  0.70011  0.21904  0.41811  1
 O  O6  1  0.40615  0.54366  0.31379  1
 O  O7  1  0.16938  0.99234  0.31299  1
 O  O8  1  0.59385  0.45634  0.68621  1
 O  O9  1  0.90615  0.54366  0.18621  1
 O  O10  1  0.79989  0.78096  0.91811  1
 O  O11  1  0.20011  0.21904  0.08189  1
 O  O12  1  0.83062  0.00766  0.68701  1
 O  O13  1  0.33062  0.00766  0.81299  1
 O  O14  1  0.21284  0.27601  0.51273  1
 O  O15  1  0.29989  0.78096  0.58189  1
 O  O16  1  0.71284  0.27601  0.98727  1
