CIF file written using JARVIS-Tools package.
data_RbPrSe2
_symmetry_space_group_name_H-M  'R-3m'
_cell_length_a       8.32885
_cell_length_b       8.32885
_cell_length_c       8.32885
_cell_angle_alpha    30.5188
_cell_angle_beta     30.5188
_cell_angle_gamma    30.5188

_symmetry_Int_Tables_number  166
_chemical_formula_structural  RbPrSe2
_chemical_formula_sum  RbPrSe2
_cell_volume  132.0812559903622
_cell_formula_units_Z  1
loop_
  _symmetry_equiv_pos_site_id
 _symmetry_equiv_pos_as_xyz
 1  'x, y, z'
loop_
 _atom_site_type_symbol
 _atom_site_label
 _atom_site_symmetry_multiplicity
 _atom_site_fract_x
 _atom_site_fract_y
 _atom_site_fract_z
 _atom_site_fract_occupancy
 Pr  Pr1  1  0.50000  0.50000  0.50000  1
 Rb  Rb1  1  0.00000  0.00000  0.00000  1
 Se  Se1  1  0.23513  0.23513  0.23513  1
 Se  Se2  1  0.76487  0.76487  0.76487  1
