CIF file written using JARVIS-Tools package.
data_Ta2CoO6
_symmetry_space_group_name_H-M  'P4_2/mnm'
_cell_length_a       4.78094
_cell_length_b       4.78094
_cell_length_c       9.13598
_cell_angle_alpha    90
_cell_angle_beta     90
_cell_angle_gamma    90

_symmetry_Int_Tables_number  136
_chemical_formula_structural  Ta2CoO6
_chemical_formula_sum  Ta4Co2O2
_cell_volume  208.8241876420313
_cell_formula_units_Z  2
loop_
  _symmetry_equiv_pos_site_id
 _symmetry_equiv_pos_as_xyz
 1  'x, y, z'
loop_
 _atom_site_type_symbol
 _atom_site_label
 _atom_site_symmetry_multiplicity
 _atom_site_fract_x
 _atom_site_fract_y
 _atom_site_fract_z
 _atom_site_fract_occupancy
 Co  Co1  1  0.50000  0.50000  0.50000  1
 Co  Co2  1  0.00000  0.00000  0.00000  1
 O  O1  1  0.20451  0.79549  0.82576  1
 O  O2  1  0.29549  0.29549  0.67424  1
 O  O3  1  0.70451  0.70451  0.32576  1
 O  O4  1  0.20451  0.79549  0.17424  1
 O  O5  1  0.79549  0.20451  0.17424  1
 O  O6  1  0.79549  0.20451  0.82576  1
 O  O7  1  0.30840  0.30840  0.00000  1
 O  O8  1  0.80840  0.19160  0.50000  1
 O  O9  1  0.19160  0.80840  0.50000  1
 O  O10  1  0.29549  0.29549  0.32576  1
 O  O11  1  0.69160  0.69160  0.00000  1
 O  O12  1  0.70451  0.70451  0.67424  1
 Ta  Ta1  1  0.50000  0.50000  0.16971  1
 Ta  Ta2  1  0.00000  0.00000  0.33029  1
 Ta  Ta3  1  0.50000  0.50000  0.83029  1
 Ta  Ta4  1  0.00000  0.00000  0.66971  1
