CIF file written using JARVIS-Tools package.
data_BeGaCo
_symmetry_space_group_name_H-M  'P3m1'
_cell_length_a       2.64349
_cell_length_b       2.64349
_cell_length_c       5.76326
_cell_angle_alpha    90
_cell_angle_beta     90
_cell_angle_gamma    120

_symmetry_Int_Tables_number  156
_chemical_formula_structural  BeGaCo
_chemical_formula_sum  BeGaCo
_cell_volume  34.87810219418093
_cell_formula_units_Z  1
loop_
  _symmetry_equiv_pos_site_id
 _symmetry_equiv_pos_as_xyz
 1  'x, y, z'
loop_
 _atom_site_type_symbol
 _atom_site_label
 _atom_site_symmetry_multiplicity
 _atom_site_fract_x
 _atom_site_fract_y
 _atom_site_fract_z
 _atom_site_fract_occupancy
 Be  Be1  1  0.00000  0.00000  0.02994  1
 Co  Co1  1  0.66667  0.33333  0.31191  1
 Ga  Ga1  1  0.33333  0.66667  0.65815  1
