CIF file written using JARVIS-Tools package.
data_LiUAsO6
_symmetry_space_group_name_H-M  'P-1'
_cell_length_a       5.06298
_cell_length_b       5.38777
_cell_length_c       10.1082
_cell_angle_alpha    89.4836
_cell_angle_beta     97.2965
_cell_angle_gamma    104.964

_symmetry_Int_Tables_number  2
_chemical_formula_structural  LiUAsO6
_chemical_formula_sum  Li2U2As2O2
_cell_volume  264.1438865042744
_cell_formula_units_Z  2
loop_
  _symmetry_equiv_pos_site_id
 _symmetry_equiv_pos_as_xyz
 1  'x, y, z'
loop_
 _atom_site_type_symbol
 _atom_site_label
 _atom_site_symmetry_multiplicity
 _atom_site_fract_x
 _atom_site_fract_y
 _atom_site_fract_z
 _atom_site_fract_occupancy
 As  As1  1  0.41177  0.01575  0.74132  1
 As  As2  1  0.58823  0.98425  0.25868  1
 Li  Li1  1  0.95389  0.56165  0.22665  1
 Li  Li2  1  0.04611  0.43835  0.77335  1
 O  O1  1  0.17632  0.49759  0.39322  1
 O  O2  1  0.23592  0.31056  0.97233  1
 O  O3  1  0.82368  0.50241  0.60678  1
 O  O4  1  0.71957  0.74378  0.33035  1
 O  O5  1  0.72612  0.14182  0.83595  1
 O  O6  1  0.28043  0.25622  0.66965  1
 O  O7  1  0.27388  0.85818  0.16405  1
 O  O8  1  0.81682  0.17529  0.16303  1
 O  O9  1  0.53813  0.17299  0.38201  1
 O  O10  1  0.18318  0.82471  0.83697  1
 O  O11  1  0.46187  0.82701  0.61799  1
 O  O12  1  0.76408  0.68944  0.02767  1
 U  U1  1  0.00000  0.00000  0.00000  1
 U  U2  1  0.50000  0.50000  0.50000  1
