CIF file written using JARVIS-Tools package.
data_YScBe
_symmetry_space_group_name_H-M  'I4mm'
_cell_length_a       6.22478
_cell_length_b       6.22478
_cell_length_c       6.22478
_cell_angle_alpha    149.032
_cell_angle_beta     149.032
_cell_angle_gamma    44.3641

_symmetry_Int_Tables_number  107
_chemical_formula_structural  YScBe
_chemical_formula_sum  YScBe
_cell_volume  63.67352166547993
_cell_formula_units_Z  1
loop_
  _symmetry_equiv_pos_site_id
 _symmetry_equiv_pos_as_xyz
 1  'x, y, z'
loop_
 _atom_site_type_symbol
 _atom_site_label
 _atom_site_symmetry_multiplicity
 _atom_site_fract_x
 _atom_site_fract_y
 _atom_site_fract_z
 _atom_site_fract_occupancy
 Be  Be1  1  0.98656  0.98656  0.00000  1
 Sc  Sc1  1  0.37014  0.37014  0.00000  1
 Y  Y1  1  0.64330  0.64330  -0.00000  1
