CIF file written using JARVIS-Tools package.
data_La2MgNi2
_symmetry_space_group_name_H-M  'P4/mbm'
_cell_length_a       3.90996
_cell_length_b       7.63548
_cell_length_c       7.63548
_cell_angle_alpha    90
_cell_angle_beta     90
_cell_angle_gamma    90

_symmetry_Int_Tables_number  127
_chemical_formula_structural  La2MgNi2
_chemical_formula_sum  La4Mg2Ni4
_cell_volume  227.95230486975768
_cell_formula_units_Z  2
loop_
  _symmetry_equiv_pos_site_id
 _symmetry_equiv_pos_as_xyz
 1  'x, y, z'
loop_
 _atom_site_type_symbol
 _atom_site_label
 _atom_site_symmetry_multiplicity
 _atom_site_fract_x
 _atom_site_fract_y
 _atom_site_fract_z
 _atom_site_fract_occupancy
 La  La1  1  0.50000  0.82763  0.32763  1
 La  La2  1  0.50000  0.67237  0.82763  1
 La  La3  1  0.50000  0.32763  0.17237  1
 La  La4  1  0.50000  0.17237  0.67237  1
 Mg  Mg1  1  0.00000  0.50000  0.50000  1
 Mg  Mg2  1  0.00000  0.00000  0.00000  1
 Ni  Ni1  1  0.00000  0.62292  0.12292  1
 Ni  Ni2  1  0.00000  0.87708  0.62292  1
 Ni  Ni3  1  0.00000  0.37708  0.87708  1
 Ni  Ni4  1  0.00000  0.12292  0.37708  1
