CIF file written using JARVIS-Tools package.
data_PtN4Cl2O
_symmetry_space_group_name_H-M  'P4/mmm'
_cell_length_a       3.0415
_cell_length_b       5.74775
_cell_length_c       5.74775
_cell_angle_alpha    90
_cell_angle_beta     90
_cell_angle_gamma    90

_symmetry_Int_Tables_number  123
_chemical_formula_structural  PtN4Cl2O
_chemical_formula_sum  PtN4Cl2O
_cell_volume  100.4807590688016
_cell_formula_units_Z  1
loop_
  _symmetry_equiv_pos_site_id
 _symmetry_equiv_pos_as_xyz
 1  'x, y, z'
loop_
 _atom_site_type_symbol
 _atom_site_label
 _atom_site_symmetry_multiplicity
 _atom_site_fract_x
 _atom_site_fract_y
 _atom_site_fract_z
 _atom_site_fract_occupancy
 Cl  Cl1  1  0.50000  0.00000  0.50000  1
 Cl  Cl2  1  0.50000  0.50000  0.00000  1
 N  N1  1  0.00000  0.23902  0.23902  1
 N  N2  1  0.00000  0.76098  0.76098  1
 N  N3  1  0.00000  0.76098  0.23902  1
 N  N4  1  0.00000  0.23902  0.76098  1
 O  O1  1  0.50000  0.50000  0.50000  1
 Pt  Pt1  1  0.00000  0.00000  0.00000  1
