CIF file written using JARVIS-Tools package.
data_FeOF
_symmetry_space_group_name_H-M  'Pmn2_1'
_cell_length_a       4.61046
_cell_length_b       4.6181
_cell_length_c       9.0091
_cell_angle_alpha    90
_cell_angle_beta     90
_cell_angle_gamma    90

_symmetry_Int_Tables_number  31
_chemical_formula_structural  FeOF
_chemical_formula_sum  Fe6O6F6
_cell_volume  191.81765056522812
_cell_formula_units_Z  6
loop_
  _symmetry_equiv_pos_site_id
 _symmetry_equiv_pos_as_xyz
 1  'x, y, z'
loop_
 _atom_site_type_symbol
 _atom_site_label
 _atom_site_symmetry_multiplicity
 _atom_site_fract_x
 _atom_site_fract_y
 _atom_site_fract_z
 _atom_site_fract_occupancy
 F  F1  1  0.78659  0.47508  0.66236  1
 F  F2  1  0.71436  0.99199  0.50000  1
 F  F3  1  0.28659  0.52492  0.83764  1
 F  F4  1  0.28659  0.52492  0.16236  1
 F  F5  1  0.21436  0.00801  0.00000  1
 F  F6  1  0.78659  0.47508  0.33764  1
 Fe  Fe1  1  0.98210  0.21661  0.16476  1
 Fe  Fe2  1  0.48210  0.78339  0.66476  1
 Fe  Fe3  1  0.48210  0.78339  0.33524  1
 Fe  Fe4  1  0.55360  0.72517  0.00000  1
 Fe  Fe5  1  0.05360  0.27483  0.50000  1
 Fe  Fe6  1  0.98210  0.21661  0.83524  1
 O  O1  1  0.69265  0.93682  0.82703  1
 O  O2  1  0.30934  0.59332  0.50000  1
 O  O3  1  0.19265  0.06318  0.32703  1
 O  O4  1  0.19265  0.06318  0.67297  1
 O  O5  1  0.80934  0.40668  0.00000  1
 O  O6  1  0.69265  0.93682  0.17297  1
