CIF file written using JARVIS-Tools package.
data_Rb2UO4
_symmetry_space_group_name_H-M  'I4/mmm'
_cell_length_a       4.35966
_cell_length_b       4.35966
_cell_length_c       7.66578
_cell_angle_alpha    106.521
_cell_angle_beta     106.52
_cell_angle_gamma    90

_symmetry_Int_Tables_number  139
_chemical_formula_structural  Rb2UO4
_chemical_formula_sum  Rb2UO4
_cell_volume  133.40011018521895
_cell_formula_units_Z  1
loop_
  _symmetry_equiv_pos_site_id
 _symmetry_equiv_pos_as_xyz
 1  'x, y, z'
loop_
 _atom_site_type_symbol
 _atom_site_label
 _atom_site_symmetry_multiplicity
 _atom_site_fract_x
 _atom_site_fract_y
 _atom_site_fract_z
 _atom_site_fract_occupancy
 O  O1  1  0.00000  0.50000  -0.00000  1
 O  O2  1  0.50000  0.00000  -0.00000  1
 O  O3  1  0.86007  0.86007  0.72014  1
 O  O4  1  0.13993  0.13993  0.27986  1
 Rb  Rb1  1  0.34475  0.34475  0.68949  1
 Rb  Rb2  1  0.65525  0.65525  0.31051  1
 U  U1  1  0.00000  0.00000  0.00000  1
