CIF file written using JARVIS-Tools package.
data_PrAlCu
_symmetry_space_group_name_H-M  'P-62m'
_cell_length_a       7.24623
_cell_length_b       7.24623
_cell_length_c       4.17766
_cell_angle_alpha    90
_cell_angle_beta     90
_cell_angle_gamma    120.001

_symmetry_Int_Tables_number  189
_chemical_formula_structural  PrAlCu
_chemical_formula_sum  Pr3Al3Cu3
_cell_volume  189.96853721526588
_cell_formula_units_Z  3
loop_
  _symmetry_equiv_pos_site_id
 _symmetry_equiv_pos_as_xyz
 1  'x, y, z'
loop_
 _atom_site_type_symbol
 _atom_site_label
 _atom_site_symmetry_multiplicity
 _atom_site_fract_x
 _atom_site_fract_y
 _atom_site_fract_z
 _atom_site_fract_occupancy
 Al  Al1  1  0.22823  -0.00000  0.00000  1
 Al  Al2  1  -0.00000  0.22823  0.00000  1
 Al  Al3  1  0.77176  0.77176  0.00000  1
 Cu  Cu1  1  0.33333  0.66666  0.00000  1
 Cu  Cu2  1  0.66666  0.33333  0.00000  1
 Cu  Cu3  1  0.99999  0.99999  0.50000  1
 Pr  Pr1  1  0.58332  0.00002  0.50000  1
 Pr  Pr2  1  0.00002  0.58332  0.50000  1
 Pr  Pr3  1  0.41669  0.41669  0.50000  1
