CIF file written using JARVIS-Tools package.
data_ThAl
_symmetry_space_group_name_H-M  'Cmcm'
_cell_length_a       4.21505
_cell_length_b       4.4593
_cell_length_c       6.17032
_cell_angle_alpha    111.183
_cell_angle_beta     90
_cell_angle_gamma    90

_symmetry_Int_Tables_number  63
_chemical_formula_structural  ThAl
_chemical_formula_sum  Th2Al2
_cell_volume  108.14181637855233
_cell_formula_units_Z  2
loop_
  _symmetry_equiv_pos_site_id
 _symmetry_equiv_pos_as_xyz
 1  'x, y, z'
loop_
 _atom_site_type_symbol
 _atom_site_label
 _atom_site_symmetry_multiplicity
 _atom_site_fract_x
 _atom_site_fract_y
 _atom_site_fract_z
 _atom_site_fract_occupancy
 Al  Al1  1  0.75000  0.42921  0.85842  1
 Al  Al2  1  0.25000  0.57079  0.14158  1
 Th  Th1  1  0.75000  0.14549  0.29098  1
 Th  Th2  1  0.25000  0.85451  0.70902  1
