CIF file written using JARVIS-Tools package.
data_DyCrB4
_symmetry_space_group_name_H-M  'Pbam'
_cell_length_a       3.46328
_cell_length_b       5.91705
_cell_length_c       11.4347
_cell_angle_alpha    90
_cell_angle_beta     90
_cell_angle_gamma    90

_symmetry_Int_Tables_number  55
_chemical_formula_structural  DyCrB4
_chemical_formula_sum  Dy4Cr4B6
_cell_volume  234.3240114751788
_cell_formula_units_Z  4
loop_
  _symmetry_equiv_pos_site_id
 _symmetry_equiv_pos_as_xyz
 1  'x, y, z'
loop_
 _atom_site_type_symbol
 _atom_site_label
 _atom_site_symmetry_multiplicity
 _atom_site_fract_x
 _atom_site_fract_y
 _atom_site_fract_z
 _atom_site_fract_occupancy
 B  B1  1  0.50000  0.11323  0.45322  1
 B  B2  1  0.50000  0.28011  0.68390  1
 B  B3  1  0.50000  0.71989  0.31610  1
 B  B4  1  0.50000  0.21989  0.18390  1
 B  B5  1  0.50000  0.02520  0.30844  1
 B  B6  1  0.50000  0.36254  0.53250  1
 B  B7  1  0.50000  0.63746  0.46750  1
 B  B8  1  0.50000  0.78011  0.81610  1
 B  B9  1  0.50000  0.86254  0.96750  1
 B  B10  1  0.50000  0.38677  0.95322  1
 B  B11  1  0.50000  0.61323  0.04678  1
 B  B12  1  0.50000  0.97480  0.69156  1
 B  B13  1  0.50000  0.88677  0.54678  1
 B  B14  1  0.50000  0.47480  0.80844  1
 B  B15  1  0.50000  0.52520  0.19156  1
 B  B16  1  0.50000  0.13746  0.03250  1
 Cr  Cr1  1  0.00000  0.62155  0.92089  1
 Cr  Cr2  1  0.00000  0.37845  0.07911  1
 Cr  Cr3  1  0.00000  0.87845  0.42089  1
 Cr  Cr4  1  0.00000  0.12155  0.57911  1
 Dy  Dy1  1  0.00000  0.62410  0.65072  1
 Dy  Dy2  1  0.00000  0.37590  0.34928  1
 Dy  Dy3  1  0.00000  0.87590  0.15072  1
 Dy  Dy4  1  0.00000  0.12410  0.84928  1
