CIF file written using JARVIS-Tools package.
data_Mn3O2F4
_symmetry_space_group_name_H-M  'P1'
_cell_length_a       4.65902
_cell_length_b       5.71822
_cell_length_c       7.86994
_cell_angle_alpha    87.1829
_cell_angle_beta     88.2553
_cell_angle_gamma    87.9358

_symmetry_Int_Tables_number  1
_chemical_formula_structural  Mn3O2F4
_chemical_formula_sum  Mn6O4F8
_cell_volume  209.18972967892583
_cell_formula_units_Z  2
loop_
  _symmetry_equiv_pos_site_id
 _symmetry_equiv_pos_as_xyz
 1  'x, y, z'
loop_
 _atom_site_type_symbol
 _atom_site_label
 _atom_site_symmetry_multiplicity
 _atom_site_fract_x
 _atom_site_fract_y
 _atom_site_fract_z
 _atom_site_fract_occupancy
 F  F1  1  0.20607  0.29366  0.91049  1
 F  F2  1  0.28812  0.80531  0.88749  1
 F  F3  1  0.71040  0.85400  0.42613  1
 F  F4  1  0.69867  0.19083  0.12285  1
 F  F5  1  0.79018  0.05021  0.77250  1
 F  F6  1  0.79737  0.35615  0.43914  1
 F  F7  1  0.20888  0.97289  0.23605  1
 F  F8  1  0.19394  0.62502  0.54337  1
 Mn  Mn1  1  0.52903  0.51122  0.00106  1
 Mn  Mn2  1  0.98505  0.98894  0.00713  1
 Mn  Mn3  1  0.00275  0.64828  0.30723  1
 Mn  Mn4  1  0.00470  0.33893  0.67457  1
 Mn  Mn5  1  0.45781  0.19169  0.35183  1
 Mn  Mn6  1  0.50431  0.82969  0.66007  1
 O  O1  1  0.70109  0.54646  0.76821  1
 O  O2  1  0.31009  0.47237  0.22040  1
 O  O3  1  0.29890  0.12355  0.57298  1
 O  O4  1  0.81262  0.70077  0.09850  1
