CIF file written using JARVIS-Tools package.
data_PrSiO4
_symmetry_space_group_name_H-M  'I4_1/amd'
_cell_length_a       6.06411
_cell_length_b       6.06411
_cell_length_c       6.06411
_cell_angle_alpha    106.609
_cell_angle_beta     106.609
_cell_angle_gamma    115.361

_symmetry_Int_Tables_number  141
_chemical_formula_structural  PrSiO4
_chemical_formula_sum  Pr2Si2O8
_cell_volume  170.2897462581511
_cell_formula_units_Z  2
loop_
  _symmetry_equiv_pos_site_id
 _symmetry_equiv_pos_as_xyz
 1  'x, y, z'
loop_
 _atom_site_type_symbol
 _atom_site_label
 _atom_site_symmetry_multiplicity
 _atom_site_fract_x
 _atom_site_fract_y
 _atom_site_fract_z
 _atom_site_fract_occupancy
 O  O1  1  0.78510  0.35920  0.07410  1
 O  O2  1  0.28900  0.21490  0.07410  1
 O  O3  1  0.64080  0.21490  0.42590  1
 O  O4  1  0.78510  0.71100  0.42590  1
 O  O5  1  0.21490  0.28900  0.57410  1
 O  O6  1  0.71100  0.78510  0.92590  1
 O  O7  1  0.35920  0.78510  0.57410  1
 O  O8  1  0.21490  0.64080  0.92590  1
 Pr  Pr1  1  0.87500  0.12500  0.75000  1
 Pr  Pr2  1  0.12500  0.87500  0.25000  1
 Si  Si1  1  0.62500  0.37500  0.25000  1
 Si  Si2  1  0.37500  0.62500  0.75000  1
