CIF file written using JARVIS-Tools package.
data_KBi2F7
_symmetry_space_group_name_H-M  'P1'
_cell_length_a       3.79367
_cell_length_b       4.44222
_cell_length_c       10.2773
_cell_angle_alpha    95.4622
_cell_angle_beta     96.9126
_cell_angle_gamma    63.6911

_symmetry_Int_Tables_number  1
_chemical_formula_structural  KBi2F7
_chemical_formula_sum  KBi2F7
_cell_volume  153.95676779190032
_cell_formula_units_Z  1
loop_
  _symmetry_equiv_pos_site_id
 _symmetry_equiv_pos_as_xyz
 1  'x, y, z'
loop_
 _atom_site_type_symbol
 _atom_site_label
 _atom_site_symmetry_multiplicity
 _atom_site_fract_x
 _atom_site_fract_y
 _atom_site_fract_z
 _atom_site_fract_occupancy
 Bi  Bi1  1  0.93951  0.12357  0.98089  1
 Bi  Bi2  1  0.51043  0.18094  0.34897  1
 F  F1  1  0.29576  0.33462  0.88055  1
 F  F2  1  -0.04818  -0.03361  0.77001  1
 F  F3  1  0.11150  0.97057  0.24375  1
 F  F4  1  0.18053  0.08892  0.50969  1
 F  F5  1  0.83065  0.61947  0.36598  1
 F  F6  1  0.64025  0.71705  0.98773  1
 F  F7  1  0.38619  0.31834  0.13740  1
 K  K1  1  0.63002  0.58480  0.67970  1
