CIF file written using JARVIS-Tools package.
data_Li3AlB2O6
_symmetry_space_group_name_H-M  'P-1'
_cell_length_a       4.90573
_cell_length_b       6.15777
_cell_length_c       7.88576
_cell_angle_alpha    75.0254
_cell_angle_beta     89.4554
_cell_angle_gamma    89.6354

_symmetry_Int_Tables_number  2
_chemical_formula_structural  Li3AlB2O6
_chemical_formula_sum  Li6Al2B4O2
_cell_volume  230.11387244095798
_cell_formula_units_Z  2
loop_
  _symmetry_equiv_pos_site_id
 _symmetry_equiv_pos_as_xyz
 1  'x, y, z'
loop_
 _atom_site_type_symbol
 _atom_site_label
 _atom_site_symmetry_multiplicity
 _atom_site_fract_x
 _atom_site_fract_y
 _atom_site_fract_z
 _atom_site_fract_occupancy
 Al  Al1  1  0.34941  0.94818  0.22840  1
 Al  Al2  1  0.65059  0.05182  0.77160  1
 B  B1  1  0.83510  0.82745  0.41153  1
 B  B2  1  0.16490  0.17255  0.58847  1
 B  B3  1  0.34031  0.32268  0.92919  1
 B  B4  1  0.65969  0.67732  0.07081  1
 Li  Li1  1  0.67982  0.39493  0.42806  1
 Li  Li2  1  0.83168  0.23668  0.11136  1
 Li  Li3  1  0.82465  0.53034  0.76164  1
 Li  Li4  1  0.17535  0.46966  0.23836  1
 Li  Li5  1  0.32018  0.60507  0.57194  1
 Li  Li6  1  0.16832  0.76332  0.88864  1
 O  O1  1  0.38848  0.74006  0.10401  1
 O  O2  1  0.20773  0.49069  0.81728  1
 O  O3  1  0.79227  0.50931  0.18272  1
 O  O4  1  0.70596  0.66499  0.53384  1
 O  O5  1  0.29404  0.33501  0.46616  1
 O  O6  1  0.88029  0.16362  0.60086  1
 O  O7  1  0.22435  0.20687  0.09083  1
 O  O8  1  0.77565  0.79313  0.90917  1
 O  O9  1  0.31011  0.01305  0.71576  1
 O  O10  1  0.61152  0.25994  0.89599  1
 O  O11  1  0.11971  0.83638  0.39914  1
 O  O12  1  0.68989  -0.01305  0.28424  1
