CIF file written using JARVIS-Tools package.
data_BaCoSO
_symmetry_space_group_name_H-M  'Cmcm'
_cell_length_a       3.95387
_cell_length_b       6.10785
_cell_length_c       6.64268
_cell_angle_alpha    90
_cell_angle_beta     107.314
_cell_angle_gamma    90

_symmetry_Int_Tables_number  63
_chemical_formula_structural  BaCoSO
_chemical_formula_sum  Ba2Co2S2O2
_cell_volume  153.14940848308888
_cell_formula_units_Z  2
loop_
  _symmetry_equiv_pos_site_id
 _symmetry_equiv_pos_as_xyz
 1  'x, y, z'
loop_
 _atom_site_type_symbol
 _atom_site_label
 _atom_site_symmetry_multiplicity
 _atom_site_fract_x
 _atom_site_fract_y
 _atom_site_fract_z
 _atom_site_fract_occupancy
 Ba  Ba1  1  0.61507  0.75000  0.23015  1
 Ba  Ba2  1  0.38493  0.25000  0.76985  1
 Co  Co1  1  0.90744  0.75000  0.81488  1
 Co  Co2  1  0.09256  0.25000  0.18512  1
 O  O1  1  0.00000  0.50000  0.00000  1
 O  O2  1  0.00000  0.00000  0.00000  1
 S  S1  1  0.31442  0.75000  0.62883  1
 S  S2  1  0.68558  0.25000  0.37117  1
