CIF file written using JARVIS-Tools package.
data_YbAlB4
_symmetry_space_group_name_H-M  'Cmmm'
_cell_length_a       5.99918
_cell_length_b       5.99918
_cell_length_c       3.4689
_cell_angle_alpha    90
_cell_angle_beta     90
_cell_angle_gamma    104.034

_symmetry_Int_Tables_number  65
_chemical_formula_structural  YbAlB4
_chemical_formula_sum  Yb2Al2B8
_cell_volume  121.11997344691653
_cell_formula_units_Z  2
loop_
  _symmetry_equiv_pos_site_id
 _symmetry_equiv_pos_as_xyz
 1  'x, y, z'
loop_
 _atom_site_type_symbol
 _atom_site_label
 _atom_site_symmetry_multiplicity
 _atom_site_fract_x
 _atom_site_fract_y
 _atom_site_fract_z
 _atom_site_fract_occupancy
 Al  Al1  1  0.81513  0.81513  0.00000  1
 Al  Al2  1  0.18487  0.18487  0.00000  1
 B  B1  1  0.93735  0.61878  0.50000  1
 B  B2  1  0.06265  0.38122  0.50000  1
 B  B3  1  0.38122  0.06265  0.50000  1
 B  B4  1  0.61878  0.93735  0.50000  1
 B  B5  1  0.37937  0.37937  0.50000  1
 B  B6  1  0.62063  0.62063  0.50000  1
 B  B7  1  0.09193  0.90807  0.50000  1
 B  B8  1  0.90807  0.09193  0.50000  1
 Yb  Yb1  1  0.30022  0.69978  0.00000  1
 Yb  Yb2  1  0.69978  0.30022  0.00000  1
