CIF file written using JARVIS-Tools package.
data_BaPbF6
_symmetry_space_group_name_H-M  'R-3m'
_cell_length_a       5.10222
_cell_length_b       5.10223
_cell_length_c       5.10222
_cell_angle_alpha    97.1977
_cell_angle_beta     97.1977
_cell_angle_gamma    97.1977

_symmetry_Int_Tables_number  166
_chemical_formula_structural  BaPbF6
_chemical_formula_sum  BaPbF6
_cell_volume  129.3914227903714
_cell_formula_units_Z  1
loop_
  _symmetry_equiv_pos_site_id
 _symmetry_equiv_pos_as_xyz
 1  'x, y, z'
loop_
 _atom_site_type_symbol
 _atom_site_label
 _atom_site_symmetry_multiplicity
 _atom_site_fract_x
 _atom_site_fract_y
 _atom_site_fract_z
 _atom_site_fract_occupancy
 Ba  Ba1  1  0.50000  0.50000  0.50000  1
 F  F1  1  0.70212  0.70212  0.06753  1
 F  F2  1  0.70212  0.06753  0.70212  1
 F  F3  1  0.29788  0.93247  0.29788  1
 F  F4  1  0.29788  0.29788  0.93247  1
 F  F5  1  0.93247  0.29788  0.29788  1
 F  F6  1  0.06753  0.70212  0.70212  1
 Pb  Pb1  1  0.00000  0.00000  0.00000  1
