CIF file written using JARVIS-Tools package.
data_SrCu2B2O6
_symmetry_space_group_name_H-M  'I-42m'
_cell_length_a       7.2389
_cell_length_b       7.2389
_cell_length_c       7.2389
_cell_angle_alpha    102.128
_cell_angle_beta     102.128
_cell_angle_gamma    125.438

_symmetry_Int_Tables_number  121
_chemical_formula_structural  SrCu2B2O6
_chemical_formula_sum  Sr2Cu4B4O2
_cell_volume  274.680388528508
_cell_formula_units_Z  2
loop_
  _symmetry_equiv_pos_site_id
 _symmetry_equiv_pos_as_xyz
 1  'x, y, z'
loop_
 _atom_site_type_symbol
 _atom_site_label
 _atom_site_symmetry_multiplicity
 _atom_site_fract_x
 _atom_site_fract_y
 _atom_site_fract_z
 _atom_site_fract_occupancy
 B  B1  1  0.95021  0.54225  0.00000  1
 B  B2  1  0.45775  0.45775  0.40796  1
 B  B3  1  0.54225  0.95021  -0.00000  1
 B  B4  1  0.04979  0.04979  0.59204  1
 Cu  Cu1  1  0.85324  0.85324  0.22816  1
 Cu  Cu2  1  0.62507  0.62507  0.77184  1
 Cu  Cu3  1  0.14676  0.37493  -0.00000  1
 Cu  Cu4  1  0.37493  0.14676  0.00000  1
 O  O1  1  0.83178  0.63546  0.00000  1
 O  O2  1  0.39869  0.92382  0.81874  1
 O  O3  1  0.42006  0.60131  0.52513  1
 O  O4  1  0.07618  0.89492  0.47487  1
 O  O5  1  0.89492  0.07618  0.47487  1
 O  O6  1  0.60131  0.42006  0.52513  1
 O  O7  1  0.36454  0.36454  0.19633  1
 O  O8  1  0.92382  0.39869  0.81874  1
 O  O9  1  0.16822  0.16822  0.80367  1
 O  O10  1  0.63546  0.83178  -0.00000  1
 O  O11  1  0.10508  0.57994  0.18126  1
 O  O12  1  0.57994  0.10508  0.18126  1
 Sr  Sr1  1  0.00000  0.50000  0.50000  1
 Sr  Sr2  1  0.50000  0.00000  0.50000  1
