CIF file written using JARVIS-Tools package.
data_EuH3O3
_symmetry_space_group_name_H-M  'P6_3/m'
_cell_length_a       6.3409
_cell_length_b       6.34265
_cell_length_c       3.627
_cell_angle_alpha    90
_cell_angle_beta     90
_cell_angle_gamma    120.004

_symmetry_Int_Tables_number  176
_chemical_formula_structural  EuH3O3
_chemical_formula_sum  Eu2H6O6
_cell_volume  126.32326358818759
_cell_formula_units_Z  2
loop_
  _symmetry_equiv_pos_site_id
 _symmetry_equiv_pos_as_xyz
 1  'x, y, z'
loop_
 _atom_site_type_symbol
 _atom_site_label
 _atom_site_symmetry_multiplicity
 _atom_site_fract_x
 _atom_site_fract_y
 _atom_site_fract_z
 _atom_site_fract_occupancy
 Eu  Eu1  1  0.33336  0.66673  0.25000  1
 Eu  Eu2  1  0.66664  0.33327  0.75000  1
 H  H1  1  0.86249  0.72668  0.25000  1
 H  H2  1  0.86431  0.13743  0.25000  1
 H  H3  1  0.27296  0.13580  0.25000  1
 H  H4  1  0.13751  0.27332  0.75000  1
 H  H5  1  0.13569  0.86257  0.75000  1
 H  H6  1  0.72704  0.86420  0.75000  1
 O  O1  1  0.91738  0.60772  0.25000  1
 O  O2  1  0.69043  0.08257  0.25000  1
 O  O3  1  0.39211  0.30960  0.25000  1
 O  O4  1  0.08262  0.39228  0.75000  1
 O  O5  1  0.30957  0.91743  0.75000  1
 O  O6  1  0.60789  0.69040  0.75000  1
