CIF file written using JARVIS-Tools package.
data_KZn4P3
_symmetry_space_group_name_H-M  'R-3m'
_cell_length_a       4.0596
_cell_length_b       4.0596
_cell_length_c       11.7026
_cell_angle_alpha    80.0116
_cell_angle_beta     80.0116
_cell_angle_gamma    60

_symmetry_Int_Tables_number  166
_chemical_formula_structural  KZn4P3
_chemical_formula_sum  KZn4P3
_cell_volume  163.64062081847956
_cell_formula_units_Z  1
loop_
  _symmetry_equiv_pos_site_id
 _symmetry_equiv_pos_as_xyz
 1  'x, y, z'
loop_
 _atom_site_type_symbol
 _atom_site_label
 _atom_site_symmetry_multiplicity
 _atom_site_fract_x
 _atom_site_fract_y
 _atom_site_fract_z
 _atom_site_fract_occupancy
 K  K1  1  0.50000  0.50000  0.50000  1
 P  P1  1  0.23374  0.23374  0.29879  1
 P  P2  1  0.76626  0.76626  0.70121  1
 P  P3  1  0.00000  0.00000  0.00000  1
 Zn  Zn1  1  0.30314  0.30314  0.09059  1
 Zn  Zn2  1  0.69686  0.69686  0.90941  1
 Zn  Zn3  1  0.08778  0.08778  0.73667  1
 Zn  Zn4  1  0.91222  0.91222  0.26333  1
