CIF file written using JARVIS-Tools package.
data_BeCrSi
_symmetry_space_group_name_H-M  'I4mm'
_cell_length_a       5.84612
_cell_length_b       5.84612
_cell_length_c       5.84612
_cell_angle_alpha    155.756
_cell_angle_beta     155.756
_cell_angle_gamma    34.5516

_symmetry_Int_Tables_number  107
_chemical_formula_structural  BeCrSi
_chemical_formula_sum  BeCrSi
_cell_volume  33.65224374264226
_cell_formula_units_Z  1
loop_
  _symmetry_equiv_pos_site_id
 _symmetry_equiv_pos_as_xyz
 1  'x, y, z'
loop_
 _atom_site_type_symbol
 _atom_site_label
 _atom_site_symmetry_multiplicity
 _atom_site_fract_x
 _atom_site_fract_y
 _atom_site_fract_z
 _atom_site_fract_occupancy
 Be  Be1  1  0.99393  0.99393  -0.00000  1
 Cr  Cr1  1  0.33954  0.33954  0.00000  1
 Si  Si1  1  0.66653  0.66653  0.00000  1
