CIF file written using JARVIS-Tools package.
data_Eu2O3
_symmetry_space_group_name_H-M  'C2/m'
_cell_length_a       3.58564
_cell_length_b       7.3202
_cell_length_c       8.81294
_cell_angle_alpha    99.6787
_cell_angle_beta     90
_cell_angle_gamma    104.177

_symmetry_Int_Tables_number  12
_chemical_formula_structural  Eu2O3
_chemical_formula_sum  Eu6O9
_cell_volume  220.87582218559973
_cell_formula_units_Z  3
loop_
  _symmetry_equiv_pos_site_id
 _symmetry_equiv_pos_as_xyz
 1  'x, y, z'
loop_
 _atom_site_type_symbol
 _atom_site_label
 _atom_site_symmetry_multiplicity
 _atom_site_fract_x
 _atom_site_fract_y
 _atom_site_fract_z
 _atom_site_fract_occupancy
 Eu  Eu1  1  0.30961  0.61921  0.86238  1
 Eu  Eu2  1  0.36509  0.73019  0.51229  1
 Eu  Eu3  1  0.03344  0.06688  0.81249  1
 Eu  Eu4  1  0.69039  0.38079  0.13762  1
 Eu  Eu5  1  0.96656  0.93312  0.18751  1
 Eu  Eu6  1  0.63491  0.26981  0.48771  1
 O  O1  1  0.79546  0.59092  0.37476  1
 O  O2  1  0.20454  0.40908  0.62524  1
 O  O3  1  0.87141  0.74282  0.71601  1
 O  O4  1  0.50000  0.00000  0.00000  1
 O  O5  1  0.52753  0.05506  0.65588  1
 O  O6  1  0.47247  0.94494  0.34412  1
 O  O7  1  0.12859  0.25718  0.28399  1
 O  O8  1  0.82493  0.64986  0.02879  1
 O  O9  1  0.17507  0.35014  0.97121  1
