CIF file written using JARVIS-Tools package.
data_BaF2
_symmetry_space_group_name_H-M  'P6_3/mmc'
_cell_length_a       4.45061
_cell_length_b       7.70742
_cell_length_c       6.00759
_cell_angle_alpha    90
_cell_angle_beta     90
_cell_angle_gamma    90

_symmetry_Int_Tables_number  194
_chemical_formula_structural  BaF2
_chemical_formula_sum  Ba4F8
_cell_volume  206.07683006821108
_cell_formula_units_Z  4
loop_
  _symmetry_equiv_pos_site_id
 _symmetry_equiv_pos_as_xyz
 1  'x, y, z'
loop_
 _atom_site_type_symbol
 _atom_site_label
 _atom_site_symmetry_multiplicity
 _atom_site_fract_x
 _atom_site_fract_y
 _atom_site_fract_z
 _atom_site_fract_occupancy
 Ba  Ba1  1  0.50000  0.16670  0.75000  1
 Ba  Ba2  1  0.00000  0.33330  0.25000  1
 Ba  Ba3  1  0.00000  0.66670  0.75000  1
 Ba  Ba4  1  0.50000  0.83330  0.25000  1
 F  F1  1  0.50000  0.50000  0.50000  1
 F  F2  1  0.50000  0.50000  0.00000  1
 F  F3  1  0.00000  0.33334  0.75000  1
 F  F4  1  0.50000  0.16666  0.25000  1
 F  F5  1  0.00000  0.00000  0.50000  1
 F  F6  1  0.00000  0.00000  0.00000  1
 F  F7  1  0.50000  0.83334  0.75000  1
 F  F8  1  0.00000  0.66666  0.25000  1
