CIF file written using JARVIS-Tools package.
data_YCrO4
_symmetry_space_group_name_H-M  'I4_1/a'
_cell_length_a       5.03395
_cell_length_b       5.03395
_cell_length_c       6.66368
_cell_angle_alpha    112.192
_cell_angle_beta     112.192
_cell_angle_gamma    90

_symmetry_Int_Tables_number  88
_chemical_formula_structural  YCrO4
_chemical_formula_sum  Y2Cr2O8
_cell_volume  142.75226343802638
_cell_formula_units_Z  2
loop_
  _symmetry_equiv_pos_site_id
 _symmetry_equiv_pos_as_xyz
 1  'x, y, z'
loop_
 _atom_site_type_symbol
 _atom_site_label
 _atom_site_symmetry_multiplicity
 _atom_site_fract_x
 _atom_site_fract_y
 _atom_site_fract_z
 _atom_site_fract_occupancy
 Cr  Cr1  1  0.87500  0.62500  0.75000  1
 Cr  Cr2  1  0.12500  0.37500  0.25000  1
 O  O1  1  0.06072  0.19650  0.40699  1
 O  O2  1  0.69650  0.84627  0.90699  1
 O  O3  1  0.34627  0.71049  0.40699  1
 O  O4  1  0.21049  0.56072  0.90699  1
 O  O5  1  0.78951  0.43928  0.09301  1
 O  O6  1  0.30350  0.15373  0.09301  1
 O  O7  1  0.93928  0.80350  0.59301  1
 O  O8  1  0.65373  0.28951  0.59301  1
 Y  Y1  1  0.37500  0.12500  0.75000  1
 Y  Y2  1  0.62500  0.87500  0.25000  1
