CIF file written using JARVIS-Tools package.
data_Er2CN2O2
_symmetry_space_group_name_H-M  'P-3m1'
_cell_length_a       3.66671
_cell_length_b       3.66672
_cell_length_c       8.16253
_cell_angle_alpha    90
_cell_angle_beta     90
_cell_angle_gamma    120

_symmetry_Int_Tables_number  164
_chemical_formula_structural  Er2CN2O2
_chemical_formula_sum  Er2CN2O2
_cell_volume  95.04064254519672
_cell_formula_units_Z  1
loop_
  _symmetry_equiv_pos_site_id
 _symmetry_equiv_pos_as_xyz
 1  'x, y, z'
loop_
 _atom_site_type_symbol
 _atom_site_label
 _atom_site_symmetry_multiplicity
 _atom_site_fract_x
 _atom_site_fract_y
 _atom_site_fract_z
 _atom_site_fract_occupancy
 C  C1  1  0.00000  0.00000  0.50000  1
 Er  Er1  1  0.66667  0.33333  0.82343  1
 Er  Er2  1  0.33333  0.66667  0.17657  1
 N  N1  1  0.00000  0.00000  0.65110  1
 N  N2  1  0.00000  0.00000  0.34890  1
 O  O1  1  0.33333  0.66667  0.89766  1
 O  O2  1  0.66667  0.33333  0.10234  1
