CIF file written using JARVIS-Tools package.
data_LaCN2Cl
_symmetry_space_group_name_H-M  'P2_1/m'
_cell_length_a       4.01972
_cell_length_b       5.36253
_cell_length_c       7.56743
_cell_angle_alpha    100.742
_cell_angle_beta     90
_cell_angle_gamma    90

_symmetry_Int_Tables_number  11
_chemical_formula_structural  LaCN2Cl
_chemical_formula_sum  La2C2N4Cl2
_cell_volume  160.26393854966574
_cell_formula_units_Z  2
loop_
  _symmetry_equiv_pos_site_id
 _symmetry_equiv_pos_as_xyz
 1  'x, y, z'
loop_
 _atom_site_type_symbol
 _atom_site_label
 _atom_site_symmetry_multiplicity
 _atom_site_fract_x
 _atom_site_fract_y
 _atom_site_fract_z
 _atom_site_fract_occupancy
 C  C1  1  0.75000  0.34795  0.35890  1
 C  C2  1  0.25000  0.65205  0.64110  1
 Cl  Cl1  1  0.75000  0.74404  0.95618  1
 Cl  Cl2  1  0.25000  0.25596  0.04382  1
 La  La1  1  0.75000  0.17559  0.73709  1
 La  La2  1  0.25000  0.82441  0.26291  1
 N  N1  1  0.25000  0.43116  0.65936  1
 N  N2  1  0.25000  0.87640  0.61897  1
 N  N3  1  0.75000  0.12360  0.38103  1
 N  N4  1  0.75000  0.56884  0.34064  1
