CIF file written using JARVIS-Tools package.
data_LiVP3O9
_symmetry_space_group_name_H-M  'R3'
_cell_length_a       6.30627
_cell_length_b       6.30627
_cell_length_c       6.30626
_cell_angle_alpha    107.49
_cell_angle_beta     107.49
_cell_angle_gamma    107.49

_symmetry_Int_Tables_number  146
_chemical_formula_structural  LiVP3O9
_chemical_formula_sum  LiVP3O9
_cell_volume  206.00729338282255
_cell_formula_units_Z  1
loop_
  _symmetry_equiv_pos_site_id
 _symmetry_equiv_pos_as_xyz
 1  'x, y, z'
loop_
 _atom_site_type_symbol
 _atom_site_label
 _atom_site_symmetry_multiplicity
 _atom_site_fract_x
 _atom_site_fract_y
 _atom_site_fract_z
 _atom_site_fract_occupancy
 Li  Li1  1  0.37084  0.37084  0.37084  1
 O  O1  1  0.26985  0.87294  0.63947  1
 O  O2  1  0.08783  0.38241  0.13179  1
 O  O3  1  0.63442  0.89991  0.96430  1
 O  O4  1  0.89991  0.96430  0.63442  1
 O  O5  1  0.13179  0.08783  0.38241  1
 O  O6  1  0.87294  0.63947  0.26985  1
 O  O7  1  0.38241  0.13179  0.08783  1
 O  O8  1  0.96430  0.63442  0.89991  1
 O  O9  1  0.63947  0.26985  0.87294  1
 P  P1  1  0.03849  0.91239  0.48607  1
 P  P2  1  0.91239  0.48607  0.03849  1
 P  P3  1  0.48607  0.03849  0.91239  1
 V  V1  1  0.99530  0.99530  0.99530  1
