CIF file written using JARVIS-Tools package.
data_B3Mo
_symmetry_space_group_name_H-M  'R-3m'
_cell_length_a       4.35733
_cell_length_b       4.35733
_cell_length_c       4.35733
_cell_angle_alpha    73.5188
_cell_angle_beta     73.5188
_cell_angle_gamma    73.5188

_symmetry_Int_Tables_number  166
_chemical_formula_structural  B3Mo
_chemical_formula_sum  B6Mo2
_cell_volume  74.19040017031206
_cell_formula_units_Z  2
loop_
  _symmetry_equiv_pos_site_id
 _symmetry_equiv_pos_as_xyz
 1  'x, y, z'
loop_
 _atom_site_type_symbol
 _atom_site_label
 _atom_site_symmetry_multiplicity
 _atom_site_fract_x
 _atom_site_fract_y
 _atom_site_fract_z
 _atom_site_fract_occupancy
 B  B1  1  0.66512  0.33488  -0.00000  1
 B  B2  1  0.33488  -0.00000  0.66512  1
 B  B3  1  0.00000  0.66512  0.33488  1
 B  B4  1  0.66512  0.00000  0.33488  1
 B  B5  1  -0.00000  0.33488  0.66512  1
 B  B6  1  0.33488  0.66512  -0.00000  1
 Mo  Mo1  1  0.83501  0.83501  0.83501  1
 Mo  Mo2  1  0.16499  0.16499  0.16499  1
