CIF file written using JARVIS-Tools package.
data_K2H6PbO6
_symmetry_space_group_name_H-M  'R-3'
_cell_length_a       5.73262
_cell_length_b       5.73262
_cell_length_c       5.73262
_cell_angle_alpha    71.6049
_cell_angle_beta     71.6049
_cell_angle_gamma    71.6049

_symmetry_Int_Tables_number  148
_chemical_formula_structural  K2H6PbO6
_chemical_formula_sum  K2H6PbO6
_cell_volume  164.67799313125727
_cell_formula_units_Z  1
loop_
  _symmetry_equiv_pos_site_id
 _symmetry_equiv_pos_as_xyz
 1  'x, y, z'
loop_
 _atom_site_type_symbol
 _atom_site_label
 _atom_site_symmetry_multiplicity
 _atom_site_fract_x
 _atom_site_fract_y
 _atom_site_fract_z
 _atom_site_fract_occupancy
 H  H1  1  0.63272  0.19524  0.74737  1
 H  H2  1  0.19524  0.74737  0.63272  1
 H  H3  1  0.74737  0.63272  0.19524  1
 H  H4  1  0.36728  0.80476  0.25263  1
 H  H5  1  0.80476  0.25263  0.36728  1
 H  H6  1  0.25263  0.36728  0.80476  1
 K  K1  1  0.70952  0.70952  0.70952  1
 K  K2  1  0.29048  0.29048  0.29048  1
 O  O1  1  0.81325  0.20758  0.68434  1
 O  O2  1  0.20758  0.68434  0.81325  1
 O  O3  1  0.68434  0.81325  0.20758  1
 O  O4  1  0.18675  0.79242  0.31566  1
 O  O5  1  0.79242  0.31566  0.18675  1
 O  O6  1  0.31566  0.18675  0.79242  1
 Pb  Pb1  1  0.00000  0.00000  0.00000  1
