CIF file written using JARVIS-Tools package.
data_SrZn2
_symmetry_space_group_name_H-M  'P6_3/mmc'
_cell_length_a       5.88423
_cell_length_b       5.88423
_cell_length_c       9.06232
_cell_angle_alpha    90
_cell_angle_beta     90
_cell_angle_gamma    120

_symmetry_Int_Tables_number  194
_chemical_formula_structural  SrZn2
_chemical_formula_sum  Sr4Zn8
_cell_volume  271.73727072437566
_cell_formula_units_Z  4
loop_
  _symmetry_equiv_pos_site_id
 _symmetry_equiv_pos_as_xyz
 1  'x, y, z'
loop_
 _atom_site_type_symbol
 _atom_site_label
 _atom_site_symmetry_multiplicity
 _atom_site_fract_x
 _atom_site_fract_y
 _atom_site_fract_z
 _atom_site_fract_occupancy
 Sr  Sr1  1  0.33333  0.66667  0.44611  1
 Sr  Sr2  1  0.66667  0.33333  0.94611  1
 Sr  Sr3  1  0.66667  0.33333  0.55389  1
 Sr  Sr4  1  0.33333  0.66667  0.05389  1
 Zn  Zn1  1  0.15932  0.31864  0.75000  1
 Zn  Zn2  1  0.84068  0.15932  0.25000  1
 Zn  Zn3  1  0.31864  0.15932  0.25000  1
 Zn  Zn4  1  0.68136  0.84068  0.75000  1
 Zn  Zn5  1  0.00000  0.00000  0.00000  1
 Zn  Zn6  1  0.00000  0.00000  0.50000  1
 Zn  Zn7  1  0.84068  0.68136  0.25000  1
 Zn  Zn8  1  0.15932  0.84068  0.75000  1
