CIF file written using JARVIS-Tools package.
data_CeAl3
_symmetry_space_group_name_H-M  'P6_3/mmc'
_cell_length_a       6.44485
_cell_length_b       6.44485
_cell_length_c       4.61798
_cell_angle_alpha    90
_cell_angle_beta     90
_cell_angle_gamma    120.002

_symmetry_Int_Tables_number  194
_chemical_formula_structural  CeAl3
_chemical_formula_sum  Ce2Al6
_cell_volume  166.1116658240552
_cell_formula_units_Z  2
loop_
  _symmetry_equiv_pos_site_id
 _symmetry_equiv_pos_as_xyz
 1  'x, y, z'
loop_
 _atom_site_type_symbol
 _atom_site_label
 _atom_site_symmetry_multiplicity
 _atom_site_fract_x
 _atom_site_fract_y
 _atom_site_fract_z
 _atom_site_fract_occupancy
 Al  Al1  1  0.85503  0.71004  0.25000  1
 Al  Al2  1  0.28996  0.14497  0.25000  1
 Al  Al3  1  0.85501  0.14499  0.25000  1
 Al  Al4  1  0.14497  0.28996  0.75000  1
 Al  Al5  1  0.71004  0.85503  0.75000  1
 Al  Al6  1  0.14499  0.85501  0.75000  1
 Ce  Ce1  1  0.33334  0.66666  0.25000  1
 Ce  Ce2  1  0.66666  0.33334  0.75000  1
