CIF file written using JARVIS-Tools package.
data_Na2MnO3
_symmetry_space_group_name_H-M  'Fddd'
_cell_length_a       5.3897
_cell_length_b       5.38976
_cell_length_c       9.52828
_cell_angle_alpha    101.285
_cell_angle_beta     101.282
_cell_angle_gamma    107.95

_symmetry_Int_Tables_number  70
_chemical_formula_structural  Na2MnO3
_chemical_formula_sum  Na8Mn4O2
_cell_volume  248.31924283476843
_cell_formula_units_Z  4
loop_
  _symmetry_equiv_pos_site_id
 _symmetry_equiv_pos_as_xyz
 1  'x, y, z'
loop_
 _atom_site_type_symbol
 _atom_site_label
 _atom_site_symmetry_multiplicity
 _atom_site_fract_x
 _atom_site_fract_y
 _atom_site_fract_z
 _atom_site_fract_occupancy
 Mn  Mn1  1  0.33361  0.83435  0.66805  1
 Mn  Mn2  1  0.91520  0.91594  0.83124  1
 Mn  Mn3  1  0.08360  0.08432  0.16805  1
 Mn  Mn4  1  0.16521  0.66592  0.33124  1
 Na  Na1  1  0.50530  0.00601  0.01147  1
 Na  Na2  1  0.57690  0.57755  0.15459  1
 Na  Na3  1  0.99350  0.49422  0.98782  1
 Na  Na4  1  0.74349  0.74420  0.48783  1
 Na  Na5  1  0.25535  0.25606  0.51147  1
 Na  Na6  1  0.82691  0.32759  0.65459  1
 Na  Na7  1  0.42195  0.42267  0.84470  1
 Na  Na8  1  0.67195  0.17261  0.34470  1
 O  O1  1  0.29559  0.84457  0.18605  1
 O  O2  1  0.35918  0.40816  0.31324  1
 O  O3  1  0.95323  0.90567  0.31324  1
 O  O4  1  0.05342  0.55414  0.49965  1
 O  O5  1  0.44540  0.94612  0.49964  1
 O  O6  1  0.59137  0.64038  0.68606  1
 O  O7  1  0.15494  0.70396  0.81324  1
 O  O8  1  0.65744  0.10992  0.81324  1
 O  O9  1  0.80342  0.80414  0.99965  1
 O  O10  1  0.88963  0.34208  0.18606  1
 O  O11  1  0.09386  0.04633  0.68605  1
 O  O12  1  0.19540  0.19612  0.99964  1
