CIF file written using JARVIS-Tools package.
data_LiMn2O2F3
_symmetry_space_group_name_H-M  'C2/m'
_cell_length_a       3.77093
_cell_length_b       5.16624
_cell_length_c       10.3886
_cell_angle_alpha    92.0961
_cell_angle_beta     90.001
_cell_angle_gamma    111.403

_symmetry_Int_Tables_number  12
_chemical_formula_structural  LiMn2O2F3
_chemical_formula_sum  Li2Mn4O4F6
_cell_volume  188.28150960639599
_cell_formula_units_Z  2
loop_
  _symmetry_equiv_pos_site_id
 _symmetry_equiv_pos_as_xyz
 1  'x, y, z'
loop_
 _atom_site_type_symbol
 _atom_site_label
 _atom_site_symmetry_multiplicity
 _atom_site_fract_x
 _atom_site_fract_y
 _atom_site_fract_z
 _atom_site_fract_occupancy
 F  F1  1  0.03378  0.07022  0.87846  1
 F  F2  1  0.69671  0.39597  0.08453  1
 F  F3  1  0.23549  0.47356  0.27760  1
 F  F4  1  0.76375  0.53008  0.72179  1
 F  F5  1  0.30254  0.60765  0.91486  1
 F  F6  1  0.96558  0.93342  0.12093  1
 Li  Li1  1  0.13589  0.27436  0.04315  1
 Li  Li2  1  0.86337  0.72926  0.95623  1
 Mn  Mn1  1  0.13932  0.28125  0.45212  1
 Mn  Mn2  1  0.17889  0.36032  0.75627  1
 Mn  Mn3  1  0.82036  0.64332  0.24312  1
 Mn  Mn4  1  0.85989  0.72239  0.54727  1
 O  O1  1  0.04855  0.09966  0.61077  1
 O  O2  1  0.68020  0.36301  0.44250  1
 O  O3  1  0.31901  0.64063  0.55690  1
 O  O4  1  0.95068  0.90398  0.38862  1
