CIF file written using JARVIS-Tools package.
data_Al5BO9
_symmetry_space_group_name_H-M  'Cmc2_1'
_cell_length_a       8.08381
_cell_length_b       8.08381
_cell_length_c       7.76104
_cell_angle_alpha    90
_cell_angle_beta     90
_cell_angle_gamma    138.5

_symmetry_Int_Tables_number  36
_chemical_formula_structural  Al5BO9
_chemical_formula_sum  Al0B2O8
_cell_volume  336.0578897369909
_cell_formula_units_Z  2
loop_
  _symmetry_equiv_pos_site_id
 _symmetry_equiv_pos_as_xyz
 1  'x, y, z'
loop_
 _atom_site_type_symbol
 _atom_site_label
 _atom_site_symmetry_multiplicity
 _atom_site_fract_x
 _atom_site_fract_y
 _atom_site_fract_z
 _atom_site_fract_occupancy
 Al  Al1  1  0.36748  0.13589  0.66762  1
 Al  Al2  1  0.63252  0.86411  0.16762  1
 Al  Al3  1  0.13589  0.36748  0.16762  1
 Al  Al4  1  0.86411  0.63252  0.66762  1
 Al  Al5  1  0.70294  0.29706  0.33351  1
 Al  Al6  1  0.25528  0.74472  0.48141  1
 Al  Al7  1  0.44386  0.55614  0.48327  1
 Al  Al8  1  0.55614  0.44386  0.98327  1
 Al  Al9  1  0.29706  0.70294  0.83351  1
 Al  Al10  1  0.74472  0.25528  0.98141  1
 B  B1  1  0.01551  0.98449  0.94567  1
 B  B2  1  0.98449  0.01551  0.44567  1
 O  O1  1  0.45453  0.54547  0.09531  1
 O  O2  1  0.33045  0.66955  0.29832  1
 O  O3  1  0.66955  0.33045  0.79832  1
 O  O4  1  0.16220  0.25772  0.38136  1
 O  O5  1  0.55330  0.93282  0.96690  1
 O  O6  1  0.06718  0.44670  0.96690  1
 O  O7  1  0.93282  0.55330  0.46690  1
 O  O8  1  0.44670  0.06718  0.46690  1
 O  O9  1  0.25772  0.16220  0.88136  1
 O  O10  1  0.35187  0.64813  0.62932  1
 O  O11  1  0.64813  0.35187  0.12932  1
 O  O12  1  0.19101  0.80899  0.73198  1
 O  O13  1  0.80899  0.19101  0.23198  1
 O  O14  1  0.54547  0.45453  0.59531  1
 O  O15  1  0.74228  0.83780  0.38136  1
 O  O16  1  0.95396  0.04604  0.07424  1
 O  O17  1  0.04604  0.95396  0.57424  1
 O  O18  1  0.83780  0.74228  0.88136  1
