CIF file written using JARVIS-Tools package.
data_Li4Ti3V3O12
_symmetry_space_group_name_H-M  'P-1'
_cell_length_a       5.0786
_cell_length_b       5.96737
_cell_length_c       7.80357
_cell_angle_alpha    78.1991
_cell_angle_beta     77.1896
_cell_angle_gamma    73.0999

_symmetry_Int_Tables_number  2
_chemical_formula_structural  Li4Ti3V3O12
_chemical_formula_sum  Li4Ti3V3O2
_cell_volume  218.14838081338405
_cell_formula_units_Z  1
loop_
  _symmetry_equiv_pos_site_id
 _symmetry_equiv_pos_as_xyz
 1  'x, y, z'
loop_
 _atom_site_type_symbol
 _atom_site_label
 _atom_site_symmetry_multiplicity
 _atom_site_fract_x
 _atom_site_fract_y
 _atom_site_fract_z
 _atom_site_fract_occupancy
 Li  Li1  1  0.50184  0.66519  0.33441  1
 Li  Li2  1  0.49816  0.33481  0.66559  1
 Li  Li3  1  0.99282  0.83453  0.16601  1
 Li  Li4  1  0.00718  0.16547  0.83399  1
 O  O1  1  0.74250  0.18710  0.09373  1
 O  O2  1  0.26730  0.14247  0.57961  1
 O  O3  1  0.73270  0.85753  0.42039  1
 O  O4  1  0.73558  0.51089  0.76111  1
 O  O5  1  0.75767  0.99162  0.73874  1
 O  O6  1  0.25437  0.68827  0.59162  1
 O  O7  1  0.76071  0.64103  0.07827  1
 O  O8  1  0.74563  0.31173  0.40838  1
 O  O9  1  0.26442  0.48911  0.23889  1
 O  O10  1  0.24233  0.00838  0.26126  1
 O  O11  1  0.25750  0.81290  0.90627  1
 O  O12  1  0.23929  0.35897  0.92173  1
 Ti  Ti1  1  0.48356  0.17045  0.33289  1
 Ti  Ti2  1  0.50000  0.50000  -0.00000  1
 Ti  Ti3  1  0.51644  0.82955  0.66711  1
 V  V1  1  0.00527  0.32918  0.17102  1
 V  V2  1  0.99473  0.67082  0.82898  1
 V  V3  1  0.00000  -0.00000  0.50000  1
