CIF file written using JARVIS-Tools package.
data_Sr2Be2Cr
_symmetry_space_group_name_H-M  'I4/mmm'
_cell_length_a       5.55786
_cell_length_b       5.55786
_cell_length_c       5.55786
_cell_angle_alpha    115.666
_cell_angle_beta     115.666
_cell_angle_gamma    97.6864

_symmetry_Int_Tables_number  139
_chemical_formula_structural  Sr2Be2Cr
_chemical_formula_sum  Sr2Be2Cr
_cell_volume  128.0993232564369
_cell_formula_units_Z  1
loop_
  _symmetry_equiv_pos_site_id
 _symmetry_equiv_pos_as_xyz
 1  'x, y, z'
loop_
 _atom_site_type_symbol
 _atom_site_label
 _atom_site_symmetry_multiplicity
 _atom_site_fract_x
 _atom_site_fract_y
 _atom_site_fract_z
 _atom_site_fract_occupancy
 Be  Be1  1  0.63966  0.63966  0.00000  1
 Be  Be2  1  0.36034  0.36034  -0.00000  1
 Cr  Cr1  1  0.00000  0.00000  0.00000  1
 Sr  Sr1  1  0.75000  0.25000  0.50000  1
 Sr  Sr2  1  0.25000  0.75000  0.50000  1
