CIF file written using JARVIS-Tools package.
data_Fe5SiB2
_symmetry_space_group_name_H-M  'I4/mcm'
_cell_length_a       6.44397
_cell_length_b       6.44397
_cell_length_c       6.44397
_cell_angle_alpha    129.429
_cell_angle_beta     129.429
_cell_angle_gamma    74.3204

_symmetry_Int_Tables_number  140
_chemical_formula_structural  Fe5SiB2
_chemical_formula_sum  Fe0Si2B4
_cell_volume  155.61804238181398
_cell_formula_units_Z  2
loop_
  _symmetry_equiv_pos_site_id
 _symmetry_equiv_pos_as_xyz
 1  'x, y, z'
loop_
 _atom_site_type_symbol
 _atom_site_label
 _atom_site_symmetry_multiplicity
 _atom_site_fract_x
 _atom_site_fract_y
 _atom_site_fract_z
 _atom_site_fract_occupancy
 B  B1  1  0.38038  0.11962  0.50000  1
 B  B2  1  0.61962  0.88038  0.50000  1
 B  B3  1  0.11962  0.61962  0.73923  1
 B  B4  1  0.88038  0.38038  0.26077  1
 Fe  Fe1  1  0.00000  0.00000  0.00000  1
 Fe  Fe2  1  0.50000  0.50000  0.00000  1
 Fe  Fe3  1  0.30451  0.46745  0.50000  1
 Fe  Fe4  1  0.96745  0.80451  0.50000  1
 Fe  Fe5  1  0.46745  0.96745  0.16294  1
 Fe  Fe6  1  0.80451  0.30451  0.83706  1
 Fe  Fe7  1  0.19549  0.69549  0.16294  1
 Fe  Fe8  1  0.53255  0.03255  0.83706  1
 Fe  Fe9  1  0.03255  0.19549  0.50000  1
 Fe  Fe10  1  0.69549  0.53255  0.50000  1
 Si  Si1  1  0.25000  0.25000  0.00000  1
 Si  Si2  1  0.75000  0.75000  0.00000  1
