CIF file written using JARVIS-Tools package.
data_TaMnGe
_symmetry_space_group_name_H-M  'P-62m'
_cell_length_a       3.56147
_cell_length_b       6.49634
_cell_length_c       6.49623
_cell_angle_alpha    120.001
_cell_angle_beta     90
_cell_angle_gamma    90

_symmetry_Int_Tables_number  189
_chemical_formula_structural  TaMnGe
_chemical_formula_sum  Ta3Mn3Ge3
_cell_volume  130.16289514723366
_cell_formula_units_Z  3
loop_
  _symmetry_equiv_pos_site_id
 _symmetry_equiv_pos_as_xyz
 1  'x, y, z'
loop_
 _atom_site_type_symbol
 _atom_site_label
 _atom_site_symmetry_multiplicity
 _atom_site_fract_x
 _atom_site_fract_y
 _atom_site_fract_z
 _atom_site_fract_occupancy
 Ge  Ge1  1  0.00000  0.33333  0.66666  1
 Ge  Ge2  1  0.00000  0.66667  0.33334  1
 Ge  Ge3  1  0.50000  -0.00003  0.00000  1
 Mn  Mn1  1  0.00000  0.24774  0.00000  1
 Mn  Mn2  1  0.00000  0.75223  0.75224  1
 Mn  Mn3  1  0.00000  -0.00001  0.24776  1
 Ta  Ta1  1  0.50000  0.58766  -0.00000  1
 Ta  Ta2  1  0.50000  0.41231  0.41231  1
 Ta  Ta3  1  0.50000  0.00001  0.58769  1
