CIF file written using JARVIS-Tools package.
data_Cr3AgO8
_symmetry_space_group_name_H-M  'C2/m'
_cell_length_a       5.03998
_cell_length_b       5.03997
_cell_length_c       6.85905
_cell_angle_alpha    88.1352
_cell_angle_beta     88.1351
_cell_angle_gamma    66.6189

_symmetry_Int_Tables_number  12
_chemical_formula_structural  Cr3AgO8
_chemical_formula_sum  Cr3AgO8
_cell_volume  159.8011878729478
_cell_formula_units_Z  1
loop_
  _symmetry_equiv_pos_site_id
 _symmetry_equiv_pos_as_xyz
 1  'x, y, z'
loop_
 _atom_site_type_symbol
 _atom_site_label
 _atom_site_symmetry_multiplicity
 _atom_site_fract_x
 _atom_site_fract_y
 _atom_site_fract_z
 _atom_site_fract_occupancy
 Ag  Ag1  1  0.00000  0.00000  -0.00000  1
 Cr  Cr1  1  -0.00000  0.00000  0.50000  1
 Cr  Cr2  1  0.64649  0.64648  0.27757  1
 Cr  Cr3  1  0.35352  0.35351  0.72243  1
 O  O1  1  0.78677  0.27775  0.29695  1
 O  O2  1  0.27775  0.78677  0.29695  1
 O  O3  1  0.26029  0.26029  0.93501  1
 O  O4  1  0.22286  0.22286  0.54645  1
 O  O5  1  0.77714  0.77714  0.45355  1
 O  O6  1  0.73971  0.73971  0.06499  1
 O  O7  1  0.21323  0.72225  0.70305  1
 O  O8  1  0.72225  0.21323  0.70305  1
