CIF file written using JARVIS-Tools package.
data_CrB4
_symmetry_space_group_name_H-M  'Pnnm'
_cell_length_a       2.85785
_cell_length_b       4.74065
_cell_length_c       5.46654
_cell_angle_alpha    90
_cell_angle_beta     90
_cell_angle_gamma    90

_symmetry_Int_Tables_number  58
_chemical_formula_structural  CrB4
_chemical_formula_sum  Cr2B8
_cell_volume  74.06118353123516
_cell_formula_units_Z  2
loop_
  _symmetry_equiv_pos_site_id
 _symmetry_equiv_pos_as_xyz
 1  'x, y, z'
loop_
 _atom_site_type_symbol
 _atom_site_label
 _atom_site_symmetry_multiplicity
 _atom_site_fract_x
 _atom_site_fract_y
 _atom_site_fract_z
 _atom_site_fract_occupancy
 B  B1  1  0.00000  0.16525  0.36652  1
 B  B2  1  0.00000  0.83475  0.63348  1
 B  B3  1  0.50000  0.33475  0.86652  1
 B  B4  1  0.50000  0.66525  0.13348  1
 B  B5  1  0.00000  0.22324  0.67886  1
 B  B6  1  0.00000  0.77676  0.32114  1
 B  B7  1  0.50000  0.27676  0.17886  1
 B  B8  1  0.50000  0.72324  0.82114  1
 Cr  Cr1  1  0.00000  0.00000  0.00000  1
 Cr  Cr2  1  0.50000  0.50000  0.50000  1
