CIF file written using JARVIS-Tools package.
data_K3AlH6
_symmetry_space_group_name_H-M  'I4/mmm'
_cell_length_a       5.78863
_cell_length_b       5.78864
_cell_length_c       6.15218
_cell_angle_alpha    118.064
_cell_angle_beta     118.064
_cell_angle_gamma    90

_symmetry_Int_Tables_number  139
_chemical_formula_structural  K3AlH6
_chemical_formula_sum  K3AlH6
_cell_volume  153.90180619352125
_cell_formula_units_Z  1
loop_
  _symmetry_equiv_pos_site_id
 _symmetry_equiv_pos_as_xyz
 1  'x, y, z'
loop_
 _atom_site_type_symbol
 _atom_site_label
 _atom_site_symmetry_multiplicity
 _atom_site_fract_x
 _atom_site_fract_y
 _atom_site_fract_z
 _atom_site_fract_occupancy
 Al  Al1  1  0.00000  0.00000  0.00000  1
 H  H1  1  0.70244  0.00000  0.00000  1
 H  H2  1  0.00000  0.70244  0.00000  1
 H  H3  1  -0.00000  0.29756  -0.00000  1
 H  H4  1  0.29756  -0.00000  -0.00000  1
 H  H5  1  0.21169  0.21169  0.42338  1
 H  H6  1  0.78831  0.78831  0.57662  1
 K  K1  1  0.75000  0.25000  0.50000  1
 K  K2  1  0.25000  0.75000  0.50000  1
 K  K3  1  0.50000  0.50000  0.00000  1
