CIF file written using JARVIS-Tools package.
data_YAlGe
_symmetry_space_group_name_H-M  'Cmcm'
_cell_length_a       4.06739
_cell_length_b       5.62428
_cell_length_c       5.77979
_cell_angle_alpha    90
_cell_angle_beta     90
_cell_angle_gamma    111.198

_symmetry_Int_Tables_number  63
_chemical_formula_structural  YAlGe
_chemical_formula_sum  Y2Al2Ge2
_cell_volume  123.27288055448793
_cell_formula_units_Z  2
loop_
  _symmetry_equiv_pos_site_id
 _symmetry_equiv_pos_as_xyz
 1  'x, y, z'
loop_
 _atom_site_type_symbol
 _atom_site_label
 _atom_site_symmetry_multiplicity
 _atom_site_fract_x
 _atom_site_fract_y
 _atom_site_fract_z
 _atom_site_fract_occupancy
 Al  Al1  1  0.00000  0.00000  0.50000  1
 Al  Al2  1  0.00000  0.00000  0.00000  1
 Ge  Ge1  1  0.60874  0.21749  0.75000  1
 Ge  Ge2  1  0.39126  0.78251  0.25000  1
 Y  Y1  1  0.68779  0.37558  0.25000  1
 Y  Y2  1  0.31221  0.62442  0.75000  1
