CIF file written using JARVIS-Tools package.
data_TiBeTl
_symmetry_space_group_name_H-M  'I4mm'
_cell_length_a       5.95397
_cell_length_b       5.95397
_cell_length_c       5.95397
_cell_angle_alpha    150.588
_cell_angle_beta     150.588
_cell_angle_gamma    42.0787

_symmetry_Int_Tables_number  107
_chemical_formula_structural  TiBeTl
_chemical_formula_sum  TiBeTl
_cell_volume  50.78068513537066
_cell_formula_units_Z  1
loop_
  _symmetry_equiv_pos_site_id
 _symmetry_equiv_pos_as_xyz
 1  'x, y, z'
loop_
 _atom_site_type_symbol
 _atom_site_label
 _atom_site_symmetry_multiplicity
 _atom_site_fract_x
 _atom_site_fract_y
 _atom_site_fract_z
 _atom_site_fract_occupancy
 Be  Be1  1  0.01376  0.01376  0.00000  1
 Ti  Ti1  1  0.64075  0.64075  -0.00000  1
 Tl  Tl1  1  0.34550  0.34550  -0.00000  1
