CIF file written using JARVIS-Tools package.
data_DyVB4
_symmetry_space_group_name_H-M  'Pbam'
_cell_length_a       3.46707
_cell_length_b       5.99898
_cell_length_c       11.6097
_cell_angle_alpha    90
_cell_angle_beta     90
_cell_angle_gamma    90

_symmetry_Int_Tables_number  55
_chemical_formula_structural  DyVB4
_chemical_formula_sum  Dy4V4B6
_cell_volume  241.46885669030348
_cell_formula_units_Z  4
loop_
  _symmetry_equiv_pos_site_id
 _symmetry_equiv_pos_as_xyz
 1  'x, y, z'
loop_
 _atom_site_type_symbol
 _atom_site_label
 _atom_site_symmetry_multiplicity
 _atom_site_fract_x
 _atom_site_fract_y
 _atom_site_fract_z
 _atom_site_fract_occupancy
 B  B1  1  0.50000  0.11469  0.45262  1
 B  B2  1  0.50000  0.28590  0.68569  1
 B  B3  1  0.50000  0.71410  0.31431  1
 B  B4  1  0.50000  0.21410  0.18569  1
 B  B5  1  0.50000  0.02347  0.30784  1
 B  B6  1  0.50000  0.36420  0.53244  1
 B  B7  1  0.50000  0.63580  0.46756  1
 B  B8  1  0.50000  0.78590  0.81431  1
 B  B9  1  0.50000  0.86420  0.96756  1
 B  B10  1  0.50000  0.38531  0.95262  1
 B  B11  1  0.50000  0.61469  0.04738  1
 B  B12  1  0.50000  0.97653  0.69216  1
 B  B13  1  0.50000  0.88531  0.54738  1
 B  B14  1  0.50000  0.47653  0.80784  1
 B  B15  1  0.50000  0.52347  0.19216  1
 B  B16  1  0.50000  0.13580  0.03244  1
 Dy  Dy1  1  0.00000  0.62375  0.65144  1
 Dy  Dy2  1  0.00000  0.37625  0.34856  1
 Dy  Dy3  1  0.00000  0.87625  0.15144  1
 Dy  Dy4  1  0.00000  0.12375  0.84856  1
 V  V1  1  0.00000  0.62672  0.91728  1
 V  V2  1  0.00000  0.37328  0.08272  1
 V  V3  1  0.00000  0.87328  0.41728  1
 V  V4  1  0.00000  0.12672  0.58272  1
