CIF file written using JARVIS-Tools package.
data_FeTeAs
_symmetry_space_group_name_H-M  'P2_1/c'
_cell_length_a       6.26408
_cell_length_b       6.14487
_cell_length_c       6.29235
_cell_angle_alpha    90
_cell_angle_beta     114.404
_cell_angle_gamma    90

_symmetry_Int_Tables_number  14
_chemical_formula_structural  FeTeAs
_chemical_formula_sum  Fe4Te4As4
_cell_volume  220.5647429803858
_cell_formula_units_Z  4
loop_
  _symmetry_equiv_pos_site_id
 _symmetry_equiv_pos_as_xyz
 1  'x, y, z'
loop_
 _atom_site_type_symbol
 _atom_site_label
 _atom_site_symmetry_multiplicity
 _atom_site_fract_x
 _atom_site_fract_y
 _atom_site_fract_z
 _atom_site_fract_occupancy
 As  As1  1  0.35767  0.65020  0.16065  1
 As  As2  1  0.64233  0.15020  0.33935  1
 As  As3  1  0.64233  0.34980  0.83935  1
 As  As4  1  0.35767  0.84980  0.66065  1
 Fe  Fe1  1  0.28506  0.99084  0.29171  1
 Fe  Fe2  1  0.71494  0.49084  0.20829  1
 Fe  Fe3  1  0.71494  0.00916  0.70829  1
 Fe  Fe4  1  0.28506  0.50916  0.79171  1
 Te  Te1  1  0.15254  0.36999  0.36542  1
 Te  Te2  1  0.84746  0.86999  0.13458  1
 Te  Te3  1  0.84746  0.63001  0.63458  1
 Te  Te4  1  0.15254  0.13001  0.86542  1
