CIF file written using JARVIS-Tools package.
data_Cd2OsC6N6
_symmetry_space_group_name_H-M  'P-31m'
_cell_length_a       6.38125
_cell_length_b       6.38126
_cell_length_c       6.67665
_cell_angle_alpha    90
_cell_angle_beta     90
_cell_angle_gamma    120

_symmetry_Int_Tables_number  162
_chemical_formula_structural  Cd2OsC6N6
_chemical_formula_sum  Cd2OsC6N6
_cell_volume  235.45115483348127
_cell_formula_units_Z  1
loop_
  _symmetry_equiv_pos_site_id
 _symmetry_equiv_pos_as_xyz
 1  'x, y, z'
loop_
 _atom_site_type_symbol
 _atom_site_label
 _atom_site_symmetry_multiplicity
 _atom_site_fract_x
 _atom_site_fract_y
 _atom_site_fract_z
 _atom_site_fract_occupancy
 C  C1  1  0.99996  0.74863  0.81627  1
 C  C2  1  0.25137  0.25133  0.81627  1
 C  C3  1  0.74867  0.00004  0.81627  1
 C  C4  1  0.25133  0.99996  0.18373  1
 C  C5  1  0.74863  0.74867  0.18373  1
 C  C6  1  0.00004  0.25137  0.18373  1
 Cd  Cd1  1  0.33333  0.66667  0.50007  1
 Cd  Cd2  1  0.66667  0.33333  0.49993  1
 N  N1  1  0.61204  0.61208  0.30335  1
 N  N2  1  0.00005  0.38796  0.30335  1
 N  N3  1  0.61208  0.00005  0.69665  1
 N  N4  1  0.38792  0.99995  0.30335  1
 N  N5  1  0.99995  0.61204  0.69665  1
 N  N6  1  0.38796  0.38792  0.69665  1
 Os  Os1  1  0.00000  0.00000  0.00000  1
