CIF file written using JARVIS-Tools package.
data_Li3VF6
_symmetry_space_group_name_H-M  'P2_1/c'
_cell_length_a       5.05678
_cell_length_b       5.1383
_cell_length_c       9.19783
_cell_angle_alpha    90
_cell_angle_beta     123.574
_cell_angle_gamma    90

_symmetry_Int_Tables_number  14
_chemical_formula_structural  Li3VF6
_chemical_formula_sum  Li6V2F2
_cell_volume  199.1192226730988
_cell_formula_units_Z  2
loop_
  _symmetry_equiv_pos_site_id
 _symmetry_equiv_pos_as_xyz
 1  'x, y, z'
loop_
 _atom_site_type_symbol
 _atom_site_label
 _atom_site_symmetry_multiplicity
 _atom_site_fract_x
 _atom_site_fract_y
 _atom_site_fract_z
 _atom_site_fract_occupancy
 F  F1  1  0.73092  0.82381  0.05958  1
 F  F2  1  0.36879  0.90532  0.23462  1
 F  F3  1  0.92307  0.31760  0.08511  1
 F  F4  1  0.73092  0.67619  0.55958  1
 F  F5  1  0.26908  0.17619  0.94042  1
 F  F6  1  0.07693  0.68240  0.91489  1
 F  F7  1  0.63121  0.40532  0.26538  1
 F  F8  1  0.36879  0.59468  0.73462  1
 F  F9  1  0.07693  0.81760  0.41489  1
 F  F10  1  0.63121  0.09468  0.76538  1
 F  F11  1  0.26908  0.32381  0.44042  1
 F  F12  1  0.92307  0.18240  0.58511  1
 Li  Li1  1  0.73253  0.46789  0.73724  1
 Li  Li2  1  0.26747  0.96789  0.76276  1
 Li  Li3  1  0.50000  0.50000  -0.00000  1
 Li  Li4  1  0.73253  0.03211  0.23724  1
 Li  Li5  1  0.26747  0.53211  0.26276  1
 Li  Li6  1  0.50000  0.00000  0.50000  1
 V  V1  1  0.00000  0.50000  0.50000  1
 V  V2  1  0.00000  0.00000  0.00000  1
