CIF file written using JARVIS-Tools package.
data_FeSe
_symmetry_space_group_name_H-M  'P6_3/mmc'
_cell_length_a       3.81347
_cell_length_b       5.05845
_cell_length_c       6.60461
_cell_angle_alpha    90
_cell_angle_beta     90
_cell_angle_gamma    90

_symmetry_Int_Tables_number  194
_chemical_formula_structural  FeSe
_chemical_formula_sum  Fe4Se4
_cell_volume  127.40463388166798
_cell_formula_units_Z  4
loop_
  _symmetry_equiv_pos_site_id
 _symmetry_equiv_pos_as_xyz
 1  'x, y, z'
loop_
 _atom_site_type_symbol
 _atom_site_label
 _atom_site_symmetry_multiplicity
 _atom_site_fract_x
 _atom_site_fract_y
 _atom_site_fract_z
 _atom_site_fract_occupancy
 Fe  Fe1  1  0.75000  0.49996  0.74999  1
 Fe  Fe2  1  0.75000  0.99996  0.75001  1
 Fe  Fe3  1  0.25000  0.50004  0.25001  1
 Fe  Fe4  1  0.25000  0.00004  0.24999  1
 Se  Se1  1  0.75000  0.25000  0.08335  1
 Se  Se2  1  0.75000  0.75000  0.41665  1
 Se  Se3  1  0.25000  0.75000  0.91665  1
 Se  Se4  1  0.25000  0.25000  0.58335  1
