CIF file written using JARVIS-Tools package.
data_Li2AgF3
_symmetry_space_group_name_H-M  'Pnma'
_cell_length_a       2.93169
_cell_length_b       7.41425
_cell_length_c       12.3578
_cell_angle_alpha    90
_cell_angle_beta     90
_cell_angle_gamma    90

_symmetry_Int_Tables_number  62
_chemical_formula_structural  Li2AgF3
_chemical_formula_sum  Li8Ag4F2
_cell_volume  268.611373396157
_cell_formula_units_Z  4
loop_
  _symmetry_equiv_pos_site_id
 _symmetry_equiv_pos_as_xyz
 1  'x, y, z'
loop_
 _atom_site_type_symbol
 _atom_site_label
 _atom_site_symmetry_multiplicity
 _atom_site_fract_x
 _atom_site_fract_y
 _atom_site_fract_z
 _atom_site_fract_occupancy
 Ag  Ag1  1  0.75000  0.82586  0.73680  1
 Ag  Ag2  1  0.25000  0.17414  0.26320  1
 Ag  Ag3  1  0.75000  0.67414  0.23680  1
 Ag  Ag4  1  0.25000  0.32586  0.76320  1
 F  F1  1  0.25000  0.85762  0.34866  1
 F  F2  1  0.75000  0.53074  0.40554  1
 F  F3  1  0.25000  0.15895  0.45265  1
 F  F4  1  0.75000  0.84105  0.54735  1
 F  F5  1  0.25000  0.46926  0.59446  1
 F  F6  1  0.75000  0.14238  0.65134  1
 F  F7  1  0.25000  0.64238  0.84866  1
 F  F8  1  0.75000  0.96926  0.90554  1
 F  F9  1  0.25000  0.34105  0.95265  1
 F  F10  1  0.75000  0.65895  0.04735  1
 F  F11  1  0.75000  0.35762  0.15134  1
 F  F12  1  0.25000  0.03074  0.09446  1
 Li  Li1  1  0.75000  0.14577  0.02068  1
 Li  Li2  1  0.25000  0.46942  0.08339  1
 Li  Li3  1  0.75000  0.96942  0.41661  1
 Li  Li4  1  0.25000  0.64577  0.47932  1
 Li  Li5  1  0.75000  0.35423  0.52068  1
 Li  Li6  1  0.25000  0.03058  0.58339  1
 Li  Li7  1  0.75000  0.53058  0.91661  1
 Li  Li8  1  0.25000  0.85423  0.97932  1
