CIF file written using JARVIS-Tools package.
data_LiAuF4
_symmetry_space_group_name_H-M  'C2/c'
_cell_length_a       4.87155
_cell_length_b       6.39075
_cell_length_c       10.0238
_cell_angle_alpha    90
_cell_angle_beta     93.1585
_cell_angle_gamma    90

_symmetry_Int_Tables_number  15
_chemical_formula_structural  LiAuF4
_chemical_formula_sum  Li4Au4F6
_cell_volume  311.59463320653913
_cell_formula_units_Z  4
loop_
  _symmetry_equiv_pos_site_id
 _symmetry_equiv_pos_as_xyz
 1  'x, y, z'
loop_
 _atom_site_type_symbol
 _atom_site_label
 _atom_site_symmetry_multiplicity
 _atom_site_fract_x
 _atom_site_fract_y
 _atom_site_fract_z
 _atom_site_fract_occupancy
 Au  Au1  1  0.50000  0.00000  0.00000  1
 Au  Au2  1  0.50000  0.00000  0.50000  1
 Au  Au3  1  0.00000  0.50000  0.00000  1
 Au  Au4  1  0.00000  0.50000  0.50000  1
 F  F1  1  0.20207  0.90407  0.87554  1
 F  F2  1  0.18207  0.35091  0.85888  1
 F  F3  1  0.81793  0.35091  0.64112  1
 F  F4  1  0.81793  0.64909  0.14112  1
 F  F5  1  0.29803  0.40406  0.12439  1
 F  F6  1  0.31789  0.85084  0.14108  1
 F  F7  1  0.68211  0.85084  0.35892  1
 F  F8  1  0.18207  0.64909  0.35888  1
 F  F9  1  0.31789  0.14916  0.64108  1
 F  F10  1  0.70197  0.40406  0.37561  1
 F  F11  1  0.20207  0.09593  0.37554  1
 F  F12  1  0.68211  0.14916  0.85892  1
 F  F13  1  0.79793  0.90407  0.62446  1
 F  F14  1  0.70197  0.59594  0.87561  1
 F  F15  1  0.29803  0.59594  0.62439  1
 F  F16  1  0.79793  0.09593  0.12446  1
 Li  Li1  1  0.50000  0.58868  0.25000  1
 Li  Li2  1  0.50000  0.41132  0.75000  1
 Li  Li3  1  0.00000  0.91126  0.25000  1
 Li  Li4  1  0.00000  0.08874  0.75000  1
