CIF file written using JARVIS-Tools package.
data_CaGe2
_symmetry_space_group_name_H-M  'R-3m'
_cell_length_a       4.04499
_cell_length_b       4.04499
_cell_length_c       10.3078
_cell_angle_alpha    78.6846
_cell_angle_beta     78.6846
_cell_angle_gamma    60.0002

_symmetry_Int_Tables_number  166
_chemical_formula_structural  CaGe2
_chemical_formula_sum  Ca2Ge4
_cell_volume  142.26262182440232
_cell_formula_units_Z  2
loop_
  _symmetry_equiv_pos_site_id
 _symmetry_equiv_pos_as_xyz
 1  'x, y, z'
loop_
 _atom_site_type_symbol
 _atom_site_label
 _atom_site_symmetry_multiplicity
 _atom_site_fract_x
 _atom_site_fract_y
 _atom_site_fract_z
 _atom_site_fract_occupancy
 Ca  Ca1  1  0.08054  0.08054  0.75838  1
 Ca  Ca2  1  0.91946  0.91946  0.24162  1
 Ge  Ge1  1  0.18558  0.18558  0.44328  1
 Ge  Ge2  1  0.81442  0.81442  0.55672  1
 Ge  Ge3  1  0.35096  0.35096  0.94711  1
 Ge  Ge4  1  0.64904  0.64904  0.05289  1
