CIF file written using JARVIS-Tools package.
data_FeB
_symmetry_space_group_name_H-M  'Pnma'
_cell_length_a       2.94614
_cell_length_b       3.9959
_cell_length_c       5.42169
_cell_angle_alpha    90
_cell_angle_beta     90
_cell_angle_gamma    90

_symmetry_Int_Tables_number  62
_chemical_formula_structural  FeB
_chemical_formula_sum  Fe4B4
_cell_volume  63.826892061161324
_cell_formula_units_Z  4
loop_
  _symmetry_equiv_pos_site_id
 _symmetry_equiv_pos_as_xyz
 1  'x, y, z'
loop_
 _atom_site_type_symbol
 _atom_site_label
 _atom_site_symmetry_multiplicity
 _atom_site_fract_x
 _atom_site_fract_y
 _atom_site_fract_z
 _atom_site_fract_occupancy
 B  B1  1  0.25000  0.88250  0.53396  1
 B  B2  1  0.25000  0.61750  0.03396  1
 B  B3  1  0.75000  0.38250  0.96604  1
 B  B4  1  0.75000  0.11750  0.46604  1
 Fe  Fe1  1  0.25000  0.38075  0.67790  1
 Fe  Fe2  1  0.25000  0.11925  0.17790  1
 Fe  Fe3  1  0.75000  0.61925  0.32210  1
 Fe  Fe4  1  0.75000  0.88075  0.82210  1
