CIF file written using JARVIS-Tools package.
data_YbB4Rh
_symmetry_space_group_name_H-M  'Pbam'
_cell_length_a       3.53974
_cell_length_b       5.92898
_cell_length_c       11.4815
_cell_angle_alpha    90
_cell_angle_beta     90
_cell_angle_gamma    90

_symmetry_Int_Tables_number  55
_chemical_formula_structural  YbB4Rh
_chemical_formula_sum  Yb4B6Rh4
_cell_volume  240.96290274630718
_cell_formula_units_Z  4
loop_
  _symmetry_equiv_pos_site_id
 _symmetry_equiv_pos_as_xyz
 1  'x, y, z'
loop_
 _atom_site_type_symbol
 _atom_site_label
 _atom_site_symmetry_multiplicity
 _atom_site_fract_x
 _atom_site_fract_y
 _atom_site_fract_z
 _atom_site_fract_occupancy
 B  B1  1  0.50000  0.63587  0.97034  1
 B  B2  1  0.50000  0.11208  0.95318  1
 B  B3  1  0.50000  0.88792  0.04682  1
 B  B4  1  0.50000  0.38792  0.45318  1
 B  B5  1  0.50000  0.61208  0.54682  1
 B  B6  1  0.50000  0.97421  0.19165  1
 B  B7  1  0.50000  0.36413  0.02966  1
 B  B8  1  0.50000  0.86413  0.47034  1
 B  B9  1  0.50000  0.13587  0.52966  1
 B  B10  1  0.50000  0.71027  0.81443  1
 B  B11  1  0.50000  0.28973  0.18557  1
 B  B12  1  0.50000  0.78973  0.31443  1
 B  B13  1  0.50000  0.21027  0.68557  1
 B  B14  1  0.50000  0.02579  0.80835  1
 B  B15  1  0.50000  0.52579  0.69165  1
 B  B16  1  0.50000  0.47421  0.30835  1
 Rh  Rh1  1  0.00000  0.85734  0.90626  1
 Rh  Rh2  1  0.00000  0.14266  0.09374  1
 Rh  Rh3  1  0.00000  0.35734  0.59374  1
 Rh  Rh4  1  0.00000  0.64266  0.40626  1
 Yb  Yb1  1  0.00000  0.86977  0.64992  1
 Yb  Yb2  1  0.00000  0.13023  0.35008  1
 Yb  Yb3  1  0.00000  0.63023  0.14992  1
 Yb  Yb4  1  0.00000  0.36977  0.85008  1
