CIF file written using JARVIS-Tools package.
data_BeFeSb
_symmetry_space_group_name_H-M  'I4mm'
_cell_length_a       4.49091
_cell_length_b       4.49091
_cell_length_c       4.49091
_cell_angle_alpha    137.451
_cell_angle_beta     137.451
_cell_angle_gamma    61.7443

_symmetry_Int_Tables_number  107
_chemical_formula_structural  BeFeSb
_chemical_formula_sum  BeFeSb
_cell_volume  40.937642805205584
_cell_formula_units_Z  1
loop_
  _symmetry_equiv_pos_site_id
 _symmetry_equiv_pos_as_xyz
 1  'x, y, z'
loop_
 _atom_site_type_symbol
 _atom_site_label
 _atom_site_symmetry_multiplicity
 _atom_site_fract_x
 _atom_site_fract_y
 _atom_site_fract_z
 _atom_site_fract_occupancy
 Be  Be1  1  0.99017  0.99017  -0.00000  1
 Fe  Fe1  1  0.33995  0.33995  -0.00000  1
 Sb  Sb1  1  0.66988  0.66988  -0.00000  1
