CIF file written using JARVIS-Tools package.
data_Li2Mn3GaO8
_symmetry_space_group_name_H-M  'R-3m'
_cell_length_a       5.84722
_cell_length_b       5.84722
_cell_length_c       5.84722
_cell_angle_alpha    58.721
_cell_angle_beta     58.721
_cell_angle_gamma    58.721

_symmetry_Int_Tables_number  166
_chemical_formula_structural  Li2Mn3GaO8
_chemical_formula_sum  Li2Mn3GaO8
_cell_volume  137.23100811773344
_cell_formula_units_Z  1
loop_
  _symmetry_equiv_pos_site_id
 _symmetry_equiv_pos_as_xyz
 1  'x, y, z'
loop_
 _atom_site_type_symbol
 _atom_site_label
 _atom_site_symmetry_multiplicity
 _atom_site_fract_x
 _atom_site_fract_y
 _atom_site_fract_z
 _atom_site_fract_occupancy
 Ga  Ga1  1  0.50000  0.50000  0.50000  1
 Li  Li1  1  0.12289  0.12289  0.12289  1
 Li  Li2  1  0.87711  0.87711  0.87711  1
 Mn  Mn1  1  0.50000  -0.00000  0.50000  1
 Mn  Mn2  1  0.50000  0.50000  -0.00000  1
 Mn  Mn3  1  -0.00000  0.50000  0.50000  1
 O  O1  1  0.26301  0.26301  0.26301  1
 O  O2  1  0.71354  0.25736  0.25736  1
 O  O3  1  0.25736  0.71354  0.25736  1
 O  O4  1  0.25736  0.25736  0.71354  1
 O  O5  1  0.74264  0.28646  0.74264  1
 O  O6  1  0.74264  0.74264  0.28646  1
 O  O7  1  0.28646  0.74264  0.74264  1
 O  O8  1  0.73699  0.73699  0.73699  1
