CIF file written using JARVIS-Tools package.
data_Ce2InNi2
_symmetry_space_group_name_H-M  'P4/mbm'
_cell_length_a       3.62774
_cell_length_b       7.53373
_cell_length_c       7.53373
_cell_angle_alpha    90
_cell_angle_beta     90
_cell_angle_gamma    90

_symmetry_Int_Tables_number  127
_chemical_formula_structural  Ce2InNi2
_chemical_formula_sum  Ce4In2Ni4
_cell_volume  205.8994703511582
_cell_formula_units_Z  2
loop_
  _symmetry_equiv_pos_site_id
 _symmetry_equiv_pos_as_xyz
 1  'x, y, z'
loop_
 _atom_site_type_symbol
 _atom_site_label
 _atom_site_symmetry_multiplicity
 _atom_site_fract_x
 _atom_site_fract_y
 _atom_site_fract_z
 _atom_site_fract_occupancy
 Ce  Ce1  1  0.50000  0.17300  0.67300  1
 Ce  Ce2  1  0.50000  0.32700  0.17300  1
 Ce  Ce3  1  0.50000  0.67300  0.82700  1
 Ce  Ce4  1  0.50000  0.82700  0.32700  1
 In  In1  1  0.00000  0.00000  0.00000  1
 In  In2  1  0.00000  0.50000  0.50000  1
 Ni  Ni1  1  0.00000  0.37464  0.87464  1
 Ni  Ni2  1  0.00000  0.87464  0.62536  1
 Ni  Ni3  1  0.00000  0.62536  0.12536  1
 Ni  Ni4  1  0.00000  0.12536  0.37464  1
