CIF file written using JARVIS-Tools package.
data_SbAsPd5
_symmetry_space_group_name_H-M  'Fd-3m'
_cell_length_a       8.77405
_cell_length_b       8.77405
_cell_length_c       8.77405
_cell_angle_alpha    60
_cell_angle_beta     60
_cell_angle_gamma    60

_symmetry_Int_Tables_number  227
_chemical_formula_structural  SbAsPd5
_chemical_formula_sum  Sb4As4Pd20
_cell_volume  477.6225953939061
_cell_formula_units_Z  4
loop_
  _symmetry_equiv_pos_site_id
 _symmetry_equiv_pos_as_xyz
 1  'x, y, z'
loop_
 _atom_site_type_symbol
 _atom_site_label
 _atom_site_symmetry_multiplicity
 _atom_site_fract_x
 _atom_site_fract_y
 _atom_site_fract_z
 _atom_site_fract_occupancy
 As  As1  1  0.37500  0.87500  0.37500  1
 As  As2  1  0.37500  0.37500  0.87500  1
 As  As3  1  0.37500  0.37500  0.37500  1
 As  As4  1  0.87500  0.37500  0.37500  1
 Pd  Pd1  1  0.02154  0.65949  0.65949  1
 Pd  Pd2  1  0.71414  0.28586  0.71414  1
 Pd  Pd3  1  0.28586  0.71414  0.28586  1
 Pd  Pd4  1  0.71414  0.28586  0.28586  1
 Pd  Pd5  1  0.28586  0.71414  0.71414  1
 Pd  Pd6  1  0.46414  0.03586  0.46414  1
 Pd  Pd7  1  0.03586  0.46414  0.03586  1
 Pd  Pd8  1  0.03586  0.03586  0.46414  1
 Pd  Pd9  1  0.03586  0.46414  0.46414  1
 Pd  Pd10  1  0.46414  0.03586  0.03586  1
 Pd  Pd11  1  0.65949  0.02154  0.65949  1
 Pd  Pd12  1  0.46414  0.46414  0.03586  1
 Pd  Pd13  1  0.65949  0.65949  0.65949  1
 Pd  Pd14  1  0.28586  0.28586  0.71414  1
 Pd  Pd15  1  0.09051  0.09051  0.72846  1
 Pd  Pd16  1  0.09051  0.72846  0.09051  1
 Pd  Pd17  1  0.09051  0.09051  0.09051  1
 Pd  Pd18  1  0.72846  0.09051  0.09051  1
 Pd  Pd19  1  0.71414  0.71414  0.28586  1
 Pd  Pd20  1  0.65949  0.65949  0.02154  1
 Sb  Sb1  1  0.87500  0.87500  0.87500  1
 Sb  Sb2  1  0.87500  0.37500  0.87500  1
 Sb  Sb3  1  0.87500  0.87500  0.37500  1
 Sb  Sb4  1  0.37500  0.87500  0.87500  1
