CIF file written using JARVIS-Tools package.
data_C3N
_symmetry_space_group_name_H-M  'P6_3/mcm'
_cell_length_a       6.60556
_cell_length_b       3.70118
_cell_length_c       3.70118
_cell_angle_alpha    120
_cell_angle_beta     90
_cell_angle_gamma    90

_symmetry_Int_Tables_number  193
_chemical_formula_structural  C3N
_chemical_formula_sum  C6N2
_cell_volume  78.36438855535133
_cell_formula_units_Z  2
loop_
  _symmetry_equiv_pos_site_id
 _symmetry_equiv_pos_as_xyz
 1  'x, y, z'
loop_
 _atom_site_type_symbol
 _atom_site_label
 _atom_site_symmetry_multiplicity
 _atom_site_fract_x
 _atom_site_fract_y
 _atom_site_fract_z
 _atom_site_fract_occupancy
 C  C1  1  0.75000  0.23352  -0.00000  1
 C  C2  1  0.75000  0.76648  0.76648  1
 C  C3  1  0.75000  0.00000  0.23352  1
 C  C4  1  0.25000  0.76648  -0.00000  1
 C  C5  1  0.25000  0.23352  0.23352  1
 C  C6  1  0.25000  0.00000  0.76648  1
 N  N1  1  0.50000  0.00000  0.00000  1
 N  N2  1  0.00000  0.00000  0.00000  1
