CIF file written using JARVIS-Tools package.
data_LiAlSi2O6
_symmetry_space_group_name_H-M  'P2_1/c'
_cell_length_a       5.18876
_cell_length_b       8.49879
_cell_length_c       9.15063
_cell_angle_alpha    90
_cell_angle_beta     102.775
_cell_angle_gamma    90

_symmetry_Int_Tables_number  14
_chemical_formula_structural  LiAlSi2O6
_chemical_formula_sum  Li4Al4Si8O24
_cell_volume  393.5384133858223
_cell_formula_units_Z  4
loop_
  _symmetry_equiv_pos_site_id
 _symmetry_equiv_pos_as_xyz
 1  'x, y, z'
loop_
 _atom_site_type_symbol
 _atom_site_label
 _atom_site_symmetry_multiplicity
 _atom_site_fract_x
 _atom_site_fract_y
 _atom_site_fract_z
 _atom_site_fract_occupancy
 Al  Al1  1  0.02628  0.65472  0.24992  1
 Al  Al2  1  0.47372  0.15472  0.75008  1
 Al  Al3  1  0.97372  0.34528  0.75008  1
 Al  Al4  1  0.52628  0.84528  0.24992  1
 Li  Li1  1  0.02201  0.01254  0.25268  1
 Li  Li2  1  0.47799  0.51254  0.74732  1
 Li  Li3  1  0.97799  0.98746  0.74732  1
 Li  Li4  1  0.52201  0.48746  0.25268  1
 O  O1  1  0.25128  0.33035  0.63659  1
 O  O2  1  0.01252  0.21738  0.10973  1
 O  O3  1  0.19762  0.17026  0.86172  1
 O  O4  1  0.98748  0.78262  0.89027  1
 O  O5  1  0.51252  0.28262  0.10973  1
 O  O6  1  0.32978  0.98474  0.11776  1
 O  O7  1  0.87626  0.28856  0.39189  1
 O  O8  1  0.67022  0.01526  0.88224  1
 O  O9  1  0.82978  0.51526  0.11776  1
 O  O10  1  0.75128  0.16965  0.63659  1
 O  O11  1  0.30238  0.67026  0.13828  1
 O  O12  1  0.80238  0.82974  0.13828  1
 O  O13  1  0.69762  0.32974  0.86172  1
 O  O14  1  0.17022  0.48474  0.88224  1
 O  O15  1  0.74872  0.66965  0.36341  1
 O  O16  1  0.76908  0.49153  0.62445  1
 O  O17  1  0.23092  0.50847  0.37555  1
 O  O18  1  0.73092  0.99153  0.37555  1
 O  O19  1  0.48748  0.71738  0.89027  1
 O  O20  1  0.12374  0.71144  0.60811  1
 O  O21  1  0.37626  0.21144  0.39189  1
 O  O22  1  0.24872  0.83035  0.36341  1
 O  O23  1  0.26908  0.00847  0.62445  1
 O  O24  1  0.62374  0.78856  0.60811  1
 Si  Si1  1  0.27110  0.15719  0.04762  1
 Si  Si2  1  0.77110  0.34281  0.04762  1
 Si  Si3  1  0.72890  0.84281  0.95238  1
 Si  Si4  1  0.22890  0.65719  0.95238  1
 Si  Si5  1  0.18672  0.34184  0.45014  1
 Si  Si6  1  0.31328  0.84184  0.54986  1
 Si  Si7  1  0.68672  0.15816  0.45014  1
 Si  Si8  1  0.81328  0.65816  0.54986  1
