CIF file written using JARVIS-Tools package.
data_TiSO5
_symmetry_space_group_name_H-M  'Pnma'
_cell_length_a       5.27629
_cell_length_b       6.60921
_cell_length_c       11.168
_cell_angle_alpha    90
_cell_angle_beta     90
_cell_angle_gamma    90

_symmetry_Int_Tables_number  62
_chemical_formula_structural  TiSO5
_chemical_formula_sum  Ti4S4O20
_cell_volume  389.4536150581861
_cell_formula_units_Z  4
loop_
  _symmetry_equiv_pos_site_id
 _symmetry_equiv_pos_as_xyz
 1  'x, y, z'
loop_
 _atom_site_type_symbol
 _atom_site_label
 _atom_site_symmetry_multiplicity
 _atom_site_fract_x
 _atom_site_fract_y
 _atom_site_fract_z
 _atom_site_fract_occupancy
 O  O1  1  0.48070  0.36457  0.87387  1
 O  O2  1  0.25000  0.67390  0.90743  1
 O  O3  1  0.50000  0.50000  0.50000  1
 O  O4  1  0.25000  0.98028  0.21448  1
 O  O5  1  0.25000  0.82610  0.40743  1
 O  O6  1  0.01930  0.36457  0.87387  1
 O  O7  1  0.00000  0.50000  0.50000  1
 O  O8  1  0.98070  0.63543  0.12613  1
 O  O9  1  0.75000  0.32610  0.09257  1
 O  O10  1  0.48070  0.13543  0.37387  1
 O  O11  1  0.75000  0.01972  0.78552  1
 O  O12  1  0.01930  0.13543  0.37387  1
 O  O13  1  0.00000  0.00000  0.00000  1
 O  O14  1  0.25000  0.51972  0.71448  1
 O  O15  1  0.98070  0.86457  0.62613  1
 O  O16  1  0.50000  0.00000  0.00000  1
 O  O17  1  0.51930  0.86457  0.62613  1
 O  O18  1  0.75000  0.17390  0.59257  1
 O  O19  1  0.75000  0.48028  0.28552  1
 O  O20  1  0.51930  0.63543  0.12613  1
 S  S1  1  0.25000  0.02320  0.34437  1
 S  S2  1  0.75000  0.97681  0.65563  1
 S  S3  1  0.75000  0.52319  0.15563  1
 S  S4  1  0.25000  0.47680  0.84437  1
 Ti  Ti1  1  0.75000  0.15826  0.94328  1
 Ti  Ti2  1  0.25000  0.65826  0.55672  1
 Ti  Ti3  1  0.75000  0.34174  0.44328  1
 Ti  Ti4  1  0.25000  0.84174  0.05672  1
