CIF file written using JARVIS-Tools package.
data_Y3AlNiS7
_symmetry_space_group_name_H-M  'P6_3'
_cell_length_a       9.51282
_cell_length_b       9.51282
_cell_length_c       6.18703
_cell_angle_alpha    90
_cell_angle_beta     90
_cell_angle_gamma    120

_symmetry_Int_Tables_number  173
_chemical_formula_structural  Y3AlNiS7
_chemical_formula_sum  Y6Al2Ni2S4
_cell_volume  484.87567170120786
_cell_formula_units_Z  2
loop_
  _symmetry_equiv_pos_site_id
 _symmetry_equiv_pos_as_xyz
 1  'x, y, z'
loop_
 _atom_site_type_symbol
 _atom_site_label
 _atom_site_symmetry_multiplicity
 _atom_site_fract_x
 _atom_site_fract_y
 _atom_site_fract_z
 _atom_site_fract_occupancy
 Al  Al1  1  0.66667  0.33333  0.34802  1
 Al  Al2  1  0.33333  0.66667  0.84802  1
 Ni  Ni1  1  0.00000  0.00000  0.94897  1
 Ni  Ni2  1  0.00000  0.00000  0.44897  1
 S  S1  1  0.43538  0.91256  0.00236  1
 S  S2  1  0.86873  0.76686  0.18419  1
 S  S3  1  0.66667  0.33333  0.98642  1
 S  S4  1  0.23314  0.10186  0.18419  1
 S  S5  1  0.13127  0.23314  0.68419  1
 S  S6  1  0.10186  0.86873  0.68419  1
 S  S7  1  0.89814  0.13127  0.18419  1
 S  S8  1  0.91256  0.47717  0.50236  1
 S  S9  1  0.56462  0.08744  0.50236  1
 S  S10  1  0.33333  0.66667  0.48642  1
 S  S11  1  0.08744  0.52283  0.00236  1
 S  S12  1  0.76686  0.89814  0.68419  1
 S  S13  1  0.47717  0.56462  0.00236  1
 S  S14  1  0.52283  0.43538  0.50236  1
 Y  Y1  1  0.62390  0.84211  0.27631  1
 Y  Y2  1  0.15789  0.78179  0.27631  1
 Y  Y3  1  0.21821  0.37610  0.27631  1
 Y  Y4  1  0.37610  0.15789  0.77631  1
 Y  Y5  1  0.84211  0.21821  0.77631  1
 Y  Y6  1  0.78179  0.62390  0.77631  1
