CIF file written using JARVIS-Tools package.
data_NO
_symmetry_space_group_name_H-M  'C2/c'
_cell_length_a       3.85529
_cell_length_b       3.85529
_cell_length_c       7.50411
_cell_angle_alpha    75.2893
_cell_angle_beta     75.2893
_cell_angle_gamma    84.0944

_symmetry_Int_Tables_number  15
_chemical_formula_structural  NO
_chemical_formula_sum  N4O4
_cell_volume  104.25513535956225
_cell_formula_units_Z  4
loop_
  _symmetry_equiv_pos_site_id
 _symmetry_equiv_pos_as_xyz
 1  'x, y, z'
loop_
 _atom_site_type_symbol
 _atom_site_label
 _atom_site_symmetry_multiplicity
 _atom_site_fract_x
 _atom_site_fract_y
 _atom_site_fract_z
 _atom_site_fract_occupancy
 N  N1  1  0.83978  0.16022  0.25000  1
 N  N2  1  0.16022  0.83978  0.75000  1
 N  N3  1  0.58694  0.41306  0.25000  1
 N  N4  1  0.41306  0.58694  0.75000  1
 O  O1  1  0.63209  0.68741  0.11423  1
 O  O2  1  0.31259  0.36791  0.38577  1
 O  O3  1  0.36791  0.31259  0.88577  1
 O  O4  1  0.68741  0.63209  0.61423  1
