CIF file written using JARVIS-Tools package.
data_TiBeCd
_symmetry_space_group_name_H-M  'I4mm'
_cell_length_a       5.9256
_cell_length_b       5.9256
_cell_length_c       5.9256
_cell_angle_alpha    152.023
_cell_angle_beta     152.023
_cell_angle_gamma    39.9801

_symmetry_Int_Tables_number  107
_chemical_formula_structural  TiBeCd
_chemical_formula_sum  TiBeCd
_cell_volume  45.70142869859937
_cell_formula_units_Z  1
loop_
  _symmetry_equiv_pos_site_id
 _symmetry_equiv_pos_as_xyz
 1  'x, y, z'
loop_
 _atom_site_type_symbol
 _atom_site_label
 _atom_site_symmetry_multiplicity
 _atom_site_fract_x
 _atom_site_fract_y
 _atom_site_fract_z
 _atom_site_fract_occupancy
 Be  Be1  1  0.00625  0.00625  0.00000  1
 Cd  Cd1  1  0.34958  0.34958  0.00000  1
 Ti  Ti1  1  0.64416  0.64416  0.00000  1
