CIF file written using JARVIS-Tools package.
data_Nd10Se19
_symmetry_space_group_name_H-M  'P4_2/n'
_cell_length_a       9.32159
_cell_length_b       9.32159
_cell_length_c       17.0092
_cell_angle_alpha    90
_cell_angle_beta     90
_cell_angle_gamma    90

_symmetry_Int_Tables_number  86
_chemical_formula_structural  Nd10Se19
_chemical_formula_sum  Nd20Se38
_cell_volume  1477.9603052671407
_cell_formula_units_Z  2
loop_
  _symmetry_equiv_pos_site_id
 _symmetry_equiv_pos_as_xyz
 1  'x, y, z'
loop_
 _atom_site_type_symbol
 _atom_site_label
 _atom_site_symmetry_multiplicity
 _atom_site_fract_x
 _atom_site_fract_y
 _atom_site_fract_z
 _atom_site_fract_occupancy
 Nd  Nd1  1  0.95667  0.84745  0.38051  1
 Nd  Nd2  1  0.84745  0.54333  0.11949  1
 Nd  Nd3  1  0.45667  0.34745  0.61949  1
 Nd  Nd4  1  0.65255  0.95667  0.11949  1
 Nd  Nd5  1  0.15255  0.45667  0.88051  1
 Nd  Nd6  1  0.04333  0.15255  0.61949  1
 Nd  Nd7  1  0.54333  0.65255  0.38051  1
 Nd  Nd8  1  0.34745  0.04333  0.88051  1
 Nd  Nd9  1  0.64777  0.94651  0.60612  1
 Nd  Nd10  1  0.85223  0.55349  0.60612  1
 Nd  Nd11  1  0.05349  0.14777  0.10612  1
 Nd  Nd12  1  0.44651  0.35223  0.10612  1
 Nd  Nd13  1  0.55349  0.64777  0.89388  1
 Nd  Nd14  1  0.25000  0.75000  0.61642  1
 Nd  Nd15  1  0.75000  0.25000  0.88358  1
 Nd  Nd16  1  0.25000  0.75000  0.11642  1
 Nd  Nd17  1  0.35223  0.05349  0.39388  1
 Nd  Nd18  1  0.14777  0.44651  0.39388  1
 Nd  Nd19  1  0.94651  0.85223  0.89388  1
 Nd  Nd20  1  0.75000  0.25000  0.38358  1
 Se  Se1  1  0.94779  0.85066  0.56325  1
 Se  Se2  1  0.54897  0.65231  0.07100  1
 Se  Se3  1  0.35066  0.05221  0.06325  1
 Se  Se4  1  0.45103  0.34769  0.92900  1
 Se  Se5  1  0.65231  0.95103  0.42900  1
 Se  Se6  1  0.84769  0.54897  0.42900  1
 Se  Se7  1  0.04897  0.15231  0.92900  1
 Se  Se8  1  0.34769  0.04897  0.57100  1
 Se  Se9  1  0.93502  0.37897  0.74935  1
 Se  Se10  1  0.95103  0.84769  0.07100  1
 Se  Se11  1  0.87897  0.06498  0.24935  1
 Se  Se12  1  0.56498  0.12103  0.74935  1
 Se  Se13  1  0.62103  0.43502  0.24935  1
 Se  Se14  1  0.12103  0.93502  0.75065  1
 Se  Se15  1  0.06498  0.62103  0.25065  1
 Se  Se16  1  0.55221  0.64934  0.56325  1
 Se  Se17  1  0.15231  0.45103  0.57100  1
 Se  Se18  1  0.14934  0.44779  0.06325  1
 Se  Se19  1  0.25000  0.25000  0.75000  1
 Se  Se20  1  0.05221  0.14934  0.43675  1
 Se  Se21  1  0.67339  0.47131  0.75003  1
 Se  Se22  1  0.75000  0.75000  0.25000  1
 Se  Se23  1  0.47131  0.82661  0.74997  1
 Se  Se24  1  0.17339  0.97131  0.24997  1
 Se  Se25  1  0.32661  0.52869  0.24997  1
 Se  Se26  1  0.02869  0.67339  0.74997  1
 Se  Se27  1  0.52869  0.17339  0.25003  1
 Se  Se28  1  0.64934  0.94779  0.93675  1
 Se  Se29  1  0.82661  0.02869  0.75003  1
 Se  Se30  1  0.75000  0.25000  0.06443  1
 Se  Se31  1  0.43502  0.87897  0.25065  1
 Se  Se32  1  0.75000  0.25000  0.56443  1
 Se  Se33  1  0.25000  0.75000  0.93557  1
 Se  Se34  1  0.25000  0.75000  0.43557  1
 Se  Se35  1  0.85066  0.55221  0.93675  1
 Se  Se36  1  0.44779  0.35066  0.43675  1
 Se  Se37  1  0.37897  0.56498  0.75065  1
 Se  Se38  1  0.97131  0.32661  0.25003  1
