CIF file written using JARVIS-Tools package.
data_FeOF
_symmetry_space_group_name_H-M  'Pm'
_cell_length_a       9.30512
_cell_length_b       3.01103
_cell_length_c       9.27556
_cell_angle_alpha    90
_cell_angle_beta     89.979
_cell_angle_gamma    90

_symmetry_Int_Tables_number  6
_chemical_formula_structural  FeOF
_chemical_formula_sum  Fe8O8F8
_cell_volume  259.8825565394631
_cell_formula_units_Z  8
loop_
  _symmetry_equiv_pos_site_id
 _symmetry_equiv_pos_as_xyz
 1  'x, y, z'
loop_
 _atom_site_type_symbol
 _atom_site_label
 _atom_site_symmetry_multiplicity
 _atom_site_fract_x
 _atom_site_fract_y
 _atom_site_fract_z
 _atom_site_fract_occupancy
 F  F1  1  0.10630  0.50000  0.39232  1
 F  F2  1  0.15668  0.00000  0.15272  1
 F  F3  1  0.34437  0.00000  0.84532  1
 F  F4  1  0.60120  0.50000  0.39521  1
 F  F5  1  0.59227  0.50000  0.90184  1
 F  F6  1  0.65615  0.00000  0.15357  1
 F  F7  1  0.64888  0.00000  0.64961  1
 F  F8  1  0.10440  0.50000  0.90368  1
 Fe  Fe1  1  0.98219  0.00000  0.00562  1
 Fe  Fe2  1  0.26492  0.50000  0.25131  1
 Fe  Fe3  1  0.23935  0.50000  0.72408  1
 Fe  Fe4  1  0.48821  0.00000  0.01326  1
 Fe  Fe5  1  0.48175  0.00000  0.49688  1
 Fe  Fe6  1  0.78147  0.50000  0.25853  1
 Fe  Fe7  1  0.77108  0.50000  0.74777  1
 Fe  Fe8  1  0.99370  0.00000  0.51489  1
 O  O1  1  0.34379  0.00000  0.33997  1
 O  O2  1  0.39555  0.50000  0.10653  1
 O  O3  1  0.85755  0.00000  0.35886  1
 O  O4  1  0.84665  0.00000  0.85066  1
 O  O5  1  0.90507  0.50000  0.10497  1
 O  O6  1  0.89989  0.50000  0.59875  1
 O  O7  1  0.14041  0.00000  0.64271  1
 O  O8  1  0.39817  0.50000  0.59094  1
