CIF file written using JARVIS-Tools package.
data_BaFe2S4
_symmetry_space_group_name_H-M  'I422'
_cell_length_a       5.19767
_cell_length_b       6.11752
_cell_length_c       6.11753
_cell_angle_alpha    79.5979
_cell_angle_beta     64.8533
_cell_angle_gamma    64.8533

_symmetry_Int_Tables_number  97
_chemical_formula_structural  BaFe2S4
_chemical_formula_sum  BaFe2S4
_cell_volume  159.3939604867073
_cell_formula_units_Z  1
loop_
  _symmetry_equiv_pos_site_id
 _symmetry_equiv_pos_as_xyz
 1  'x, y, z'
loop_
 _atom_site_type_symbol
 _atom_site_label
 _atom_site_symmetry_multiplicity
 _atom_site_fract_x
 _atom_site_fract_y
 _atom_site_fract_z
 _atom_site_fract_occupancy
 Ba  Ba1  1  0.75000  -0.00005  0.00005  1
 Fe  Fe1  1  0.25000  0.49994  0.50006  1
 Fe  Fe2  1  0.75000  0.50006  0.49994  1
 S  S1  1  0.15406  0.50002  0.19212  1
 S  S2  1  0.34594  0.80788  0.49998  1
 S  S3  1  0.65407  0.19213  0.49998  1
 S  S4  1  0.84593  0.50002  0.80787  1
