CIF file written using JARVIS-Tools package.
data_B2Mo2Os
_symmetry_space_group_name_H-M  'Pnnm'
_cell_length_a       3.0859
_cell_length_b       7.61446
_cell_length_c       9.64709
_cell_angle_alpha    90
_cell_angle_beta     90
_cell_angle_gamma    90

_symmetry_Int_Tables_number  58
_chemical_formula_structural  B2Mo2Os
_chemical_formula_sum  B8Mo8Os4
_cell_volume  226.68219734247106
_cell_formula_units_Z  4
loop_
  _symmetry_equiv_pos_site_id
 _symmetry_equiv_pos_as_xyz
 1  'x, y, z'
loop_
 _atom_site_type_symbol
 _atom_site_label
 _atom_site_symmetry_multiplicity
 _atom_site_fract_x
 _atom_site_fract_y
 _atom_site_fract_z
 _atom_site_fract_occupancy
 B  B1  1  0.00000  0.38813  0.04041  1
 B  B2  1  0.00000  0.61187  0.95959  1
 B  B3  1  0.50000  0.88813  0.45959  1
 B  B4  1  0.50000  0.11187  0.54041  1
 B  B5  1  0.00000  0.37884  0.23168  1
 B  B6  1  0.00000  0.62116  0.76832  1
 B  B7  1  0.50000  0.87884  0.26832  1
 B  B8  1  0.50000  0.12116  0.73168  1
 Mo  Mo1  1  0.50000  0.80577  0.87003  1
 Mo  Mo2  1  0.00000  0.69423  0.37003  1
 Mo  Mo3  1  0.50000  0.19423  0.12997  1
 Mo  Mo4  1  0.00000  0.30577  0.62997  1
 Mo  Mo5  1  0.50000  0.42169  0.86072  1
 Mo  Mo6  1  0.00000  0.07831  0.36072  1
 Mo  Mo7  1  0.50000  0.57831  0.13928  1
 Mo  Mo8  1  0.00000  0.92169  0.63928  1
 Os  Os1  1  0.00000  0.11684  0.89249  1
 Os  Os2  1  0.50000  0.38316  0.39249  1
 Os  Os3  1  0.00000  0.88316  0.10751  1
 Os  Os4  1  0.50000  0.61684  0.60751  1
