CIF file written using JARVIS-Tools package.
data_KTa2Be
_symmetry_space_group_name_H-M  'F-43m'
_cell_length_a       4.76335
_cell_length_b       4.76335
_cell_length_c       4.76335
_cell_angle_alpha    120.026
_cell_angle_beta     120.026
_cell_angle_gamma    89.955

_symmetry_Int_Tables_number  216
_chemical_formula_structural  KTa2Be
_chemical_formula_sum  KTa2Be
_cell_volume  76.39289472080465
_cell_formula_units_Z  1
loop_
  _symmetry_equiv_pos_site_id
 _symmetry_equiv_pos_as_xyz
 1  'x, y, z'
loop_
 _atom_site_type_symbol
 _atom_site_label
 _atom_site_symmetry_multiplicity
 _atom_site_fract_x
 _atom_site_fract_y
 _atom_site_fract_z
 _atom_site_fract_occupancy
 Be  Be1  1  0.50000  0.50000  0.00000  1
 K  K1  1  0.75000  0.25000  0.50000  1
 Ta  Ta1  1  0.00000  0.00000  0.00000  1
 Ta  Ta2  1  0.25000  0.75000  0.50000  1
