CIF file written using JARVIS-Tools package.
data_BeGaTe
_symmetry_space_group_name_H-M  'I4mm'
_cell_length_a       6.04999
_cell_length_b       6.04999
_cell_length_c       6.04999
_cell_angle_alpha    145.183
_cell_angle_beta     145.183
_cell_angle_gamma    50.0625

_symmetry_Int_Tables_number  107
_chemical_formula_structural  BeGaTe
_chemical_formula_sum  BeGaTe
_cell_volume  71.84056377325508
_cell_formula_units_Z  1
loop_
  _symmetry_equiv_pos_site_id
 _symmetry_equiv_pos_as_xyz
 1  'x, y, z'
loop_
 _atom_site_type_symbol
 _atom_site_label
 _atom_site_symmetry_multiplicity
 _atom_site_fract_x
 _atom_site_fract_y
 _atom_site_fract_z
 _atom_site_fract_occupancy
 Be  Be1  1  0.10884  0.10884  0.00000  1
 Ga  Ga1  1  0.32164  0.32164  -0.00000  1
 Te  Te1  1  0.56952  0.56952  0.00000  1
