CIF file written using JARVIS-Tools package.
data_AlO3
_symmetry_space_group_name_H-M  'Pm-3m'
_cell_length_a       5.23347
_cell_length_b       5.23347
_cell_length_c       5.23347
_cell_angle_alpha    60.1106
_cell_angle_beta     60.1106
_cell_angle_gamma    60.1105

_symmetry_Int_Tables_number  221
_chemical_formula_structural  AlO3
_chemical_formula_sum  Al2O6
_cell_volume  101.61091853828557
_cell_formula_units_Z  2
loop_
  _symmetry_equiv_pos_site_id
 _symmetry_equiv_pos_as_xyz
 1  'x, y, z'
loop_
 _atom_site_type_symbol
 _atom_site_label
 _atom_site_symmetry_multiplicity
 _atom_site_fract_x
 _atom_site_fract_y
 _atom_site_fract_z
 _atom_site_fract_occupancy
 Al  Al1  1  0.16193  0.16193  0.16193  1
 Al  Al2  1  0.66193  0.66193  0.66193  1
 O  O1  1  0.41192  0.91207  0.91178  1
 O  O2  1  0.91178  0.41192  0.91207  1
 O  O3  1  0.91207  0.91178  0.41192  1
 O  O4  1  0.91192  0.41178  0.41207  1
 O  O5  1  0.41178  0.41207  0.91192  1
 O  O6  1  0.41207  0.91192  0.41178  1
