CIF file written using JARVIS-Tools package.
data_FePO4
_symmetry_space_group_name_H-M  'Pnma'
_cell_length_a       4.75322
_cell_length_b       6.48537
_cell_length_c       8.72321
_cell_angle_alpha    90
_cell_angle_beta     90
_cell_angle_gamma    90

_symmetry_Int_Tables_number  62
_chemical_formula_structural  FePO4
_chemical_formula_sum  Fe4P4O6
_cell_volume  268.90491989074536
_cell_formula_units_Z  4
loop_
  _symmetry_equiv_pos_site_id
 _symmetry_equiv_pos_as_xyz
 1  'x, y, z'
loop_
 _atom_site_type_symbol
 _atom_site_label
 _atom_site_symmetry_multiplicity
 _atom_site_fract_x
 _atom_site_fract_y
 _atom_site_fract_z
 _atom_site_fract_occupancy
 Fe  Fe1  1  0.00000  0.00000  0.00000  1
 Fe  Fe2  1  0.00000  0.50000  0.00000  1
 Fe  Fe3  1  0.50000  0.00000  0.50000  1
 Fe  Fe4  1  0.50000  0.50000  0.50000  1
 O  O1  1  0.67531  0.94632  0.11936  1
 O  O2  1  0.67531  0.55368  0.11936  1
 O  O3  1  0.21709  0.75000  0.12249  1
 O  O4  1  0.32469  0.44632  0.88064  1
 O  O5  1  0.56516  0.75000  0.35618  1
 O  O6  1  0.71709  0.25000  0.37751  1
 O  O7  1  0.06516  0.25000  0.14382  1
 O  O8  1  0.17531  0.05368  0.38064  1
 O  O9  1  0.82469  0.94632  0.61936  1
 O  O10  1  0.28291  0.75000  0.62249  1
 O  O11  1  0.17531  0.44632  0.38064  1
 O  O12  1  0.43484  0.25000  0.64382  1
 O  O13  1  0.93484  0.75000  0.85618  1
 O  O14  1  0.78291  0.25000  0.87751  1
 O  O15  1  0.82469  0.55368  0.61936  1
 O  O16  1  0.32469  0.05368  0.88064  1
 P  P1  1  0.47126  0.25000  0.82327  1
 P  P2  1  0.97126  0.75000  0.67673  1
 P  P3  1  0.02874  0.25000  0.32327  1
 P  P4  1  0.52874  0.75000  0.17673  1
