CIF file written using JARVIS-Tools package.
data_TmAgTe2
_symmetry_space_group_name_H-M  'P-42_1m'
_cell_length_a       4.63585
_cell_length_b       7.04676
_cell_length_c       7.04676
_cell_angle_alpha    90
_cell_angle_beta     90
_cell_angle_gamma    90

_symmetry_Int_Tables_number  113
_chemical_formula_structural  TmAgTe2
_chemical_formula_sum  Tm2Ag2Te4
_cell_volume  230.20180009150948
_cell_formula_units_Z  2
loop_
  _symmetry_equiv_pos_site_id
 _symmetry_equiv_pos_as_xyz
 1  'x, y, z'
loop_
 _atom_site_type_symbol
 _atom_site_label
 _atom_site_symmetry_multiplicity
 _atom_site_fract_x
 _atom_site_fract_y
 _atom_site_fract_z
 _atom_site_fract_occupancy
 Ag  Ag1  1  0.00000  0.50000  0.50000  1
 Ag  Ag2  1  0.00000  0.00000  0.00000  1
 Te  Te1  1  0.29462  0.20210  0.70210  1
 Te  Te2  1  0.70538  0.29790  0.20210  1
 Te  Te3  1  0.29462  0.79790  0.29790  1
 Te  Te4  1  0.70538  0.70210  0.79790  1
 Tm  Tm1  1  0.80959  0.00000  0.50000  1
 Tm  Tm2  1  0.19041  0.50000  0.00000  1
