CIF file written using JARVIS-Tools package.
data_TlCdI3
_symmetry_space_group_name_H-M  'Pnma'
_cell_length_a       4.43657
_cell_length_b       10.1343
_cell_length_c       16.3617
_cell_angle_alpha    90
_cell_angle_beta     90
_cell_angle_gamma    90

_symmetry_Int_Tables_number  62
_chemical_formula_structural  TlCdI3
_chemical_formula_sum  Tl4Cd4I2
_cell_volume  735.644296548361
_cell_formula_units_Z  4
loop_
  _symmetry_equiv_pos_site_id
 _symmetry_equiv_pos_as_xyz
 1  'x, y, z'
loop_
 _atom_site_type_symbol
 _atom_site_label
 _atom_site_symmetry_multiplicity
 _atom_site_fract_x
 _atom_site_fract_y
 _atom_site_fract_z
 _atom_site_fract_occupancy
 Cd  Cd1  1  0.25000  0.66740  0.44343  1
 Cd  Cd2  1  0.75000  0.83260  0.94343  1
 Cd  Cd3  1  0.25000  0.16740  0.05657  1
 Cd  Cd4  1  0.75000  0.33260  0.55657  1
 I  I1  1  0.75000  0.47628  0.39213  1
 I  I2  1  0.25000  0.79169  0.28363  1
 I  I3  1  0.75000  0.20831  0.71637  1
 I  I4  1  0.25000  0.29169  0.21637  1
 I  I5  1  0.75000  0.70831  0.78363  1
 I  I6  1  0.25000  0.66152  0.01019  1
 I  I7  1  0.75000  0.33848  0.98981  1
 I  I8  1  0.25000  0.16152  0.48981  1
 I  I9  1  0.25000  0.52372  0.60787  1
 I  I10  1  0.75000  0.97628  0.10787  1
 I  I11  1  0.25000  0.02372  0.89213  1
 I  I12  1  0.75000  0.83848  0.51019  1
 Tl  Tl1  1  0.25000  0.44048  0.82424  1
 Tl  Tl2  1  0.25000  0.94048  0.67576  1
 Tl  Tl3  1  0.75000  0.05952  0.32424  1
 Tl  Tl4  1  0.75000  0.55952  0.17576  1
