data_image0
_chemical_formula_structural       I6Sn3
_chemical_formula_sum              "I6 Sn3"
_cell_length_a       4.5176
_cell_length_b       7.60909
_cell_length_c       11.0474
_cell_angle_alpha    91.8761
_cell_angle_beta     90
_cell_angle_gamma    107.269

_space_group_name_H-M_alt    "P 1"
_space_group_IT_number       1

loop_
  _space_group_symop_operation_xyz
  'x, y, z'

loop_
  _atom_site_type_symbol
  _atom_site_label
  _atom_site_symmetry_multiplicity
  _atom_site_fract_x
  _atom_site_fract_y
  _atom_site_fract_z
  _atom_site_occupancy
  I   I1        1.0  0.64500  0.29000  0.07800  1.0000
  I   I2        1.0  0.91800  0.83600  0.26800  1.0000
  I   I3        1.0  0.64200  0.28400  0.43800  1.0000
  I   I4        1.0  0.35800  0.71600  0.56200  1.0000
  I   I5        1.0  0.08200  0.16400  0.73200  1.0000
  I   I6        1.0  0.35500  0.71000  0.92200  1.0000
  Sn  Sn1       1.0  0.00000  0.00000  0.00000  1.0000
  Sn  Sn2       1.0  0.26700  0.53500  0.30900  1.0000
  Sn  Sn3       1.0  0.73300  0.46500  0.69100  1.0000
