CIF file written using JARVIS-Tools package.
data_Na14Co2O9
_symmetry_space_group_name_H-M  'P-3'
_cell_length_a       6.60089
_cell_length_b       6.60089
_cell_length_c       9.2858
_cell_angle_alpha    90
_cell_angle_beta     90
_cell_angle_gamma    120

_symmetry_Int_Tables_number  147
_chemical_formula_structural  Na14Co2O9
_chemical_formula_sum  Na4Co2O9
_cell_volume  350.39210830888084
_cell_formula_units_Z  1
loop_
  _symmetry_equiv_pos_site_id
 _symmetry_equiv_pos_as_xyz
 1  'x, y, z'
loop_
 _atom_site_type_symbol
 _atom_site_label
 _atom_site_symmetry_multiplicity
 _atom_site_fract_x
 _atom_site_fract_y
 _atom_site_fract_z
 _atom_site_fract_occupancy
 Co  Co1  1  0.33333  0.66667  0.26282  1
 Co  Co2  1  0.66667  0.33333  0.73718  1
 Na  Na1  1  0.67482  0.03496  0.09220  1
 Na  Na2  1  0.96504  0.63986  0.09220  1
 Na  Na3  1  0.37785  0.06581  0.40680  1
 Na  Na4  1  0.00000  0.00000  0.74906  1
 Na  Na5  1  0.00000  0.00000  0.25094  1
 Na  Na6  1  0.36014  0.32518  0.09220  1
 Na  Na7  1  0.93419  0.31204  0.40680  1
 Na  Na8  1  0.31204  0.37785  0.59320  1
 Na  Na9  1  0.68796  0.62215  0.40680  1
 Na  Na10  1  0.03496  0.36014  0.90780  1
 Na  Na11  1  0.63986  0.67482  0.90780  1
 Na  Na12  1  0.62215  0.93419  0.59320  1
 Na  Na13  1  0.32518  0.96504  0.90780  1
 Na  Na14  1  0.06581  0.68796  0.59320  1
 O  O1  1  0.00000  0.00000  0.00000  1
 O  O2  1  0.33333  0.66667  0.04490  1
 O  O3  1  0.69588  0.63707  0.66336  1
 O  O4  1  0.30412  0.36293  0.33664  1
 O  O5  1  0.94119  0.30412  0.66336  1
 O  O6  1  0.66667  0.33333  0.95510  1
 O  O7  1  0.36293  0.05881  0.66336  1
 O  O8  1  0.63707  0.94119  0.33664  1
 O  O9  1  0.05881  0.69588  0.33664  1
