CIF file written using JARVIS-Tools package.
data_Sr5In3
_symmetry_space_group_name_H-M  'I4/mcm'
_cell_length_a       8.69541
_cell_length_b       8.69541
_cell_length_c       10.2341
_cell_angle_alpha    115.14
_cell_angle_beta     115.14
_cell_angle_gamma    90

_symmetry_Int_Tables_number  140
_chemical_formula_structural  Sr5In3
_chemical_formula_sum  Sr0In6
_cell_volume  618.5803237498075
_cell_formula_units_Z  2
loop_
  _symmetry_equiv_pos_site_id
 _symmetry_equiv_pos_as_xyz
 1  'x, y, z'
loop_
 _atom_site_type_symbol
 _atom_site_label
 _atom_site_symmetry_multiplicity
 _atom_site_fract_x
 _atom_site_fract_y
 _atom_site_fract_z
 _atom_site_fract_occupancy
 In  In1  1  0.11807  0.38193  -0.00000  1
 In  In2  1  0.61807  0.11807  0.00000  1
 In  In3  1  0.88193  0.61807  0.00000  1
 In  In4  1  0.75000  0.75000  0.50000  1
 In  In5  1  0.38193  0.88193  -0.00000  1
 In  In6  1  0.25000  0.25000  0.50000  1
 Sr  Sr1  1  0.02801  0.52801  0.70762  1
 Sr  Sr2  1  0.32039  0.82039  0.29238  1
 Sr  Sr3  1  0.97199  0.47199  0.29238  1
 Sr  Sr4  1  0.50000  0.50000  0.00000  1
 Sr  Sr5  1  0.82039  0.97199  0.29238  1
 Sr  Sr6  1  0.52801  0.67961  0.70762  1
 Sr  Sr7  1  0.67961  0.17961  0.70762  1
 Sr  Sr8  1  0.17961  0.02801  0.70762  1
 Sr  Sr9  1  0.47199  0.32039  0.29238  1
 Sr  Sr10  1  0.00000  0.00000  0.00000  1
