CIF file written using JARVIS-Tools package.
data_Ca3SiBr2
_symmetry_space_group_name_H-M  'R-3m'
_cell_length_a       11.5245
_cell_length_b       11.5245
_cell_length_c       11.5245
_cell_angle_alpha    21.7116
_cell_angle_beta     21.7116
_cell_angle_gamma    21.7116

_symmetry_Int_Tables_number  166
_chemical_formula_structural  Ca3SiBr2
_chemical_formula_sum  Ca3SiBr2
_cell_volume  183.57269863426947
_cell_formula_units_Z  1
loop_
  _symmetry_equiv_pos_site_id
 _symmetry_equiv_pos_as_xyz
 1  'x, y, z'
loop_
 _atom_site_type_symbol
 _atom_site_label
 _atom_site_symmetry_multiplicity
 _atom_site_fract_x
 _atom_site_fract_y
 _atom_site_fract_z
 _atom_site_fract_occupancy
 Br  Br1  1  0.71470  0.71470  0.71470  1
 Br  Br2  1  0.28530  0.28530  0.28530  1
 Ca  Ca1  1  0.12415  0.12415  0.12415  1
 Ca  Ca2  1  0.00000  0.00000  0.00000  1
 Ca  Ca3  1  0.87585  0.87585  0.87585  1
 Si  Si1  1  0.50000  0.50000  0.50000  1
