CIF file written using JARVIS-Tools package.
data_Ca2CrO8
_symmetry_space_group_name_H-M  'Cm'
_cell_length_a       5.64515
_cell_length_b       5.64515
_cell_length_c       9.54159
_cell_angle_alpha    82.3375
_cell_angle_beta     97.6625
_cell_angle_gamma    95.0569

_symmetry_Int_Tables_number  8
_chemical_formula_structural  Ca2CrO8
_chemical_formula_sum  Ca4Cr2O6
_cell_volume  297.8945328888167
_cell_formula_units_Z  2
loop_
  _symmetry_equiv_pos_site_id
 _symmetry_equiv_pos_as_xyz
 1  'x, y, z'
loop_
 _atom_site_type_symbol
 _atom_site_label
 _atom_site_symmetry_multiplicity
 _atom_site_fract_x
 _atom_site_fract_y
 _atom_site_fract_z
 _atom_site_fract_occupancy
 Ca  Ca1  1  0.56348  0.94886  0.45933  1
 Ca  Ca2  1  0.56348  0.94886  0.95933  1
 Ca  Ca3  1  0.05114  0.43652  0.45933  1
 Ca  Ca4  1  0.05114  0.43652  0.95933  1
 Cr  Cr1  1  0.16577  0.83423  0.15769  1
 Cr  Cr2  1  0.16577  0.83423  0.65769  1
 O  O1  1  0.25517  0.10523  0.08689  1
 O  O2  1  0.25517  0.10523  0.58689  1
 O  O3  1  0.89477  0.74483  0.08689  1
 O  O4  1  0.89477  0.74483  0.58689  1
 O  O5  1  0.83332  0.16668  0.28615  1
 O  O6  1  0.18700  0.81300  0.83494  1
 O  O7  1  0.18700  0.81300  0.33494  1
 O  O8  1  0.79519  0.20481  0.64306  1
 O  O9  1  0.79518  0.20482  0.14306  1
 O  O10  1  0.34874  0.65126  0.11257  1
 O  O11  1  0.45508  0.36906  0.38545  1
 O  O12  1  0.45508  0.36906  0.88545  1
 O  O13  1  0.63094  0.54492  0.38545  1
 O  O14  1  0.63094  0.54492  0.88545  1
 O  O15  1  0.34874  0.65126  0.61257  1
 O  O16  1  0.83332  0.16668  0.78615  1
