CIF file written using JARVIS-Tools package.
data_SnO
_symmetry_space_group_name_H-M  'Cmc2_1'
_cell_length_a       3.48542
_cell_length_b       3.48542
_cell_length_c       12.2542
_cell_angle_alpha    90
_cell_angle_beta     90
_cell_angle_gamma    97.1804

_symmetry_Int_Tables_number  36
_chemical_formula_structural  SnO
_chemical_formula_sum  Sn4O4
_cell_volume  147.69917476648126
_cell_formula_units_Z  4
loop_
  _symmetry_equiv_pos_site_id
 _symmetry_equiv_pos_as_xyz
 1  'x, y, z'
loop_
 _atom_site_type_symbol
 _atom_site_label
 _atom_site_symmetry_multiplicity
 _atom_site_fract_x
 _atom_site_fract_y
 _atom_site_fract_z
 _atom_site_fract_occupancy
 O  O1  1  0.47260  0.52740  0.44784  1
 O  O2  1  0.52740  0.47260  0.94784  1
 O  O3  1  0.02962  -0.02962  0.32293  1
 O  O4  1  -0.02962  0.02962  0.82293  1
 Sn  Sn1  1  0.06567  0.93433  0.49896  1
 Sn  Sn2  1  0.93433  0.06567  -0.00104  1
 Sn  Sn3  1  0.43649  0.56351  0.27181  1
 Sn  Sn4  1  0.56351  0.43649  0.77181  1
