CIF file written using JARVIS-Tools package.
data_Bi2Te3
_symmetry_space_group_name_H-M  'R-3m'
_cell_length_a       9.76891
_cell_length_b       9.76891
_cell_length_c       9.76891
_cell_angle_alpha    27.0604
_cell_angle_beta     27.0605
_cell_angle_gamma    27.0605

_symmetry_Int_Tables_number  166
_chemical_formula_structural  Bi2Te3
_chemical_formula_sum  Bi2Te3
_cell_volume  170.19643090067697
_cell_formula_units_Z  1
loop_
  _symmetry_equiv_pos_site_id
 _symmetry_equiv_pos_as_xyz
 1  'x, y, z'
loop_
 _atom_site_type_symbol
 _atom_site_label
 _atom_site_symmetry_multiplicity
 _atom_site_fract_x
 _atom_site_fract_y
 _atom_site_fract_z
 _atom_site_fract_occupancy
 Bi  Bi1  1  0.19389  0.19389  0.19389  1
 Bi  Bi2  1  0.59610  0.59610  0.59610  1
 Te  Te1  1  0.99516  0.99516  0.99516  1
 Te  Te2  1  0.39501  0.39501  0.39501  1
 Te  Te3  1  0.79484  0.79484  0.79484  1
