CIF file written using JARVIS-Tools package.
data_CrAsRh
_symmetry_space_group_name_H-M  'P-62m'
_cell_length_a       6.50692
_cell_length_b       6.50691
_cell_length_c       3.72512
_cell_angle_alpha    90
_cell_angle_beta     90
_cell_angle_gamma    120

_symmetry_Int_Tables_number  189
_chemical_formula_structural  CrAsRh
_chemical_formula_sum  Cr3As3Rh3
_cell_volume  136.5908974457847
_cell_formula_units_Z  3
loop_
  _symmetry_equiv_pos_site_id
 _symmetry_equiv_pos_as_xyz
 1  'x, y, z'
loop_
 _atom_site_type_symbol
 _atom_site_label
 _atom_site_symmetry_multiplicity
 _atom_site_fract_x
 _atom_site_fract_y
 _atom_site_fract_z
 _atom_site_fract_occupancy
 As  As1  1  0.66666  0.33333  0.00000  1
 As  As2  1  0.33334  0.66667  0.00000  1
 As  As3  1  -0.00003  -0.00000  0.50000  1
 Cr  Cr1  1  0.00007  0.40748  0.50000  1
 Cr  Cr2  1  0.59259  0.59252  0.50000  1
 Cr  Cr3  1  0.40740  0.00000  0.50000  1
 Rh  Rh1  1  -0.00001  0.74484  0.00000  1
 Rh  Rh2  1  0.25514  0.25516  0.00000  1
 Rh  Rh3  1  0.74483  -0.00000  0.00000  1
