CIF file written using JARVIS-Tools package.
data_MgBIr
_symmetry_space_group_name_H-M  'P6_222'
_cell_length_a       5.29822
_cell_length_b       5.29822
_cell_length_c       9.51472
_cell_angle_alpha    90
_cell_angle_beta     90
_cell_angle_gamma    120

_symmetry_Int_Tables_number  180
_chemical_formula_structural  MgBIr
_chemical_formula_sum  Mg6B6Ir6
_cell_volume  231.30516697319197
_cell_formula_units_Z  6
loop_
  _symmetry_equiv_pos_site_id
 _symmetry_equiv_pos_as_xyz
 1  'x, y, z'
loop_
 _atom_site_type_symbol
 _atom_site_label
 _atom_site_symmetry_multiplicity
 _atom_site_fract_x
 _atom_site_fract_y
 _atom_site_fract_z
 _atom_site_fract_occupancy
 B  B1  1  0.39772  0.60228  0.33333  1
 B  B2  1  0.60228  0.39772  0.33333  1
 B  B3  1  0.39772  0.79543  0.00000  1
 B  B4  1  0.20457  0.60228  0.66667  1
 B  B5  1  0.79543  0.39772  0.66667  1
 B  B6  1  0.60228  0.20457  0.00000  1
 Ir  Ir1  1  0.00000  0.50000  0.45446  1
 Ir  Ir2  1  0.50000  0.00000  0.21221  1
 Ir  Ir3  1  0.00000  0.50000  0.87887  1
 Ir  Ir4  1  0.50000  0.50000  0.54554  1
 Ir  Ir5  1  0.50000  0.00000  0.78779  1
 Ir  Ir6  1  0.50000  0.50000  0.12113  1
 Mg  Mg1  1  0.50000  0.00000  0.50000  1
 Mg  Mg2  1  0.00000  0.50000  0.16667  1
 Mg  Mg3  1  0.50000  0.50000  0.83333  1
 Mg  Mg4  1  0.00000  0.00000  0.00000  1
 Mg  Mg5  1  0.00000  0.00000  0.66667  1
 Mg  Mg6  1  0.00000  0.00000  0.33333  1
