CIF file written using JARVIS-Tools package.
data_Fe2PO4F
_symmetry_space_group_name_H-M  'C2/c'
_cell_length_a       6.50971
_cell_length_b       7.30412
_cell_length_c       9.43381
_cell_angle_alpha    70.4665
_cell_angle_beta     69.817
_cell_angle_gamma    63.5371

_symmetry_Int_Tables_number  15
_chemical_formula_structural  Fe2PO4F
_chemical_formula_sum  Fe8P4O6F4
_cell_volume  368.09069396777795
_cell_formula_units_Z  4
loop_
  _symmetry_equiv_pos_site_id
 _symmetry_equiv_pos_as_xyz
 1  'x, y, z'
loop_
 _atom_site_type_symbol
 _atom_site_label
 _atom_site_symmetry_multiplicity
 _atom_site_fract_x
 _atom_site_fract_y
 _atom_site_fract_z
 _atom_site_fract_occupancy
 F  F1  1  0.59269  0.63797  0.89449  1
 F  F2  1  0.40732  0.36203  0.10551  1
 F  F3  1  0.37485  0.13797  0.39449  1
 F  F4  1  0.62515  0.86203  0.60551  1
 Fe  Fe1  1  0.71969  0.11277  0.51198  1
 Fe  Fe2  1  0.44574  0.95658  0.86043  1
 Fe  Fe3  1  0.84444  0.38723  0.98802  1
 Fe  Fe4  1  0.55426  0.04342  0.13957  1
 Fe  Fe5  1  0.15556  0.61277  0.01198  1
 Fe  Fe6  1  0.28031  0.88723  0.48802  1
 Fe  Fe7  1  0.76275  0.54342  0.63957  1
 Fe  Fe8  1  0.23725  0.45658  0.36043  1
 O  O1  1  0.88143  0.51100  0.14296  1
 O  O2  1  0.72490  0.96389  0.92049  1
 O  O3  1  0.11857  0.48900  0.85704  1
 O  O4  1  0.96461  0.01100  0.64296  1
 O  O5  1  0.27510  0.03611  0.07951  1
 O  O6  1  0.03539  0.98900  0.35704  1
 O  O7  1  0.41901  0.60091  0.63304  1
 O  O8  1  0.15296  0.89909  0.86696  1
 O  O9  1  0.58099  0.39909  0.36696  1
 O  O10  1  0.14026  0.72806  0.19828  1
 O  O11  1  0.85974  0.27194  0.80172  1
 O  O12  1  0.10928  0.53611  0.57951  1
 O  O13  1  0.43340  0.22806  0.69828  1
 O  O14  1  0.89072  0.46389  0.42049  1
 O  O15  1  0.84703  0.10091  0.13304  1
 O  O16  1  0.56660  0.77194  0.30172  1
 P  P1  1  0.07552  0.96135  0.19274  1
 P  P2  1  0.72962  0.53865  0.30726  1
 P  P3  1  0.92448  0.03865  0.80726  1
 P  P4  1  0.27038  0.46135  0.69274  1
