CIF file written using JARVIS-Tools package.
data_HfNi4As2
_symmetry_space_group_name_H-M  'P4_2/mnm'
_cell_length_a       7.07122
_cell_length_b       7.07122
_cell_length_c       3.77048
_cell_angle_alpha    90
_cell_angle_beta     90
_cell_angle_gamma    90

_symmetry_Int_Tables_number  136
_chemical_formula_structural  HfNi4As2
_chemical_formula_sum  Hf2Ni8As4
_cell_volume  188.53223270077163
_cell_formula_units_Z  2
loop_
  _symmetry_equiv_pos_site_id
 _symmetry_equiv_pos_as_xyz
 1  'x, y, z'
loop_
 _atom_site_type_symbol
 _atom_site_label
 _atom_site_symmetry_multiplicity
 _atom_site_fract_x
 _atom_site_fract_y
 _atom_site_fract_z
 _atom_site_fract_occupancy
 As  As1  1  0.78439  0.21561  0.00000  1
 As  As2  1  0.21561  0.78439  0.00000  1
 As  As3  1  0.71561  0.71561  0.50000  1
 As  As4  1  0.28439  0.28439  0.50000  1
 Hf  Hf1  1  0.00000  0.00000  0.50000  1
 Hf  Hf2  1  0.50000  0.50000  0.00000  1
 Ni  Ni1  1  0.34420  0.09068  0.00000  1
 Ni  Ni2  1  0.65580  0.90932  0.00000  1
 Ni  Ni3  1  0.59068  0.15580  0.50000  1
 Ni  Ni4  1  0.40932  0.84420  0.50000  1
 Ni  Ni5  1  0.84420  0.40932  0.50000  1
 Ni  Ni6  1  0.15580  0.59068  0.50000  1
 Ni  Ni7  1  0.09068  0.34420  0.00000  1
 Ni  Ni8  1  0.90932  0.65580  0.00000  1
