CIF file written using JARVIS-Tools package.
data_SrBePd
_symmetry_space_group_name_H-M  'I4mm'
_cell_length_a       5.87577
_cell_length_b       5.87577
_cell_length_c       5.87577
_cell_angle_alpha    147.335
_cell_angle_beta     147.335
_cell_angle_gamma    46.8674

_symmetry_Int_Tables_number  107
_chemical_formula_structural  SrBePd
_chemical_formula_sum  SrBePd
_cell_volume  58.87423520961363
_cell_formula_units_Z  1
loop_
  _symmetry_equiv_pos_site_id
 _symmetry_equiv_pos_as_xyz
 1  'x, y, z'
loop_
 _atom_site_type_symbol
 _atom_site_label
 _atom_site_symmetry_multiplicity
 _atom_site_fract_x
 _atom_site_fract_y
 _atom_site_fract_z
 _atom_site_fract_occupancy
 Be  Be1  1  0.94459  0.94459  0.00000  1
 Pd  Pd1  1  0.38816  0.38816  -0.00000  1
 Sr  Sr1  1  0.66725  0.66725  -0.00000  1
