CIF file written using JARVIS-Tools package.
data_Ba2PCl
_symmetry_space_group_name_H-M  'R-3m'
_cell_length_a       7.98842
_cell_length_b       7.98842
_cell_length_c       7.98843
_cell_angle_alpha    33.8663
_cell_angle_beta     33.8662
_cell_angle_gamma    33.8663

_symmetry_Int_Tables_number  166
_chemical_formula_structural  Ba2PCl
_chemical_formula_sum  Ba2PCl
_cell_volume  141.07728130911707
_cell_formula_units_Z  1
loop_
  _symmetry_equiv_pos_site_id
 _symmetry_equiv_pos_as_xyz
 1  'x, y, z'
loop_
 _atom_site_type_symbol
 _atom_site_label
 _atom_site_symmetry_multiplicity
 _atom_site_fract_x
 _atom_site_fract_y
 _atom_site_fract_z
 _atom_site_fract_occupancy
 Ba  Ba1  1  0.75779  0.75779  0.75779  1
 Ba  Ba2  1  0.24221  0.24221  0.24221  1
 Cl  Cl1  1  0.00000  0.00000  0.00000  1
 P  P1  1  0.50000  0.50000  0.50000  1
