CIF file written using JARVIS-Tools package.
data_BeVP
_symmetry_space_group_name_H-M  'I4mm'
_cell_length_a       6.63812
_cell_length_b       6.63812
_cell_length_c       6.63812
_cell_angle_alpha    157.838
_cell_angle_beta     157.838
_cell_angle_gamma    31.5435

_symmetry_Int_Tables_number  107
_chemical_formula_structural  BeVP
_chemical_formula_sum  BeVP
_cell_volume  41.59272466899229
_cell_formula_units_Z  1
loop_
  _symmetry_equiv_pos_site_id
 _symmetry_equiv_pos_as_xyz
 1  'x, y, z'
loop_
 _atom_site_type_symbol
 _atom_site_label
 _atom_site_symmetry_multiplicity
 _atom_site_fract_x
 _atom_site_fract_y
 _atom_site_fract_z
 _atom_site_fract_occupancy
 Be  Be1  1  0.03365  0.03365  0.00000  1
 P  P1  1  0.30680  0.30680  -0.00000  1
 V  V1  1  0.65956  0.65956  0.00000  1
