CIF file written using JARVIS-Tools package.
data_RbClO4
_symmetry_space_group_name_H-M  'Pnma'
_cell_length_a       5.78124
_cell_length_b       7.42573
_cell_length_c       9.15728
_cell_angle_alpha    90
_cell_angle_beta     90
_cell_angle_gamma    90

_symmetry_Int_Tables_number  62
_chemical_formula_structural  RbClO4
_chemical_formula_sum  Rb4Cl4O6
_cell_volume  393.12176077820624
_cell_formula_units_Z  4
loop_
  _symmetry_equiv_pos_site_id
 _symmetry_equiv_pos_as_xyz
 1  'x, y, z'
loop_
 _atom_site_type_symbol
 _atom_site_label
 _atom_site_symmetry_multiplicity
 _atom_site_fract_x
 _atom_site_fract_y
 _atom_site_fract_z
 _atom_site_fract_occupancy
 Cl  Cl1  1  0.25000  0.68974  0.06979  1
 Cl  Cl2  1  0.75000  0.31026  0.93021  1
 Cl  Cl3  1  0.75000  0.18974  0.43021  1
 Cl  Cl4  1  0.25000  0.81026  0.56979  1
 O  O1  1  0.25000  0.56375  0.19184  1
 O  O2  1  0.04466  0.69570  0.57925  1
 O  O3  1  0.45534  0.80430  0.07925  1
 O  O4  1  0.95534  0.19570  0.92075  1
 O  O5  1  0.45534  0.69570  0.57925  1
 O  O6  1  0.95534  0.30430  0.42075  1
 O  O7  1  0.54466  0.19570  0.92075  1
 O  O8  1  0.04466  0.80430  0.07925  1
 O  O9  1  0.25000  0.59368  0.93198  1
 O  O10  1  0.25000  0.90632  0.43198  1
 O  O11  1  0.54466  0.30430  0.42075  1
 O  O12  1  0.75000  0.09368  0.56802  1
 O  O13  1  0.75000  0.43625  0.80816  1
 O  O14  1  0.75000  0.06375  0.30816  1
 O  O15  1  0.25000  0.93625  0.69184  1
 O  O16  1  0.75000  0.40632  0.06802  1
 Rb  Rb1  1  0.75000  0.83695  0.81892  1
 Rb  Rb2  1  0.25000  0.33695  0.68108  1
 Rb  Rb3  1  0.75000  0.66305  0.31892  1
 Rb  Rb4  1  0.25000  0.16305  0.18108  1
