CIF file written using JARVIS-Tools package.
data_BeNbRu
_symmetry_space_group_name_H-M  'I4mm'
_cell_length_a       4.90224
_cell_length_b       4.90224
_cell_length_c       4.90224
_cell_angle_alpha    143.863
_cell_angle_beta     143.863
_cell_angle_gamma    52.0319

_symmetry_Int_Tables_number  107
_chemical_formula_structural  BeNbRu
_chemical_formula_sum  BeNbRu
_cell_volume  40.73763865330514
_cell_formula_units_Z  1
loop_
  _symmetry_equiv_pos_site_id
 _symmetry_equiv_pos_as_xyz
 1  'x, y, z'
loop_
 _atom_site_type_symbol
 _atom_site_label
 _atom_site_symmetry_multiplicity
 _atom_site_fract_x
 _atom_site_fract_y
 _atom_site_fract_z
 _atom_site_fract_occupancy
 Be  Be1  1  0.02429  0.02429  0.00000  1
 Nb  Nb1  1  0.33701  0.33701  -0.00000  1
 Ru  Ru1  1  0.63870  0.63870  0.00000  1
