CIF file written using JARVIS-Tools package.
data_BaFeSi4O10
_symmetry_space_group_name_H-M  'P4/nmm'
_cell_length_a       7.6495
_cell_length_b       7.64952
_cell_length_c       7.97435
_cell_angle_alpha    90.0001
_cell_angle_beta     90.0003
_cell_angle_gamma    90.0001

_symmetry_Int_Tables_number  129
_chemical_formula_structural  BaFeSi4O10
_chemical_formula_sum  Ba2Fe2Si8O20
_cell_volume  466.6188267705348
_cell_formula_units_Z  2
loop_
  _symmetry_equiv_pos_site_id
 _symmetry_equiv_pos_as_xyz
 1  'x, y, z'
loop_
 _atom_site_type_symbol
 _atom_site_label
 _atom_site_symmetry_multiplicity
 _atom_site_fract_x
 _atom_site_fract_y
 _atom_site_fract_z
 _atom_site_fract_occupancy
 Ba  Ba1  1  0.25000  0.75000  0.00000  1
 Ba  Ba2  1  0.75000  0.25000  -0.00000  1
 Fe  Fe1  1  0.75000  0.75000  0.82914  1
 Fe  Fe2  1  0.25000  0.25000  0.17086  1
 O  O1  1  0.43239  0.43239  0.16844  1
 O  O2  1  0.75000  0.50129  0.26970  1
 O  O3  1  0.00129  0.25000  0.73030  1
 O  O4  1  0.43239  0.06761  0.16844  1
 O  O5  1  0.56761  0.93239  0.83156  1
 O  O6  1  0.50129  0.75000  0.26970  1
 O  O7  1  0.25000  0.49871  0.73030  1
 O  O8  1  -0.00000  0.50000  0.50000  1
 O  O9  1  0.93239  0.56761  0.83156  1
 O  O10  1  0.75000  0.99871  0.26970  1
 O  O11  1  0.06761  0.06761  0.16844  1
 O  O12  1  0.06761  0.43239  0.16844  1
 O  O13  1  0.50000  0.00000  0.50000  1
 O  O14  1  0.56761  0.56761  0.83156  1
 O  O15  1  0.25000  0.00129  0.73030  1
 O  O16  1  0.00000  0.00000  0.50000  1
 O  O17  1  0.93239  0.93239  0.83156  1
 O  O18  1  0.99871  0.75000  0.26970  1
 O  O19  1  0.49871  0.25000  0.73030  1
 O  O20  1  0.50000  0.50000  0.50000  1
 Si  Si1  1  0.95876  0.54124  0.30406  1
 Si  Si2  1  0.54124  0.54124  0.30406  1
 Si  Si3  1  0.45876  0.45876  0.69594  1
 Si  Si4  1  0.95876  0.95876  0.30406  1
 Si  Si5  1  0.04124  0.04124  0.69594  1
 Si  Si6  1  0.04124  0.45876  0.69594  1
 Si  Si7  1  0.45876  0.04124  0.69594  1
 Si  Si8  1  0.54124  0.95876  0.30406  1
