CIF file written using JARVIS-Tools package.
data_BeNbRh
_symmetry_space_group_name_H-M  'I4mm'
_cell_length_a       5.2695
_cell_length_b       5.2695
_cell_length_c       5.2695
_cell_angle_alpha    148.311
_cell_angle_beta     148.311
_cell_angle_gamma    45.4262

_symmetry_Int_Tables_number  107
_chemical_formula_structural  BeNbRh
_chemical_formula_sum  BeNbRh
_cell_volume  40.24570482316005
_cell_formula_units_Z  1
loop_
  _symmetry_equiv_pos_site_id
 _symmetry_equiv_pos_as_xyz
 1  'x, y, z'
loop_
 _atom_site_type_symbol
 _atom_site_label
 _atom_site_symmetry_multiplicity
 _atom_site_fract_x
 _atom_site_fract_y
 _atom_site_fract_z
 _atom_site_fract_occupancy
 Be  Be1  1  0.02292  0.02292  -0.00000  1
 Nb  Nb1  1  0.33822  0.33822  -0.00000  1
 Rh  Rh1  1  0.63887  0.63887  -0.00000  1
