CIF file written using JARVIS-Tools package.
data_CeCdPt
_symmetry_space_group_name_H-M  'P-62m'
_cell_length_a       3.99304
_cell_length_b       7.67054
_cell_length_c       7.67082
_cell_angle_alpha    119.999
_cell_angle_beta     90
_cell_angle_gamma    90

_symmetry_Int_Tables_number  189
_chemical_formula_structural  CeCdPt
_chemical_formula_sum  Ce3Cd3Pt3
_cell_volume  203.4734746072937
_cell_formula_units_Z  3
loop_
  _symmetry_equiv_pos_site_id
 _symmetry_equiv_pos_as_xyz
 1  'x, y, z'
loop_
 _atom_site_type_symbol
 _atom_site_label
 _atom_site_symmetry_multiplicity
 _atom_site_fract_x
 _atom_site_fract_y
 _atom_site_fract_z
 _atom_site_fract_occupancy
 Cd  Cd1  1  0.50000  0.25448  0.00000  1
 Cd  Cd2  1  0.50000  0.74550  0.74552  1
 Cd  Cd3  1  0.50000  0.99999  0.25448  1
 Ce  Ce1  1  0.00000  0.59422  0.00000  1
 Ce  Ce2  1  0.00000  0.40576  0.40577  1
 Ce  Ce3  1  0.00000  0.99999  0.59423  1
 Pt  Pt1  1  0.50000  0.33332  0.66667  1
 Pt  Pt2  1  0.50000  0.66666  0.33333  1
 Pt  Pt3  1  0.00000  0.99999  0.00000  1
