CIF file written using JARVIS-Tools package.
data_BeSnGe
_symmetry_space_group_name_H-M  'I4mm'
_cell_length_a       6.46548
_cell_length_b       6.46548
_cell_length_c       6.46548
_cell_angle_alpha    152.422
_cell_angle_beta     152.422
_cell_angle_gamma    39.3979

_symmetry_Int_Tables_number  107
_chemical_formula_structural  BeSnGe
_chemical_formula_sum  BeSnGe
_cell_volume  57.82339217057138
_cell_formula_units_Z  1
loop_
  _symmetry_equiv_pos_site_id
 _symmetry_equiv_pos_as_xyz
 1  'x, y, z'
loop_
 _atom_site_type_symbol
 _atom_site_label
 _atom_site_symmetry_multiplicity
 _atom_site_fract_x
 _atom_site_fract_y
 _atom_site_fract_z
 _atom_site_fract_occupancy
 Be  Be1  1  0.01771  0.01771  0.00000  1
 Ge  Ge1  1  0.62413  0.62413  0.00000  1
 Sn  Sn1  1  0.35816  0.35816  0.00000  1
