CIF file written using JARVIS-Tools package.
data_PrAl3B4O12
_symmetry_space_group_name_H-M  'C2/c'
_cell_length_a       5.97363
_cell_length_b       5.97363
_cell_length_c       11.2135
_cell_angle_alpha    81.8787
_cell_angle_beta     81.8787
_cell_angle_gamma    104.419

_symmetry_Int_Tables_number  15
_chemical_formula_structural  PrAl3B4O12
_chemical_formula_sum  Pr2Al6B8O24
_cell_volume  377.10055670705515
_cell_formula_units_Z  2
loop_
  _symmetry_equiv_pos_site_id
 _symmetry_equiv_pos_as_xyz
 1  'x, y, z'
loop_
 _atom_site_type_symbol
 _atom_site_label
 _atom_site_symmetry_multiplicity
 _atom_site_fract_x
 _atom_site_fract_y
 _atom_site_fract_z
 _atom_site_fract_occupancy
 Al  Al1  1  0.69375  0.19510  0.02855  1
 Al  Al2  1  0.80490  0.30625  0.47145  1
 Al  Al3  1  0.58959  0.41041  0.25000  1
 Al  Al4  1  0.19510  0.69375  0.52855  1
 Al  Al5  1  0.30625  0.80490  0.97145  1
 Al  Al6  1  0.41041  0.58959  0.75000  1
 B  B1  1  0.77690  0.71899  0.00604  1
 B  B2  1  0.71899  0.77690  0.50604  1
 B  B3  1  0.22310  0.28101  0.99396  1
 B  B4  1  0.28101  0.22310  0.49396  1
 B  B5  1  0.49171  0.12256  0.72211  1
 B  B6  1  0.50829  0.87744  0.27789  1
 B  B7  1  0.12256  0.49171  0.22211  1
 B  B8  1  0.87744  0.50829  0.77789  1
 O  O1  1  0.30627  0.81742  0.36320  1
 O  O2  1  0.13031  0.36803  0.50390  1
 O  O3  1  0.81742  0.30627  0.86320  1
 O  O4  1  0.63197  0.86969  0.99610  1
 O  O5  1  0.86969  0.63197  0.49610  1
 O  O6  1  0.10210  0.57720  0.70547  1
 O  O7  1  0.64447  0.72871  0.25718  1
 O  O8  1  0.72871  0.64447  0.75718  1
 O  O9  1  0.69373  0.18258  0.63680  1
 O  O10  1  0.35553  0.27129  0.74282  1
 O  O11  1  0.27129  0.35553  0.24282  1
 O  O12  1  0.18258  0.69373  0.13680  1
 O  O13  1  0.36803  0.13031  0.00390  1
 O  O14  1  0.42280  0.89790  0.79453  1
 O  O15  1  0.19547  0.99716  0.56028  1
 O  O16  1  0.30337  0.50703  0.92554  1
 O  O17  1  0.80453  0.00284  0.43972  1
 O  O18  1  0.99716  0.19547  0.06028  1
 O  O19  1  0.00284  0.80453  0.93972  1
 O  O20  1  0.69663  0.49297  0.07446  1
 O  O21  1  0.57720  0.10210  0.20547  1
 O  O22  1  0.89790  0.42280  0.29453  1
 O  O23  1  0.49297  0.69663  0.57446  1
 O  O24  1  0.50703  0.30337  0.42554  1
 Pr  Pr1  1  0.03762  0.96238  0.25000  1
 Pr  Pr2  1  0.96238  0.03762  0.75000  1
