CIF file written using JARVIS-Tools package.
data_AlAsO4
_symmetry_space_group_name_H-M  'P3_121'
_cell_length_a       5.03798
_cell_length_b       5.03829
_cell_length_c       11.3693
_cell_angle_alpha    89.9973
_cell_angle_beta     89.9956
_cell_angle_gamma    59.9918

_symmetry_Int_Tables_number  152
_chemical_formula_structural  AlAsO4
_chemical_formula_sum  Al3As3O2
_cell_volume  249.89986457547673
_cell_formula_units_Z  3
loop_
  _symmetry_equiv_pos_site_id
 _symmetry_equiv_pos_as_xyz
 1  'x, y, z'
loop_
 _atom_site_type_symbol
 _atom_site_label
 _atom_site_symmetry_multiplicity
 _atom_site_fract_x
 _atom_site_fract_y
 _atom_site_fract_z
 _atom_site_fract_occupancy
 Al  Al1  1  0.00004  0.45348  0.33333  1
 Al  Al2  1  0.54654  -0.00003  0.66665  1
 Al  Al3  1  0.45343  0.54655  -0.00001  1
 As  As1  1  0.00003  0.45089  0.83332  1
 As  As2  1  0.54916  -0.00006  0.16666  1
 As  As3  1  0.45081  0.54918  0.49999  1
 O  O1  1  0.69599  0.40392  0.38326  1
 O  O2  1  0.90024  0.69591  0.71656  1
 O  O3  1  0.29378  0.10589  0.78846  1
 O  O4  1  0.59617  0.30394  0.61669  1
 O  O5  1  0.40367  0.90018  0.04998  1
 O  O6  1  0.89418  0.70621  0.21152  1
 O  O7  1  0.70635  0.39963  0.87823  1
 O  O8  1  0.30414  0.09980  0.28343  1
 O  O9  1  0.39942  0.89413  0.54493  1
 O  O10  1  0.60047  0.29354  0.12172  1
 O  O11  1  0.09976  0.59630  0.95003  1
 O  O12  1  0.10583  0.60056  0.45508  1
