CIF file written using JARVIS-Tools package.
data_Er6MnTe2
_symmetry_space_group_name_H-M  'P-62m'
_cell_length_a       3.995
_cell_length_b       8.16409
_cell_length_c       8.16451
_cell_angle_alpha    119.998
_cell_angle_beta     90
_cell_angle_gamma    90

_symmetry_Int_Tables_number  189
_chemical_formula_structural  Er6MnTe2
_chemical_formula_sum  Er6MnTe2
_cell_volume  230.6174053110725
_cell_formula_units_Z  1
loop_
  _symmetry_equiv_pos_site_id
 _symmetry_equiv_pos_as_xyz
 1  'x, y, z'
loop_
 _atom_site_type_symbol
 _atom_site_label
 _atom_site_symmetry_multiplicity
 _atom_site_fract_x
 _atom_site_fract_y
 _atom_site_fract_z
 _atom_site_fract_occupancy
 Er  Er1  1  0.50000  0.61117  0.00000  1
 Er  Er2  1  0.50000  0.38885  0.38886  1
 Er  Er3  1  0.50000  -0.00001  0.61114  1
 Er  Er4  1  0.00000  0.23321  -0.00000  1
 Er  Er5  1  0.00000  0.76673  0.76670  1
 Er  Er6  1  0.00000  0.00003  0.23330  1
 Mn  Mn1  1  0.50000  0.99991  -0.00000  1
 Te  Te1  1  0.00000  0.33335  0.66671  1
 Te  Te2  1  0.00000  0.66665  0.33329  1
