CIF file written using JARVIS-Tools package.
data_Li7VO4F2
_symmetry_space_group_name_H-M  'P1'
_cell_length_a       5.36775
_cell_length_b       5.45028
_cell_length_c       5.75497
_cell_angle_alpha    63.2876
_cell_angle_beta     64.3693
_cell_angle_gamma    60.9901

_symmetry_Int_Tables_number  1
_chemical_formula_structural  Li7VO4F2
_chemical_formula_sum  Li7VO4F2
_cell_volume  126.46884980813165
_cell_formula_units_Z  1
loop_
  _symmetry_equiv_pos_site_id
 _symmetry_equiv_pos_as_xyz
 1  'x, y, z'
loop_
 _atom_site_type_symbol
 _atom_site_label
 _atom_site_symmetry_multiplicity
 _atom_site_fract_x
 _atom_site_fract_y
 _atom_site_fract_z
 _atom_site_fract_occupancy
 F  F1  1  0.84662  0.60791  0.27436  1
 F  F2  1  0.07416  0.37826  0.78656  1
 Li  Li1  1  0.47038  0.89490  0.38939  1
 Li  Li2  1  0.75435  0.48157  0.66292  1
 Li  Li3  1  0.07670  0.75986  0.65279  1
 Li  Li4  1  0.37446  0.30052  0.00769  1
 Li  Li5  1  0.87174  0.22229  0.37329  1
 Li  Li6  1  0.50591  0.62730  0.10273  1
 Li  Li7  1  0.45912  0.10714  0.65217  1
 O  O1  1  0.36160  0.74832  0.79104  1
 O  O2  1  0.20186  0.92528  0.25319  1
 O  O3  1  0.75380  0.09430  0.76546  1
 O  O4  1  0.60292  0.20763  0.25279  1
 V  V1  1  0.97278  0.98375  0.02760  1
