CIF file written using JARVIS-Tools package.
data_Li5CoO3F
_symmetry_space_group_name_H-M  'C2/m'
_cell_length_a       6.48001
_cell_length_b       6.48001
_cell_length_c       4.67995
_cell_angle_alpha    79.8558
_cell_angle_beta     79.8558
_cell_angle_gamma    88.8818

_symmetry_Int_Tables_number  12
_chemical_formula_structural  Li5CoO3F
_chemical_formula_sum  Li0Co2O6F2
_cell_volume  190.40430214523158
_cell_formula_units_Z  2
loop_
  _symmetry_equiv_pos_site_id
 _symmetry_equiv_pos_as_xyz
 1  'x, y, z'
loop_
 _atom_site_type_symbol
 _atom_site_label
 _atom_site_symmetry_multiplicity
 _atom_site_fract_x
 _atom_site_fract_y
 _atom_site_fract_z
 _atom_site_fract_occupancy
 Co  Co1  1  0.49637  0.49637  0.50091  1
 Co  Co2  1  0.75363  0.75363  0.74909  1
 F  F1  1  0.27287  0.97713  0.12500  1
 F  F2  1  0.97713  0.27287  0.12500  1
 Li  Li1  1  0.29428  0.69441  0.99819  1
 Li  Li2  1  0.55559  0.95572  0.25181  1
 Li  Li3  1  0.95572  0.55559  0.25181  1
 Li  Li4  1  0.04111  0.46599  0.74278  1
 Li  Li5  1  0.98451  0.98451  0.00645  1
 Li  Li6  1  0.78401  0.20889  0.50722  1
 Li  Li7  1  0.20889  0.78401  0.50722  1
 Li  Li8  1  0.46599  0.04111  0.74278  1
 Li  Li9  1  0.69441  0.29428  0.99819  1
 Li  Li10  1  0.26549  0.26549  0.24355  1
 O  O1  1  0.23039  0.52361  0.37782  1
 O  O2  1  0.76362  0.48638  0.62500  1
 O  O3  1  0.52361  0.23039  0.37782  1
 O  O4  1  0.48638  0.76362  0.62500  1
 O  O5  1  0.72639  0.01961  0.87218  1
 O  O6  1  0.01961  0.72639  0.87218  1
