CIF file written using JARVIS-Tools package.
data_K2Tc
_symmetry_space_group_name_H-M  'P-62m'
_cell_length_a       2.7502
_cell_length_b       10.3591
_cell_length_c       10.3617
_cell_angle_alpha    119.992
_cell_angle_beta     90
_cell_angle_gamma    90

_symmetry_Int_Tables_number  189
_chemical_formula_structural  K2Tc
_chemical_formula_sum  K6Tc3
_cell_volume  255.67311859695323
_cell_formula_units_Z  3
loop_
  _symmetry_equiv_pos_site_id
 _symmetry_equiv_pos_as_xyz
 1  'x, y, z'
loop_
 _atom_site_type_symbol
 _atom_site_label
 _atom_site_symmetry_multiplicity
 _atom_site_fract_x
 _atom_site_fract_y
 _atom_site_fract_z
 _atom_site_fract_occupancy
 K  K1  1  0.00000  0.65442  -0.00000  1
 K  K2  1  0.00000  0.34565  0.34564  1
 K  K3  1  0.00000  0.00001  0.65436  1
 K  K4  1  0.50000  0.32102  -0.00000  1
 K  K5  1  0.50000  0.67891  0.67895  1
 K  K6  1  0.50000  0.99996  0.32105  1
 Tc  Tc1  1  0.00000  0.99995  -0.00000  1
 Tc  Tc2  1  0.50000  0.33332  0.66666  1
 Tc  Tc3  1  0.50000  0.66666  0.33334  1
