CIF file written using JARVIS-Tools package.
data_BaVS3
_symmetry_space_group_name_H-M  'Cmc2_1'
_cell_length_a       5.61204
_cell_length_b       6.73182
_cell_length_c       6.73182
_cell_angle_alpha    119.565
_cell_angle_beta     90
_cell_angle_gamma    90

_symmetry_Int_Tables_number  36
_chemical_formula_structural  BaVS3
_chemical_formula_sum  Ba2V2S6
_cell_volume  221.2096412920664
_cell_formula_units_Z  2
loop_
  _symmetry_equiv_pos_site_id
 _symmetry_equiv_pos_as_xyz
 1  'x, y, z'
loop_
 _atom_site_type_symbol
 _atom_site_label
 _atom_site_symmetry_multiplicity
 _atom_site_fract_x
 _atom_site_fract_y
 _atom_site_fract_z
 _atom_site_fract_occupancy
 Ba  Ba1  1  0.25100  0.66370  0.33630  1
 Ba  Ba2  1  0.75100  0.33630  0.66370  1
 S  S1  1  0.24410  0.16194  0.32520  1
 S  S2  1  0.74410  0.83806  0.67480  1
 S  S3  1  0.24410  0.67480  0.83806  1
 S  S4  1  0.74410  0.32520  0.16194  1
 S  S5  1  0.76057  0.83004  0.16996  1
 S  S6  1  0.26057  0.16996  0.83004  1
 V  V1  1  0.50912  0.97680  0.02320  1
 V  V2  1  0.00912  0.02320  0.97680  1
