CIF file written using JARVIS-Tools package.
data_RbNdSe2
_symmetry_space_group_name_H-M  'R-3m'
_cell_length_a       8.32091
_cell_length_b       8.32091
_cell_length_c       8.32091
_cell_angle_alpha    30.3178
_cell_angle_beta     30.3178
_cell_angle_gamma    30.3177

_symmetry_Int_Tables_number  166
_chemical_formula_structural  RbNdSe2
_chemical_formula_sum  RbNdSe2
_cell_volume  130.09939627718157
_cell_formula_units_Z  1
loop_
  _symmetry_equiv_pos_site_id
 _symmetry_equiv_pos_as_xyz
 1  'x, y, z'
loop_
 _atom_site_type_symbol
 _atom_site_label
 _atom_site_symmetry_multiplicity
 _atom_site_fract_x
 _atom_site_fract_y
 _atom_site_fract_z
 _atom_site_fract_occupancy
 Nd  Nd1  1  0.50000  0.50000  0.50000  1
 Rb  Rb1  1  0.00000  0.00000  0.00000  1
 Se  Se1  1  0.23468  0.23468  0.23468  1
 Se  Se2  1  0.76532  0.76532  0.76532  1
