CIF file written using JARVIS-Tools package.
data_MgWO4
_symmetry_space_group_name_H-M  'P2/c'
_cell_length_a       5.46999
_cell_length_b       5.54925
_cell_length_c       5.49707
_cell_angle_alpha    90
_cell_angle_beta     90
_cell_angle_gamma    63.484

_symmetry_Int_Tables_number  13
_chemical_formula_structural  MgWO4
_chemical_formula_sum  Mg2W2O8
_cell_volume  149.30812691009533
_cell_formula_units_Z  2
loop_
  _symmetry_equiv_pos_site_id
 _symmetry_equiv_pos_as_xyz
 1  'x, y, z'
loop_
 _atom_site_type_symbol
 _atom_site_label
 _atom_site_symmetry_multiplicity
 _atom_site_fract_x
 _atom_site_fract_y
 _atom_site_fract_z
 _atom_site_fract_occupancy
 Mg  Mg1  1  0.50000  0.25000  0.63345  1
 Mg  Mg2  1  0.50000  0.75000  0.36655  1
 O  O1  1  0.27844  0.67558  0.63339  1
 O  O2  1  0.27844  0.17558  0.36661  1
 O  O3  1  0.72156  0.32442  0.36661  1
 O  O4  1  0.80898  0.65123  0.11426  1
 O  O5  1  0.19102  0.34877  0.88574  1
 O  O6  1  0.19102  0.84877  0.11426  1
 O  O7  1  0.72156  0.82442  0.63339  1
 O  O8  1  0.80898  0.15123  0.88574  1
 W  W1  1  -0.00000  0.25000  0.15189  1
 W  W2  1  -0.00000  0.75000  0.84811  1
