CIF file written using JARVIS-Tools package.
data_FeSbO4
_symmetry_space_group_name_H-M  'Cmmm'
_cell_length_a       3.09085
_cell_length_b       4.71103
_cell_length_c       4.71103
_cell_angle_alpha    92.3569
_cell_angle_beta     90
_cell_angle_gamma    90

_symmetry_Int_Tables_number  65
_chemical_formula_structural  FeSbO4
_chemical_formula_sum  FeSbO4
_cell_volume  68.53938788846219
_cell_formula_units_Z  1
loop_
  _symmetry_equiv_pos_site_id
 _symmetry_equiv_pos_as_xyz
 1  'x, y, z'
loop_
 _atom_site_type_symbol
 _atom_site_label
 _atom_site_symmetry_multiplicity
 _atom_site_fract_x
 _atom_site_fract_y
 _atom_site_fract_z
 _atom_site_fract_occupancy
 Fe  Fe1  1  0.50000  0.50000  0.50000  1
 O  O1  1  0.00000  0.30734  0.30734  1
 O  O2  1  0.00000  0.69266  0.69266  1
 O  O3  1  0.50000  0.80653  0.19347  1
 O  O4  1  0.50000  0.19347  0.80653  1
 Sb  Sb1  1  0.00000  0.00000  0.00000  1
