CIF file written using JARVIS-Tools package.
data_ErCu4Au
_symmetry_space_group_name_H-M  'F-43m'
_cell_length_a       5.0221
_cell_length_b       5.0221
_cell_length_c       5.0221
_cell_angle_alpha    60
_cell_angle_beta     60
_cell_angle_gamma    60

_symmetry_Int_Tables_number  216
_chemical_formula_structural  ErCu4Au
_chemical_formula_sum  ErCu4Au
_cell_volume  89.56538933066439
_cell_formula_units_Z  1
loop_
  _symmetry_equiv_pos_site_id
 _symmetry_equiv_pos_as_xyz
 1  'x, y, z'
loop_
 _atom_site_type_symbol
 _atom_site_label
 _atom_site_symmetry_multiplicity
 _atom_site_fract_x
 _atom_site_fract_y
 _atom_site_fract_z
 _atom_site_fract_occupancy
 Au  Au1  1  0.25000  0.25000  0.25000  1
 Cu  Cu1  1  0.12685  0.62438  0.62438  1
 Cu  Cu2  1  0.62438  0.12685  0.62438  1
 Cu  Cu3  1  0.62438  0.62438  0.12685  1
 Cu  Cu4  1  0.62438  0.62438  0.62438  1
 Er  Er1  1  0.00000  0.00000  0.00000  1
