CIF file written using JARVIS-Tools package.
data_BMo2
_symmetry_space_group_name_H-M  'I4/mcm'
_cell_length_a       4.5999
_cell_length_b       4.59989
_cell_length_c       4.5999
_cell_angle_alpha    105.729
_cell_angle_beta     105.729
_cell_angle_gamma    117.247

_symmetry_Int_Tables_number  140
_chemical_formula_structural  BMo2
_chemical_formula_sum  B2Mo4
_cell_volume  73.87609489237451
_cell_formula_units_Z  2
loop_
  _symmetry_equiv_pos_site_id
 _symmetry_equiv_pos_as_xyz
 1  'x, y, z'
loop_
 _atom_site_type_symbol
 _atom_site_label
 _atom_site_symmetry_multiplicity
 _atom_site_fract_x
 _atom_site_fract_y
 _atom_site_fract_z
 _atom_site_fract_occupancy
 B  B1  1  0.75000  0.75000  -0.00000  1
 B  B2  1  0.25000  0.25000  -0.00000  1
 Mo  Mo1  1  0.83035  0.66965  0.50000  1
 Mo  Mo2  1  0.33035  0.83035  0.16071  1
 Mo  Mo3  1  0.16965  0.33035  0.50000  1
 Mo  Mo4  1  0.66965  0.16965  0.83929  1
