CIF file written using JARVIS-Tools package.
data_TiVO4
_symmetry_space_group_name_H-M  'I-4m2'
_cell_length_a       5.4469
_cell_length_b       5.4469
_cell_length_c       5.4469
_cell_angle_alpha    139.416
_cell_angle_beta     139.416
_cell_angle_gamma    58.7407

_symmetry_Int_Tables_number  119
_chemical_formula_structural  TiVO4
_chemical_formula_sum  TiVO4
_cell_volume  67.7522513902105
_cell_formula_units_Z  1
loop_
  _symmetry_equiv_pos_site_id
 _symmetry_equiv_pos_as_xyz
 1  'x, y, z'
loop_
 _atom_site_type_symbol
 _atom_site_label
 _atom_site_symmetry_multiplicity
 _atom_site_fract_x
 _atom_site_fract_y
 _atom_site_fract_z
 _atom_site_fract_occupancy
 O  O1  1  0.53724  0.03724  0.50000  1
 O  O2  1  0.20574  0.20574  0.00000  1
 O  O3  1  0.96276  0.46276  0.50000  1
 O  O4  1  0.79426  0.79426  -0.00000  1
 Ti  Ti1  1  0.75000  0.25000  0.50000  1
 V  V1  1  0.00000  0.00000  0.00000  1
