CIF file written using JARVIS-Tools package.
data_ZrTaBe
_symmetry_space_group_name_H-M  'I4mm'
_cell_length_a       6.37928
_cell_length_b       6.37928
_cell_length_c       6.37928
_cell_angle_alpha    154.073
_cell_angle_beta     154.073
_cell_angle_gamma    36.9933

_symmetry_Int_Tables_number  107
_chemical_formula_structural  ZrTaBe
_chemical_formula_sum  ZrTaBe
_cell_volume  49.55799945705222
_cell_formula_units_Z  1
loop_
  _symmetry_equiv_pos_site_id
 _symmetry_equiv_pos_as_xyz
 1  'x, y, z'
loop_
 _atom_site_type_symbol
 _atom_site_label
 _atom_site_symmetry_multiplicity
 _atom_site_fract_x
 _atom_site_fract_y
 _atom_site_fract_z
 _atom_site_fract_occupancy
 Be  Be1  1  0.99364  0.99364  0.00000  1
 Ta  Ta1  1  0.35726  0.35726  0.00000  1
 Zr  Zr1  1  0.64910  0.64910  0.00000  1
