CIF file written using JARVIS-Tools package.
data_KBe2B3O7
_symmetry_space_group_name_H-M  'C2/c'
_cell_length_a       6.91738
_cell_length_b       6.91738
_cell_length_c       6.48957
_cell_angle_alpha    71.6941
_cell_angle_beta     71.6941
_cell_angle_gamma    81.7747

_symmetry_Int_Tables_number  15
_chemical_formula_structural  KBe2B3O7
_chemical_formula_sum  K2Be4B6O4
_cell_volume  279.553064055847
_cell_formula_units_Z  2
loop_
  _symmetry_equiv_pos_site_id
 _symmetry_equiv_pos_as_xyz
 1  'x, y, z'
loop_
 _atom_site_type_symbol
 _atom_site_label
 _atom_site_symmetry_multiplicity
 _atom_site_fract_x
 _atom_site_fract_y
 _atom_site_fract_z
 _atom_site_fract_occupancy
 B  B1  1  0.77005  0.73382  0.68211  1
 B  B2  1  0.22995  0.26618  0.31789  1
 B  B3  1  0.45143  0.54857  0.25000  1
 B  B4  1  0.73382  0.77005  0.18211  1
 B  B5  1  0.54857  0.45143  0.75000  1
 B  B6  1  0.26618  0.22995  0.81789  1
 Be  Be1  1  0.63533  0.05736  0.84156  1
 Be  Be2  1  0.94264  0.36467  0.65844  1
 Be  Be3  1  0.05736  0.63533  0.34156  1
 Be  Be4  1  0.36467  0.94264  0.15844  1
 K  K1  1  0.82157  0.17843  0.25000  1
 K  K2  1  0.17843  0.82157  0.75000  1
 O  O1  1  0.92245  0.77858  0.19310  1
 O  O2  1  0.70052  0.29948  0.75000  1
 O  O3  1  0.38644  0.05671  0.88147  1
 O  O4  1  0.94329  0.61356  0.61853  1
 O  O5  1  0.61356  0.94329  0.11853  1
 O  O6  1  0.29948  0.70052  0.25000  1
 O  O7  1  0.57991  0.64944  0.73409  1
 O  O8  1  0.64944  0.57991  0.23409  1
 O  O9  1  0.42009  0.35056  0.26591  1
 O  O10  1  0.07755  0.22142  0.80690  1
 O  O11  1  0.77858  0.92245  0.69310  1
 O  O12  1  0.05671  0.38644  0.38147  1
 O  O13  1  0.35056  0.42009  0.76591  1
 O  O14  1  0.22142  0.07755  0.30690  1
