CIF file written using JARVIS-Tools package.
data_LiBH
_symmetry_space_group_name_H-M  'Pnma'
_cell_length_a       3.07472
_cell_length_b       5.1831
_cell_length_c       6.56473
_cell_angle_alpha    90
_cell_angle_beta     90
_cell_angle_gamma    90

_symmetry_Int_Tables_number  62
_chemical_formula_structural  LiBH
_chemical_formula_sum  Li4B4H4
_cell_volume  104.6194163871134
_cell_formula_units_Z  4
loop_
  _symmetry_equiv_pos_site_id
 _symmetry_equiv_pos_as_xyz
 1  'x, y, z'
loop_
 _atom_site_type_symbol
 _atom_site_label
 _atom_site_symmetry_multiplicity
 _atom_site_fract_x
 _atom_site_fract_y
 _atom_site_fract_z
 _atom_site_fract_occupancy
 B  B1  1  0.25000  0.93954  0.00614  1
 B  B2  1  0.25000  0.43954  0.49386  1
 B  B3  1  0.75000  0.56046  0.50614  1
 B  B4  1  0.75000  0.06046  0.99386  1
 H  H1  1  0.25000  0.19375  0.50516  1
 H  H2  1  0.25000  0.69375  -0.00516  1
 H  H3  1  0.75000  0.80625  0.49484  1
 H  H4  1  0.75000  0.30625  0.00516  1
 Li  Li1  1  0.75000  0.17290  0.32965  1
 Li  Li2  1  0.25000  0.32710  0.82965  1
 Li  Li3  1  0.75000  0.67290  0.17035  1
 Li  Li4  1  0.25000  0.82710  0.67035  1
