CIF file written using JARVIS-Tools package.
data_CaHg3
_symmetry_space_group_name_H-M  'P6_3/mmc'
_cell_length_a       5.16622
_cell_length_b       6.68075
_cell_length_c       6.68075
_cell_angle_alpha    119.986
_cell_angle_beta     90
_cell_angle_gamma    90

_symmetry_Int_Tables_number  194
_chemical_formula_structural  CaHg3
_chemical_formula_sum  Ca2Hg6
_cell_volume  199.71784012808325
_cell_formula_units_Z  2
loop_
  _symmetry_equiv_pos_site_id
 _symmetry_equiv_pos_as_xyz
 1  'x, y, z'
loop_
 _atom_site_type_symbol
 _atom_site_label
 _atom_site_symmetry_multiplicity
 _atom_site_fract_x
 _atom_site_fract_y
 _atom_site_fract_z
 _atom_site_fract_occupancy
 Ca  Ca1  1  0.75000  0.66665  0.33335  1
 Ca  Ca2  1  0.25000  0.33335  0.66665  1
 Hg  Hg1  1  0.75000  0.16482  0.32976  1
 Hg  Hg2  1  0.75000  0.16477  0.83523  1
 Hg  Hg3  1  0.75000  0.67024  0.83518  1
 Hg  Hg4  1  0.25000  0.83518  0.67024  1
 Hg  Hg5  1  0.25000  0.83523  0.16477  1
 Hg  Hg6  1  0.25000  0.32976  0.16482  1
