CIF file written using JARVIS-Tools package.
data_Sc3OsC4
_symmetry_space_group_name_H-M  'Immm'
_cell_length_a       3.33588
_cell_length_b       4.49418
_cell_length_c       6.80872
_cell_angle_alpha    109.271
_cell_angle_beta     104.18
_cell_angle_gamma    90

_symmetry_Int_Tables_number  71
_chemical_formula_structural  Sc3OsC4
_chemical_formula_sum  Sc3OsC4
_cell_volume  93.05611723152252
_cell_formula_units_Z  1
loop_
  _symmetry_equiv_pos_site_id
 _symmetry_equiv_pos_as_xyz
 1  'x, y, z'
loop_
 _atom_site_type_symbol
 _atom_site_label
 _atom_site_symmetry_multiplicity
 _atom_site_fract_x
 _atom_site_fract_y
 _atom_site_fract_z
 _atom_site_fract_occupancy
 C  C1  1  0.87120  0.21175  0.74239  1
 C  C2  1  0.12880  0.78825  0.25761  1
 C  C3  1  0.12880  0.46936  0.25761  1
 C  C4  1  0.87120  0.53064  0.74239  1
 Os  Os1  1  0.00000  0.00000  0.00000  1
 Sc  Sc1  1  0.50000  0.50000  0.00000  1
 Sc  Sc2  1  0.30956  0.80956  0.61912  1
 Sc  Sc3  1  0.69044  0.19044  0.38088  1
