CIF file written using JARVIS-Tools package.
data_NaLiCO3
_symmetry_space_group_name_H-M  'P-6m2'
_cell_length_a       7.91008
_cell_length_b       7.91008
_cell_length_c       4.56089
_cell_angle_alpha    90
_cell_angle_beta     90
_cell_angle_gamma    120

_symmetry_Int_Tables_number  187
_chemical_formula_structural  NaLiCO3
_chemical_formula_sum  Na3Li3C3O9
_cell_volume  247.13942915741842
_cell_formula_units_Z  3
loop_
  _symmetry_equiv_pos_site_id
 _symmetry_equiv_pos_as_xyz
 1  'x, y, z'
loop_
 _atom_site_type_symbol
 _atom_site_label
 _atom_site_symmetry_multiplicity
 _atom_site_fract_x
 _atom_site_fract_y
 _atom_site_fract_z
 _atom_site_fract_occupancy
 C  C1  1  0.33333  0.66667  0.50000  1
 C  C2  1  0.66667  0.33333  0.50000  1
 C  C3  1  0.00000  0.00000  0.00000  1
 Li  Li1  1  0.49400  0.50600  0.50000  1
 Li  Li2  1  0.01201  0.50600  0.50000  1
 Li  Li3  1  0.49400  0.98799  0.50000  1
 Na  Na1  1  0.66667  0.33333  0.00000  1
 Na  Na2  1  0.33333  0.66667  0.00000  1
 Na  Na3  1  0.00000  0.00000  0.50000  1
 O  O1  1  0.17798  0.82202  0.00000  1
 O  O2  1  0.64405  0.82202  0.00000  1
 O  O3  1  0.48826  0.51174  0.00000  1
 O  O4  1  0.17798  0.35595  0.00000  1
 O  O5  1  0.90524  0.81048  0.00000  1
 O  O6  1  0.02347  0.51174  0.00000  1
 O  O7  1  0.90524  0.09476  0.00000  1
 O  O8  1  0.48826  0.97653  0.00000  1
 O  O9  1  0.18952  0.09476  0.00000  1
