CIF file written using JARVIS-Tools package.
data_K2OsO6
_symmetry_space_group_name_H-M  'I4/m'
_cell_length_a       5.90943
_cell_length_b       5.90943
_cell_length_c       5.91456
_cell_angle_alpha    119.971
_cell_angle_beta     119.971
_cell_angle_gamma    90

_symmetry_Int_Tables_number  87
_chemical_formula_structural  K2OsO6
_chemical_formula_sum  K2OsO6
_cell_volume  146.1753084842533
_cell_formula_units_Z  1
loop_
  _symmetry_equiv_pos_site_id
 _symmetry_equiv_pos_as_xyz
 1  'x, y, z'
loop_
 _atom_site_type_symbol
 _atom_site_label
 _atom_site_symmetry_multiplicity
 _atom_site_fract_x
 _atom_site_fract_y
 _atom_site_fract_z
 _atom_site_fract_occupancy
 K  K1  1  0.25000  0.75000  0.50000  1
 K  K2  1  0.75000  0.25000  0.50000  1
 O  O1  1  0.22236  0.22236  0.44472  1
 O  O2  1  0.77764  0.77764  0.55528  1
 O  O3  1  0.22169  0.22378  1.00000  1
 O  O4  1  0.77831  0.77622  0.00000  1
 O  O5  1  0.77622  0.22169  0.00000  1
 O  O6  1  0.22378  0.77831  1.00000  1
 Os  Os1  1  0.00000  0.00000  0.00000  1
