CIF file written using JARVIS-Tools package.
data_U2AlCu3
_symmetry_space_group_name_H-M  'P6_3/mmc'
_cell_length_a       5.46066
_cell_length_b       5.46066
_cell_length_c       7.8242
_cell_angle_alpha    90
_cell_angle_beta     90
_cell_angle_gamma    120

_symmetry_Int_Tables_number  194
_chemical_formula_structural  U2AlCu3
_chemical_formula_sum  U4Al2Cu6
_cell_volume  202.05118050790747
_cell_formula_units_Z  2
loop_
  _symmetry_equiv_pos_site_id
 _symmetry_equiv_pos_as_xyz
 1  'x, y, z'
loop_
 _atom_site_type_symbol
 _atom_site_label
 _atom_site_symmetry_multiplicity
 _atom_site_fract_x
 _atom_site_fract_y
 _atom_site_fract_z
 _atom_site_fract_occupancy
 Al  Al1  1  0.00000  0.00000  0.50000  1
 Al  Al2  1  0.00000  0.00000  0.00000  1
 Cu  Cu1  1  0.17234  0.82766  0.75000  1
 Cu  Cu2  1  0.34468  0.17234  0.25000  1
 Cu  Cu3  1  0.82766  0.17234  0.25000  1
 Cu  Cu4  1  0.65532  0.82766  0.75000  1
 Cu  Cu5  1  0.17234  0.34468  0.75000  1
 Cu  Cu6  1  0.82766  0.65532  0.25000  1
 U  U1  1  0.33333  0.66667  0.42022  1
 U  U2  1  0.66667  0.33333  0.92022  1
 U  U3  1  0.66667  0.33333  0.57978  1
 U  U4  1  0.33333  0.66667  0.07978  1
