CIF file written using JARVIS-Tools package.
data_CuSe2Cl
_symmetry_space_group_name_H-M  'P2_1/c'
_cell_length_a       7.75428
_cell_length_b       4.87468
_cell_length_c       11.4211
_cell_angle_alpha    90
_cell_angle_beta     117.156
_cell_angle_gamma    90

_symmetry_Int_Tables_number  14
_chemical_formula_structural  CuSe2Cl
_chemical_formula_sum  Cu4Se8Cl4
_cell_volume  384.1243639804325
_cell_formula_units_Z  4
loop_
  _symmetry_equiv_pos_site_id
 _symmetry_equiv_pos_as_xyz
 1  'x, y, z'
loop_
 _atom_site_type_symbol
 _atom_site_label
 _atom_site_symmetry_multiplicity
 _atom_site_fract_x
 _atom_site_fract_y
 _atom_site_fract_z
 _atom_site_fract_occupancy
 Cl  Cl1  1  0.90219  0.57681  0.11128  1
 Cl  Cl2  1  0.09781  0.07681  0.38872  1
 Cl  Cl3  1  0.09781  0.42319  0.88872  1
 Cl  Cl4  1  0.90219  0.92319  0.61128  1
 Cu  Cu1  1  0.17554  0.32901  0.24707  1
 Cu  Cu2  1  0.82446  0.82901  0.25293  1
 Cu  Cu3  1  0.82446  0.67099  0.75293  1
 Cu  Cu4  1  0.17554  0.17099  0.74707  1
 Se  Se1  1  0.29306  0.50404  0.64743  1
 Se  Se2  1  0.70694  0.00404  0.85257  1
 Se  Se3  1  0.70694  0.49596  0.35257  1
 Se  Se4  1  0.29306  -0.00404  0.14743  1
 Se  Se5  1  0.57589  0.33341  0.65274  1
 Se  Se6  1  0.42411  0.83341  0.84726  1
 Se  Se7  1  0.42411  0.66659  0.34726  1
 Se  Se8  1  0.57589  0.16659  0.15274  1
