CIF file written using JARVIS-Tools package.
data_BaSi2
_symmetry_space_group_name_H-M  'Pnma'
_cell_length_a       6.77201
_cell_length_b       8.98355
_cell_length_c       11.5998
_cell_angle_alpha    90
_cell_angle_beta     90
_cell_angle_gamma    90

_symmetry_Int_Tables_number  62
_chemical_formula_structural  BaSi2
_chemical_formula_sum  Ba8Si6
_cell_volume  705.6966795594832
_cell_formula_units_Z  8
loop_
  _symmetry_equiv_pos_site_id
 _symmetry_equiv_pos_as_xyz
 1  'x, y, z'
loop_
 _atom_site_type_symbol
 _atom_site_label
 _atom_site_symmetry_multiplicity
 _atom_site_fract_x
 _atom_site_fract_y
 _atom_site_fract_z
 _atom_site_fract_occupancy
 Ba  Ba1  1  0.75000  0.98509  0.30733  1
 Ba  Ba2  1  0.75000  0.48509  0.19267  1
 Ba  Ba3  1  0.25000  0.51491  0.80733  1
 Ba  Ba4  1  0.75000  0.16017  0.90604  1
 Ba  Ba5  1  0.25000  0.83983  0.09396  1
 Ba  Ba6  1  0.75000  0.66017  0.59396  1
 Ba  Ba7  1  0.25000  0.33983  0.40604  1
 Ba  Ba8  1  0.25000  0.01491  0.69267  1
 Si  Si1  1  0.42924  0.69383  0.35433  1
 Si  Si2  1  0.57076  0.80617  0.85433  1
 Si  Si3  1  0.07076  0.19383  0.14567  1
 Si  Si4  1  0.07076  0.69383  0.35433  1
 Si  Si5  1  0.57076  0.30617  0.64567  1
 Si  Si6  1  0.42924  0.19383  0.14567  1
 Si  Si7  1  0.92924  0.80617  0.85433  1
 Si  Si8  1  0.75000  0.58169  0.90953  1
 Si  Si9  1  0.25000  0.19688  0.96471  1
 Si  Si10  1  0.92924  0.30617  0.64567  1
 Si  Si11  1  0.75000  0.30312  0.46471  1
 Si  Si12  1  0.25000  0.41831  0.09047  1
 Si  Si13  1  0.75000  0.08169  0.59047  1
 Si  Si14  1  0.25000  0.91831  0.40953  1
 Si  Si15  1  0.75000  0.80312  0.03529  1
 Si  Si16  1  0.25000  0.69688  0.53529  1
