CIF file written using JARVIS-Tools package.
data_Li4Ti3Fe3Ni2O16
_symmetry_space_group_name_H-M  'Cm'
_cell_length_a       5.72063
_cell_length_b       5.72059
_cell_length_c       9.48225
_cell_angle_alpha    90.6527
_cell_angle_beta     90.6444
_cell_angle_gamma    60.5537

_symmetry_Int_Tables_number  8
_chemical_formula_structural  Li4Ti3Fe3Ni2O16
_chemical_formula_sum  Li4Ti3Fe3Ni2O6
_cell_volume  270.2007223129241
_cell_formula_units_Z  1
loop_
  _symmetry_equiv_pos_site_id
 _symmetry_equiv_pos_as_xyz
 1  'x, y, z'
loop_
 _atom_site_type_symbol
 _atom_site_label
 _atom_site_symmetry_multiplicity
 _atom_site_fract_x
 _atom_site_fract_y
 _atom_site_fract_z
 _atom_site_fract_occupancy
 Fe  Fe1  1  0.82460  0.34383  0.28702  1
 Fe  Fe2  1  0.17070  0.17097  0.78806  1
 Fe  Fe3  1  0.34383  0.82460  0.28703  1
 Li  Li1  1  0.32527  0.32523  0.10670  1
 Li  Li2  1  0.01318  0.01328  0.50149  1
 Li  Li3  1  0.01379  0.01395  0.00500  1
 Li  Li4  1  0.65987  0.65979  0.60208  1
 Ni  Ni1  1  0.33284  0.33289  0.50897  1
 Ni  Ni2  1  0.66653  0.66650  0.01530  1
 O  O1  1  0.16737  0.67839  0.39787  1
 O  O2  1  0.51305  0.51299  0.17042  1
 O  O3  1  0.33470  0.33485  0.90087  1
 O  O4  1  0.47853  0.47850  0.66179  1
 O  O5  1  0.00161  0.00171  0.68498  1
 O  O6  1  0.00565  0.00559  0.18907  1
 O  O7  1  0.67835  0.16741  0.39786  1
 O  O8  1  0.47194  0.03058  0.66354  1
 O  O9  1  0.32816  0.84399  0.89582  1
 O  O10  1  0.51120  0.95679  0.16337  1
 O  O11  1  0.95683  0.51114  0.16336  1
 O  O12  1  0.66489  0.66493  0.39688  1
 O  O13  1  0.03059  0.47198  0.66357  1
 O  O14  1  0.83999  0.84001  0.90035  1
 O  O15  1  0.16330  0.16333  0.38805  1
 O  O16  1  0.84385  0.32825  0.89580  1
 Ti  Ti1  1  0.83337  0.83335  0.28641  1
 Ti  Ti2  1  0.66112  0.16424  0.78525  1
 Ti  Ti3  1  0.16460  0.66122  0.78523  1
