CIF file written using JARVIS-Tools package.
data_MgZn3
_symmetry_space_group_name_H-M  'Imm2'
_cell_length_a       2.99734
_cell_length_b       9.03498
_cell_length_c       4.90604
_cell_angle_alpha    90
_cell_angle_beta     90
_cell_angle_gamma    90

_symmetry_Int_Tables_number  44
_chemical_formula_structural  MgZn3
_chemical_formula_sum  Mg2Zn6
_cell_volume  132.86033492545252
_cell_formula_units_Z  2
loop_
  _symmetry_equiv_pos_site_id
 _symmetry_equiv_pos_as_xyz
 1  'x, y, z'
loop_
 _atom_site_type_symbol
 _atom_site_label
 _atom_site_symmetry_multiplicity
 _atom_site_fract_x
 _atom_site_fract_y
 _atom_site_fract_z
 _atom_site_fract_occupancy
 Mg  Mg1  1  0.00000  0.00000  0.34465  1
 Mg  Mg2  1  0.50000  0.50000  0.84465  1
 Zn  Zn1  1  0.50000  0.00000  0.83348  1
 Zn  Zn2  1  0.00000  0.24471  0.99426  1
 Zn  Zn3  1  0.50000  0.25529  0.49426  1
 Zn  Zn4  1  0.00000  0.50000  0.33348  1
 Zn  Zn5  1  0.50000  0.74471  0.49426  1
 Zn  Zn6  1  0.00000  0.75529  0.99426  1
