CIF file written using JARVIS-Tools package.
data_KNbCu2Se4
_symmetry_space_group_name_H-M  'Ama2'
_cell_length_a       5.70094
_cell_length_b       7.70618
_cell_length_c       9.88078
_cell_angle_alpha    90
_cell_angle_beta     106.767
_cell_angle_gamma    90

_symmetry_Int_Tables_number  40
_chemical_formula_structural  KNbCu2Se4
_chemical_formula_sum  K2Nb2Cu4Se8
_cell_volume  415.63175263618194
_cell_formula_units_Z  2
loop_
  _symmetry_equiv_pos_site_id
 _symmetry_equiv_pos_as_xyz
 1  'x, y, z'
loop_
 _atom_site_type_symbol
 _atom_site_label
 _atom_site_symmetry_multiplicity
 _atom_site_fract_x
 _atom_site_fract_y
 _atom_site_fract_z
 _atom_site_fract_occupancy
 Cu  Cu1  1  0.10846  0.25000  0.21702  1
 Cu  Cu2  1  0.89144  0.75000  0.78298  1
 Cu  Cu3  1  0.48088  0.50000  0.00000  1
 Cu  Cu4  1  0.48088  0.00000  0.00000  1
 K  K1  1  0.92512  0.75000  0.36463  1
 K  K2  1  0.56050  0.25000  0.63537  1
 Nb  Nb1  1  0.61055  0.25000  0.22182  1
 Nb  Nb2  1  0.38874  0.75000  0.77818  1
 Se  Se1  1  0.75183  0.25000  0.00576  1
 Se  Se2  1  0.14103  0.49064  0.78166  1
 Se  Se3  1  0.53576  0.75000  0.57074  1
 Se  Se4  1  0.74607  0.75000  0.99424  1
 Se  Se5  1  0.96502  0.25000  0.42926  1
 Se  Se6  1  0.14103  0.00936  0.78166  1
 Se  Se7  1  0.35937  0.99064  0.21834  1
 Se  Se8  1  0.35937  0.50936  0.21834  1
