CIF file written using JARVIS-Tools package.
data_La2Pd2O5
_symmetry_space_group_name_H-M  'P4_2/m'
_cell_length_a       5.653
_cell_length_b       6.72468
_cell_length_c       6.72468
_cell_angle_alpha    90
_cell_angle_beta     90
_cell_angle_gamma    90

_symmetry_Int_Tables_number  84
_chemical_formula_structural  La2Pd2O5
_chemical_formula_sum  La4Pd4O0
_cell_volume  255.6362342795556
_cell_formula_units_Z  2
loop_
  _symmetry_equiv_pos_site_id
 _symmetry_equiv_pos_as_xyz
 1  'x, y, z'
loop_
 _atom_site_type_symbol
 _atom_site_label
 _atom_site_symmetry_multiplicity
 _atom_site_fract_x
 _atom_site_fract_y
 _atom_site_fract_z
 _atom_site_fract_occupancy
 La  La1  1  0.50000  0.10727  0.73708  1
 La  La2  1  0.00000  0.73708  0.89273  1
 La  La3  1  0.50000  0.89273  0.26292  1
 La  La4  1  0.00000  0.26292  0.10727  1
 O  O1  1  0.25000  0.00000  0.00000  1
 O  O2  1  0.75791  0.40538  0.80024  1
 O  O3  1  0.74209  0.19976  0.40538  1
 O  O4  1  0.25791  0.80024  0.59462  1
 O  O5  1  0.75000  0.00000  0.00000  1
 O  O6  1  0.75791  0.59462  0.19976  1
 O  O7  1  0.74209  0.80024  0.59462  1
 O  O8  1  0.25791  0.19976  0.40538  1
 O  O9  1  0.24209  0.59462  0.19976  1
 O  O10  1  0.24209  0.40538  0.80024  1
 Pd  Pd1  1  0.50000  0.59531  0.69100  1
 Pd  Pd2  1  0.00000  0.69100  0.40469  1
 Pd  Pd3  1  0.50000  0.40469  0.30900  1
 Pd  Pd4  1  0.00000  0.30900  0.59531  1
