CIF file written using JARVIS-Tools package.
data_KUCuSe3
_symmetry_space_group_name_H-M  'Cmcm'
_cell_length_a       4.10015
_cell_length_b       7.46747
_cell_length_c       10.658
_cell_angle_alpha    90
_cell_angle_beta     90
_cell_angle_gamma    105.934

_symmetry_Int_Tables_number  63
_chemical_formula_structural  KUCuSe3
_chemical_formula_sum  K2U2Cu2Se6
_cell_volume  313.78600537109077
_cell_formula_units_Z  2
loop_
  _symmetry_equiv_pos_site_id
 _symmetry_equiv_pos_as_xyz
 1  'x, y, z'
loop_
 _atom_site_type_symbol
 _atom_site_label
 _atom_site_symmetry_multiplicity
 _atom_site_fract_x
 _atom_site_fract_y
 _atom_site_fract_z
 _atom_site_fract_occupancy
 Cu  Cu1  1  0.53384  0.06769  0.25000  1
 Cu  Cu2  1  0.46616  0.93231  0.75000  1
 K  K1  1  0.74647  0.49293  0.75000  1
 K  K2  1  0.25353  0.50707  0.25000  1
 Se  Se1  1  0.93223  0.86445  0.25000  1
 Se  Se2  1  0.36988  0.73975  0.93975  1
 Se  Se3  1  0.63012  0.26025  0.06025  1
 Se  Se4  1  0.36988  0.73975  0.56025  1
 Se  Se5  1  0.63012  0.26025  0.43975  1
 Se  Se6  1  0.06777  0.13555  0.75000  1
 U  U1  1  0.00000  0.00000  0.50000  1
 U  U2  1  0.00000  0.00000  0.00000  1
