CIF file written using JARVIS-Tools package.
data_YAlPd2
_symmetry_space_group_name_H-M  'P6_3/mmc'
_cell_length_a       4.36828
_cell_length_b       4.36828
_cell_length_c       9.16071
_cell_angle_alpha    90
_cell_angle_beta     90
_cell_angle_gamma    120.001

_symmetry_Int_Tables_number  194
_chemical_formula_structural  YAlPd2
_chemical_formula_sum  Y2Al2Pd4
_cell_volume  151.3827261804115
_cell_formula_units_Z  2
loop_
  _symmetry_equiv_pos_site_id
 _symmetry_equiv_pos_as_xyz
 1  'x, y, z'
loop_
 _atom_site_type_symbol
 _atom_site_label
 _atom_site_symmetry_multiplicity
 _atom_site_fract_x
 _atom_site_fract_y
 _atom_site_fract_z
 _atom_site_fract_occupancy
 Al  Al1  1  0.00000  0.00000  0.50000  1
 Al  Al2  1  0.00000  0.00000  0.00000  1
 Pd  Pd1  1  0.66667  0.33333  0.08008  1
 Pd  Pd2  1  0.33333  0.66667  0.91992  1
 Pd  Pd3  1  0.33333  0.66667  0.58008  1
 Pd  Pd4  1  0.66667  0.33333  0.41992  1
 Y  Y1  1  0.66667  0.33333  0.75000  1
 Y  Y2  1  0.33333  0.66667  0.25000  1
