CIF file written using JARVIS-Tools package.
data_LiAuS
_symmetry_space_group_name_H-M  'Fddd'
_cell_length_a       7.17193
_cell_length_b       7.21649
_cell_length_c       6.38597
_cell_angle_alpha    63.3144
_cell_angle_beta     64.0104
_cell_angle_gamma    52.6955

_symmetry_Int_Tables_number  70
_chemical_formula_structural  LiAuS
_chemical_formula_sum  Li4Au4S4
_cell_volume  228.39608011003193
_cell_formula_units_Z  4
loop_
  _symmetry_equiv_pos_site_id
 _symmetry_equiv_pos_as_xyz
 1  'x, y, z'
loop_
 _atom_site_type_symbol
 _atom_site_label
 _atom_site_symmetry_multiplicity
 _atom_site_fract_x
 _atom_site_fract_y
 _atom_site_fract_z
 _atom_site_fract_occupancy
 Au  Au1  1  0.00000  0.00000  0.00000  1
 Au  Au2  1  -0.00000  0.50000  0.50000  1
 Au  Au3  1  0.00000  0.50000  -0.00000  1
 Au  Au4  1  0.50000  0.50000  -0.00000  1
 Li  Li1  1  0.22387  0.72392  0.52608  1
 Li  Li2  1  0.52613  0.02608  0.22392  1
 Li  Li3  1  0.77613  0.27608  0.47392  1
 Li  Li4  1  0.47387  0.97392  0.77608  1
 S  S1  1  0.83458  0.91540  0.83453  1
 S  S2  1  0.41549  0.33453  0.41540  1
 S  S3  1  0.16542  0.08460  0.16547  1
 S  S4  1  0.58451  0.66547  0.58460  1
