CIF file written using JARVIS-Tools package.
data_LiVF4
_symmetry_space_group_name_H-M  'C2/m'
_cell_length_a       3.44121
_cell_length_b       4.96548
_cell_length_c       3.44963
_cell_angle_alpha    93.9912
_cell_angle_beta     89.8906
_cell_angle_gamma    94.2314

_symmetry_Int_Tables_number  12
_chemical_formula_structural  LiVF4
_chemical_formula_sum  LiVF4
_cell_volume  58.641311855693345
_cell_formula_units_Z  1
loop_
  _symmetry_equiv_pos_site_id
 _symmetry_equiv_pos_as_xyz
 1  'x, y, z'
loop_
 _atom_site_type_symbol
 _atom_site_label
 _atom_site_symmetry_multiplicity
 _atom_site_fract_x
 _atom_site_fract_y
 _atom_site_fract_z
 _atom_site_fract_occupancy
 F  F1  1  0.49424  0.76331  -0.02607  1
 F  F2  1  -0.00634  0.76358  0.47479  1
 F  F3  1  0.54675  0.23687  0.02581  1
 F  F4  1  0.04728  0.23660  0.52501  1
 Li  Li1  1  0.52108  0.49963  0.50058  1
 V  V1  1  0.02047  0.00001  -0.00012  1
