CIF file written using JARVIS-Tools package.
data_Yb5Al2Sb6
_symmetry_space_group_name_H-M  'Pbam'
_cell_length_a       4.42392
_cell_length_b       7.33584
_cell_length_c       22.9167
_cell_angle_alpha    90
_cell_angle_beta     90
_cell_angle_gamma    90

_symmetry_Int_Tables_number  55
_chemical_formula_structural  Yb5Al2Sb6
_chemical_formula_sum  Yb0Al4Sb2
_cell_volume  743.7178652151068
_cell_formula_units_Z  2
loop_
  _symmetry_equiv_pos_site_id
 _symmetry_equiv_pos_as_xyz
 1  'x, y, z'
loop_
 _atom_site_type_symbol
 _atom_site_label
 _atom_site_symmetry_multiplicity
 _atom_site_fract_x
 _atom_site_fract_y
 _atom_site_fract_z
 _atom_site_fract_occupancy
 Al  Al1  1  0.50000  0.81559  0.87859  1
 Al  Al2  1  0.50000  0.31559  0.62141  1
 Al  Al3  1  0.50000  0.68441  0.37859  1
 Al  Al4  1  0.50000  0.18441  0.12141  1
 Sb  Sb1  1  0.50000  0.20018  0.50437  1
 Sb  Sb2  1  0.50000  0.98883  0.31187  1
 Sb  Sb3  1  0.00000  0.52866  0.63622  1
 Sb  Sb4  1  0.00000  0.02866  0.86378  1
 Sb  Sb5  1  0.50000  0.48883  0.18813  1
 Sb  Sb6  1  0.50000  0.51117  0.81187  1
 Sb  Sb7  1  0.00000  0.97134  0.13622  1
 Sb  Sb8  1  0.00000  0.47134  0.36378  1
 Sb  Sb9  1  0.50000  0.79982  0.49563  1
 Sb  Sb10  1  0.50000  0.29982  0.00437  1
 Sb  Sb11  1  0.50000  0.70018  0.99563  1
 Sb  Sb12  1  0.50000  0.01117  0.68813  1
 Yb  Yb1  1  0.00000  0.23315  0.24696  1
 Yb  Yb2  1  0.00000  0.50000  0.50000  1
 Yb  Yb3  1  0.00000  0.05011  0.41077  1
 Yb  Yb4  1  0.00000  0.73315  0.25304  1
 Yb  Yb5  1  0.00000  0.00000  0.00000  1
 Yb  Yb6  1  0.00000  0.94989  0.58923  1
 Yb  Yb7  1  0.00000  0.55011  0.08923  1
 Yb  Yb8  1  0.00000  0.76685  0.75304  1
 Yb  Yb9  1  0.00000  0.26685  0.74696  1
 Yb  Yb10  1  0.00000  0.44989  0.91077  1
