CIF file written using JARVIS-Tools package.
data_LiNiBO3
_symmetry_space_group_name_H-M  'P-6'
_cell_length_a       7.98635
_cell_length_b       7.98635
_cell_length_c       3.0472
_cell_angle_alpha    90
_cell_angle_beta     90
_cell_angle_gamma    120

_symmetry_Int_Tables_number  174
_chemical_formula_structural  LiNiBO3
_chemical_formula_sum  Li3Ni3B3O9
_cell_volume  168.31672307819952
_cell_formula_units_Z  3
loop_
  _symmetry_equiv_pos_site_id
 _symmetry_equiv_pos_as_xyz
 1  'x, y, z'
loop_
 _atom_site_type_symbol
 _atom_site_label
 _atom_site_symmetry_multiplicity
 _atom_site_fract_x
 _atom_site_fract_y
 _atom_site_fract_z
 _atom_site_fract_occupancy
 B  B1  1  0.66667  0.33333  0.50000  1
 B  B2  1  0.33333  0.66667  0.50000  1
 B  B3  1  0.00000  0.00000  0.00000  1
 Li  Li1  1  0.29911  0.27405  0.50000  1
 Li  Li2  1  0.97494  0.70089  0.50000  1
 Li  Li3  1  0.72595  0.02506  0.50000  1
 Ni  Ni1  1  0.61438  0.63135  0.00000  1
 Ni  Ni2  1  0.36865  0.98303  0.00000  1
 Ni  Ni3  1  0.01697  0.38562  0.00000  1
 O  O1  1  0.90127  0.79960  0.00000  1
 O  O2  1  0.24564  0.77967  0.50000  1
 O  O3  1  0.20040  0.10168  0.00000  1
 O  O4  1  0.55256  0.13434  0.50000  1
 O  O5  1  0.89832  0.09873  0.00000  1
 O  O6  1  0.58178  0.44744  0.50000  1
 O  O7  1  0.86566  0.41822  0.50000  1
 O  O8  1  0.22033  0.46597  0.50000  1
 O  O9  1  0.53403  0.75436  0.50000  1
