CIF file written using JARVIS-Tools package.
data_MnPtF6
_symmetry_space_group_name_H-M  'R-3'
_cell_length_a       5.36211
_cell_length_b       5.36212
_cell_length_c       5.36211
_cell_angle_alpha    54.1824
_cell_angle_beta     54.1825
_cell_angle_gamma    54.1824

_symmetry_Int_Tables_number  148
_chemical_formula_structural  MnPtF6
_chemical_formula_sum  MnPtF6
_cell_volume  94.21313276942149
_cell_formula_units_Z  1
loop_
  _symmetry_equiv_pos_site_id
 _symmetry_equiv_pos_as_xyz
 1  'x, y, z'
loop_
 _atom_site_type_symbol
 _atom_site_label
 _atom_site_symmetry_multiplicity
 _atom_site_fract_x
 _atom_site_fract_y
 _atom_site_fract_z
 _atom_site_fract_occupancy
 F  F1  1  0.92806  0.60373  0.23052  1
 F  F2  1  0.60373  0.23052  0.92806  1
 F  F3  1  0.76948  0.07194  0.39627  1
 F  F4  1  0.39627  0.76948  0.07194  1
 F  F5  1  0.07194  0.39627  0.76948  1
 F  F6  1  0.23052  0.92806  0.60373  1
 Mn  Mn1  1  0.00000  0.00000  0.00000  1
 Pt  Pt1  1  0.50000  0.50000  0.50000  1
