CIF file written using JARVIS-Tools package.
data_LiPr2Ge6
_symmetry_space_group_name_H-M  'Cmmm'
_cell_length_a       4.15883
_cell_length_b       4.28971
_cell_length_c       11.0219
_cell_angle_alpha    90
_cell_angle_beta     100.875
_cell_angle_gamma    90

_symmetry_Int_Tables_number  65
_chemical_formula_structural  LiPr2Ge6
_chemical_formula_sum  LiPr2Ge6
_cell_volume  193.101078325063
_cell_formula_units_Z  1
loop_
  _symmetry_equiv_pos_site_id
 _symmetry_equiv_pos_as_xyz
 1  'x, y, z'
loop_
 _atom_site_type_symbol
 _atom_site_label
 _atom_site_symmetry_multiplicity
 _atom_site_fract_x
 _atom_site_fract_y
 _atom_site_fract_z
 _atom_site_fract_occupancy
 Ge  Ge1  1  0.28721  0.50000  0.57442  1
 Ge  Ge2  1  0.71279  0.50000  0.42558  1
 Ge  Ge3  1  0.43888  0.00000  0.87775  1
 Ge  Ge4  1  0.93866  0.50000  0.87731  1
 Ge  Ge5  1  0.06134  0.50000  0.12269  1
 Ge  Ge6  1  0.56112  0.00000  0.12225  1
 Li  Li1  1  0.00000  0.00000  0.00000  1
 Pr  Pr1  1  0.83359  0.00000  0.66717  1
 Pr  Pr2  1  0.16641  0.00000  0.33283  1
