CIF file written using JARVIS-Tools package.
data_BeFeTc
_symmetry_space_group_name_H-M  'P3m1'
_cell_length_a       2.61624
_cell_length_b       2.61624
_cell_length_c       5.88193
_cell_angle_alpha    90
_cell_angle_beta     90
_cell_angle_gamma    120

_symmetry_Int_Tables_number  156
_chemical_formula_structural  BeFeTc
_chemical_formula_sum  BeFeTc
_cell_volume  34.8662145186293
_cell_formula_units_Z  1
loop_
  _symmetry_equiv_pos_site_id
 _symmetry_equiv_pos_as_xyz
 1  'x, y, z'
loop_
 _atom_site_type_symbol
 _atom_site_label
 _atom_site_symmetry_multiplicity
 _atom_site_fract_x
 _atom_site_fract_y
 _atom_site_fract_z
 _atom_site_fract_occupancy
 Be  Be1  1  0.00000  0.00000  0.98603  1
 Fe  Fe1  1  0.33333  0.66667  0.67897  1
 Tc  Tc1  1  0.66667  0.33333  0.33500  1
