CIF file written using JARVIS-Tools package.
data_NaInSi2O6
_symmetry_space_group_name_H-M  'C2/c'
_cell_length_a       5.42803
_cell_length_b       6.79542
_cell_length_c       6.79542
_cell_angle_alpha    85.0517
_cell_angle_beta     77.3564
_cell_angle_gamma    77.3565

_symmetry_Int_Tables_number  15
_chemical_formula_structural  NaInSi2O6
_chemical_formula_sum  Na2In2Si4O2
_cell_volume  238.45146926050035
_cell_formula_units_Z  2
loop_
  _symmetry_equiv_pos_site_id
 _symmetry_equiv_pos_as_xyz
 1  'x, y, z'
loop_
 _atom_site_type_symbol
 _atom_site_label
 _atom_site_symmetry_multiplicity
 _atom_site_fract_x
 _atom_site_fract_y
 _atom_site_fract_z
 _atom_site_fract_occupancy
 In  In1  1  0.25000  0.10502  0.89498  1
 In  In2  1  0.75000  0.89498  0.10502  1
 Na  Na1  1  0.25000  0.69818  0.30182  1
 Na  Na2  1  0.75000  0.30182  0.69818  1
 O  O1  1  0.98049  0.36231  0.33674  1
 O  O2  1  0.48049  0.33674  0.36231  1
 O  O3  1  0.01951  0.63769  0.66326  1
 O  O4  1  0.84595  0.20096  0.03857  1
 O  O5  1  0.65405  0.96143  0.79904  1
 O  O6  1  0.17621  0.11047  0.60370  1
 O  O7  1  0.34595  0.03857  0.20096  1
 O  O8  1  0.15405  0.79904  0.96143  1
 O  O9  1  0.67621  0.60370  0.11047  1
 O  O10  1  0.51951  0.66326  0.63769  1
 O  O11  1  0.32379  0.39630  0.88953  1
 O  O12  1  0.82379  0.88953  0.39630  1
 Si  Si1  1  0.25001  0.20536  0.37898  1
 Si  Si2  1  0.24999  0.62102  0.79464  1
 Si  Si3  1  0.75001  0.37898  0.20536  1
 Si  Si4  1  0.74999  0.79464  0.62102  1
