CIF file written using JARVIS-Tools package.
data_NaMgBe
_symmetry_space_group_name_H-M  'I4mm'
_cell_length_a       6.44093
_cell_length_b       6.44093
_cell_length_c       6.44093
_cell_angle_alpha    151.36
_cell_angle_beta     151.36
_cell_angle_gamma    40.9486

_symmetry_Int_Tables_number  107
_chemical_formula_structural  NaMgBe
_chemical_formula_sum  NaMgBe
_cell_volume  61.25522594996731
_cell_formula_units_Z  1
loop_
  _symmetry_equiv_pos_site_id
 _symmetry_equiv_pos_as_xyz
 1  'x, y, z'
loop_
 _atom_site_type_symbol
 _atom_site_label
 _atom_site_symmetry_multiplicity
 _atom_site_fract_x
 _atom_site_fract_y
 _atom_site_fract_z
 _atom_site_fract_occupancy
 Be  Be1  1  0.98107  0.98107  0.00000  1
 Mg  Mg1  1  0.37102  0.37102  0.00000  1
 Na  Na1  1  0.64791  0.64791  0.00000  1
