CIF file written using JARVIS-Tools package.
data_Sr11Al4Sn3
_symmetry_space_group_name_H-M  'Fm-3m'
_cell_length_a       12.2384
_cell_length_b       12.2384
_cell_length_c       12.2384
_cell_angle_alpha    60
_cell_angle_beta     60
_cell_angle_gamma    60

_symmetry_Int_Tables_number  225
_chemical_formula_structural  Sr11Al4Sn3
_chemical_formula_sum  Sr22Al8Sn6
_cell_volume  1296.168505174194
_cell_formula_units_Z  2
loop_
  _symmetry_equiv_pos_site_id
 _symmetry_equiv_pos_as_xyz
 1  'x, y, z'
loop_
 _atom_site_type_symbol
 _atom_site_label
 _atom_site_symmetry_multiplicity
 _atom_site_fract_x
 _atom_site_fract_y
 _atom_site_fract_z
 _atom_site_fract_occupancy
 Al  Al1  1  0.91783  0.69406  0.69406  1
 Al  Al2  1  0.30594  0.30594  0.30594  1
 Al  Al3  1  0.30594  0.08217  0.30594  1
 Al  Al4  1  0.30594  0.30594  0.08217  1
 Al  Al5  1  0.69406  0.69406  0.69406  1
 Al  Al6  1  0.69406  0.69406  0.91783  1
 Al  Al7  1  0.08217  0.30594  0.30594  1
 Al  Al8  1  0.69406  0.91783  0.69406  1
 Sn  Sn1  1  0.78319  0.21681  0.78319  1
 Sn  Sn2  1  0.21681  0.78319  0.21681  1
 Sn  Sn3  1  0.78319  0.78319  0.21681  1
 Sn  Sn4  1  0.21681  0.21681  0.78319  1
 Sn  Sn5  1  0.78319  0.21681  0.21681  1
 Sn  Sn6  1  0.21681  0.78319  0.78319  1
 Sr  Sr1  1  0.50000  0.83365  0.16635  1
 Sr  Sr2  1  0.50000  0.50000  0.50000  1
 Sr  Sr3  1  0.00000  0.00000  0.00000  1
 Sr  Sr4  1  0.61375  0.12875  0.12875  1
 Sr  Sr5  1  0.12875  0.12875  0.12875  1
 Sr  Sr6  1  0.83365  0.50000  0.16635  1
 Sr  Sr7  1  0.87125  0.87125  0.87125  1
 Sr  Sr8  1  0.38625  0.87125  0.87125  1
 Sr  Sr9  1  0.87125  0.38625  0.87125  1
 Sr  Sr10  1  0.87125  0.87125  0.38625  1
 Sr  Sr11  1  0.16635  0.50000  0.83365  1
 Sr  Sr12  1  0.50000  0.83365  0.50000  1
 Sr  Sr13  1  0.12875  0.61375  0.12875  1
 Sr  Sr14  1  0.12875  0.12875  0.61375  1
 Sr  Sr15  1  0.16635  0.83365  0.50000  1
 Sr  Sr16  1  0.50000  0.50000  0.16635  1
 Sr  Sr17  1  0.50000  0.50000  0.83365  1
 Sr  Sr18  1  0.83365  0.16635  0.50000  1
 Sr  Sr19  1  0.16635  0.50000  0.50000  1
 Sr  Sr20  1  0.50000  0.16635  0.83365  1
 Sr  Sr21  1  0.50000  0.16635  0.50000  1
 Sr  Sr22  1  0.83365  0.50000  0.50000  1
