CIF file written using JARVIS-Tools package.
data_CaCdAu
_symmetry_space_group_name_H-M  'Pnma'
_cell_length_a       4.33794
_cell_length_b       7.37452
_cell_length_c       8.90512
_cell_angle_alpha    90
_cell_angle_beta     90
_cell_angle_gamma    90

_symmetry_Int_Tables_number  62
_chemical_formula_structural  CaCdAu
_chemical_formula_sum  Ca4Cd4Au4
_cell_volume  284.87687416063415
_cell_formula_units_Z  4
loop_
  _symmetry_equiv_pos_site_id
 _symmetry_equiv_pos_as_xyz
 1  'x, y, z'
loop_
 _atom_site_type_symbol
 _atom_site_label
 _atom_site_symmetry_multiplicity
 _atom_site_fract_x
 _atom_site_fract_y
 _atom_site_fract_z
 _atom_site_fract_occupancy
 Au  Au1  1  0.25000  0.74207  0.13003  1
 Au  Au2  1  0.25000  0.24207  0.36997  1
 Au  Au3  1  0.75000  0.25793  0.86997  1
 Au  Au4  1  0.75000  0.75793  0.63003  1
 Ca  Ca1  1  0.25000  0.54718  0.81770  1
 Ca  Ca2  1  0.75000  0.95282  0.31770  1
 Ca  Ca3  1  0.75000  0.45282  0.18230  1
 Ca  Ca4  1  0.25000  0.04718  0.68230  1
 Cd  Cd1  1  0.75000  0.35916  0.55979  1
 Cd  Cd2  1  0.25000  0.64084  0.44021  1
 Cd  Cd3  1  0.25000  0.14084  0.05979  1
 Cd  Cd4  1  0.75000  0.85916  0.94021  1
