CIF file written using JARVIS-Tools package.
data_LiFeF4
_symmetry_space_group_name_H-M  'I4_1/a'
_cell_length_a       4.85845
_cell_length_b       4.85845
_cell_length_c       6.5268
_cell_angle_alpha    68.1491
_cell_angle_beta     68.1491
_cell_angle_gamma    90

_symmetry_Int_Tables_number  88
_chemical_formula_structural  LiFeF4
_chemical_formula_sum  Li2Fe2F8
_cell_volume  130.993329495097
_cell_formula_units_Z  2
loop_
  _symmetry_equiv_pos_site_id
 _symmetry_equiv_pos_as_xyz
 1  'x, y, z'
loop_
 _atom_site_type_symbol
 _atom_site_label
 _atom_site_symmetry_multiplicity
 _atom_site_fract_x
 _atom_site_fract_y
 _atom_site_fract_z
 _atom_site_fract_occupancy
 F  F1  1  0.45681  0.21198  0.10585  1
 F  F2  1  0.18217  0.95681  0.60585  1
 F  F3  1  0.71198  0.43733  0.60585  1
 F  F4  1  0.93733  0.68217  0.10585  1
 F  F5  1  0.06267  0.31783  0.89415  1
 F  F6  1  0.28802  0.56267  0.39415  1
 F  F7  1  0.81783  0.04319  0.39415  1
 F  F8  1  0.54319  0.78802  0.89415  1
 Fe  Fe1  1  0.12500  0.37500  0.25000  1
 Fe  Fe2  1  0.87500  0.62500  0.75000  1
 Li  Li1  1  0.37500  0.12500  0.75000  1
 Li  Li2  1  0.62500  0.87500  0.25000  1
