CIF file written using JARVIS-Tools package.
data_InSiCN
_symmetry_space_group_name_H-M  'Pmn2_1'
_cell_length_a       3.25895
_cell_length_b       5.35611
_cell_length_c       5.85392
_cell_angle_alpha    90
_cell_angle_beta     90
_cell_angle_gamma    90

_symmetry_Int_Tables_number  31
_chemical_formula_structural  InSiCN
_chemical_formula_sum  In2Si2C2N2
_cell_volume  102.18195751262664
_cell_formula_units_Z  2
loop_
  _symmetry_equiv_pos_site_id
 _symmetry_equiv_pos_as_xyz
 1  'x, y, z'
loop_
 _atom_site_type_symbol
 _atom_site_label
 _atom_site_symmetry_multiplicity
 _atom_site_fract_x
 _atom_site_fract_y
 _atom_site_fract_z
 _atom_site_fract_occupancy
 C  C1  1  0.50000  0.35197  0.04409  1
 C  C2  1  0.00000  0.85197  0.95591  1
 In  In1  1  0.50000  0.50424  0.39631  1
 In  In2  1  0.00000  0.00424  0.60369  1
 N  N1  1  0.50000  0.91332  0.37714  1
 N  N2  1  0.00000  0.41332  0.62286  1
 Si  Si1  1  0.50000  0.99437  0.08245  1
 Si  Si2  1  0.00000  0.49437  0.91755  1
