CIF file written using JARVIS-Tools package.
data_Hg3Te2I2
_symmetry_space_group_name_H-M  'C2/c'
_cell_length_a       8.71793
_cell_length_b       8.71793
_cell_length_c       14.6133
_cell_angle_alpha    81.6093
_cell_angle_beta     81.6093
_cell_angle_gamma    68.5836

_symmetry_Int_Tables_number  15
_chemical_formula_structural  Hg3Te2I2
_chemical_formula_sum  Hg2Te8I8
_cell_volume  1017.6977587334638
_cell_formula_units_Z  4
loop_
  _symmetry_equiv_pos_site_id
 _symmetry_equiv_pos_as_xyz
 1  'x, y, z'
loop_
 _atom_site_type_symbol
 _atom_site_label
 _atom_site_symmetry_multiplicity
 _atom_site_fract_x
 _atom_site_fract_y
 _atom_site_fract_z
 _atom_site_fract_occupancy
 Hg  Hg1  1  0.67678  0.32322  0.75000  1
 Hg  Hg2  1  0.32322  0.67678  0.25000  1
 Hg  Hg3  1  0.86383  0.89007  0.17455  1
 Hg  Hg4  1  0.10993  0.13617  0.32545  1
 Hg  Hg5  1  0.89007  0.86383  0.67455  1
 Hg  Hg6  1  0.69499  0.24821  0.48382  1
 Hg  Hg7  1  0.13617  0.10993  0.82545  1
 Hg  Hg8  1  0.30501  0.75179  0.51618  1
 Hg  Hg9  1  0.24821  0.69499  0.98382  1
 Hg  Hg10  1  0.00000  0.50000  0.50000  1
 Hg  Hg11  1  0.50000  0.00000  0.00000  1
 Hg  Hg12  1  0.75179  0.30501  0.01618  1
 I  I1  1  0.09289  0.12930  0.11258  1
 I  I2  1  0.38849  0.34663  0.38175  1
 I  I3  1  0.65337  0.61151  0.11825  1
 I  I4  1  0.61151  0.65337  0.61825  1
 I  I5  1  0.87070  0.90711  0.38742  1
 I  I6  1  0.34663  0.38849  0.88175  1
 I  I7  1  0.12930  0.09289  0.61258  1
 I  I8  1  0.90711  0.87070  0.88742  1
 Te  Te1  1  0.40739  0.88089  0.34501  1
 Te  Te2  1  0.59261  0.11911  0.65499  1
 Te  Te3  1  0.57125  0.14169  0.13587  1
 Te  Te4  1  0.85831  0.42875  0.36413  1
 Te  Te5  1  0.42875  0.85831  0.86413  1
 Te  Te6  1  0.11911  0.59261  0.15499  1
 Te  Te7  1  0.88089  0.40739  0.84501  1
 Te  Te8  1  0.14169  0.57125  0.63587  1
