CIF file written using JARVIS-Tools package.
data_CN2
_symmetry_space_group_name_H-M  'P-3m1'
_cell_length_a       2.3651
_cell_length_b       2.3651
_cell_length_c       9.47797
_cell_angle_alpha    89.9997
_cell_angle_beta     90
_cell_angle_gamma    120

_symmetry_Int_Tables_number  164
_chemical_formula_structural  CN2
_chemical_formula_sum  C2N4
_cell_volume  45.914086156139355
_cell_formula_units_Z  2
loop_
  _symmetry_equiv_pos_site_id
 _symmetry_equiv_pos_as_xyz
 1  'x, y, z'
loop_
 _atom_site_type_symbol
 _atom_site_label
 _atom_site_symmetry_multiplicity
 _atom_site_fract_x
 _atom_site_fract_y
 _atom_site_fract_z
 _atom_site_fract_occupancy
 C  C1  1  0.00000  0.00001  0.91646  1
 C  C2  1  -0.00000  -0.00001  0.08354  1
 N  N1  1  0.66667  0.33333  0.46344  1
 N  N2  1  0.33333  0.66667  0.53656  1
 N  N3  1  0.66667  0.33333  0.86363  1
 N  N4  1  0.33333  0.66667  0.13637  1
