CIF file written using JARVIS-Tools package.
data_La2Zr2O7
_symmetry_space_group_name_H-M  'Fd-3m'
_cell_length_a       7.67115
_cell_length_b       7.67115
_cell_length_c       7.67115
_cell_angle_alpha    60
_cell_angle_beta     60
_cell_angle_gamma    60

_symmetry_Int_Tables_number  227
_chemical_formula_structural  La2Zr2O7
_chemical_formula_sum  La4Zr4O4
_cell_volume  319.20316240854726
_cell_formula_units_Z  2
loop_
  _symmetry_equiv_pos_site_id
 _symmetry_equiv_pos_as_xyz
 1  'x, y, z'
loop_
 _atom_site_type_symbol
 _atom_site_label
 _atom_site_symmetry_multiplicity
 _atom_site_fract_x
 _atom_site_fract_y
 _atom_site_fract_z
 _atom_site_fract_occupancy
 La  La1  1  0.50000  0.50000  0.50000  1
 La  La2  1  -0.00000  0.50000  0.50000  1
 La  La3  1  0.50000  0.00000  0.50000  1
 La  La4  1  0.50000  0.50000  -0.00000  1
 O  O1  1  0.37500  0.37500  0.37500  1
 O  O2  1  0.33219  0.91781  0.91781  1
 O  O3  1  0.08219  0.66781  0.66781  1
 O  O4  1  0.91781  0.33219  0.91781  1
 O  O5  1  0.91781  0.91781  0.33219  1
 O  O6  1  0.33219  0.33219  0.91781  1
 O  O7  1  0.33219  0.91781  0.33219  1
 O  O8  1  0.91781  0.33219  0.33219  1
 O  O9  1  0.66781  0.08219  0.08219  1
 O  O10  1  0.66781  0.66781  0.08219  1
 O  O11  1  0.66781  0.08219  0.66781  1
 O  O12  1  0.08219  0.66781  0.08219  1
 O  O13  1  0.62500  0.62500  0.62500  1
 O  O14  1  0.08219  0.08219  0.66781  1
 Zr  Zr1  1  -0.00000  0.50000  -0.00000  1
 Zr  Zr2  1  0.50000  0.00000  -0.00000  1
 Zr  Zr3  1  0.00000  0.00000  0.50000  1
 Zr  Zr4  1  0.00000  0.00000  0.00000  1
