CIF file written using JARVIS-Tools package.
data_CuBSe2
_symmetry_space_group_name_H-M  'I-42d'
_cell_length_a       6.14154
_cell_length_b       6.14154
_cell_length_c       6.14154
_cell_angle_alpha    128.46
_cell_angle_beta     128.46
_cell_angle_gamma    75.8809

_symmetry_Int_Tables_number  122
_chemical_formula_structural  CuBSe2
_chemical_formula_sum  Cu2B2Se4
_cell_volume  138.1249890003246
_cell_formula_units_Z  2
loop_
  _symmetry_equiv_pos_site_id
 _symmetry_equiv_pos_as_xyz
 1  'x, y, z'
loop_
 _atom_site_type_symbol
 _atom_site_label
 _atom_site_symmetry_multiplicity
 _atom_site_fract_x
 _atom_site_fract_y
 _atom_site_fract_z
 _atom_site_fract_occupancy
 B  B1  1  0.50000  0.50000  0.00000  1
 B  B2  1  0.25000  0.75000  0.50000  1
 Cu  Cu1  1  0.00000  0.00000  0.00000  1
 Cu  Cu2  1  0.75000  0.25000  0.50000  1
 Se  Se1  1  0.57640  0.62500  0.45140  1
 Se  Se2  1  0.17360  0.12500  0.54860  1
 Se  Se3  1  0.87500  0.42360  0.04860  1
 Se  Se4  1  0.37500  0.82640  0.95140  1
