CIF file written using JARVIS-Tools package.
data_ZrBeBi
_symmetry_space_group_name_H-M  'I4mm'
_cell_length_a       5.8775
_cell_length_b       5.8775
_cell_length_c       5.8775
_cell_angle_alpha    146.499
_cell_angle_beta     146.499
_cell_angle_gamma    48.1055

_symmetry_Int_Tables_number  107
_chemical_formula_structural  ZrBeBi
_chemical_formula_sum  ZrBeBi
_cell_volume  61.59957757740178
_cell_formula_units_Z  1
loop_
  _symmetry_equiv_pos_site_id
 _symmetry_equiv_pos_as_xyz
 1  'x, y, z'
loop_
 _atom_site_type_symbol
 _atom_site_label
 _atom_site_symmetry_multiplicity
 _atom_site_fract_x
 _atom_site_fract_y
 _atom_site_fract_z
 _atom_site_fract_occupancy
 Be  Be1  1  0.01447  0.01447  -0.00000  1
 Bi  Bi1  1  0.34506  0.34506  -0.00000  1
 Zr  Zr1  1  0.64047  0.64047  -0.00000  1
