CIF file written using JARVIS-Tools package.
data_Be2TlW
_symmetry_space_group_name_H-M  'P4mm'
_cell_length_a       2.77099
_cell_length_b       2.77099
_cell_length_c       8.7942
_cell_angle_alpha    90
_cell_angle_beta     90
_cell_angle_gamma    90

_symmetry_Int_Tables_number  99
_chemical_formula_structural  Be2TlW
_chemical_formula_sum  Be2TlW
_cell_volume  67.52543878593866
_cell_formula_units_Z  1
loop_
  _symmetry_equiv_pos_site_id
 _symmetry_equiv_pos_as_xyz
 1  'x, y, z'
loop_
 _atom_site_type_symbol
 _atom_site_label
 _atom_site_symmetry_multiplicity
 _atom_site_fract_x
 _atom_site_fract_y
 _atom_site_fract_z
 _atom_site_fract_occupancy
 Be  Be1  1  0.00000  0.00000  0.01857  1
 Be  Be2  1  0.50000  0.50000  0.12830  1
 Tl  Tl1  1  0.00000  0.00000  0.52543  1
 W  W1  1  0.50000  0.50000  0.82770  1
