CIF file written using JARVIS-Tools package.
data_BaNiMo2
_symmetry_space_group_name_H-M  'Pmmm'
_cell_length_a       3.31831
_cell_length_b       3.33929
_cell_length_c       7.5691
_cell_angle_alpha    90
_cell_angle_beta     90
_cell_angle_gamma    90

_symmetry_Int_Tables_number  47
_chemical_formula_structural  BaNiMo2
_chemical_formula_sum  BaNiMo2
_cell_volume  83.87177575372438
_cell_formula_units_Z  1
loop_
  _symmetry_equiv_pos_site_id
 _symmetry_equiv_pos_as_xyz
 1  'x, y, z'
loop_
 _atom_site_type_symbol
 _atom_site_label
 _atom_site_symmetry_multiplicity
 _atom_site_fract_x
 _atom_site_fract_y
 _atom_site_fract_z
 _atom_site_fract_occupancy
 Ba  Ba1  1  0.50000  0.50000  0.50000  1
 Mo  Mo1  1  0.00000  0.00000  0.85192  1
 Mo  Mo2  1  0.00000  0.00000  0.14808  1
 Ni  Ni1  1  0.50000  0.50000  0.00000  1
