CIF file written using JARVIS-Tools package.
data_CeZn3
_symmetry_space_group_name_H-M  'Cmcm'
_cell_length_a       4.57577
_cell_length_b       6.49705
_cell_length_c       10.3126
_cell_angle_alpha    90
_cell_angle_beta     90
_cell_angle_gamma    90

_symmetry_Int_Tables_number  63
_chemical_formula_structural  CeZn3
_chemical_formula_sum  Ce4Zn2
_cell_volume  306.5824142490894
_cell_formula_units_Z  4
loop_
  _symmetry_equiv_pos_site_id
 _symmetry_equiv_pos_as_xyz
 1  'x, y, z'
loop_
 _atom_site_type_symbol
 _atom_site_label
 _atom_site_symmetry_multiplicity
 _atom_site_fract_x
 _atom_site_fract_y
 _atom_site_fract_z
 _atom_site_fract_occupancy
 Ce  Ce1  1  0.75000  0.75000  0.64923  1
 Ce  Ce2  1  0.25000  0.75000  0.14923  1
 Ce  Ce3  1  0.25000  0.25000  0.35077  1
 Ce  Ce4  1  0.75000  0.25000  0.85077  1
 Zn  Zn1  1  0.25000  0.25000  0.04901  1
 Zn  Zn2  1  0.25000  0.44378  0.63133  1
 Zn  Zn3  1  0.75000  0.55622  0.36867  1
 Zn  Zn4  1  0.75000  0.05622  0.13133  1
 Zn  Zn5  1  0.25000  0.05622  0.63133  1
 Zn  Zn6  1  0.25000  0.94378  0.86867  1
 Zn  Zn7  1  0.75000  0.94378  0.36867  1
 Zn  Zn8  1  0.75000  0.25000  0.54901  1
 Zn  Zn9  1  0.75000  0.75000  0.95099  1
 Zn  Zn10  1  0.75000  0.44378  0.13133  1
 Zn  Zn11  1  0.25000  0.55622  0.86867  1
 Zn  Zn12  1  0.25000  0.75000  0.45099  1
