CIF file written using JARVIS-Tools package.
data_Mn3O4F2
_symmetry_space_group_name_H-M  'P2_1'
_cell_length_a       5.47354
_cell_length_b       4.53852
_cell_length_c       7.57844
_cell_angle_alpha    90
_cell_angle_beta     93.3833
_cell_angle_gamma    90

_symmetry_Int_Tables_number  4
_chemical_formula_structural  Mn3O4F2
_chemical_formula_sum  Mn6O8F4
_cell_volume  187.93362930729324
_cell_formula_units_Z  2
loop_
  _symmetry_equiv_pos_site_id
 _symmetry_equiv_pos_as_xyz
 1  'x, y, z'
loop_
 _atom_site_type_symbol
 _atom_site_label
 _atom_site_symmetry_multiplicity
 _atom_site_fract_x
 _atom_site_fract_y
 _atom_site_fract_z
 _atom_site_fract_occupancy
 F  F1  1  0.11416  0.79483  0.06265  1
 F  F2  1  0.88584  0.29483  0.93735  1
 F  F3  1  0.45356  0.80212  0.40231  1
 F  F4  1  0.54644  0.30212  0.59769  1
 Mn  Mn1  1  0.09335  0.99260  0.81873  1
 Mn  Mn2  1  0.56842  0.53206  0.84240  1
 Mn  Mn3  1  0.76864  0.99128  0.50281  1
 Mn  Mn4  1  0.90665  0.49260  0.18127  1
 Mn  Mn5  1  0.23136  0.49128  0.49719  1
 Mn  Mn6  1  0.43158  0.03206  0.15760  1
 O  O1  1  0.78861  0.80532  0.73262  1
 O  O2  1  0.28163  0.69287  0.72246  1
 O  O3  1  0.95304  0.69259  0.39966  1
 O  O4  1  0.37769  0.19633  0.92677  1
 O  O5  1  0.04696  0.19259  0.60034  1
 O  O6  1  0.71837  0.19287  0.27754  1
 O  O7  1  0.21139  0.30532  0.26738  1
 O  O8  1  0.62231  0.69633  0.07323  1
