CIF file written using JARVIS-Tools package.
data_RbSmSe2
_symmetry_space_group_name_H-M  'R-3m'
_cell_length_a       8.30586
_cell_length_b       8.30587
_cell_length_c       8.30586
_cell_angle_alpha    29.9572
_cell_angle_beta     29.9572
_cell_angle_gamma    29.9572

_symmetry_Int_Tables_number  166
_chemical_formula_structural  RbSmSe2
_chemical_formula_sum  RbSmSe2
_cell_volume  126.552120960935
_cell_formula_units_Z  1
loop_
  _symmetry_equiv_pos_site_id
 _symmetry_equiv_pos_as_xyz
 1  'x, y, z'
loop_
 _atom_site_type_symbol
 _atom_site_label
 _atom_site_symmetry_multiplicity
 _atom_site_fract_x
 _atom_site_fract_y
 _atom_site_fract_z
 _atom_site_fract_occupancy
 Rb  Rb1  1  0.00000  0.00000  0.00000  1
 Se  Se1  1  0.23385  0.23385  0.23385  1
 Se  Se2  1  0.76615  0.76615  0.76615  1
 Sm  Sm1  1  0.50000  0.50000  0.50000  1
