CIF file written using JARVIS-Tools package.
data_GaAu2
_symmetry_space_group_name_H-M  'Cmc2_1'
_cell_length_a       9.19048
_cell_length_b       9.19048
_cell_length_c       6.89907
_cell_angle_alpha    90
_cell_angle_beta     90
_cell_angle_gamma    158.498

_symmetry_Int_Tables_number  36
_chemical_formula_structural  GaAu2
_chemical_formula_sum  Ga4Au8
_cell_volume  213.58538627890158
_cell_formula_units_Z  4
loop_
  _symmetry_equiv_pos_site_id
 _symmetry_equiv_pos_as_xyz
 1  'x, y, z'
loop_
 _atom_site_type_symbol
 _atom_site_label
 _atom_site_symmetry_multiplicity
 _atom_site_fract_x
 _atom_site_fract_y
 _atom_site_fract_z
 _atom_site_fract_occupancy
 Au  Au1  1  0.46385  0.53615  0.99919  1
 Au  Au2  1  0.53615  0.46385  0.49919  1
 Au  Au3  1  0.32357  0.67643  0.59625  1
 Au  Au4  1  0.67643  0.32357  0.09625  1
 Au  Au5  1  0.08675  0.91325  0.82223  1
 Au  Au6  1  0.91325  0.08675  0.32223  1
 Au  Au7  1  0.16987  0.83013  0.45081  1
 Au  Au8  1  0.83013  0.16987  0.95081  1
 Ga  Ga1  1  0.05827  0.94173  0.19472  1
 Ga  Ga2  1  0.94173  0.05827  0.69472  1
 Ga  Ga3  1  0.28992  0.71008  0.22480  1
 Ga  Ga4  1  0.71008  0.28992  0.72480  1
