CIF file written using JARVIS-Tools package.
data_BaVSe3
_symmetry_space_group_name_H-M  'P6_3/mmc'
_cell_length_a       6.99722
_cell_length_b       6.99722
_cell_length_c       5.94937
_cell_angle_alpha    90
_cell_angle_beta     90
_cell_angle_gamma    120

_symmetry_Int_Tables_number  194
_chemical_formula_structural  BaVSe3
_chemical_formula_sum  Ba2V2Se6
_cell_volume  252.26265181171044
_cell_formula_units_Z  2
loop_
  _symmetry_equiv_pos_site_id
 _symmetry_equiv_pos_as_xyz
 1  'x, y, z'
loop_
 _atom_site_type_symbol
 _atom_site_label
 _atom_site_symmetry_multiplicity
 _atom_site_fract_x
 _atom_site_fract_y
 _atom_site_fract_z
 _atom_site_fract_occupancy
 Ba  Ba1  1  0.66667  0.33333  0.25000  1
 Ba  Ba2  1  0.33333  0.66667  0.75000  1
 Se  Se1  1  0.16785  0.83215  0.25000  1
 Se  Se2  1  0.83215  0.66429  0.75000  1
 Se  Se3  1  0.16785  0.33571  0.25000  1
 Se  Se4  1  0.83215  0.16785  0.75000  1
 Se  Se5  1  0.33571  0.16785  0.75000  1
 Se  Se6  1  0.66429  0.83215  0.25000  1
 V  V1  1  0.00000  0.00000  0.50000  1
 V  V2  1  0.00000  0.00000  0.00000  1
