CIF file written using JARVIS-Tools package.
data_BeGaIr
_symmetry_space_group_name_H-M  'I4mm'
_cell_length_a       4.67391
_cell_length_b       4.67391
_cell_length_c       4.67391
_cell_angle_alpha    142.522
_cell_angle_beta     142.522
_cell_angle_gamma    54.0436

_symmetry_Int_Tables_number  107
_chemical_formula_structural  BeGaIr
_chemical_formula_sum  BeGaIr
_cell_volume  37.550159800782424
_cell_formula_units_Z  1
loop_
  _symmetry_equiv_pos_site_id
 _symmetry_equiv_pos_as_xyz
 1  'x, y, z'
loop_
 _atom_site_type_symbol
 _atom_site_label
 _atom_site_symmetry_multiplicity
 _atom_site_fract_x
 _atom_site_fract_y
 _atom_site_fract_z
 _atom_site_fract_occupancy
 Be  Be1  1  0.01390  0.01390  0.00000  1
 Ga  Ga1  1  0.33867  0.33867  0.00000  1
 Ir  Ir1  1  0.64743  0.64743  0.00000  1
