CIF file written using JARVIS-Tools package.
data_Na2Co2O3
_symmetry_space_group_name_H-M  'C2/c'
_cell_length_a       8.28247
_cell_length_b       8.28247
_cell_length_c       5.23025
_cell_angle_alpha    72.9933
_cell_angle_beta     107.007
_cell_angle_gamma    98.1572

_symmetry_Int_Tables_number  15
_chemical_formula_structural  Na2Co2O3
_chemical_formula_sum  Na8Co8O2
_cell_volume  327.4747488867221
_cell_formula_units_Z  4
loop_
  _symmetry_equiv_pos_site_id
 _symmetry_equiv_pos_as_xyz
 1  'x, y, z'
loop_
 _atom_site_type_symbol
 _atom_site_label
 _atom_site_symmetry_multiplicity
 _atom_site_fract_x
 _atom_site_fract_y
 _atom_site_fract_z
 _atom_site_fract_occupancy
 Co  Co1  1  0.52968  0.92646  0.74906  1
 Co  Co2  1  0.07354  0.47032  0.24906  1
 Co  Co3  1  0.21085  0.65858  0.70867  1
 Co  Co4  1  0.34142  0.78915  0.20867  1
 Co  Co5  1  0.65858  0.21085  0.79133  1
 Co  Co6  1  0.92646  0.52968  0.75094  1
 Co  Co7  1  0.47032  0.07354  0.25094  1
 Co  Co8  1  0.78915  0.34142  0.29133  1
 Na  Na1  1  0.17695  0.01137  0.55061  1
 Na  Na2  1  0.01137  0.17695  0.94939  1
 Na  Na3  1  0.71194  0.71194  0.25000  1
 Na  Na4  1  0.42526  0.42526  0.25000  1
 Na  Na5  1  0.57474  0.57474  0.75000  1
 Na  Na6  1  0.28806  0.28806  0.75000  1
 Na  Na7  1  0.98863  0.82305  0.05061  1
 Na  Na8  1  0.82305  0.98863  0.44939  1
 O  O1  1  0.71414  0.43320  0.55463  1
 O  O2  1  0.42984  0.14847  0.55820  1
 O  O3  1  -0.00028  0.76551  0.55821  1
 O  O4  1  0.00028  0.23449  0.44179  1
 O  O5  1  0.57016  0.85153  0.44180  1
 O  O6  1  0.14847  0.42984  0.94180  1
 O  O7  1  0.76551  -0.00028  0.94179  1
 O  O8  1  0.43320  0.71414  0.94537  1
 O  O9  1  0.85153  0.57016  0.05820  1
 O  O10  1  0.23449  0.00028  0.05821  1
 O  O11  1  0.28586  0.56680  0.44537  1
 O  O12  1  0.56680  0.28586  0.05463  1
