CIF file written using JARVIS-Tools package.
data_Li3Ti2Ni2O8
_symmetry_space_group_name_H-M  'C2/m'
_cell_length_a       5.85026
_cell_length_b       5.81697
_cell_length_c       5.88017
_cell_angle_alpha    119.646
_cell_angle_beta     119.521
_cell_angle_gamma    90.0002

_symmetry_Int_Tables_number  12
_chemical_formula_structural  Li3Ti2Ni2O8
_chemical_formula_sum  Li3Ti2Ni2O8
_cell_volume  143.2591673803511
_cell_formula_units_Z  1
loop_
  _symmetry_equiv_pos_site_id
 _symmetry_equiv_pos_as_xyz
 1  'x, y, z'
loop_
 _atom_site_type_symbol
 _atom_site_label
 _atom_site_symmetry_multiplicity
 _atom_site_fract_x
 _atom_site_fract_y
 _atom_site_fract_z
 _atom_site_fract_occupancy
 Li  Li1  1  0.00000  0.50000  0.50000  1
 Li  Li2  1  0.50000  0.50000  -0.00000  1
 Li  Li3  1  0.00000  0.00000  0.50000  1
 Ni  Ni1  1  0.50000  0.00000  0.50000  1
 Ni  Ni2  1  0.50000  0.50000  0.50000  1
 O  O1  1  0.75087  0.76301  0.52582  1
 O  O2  1  0.70999  0.23364  0.46741  1
 O  O3  1  0.24985  0.22459  0.99350  1
 O  O4  1  0.24976  0.76884  0.99333  1
 O  O5  1  0.75024  0.23116  0.00667  1
 O  O6  1  0.75015  0.77541  0.00650  1
 O  O7  1  0.29001  0.76636  0.53259  1
 O  O8  1  0.24913  0.23699  0.47418  1
 Ti  Ti1  1  0.00000  0.00000  0.00000  1
 Ti  Ti2  1  0.50000  -0.00000  -0.00000  1
