CIF file written using JARVIS-Tools package.
data_Na2BiAu
_symmetry_space_group_name_H-M  'Cmcm'
_cell_length_a       6.07222
_cell_length_b       6.07222
_cell_length_c       5.96966
_cell_angle_alpha    90
_cell_angle_beta     90
_cell_angle_gamma    102.365

_symmetry_Int_Tables_number  63
_chemical_formula_structural  Na2BiAu
_chemical_formula_sum  Na4Bi2Au2
_cell_volume  215.0069634072877
_cell_formula_units_Z  2
loop_
  _symmetry_equiv_pos_site_id
 _symmetry_equiv_pos_as_xyz
 1  'x, y, z'
loop_
 _atom_site_type_symbol
 _atom_site_label
 _atom_site_symmetry_multiplicity
 _atom_site_fract_x
 _atom_site_fract_y
 _atom_site_fract_z
 _atom_site_fract_occupancy
 Au  Au1  1  0.00000  0.00000  0.00000  1
 Au  Au2  1  0.00000  0.00000  0.50000  1
 Bi  Bi1  1  0.68598  0.68598  0.25000  1
 Bi  Bi2  1  0.31402  0.31402  0.75000  1
 Na  Na1  1  0.49638  0.13692  0.25000  1
 Na  Na2  1  0.50362  0.86308  0.75000  1
 Na  Na3  1  0.13692  0.49638  0.25000  1
 Na  Na4  1  0.86308  0.50362  0.75000  1
