CIF file written using JARVIS-Tools package.
data_Be2ReHg
_symmetry_space_group_name_H-M  'P4/mmm'
_cell_length_a       3.06447
_cell_length_b       3.06447
_cell_length_c       5.76709
_cell_angle_alpha    90
_cell_angle_beta     90
_cell_angle_gamma    90

_symmetry_Int_Tables_number  123
_chemical_formula_structural  Be2ReHg
_chemical_formula_sum  Be2ReHg
_cell_volume  54.15876113141168
_cell_formula_units_Z  1
loop_
  _symmetry_equiv_pos_site_id
 _symmetry_equiv_pos_as_xyz
 1  'x, y, z'
loop_
 _atom_site_type_symbol
 _atom_site_label
 _atom_site_symmetry_multiplicity
 _atom_site_fract_x
 _atom_site_fract_y
 _atom_site_fract_z
 _atom_site_fract_occupancy
 Be  Be1  1  0.00000  0.00000  0.68064  1
 Be  Be2  1  0.00000  0.00000  0.31936  1
 Hg  Hg1  1  0.50000  0.50000  0.00000  1
 Re  Re1  1  0.50000  0.50000  0.50000  1
