CIF file written using JARVIS-Tools package.
data_KHgC2IN2
_symmetry_space_group_name_H-M  'Cmcm'
_cell_length_a       4.37651
_cell_length_b       8.3492
_cell_length_c       9.70023
_cell_angle_alpha    90
_cell_angle_beta     90
_cell_angle_gamma    105.194

_symmetry_Int_Tables_number  63
_chemical_formula_structural  KHgC2IN2
_chemical_formula_sum  K2Hg2C4I2N4
_cell_volume  342.05941329897803
_cell_formula_units_Z  2
loop_
  _symmetry_equiv_pos_site_id
 _symmetry_equiv_pos_as_xyz
 1  'x, y, z'
loop_
 _atom_site_type_symbol
 _atom_site_label
 _atom_site_symmetry_multiplicity
 _atom_site_fract_x
 _atom_site_fract_y
 _atom_site_fract_z
 _atom_site_fract_occupancy
 C  C1  1  0.87726  0.75453  0.05704  1
 C  C2  1  0.12274  0.24547  0.94296  1
 C  C3  1  0.12274  0.24547  0.55704  1
 C  C4  1  0.87726  0.75453  0.44296  1
 Hg  Hg1  1  0.00000  0.00000  0.00000  1
 Hg  Hg2  1  0.00000  0.00000  0.50000  1
 I  I1  1  0.55393  0.10785  0.25000  1
 I  I2  1  0.44607  0.89215  0.75000  1
 K  K1  1  0.76413  0.52825  0.75000  1
 K  K2  1  0.23587  0.47175  0.25000  1
 N  N1  1  0.80723  0.61446  0.08736  1
 N  N2  1  0.19277  0.38554  0.58736  1
 N  N3  1  0.80723  0.61446  0.41264  1
 N  N4  1  0.19277  0.38554  0.91264  1
