CIF file written using JARVIS-Tools package.
data_K3Mn
_symmetry_space_group_name_H-M  'I4/mcm'
_cell_length_a       8.10483
_cell_length_b       8.10483
_cell_length_c       8.29538
_cell_angle_alpha    119.243
_cell_angle_beta     119.243
_cell_angle_gamma    90

_symmetry_Int_Tables_number  140
_chemical_formula_structural  K3Mn
_chemical_formula_sum  K6Mn2
_cell_volume  393.96150304147807
_cell_formula_units_Z  2
loop_
  _symmetry_equiv_pos_site_id
 _symmetry_equiv_pos_as_xyz
 1  'x, y, z'
loop_
 _atom_site_type_symbol
 _atom_site_label
 _atom_site_symmetry_multiplicity
 _atom_site_fract_x
 _atom_site_fract_y
 _atom_site_fract_z
 _atom_site_fract_occupancy
 K  K1  1  0.29061  0.20939  0.00000  1
 K  K2  1  0.70939  0.79061  0.00000  1
 K  K3  1  0.20939  0.70939  0.00000  1
 K  K4  1  0.79061  0.29061  -0.00000  1
 K  K5  1  0.75000  0.75000  0.50000  1
 K  K6  1  0.25000  0.25000  0.50000  1
 Mn  Mn1  1  0.25000  0.75000  0.50000  1
 Mn  Mn2  1  0.75000  0.25000  0.50000  1
