CIF file written using JARVIS-Tools package.
data_Te2Au
_symmetry_space_group_name_H-M  'P2/c'
_cell_length_a       8.95419
_cell_length_b       4.40997
_cell_length_c       10.3489
_cell_angle_alpha    90
_cell_angle_beta     125.166
_cell_angle_gamma    90

_symmetry_Int_Tables_number  13
_chemical_formula_structural  Te2Au
_chemical_formula_sum  Te8Au4
_cell_volume  334.07039574338455
_cell_formula_units_Z  4
loop_
  _symmetry_equiv_pos_site_id
 _symmetry_equiv_pos_as_xyz
 1  'x, y, z'
loop_
 _atom_site_type_symbol
 _atom_site_label
 _atom_site_symmetry_multiplicity
 _atom_site_fract_x
 _atom_site_fract_y
 _atom_site_fract_z
 _atom_site_fract_occupancy
 Au  Au1  1  0.74695  0.48090  0.62374  1
 Au  Au2  1  0.74695  0.51910  0.12374  1
 Au  Au3  1  0.24695  -0.00001  0.37373  1
 Au  Au4  1  0.24695  0.00001  0.87373  1
 Te  Te1  1  0.93516  0.02304  0.36433  1
 Te  Te2  1  0.93516  0.97696  0.86433  1
 Te  Te3  1  0.55874  0.02321  0.88314  1
 Te  Te4  1  0.55874  0.97679  0.38314  1
 Te  Te5  1  0.05811  0.43598  0.63609  1
 Te  Te6  1  0.05811  0.56402  0.13609  1
 Te  Te7  1  0.43579  0.56403  0.11138  1
 Te  Te8  1  0.43579  0.43597  0.61138  1
