CIF file written using JARVIS-Tools package.
data_TaBe2Sn
_symmetry_space_group_name_H-M  'Cmmm'
_cell_length_a       4.44404
_cell_length_b       4.44404
_cell_length_c       3.03186
_cell_angle_alpha    90
_cell_angle_beta     90
_cell_angle_gamma    99.9433

_symmetry_Int_Tables_number  65
_chemical_formula_structural  TaBe2Sn
_chemical_formula_sum  TaBe2Sn
_cell_volume  58.978419588658255
_cell_formula_units_Z  1
loop_
  _symmetry_equiv_pos_site_id
 _symmetry_equiv_pos_as_xyz
 1  'x, y, z'
loop_
 _atom_site_type_symbol
 _atom_site_label
 _atom_site_symmetry_multiplicity
 _atom_site_fract_x
 _atom_site_fract_y
 _atom_site_fract_z
 _atom_site_fract_occupancy
 Be  Be1  1  0.00000  0.00000  0.00000  1
 Be  Be2  1  0.50000  0.50000  0.00000  1
 Sn  Sn1  1  0.50000  0.00000  0.50000  1
 Ta  Ta1  1  0.00000  0.50000  0.50000  1
