CIF file written using JARVIS-Tools package.
data_TmCd3
_symmetry_space_group_name_H-M  'Cmcm'
_cell_length_a       4.82071
_cell_length_b       6.43264
_cell_length_c       6.43264
_cell_angle_alpha    113.086
_cell_angle_beta     90
_cell_angle_gamma    90

_symmetry_Int_Tables_number  63
_chemical_formula_structural  TmCd3
_chemical_formula_sum  Tm2Cd6
_cell_volume  183.50100348621305
_cell_formula_units_Z  2
loop_
  _symmetry_equiv_pos_site_id
 _symmetry_equiv_pos_as_xyz
 1  'x, y, z'
loop_
 _atom_site_type_symbol
 _atom_site_label
 _atom_site_symmetry_multiplicity
 _atom_site_fract_x
 _atom_site_fract_y
 _atom_site_fract_z
 _atom_site_fract_occupancy
 Cd  Cd1  1  0.75000  0.82261  0.17739  1
 Cd  Cd2  1  0.25000  0.17739  0.82261  1
 Cd  Cd3  1  0.75000  0.31345  0.12295  1
 Cd  Cd4  1  0.25000  0.68655  0.87705  1
 Cd  Cd5  1  0.25000  0.12295  0.31345  1
 Cd  Cd6  1  0.75000  0.87705  0.68655  1
 Tm  Tm1  1  0.75000  0.36663  0.63337  1
 Tm  Tm2  1  0.25000  0.63337  0.36663  1
