CIF file written using JARVIS-Tools package.
data_BN
_symmetry_space_group_name_H-M  'Cc'
_cell_length_a       3.20547
_cell_length_b       4.34965
_cell_length_c       4.99593
_cell_angle_alpha    85.0095
_cell_angle_beta     71.2897
_cell_angle_gamma    74.2682

_symmetry_Int_Tables_number  9
_chemical_formula_structural  BN
_chemical_formula_sum  B4N4
_cell_volume  63.50409552332075
_cell_formula_units_Z  4
loop_
  _symmetry_equiv_pos_site_id
 _symmetry_equiv_pos_as_xyz
 1  'x, y, z'
loop_
 _atom_site_type_symbol
 _atom_site_label
 _atom_site_symmetry_multiplicity
 _atom_site_fract_x
 _atom_site_fract_y
 _atom_site_fract_z
 _atom_site_fract_occupancy
 B  B1  1  0.56699  0.99984  0.86854  1
 B  B2  1  0.43552  0.49984  0.13146  1
 B  B3  1  0.56544  0.50812  0.61350  1
 B  B4  1  0.17893  0.00811  0.38650  1
 N  N1  1  0.77863  0.15960  0.60895  1
 N  N2  1  0.38756  0.65960  0.39105  1
 N  N3  1  0.51158  0.67864  0.86859  1
 N  N4  1  0.38015  0.17864  0.13140  1
