CIF file written using JARVIS-Tools package.
data_Na3As
_symmetry_space_group_name_H-M  'P6_3cm'
_cell_length_a       8.77386
_cell_length_b       8.77386
_cell_length_c       8.98933
_cell_angle_alpha    90
_cell_angle_beta     90
_cell_angle_gamma    120

_symmetry_Int_Tables_number  185
_chemical_formula_structural  Na3As
_chemical_formula_sum  Na8As6
_cell_volume  599.2938246799765
_cell_formula_units_Z  6
loop_
  _symmetry_equiv_pos_site_id
 _symmetry_equiv_pos_as_xyz
 1  'x, y, z'
loop_
 _atom_site_type_symbol
 _atom_site_label
 _atom_site_symmetry_multiplicity
 _atom_site_fract_x
 _atom_site_fract_y
 _atom_site_fract_z
 _atom_site_fract_occupancy
 As  As1  1  0.66922  -0.00000  0.25425  1
 As  As2  1  0.33078  0.00000  0.75425  1
 As  As3  1  0.00000  0.33078  0.75425  1
 As  As4  1  0.66922  0.66922  0.75425  1
 As  As5  1  -0.00000  0.66922  0.25425  1
 As  As6  1  0.33078  0.33078  0.25425  1
 Na  Na1  1  0.30164  -0.00000  0.42346  1
 Na  Na2  1  0.00000  0.00000  0.21238  1
 Na  Na3  1  0.66667  0.33333  0.77678  1
 Na  Na4  1  0.33333  0.66667  0.27678  1
 Na  Na5  1  0.66667  0.33333  0.27678  1
 Na  Na6  1  0.33333  0.66667  0.77678  1
 Na  Na7  1  0.00000  0.00000  0.71238  1
 Na  Na8  1  0.69836  0.00000  0.92346  1
 Na  Na9  1  0.30164  0.30164  0.92346  1
 Na  Na10  1  0.00000  0.69836  0.92346  1
 Na  Na11  1  0.63909  0.63909  0.08494  1
 Na  Na12  1  -0.00000  0.36091  0.08494  1
 Na  Na13  1  0.36091  -0.00000  0.08494  1
 Na  Na14  1  0.36091  0.36091  0.58494  1
 Na  Na15  1  0.00000  0.63909  0.58494  1
 Na  Na16  1  0.63909  0.00000  0.58494  1
 Na  Na17  1  -0.00000  0.30164  0.42346  1
 Na  Na18  1  0.69836  0.69836  0.42346  1
