CIF file written using JARVIS-Tools package.
data_Al5BO9
_symmetry_space_group_name_H-M  'Cmc2_1'
_cell_length_a       8.08399
_cell_length_b       8.08399
_cell_length_c       7.76106
_cell_angle_alpha    90
_cell_angle_beta     90
_cell_angle_gamma    138.502

_symmetry_Int_Tables_number  36
_chemical_formula_structural  Al5BO9
_chemical_formula_sum  Al0B2O8
_cell_volume  336.06193247142085
_cell_formula_units_Z  2
loop_
  _symmetry_equiv_pos_site_id
 _symmetry_equiv_pos_as_xyz
 1  'x, y, z'
loop_
 _atom_site_type_symbol
 _atom_site_label
 _atom_site_symmetry_multiplicity
 _atom_site_fract_x
 _atom_site_fract_y
 _atom_site_fract_z
 _atom_site_fract_occupancy
 Al  Al1  1  0.13590  0.36749  0.33261  1
 Al  Al2  1  0.86410  0.63251  0.83261  1
 Al  Al3  1  0.36749  0.13590  0.83261  1
 Al  Al4  1  0.63251  0.86410  0.33261  1
 Al  Al5  1  0.29706  0.70294  0.66675  1
 Al  Al6  1  0.74473  0.25527  0.51886  1
 Al  Al7  1  0.55614  0.44386  0.51693  1
 Al  Al8  1  0.44386  0.55614  0.01693  1
 Al  Al9  1  0.70294  0.29706  0.16675  1
 Al  Al10  1  0.25527  0.74473  0.01886  1
 B  B1  1  0.98447  0.01553  0.05453  1
 B  B2  1  0.01553  0.98447  0.55453  1
 O  O1  1  0.54546  0.45454  0.90488  1
 O  O2  1  0.66957  0.33043  0.70196  1
 O  O3  1  0.33043  0.66957  0.20196  1
 O  O4  1  0.25774  0.16219  0.61884  1
 O  O5  1  0.93281  0.55333  0.03336  1
 O  O6  1  0.44667  0.06719  0.03336  1
 O  O7  1  0.55333  0.93281  0.53336  1
 O  O8  1  0.06719  0.44667  0.53336  1
 O  O9  1  0.16219  0.25774  0.11884  1
 O  O10  1  0.64814  0.35186  0.37094  1
 O  O11  1  0.35186  0.64814  0.87094  1
 O  O12  1  0.80899  0.19101  0.26826  1
 O  O13  1  0.19101  0.80899  0.76826  1
 O  O14  1  0.45454  0.54546  0.40488  1
 O  O15  1  0.83781  0.74226  0.61884  1
 O  O16  1  0.04603  0.95397  0.92596  1
 O  O17  1  0.95397  0.04603  0.42596  1
 O  O18  1  0.74226  0.83781  0.11884  1
