CIF file written using JARVIS-Tools package.
data_KCu4As2
_symmetry_space_group_name_H-M  'R-3m'
_cell_length_a       8.94966
_cell_length_b       8.94966
_cell_length_c       8.94965
_cell_angle_alpha    26.7585
_cell_angle_beta     26.7585
_cell_angle_gamma    26.7585

_symmetry_Int_Tables_number  166
_chemical_formula_structural  KCu4As2
_chemical_formula_sum  KCu4As2
_cell_volume  128.1257686080726
_cell_formula_units_Z  1
loop_
  _symmetry_equiv_pos_site_id
 _symmetry_equiv_pos_as_xyz
 1  'x, y, z'
loop_
 _atom_site_type_symbol
 _atom_site_label
 _atom_site_symmetry_multiplicity
 _atom_site_fract_x
 _atom_site_fract_y
 _atom_site_fract_z
 _atom_site_fract_occupancy
 As  As1  1  0.24263  0.24263  0.24263  1
 As  As2  1  0.75737  0.75737  0.75737  1
 Cu  Cu1  1  0.14576  0.14576  0.14576  1
 Cu  Cu2  1  0.85424  0.85424  0.85424  1
 Cu  Cu3  1  0.44474  0.44474  0.44474  1
 Cu  Cu4  1  0.55526  0.55526  0.55526  1
 K  K1  1  0.00000  0.00000  0.00000  1
