CIF file written using JARVIS-Tools package.
data_ZrBeCr
_symmetry_space_group_name_H-M  'I4mm'
_cell_length_a       6.052
_cell_length_b       6.052
_cell_length_c       6.052
_cell_angle_alpha    154.031
_cell_angle_beta     154.031
_cell_angle_gamma    37.054

_symmetry_Int_Tables_number  107
_chemical_formula_structural  ZrBeCr
_chemical_formula_sum  ZrBeCr
_cell_volume  42.4414514575793
_cell_formula_units_Z  1
loop_
  _symmetry_equiv_pos_site_id
 _symmetry_equiv_pos_as_xyz
 1  'x, y, z'
loop_
 _atom_site_type_symbol
 _atom_site_label
 _atom_site_symmetry_multiplicity
 _atom_site_fract_x
 _atom_site_fract_y
 _atom_site_fract_z
 _atom_site_fract_occupancy
 Be  Be1  1  0.98397  0.98397  -0.00000  1
 Cr  Cr1  1  0.35902  0.35902  -0.00000  1
 Zr  Zr1  1  0.65701  0.65701  -0.00000  1
