CIF file written using JARVIS-Tools package.
data_Co2NiO6
_symmetry_space_group_name_H-M  'Cmce'
_cell_length_a       4.90289
_cell_length_b       4.88828
_cell_length_c       8.69469
_cell_angle_alpha    90
_cell_angle_beta     90
_cell_angle_gamma    60.0986

_symmetry_Int_Tables_number  64
_chemical_formula_structural  Co2NiO6
_chemical_formula_sum  Co4Ni2O2
_cell_volume  180.64364397153764
_cell_formula_units_Z  2
loop_
  _symmetry_equiv_pos_site_id
 _symmetry_equiv_pos_as_xyz
 1  'x, y, z'
loop_
 _atom_site_type_symbol
 _atom_site_label
 _atom_site_symmetry_multiplicity
 _atom_site_fract_x
 _atom_site_fract_y
 _atom_site_fract_z
 _atom_site_fract_occupancy
 Co  Co1  1  0.33327  0.33336  0.00000  1
 Co  Co2  1  0.33327  0.83336  0.50000  1
 Co  Co3  1  0.66673  0.16664  0.50000  1
 Co  Co4  1  0.66673  0.66664  0.00000  1
 Ni  Ni1  1  0.00000  0.00000  0.00000  1
 Ni  Ni2  1  0.00000  0.50000  0.50000  1
 O  O1  1  -0.00000  0.16376  0.60714  1
 O  O2  1  0.00000  0.33624  0.10714  1
 O  O3  1  0.66383  0.50021  0.39271  1
 O  O4  1  0.33617  -0.00021  0.89271  1
 O  O5  1  -0.00000  0.66376  0.89286  1
 O  O6  1  0.33617  0.66405  0.10729  1
 O  O7  1  0.33617  0.49979  0.60729  1
 O  O8  1  0.00000  0.83624  0.39286  1
 O  O9  1  0.66383  0.00021  0.10729  1
 O  O10  1  0.66383  0.33595  0.89271  1
 O  O11  1  0.33617  0.16405  0.39271  1
 O  O12  1  0.66383  0.83595  0.60729  1
