CIF file written using JARVIS-Tools package.
data_Pr2PbS4
_symmetry_space_group_name_H-M  'I-42d'
_cell_length_a       7.56386
_cell_length_b       7.56386
_cell_length_c       7.56386
_cell_angle_alpha    109.429
_cell_angle_beta     109.429
_cell_angle_gamma    109.555

_symmetry_Int_Tables_number  122
_chemical_formula_structural  Pr2PbS4
_chemical_formula_sum  Pr4Pb2S8
_cell_volume  333.1252151389923
_cell_formula_units_Z  2
loop_
  _symmetry_equiv_pos_site_id
 _symmetry_equiv_pos_as_xyz
 1  'x, y, z'
loop_
 _atom_site_type_symbol
 _atom_site_label
 _atom_site_symmetry_multiplicity
 _atom_site_fract_x
 _atom_site_fract_y
 _atom_site_fract_z
 _atom_site_fract_occupancy
 Pb  Pb1  1  0.62500  0.37500  0.25000  1
 Pb  Pb2  1  0.87500  0.12500  0.75000  1
 Pr  Pr1  1  0.11637  0.75000  0.86637  1
 Pr  Pr2  1  0.25000  0.61637  0.36637  1
 Pr  Pr3  1  0.38363  0.25000  0.63363  1
 Pr  Pr4  1  0.75000  0.88363  0.13363  1
 S  S1  1  0.00869  0.85556  0.49838  1
 S  S2  1  0.01031  0.35718  0.50162  1
 S  S3  1  0.48969  0.99131  0.34687  1
 S  S4  1  0.14444  0.14282  0.15313  1
 S  S5  1  0.35556  0.50869  0.99838  1
 S  S6  1  0.64282  0.64444  0.65313  1
 S  S7  1  0.49131  0.98969  0.84687  1
 S  S8  1  0.85718  0.51031  0.00162  1
