CIF file written using JARVIS-Tools package.
data_Na2HfH6O6
_symmetry_space_group_name_H-M  'R-3'
_cell_length_a       5.84463
_cell_length_b       5.84463
_cell_length_c       5.84453
_cell_angle_alpha    61.4504
_cell_angle_beta     61.4491
_cell_angle_gamma    61.451

_symmetry_Int_Tables_number  148
_chemical_formula_structural  Na2HfH6O6
_chemical_formula_sum  Na2HfH6O6
_cell_volume  145.76915054248514
_cell_formula_units_Z  1
loop_
  _symmetry_equiv_pos_site_id
 _symmetry_equiv_pos_as_xyz
 1  'x, y, z'
loop_
 _atom_site_type_symbol
 _atom_site_label
 _atom_site_symmetry_multiplicity
 _atom_site_fract_x
 _atom_site_fract_y
 _atom_site_fract_z
 _atom_site_fract_occupancy
 H  H1  1  0.07748  0.64700  0.32502  1
 H  H2  1  0.64698  0.32504  0.07748  1
 H  H3  1  0.32503  0.07749  0.64697  1
 H  H4  1  0.92252  0.35300  0.67498  1
 H  H5  1  0.35302  0.67496  0.92252  1
 H  H6  1  0.67497  0.92251  0.35303  1
 Hf  Hf1  1  0.50000  0.50000  0.50000  1
 Na  Na1  1  0.16803  0.16802  0.16803  1
 Na  Na2  1  0.83197  0.83198  0.83197  1
 O  O1  1  0.12819  0.71265  0.41421  1
 O  O2  1  0.71265  0.41422  0.12816  1
 O  O3  1  0.41421  0.12819  0.71263  1
 O  O4  1  0.87181  0.28735  0.58579  1
 O  O5  1  0.28735  0.58578  0.87184  1
 O  O6  1  0.58579  0.87181  0.28737  1
