CIF file written using JARVIS-Tools package.
data_Li2CrP2O8
_symmetry_space_group_name_H-M  'P-3'
_cell_length_a       4.83415
_cell_length_b       4.83415
_cell_length_c       7.05394
_cell_angle_alpha    90
_cell_angle_beta     90
_cell_angle_gamma    120

_symmetry_Int_Tables_number  147
_chemical_formula_structural  Li2CrP2O8
_chemical_formula_sum  Li2CrP2O8
_cell_volume  142.75893478659034
_cell_formula_units_Z  1
loop_
  _symmetry_equiv_pos_site_id
 _symmetry_equiv_pos_as_xyz
 1  'x, y, z'
loop_
 _atom_site_type_symbol
 _atom_site_label
 _atom_site_symmetry_multiplicity
 _atom_site_fract_x
 _atom_site_fract_y
 _atom_site_fract_z
 _atom_site_fract_occupancy
 Cr  Cr1  1  0.00000  0.00000  -0.00000  1
 Li  Li1  1  0.66667  0.33333  0.70300  1
 Li  Li2  1  0.33333  0.66667  0.29699  1
 O  O1  1  0.34836  0.04443  0.15689  1
 O  O2  1  0.66667  0.33333  0.44511  1
 O  O3  1  0.95557  0.30392  0.15689  1
 O  O4  1  0.69608  0.65164  0.15689  1
 O  O5  1  0.30392  0.34836  0.84311  1
 O  O6  1  0.04443  0.69608  0.84311  1
 O  O7  1  0.33333  0.66667  0.55489  1
 O  O8  1  0.65164  0.95557  0.84311  1
 P  P1  1  0.66667  0.33333  0.23427  1
 P  P2  1  0.33333  0.66667  0.76573  1
