CIF file written using JARVIS-Tools package.
data_BeInPd
_symmetry_space_group_name_H-M  'I4mm'
_cell_length_a       5.13463
_cell_length_b       5.13463
_cell_length_c       5.13463
_cell_angle_alpha    144.118
_cell_angle_beta     144.118
_cell_angle_gamma    51.6503

_symmetry_Int_Tables_number  107
_chemical_formula_structural  BeInPd
_chemical_formula_sum  BeInPd
_cell_volume  46.24735490125228
_cell_formula_units_Z  1
loop_
  _symmetry_equiv_pos_site_id
 _symmetry_equiv_pos_as_xyz
 1  'x, y, z'
loop_
 _atom_site_type_symbol
 _atom_site_label
 _atom_site_symmetry_multiplicity
 _atom_site_fract_x
 _atom_site_fract_y
 _atom_site_fract_z
 _atom_site_fract_occupancy
 Be  Be1  1  0.03821  0.03821  0.00000  1
 In  In1  1  0.33248  0.33248  -0.00000  1
 Pd  Pd1  1  0.62931  0.62931  0.00000  1
