CIF file written using JARVIS-Tools package.
data_PrAlPt
_symmetry_space_group_name_H-M  'Pnma'
_cell_length_a       4.5066
_cell_length_b       7.24738
_cell_length_c       7.89426
_cell_angle_alpha    90
_cell_angle_beta     90
_cell_angle_gamma    90

_symmetry_Int_Tables_number  62
_chemical_formula_structural  PrAlPt
_chemical_formula_sum  Pr4Al4Pt4
_cell_volume  257.83481103139735
_cell_formula_units_Z  4
loop_
  _symmetry_equiv_pos_site_id
 _symmetry_equiv_pos_as_xyz
 1  'x, y, z'
loop_
 _atom_site_type_symbol
 _atom_site_label
 _atom_site_symmetry_multiplicity
 _atom_site_fract_x
 _atom_site_fract_y
 _atom_site_fract_z
 _atom_site_fract_occupancy
 Al  Al1  1  0.25000  0.14727  0.93137  1
 Al  Al2  1  0.75000  0.35273  0.43137  1
 Al  Al3  1  0.25000  0.64727  0.56863  1
 Al  Al4  1  0.75000  0.85273  0.06863  1
 Pr  Pr1  1  0.25000  0.52792  0.18205  1
 Pr  Pr2  1  0.25000  0.02792  0.31795  1
 Pr  Pr3  1  0.75000  0.97208  0.68205  1
 Pr  Pr4  1  0.75000  0.47208  0.81795  1
 Pt  Pt1  1  0.25000  0.78652  0.89098  1
 Pt  Pt2  1  0.25000  0.28652  0.60902  1
 Pt  Pt3  1  0.75000  0.71348  0.39098  1
 Pt  Pt4  1  0.75000  0.21348  0.10902  1
