CIF file written using JARVIS-Tools package.
data_NaZr2TiF11
_symmetry_space_group_name_H-M  'C2/m'
_cell_length_a       5.73997
_cell_length_b       5.73997
_cell_length_c       7.85412
_cell_angle_alpha    69.1869
_cell_angle_beta     69.1869
_cell_angle_gamma    73.0299

_symmetry_Int_Tables_number  12
_chemical_formula_structural  NaZr2TiF11
_chemical_formula_sum  NaZr2TiF
_cell_volume  222.0019278127747
_cell_formula_units_Z  1
loop_
  _symmetry_equiv_pos_site_id
 _symmetry_equiv_pos_as_xyz
 1  'x, y, z'
loop_
 _atom_site_type_symbol
 _atom_site_label
 _atom_site_symmetry_multiplicity
 _atom_site_fract_x
 _atom_site_fract_y
 _atom_site_fract_z
 _atom_site_fract_occupancy
 F  F1  1  0.80862  0.21699  0.69045  1
 F  F2  1  0.78301  0.19138  0.30955  1
 F  F3  1  0.19138  0.78301  0.30955  1
 F  F4  1  0.21699  0.80862  0.69045  1
 F  F5  1  0.50000  0.50000  0.50000  1
 F  F6  1  0.32850  0.67150  0.00000  1
 F  F7  1  0.67150  0.32850  -0.00000  1
 F  F8  1  0.24765  0.24765  0.35641  1
 F  F9  1  0.75235  0.75235  0.64359  1
 F  F10  1  0.26369  0.26369  0.89206  1
 F  F11  1  0.73631  0.73631  0.10794  1
 Na  Na1  1  0.00000  0.00000  0.00000  1
 Ti  Ti1  1  -0.00000  0.00000  0.50000  1
 Zr  Zr1  1  0.50315  0.50315  0.76654  1
 Zr  Zr2  1  0.49685  0.49685  0.23346  1
