CIF file written using JARVIS-Tools package.
data_LuAlAu
_symmetry_space_group_name_H-M  'P-62m'
_cell_length_a       4.04198
_cell_length_b       7.16337
_cell_length_c       7.1634
_cell_angle_alpha    120
_cell_angle_beta     90
_cell_angle_gamma    90

_symmetry_Int_Tables_number  189
_chemical_formula_structural  LuAlAu
_chemical_formula_sum  Lu3Al3Au3
_cell_volume  179.6231824297101
_cell_formula_units_Z  3
loop_
  _symmetry_equiv_pos_site_id
 _symmetry_equiv_pos_as_xyz
 1  'x, y, z'
loop_
 _atom_site_type_symbol
 _atom_site_label
 _atom_site_symmetry_multiplicity
 _atom_site_fract_x
 _atom_site_fract_y
 _atom_site_fract_z
 _atom_site_fract_occupancy
 Al  Al1  1  0.00000  0.24537  0.00000  1
 Al  Al2  1  0.00000  0.75460  0.75461  1
 Al  Al3  1  0.00000  0.99999  0.24539  1
 Au  Au1  1  0.00000  0.33332  0.66667  1
 Au  Au2  1  0.00000  0.66666  0.33333  1
 Au  Au3  1  0.50000  0.99999  -0.00000  1
 Lu  Lu1  1  0.50000  0.58669  0.00000  1
 Lu  Lu2  1  0.50000  0.41328  0.41329  1
 Lu  Lu3  1  0.50000  0.99999  0.58671  1
