CIF file written using JARVIS-Tools package.
data_SrTl2Pd
_symmetry_space_group_name_H-M  'Cmcm'
_cell_length_a       4.41116
_cell_length_b       6.02611
_cell_length_c       8.49316
_cell_angle_alpha    90
_cell_angle_beta     90
_cell_angle_gamma    111.469

_symmetry_Int_Tables_number  63
_chemical_formula_structural  SrTl2Pd
_chemical_formula_sum  Sr2Tl4Pd2
_cell_volume  210.10111982596695
_cell_formula_units_Z  2
loop_
  _symmetry_equiv_pos_site_id
 _symmetry_equiv_pos_as_xyz
 1  'x, y, z'
loop_
 _atom_site_type_symbol
 _atom_site_label
 _atom_site_symmetry_multiplicity
 _atom_site_fract_x
 _atom_site_fract_y
 _atom_site_fract_z
 _atom_site_fract_occupancy
 Pd  Pd1  1  0.28004  0.56007  0.25000  1
 Pd  Pd2  1  0.71996  0.43993  0.75000  1
 Sr  Sr1  1  0.43456  0.86912  0.75000  1
 Sr  Sr2  1  0.56544  0.13088  0.25000  1
 Tl  Tl1  1  0.14457  0.28913  0.95024  1
 Tl  Tl2  1  0.85543  0.71087  0.04976  1
 Tl  Tl3  1  0.14457  0.28913  0.54976  1
 Tl  Tl4  1  0.85543  0.71087  0.45024  1
