CIF file written using JARVIS-Tools package.
data_Ba3Nb6Si4O26
_symmetry_space_group_name_H-M  'P-62m'
_cell_length_a       9.1438
_cell_length_b       9.1438
_cell_length_c       7.79158
_cell_angle_alpha    90
_cell_angle_beta     90
_cell_angle_gamma    120

_symmetry_Int_Tables_number  189
_chemical_formula_structural  Ba3Nb6Si4O26
_chemical_formula_sum  Ba3Nb6Si4O26
_cell_volume  564.169990414554
_cell_formula_units_Z  1
loop_
  _symmetry_equiv_pos_site_id
 _symmetry_equiv_pos_as_xyz
 1  'x, y, z'
loop_
 _atom_site_type_symbol
 _atom_site_label
 _atom_site_symmetry_multiplicity
 _atom_site_fract_x
 _atom_site_fract_y
 _atom_site_fract_z
 _atom_site_fract_occupancy
 Ba  Ba1  1  0.60323  0.00000  0.50000  1
 Ba  Ba2  1  0.39677  0.39677  0.50000  1
 Ba  Ba3  1  -0.00000  0.60323  0.50000  1
 Nb  Nb1  1  0.23901  0.00000  0.24285  1
 Nb  Nb2  1  0.76099  0.76099  0.75715  1
 Nb  Nb3  1  -0.00000  0.23901  0.75715  1
 Nb  Nb4  1  -0.00000  0.23901  0.24285  1
 Nb  Nb5  1  0.76099  0.76099  0.24285  1
 Nb  Nb6  1  0.23901  0.00000  0.75715  1
 O  O1  1  0.18372  0.48863  0.28857  1
 O  O2  1  0.48863  0.18372  0.71143  1
 O  O3  1  0.18372  0.48863  0.71143  1
 O  O4  1  0.82145  0.00000  0.22481  1
 O  O5  1  0.51137  0.69508  0.71143  1
 O  O6  1  0.69508  0.51137  0.28857  1
 O  O7  1  0.66667  0.33333  0.00000  1
 O  O8  1  0.81628  0.30492  0.71143  1
 O  O9  1  0.33333  0.66667  0.00000  1
 O  O10  1  0.30492  0.81628  0.28857  1
 O  O11  1  0.29078  0.00000  0.00000  1
 O  O12  1  0.70922  0.70922  0.00000  1
 O  O13  1  0.81628  0.30492  0.28857  1
 O  O14  1  0.51137  0.69508  0.28857  1
 O  O15  1  0.00000  0.22114  0.50000  1
 O  O16  1  0.77886  0.77886  0.50000  1
 O  O17  1  -0.00000  0.29078  0.00000  1
 O  O18  1  0.30492  0.81628  0.71143  1
 O  O19  1  0.00000  0.82145  0.77519  1
 O  O20  1  0.00000  0.82145  0.22481  1
 O  O21  1  0.17855  0.17855  0.22481  1
 O  O22  1  0.82145  0.00000  0.77519  1
 O  O23  1  0.48863  0.18372  0.28857  1
 O  O24  1  0.69508  0.51137  0.71143  1
 O  O25  1  0.22114  0.00000  0.50000  1
 O  O26  1  0.17855  0.17855  0.77519  1
 Si  Si1  1  0.33333  0.66667  0.79194  1
 Si  Si2  1  0.33333  0.66667  0.20806  1
 Si  Si3  1  0.66667  0.33333  0.79194  1
 Si  Si4  1  0.66667  0.33333  0.20806  1
