CIF file written using JARVIS-Tools package.
data_Er2Au
_symmetry_space_group_name_H-M  'Pnma'
_cell_length_a       4.87181
_cell_length_b       6.98906
_cell_length_c       8.81437
_cell_angle_alpha    90
_cell_angle_beta     90
_cell_angle_gamma    90

_symmetry_Int_Tables_number  62
_chemical_formula_structural  Er2Au
_chemical_formula_sum  Er8Au4
_cell_volume  300.1238695366399
_cell_formula_units_Z  4
loop_
  _symmetry_equiv_pos_site_id
 _symmetry_equiv_pos_as_xyz
 1  'x, y, z'
loop_
 _atom_site_type_symbol
 _atom_site_label
 _atom_site_symmetry_multiplicity
 _atom_site_fract_x
 _atom_site_fract_y
 _atom_site_fract_z
 _atom_site_fract_occupancy
 Au  Au1  1  0.25000  0.25829  0.09857  1
 Au  Au2  1  0.75000  0.24171  0.59857  1
 Au  Au3  1  0.75000  0.74171  0.90143  1
 Au  Au4  1  0.25000  0.75829  0.40143  1
 Er  Er1  1  0.25000  0.84913  0.08036  1
 Er  Er2  1  0.75000  0.65087  0.58036  1
 Er  Er3  1  0.75000  0.15087  0.91964  1
 Er  Er4  1  0.25000  0.34913  0.41964  1
 Er  Er5  1  0.25000  0.48767  0.82273  1
 Er  Er6  1  0.75000  0.01233  0.32273  1
 Er  Er7  1  0.75000  0.51233  0.17727  1
 Er  Er8  1  0.25000  0.98767  0.67727  1
