CIF file written using JARVIS-Tools package.
data_Eu2Ga3Ir
_symmetry_space_group_name_H-M  'P6_3/mmc'
_cell_length_a       5.55846
_cell_length_b       5.55843
_cell_length_c       8.63752
_cell_angle_alpha    89.9997
_cell_angle_beta     90.0003
_cell_angle_gamma    120

_symmetry_Int_Tables_number  194
_chemical_formula_structural  Eu2Ga3Ir
_chemical_formula_sum  Eu4Ga6Ir2
_cell_volume  231.1143570595653
_cell_formula_units_Z  2
loop_
  _symmetry_equiv_pos_site_id
 _symmetry_equiv_pos_as_xyz
 1  'x, y, z'
loop_
 _atom_site_type_symbol
 _atom_site_label
 _atom_site_symmetry_multiplicity
 _atom_site_fract_x
 _atom_site_fract_y
 _atom_site_fract_z
 _atom_site_fract_occupancy
 Eu  Eu1  1  0.33333  0.66665  0.45028  1
 Eu  Eu2  1  0.66667  0.33335  0.95029  1
 Eu  Eu3  1  0.33333  0.66668  0.04971  1
 Eu  Eu4  1  0.66667  0.33332  0.54972  1
 Ga  Ga1  1  0.83532  0.67062  0.25000  1
 Ga  Ga2  1  0.83530  0.16471  0.25000  1
 Ga  Ga3  1  0.16470  0.83529  0.74999  1
 Ga  Ga4  1  0.32941  0.16471  0.25001  1
 Ga  Ga5  1  0.67059  0.83529  0.74999  1
 Ga  Ga6  1  0.16469  0.32938  0.75001  1
 Ir  Ir1  1  0.00000  0.00001  -0.00000  1
 Ir  Ir2  1  0.00000  0.00000  0.50000  1
