CIF file written using JARVIS-Tools package.
data_InGaSe2
_symmetry_space_group_name_H-M  'I4/mcm'
_cell_length_a       6.42097
_cell_length_b       6.55431
_cell_length_c       6.55431
_cell_angle_alpha    76.1175
_cell_angle_beta     60.6707
_cell_angle_gamma    60.6707

_symmetry_Int_Tables_number  140
_chemical_formula_structural  InGaSe2
_chemical_formula_sum  In2Ga2Se4
_cell_volume  209.6558090415172
_cell_formula_units_Z  2
loop_
  _symmetry_equiv_pos_site_id
 _symmetry_equiv_pos_as_xyz
 1  'x, y, z'
loop_
 _atom_site_type_symbol
 _atom_site_label
 _atom_site_symmetry_multiplicity
 _atom_site_fract_x
 _atom_site_fract_y
 _atom_site_fract_z
 _atom_site_fract_occupancy
 Ga  Ga1  1  0.25000  0.50000  0.50000  1
 Ga  Ga2  1  0.75000  0.50000  0.50000  1
 In  In1  1  0.75000  0.00000  0.00000  1
 In  In2  1  0.25000  0.00000  0.00000  1
 Se  Se1  1  0.33656  0.50000  0.82687  1
 Se  Se2  1  0.66344  0.50000  0.17313  1
 Se  Se3  1  0.83656  0.82687  0.50000  1
 Se  Se4  1  0.16344  0.17313  0.50000  1
