CIF file written using JARVIS-Tools package.
data_MoCl3
_symmetry_space_group_name_H-M  'C2/c'
_cell_length_a       5.72128
_cell_length_b       5.72128
_cell_length_c       12.0497
_cell_angle_alpha    91.0649
_cell_angle_beta     91.0649
_cell_angle_gamma    115.144

_symmetry_Int_Tables_number  15
_chemical_formula_structural  MoCl3
_chemical_formula_sum  Mo4Cl2
_cell_volume  356.8352415084702
_cell_formula_units_Z  4
loop_
  _symmetry_equiv_pos_site_id
 _symmetry_equiv_pos_as_xyz
 1  'x, y, z'
loop_
 _atom_site_type_symbol
 _atom_site_label
 _atom_site_symmetry_multiplicity
 _atom_site_fract_x
 _atom_site_fract_y
 _atom_site_fract_z
 _atom_site_fract_occupancy
 Cl  Cl1  1  0.67579  0.64988  0.63975  1
 Cl  Cl2  1  0.01010  0.66090  0.86060  1
 Cl  Cl3  1  0.31773  0.00669  0.10911  1
 Cl  Cl4  1  -0.00669  0.68227  0.39089  1
 Cl  Cl5  1  0.64988  0.67579  0.13975  1
 Cl  Cl6  1  0.66090  0.01010  0.36060  1
 Cl  Cl7  1  0.35012  0.32421  0.86025  1
 Cl  Cl8  1  0.00669  0.31773  0.60911  1
 Cl  Cl9  1  0.33910  -0.01010  0.63940  1
 Cl  Cl10  1  -0.01010  0.33910  0.13940  1
 Cl  Cl11  1  0.68227  -0.00669  0.89089  1
 Cl  Cl12  1  0.32421  0.35012  0.36025  1
 Mo  Mo1  1  0.97792  0.02208  0.75000  1
 Mo  Mo2  1  0.02208  0.97792  0.25000  1
 Mo  Mo3  1  0.28929  0.71071  0.25000  1
 Mo  Mo4  1  0.71071  0.28929  0.75000  1
