CIF file written using JARVIS-Tools package.
data_BeTl2Hg
_symmetry_space_group_name_H-M  'P4mm'
_cell_length_a       3.31866
_cell_length_b       3.31866
_cell_length_c       8.82494
_cell_angle_alpha    90
_cell_angle_beta     90
_cell_angle_gamma    90

_symmetry_Int_Tables_number  99
_chemical_formula_structural  BeTl2Hg
_chemical_formula_sum  BeTl2Hg
_cell_volume  97.19332135723658
_cell_formula_units_Z  1
loop_
  _symmetry_equiv_pos_site_id
 _symmetry_equiv_pos_as_xyz
 1  'x, y, z'
loop_
 _atom_site_type_symbol
 _atom_site_label
 _atom_site_symmetry_multiplicity
 _atom_site_fract_x
 _atom_site_fract_y
 _atom_site_fract_z
 _atom_site_fract_occupancy
 Be  Be1  1  0.00000  0.00000  0.57462  1
 Hg  Hg1  1  0.50000  0.50000  0.66548  1
 Tl  Tl1  1  0.00000  0.00000  0.96294  1
 Tl  Tl2  1  0.50000  0.50000  0.29695  1
