CIF file written using JARVIS-Tools package.
data_CrFeBi2O6
_symmetry_space_group_name_H-M  'R3'
_cell_length_a       5.44312
_cell_length_b       5.44312
_cell_length_c       5.4432
_cell_angle_alpha    60.7644
_cell_angle_beta     60.765
_cell_angle_gamma    60.7654

_symmetry_Int_Tables_number  146
_chemical_formula_structural  CrFeBi2O6
_chemical_formula_sum  CrFeBi2O6
_cell_volume  116.00217019771846
_cell_formula_units_Z  1
loop_
  _symmetry_equiv_pos_site_id
 _symmetry_equiv_pos_as_xyz
 1  'x, y, z'
loop_
 _atom_site_type_symbol
 _atom_site_label
 _atom_site_symmetry_multiplicity
 _atom_site_fract_x
 _atom_site_fract_y
 _atom_site_fract_z
 _atom_site_fract_occupancy
 Bi  Bi1  1  0.49561  0.49562  0.49562  1
 Bi  Bi2  1  -0.00374  -0.00374  -0.00374  1
 Cr  Cr1  1  0.22852  0.22852  0.22852  1
 Fe  Fe1  1  0.72644  0.72644  0.72644  1
 O  O1  1  0.40967  0.54543  0.95136  1
 O  O2  1  0.95137  0.40966  0.54543  1
 O  O3  1  0.90416  0.45594  0.04060  1
 O  O4  1  0.04060  0.90416  0.45595  1
 O  O5  1  0.54543  0.95136  0.40966  1
 O  O6  1  0.45594  0.04060  0.90417  1
