CIF file written using JARVIS-Tools package.
data_SmZnPd
_symmetry_space_group_name_H-M  'P-62m'
_cell_length_a       3.9103
_cell_length_b       7.3836
_cell_length_c       7.38326
_cell_angle_alpha    120.002
_cell_angle_beta     90
_cell_angle_gamma    90

_symmetry_Int_Tables_number  189
_chemical_formula_structural  SmZnPd
_chemical_formula_sum  Sm3Zn3Pd3
_cell_volume  184.60771301983488
_cell_formula_units_Z  3
loop_
  _symmetry_equiv_pos_site_id
 _symmetry_equiv_pos_as_xyz
 1  'x, y, z'
loop_
 _atom_site_type_symbol
 _atom_site_label
 _atom_site_symmetry_multiplicity
 _atom_site_fract_x
 _atom_site_fract_y
 _atom_site_fract_z
 _atom_site_fract_occupancy
 Pd  Pd1  1  0.00000  0.99999  -0.00000  1
 Pd  Pd2  1  0.50000  0.33332  0.66667  1
 Pd  Pd3  1  0.50000  0.66666  0.33333  1
 Sm  Sm1  1  0.00000  0.59431  -0.00000  1
 Sm  Sm2  1  0.00000  0.40566  0.40568  1
 Sm  Sm3  1  0.00000  -0.00001  0.59432  1
 Zn  Zn1  1  0.50000  0.24927  -0.00000  1
 Zn  Zn2  1  0.50000  0.75071  0.75072  1
 Zn  Zn3  1  0.50000  0.99999  0.24928  1
