CIF file written using JARVIS-Tools package.
data_AlHO2
_symmetry_space_group_name_H-M  'P2_1/m'
_cell_length_a       6.69071
_cell_length_b       6.03133
_cell_length_c       3.75125
_cell_angle_alpha    90
_cell_angle_beta     90
_cell_angle_gamma    25.7876

_symmetry_Int_Tables_number  11
_chemical_formula_structural  AlHO2
_chemical_formula_sum  Al2H2O4
_cell_volume  65.85451518292936
_cell_formula_units_Z  2
loop_
  _symmetry_equiv_pos_site_id
 _symmetry_equiv_pos_as_xyz
 1  'x, y, z'
loop_
 _atom_site_type_symbol
 _atom_site_label
 _atom_site_symmetry_multiplicity
 _atom_site_fract_x
 _atom_site_fract_y
 _atom_site_fract_z
 _atom_site_fract_occupancy
 Al  Al1  1  0.74933  0.61352  0.25000  1
 Al  Al2  1  0.25067  0.38648  0.75000  1
 H  H1  1  0.24729  0.75464  0.25000  1
 H  H2  1  0.75271  0.24536  0.75000  1
 O  O1  1  0.25037  0.32782  0.25000  1
 O  O2  1  0.74963  0.67218  0.75000  1
 O  O3  1  0.24839  -0.08504  0.25000  1
 O  O4  1  0.75161  0.08504  0.75000  1
