CIF file written using JARVIS-Tools package.
data_MoH2O4
_symmetry_space_group_name_H-M  'P1'
_cell_length_a       7.98684
_cell_length_b       6.196
_cell_length_c       3.74588
_cell_angle_alpha    107.316
_cell_angle_beta     78.7999
_cell_angle_gamma    121.117

_symmetry_Int_Tables_number  1
_chemical_formula_structural  MoH2O4
_chemical_formula_sum  Mo2H4O8
_cell_volume  151.31970205809733
_cell_formula_units_Z  2
loop_
  _symmetry_equiv_pos_site_id
 _symmetry_equiv_pos_as_xyz
 1  'x, y, z'
loop_
 _atom_site_type_symbol
 _atom_site_label
 _atom_site_symmetry_multiplicity
 _atom_site_fract_x
 _atom_site_fract_y
 _atom_site_fract_z
 _atom_site_fract_occupancy
 H  H1  1  0.06967  0.65718  0.22777  1
 H  H2  1  0.83206  0.44796  0.70285  1
 H  H3  1  0.72643  0.42224  0.35901  1
 H  H4  1  0.22142  0.52960  0.63469  1
 Mo  Mo1  1  0.80088  0.91807  0.76621  1
 Mo  Mo2  1  0.23616  0.12615  0.15252  1
 O  O1  1  0.55415  0.74119  0.78429  1
 O  O2  1  0.48343  0.25853  0.10830  1
 O  O3  1  0.15231  0.08079  0.69713  1
 O  O4  1  0.87092  0.90566  0.22203  1
 O  O5  1  0.84504  0.23394  0.87582  1
 O  O6  1  0.17376  0.77407  0.07597  1
 O  O7  1  0.82529  0.54892  0.54640  1
 O  O8  1  0.21038  0.42211  0.37549  1
