CIF file written using JARVIS-Tools package.
data_Tb2Al3Si2
_symmetry_space_group_name_H-M  'C2/m'
_cell_length_a       4.07017
_cell_length_b       5.51975
_cell_length_c       6.66321
_cell_angle_alpha    100.311
_cell_angle_beta     90
_cell_angle_gamma    111.635

_symmetry_Int_Tables_number  12
_chemical_formula_structural  Tb2Al3Si2
_chemical_formula_sum  Tb2Al3Si2
_cell_volume  136.54789499924829
_cell_formula_units_Z  1
loop_
  _symmetry_equiv_pos_site_id
 _symmetry_equiv_pos_as_xyz
 1  'x, y, z'
loop_
 _atom_site_type_symbol
 _atom_site_label
 _atom_site_symmetry_multiplicity
 _atom_site_fract_x
 _atom_site_fract_y
 _atom_site_fract_z
 _atom_site_fract_occupancy
 Al  Al1  1  0.69460  0.38920  0.86620  1
 Al  Al2  1  0.00000  0.00000  0.00000  1
 Al  Al3  1  0.30540  0.61080  0.13380  1
 Si  Si1  1  0.90670  0.81340  0.36061  1
 Si  Si2  1  0.09330  0.18660  0.63939  1
 Tb  Tb1  1  0.38036  0.76073  0.67855  1
 Tb  Tb2  1  0.61964  0.23927  0.32145  1
