CIF file written using JARVIS-Tools package.
data_SiO2
_symmetry_space_group_name_H-M  'C2'
_cell_length_a       4.95861
_cell_length_b       4.9586
_cell_length_c       5.71719
_cell_angle_alpha    87.8251
_cell_angle_beta     92.1749
_cell_angle_gamma    136.781

_symmetry_Int_Tables_number  5
_chemical_formula_structural  SiO2
_chemical_formula_sum  Si3O6
_cell_volume  96.18171349754107
_cell_formula_units_Z  3
loop_
  _symmetry_equiv_pos_site_id
 _symmetry_equiv_pos_as_xyz
 1  'x, y, z'
loop_
 _atom_site_type_symbol
 _atom_site_label
 _atom_site_symmetry_multiplicity
 _atom_site_fract_x
 _atom_site_fract_y
 _atom_site_fract_z
 _atom_site_fract_occupancy
 O  O1  1  0.04703  0.56742  0.28127  1
 O  O2  1  0.24546  0.39282  0.87581  1
 O  O3  1  0.66691  0.92807  0.54178  1
 O  O4  1  0.39282  0.24546  0.45752  1
 O  O5  1  0.92807  0.66691  0.79155  1
 O  O6  1  0.56742  0.04703  0.05207  1
 Si  Si1  1  0.06422  0.53369  0.98561  1
 Si  Si2  1  0.55436  0.55436  0.66667  1
 Si  Si3  1  0.53369  0.06422  0.34773  1
