CIF file written using JARVIS-Tools package.
data_LiBeZn
_symmetry_space_group_name_H-M  'I4mm'
_cell_length_a       4.81059
_cell_length_b       4.81059
_cell_length_c       4.81059
_cell_angle_alpha    145.21
_cell_angle_beta     145.21
_cell_angle_gamma    50.0209

_symmetry_Int_Tables_number  107
_chemical_formula_structural  LiBeZn
_chemical_formula_sum  LiBeZn
_cell_volume  36.06616410589755
_cell_formula_units_Z  1
loop_
  _symmetry_equiv_pos_site_id
 _symmetry_equiv_pos_as_xyz
 1  'x, y, z'
loop_
 _atom_site_type_symbol
 _atom_site_label
 _atom_site_symmetry_multiplicity
 _atom_site_fract_x
 _atom_site_fract_y
 _atom_site_fract_z
 _atom_site_fract_occupancy
 Be  Be1  1  0.00976  0.00976  0.00000  1
 Li  Li1  1  0.33854  0.33854  0.00000  1
 Zn  Zn1  1  0.65171  0.65171  0.00000  1
