CIF file written using JARVIS-Tools package.
data_Al5BO9
_symmetry_space_group_name_H-M  'Cmc2_1'
_cell_length_a       8.0839
_cell_length_b       8.0839
_cell_length_c       7.76102
_cell_angle_alpha    90
_cell_angle_beta     90
_cell_angle_gamma    138.501

_symmetry_Int_Tables_number  36
_chemical_formula_structural  Al5BO9
_chemical_formula_sum  Al0B2O8
_cell_volume  336.0619289462785
_cell_formula_units_Z  2
loop_
  _symmetry_equiv_pos_site_id
 _symmetry_equiv_pos_as_xyz
 1  'x, y, z'
loop_
 _atom_site_type_symbol
 _atom_site_label
 _atom_site_symmetry_multiplicity
 _atom_site_fract_x
 _atom_site_fract_y
 _atom_site_fract_z
 _atom_site_fract_occupancy
 Al  Al1  1  0.36749  0.13590  0.66804  1
 Al  Al2  1  0.63251  0.86410  0.16804  1
 Al  Al3  1  0.13590  0.36749  0.16804  1
 Al  Al4  1  0.86410  0.63251  0.66804  1
 Al  Al5  1  0.70294  0.29706  0.33391  1
 Al  Al6  1  0.25528  0.74472  0.48180  1
 Al  Al7  1  0.44386  0.55614  0.48370  1
 Al  Al8  1  0.55614  0.44386  0.98370  1
 Al  Al9  1  0.29706  0.70294  0.83391  1
 Al  Al10  1  0.74472  0.25528  0.98180  1
 B  B1  1  0.01552  0.98448  0.94611  1
 B  B2  1  0.98448  0.01552  0.44611  1
 O  O1  1  0.45454  0.54546  0.09575  1
 O  O2  1  0.33043  0.66957  0.29870  1
 O  O3  1  0.66957  0.33043  0.79870  1
 O  O4  1  0.16219  0.25773  0.38180  1
 O  O5  1  0.55332  0.93282  0.96729  1
 O  O6  1  0.06718  0.44668  0.96729  1
 O  O7  1  0.93282  0.55332  0.46729  1
 O  O8  1  0.44668  0.06718  0.46729  1
 O  O9  1  0.25773  0.16219  0.88180  1
 O  O10  1  0.35186  0.64814  0.62971  1
 O  O11  1  0.64814  0.35186  0.12971  1
 O  O12  1  0.19101  0.80899  0.73239  1
 O  O13  1  0.80899  0.19101  0.23239  1
 O  O14  1  0.54546  0.45454  0.59575  1
 O  O15  1  0.74227  0.83781  0.38180  1
 O  O16  1  0.95396  0.04604  0.07468  1
 O  O17  1  0.04604  0.95396  0.57468  1
 O  O18  1  0.83781  0.74227  0.88180  1
