CIF file written using JARVIS-Tools package.
data_RhBr3
_symmetry_space_group_name_H-M  'C2/m'
_cell_length_a       6.34939
_cell_length_b       6.34939
_cell_length_c       6.34555
_cell_angle_alpha    98.9939
_cell_angle_beta     98.994
_cell_angle_gamma    120.016

_symmetry_Int_Tables_number  12
_chemical_formula_structural  RhBr3
_chemical_formula_sum  Rh2Br6
_cell_volume  210.39864907556188
_cell_formula_units_Z  2
loop_
  _symmetry_equiv_pos_site_id
 _symmetry_equiv_pos_as_xyz
 1  'x, y, z'
loop_
 _atom_site_type_symbol
 _atom_site_label
 _atom_site_symmetry_multiplicity
 _atom_site_fract_x
 _atom_site_fract_y
 _atom_site_fract_z
 _atom_site_fract_occupancy
 Br  Br1  1  0.77592  0.77592  0.76432  1
 Br  Br2  1  0.22408  0.22408  0.23568  1
 Br  Br3  1  0.57254  0.92145  0.23336  1
 Br  Br4  1  0.07855  0.42746  0.76664  1
 Br  Br5  1  0.42746  0.07855  0.76664  1
 Br  Br6  1  0.92145  0.57254  0.23336  1
 Rh  Rh1  1  0.83342  0.16658  -0.00000  1
 Rh  Rh2  1  0.16658  0.83342  0.00000  1
