CIF file written using JARVIS-Tools package.
data_MgBeZn
_symmetry_space_group_name_H-M  'I4mm'
_cell_length_a       5.44449
_cell_length_b       5.44449
_cell_length_c       5.44449
_cell_angle_alpha    148.715
_cell_angle_beta     148.715
_cell_angle_gamma    44.8313

_symmetry_Int_Tables_number  107
_chemical_formula_structural  MgBeZn
_chemical_formula_sum  MgBeZn
_cell_volume  43.387999972328636
_cell_formula_units_Z  1
loop_
  _symmetry_equiv_pos_site_id
 _symmetry_equiv_pos_as_xyz
 1  'x, y, z'
loop_
 _atom_site_type_symbol
 _atom_site_label
 _atom_site_symmetry_multiplicity
 _atom_site_fract_x
 _atom_site_fract_y
 _atom_site_fract_z
 _atom_site_fract_occupancy
 Be  Be1  1  0.01853  0.01853  -0.00000  1
 Mg  Mg1  1  0.34111  0.34111  -0.00000  1
 Zn  Zn1  1  0.64037  0.64037  0.00000  1
