CIF file written using JARVIS-Tools package.
data_TaTe4I
_symmetry_space_group_name_H-M  'P-1'
_cell_length_a       6.77625
_cell_length_b       7.95822
_cell_length_c       8.57283
_cell_angle_alpha    112.136
_cell_angle_beta     102.692
_cell_angle_gamma    100.913

_symmetry_Int_Tables_number  2
_chemical_formula_structural  TaTe4I
_chemical_formula_sum  Ta2Te8I2
_cell_volume  398.37581683113
_cell_formula_units_Z  2
loop_
  _symmetry_equiv_pos_site_id
 _symmetry_equiv_pos_as_xyz
 1  'x, y, z'
loop_
 _atom_site_type_symbol
 _atom_site_label
 _atom_site_symmetry_multiplicity
 _atom_site_fract_x
 _atom_site_fract_y
 _atom_site_fract_z
 _atom_site_fract_occupancy
 I  I1  1  0.24945  0.40019  0.57411  1
 I  I2  1  0.75055  0.59981  0.42589  1
 Ta  Ta1  1  0.75055  0.99863  0.00120  1
 Ta  Ta2  1  0.24945  0.00137  0.99880  1
 Te  Te1  1  0.11860  0.32899  0.16793  1
 Te  Te2  1  0.03513  0.88153  0.21290  1
 Te  Te3  1  0.38268  0.85529  0.68979  1
 Te  Te4  1  0.61732  0.14471  0.31021  1
 Te  Te5  1  0.88140  0.67101  0.83207  1
 Te  Te6  1  0.53774  0.25265  0.92362  1
 Te  Te7  1  0.46226  0.74735  0.07638  1
 Te  Te8  1  0.96487  0.11847  0.78710  1
