CIF file written using JARVIS-Tools package.
data_Th2Cu
_symmetry_space_group_name_H-M  'I4/mcm'
_cell_length_a       5.78185
_cell_length_b       5.95035
_cell_length_c       5.95035
_cell_angle_alpha    76.3469
_cell_angle_beta     60.9323
_cell_angle_gamma    60.9323

_symmetry_Int_Tables_number  140
_chemical_formula_structural  Th2Cu
_chemical_formula_sum  Th4Cu2
_cell_volume  156.39433460858322
_cell_formula_units_Z  2
loop_
  _symmetry_equiv_pos_site_id
 _symmetry_equiv_pos_as_xyz
 1  'x, y, z'
loop_
 _atom_site_type_symbol
 _atom_site_label
 _atom_site_symmetry_multiplicity
 _atom_site_fract_x
 _atom_site_fract_y
 _atom_site_fract_z
 _atom_site_fract_occupancy
 Cu  Cu1  1  0.75000  0.00000  0.00000  1
 Cu  Cu2  1  0.25000  0.00000  0.00000  1
 Th  Th1  1  0.33869  0.50000  0.82262  1
 Th  Th2  1  0.66131  0.50000  0.17738  1
 Th  Th3  1  0.83869  0.82262  0.50000  1
 Th  Th4  1  0.16131  0.17738  0.50000  1
