CIF file written using JARVIS-Tools package.
data_Mn3O2F4
_symmetry_space_group_name_H-M  'P1'
_cell_length_a       4.71275
_cell_length_b       5.65631
_cell_length_c       7.87063
_cell_angle_alpha    87.3609
_cell_angle_beta     87.7117
_cell_angle_gamma    88.3138

_symmetry_Int_Tables_number  1
_chemical_formula_structural  Mn3O2F4
_chemical_formula_sum  Mn6O4F8
_cell_volume  209.33594280048726
_cell_formula_units_Z  2
loop_
  _symmetry_equiv_pos_site_id
 _symmetry_equiv_pos_as_xyz
 1  'x, y, z'
loop_
 _atom_site_type_symbol
 _atom_site_label
 _atom_site_symmetry_multiplicity
 _atom_site_fract_x
 _atom_site_fract_y
 _atom_site_fract_z
 _atom_site_fract_occupancy
 F  F1  1  0.20350  0.30595  0.90926  1
 F  F2  1  0.31344  0.81323  0.88568  1
 F  F3  1  0.27930  0.14004  0.56907  1
 F  F4  1  0.70081  0.18477  0.10386  1
 F  F5  1  0.80067  0.68765  0.09987  1
 F  F6  1  0.79767  0.37969  0.43174  1
 F  F7  1  0.19572  0.96237  0.21202  1
 F  F8  1  0.19231  0.62243  0.57954  1
 Mn  Mn1  1  0.49218  0.49946  0.00790  1
 Mn  Mn2  1  0.98676  0.99103  0.98072  1
 Mn  Mn3  1  0.01302  0.67105  0.33573  1
 Mn  Mn4  1  0.96404  0.33185  0.67918  1
 Mn  Mn5  1  0.48991  0.16948  0.33649  1
 Mn  Mn6  1  0.56533  0.82469  0.65815  1
 O  O1  1  0.69264  0.53037  0.78262  1
 O  O2  1  0.30797  0.46234  0.23318  1
 O  O3  1  0.69888  0.88222  0.42911  1
 O  O4  1  0.80585  0.04138  0.76587  1
