CIF file written using JARVIS-Tools package.
data_Yb2CdSb2
_symmetry_space_group_name_H-M  'Cmc2_1'
_cell_length_a       4.63111
_cell_length_b       7.14666
_cell_length_c       8.99194
_cell_angle_alpha    90
_cell_angle_beta     104.923
_cell_angle_gamma    90

_symmetry_Int_Tables_number  36
_chemical_formula_structural  Yb2CdSb2
_chemical_formula_sum  Yb4Cd2Sb4
_cell_volume  287.5687235652083
_cell_formula_units_Z  2
loop_
  _symmetry_equiv_pos_site_id
 _symmetry_equiv_pos_as_xyz
 1  'x, y, z'
loop_
 _atom_site_type_symbol
 _atom_site_label
 _atom_site_symmetry_multiplicity
 _atom_site_fract_x
 _atom_site_fract_y
 _atom_site_fract_z
 _atom_site_fract_occupancy
 Cd  Cd1  1  0.90197  0.39620  0.80394  1
 Cd  Cd2  1  0.09803  0.89620  0.19606  1
 Sb  Sb1  1  0.31993  0.51461  0.63986  1
 Sb  Sb2  1  0.68007  0.01461  0.36014  1
 Sb  Sb3  1  0.06937  0.49439  0.13875  1
 Sb  Sb4  1  0.93063  0.99439  0.86125  1
 Yb  Yb1  1  0.47954  0.71856  0.95908  1
 Yb  Yb2  1  0.52046  0.21856  0.04092  1
 Yb  Yb3  1  0.69743  0.53375  0.39486  1
 Yb  Yb4  1  0.30257  0.03375  0.60514  1
