CIF file written using JARVIS-Tools package.
data_NaCaBe2B2O6F
_symmetry_space_group_name_H-M  'Cc'
_cell_length_a       14.1874
_cell_length_b       4.6616
_cell_length_c       4.65895
_cell_angle_alpha    59.9811
_cell_angle_beta     90.1153
_cell_angle_gamma    90.2307

_symmetry_Int_Tables_number  9
_chemical_formula_structural  NaCaBe2B2O6F
_chemical_formula_sum  Na2Ca2Be4B4O2F2
_cell_volume  266.79036518354906
_cell_formula_units_Z  2
loop_
  _symmetry_equiv_pos_site_id
 _symmetry_equiv_pos_as_xyz
 1  'x, y, z'
loop_
 _atom_site_type_symbol
 _atom_site_label
 _atom_site_symmetry_multiplicity
 _atom_site_fract_x
 _atom_site_fract_y
 _atom_site_fract_z
 _atom_site_fract_occupancy
 B  B1  1  0.72252  0.52574  0.69480  1
 B  B2  1  0.00084  0.59061  0.63749  1
 B  B3  1  0.22252  0.22055  0.30520  1
 B  B4  1  0.50084  0.22811  0.36251  1
 Be  Be1  1  0.97424  0.25808  0.31993  1
 Be  Be2  1  0.47424  0.57800  0.68008  1
 Be  Be3  1  0.74888  0.20885  0.36294  1
 Be  Be4  1  0.24888  0.57180  0.63706  1
 Ca  Ca1  1  0.61180  0.90364  0.98256  1
 Ca  Ca2  1  0.11180  0.88621  0.01744  1
 F  F1  1  0.86112  0.29949  0.38510  1
 F  F2  1  0.36112  0.68460  0.61490  1
 Na  Na1  1  0.86272  0.88890  0.99136  1
 Na  Na2  1  0.36272  0.88026  0.00864  1
 O  O1  1  0.73522  0.83336  0.66134  1
 O  O2  1  0.23107  0.25347  0.99346  1
 O  O3  1  0.73107  0.24693  0.00654  1
 O  O4  1  0.48633  0.25792  0.64037  1
 O  O5  1  0.98633  0.89828  0.35963  1
 O  O6  1  0.52457  0.92045  0.40685  1
 O  O7  1  0.49620  0.50354  0.05080  1
 O  O8  1  0.99620  0.55435  0.94920  1
 O  O9  1  0.69614  0.47650  0.43524  1
 O  O10  1  0.02457  0.32730  0.59315  1
 O  O11  1  0.19614  0.91174  0.56476  1
 O  O12  1  0.23522  0.49470  0.33866  1
