CIF file written using JARVIS-Tools package.
data_Li2Fe3SbO8
_symmetry_space_group_name_H-M  'R-3m'
_cell_length_a       5.96673
_cell_length_b       5.96673
_cell_length_c       5.96672
_cell_angle_alpha    57.1662
_cell_angle_beta     57.1662
_cell_angle_gamma    57.1661

_symmetry_Int_Tables_number  166
_chemical_formula_structural  Li2Fe3SbO8
_chemical_formula_sum  Li2Fe3SbO8
_cell_volume  140.40116537525716
_cell_formula_units_Z  1
loop_
  _symmetry_equiv_pos_site_id
 _symmetry_equiv_pos_as_xyz
 1  'x, y, z'
loop_
 _atom_site_type_symbol
 _atom_site_label
 _atom_site_symmetry_multiplicity
 _atom_site_fract_x
 _atom_site_fract_y
 _atom_site_fract_z
 _atom_site_fract_occupancy
 Fe  Fe1  1  -0.00000  0.50000  0.50000  1
 Fe  Fe2  1  0.50000  0.00000  0.50000  1
 Fe  Fe3  1  0.50000  0.50000  -0.00000  1
 Li  Li1  1  0.12593  0.12593  0.12593  1
 Li  Li2  1  0.87407  0.87407  0.87407  1
 O  O1  1  0.26592  0.26592  0.26592  1
 O  O2  1  0.25503  0.25503  0.71941  1
 O  O3  1  0.25503  0.71941  0.25503  1
 O  O4  1  0.71941  0.25503  0.25503  1
 O  O5  1  0.28059  0.74497  0.74497  1
 O  O6  1  0.74497  0.28059  0.74497  1
 O  O7  1  0.74497  0.74497  0.28059  1
 O  O8  1  0.73408  0.73408  0.73408  1
 Sb  Sb1  1  0.50000  0.50000  0.50000  1
