CIF file written using JARVIS-Tools package.
data_Li2Mn4O5F3
_symmetry_space_group_name_H-M  'Cm'
_cell_length_a       6.02251
_cell_length_b       6.02251
_cell_length_c       6.04265
_cell_angle_alpha    57.6586
_cell_angle_beta     92.9102
_cell_angle_gamma    120.943

_symmetry_Int_Tables_number  8
_chemical_formula_structural  Li2Mn4O5F3
_chemical_formula_sum  Li2Mn4O5F3
_cell_volume  151.01753567173822
_cell_formula_units_Z  1
loop_
  _symmetry_equiv_pos_site_id
 _symmetry_equiv_pos_as_xyz
 1  'x, y, z'
loop_
 _atom_site_type_symbol
 _atom_site_label
 _atom_site_symmetry_multiplicity
 _atom_site_fract_x
 _atom_site_fract_y
 _atom_site_fract_z
 _atom_site_fract_occupancy
 F  F1  1  0.88099  0.72321  0.39580  1
 F  F2  1  0.85527  0.25581  0.88891  1
 F  F3  1  0.36808  0.77435  0.85758  1
 Li  Li1  1  0.61780  0.25024  0.62084  1
 Li  Li2  1  0.12892  0.76136  0.62084  1
 Mn  Mn1  1  0.60987  0.25094  0.13919  1
 Mn  Mn2  1  0.01836  0.00020  0.98144  1
 Mn  Mn3  1  0.24164  0.48222  0.27614  1
 Mn  Mn4  1  0.62530  0.75196  0.62274  1
 O  O1  1  0.83700  0.21651  0.38154  1
 O  O2  1  0.40008  0.24867  0.35126  1
 O  O3  1  0.84724  0.71641  0.86609  1
 O  O4  1  0.41750  0.28667  0.86609  1
 O  O5  1  0.40196  0.78147  0.38154  1
