CIF file written using JARVIS-Tools package.
data_LaB2C2
_symmetry_space_group_name_H-M  'P4_2/mmc'
_cell_length_a       3.83362
_cell_length_b       3.83362
_cell_length_c       7.99289
_cell_angle_alpha    90
_cell_angle_beta     90
_cell_angle_gamma    90

_symmetry_Int_Tables_number  131
_chemical_formula_structural  LaB2C2
_chemical_formula_sum  La2B4C4
_cell_volume  117.46853609169133
_cell_formula_units_Z  2
loop_
  _symmetry_equiv_pos_site_id
 _symmetry_equiv_pos_as_xyz
 1  'x, y, z'
loop_
 _atom_site_type_symbol
 _atom_site_label
 _atom_site_symmetry_multiplicity
 _atom_site_fract_x
 _atom_site_fract_y
 _atom_site_fract_z
 _atom_site_fract_occupancy
 B  B1  1  0.50000  0.78363  0.50000  1
 B  B2  1  0.21637  0.50000  0.00000  1
 B  B3  1  0.50000  0.21637  0.50000  1
 B  B4  1  0.78363  0.50000  0.00000  1
 C  C1  1  0.50000  0.81357  0.00000  1
 C  C2  1  0.81357  0.50000  0.50000  1
 C  C3  1  0.18643  0.50000  0.50000  1
 C  C4  1  0.50000  0.18643  0.00000  1
 La  La1  1  0.00000  0.00000  0.75000  1
 La  La2  1  0.00000  0.00000  0.25000  1
