CIF file written using JARVIS-Tools package.
data_MgBr2O6
_symmetry_space_group_name_H-M  'C2/m'
_cell_length_a       6.3491
_cell_length_b       4.90659
_cell_length_c       4.90659
_cell_angle_alpha    68.5725
_cell_angle_beta     73.1834
_cell_angle_gamma    73.1834

_symmetry_Int_Tables_number  12
_chemical_formula_structural  MgBr2O6
_chemical_formula_sum  MgBr2O6
_cell_volume  133.2796043914833
_cell_formula_units_Z  1
loop_
  _symmetry_equiv_pos_site_id
 _symmetry_equiv_pos_as_xyz
 1  'x, y, z'
loop_
 _atom_site_type_symbol
 _atom_site_label
 _atom_site_symmetry_multiplicity
 _atom_site_fract_x
 _atom_site_fract_y
 _atom_site_fract_z
 _atom_site_fract_occupancy
 Br  Br1  1  0.28550  0.27482  0.27482  1
 Br  Br2  1  0.71450  0.72518  0.72518  1
 Mg  Mg1  1  0.00000  0.00000  0.00000  1
 O  O1  1  0.04221  0.23845  0.23845  1
 O  O2  1  0.95779  0.76155  0.76155  1
 O  O3  1  0.73479  0.35098  0.83507  1
 O  O4  1  0.73479  0.83507  0.35098  1
 O  O5  1  0.26521  0.64902  0.16493  1
 O  O6  1  0.26521  0.16493  0.64902  1
