CIF file written using JARVIS-Tools package.
data_HfBeZn
_symmetry_space_group_name_H-M  'I4mm'
_cell_length_a       5.63727
_cell_length_b       5.63727
_cell_length_c       5.63727
_cell_angle_alpha    150.18
_cell_angle_beta     150.18
_cell_angle_gamma    42.6773

_symmetry_Int_Tables_number  107
_chemical_formula_structural  HfBeZn
_chemical_formula_sum  HfBeZn
_cell_volume  44.188499815655966
_cell_formula_units_Z  1
loop_
  _symmetry_equiv_pos_site_id
 _symmetry_equiv_pos_as_xyz
 1  'x, y, z'
loop_
 _atom_site_type_symbol
 _atom_site_label
 _atom_site_symmetry_multiplicity
 _atom_site_fract_x
 _atom_site_fract_y
 _atom_site_fract_z
 _atom_site_fract_occupancy
 Be  Be1  1  0.01453  0.01453  -0.00000  1
 Hf  Hf1  1  0.34455  0.34455  0.00000  1
 Zn  Zn1  1  0.64091  0.64091  0.00000  1
