CIF file written using JARVIS-Tools package.
data_LiBeFe
_symmetry_space_group_name_H-M  'I4mm'
_cell_length_a       5.63309
_cell_length_b       5.63309
_cell_length_c       5.63309
_cell_angle_alpha    154.606
_cell_angle_beta     154.606
_cell_angle_gamma    36.2195

_symmetry_Int_Tables_number  107
_chemical_formula_structural  LiBeFe
_chemical_formula_sum  LiBeFe
_cell_volume  32.830014194513915
_cell_formula_units_Z  1
loop_
  _symmetry_equiv_pos_site_id
 _symmetry_equiv_pos_as_xyz
 1  'x, y, z'
loop_
 _atom_site_type_symbol
 _atom_site_label
 _atom_site_symmetry_multiplicity
 _atom_site_fract_x
 _atom_site_fract_y
 _atom_site_fract_z
 _atom_site_fract_occupancy
 Be  Be1  1  0.98574  0.98574  -0.00000  1
 Fe  Fe1  1  0.35074  0.35074  -0.00000  1
 Li  Li1  1  0.66352  0.66352  -0.00000  1
