CIF file written using JARVIS-Tools package.
data_KHfBe
_symmetry_space_group_name_H-M  'I4mm'
_cell_length_a       7.5445
_cell_length_b       7.5445
_cell_length_c       7.5445
_cell_angle_alpha    155.46
_cell_angle_beta     155.46
_cell_angle_gamma    34.9814

_symmetry_Int_Tables_number  107
_chemical_formula_structural  KHfBe
_chemical_formula_sum  KHfBe
_cell_volume  73.99494181175943
_cell_formula_units_Z  1
loop_
  _symmetry_equiv_pos_site_id
 _symmetry_equiv_pos_as_xyz
 1  'x, y, z'
loop_
 _atom_site_type_symbol
 _atom_site_label
 _atom_site_symmetry_multiplicity
 _atom_site_fract_x
 _atom_site_fract_y
 _atom_site_fract_z
 _atom_site_fract_occupancy
 Be  Be1  1  0.96907  0.96907  -0.00000  1
 Hf  Hf1  1  0.38348  0.38348  -0.00000  1
 K  K1  1  0.64745  0.64745  -0.00000  1
