CIF file written using JARVIS-Tools package.
data_RbVP2S7
_symmetry_space_group_name_H-M  'C2'
_cell_length_a       6.46604
_cell_length_b       6.46604
_cell_length_c       6.42232
_cell_angle_alpha    95.367
_cell_angle_beta     95.367
_cell_angle_gamma    95.9413

_symmetry_Int_Tables_number  5
_chemical_formula_structural  RbVP2S7
_chemical_formula_sum  RbVP2S7
_cell_volume  264.45342333516936
_cell_formula_units_Z  1
loop_
  _symmetry_equiv_pos_site_id
 _symmetry_equiv_pos_as_xyz
 1  'x, y, z'
loop_
 _atom_site_type_symbol
 _atom_site_label
 _atom_site_symmetry_multiplicity
 _atom_site_fract_x
 _atom_site_fract_y
 _atom_site_fract_z
 _atom_site_fract_occupancy
 P  P1  1  0.05154  0.34538  0.08336  1
 P  P2  1  0.65462  0.94846  0.91664  1
 Rb  Rb1  1  0.10998  0.89002  0.50000  1
 S  S1  1  0.98978  0.01022  -0.00000  1
 S  S2  1  0.54714  0.18650  0.76950  1
 S  S3  1  0.31513  0.36953  0.28708  1
 S  S4  1  0.63047  0.68487  0.71292  1
 S  S5  1  0.52464  0.85684  0.17526  1
 S  S6  1  0.14316  0.47536  0.82474  1
 S  S7  1  0.81350  0.45286  0.23050  1
 V  V1  1  0.49995  0.50005  -0.00000  1
