CIF file written using JARVIS-Tools package.
data_Ho2Al3Co14
_symmetry_space_group_name_H-M  'P6_3/mmc'
_cell_length_a       8.32765
_cell_length_b       8.32764
_cell_length_c       8.13391
_cell_angle_alpha    90
_cell_angle_beta     90
_cell_angle_gamma    120

_symmetry_Int_Tables_number  194
_chemical_formula_structural  Ho2Al3Co14
_chemical_formula_sum  Ho4Al6Co28
_cell_volume  488.51104969743307
_cell_formula_units_Z  2
loop_
  _symmetry_equiv_pos_site_id
 _symmetry_equiv_pos_as_xyz
 1  'x, y, z'
loop_
 _atom_site_type_symbol
 _atom_site_label
 _atom_site_symmetry_multiplicity
 _atom_site_fract_x
 _atom_site_fract_y
 _atom_site_fract_z
 _atom_site_fract_occupancy
 Al  Al1  1  -0.00000  0.50000  0.50000  1
 Al  Al2  1  0.50000  0.50000  0.00000  1
 Al  Al3  1  0.50000  -0.00000  0.00000  1
 Al  Al4  1  -0.00000  0.50000  0.00000  1
 Al  Al5  1  0.50000  0.50000  0.50000  1
 Al  Al6  1  0.50000  -0.00000  0.50000  1
 Co  Co1  1  0.83757  0.67514  0.48279  1
 Co  Co2  1  0.62980  0.95526  0.25000  1
 Co  Co3  1  0.67454  0.62978  0.75000  1
 Co  Co4  1  0.37020  0.04474  0.75000  1
 Co  Co5  1  0.95526  0.62980  0.75000  1
 Co  Co6  1  0.67454  0.04475  0.75000  1
 Co  Co7  1  0.37020  0.32546  0.75000  1
 Co  Co8  1  0.62980  0.67454  0.25000  1
 Co  Co9  1  0.32546  0.95525  0.25000  1
 Co  Co10  1  0.32546  0.37022  0.25000  1
 Co  Co11  1  0.33333  0.66667  0.39087  1
 Co  Co12  1  0.66667  0.33333  0.89087  1
 Co  Co13  1  0.66667  0.33333  0.60913  1
 Co  Co14  1  0.04474  0.37020  0.25000  1
 Co  Co15  1  0.04474  0.67453  0.25000  1
 Co  Co16  1  0.95526  0.32547  0.75000  1
 Co  Co17  1  0.67514  0.83757  0.98278  1
 Co  Co18  1  0.83757  0.16243  0.48279  1
 Co  Co19  1  0.16243  0.83757  0.98279  1
 Co  Co20  1  0.32486  0.16243  0.48278  1
 Co  Co21  1  0.83757  0.67514  0.01721  1
 Co  Co22  1  0.83757  0.16243  0.01721  1
 Co  Co23  1  0.32486  0.16243  0.01722  1
 Co  Co24  1  0.16243  0.32486  0.51721  1
 Co  Co25  1  0.16243  0.83757  0.51721  1
 Co  Co26  1  0.67514  0.83757  0.51722  1
 Co  Co27  1  0.33333  0.66667  0.10913  1
 Co  Co28  1  0.16243  0.32486  0.98279  1
 Ho  Ho1  1  0.33334  0.66667  0.75000  1
 Ho  Ho2  1  0.00000  0.00000  0.25000  1
 Ho  Ho3  1  -0.00000  -0.00000  0.75000  1
 Ho  Ho4  1  0.66666  0.33333  0.25000  1
