CIF file written using JARVIS-Tools package.
data_K3NdAs2S8
_symmetry_space_group_name_H-M  'C2/c'
_cell_length_a       10.7219
_cell_length_b       10.7219
_cell_length_c       8.78182
_cell_angle_alpha    77.6305
_cell_angle_beta     77.6305
_cell_angle_gamma    121.769

_symmetry_Int_Tables_number  15
_chemical_formula_structural  K3NdAs2S8
_chemical_formula_sum  K6Nd2As4S6
_cell_volume  770.6468248647258
_cell_formula_units_Z  2
loop_
  _symmetry_equiv_pos_site_id
 _symmetry_equiv_pos_as_xyz
 1  'x, y, z'
loop_
 _atom_site_type_symbol
 _atom_site_label
 _atom_site_symmetry_multiplicity
 _atom_site_fract_x
 _atom_site_fract_y
 _atom_site_fract_z
 _atom_site_fract_occupancy
 As  As1  1  0.66018  0.90112  0.10691  1
 As  As2  1  0.09888  0.33982  0.39309  1
 As  As3  1  0.90112  0.66018  0.60691  1
 As  As4  1  0.33982  0.09888  0.89309  1
 K  K1  1  0.50000  0.50000  0.50000  1
 K  K2  1  0.26359  0.73641  0.75000  1
 K  K3  1  0.99672  0.00328  0.25000  1
 K  K4  1  0.00328  0.99672  0.75000  1
 K  K5  1  0.73641  0.26359  0.25000  1
 K  K6  1  0.50000  0.50000  0.00000  1
 Nd  Nd1  1  0.24305  0.75695  0.25000  1
 Nd  Nd2  1  0.75695  0.24305  0.75000  1
 S  S1  1  0.84653  0.12852  0.51312  1
 S  S2  1  0.26211  0.24844  0.87093  1
 S  S3  1  0.14068  0.49089  0.14521  1
 S  S4  1  0.73789  0.75156  0.12907  1
 S  S5  1  0.24844  0.26211  0.37093  1
 S  S6  1  0.87148  0.15347  0.98688  1
 S  S7  1  0.75156  0.73789  0.62907  1
 S  S8  1  0.49089  0.14068  0.64521  1
 S  S9  1  0.12853  0.47019  0.56318  1
 S  S10  1  0.47019  0.12853  0.06318  1
 S  S11  1  0.87147  0.52981  0.43682  1
 S  S12  1  0.85932  0.50911  0.85479  1
 S  S13  1  0.12852  0.84653  0.01312  1
 S  S14  1  0.52981  0.87147  0.93682  1
 S  S15  1  0.15347  0.87148  0.48688  1
 S  S16  1  0.50911  0.85932  0.35479  1
