CIF file written using JARVIS-Tools package.
data_EuGa
_symmetry_space_group_name_H-M  'P-1'
_cell_length_a       5.76638
_cell_length_b       5.95608
_cell_length_c       6.12107
_cell_angle_alpha    70.9408
_cell_angle_beta     75.102
_cell_angle_gamma    88.9275

_symmetry_Int_Tables_number  2
_chemical_formula_structural  EuGa
_chemical_formula_sum  Eu4Ga4
_cell_volume  191.53397612155487
_cell_formula_units_Z  4
loop_
  _symmetry_equiv_pos_site_id
 _symmetry_equiv_pos_as_xyz
 1  'x, y, z'
loop_
 _atom_site_type_symbol
 _atom_site_label
 _atom_site_symmetry_multiplicity
 _atom_site_fract_x
 _atom_site_fract_y
 _atom_site_fract_z
 _atom_site_fract_occupancy
 Eu  Eu1  1  0.74949  0.83199  0.96009  1
 Eu  Eu2  1  0.25051  0.16801  0.03991  1
 Eu  Eu3  1  0.31301  0.72313  0.61255  1
 Eu  Eu4  1  0.68699  0.27687  0.38745  1
 Ga  Ga1  1  0.84583  0.76919  0.44437  1
 Ga  Ga2  1  0.15417  0.23081  0.55563  1
 Ga  Ga3  1  0.78618  0.37496  0.82970  1
 Ga  Ga4  1  0.21382  0.62504  0.17030  1
