CIF file written using JARVIS-Tools package.
data_ScFeC2
_symmetry_space_group_name_H-M  'P4/nmm'
_cell_length_a       3.34513
_cell_length_b       3.34513
_cell_length_c       7.32149
_cell_angle_alpha    90
_cell_angle_beta     90
_cell_angle_gamma    90

_symmetry_Int_Tables_number  129
_chemical_formula_structural  ScFeC2
_chemical_formula_sum  Sc2Fe2C4
_cell_volume  81.92676882282402
_cell_formula_units_Z  2
loop_
  _symmetry_equiv_pos_site_id
 _symmetry_equiv_pos_as_xyz
 1  'x, y, z'
loop_
 _atom_site_type_symbol
 _atom_site_label
 _atom_site_symmetry_multiplicity
 _atom_site_fract_x
 _atom_site_fract_y
 _atom_site_fract_z
 _atom_site_fract_occupancy
 C  C1  1  0.75000  0.75000  0.15795  1
 C  C2  1  0.25000  0.25000  0.84205  1
 C  C3  1  0.75000  0.75000  0.35048  1
 C  C4  1  0.25000  0.25000  0.64952  1
 Fe  Fe1  1  0.75000  0.25000  0.00000  1
 Fe  Fe2  1  0.25000  0.75000  0.00000  1
 Sc  Sc1  1  0.75000  0.75000  0.65167  1
 Sc  Sc2  1  0.25000  0.25000  0.34833  1
