CIF file written using JARVIS-Tools package.
data_SrBeCu
_symmetry_space_group_name_H-M  'I4mm'
_cell_length_a       5.86064
_cell_length_b       5.86064
_cell_length_c       5.86064
_cell_angle_alpha    147.788
_cell_angle_beta     147.788
_cell_angle_gamma    46.1987

_symmetry_Int_Tables_number  107
_chemical_formula_structural  SrBeCu
_chemical_formula_sum  SrBeCu
_cell_volume  56.9986585783226
_cell_formula_units_Z  1
loop_
  _symmetry_equiv_pos_site_id
 _symmetry_equiv_pos_as_xyz
 1  'x, y, z'
loop_
 _atom_site_type_symbol
 _atom_site_label
 _atom_site_symmetry_multiplicity
 _atom_site_fract_x
 _atom_site_fract_y
 _atom_site_fract_z
 _atom_site_fract_occupancy
 Be  Be1  1  0.94801  0.94801  0.00000  1
 Cu  Cu1  1  0.38572  0.38572  0.00000  1
 Sr  Sr1  1  0.66627  0.66627  0.00000  1
