CIF file written using JARVIS-Tools package.
data_Mn3Cr2Sb3O16
_symmetry_space_group_name_H-M  'Cm'
_cell_length_a       6.05036
_cell_length_b       6.00336
_cell_length_c       8.83549
_cell_angle_alpha    90.0001
_cell_angle_beta     89.2761
_cell_angle_gamma    119.743

_symmetry_Int_Tables_number  8
_chemical_formula_structural  Mn3Cr2Sb3O16
_chemical_formula_sum  Mn3Cr2Sb3O6
_cell_volume  278.6185467637651
_cell_formula_units_Z  1
loop_
  _symmetry_equiv_pos_site_id
 _symmetry_equiv_pos_as_xyz
 1  'x, y, z'
loop_
 _atom_site_type_symbol
 _atom_site_label
 _atom_site_symmetry_multiplicity
 _atom_site_fract_x
 _atom_site_fract_y
 _atom_site_fract_z
 _atom_site_fract_occupancy
 Cr  Cr1  1  0.34218  0.67110  0.49725  1
 Cr  Cr2  1  0.68425  0.34213  0.98126  1
 Mn  Mn1  1  0.66085  0.83043  0.21449  1
 Mn  Mn2  1  0.82680  0.66161  0.70899  1
 Mn  Mn3  1  0.82680  0.16520  0.70899  1
 O  O1  1  0.16052  0.82447  0.60169  1
 O  O2  1  0.04474  0.52237  0.35087  1
 O  O3  1  0.31751  0.65877  0.08420  1
 O  O4  1  0.95061  0.47531  0.83195  1
 O  O5  1  0.98244  0.99123  0.81515  1
 O  O6  1  0.16052  0.33607  0.60169  1
 O  O7  1  0.01221  0.00611  0.32980  1
 O  O8  1  0.47792  0.52641  0.33947  1
 O  O9  1  0.53735  0.48762  0.84088  1
 O  O10  1  0.66999  0.83500  0.60127  1
 O  O11  1  0.47792  0.95153  0.33947  1
 O  O12  1  0.53734  0.04974  0.84088  1
 O  O13  1  0.67631  0.33816  0.59765  1
 O  O14  1  0.83136  0.66822  0.10420  1
 O  O15  1  0.33606  0.16805  0.09374  1
 O  O16  1  0.83136  0.16315  0.10420  1
 Sb  Sb1  1  0.32834  0.16418  0.70844  1
 Sb  Sb2  1  0.16332  0.33285  0.20959  1
 Sb  Sb3  1  0.16332  0.83049  0.20959  1
