CIF file written using JARVIS-Tools package.
data_KBe2BO3F2
_symmetry_space_group_name_H-M  'R32'
_cell_length_a       4.45929
_cell_length_b       4.45929
_cell_length_c       6.62981
_cell_angle_alpha    70.3445
_cell_angle_beta     70.3445
_cell_angle_gamma    60.0004

_symmetry_Int_Tables_number  155
_chemical_formula_structural  KBe2BO3F2
_chemical_formula_sum  KBe2BO3F2
_cell_volume  105.21005625691978
_cell_formula_units_Z  1
loop_
  _symmetry_equiv_pos_site_id
 _symmetry_equiv_pos_as_xyz
 1  'x, y, z'
loop_
 _atom_site_type_symbol
 _atom_site_label
 _atom_site_symmetry_multiplicity
 _atom_site_fract_x
 _atom_site_fract_y
 _atom_site_fract_z
 _atom_site_fract_occupancy
 B  B1  1  0.50726  0.49274  0.50000  1
 Be  Be1  1  0.20524  0.19077  0.40599  1
 Be  Be2  1  0.80923  0.79476  0.59401  1
 F  F1  1  0.72515  0.71077  0.84609  1
 F  F2  1  0.28923  0.27485  0.15391  1
 K  K1  1  0.00712  0.99288  0.00000  1
 O  O1  1  0.19839  0.80161  0.50000  1
 O  O2  1  0.50726  0.18388  0.49997  1
 O  O3  1  0.81612  0.49274  0.50003  1
