CIF file written using JARVIS-Tools package.
data_NaTaBe
_symmetry_space_group_name_H-M  'I4mm'
_cell_length_a       6.80915
_cell_length_b       6.80915
_cell_length_c       6.80915
_cell_angle_alpha    155.812
_cell_angle_beta     155.812
_cell_angle_gamma    34.4704

_symmetry_Int_Tables_number  107
_chemical_formula_structural  NaTaBe
_chemical_formula_sum  NaTaBe
_cell_volume  52.94241031056167
_cell_formula_units_Z  1
loop_
  _symmetry_equiv_pos_site_id
 _symmetry_equiv_pos_as_xyz
 1  'x, y, z'
loop_
 _atom_site_type_symbol
 _atom_site_label
 _atom_site_symmetry_multiplicity
 _atom_site_fract_x
 _atom_site_fract_y
 _atom_site_fract_z
 _atom_site_fract_occupancy
 Be  Be1  1  0.01938  0.01938  0.00000  1
 Na  Na1  1  0.34633  0.34633  0.00000  1
 Ta  Ta1  1  0.63429  0.63429  0.00000  1
