CIF file written using JARVIS-Tools package.
data_Pr2BC
_symmetry_space_group_name_H-M  'C2/m'
_cell_length_a       3.7111
_cell_length_b       6.91734
_cell_length_c       7.45654
_cell_angle_alpha    83.386
_cell_angle_beta     75.5906
_cell_angle_gamma    74.4401

_symmetry_Int_Tables_number  12
_chemical_formula_structural  Pr2BC
_chemical_formula_sum  Pr4B2C2
_cell_volume  178.35936374496708
_cell_formula_units_Z  2
loop_
  _symmetry_equiv_pos_site_id
 _symmetry_equiv_pos_as_xyz
 1  'x, y, z'
loop_
 _atom_site_type_symbol
 _atom_site_label
 _atom_site_symmetry_multiplicity
 _atom_site_fract_x
 _atom_site_fract_y
 _atom_site_fract_z
 _atom_site_fract_occupancy
 B  B1  1  0.07338  0.96034  0.89289  1
 B  B2  1  0.92662  0.03966  0.10711  1
 C  C1  1  0.87389  0.95140  0.30082  1
 C  C2  1  0.12611  0.04860  0.69918  1
 Pr  Pr1  1  0.79311  0.79353  0.62024  1
 Pr  Pr2  1  0.20689  0.20647  0.37976  1
 Pr  Pr3  1  0.43941  0.26315  0.85803  1
 Pr  Pr4  1  0.56059  0.73685  0.14197  1
