CIF file written using JARVIS-Tools package.
data_UCoSn
_symmetry_space_group_name_H-M  'P-62m'
_cell_length_a       4.01963
_cell_length_b       7.0768
_cell_length_c       7.07713
_cell_angle_alpha    119.999
_cell_angle_beta     90
_cell_angle_gamma    90

_symmetry_Int_Tables_number  189
_chemical_formula_structural  UCoSn
_chemical_formula_sum  U3Co3Sn3
_cell_volume  174.3482614884775
_cell_formula_units_Z  3
loop_
  _symmetry_equiv_pos_site_id
 _symmetry_equiv_pos_as_xyz
 1  'x, y, z'
loop_
 _atom_site_type_symbol
 _atom_site_label
 _atom_site_symmetry_multiplicity
 _atom_site_fract_x
 _atom_site_fract_y
 _atom_site_fract_z
 _atom_site_fract_occupancy
 Co  Co1  1  0.00000  0.33328  0.66665  1
 Co  Co2  1  0.00000  0.66663  0.33335  1
 Co  Co3  1  0.50000  -0.00001  0.00000  1
 Sn  Sn1  1  0.00000  0.25186  0.00000  1
 Sn  Sn2  1  0.00000  0.74810  0.74812  1
 Sn  Sn3  1  0.00000  0.99998  0.25188  1
 U  U1  1  0.50000  0.58319  -0.00000  1
 U  U2  1  0.50000  0.41681  0.41676  1
 U  U3  1  0.50000  0.00005  0.58324  1
