CIF file written using JARVIS-Tools package.
data_CuB4O7
_symmetry_space_group_name_H-M  'Cmcm'
_cell_length_a       5.14543
_cell_length_b       6.33727
_cell_length_c       6.33726
_cell_angle_alpha    118.165
_cell_angle_beta     90
_cell_angle_gamma    90

_symmetry_Int_Tables_number  63
_chemical_formula_structural  CuB4O7
_chemical_formula_sum  Cu2B8O4
_cell_volume  182.17663254651413
_cell_formula_units_Z  2
loop_
  _symmetry_equiv_pos_site_id
 _symmetry_equiv_pos_as_xyz
 1  'x, y, z'
loop_
 _atom_site_type_symbol
 _atom_site_label
 _atom_site_symmetry_multiplicity
 _atom_site_fract_x
 _atom_site_fract_y
 _atom_site_fract_z
 _atom_site_fract_occupancy
 B  B1  1  0.75000  0.29988  0.07237  1
 B  B2  1  0.50000  0.70329  0.29671  1
 B  B3  1  0.75000  0.07237  0.29988  1
 B  B4  1  0.25000  0.92763  0.70012  1
 B  B5  1  0.00000  0.29671  0.70329  1
 B  B6  1  0.50000  0.29671  0.70329  1
 B  B7  1  0.25000  0.70012  0.92763  1
 B  B8  1  0.00000  0.70329  0.29671  1
 Cu  Cu1  1  0.75000  0.71976  0.71976  1
 Cu  Cu2  1  0.25000  0.28024  0.28024  1
 O  O1  1  0.75000  0.07632  0.07632  1
 O  O2  1  0.75000  0.24329  0.80212  1
 O  O3  1  0.75000  0.80212  0.24329  1
 O  O4  1  0.02094  0.55603  0.81075  1
 O  O5  1  0.47906  0.55603  0.81075  1
 O  O6  1  0.25000  0.75671  0.19788  1
 O  O7  1  0.02094  0.81075  0.55603  1
 O  O8  1  0.25000  0.19788  0.75671  1
 O  O9  1  0.25000  0.92368  0.92368  1
 O  O10  1  0.97906  0.44397  0.18925  1
 O  O11  1  0.52094  0.18925  0.44397  1
 O  O12  1  0.47906  0.81075  0.55603  1
 O  O13  1  0.97906  0.18925  0.44397  1
 O  O14  1  0.52094  0.44397  0.18925  1
