CIF file written using JARVIS-Tools package.
data_LiSi
_symmetry_space_group_name_H-M  'I4_1/a'
_cell_length_a       5.52399
_cell_length_b       7.83141
_cell_length_c       7.83141
_cell_angle_alpha    82.8548
_cell_angle_beta     69.3486
_cell_angle_gamma    69.3486

_symmetry_Int_Tables_number  88
_chemical_formula_structural  LiSi
_chemical_formula_sum  Li8Si8
_cell_volume  296.6511642777801
_cell_formula_units_Z  8
loop_
  _symmetry_equiv_pos_site_id
 _symmetry_equiv_pos_as_xyz
 1  'x, y, z'
loop_
 _atom_site_type_symbol
 _atom_site_label
 _atom_site_symmetry_multiplicity
 _atom_site_fract_x
 _atom_site_fract_y
 _atom_site_fract_z
 _atom_site_fract_occupancy
 Li  Li1  1  0.67339  0.15391  0.00091  1
 Li  Li2  1  0.82821  0.34609  0.49909  1
 Li  Li3  1  0.32570  0.50091  0.84609  1
 Li  Li4  1  0.32661  0.84609  0.99909  1
 Li  Li5  1  0.17179  0.65391  0.50091  1
 Li  Li6  1  0.32730  0.00091  0.34609  1
 Li  Li7  1  0.67430  0.49909  0.15391  1
 Li  Li8  1  0.67270  0.99909  0.65391  1
 Si  Si1  1  0.32829  0.30017  0.58147  1
 Si  Si2  1  0.90976  0.91853  0.30017  1
 Si  Si3  1  0.67171  0.69983  0.41853  1
 Si  Si4  1  0.20993  0.19983  0.91853  1
 Si  Si5  1  0.12846  0.58147  0.19983  1
 Si  Si6  1  0.09024  0.08147  0.69983  1
 Si  Si7  1  0.87154  0.41853  0.80017  1
 Si  Si8  1  0.79007  0.80017  0.08147  1
