CIF file written using JARVIS-Tools package.
data_Al3Co20B6
_symmetry_space_group_name_H-M  'Fm-3m'
_cell_length_a       7.39342
_cell_length_b       7.39342
_cell_length_c       7.39342
_cell_angle_alpha    60
_cell_angle_beta     60
_cell_angle_gamma    60

_symmetry_Int_Tables_number  225
_chemical_formula_structural  Al3Co20B6
_chemical_formula_sum  Al3Co20B6
_cell_volume  285.7735957994997
_cell_formula_units_Z  1
loop_
  _symmetry_equiv_pos_site_id
 _symmetry_equiv_pos_as_xyz
 1  'x, y, z'
loop_
 _atom_site_type_symbol
 _atom_site_label
 _atom_site_symmetry_multiplicity
 _atom_site_fract_x
 _atom_site_fract_y
 _atom_site_fract_z
 _atom_site_fract_occupancy
 Al  Al1  1  0.00000  0.00000  0.00000  1
 Al  Al2  1  0.25000  0.25000  0.25000  1
 Al  Al3  1  0.75000  0.75000  0.75000  1
 B  B1  1  0.72280  0.27720  0.72280  1
 B  B2  1  0.27720  0.72280  0.27720  1
 B  B3  1  0.72280  0.72280  0.27720  1
 B  B4  1  0.27720  0.27720  0.72280  1
 B  B5  1  0.27720  0.72280  0.72280  1
 B  B6  1  0.72280  0.27720  0.27720  1
 Co  Co1  1  0.34017  -0.00000  0.00000  1
 Co  Co2  1  0.00000  -0.00000  0.65983  1
 Co  Co3  1  0.65983  0.34017  0.00000  1
 Co  Co4  1  0.34017  0.00000  0.65983  1
 Co  Co5  1  0.00000  0.65983  -0.00000  1
 Co  Co6  1  0.34017  0.65983  -0.00000  1
 Co  Co7  1  -0.00000  0.00000  0.34017  1
 Co  Co8  1  0.85328  0.38224  0.38224  1
 Co  Co9  1  0.38224  0.85328  0.38224  1
 Co  Co10  1  0.38224  0.38224  0.85328  1
 Co  Co11  1  0.38224  0.38224  0.38224  1
 Co  Co12  1  0.61776  0.14672  0.61776  1
 Co  Co13  1  0.14672  0.61776  0.61776  1
 Co  Co14  1  -0.00000  0.34017  0.00000  1
 Co  Co15  1  0.61776  0.61776  0.61776  1
 Co  Co16  1  0.65983  0.00000  -0.00000  1
 Co  Co17  1  0.00000  0.65983  0.34017  1
 Co  Co18  1  0.00000  0.34017  0.65983  1
 Co  Co19  1  0.65983  0.00000  0.34017  1
 Co  Co20  1  0.61776  0.61776  0.14672  1
