CIF file written using JARVIS-Tools package.
data_BeGaSb
_symmetry_space_group_name_H-M  'I4mm'
_cell_length_a       6.35439
_cell_length_b       6.35439
_cell_length_c       6.35439
_cell_angle_alpha    151.621
_cell_angle_beta     151.621
_cell_angle_gamma    40.5668

_symmetry_Int_Tables_number  107
_chemical_formula_structural  BeGaSb
_chemical_formula_sum  BeGaSb
_cell_volume  57.84512452217053
_cell_formula_units_Z  1
loop_
  _symmetry_equiv_pos_site_id
 _symmetry_equiv_pos_as_xyz
 1  'x, y, z'
loop_
 _atom_site_type_symbol
 _atom_site_label
 _atom_site_symmetry_multiplicity
 _atom_site_fract_x
 _atom_site_fract_y
 _atom_site_fract_z
 _atom_site_fract_occupancy
 Be  Be1  1  0.98388  0.98388  -0.00000  1
 Ga  Ga1  1  0.37507  0.37507  0.00000  1
 Sb  Sb1  1  0.64106  0.64106  -0.00000  1
