CIF file written using JARVIS-Tools package.
data_Li4Mn2Cr3Co3O16
_symmetry_space_group_name_H-M  'Cm'
_cell_length_a       5.66843
_cell_length_b       5.66835
_cell_length_c       9.2145
_cell_angle_alpha    89.7756
_cell_angle_beta     89.7752
_cell_angle_gamma    60.391

_symmetry_Int_Tables_number  8
_chemical_formula_structural  Li4Mn2Cr3Co3O16
_chemical_formula_sum  Li4Mn2Cr3Co3O6
_cell_volume  257.4043912647372
_cell_formula_units_Z  1
loop_
  _symmetry_equiv_pos_site_id
 _symmetry_equiv_pos_as_xyz
 1  'x, y, z'
loop_
 _atom_site_type_symbol
 _atom_site_label
 _atom_site_symmetry_multiplicity
 _atom_site_fract_x
 _atom_site_fract_y
 _atom_site_fract_z
 _atom_site_fract_occupancy
 Co  Co1  1  0.83100  0.34143  0.28712  1
 Co  Co2  1  0.34147  0.83097  0.28712  1
 Co  Co3  1  0.17152  0.17160  0.78694  1
 Cr  Cr1  1  0.82655  0.82652  0.28589  1
 Cr  Cr2  1  0.65482  0.17252  0.78631  1
 Cr  Cr3  1  0.17245  0.65490  0.78631  1
 Li  Li1  1  0.33218  0.33218  0.10794  1
 Li  Li2  1  0.66530  0.66533  0.60192  1
 Li  Li3  1  0.00462  0.00455  0.50250  1
 Li  Li4  1  0.00670  0.00683  0.00493  1
 Mn  Mn1  1  0.33198  0.33197  0.50838  1
 Mn  Mn2  1  0.66513  0.66519  0.01315  1
 O  O1  1  0.66854  0.16471  0.40135  1
 O  O2  1  0.16476  0.66849  0.40133  1
 O  O3  1  0.52019  0.52016  0.16264  1
 O  O4  1  0.33255  0.33262  0.90052  1
 O  O5  1  0.00114  0.00122  0.69242  1
 O  O6  1  0.00174  0.00170  0.19380  1
 O  O7  1  0.48055  0.48063  0.65548  1
 O  O8  1  0.33421  0.83298  0.90106  1
 O  O9  1  0.16750  0.16747  0.39905  1
 O  O10  1  0.51745  0.96080  0.15643  1
 O  O11  1  0.96080  0.51743  0.15642  1
 O  O12  1  0.66359  0.66356  0.39620  1
 O  O13  1  0.03795  0.47765  0.65673  1
 O  O14  1  0.83453  0.83461  0.90242  1
 O  O15  1  0.47759  0.03798  0.65675  1
 O  O16  1  0.83289  0.33431  0.90104  1
