CIF file written using JARVIS-Tools package.
data_Li2Ni2SnO6
_symmetry_space_group_name_H-M  'Cmce'
_cell_length_a       5.15103
_cell_length_b       5.15103
_cell_length_c       9.93226
_cell_angle_alpha    90
_cell_angle_beta     90
_cell_angle_gamma    117.896

_symmetry_Int_Tables_number  64
_chemical_formula_structural  Li2Ni2SnO6
_chemical_formula_sum  Li4Ni4Sn2O2
_cell_volume  232.9115239898316
_cell_formula_units_Z  2
loop_
  _symmetry_equiv_pos_site_id
 _symmetry_equiv_pos_as_xyz
 1  'x, y, z'
loop_
 _atom_site_type_symbol
 _atom_site_label
 _atom_site_symmetry_multiplicity
 _atom_site_fract_x
 _atom_site_fract_y
 _atom_site_fract_z
 _atom_site_fract_occupancy
 Li  Li1  1  0.13533  0.63533  0.75000  1
 Li  Li2  1  0.36467  0.86467  0.25000  1
 Li  Li3  1  0.63533  0.13533  0.75000  1
 Li  Li4  1  0.86467  0.36467  0.25000  1
 Ni  Ni1  1  0.16245  0.83755  0.50000  1
 Ni  Ni2  1  0.33755  0.66245  0.00000  1
 Ni  Ni3  1  0.66245  0.33755  0.00000  1
 Ni  Ni4  1  0.83755  0.16245  0.50000  1
 O  O1  1  0.82676  0.46155  0.60996  1
 O  O2  1  0.96155  0.32676  0.89004  1
 O  O3  1  0.17324  0.53845  0.39004  1
 O  O4  1  0.46155  0.82676  0.60996  1
 O  O5  1  0.03845  0.67324  0.10996  1
 O  O6  1  0.35269  0.35269  0.09919  1
 O  O7  1  0.53845  0.17324  0.39004  1
 O  O8  1  0.32676  0.96155  0.89004  1
 O  O9  1  0.85269  0.85269  0.40081  1
 O  O10  1  0.14731  0.14731  0.59919  1
 O  O11  1  0.64731  0.64731  0.90081  1
 O  O12  1  0.67324  0.03845  0.10996  1
 Sn  Sn1  1  0.50000  0.50000  0.50000  1
 Sn  Sn2  1  0.00000  0.00000  0.00000  1
