CIF file written using JARVIS-Tools package.
data_SrScBe
_symmetry_space_group_name_H-M  'I4mm'
_cell_length_a       6.72167
_cell_length_b       6.72167
_cell_length_c       6.72167
_cell_angle_alpha    150.178
_cell_angle_beta     150.178
_cell_angle_gamma    42.6799

_symmetry_Int_Tables_number  107
_chemical_formula_structural  SrScBe
_chemical_formula_sum  SrScBe
_cell_volume  74.91757458592247
_cell_formula_units_Z  1
loop_
  _symmetry_equiv_pos_site_id
 _symmetry_equiv_pos_as_xyz
 1  'x, y, z'
loop_
 _atom_site_type_symbol
 _atom_site_label
 _atom_site_symmetry_multiplicity
 _atom_site_fract_x
 _atom_site_fract_y
 _atom_site_fract_z
 _atom_site_fract_occupancy
 Be  Be1  1  0.97340  0.97340  -0.00000  1
 Sc  Sc1  1  0.38083  0.38083  -0.00000  1
 Sr  Sr1  1  0.64576  0.64576  0.00000  1
