CIF file written using JARVIS-Tools package.
data_Li4Fe3Ni2Sn3O16
_symmetry_space_group_name_H-M  'Cm'
_cell_length_a       5.9698
_cell_length_b       5.96978
_cell_length_c       9.49411
_cell_angle_alpha    90.0527
_cell_angle_beta     90.0513
_cell_angle_gamma    59.9197

_symmetry_Int_Tables_number  8
_chemical_formula_structural  Li4Fe3Ni2Sn3O16
_chemical_formula_sum  Li4Fe3Ni2Sn3O6
_cell_volume  292.7858149399651
_cell_formula_units_Z  1
loop_
  _symmetry_equiv_pos_site_id
 _symmetry_equiv_pos_as_xyz
 1  'x, y, z'
loop_
 _atom_site_type_symbol
 _atom_site_label
 _atom_site_symmetry_multiplicity
 _atom_site_fract_x
 _atom_site_fract_y
 _atom_site_fract_z
 _atom_site_fract_occupancy
 Fe  Fe1  1  0.83051  0.83054  0.21563  1
 Fe  Fe2  1  0.17757  0.66050  0.71350  1
 Fe  Fe3  1  0.66048  0.17759  0.71350  1
 Li  Li1  1  0.67904  0.67908  0.88625  1
 Li  Li2  1  0.96790  0.96790  0.99073  1
 Li  Li3  1  0.98024  0.98024  0.50272  1
 Li  Li4  1  0.34174  0.34177  0.39794  1
 Ni  Ni1  1  0.33550  0.33553  0.98497  1
 Ni  Ni2  1  0.66779  0.66781  0.49427  1
 O  O1  1  0.52067  0.52070  0.34863  1
 O  O2  1  0.31675  0.82432  0.59920  1
 O  O3  1  0.48777  0.48779  0.82706  1
 O  O4  1  0.67743  0.67746  0.09664  1
 O  O5  1  0.98972  0.98974  0.31912  1
 O  O6  1  0.99140  0.99142  0.80909  1
 O  O7  1  0.82429  0.31678  0.59919  1
 O  O8  1  0.96856  0.53531  0.33909  1
 O  O9  1  0.14518  0.67205  0.10455  1
 O  O10  1  0.04835  0.50192  0.83831  1
 O  O11  1  0.50190  0.04838  0.83831  1
 O  O12  1  0.34493  0.34496  0.60456  1
 O  O13  1  0.53528  0.96859  0.33909  1
 O  O14  1  0.15521  0.15523  0.08419  1
 O  O15  1  0.83725  0.83727  0.61692  1
 O  O16  1  0.67204  0.14519  0.10454  1
 Sn  Sn1  1  0.83388  0.33787  0.21317  1
 Sn  Sn2  1  0.33785  0.83390  0.21317  1
 Sn  Sn3  1  0.17043  0.17046  0.71352  1
