CIF file written using JARVIS-Tools package.
data_SbIrS
_symmetry_space_group_name_H-M  'Pca2_1'
_cell_length_a       6.12627
_cell_length_b       6.10932
_cell_length_c       6.12839
_cell_angle_alpha    90
_cell_angle_beta     90
_cell_angle_gamma    90

_symmetry_Int_Tables_number  29
_chemical_formula_structural  SbIrS
_chemical_formula_sum  Sb4Ir4S4
_cell_volume  229.3694357125276
_cell_formula_units_Z  4
loop_
  _symmetry_equiv_pos_site_id
 _symmetry_equiv_pos_as_xyz
 1  'x, y, z'
loop_
 _atom_site_type_symbol
 _atom_site_label
 _atom_site_symmetry_multiplicity
 _atom_site_fract_x
 _atom_site_fract_y
 _atom_site_fract_z
 _atom_site_fract_occupancy
 Ir  Ir1  1  0.51015  0.76610  0.99946  1
 Ir  Ir2  1  0.48985  0.23390  0.49946  1
 Ir  Ir3  1  0.98985  0.76610  0.49946  1
 Ir  Ir4  1  0.01015  0.23390  0.99946  1
 S  S1  1  0.11835  0.12628  0.62074  1
 S  S2  1  0.88165  0.87372  0.12074  1
 S  S3  1  0.38165  0.12628  0.12074  1
 S  S4  1  0.61835  0.87372  0.62074  1
 Sb  Sb1  1  0.37957  0.63403  0.38200  1
 Sb  Sb2  1  0.62043  0.36597  0.88200  1
 Sb  Sb3  1  0.12043  0.63403  0.88200  1
 Sb  Sb4  1  0.87957  0.36597  0.38200  1
