CIF file written using JARVIS-Tools package.
data_Na2BiAu
_symmetry_space_group_name_H-M  'Cmcm'
_cell_length_a       6.07109
_cell_length_b       6.07109
_cell_length_c       5.97154
_cell_angle_alpha    90
_cell_angle_beta     90
_cell_angle_gamma    102.37

_symmetry_Int_Tables_number  63
_chemical_formula_structural  Na2BiAu
_chemical_formula_sum  Na4Bi2Au2
_cell_volume  214.99106570238118
_cell_formula_units_Z  2
loop_
  _symmetry_equiv_pos_site_id
 _symmetry_equiv_pos_as_xyz
 1  'x, y, z'
loop_
 _atom_site_type_symbol
 _atom_site_label
 _atom_site_symmetry_multiplicity
 _atom_site_fract_x
 _atom_site_fract_y
 _atom_site_fract_z
 _atom_site_fract_occupancy
 Au  Au1  1  0.00000  0.00000  0.00000  1
 Au  Au2  1  0.00000  0.00000  0.50000  1
 Bi  Bi1  1  0.68597  0.68597  0.25000  1
 Bi  Bi2  1  0.31403  0.31403  0.75000  1
 Na  Na1  1  0.49649  0.13688  0.25000  1
 Na  Na2  1  0.50351  0.86312  0.75000  1
 Na  Na3  1  0.13688  0.49649  0.25000  1
 Na  Na4  1  0.86312  0.50351  0.75000  1
