CIF file written using JARVIS-Tools package.
data_LaGeAu
_symmetry_space_group_name_H-M  'P6_3mc'
_cell_length_a       4.52862
_cell_length_b       4.52862
_cell_length_c       8.09714
_cell_angle_alpha    90
_cell_angle_beta     90
_cell_angle_gamma    120

_symmetry_Int_Tables_number  186
_chemical_formula_structural  LaGeAu
_chemical_formula_sum  La2Ge2Au2
_cell_volume  143.81190987714885
_cell_formula_units_Z  2
loop_
  _symmetry_equiv_pos_site_id
 _symmetry_equiv_pos_as_xyz
 1  'x, y, z'
loop_
 _atom_site_type_symbol
 _atom_site_label
 _atom_site_symmetry_multiplicity
 _atom_site_fract_x
 _atom_site_fract_y
 _atom_site_fract_z
 _atom_site_fract_occupancy
 Au  Au1  1  0.66667  0.33333  0.51755  1
 Au  Au2  1  0.33333  0.66667  0.01755  1
 Ge  Ge1  1  0.66667  0.33333  0.97355  1
 Ge  Ge2  1  0.33333  0.66667  0.47355  1
 La  La1  1  0.00000  0.00000  0.75190  1
 La  La2  1  0.00000  0.00000  0.25190  1
