CIF file written using JARVIS-Tools package.
data_TiMnO4
_symmetry_space_group_name_H-M  'I-4m2'
_cell_length_a       5.40721
_cell_length_b       5.40721
_cell_length_c       5.40721
_cell_angle_alpha    139.326
_cell_angle_beta     139.326
_cell_angle_gamma    58.8775

_symmetry_Int_Tables_number  119
_chemical_formula_structural  TiMnO4
_chemical_formula_sum  TiMnO4
_cell_volume  66.51854012053552
_cell_formula_units_Z  1
loop_
  _symmetry_equiv_pos_site_id
 _symmetry_equiv_pos_as_xyz
 1  'x, y, z'
loop_
 _atom_site_type_symbol
 _atom_site_label
 _atom_site_symmetry_multiplicity
 _atom_site_fract_x
 _atom_site_fract_y
 _atom_site_fract_z
 _atom_site_fract_occupancy
 Mn  Mn1  1  0.00000  0.00000  0.00000  1
 O  O1  1  0.53790  0.03790  0.50000  1
 O  O2  1  0.20127  0.20127  -0.00000  1
 O  O3  1  0.96210  0.46210  0.50000  1
 O  O4  1  0.79873  0.79873  0.00000  1
 Ti  Ti1  1  0.75000  0.25000  0.50000  1
