CIF file written using JARVIS-Tools package.
data_Mg3Au
_symmetry_space_group_name_H-M  'P6_3/mmc'
_cell_length_a       4.68712
_cell_length_b       4.68712
_cell_length_c       8.49423
_cell_angle_alpha    90
_cell_angle_beta     90
_cell_angle_gamma    120.002

_symmetry_Int_Tables_number  194
_chemical_formula_structural  Mg3Au
_chemical_formula_sum  Mg6Au2
_cell_volume  161.60690574967347
_cell_formula_units_Z  2
loop_
  _symmetry_equiv_pos_site_id
 _symmetry_equiv_pos_as_xyz
 1  'x, y, z'
loop_
 _atom_site_type_symbol
 _atom_site_label
 _atom_site_symmetry_multiplicity
 _atom_site_fract_x
 _atom_site_fract_y
 _atom_site_fract_z
 _atom_site_fract_occupancy
 Au  Au1  1  0.66669  0.33331  0.75000  1
 Au  Au2  1  0.33331  0.66669  0.25000  1
 Mg  Mg1  1  0.00001  0.99999  0.75000  1
 Mg  Mg2  1  0.99999  0.00001  0.25000  1
 Mg  Mg3  1  0.66667  0.33333  0.07663  1
 Mg  Mg4  1  0.33333  0.66667  0.92337  1
 Mg  Mg5  1  0.33333  0.66667  0.57663  1
 Mg  Mg6  1  0.66667  0.33333  0.42337  1
