CIF file written using JARVIS-Tools package.
data_Be2CrIr
_symmetry_space_group_name_H-M  'P4mm'
_cell_length_a       2.73951
_cell_length_b       2.73951
_cell_length_c       5.67019
_cell_angle_alpha    90
_cell_angle_beta     90
_cell_angle_gamma    90

_symmetry_Int_Tables_number  99
_chemical_formula_structural  Be2CrIr
_chemical_formula_sum  Be2CrIr
_cell_volume  42.55423752454952
_cell_formula_units_Z  1
loop_
  _symmetry_equiv_pos_site_id
 _symmetry_equiv_pos_as_xyz
 1  'x, y, z'
loop_
 _atom_site_type_symbol
 _atom_site_label
 _atom_site_symmetry_multiplicity
 _atom_site_fract_x
 _atom_site_fract_y
 _atom_site_fract_z
 _atom_site_fract_occupancy
 Be  Be1  1  0.00000  0.00000  0.02444  1
 Be  Be2  1  0.50000  0.50000  0.22194  1
 Cr  Cr1  1  0.00000  0.00000  0.48094  1
 Ir  Ir1  1  0.50000  0.50000  0.77269  1
