CIF file written using JARVIS-Tools package.
data_GeN2F6
_symmetry_space_group_name_H-M  'C2/m'
_cell_length_a       5.0049
_cell_length_b       5.46162
_cell_length_c       5.21384
_cell_angle_alpha    118.51
_cell_angle_beta     90
_cell_angle_gamma    94.6135

_symmetry_Int_Tables_number  12
_chemical_formula_structural  GeN2F6
_chemical_formula_sum  GeN2F6
_cell_volume  124.71063782718018
_cell_formula_units_Z  1
loop_
  _symmetry_equiv_pos_site_id
 _symmetry_equiv_pos_as_xyz
 1  'x, y, z'
loop_
 _atom_site_type_symbol
 _atom_site_label
 _atom_site_symmetry_multiplicity
 _atom_site_fract_x
 _atom_site_fract_y
 _atom_site_fract_z
 _atom_site_fract_occupancy
 F  F1  1  0.27313  0.79125  0.89563  1
 F  F2  1  0.18029  0.24940  0.89060  1
 F  F3  1  0.18029  0.24940  0.35880  1
 F  F4  1  0.72687  0.20875  0.10437  1
 F  F5  1  0.81971  0.75060  0.10940  1
 F  F6  1  0.81971  0.75060  0.64120  1
 Ge  Ge1  1  0.00000  0.00000  0.00000  1
 N  N1  1  0.68377  0.46758  0.73379  1
 N  N2  1  0.31623  0.53242  0.26621  1
