CIF file written using JARVIS-Tools package.
data_HoB4
_symmetry_space_group_name_H-M  'P4/mbm'
_cell_length_a       4.00803
_cell_length_b       7.07762
_cell_length_c       7.07762
_cell_angle_alpha    90
_cell_angle_beta     90
_cell_angle_gamma    90

_symmetry_Int_Tables_number  127
_chemical_formula_structural  HoB4
_chemical_formula_sum  Ho4B6
_cell_volume  200.7729176516615
_cell_formula_units_Z  4
loop_
  _symmetry_equiv_pos_site_id
 _symmetry_equiv_pos_as_xyz
 1  'x, y, z'
loop_
 _atom_site_type_symbol
 _atom_site_label
 _atom_site_symmetry_multiplicity
 _atom_site_fract_x
 _atom_site_fract_y
 _atom_site_fract_z
 _atom_site_fract_occupancy
 B  B1  1  0.79729  0.00000  0.00000  1
 B  B2  1  0.79729  0.50000  0.50000  1
 B  B3  1  0.50000  0.41297  0.08703  1
 B  B4  1  0.50000  0.08703  0.58703  1
 B  B5  1  0.50000  0.53863  0.67632  1
 B  B6  1  0.50000  0.58703  0.91297  1
 B  B7  1  0.50000  0.17632  0.03863  1
 B  B8  1  0.50000  0.67632  0.46137  1
 B  B9  1  0.20271  0.50000  0.50000  1
 B  B10  1  0.50000  0.96137  0.17632  1
 B  B11  1  0.50000  0.03863  0.82368  1
 B  B12  1  0.50000  0.91297  0.41297  1
 B  B13  1  0.50000  0.82368  0.96137  1
 B  B14  1  0.50000  0.46137  0.32368  1
 B  B15  1  0.50000  0.32368  0.53863  1
 B  B16  1  0.20271  0.00000  0.00000  1
 Ho  Ho1  1  0.00000  0.31857  0.81857  1
 Ho  Ho2  1  0.00000  0.68143  0.18143  1
 Ho  Ho3  1  0.00000  0.81857  0.68143  1
 Ho  Ho4  1  0.00000  0.18143  0.31857  1
