CIF file written using JARVIS-Tools package.
data_LiTi2Be
_symmetry_space_group_name_H-M  'P4mm'
_cell_length_a       2.78908
_cell_length_b       2.78908
_cell_length_c       7.62137
_cell_angle_alpha    90
_cell_angle_beta     90
_cell_angle_gamma    90

_symmetry_Int_Tables_number  99
_chemical_formula_structural  LiTi2Be
_chemical_formula_sum  LiTi2Be
_cell_volume  59.28651315315451
_cell_formula_units_Z  1
loop_
  _symmetry_equiv_pos_site_id
 _symmetry_equiv_pos_as_xyz
 1  'x, y, z'
loop_
 _atom_site_type_symbol
 _atom_site_label
 _atom_site_symmetry_multiplicity
 _atom_site_fract_x
 _atom_site_fract_y
 _atom_site_fract_z
 _atom_site_fract_occupancy
 Be  Be1  1  0.00000  0.00000  0.49949  1
 Li  Li1  1  0.50000  0.50000  0.70403  1
 Ti  Ti1  1  0.00000  0.00000  0.01594  1
 Ti  Ti2  1  0.50000  0.50000  0.28054  1
