CIF file written using JARVIS-Tools package.
data_Li2MnF4
_symmetry_space_group_name_H-M  'Fd-3m'
_cell_length_a       5.99051
_cell_length_b       5.99051
_cell_length_c       5.99051
_cell_angle_alpha    60
_cell_angle_beta     90
_cell_angle_gamma    120

_symmetry_Int_Tables_number  227
_chemical_formula_structural  Li2MnF4
_chemical_formula_sum  Li4Mn2F8
_cell_volume  152.01108006457136
_cell_formula_units_Z  2
loop_
  _symmetry_equiv_pos_site_id
 _symmetry_equiv_pos_as_xyz
 1  'x, y, z'
loop_
 _atom_site_type_symbol
 _atom_site_label
 _atom_site_symmetry_multiplicity
 _atom_site_fract_x
 _atom_site_fract_y
 _atom_site_fract_z
 _atom_site_fract_occupancy
 F  F1  1  0.73931  0.47862  0.28208  1
 F  F2  1  0.73931  0.02138  0.73931  1
 F  F3  1  0.73931  0.47862  0.73931  1
 F  F4  1  0.28208  0.02138  0.73931  1
 F  F5  1  0.71792  0.97862  0.26069  1
 F  F6  1  0.26069  0.52138  0.26069  1
 F  F7  1  0.26069  0.97862  0.26069  1
 F  F8  1  0.26069  0.52138  0.71792  1
 Li  Li1  1  0.50000  0.00000  -0.00000  1
 Li  Li2  1  0.50000  0.00000  0.50000  1
 Li  Li3  1  0.50000  0.50000  0.50000  1
 Li  Li4  1  -0.00000  0.50000  0.50000  1
 Mn  Mn1  1  0.12500  0.25000  0.12500  1
 Mn  Mn2  1  0.87500  0.75000  0.87500  1
