CIF file written using JARVIS-Tools package.
data_BeRePb
_symmetry_space_group_name_H-M  'I4mm'
_cell_length_a       5.40727
_cell_length_b       5.40727
_cell_length_c       5.40727
_cell_angle_alpha    145.431
_cell_angle_beta     145.431
_cell_angle_gamma    49.6924

_symmetry_Int_Tables_number  107
_chemical_formula_structural  BeRePb
_chemical_formula_sum  BeRePb
_cell_volume  50.65936077600903
_cell_formula_units_Z  1
loop_
  _symmetry_equiv_pos_site_id
 _symmetry_equiv_pos_as_xyz
 1  'x, y, z'
loop_
 _atom_site_type_symbol
 _atom_site_label
 _atom_site_symmetry_multiplicity
 _atom_site_fract_x
 _atom_site_fract_y
 _atom_site_fract_z
 _atom_site_fract_occupancy
 Be  Be1  1  0.05284  0.05284  0.00000  1
 Pb  Pb1  1  0.32631  0.32631  0.00000  1
 Re  Re1  1  0.62085  0.62085  -0.00000  1
