CIF file written using JARVIS-Tools package.
data_BaMgO2
_symmetry_space_group_name_H-M  'P3_121'
_cell_length_a       5.94529
_cell_length_b       5.94531
_cell_length_c       6.7999
_cell_angle_alpha    89.999
_cell_angle_beta     90.0001
_cell_angle_gamma    120

_symmetry_Int_Tables_number  152
_chemical_formula_structural  BaMgO2
_chemical_formula_sum  Ba3Mg3O6
_cell_volume  208.15216256881075
_cell_formula_units_Z  3
loop_
  _symmetry_equiv_pos_site_id
 _symmetry_equiv_pos_as_xyz
 1  'x, y, z'
loop_
 _atom_site_type_symbol
 _atom_site_label
 _atom_site_symmetry_multiplicity
 _atom_site_fract_x
 _atom_site_fract_y
 _atom_site_fract_z
 _atom_site_fract_occupancy
 Ba  Ba1  1  0.00000  0.65480  0.16667  1
 Ba  Ba2  1  0.34521  0.34521  0.50000  1
 Ba  Ba3  1  0.65480  0.00000  0.83335  1
 Mg  Mg1  1  0.00001  0.57547  0.66667  1
 Mg  Mg2  1  0.42453  0.42453  0.00000  1
 Mg  Mg3  1  0.57547  0.00001  0.33334  1
 O  O1  1  0.29708  0.86815  0.53950  1
 O  O2  1  0.13184  0.42891  0.87283  1
 O  O3  1  0.57107  0.70293  0.20616  1
 O  O4  1  0.42891  0.13185  0.12719  1
 O  O5  1  0.70292  0.57107  0.79385  1
 O  O6  1  0.86815  0.29708  0.46051  1
