CIF file written using JARVIS-Tools package.
data_Ce6P17Pd6
_symmetry_space_group_name_H-M  'I-43m'
_cell_length_a       8.94893
_cell_length_b       8.94892
_cell_length_c       8.94892
_cell_angle_alpha    109.471
_cell_angle_beta     109.471
_cell_angle_gamma    109.471

_symmetry_Int_Tables_number  217
_chemical_formula_structural  Ce6P17Pd6
_chemical_formula_sum  Ce6P7Pd6
_cell_volume  551.6841209465393
_cell_formula_units_Z  1
loop_
  _symmetry_equiv_pos_site_id
 _symmetry_equiv_pos_as_xyz
 1  'x, y, z'
loop_
 _atom_site_type_symbol
 _atom_site_label
 _atom_site_symmetry_multiplicity
 _atom_site_fract_x
 _atom_site_fract_y
 _atom_site_fract_z
 _atom_site_fract_occupancy
 Ce  Ce1  1  0.00000  0.28466  0.28466  1
 Ce  Ce2  1  0.71534  -0.00000  0.71534  1
 Ce  Ce3  1  0.28466  0.00000  0.28466  1
 Ce  Ce4  1  0.28466  0.28466  -0.00000  1
 Ce  Ce5  1  0.71534  0.71534  0.00000  1
 Ce  Ce6  1  -0.00000  0.71534  0.71534  1
 P  P1  1  0.00000  0.00000  0.00000  1
 P  P2  1  0.57364  0.21413  0.21413  1
 P  P3  1  0.64049  0.64049  0.42636  1
 P  P4  1  0.35951  0.78587  0.00000  1
 P  P5  1  0.00000  0.00000  0.57826  1
 P  P6  1  -0.00000  0.78587  0.35951  1
 P  P7  1  0.78587  0.35951  -0.00000  1
 P  P8  1  0.21413  0.57364  0.21413  1
 P  P9  1  0.78587  -0.00000  0.35951  1
 P  P10  1  0.35951  -0.00000  0.78587  1
 P  P11  1  -0.00000  0.35951  0.78587  1
 P  P12  1  0.42636  0.64049  0.64049  1
 P  P13  1  0.64049  0.42636  0.64049  1
 P  P14  1  0.21413  0.21413  0.57364  1
 P  P15  1  0.42174  0.42174  0.42174  1
 P  P16  1  0.57826  -0.00000  -0.00000  1
 P  P17  1  0.00000  0.57826  0.00000  1
 Pd  Pd1  1  0.50000  0.75000  0.25000  1
 Pd  Pd2  1  0.25000  0.75000  0.50000  1
 Pd  Pd3  1  0.75000  0.25000  0.50000  1
 Pd  Pd4  1  0.25000  0.50000  0.75000  1
 Pd  Pd5  1  0.75000  0.50000  0.25000  1
 Pd  Pd6  1  0.50000  0.25000  0.75000  1
