CIF file written using JARVIS-Tools package.
data_Ho3Al5O12
_symmetry_space_group_name_H-M  'Ia-3d'
_cell_length_a       10.4378
_cell_length_b       10.4378
_cell_length_c       10.4378
_cell_angle_alpha    109.471
_cell_angle_beta     109.471
_cell_angle_gamma    109.471

_symmetry_Int_Tables_number  230
_chemical_formula_structural  Ho3Al5O12
_chemical_formula_sum  Ho2Al20O48
_cell_volume  875.3933816461024
_cell_formula_units_Z  4
loop_
  _symmetry_equiv_pos_site_id
 _symmetry_equiv_pos_as_xyz
 1  'x, y, z'
loop_
 _atom_site_type_symbol
 _atom_site_label
 _atom_site_symmetry_multiplicity
 _atom_site_fract_x
 _atom_site_fract_y
 _atom_site_fract_z
 _atom_site_fract_occupancy
 Al  Al1  1  0.25000  0.62500  0.37500  1
 Al  Al2  1  0.87500  0.12500  0.75000  1
 Al  Al3  1  0.12500  0.75000  0.87500  1
 Al  Al4  1  0.62500  0.37500  0.25000  1
 Al  Al5  1  0.37500  0.25000  0.62500  1
 Al  Al6  1  0.75000  0.87500  0.12500  1
 Al  Al7  1  0.25000  0.12500  0.87500  1
 Al  Al8  1  0.87500  0.25000  0.12500  1
 Al  Al9  1  0.37500  0.62500  0.75000  1
 Al  Al10  1  0.00000  0.00000  0.00000  1
 Al  Al11  1  0.62500  0.75000  0.37500  1
 Al  Al12  1  -0.00000  0.50000  -0.00000  1
 Al  Al13  1  0.00000  0.00000  0.50000  1
 Al  Al14  1  0.50000  0.00000  -0.00000  1
 Al  Al15  1  0.50000  0.00000  0.50000  1
 Al  Al16  1  0.50000  0.50000  -0.00000  1
 Al  Al17  1  0.50000  0.50000  0.50000  1
 Al  Al18  1  -0.00000  0.50000  0.50000  1
 Al  Al19  1  0.75000  0.37500  0.62500  1
 Al  Al20  1  0.12500  0.87500  0.25000  1
 Ho  Ho1  1  0.25000  0.37500  0.12500  1
 Ho  Ho2  1  0.12500  0.25000  0.37500  1
 Ho  Ho3  1  0.75000  0.62500  0.87500  1
 Ho  Ho4  1  0.87500  0.62500  0.25000  1
 Ho  Ho5  1  0.62500  0.87500  0.75000  1
 Ho  Ho6  1  0.87500  0.75000  0.62500  1
 Ho  Ho7  1  0.25000  0.87500  0.62500  1
 Ho  Ho8  1  0.37500  0.75000  0.12500  1
 Ho  Ho9  1  0.75000  0.12500  0.37500  1
 Ho  Ho10  1  0.12500  0.37500  0.75000  1
 Ho  Ho11  1  0.37500  0.12500  0.25000  1
 Ho  Ho12  1  0.62500  0.25000  0.87500  1
 O  O1  1  0.82066  0.79933  0.41812  1
 O  O2  1  0.20067  0.58188  0.17934  1
 O  O3  1  0.41812  0.09747  0.61879  1
 O  O4  1  0.58188  0.17934  0.20067  1
 O  O5  1  0.08188  0.88121  0.40253  1
 O  O6  1  0.88121  0.40253  0.08188  1
 O  O7  1  0.11879  0.59747  0.91812  1
 O  O8  1  0.32066  0.90253  0.02133  1
 O  O9  1  0.90253  0.02133  0.32066  1
 O  O10  1  0.02133  0.20067  0.11879  1
 O  O11  1  0.59747  0.91812  0.11879  1
 O  O12  1  0.91812  0.29933  0.32066  1
 O  O13  1  0.58188  0.90253  0.38121  1
 O  O14  1  0.38121  0.29933  0.47867  1
 O  O15  1  0.47867  0.38121  0.29933  1
 O  O16  1  0.17934  0.20067  0.58188  1
 O  O17  1  0.02133  0.32066  0.90253  1
 O  O18  1  0.97867  0.79933  0.88121  1
 O  O19  1  0.79933  0.41812  0.82066  1
 O  O20  1  0.09747  0.97867  0.67934  1
 O  O21  1  0.40253  0.08188  0.88121  1
 O  O22  1  0.29933  0.47867  0.38121  1
 O  O23  1  0.52133  0.61879  0.70067  1
 O  O24  1  0.32066  0.91812  0.29933  1
 O  O25  1  0.61879  0.70067  0.52133  1
 O  O26  1  0.67934  0.09747  0.97867  1
 O  O27  1  0.20067  0.11879  0.02133  1
 O  O28  1  0.11879  0.02133  0.20067  1
 O  O29  1  0.17934  0.47867  0.59747  1
 O  O30  1  0.29933  0.32066  0.91812  1
 O  O31  1  0.38121  0.58188  0.90253  1
 O  O32  1  0.59747  0.17934  0.47867  1
 O  O33  1  0.47867  0.59747  0.17934  1
 O  O34  1  0.97867  0.67934  0.09747  1
 O  O35  1  0.91812  0.11879  0.59747  1
 O  O36  1  0.09747  0.61879  0.41812  1
 O  O37  1  0.67934  0.08188  0.70067  1
 O  O38  1  0.40253  0.82066  0.52133  1
 O  O39  1  0.61879  0.41812  0.09747  1
 O  O40  1  0.70067  0.67934  0.08188  1
 O  O41  1  0.82066  0.52133  0.40253  1
 O  O42  1  0.88121  0.97867  0.79933  1
 O  O43  1  0.41812  0.82066  0.79933  1
 O  O44  1  0.79933  0.88121  0.97867  1
 O  O45  1  0.70067  0.52133  0.61879  1
 O  O46  1  0.08188  0.70067  0.67934  1
 O  O47  1  0.52133  0.40253  0.82066  1
 O  O48  1  0.90253  0.38121  0.58188  1
