CIF file written using JARVIS-Tools package.
data_CaIn2Ni
_symmetry_space_group_name_H-M  'Cmcm'
_cell_length_a       4.3208
_cell_length_b       5.6677
_cell_length_c       7.62681
_cell_angle_alpha    90
_cell_angle_beta     90
_cell_angle_gamma    112.407

_symmetry_Int_Tables_number  63
_chemical_formula_structural  CaIn2Ni
_chemical_formula_sum  Ca2In4Ni2
_cell_volume  172.67212613749734
_cell_formula_units_Z  2
loop_
  _symmetry_equiv_pos_site_id
 _symmetry_equiv_pos_as_xyz
 1  'x, y, z'
loop_
 _atom_site_type_symbol
 _atom_site_label
 _atom_site_symmetry_multiplicity
 _atom_site_fract_x
 _atom_site_fract_y
 _atom_site_fract_z
 _atom_site_fract_occupancy
 Ca  Ca1  1  0.43816  0.87632  0.25000  1
 Ca  Ca2  1  0.56184  0.12368  0.75000  1
 In  In1  1  0.14831  0.29663  0.44841  1
 In  In2  1  0.85169  0.70337  0.55159  1
 In  In3  1  0.14831  0.29663  0.05159  1
 In  In4  1  0.85169  0.70337  0.94841  1
 Ni  Ni1  1  0.71833  0.43666  0.25000  1
 Ni  Ni2  1  0.28167  0.56334  0.75000  1
