CIF file written using JARVIS-Tools package.
data_Ag2Se
_symmetry_space_group_name_H-M  'P2_12_12_1'
_cell_length_a       4.55033
_cell_length_b       7.08573
_cell_length_c       7.54409
_cell_angle_alpha    90
_cell_angle_beta     90
_cell_angle_gamma    90

_symmetry_Int_Tables_number  19
_chemical_formula_structural  Ag2Se
_chemical_formula_sum  Ag8Se4
_cell_volume  243.2399508869709
_cell_formula_units_Z  4
loop_
  _symmetry_equiv_pos_site_id
 _symmetry_equiv_pos_as_xyz
 1  'x, y, z'
loop_
 _atom_site_type_symbol
 _atom_site_label
 _atom_site_symmetry_multiplicity
 _atom_site_fract_x
 _atom_site_fract_y
 _atom_site_fract_z
 _atom_site_fract_occupancy
 Ag  Ag1  1  0.00762  0.23129  0.87653  1
 Ag  Ag2  1  0.69806  0.87841  0.94796  1
 Ag  Ag3  1  0.49238  0.76871  0.37653  1
 Ag  Ag4  1  0.19806  0.62159  0.05204  1
 Ag  Ag5  1  0.80194  0.12159  0.44796  1
 Ag  Ag6  1  0.99238  0.73129  0.62347  1
 Ag  Ag7  1  0.30194  0.37841  0.55204  1
 Ag  Ag8  1  0.50762  0.26871  0.12347  1
 Se  Se1  1  0.87902  0.49290  0.32912  1
 Se  Se2  1  0.12098  0.99290  0.17088  1
 Se  Se3  1  0.37902  0.00710  0.67088  1
 Se  Se4  1  0.62098  0.50710  0.82912  1
