CIF file written using JARVIS-Tools package.
data_BaN2
_symmetry_space_group_name_H-M  'C2/c'
_cell_length_a       4.23381
_cell_length_b       4.23381
_cell_length_c       7.29726
_cell_angle_alpha    77.3236
_cell_angle_beta     77.3236
_cell_angle_gamma    63.2501

_symmetry_Int_Tables_number  15
_chemical_formula_structural  BaN2
_chemical_formula_sum  Ba2N4
_cell_volume  112.85986764107109
_cell_formula_units_Z  2
loop_
  _symmetry_equiv_pos_site_id
 _symmetry_equiv_pos_as_xyz
 1  'x, y, z'
loop_
 _atom_site_type_symbol
 _atom_site_label
 _atom_site_symmetry_multiplicity
 _atom_site_fract_x
 _atom_site_fract_y
 _atom_site_fract_z
 _atom_site_fract_occupancy
 Ba  Ba1  1  0.79648  0.20352  0.25000  1
 Ba  Ba2  1  0.20352  0.79648  0.75000  1
 N  N1  1  0.15045  0.44280  0.45464  1
 N  N2  1  0.55720  0.84955  0.04536  1
 N  N3  1  0.44280  0.15045  0.95464  1
 N  N4  1  0.84955  0.55720  0.54536  1
