CIF file written using JARVIS-Tools package.
data_K2Ga3
_symmetry_space_group_name_H-M  'I4/mmm'
_cell_length_a       6.15604
_cell_length_b       6.15603
_cell_length_c       8.48216
_cell_angle_alpha    111.277
_cell_angle_beta     111.277
_cell_angle_gamma    90

_symmetry_Int_Tables_number  139
_chemical_formula_structural  K2Ga3
_chemical_formula_sum  K4Ga6
_cell_volume  275.8895646990966
_cell_formula_units_Z  2
loop_
  _symmetry_equiv_pos_site_id
 _symmetry_equiv_pos_as_xyz
 1  'x, y, z'
loop_
 _atom_site_type_symbol
 _atom_site_label
 _atom_site_symmetry_multiplicity
 _atom_site_fract_x
 _atom_site_fract_y
 _atom_site_fract_z
 _atom_site_fract_occupancy
 Ga  Ga1  1  0.00000  0.29480  -0.00000  1
 Ga  Ga2  1  0.14325  0.14325  0.28650  1
 Ga  Ga3  1  0.29480  0.00000  -0.00000  1
 Ga  Ga4  1  -0.00000  0.70520  0.00000  1
 Ga  Ga5  1  0.85675  0.85675  0.71350  1
 Ga  Ga6  1  0.70520  -0.00000  0.00000  1
 K  K1  1  0.39043  0.39043  0.78085  1
 K  K2  1  0.25000  0.75000  0.50000  1
 K  K3  1  0.60957  0.60957  0.21915  1
 K  K4  1  0.75000  0.25000  0.50000  1
