CIF file written using JARVIS-Tools package.
data_K2FeCuC6N6
_symmetry_space_group_name_H-M  'P-1'
_cell_length_a       6.9589
_cell_length_b       6.8379
_cell_length_c       6.9694
_cell_angle_alpha    119.359
_cell_angle_beta     116.566
_cell_angle_gamma    90.031

_symmetry_Int_Tables_number  2
_chemical_formula_structural  K2FeCuC6N6
_chemical_formula_sum  K2FeCuC6N6
_cell_volume  248.03318970918238
_cell_formula_units_Z  1
loop_
  _symmetry_equiv_pos_site_id
 _symmetry_equiv_pos_as_xyz
 1  'x, y, z'
loop_
 _atom_site_type_symbol
 _atom_site_label
 _atom_site_symmetry_multiplicity
 _atom_site_fract_x
 _atom_site_fract_y
 _atom_site_fract_z
 _atom_site_fract_occupancy
 C  C1  1  0.71974  0.72172  0.06734  1
 C  C2  1  0.28026  0.27828  0.93266  1
 C  C3  1  0.40934  0.32400  0.64648  1
 C  C4  1  0.71941  0.34522  0.06607  1
 C  C5  1  0.59066  0.67600  0.35352  1
 C  C6  1  0.28059  0.65478  0.93393  1
 Cu  Cu1  1  0.00000  0.00000  0.00000  1
 Fe  Fe1  1  0.50000  0.50000  -0.00000  1
 K  K1  1  0.21105  0.74369  0.48830  1
 K  K2  1  0.78895  0.25631  0.51170  1
 N  N1  1  0.64596  0.78472  0.57192  1
 N  N2  1  0.12930  0.14395  0.87806  1
 N  N3  1  0.12982  0.73476  0.88006  1
 N  N4  1  0.87018  0.26524  0.11994  1
 N  N5  1  0.87070  0.85605  0.12194  1
 N  N6  1  0.35404  0.21528  0.42808  1
