CIF file written using JARVIS-Tools package.
data_NpTe3
_symmetry_space_group_name_H-M  'Cmcm'
_cell_length_a       4.39486
_cell_length_b       4.39088
_cell_length_c       12.8266
_cell_angle_alpha    90
_cell_angle_beta     99.8645
_cell_angle_gamma    90

_symmetry_Int_Tables_number  63
_chemical_formula_structural  NpTe3
_chemical_formula_sum  Np2Te6
_cell_volume  243.8587795579375
_cell_formula_units_Z  2
loop_
  _symmetry_equiv_pos_site_id
 _symmetry_equiv_pos_as_xyz
 1  'x, y, z'
loop_
 _atom_site_type_symbol
 _atom_site_label
 _atom_site_symmetry_multiplicity
 _atom_site_fract_x
 _atom_site_fract_y
 _atom_site_fract_z
 _atom_site_fract_occupancy
 Np  Np1  1  0.16868  0.75000  0.33735  1
 Np  Np2  1  0.83132  0.25000  0.66265  1
 Te  Te1  1  0.92645  0.75000  0.85290  1
 Te  Te2  1  0.07355  0.25000  0.14710  1
 Te  Te3  1  0.57386  0.75000  0.14773  1
 Te  Te4  1  0.42614  0.25000  0.85227  1
 Te  Te5  1  0.29629  0.75000  0.59258  1
 Te  Te6  1  0.70371  0.25000  0.40742  1
