CIF file written using JARVIS-Tools package.
data_YInPd
_symmetry_space_group_name_H-M  'P-62m'
_cell_length_a       3.83515
_cell_length_b       7.70751
_cell_length_c       7.70757
_cell_angle_alpha    120
_cell_angle_beta     90
_cell_angle_gamma    90

_symmetry_Int_Tables_number  189
_chemical_formula_structural  YInPd
_chemical_formula_sum  Y3In3Pd3
_cell_volume  197.30864189379048
_cell_formula_units_Z  3
loop_
  _symmetry_equiv_pos_site_id
 _symmetry_equiv_pos_as_xyz
 1  'x, y, z'
loop_
 _atom_site_type_symbol
 _atom_site_label
 _atom_site_symmetry_multiplicity
 _atom_site_fract_x
 _atom_site_fract_y
 _atom_site_fract_z
 _atom_site_fract_occupancy
 In  In1  1  0.00000  0.26109  -0.00000  1
 In  In2  1  0.00000  0.73888  0.73889  1
 In  In3  1  0.00000  -0.00002  0.26111  1
 Pd  Pd1  1  0.00000  0.33332  0.66666  1
 Pd  Pd2  1  0.00000  0.66666  0.33334  1
 Pd  Pd3  1  0.50000  -0.00001  0.00000  1
 Y  Y1  1  0.50000  0.59357  -0.00000  1
 Y  Y2  1  0.50000  0.40641  0.40641  1
 Y  Y3  1  0.50000  0.99999  0.59359  1
