CIF file written using JARVIS-Tools package.
data_RbMg6W
_symmetry_space_group_name_H-M  'P4/mmm'
_cell_length_a       6.786
_cell_length_b       9.59712
_cell_length_c       4.26335
_cell_angle_alpha    90
_cell_angle_beta     90
_cell_angle_gamma    135.002

_symmetry_Int_Tables_number  123
_chemical_formula_structural  RbMg6W
_chemical_formula_sum  RbMg6W
_cell_volume  196.3261640420413
_cell_formula_units_Z  1
loop_
  _symmetry_equiv_pos_site_id
 _symmetry_equiv_pos_as_xyz
 1  'x, y, z'
loop_
 _atom_site_type_symbol
 _atom_site_label
 _atom_site_symmetry_multiplicity
 _atom_site_fract_x
 _atom_site_fract_y
 _atom_site_fract_z
 _atom_site_fract_occupancy
 Mg  Mg1  1  0.74994  0.37496  0.25000  1
 Mg  Mg2  1  0.74994  0.87498  0.25000  1
 Mg  Mg3  1  0.25000  0.08192  0.75000  1
 Mg  Mg4  1  0.25000  0.66808  0.75000  1
 Mg  Mg5  1  0.66398  0.08199  0.75000  1
 Mg  Mg6  1  0.83608  0.66804  0.75000  1
 Rb  Rb1  1  0.25000  0.37500  0.25000  1
 W  W1  1  0.25006  0.87503  0.25000  1
