CIF file written using JARVIS-Tools package.
data_Ti2SiC
_symmetry_space_group_name_H-M  'P6_3/mmc'
_cell_length_a       3.06498
_cell_length_b       3.06498
_cell_length_c       12.8505
_cell_angle_alpha    90
_cell_angle_beta     90
_cell_angle_gamma    119.999

_symmetry_Int_Tables_number  194
_chemical_formula_structural  Ti2SiC
_chemical_formula_sum  Ti4Si2C2
_cell_volume  104.5455114817845
_cell_formula_units_Z  2
loop_
  _symmetry_equiv_pos_site_id
 _symmetry_equiv_pos_as_xyz
 1  'x, y, z'
loop_
 _atom_site_type_symbol
 _atom_site_label
 _atom_site_symmetry_multiplicity
 _atom_site_fract_x
 _atom_site_fract_y
 _atom_site_fract_z
 _atom_site_fract_occupancy
 C  C1  1  0.00000  0.00000  0.50000  1
 C  C2  1  0.00000  0.00000  0.00000  1
 Si  Si1  1  0.66667  0.33333  0.25000  1
 Si  Si2  1  0.33333  0.66667  0.75000  1
 Ti  Ti1  1  0.66667  0.33333  0.59149  1
 Ti  Ti2  1  0.33333  0.66667  0.40851  1
 Ti  Ti3  1  0.33333  0.66667  0.09149  1
 Ti  Ti4  1  0.66667  0.33333  0.90851  1
