CIF file written using JARVIS-Tools package.
data_ZrNi4As2
_symmetry_space_group_name_H-M  'P4_2/mnm'
_cell_length_a       7.10958
_cell_length_b       7.10958
_cell_length_c       3.76916
_cell_angle_alpha    90
_cell_angle_beta     90
_cell_angle_gamma    90

_symmetry_Int_Tables_number  136
_chemical_formula_structural  ZrNi4As2
_chemical_formula_sum  Zr2Ni8As4
_cell_volume  190.5163762199437
_cell_formula_units_Z  2
loop_
  _symmetry_equiv_pos_site_id
 _symmetry_equiv_pos_as_xyz
 1  'x, y, z'
loop_
 _atom_site_type_symbol
 _atom_site_label
 _atom_site_symmetry_multiplicity
 _atom_site_fract_x
 _atom_site_fract_y
 _atom_site_fract_z
 _atom_site_fract_occupancy
 As  As1  1  0.78377  0.21623  0.00000  1
 As  As2  1  0.21623  0.78377  0.00000  1
 As  As3  1  0.71623  0.71623  0.50000  1
 As  As4  1  0.28377  0.28377  0.50000  1
 Ni  Ni1  1  0.34434  0.08988  0.00000  1
 Ni  Ni2  1  0.65566  0.91012  0.00000  1
 Ni  Ni3  1  0.58988  0.15566  0.50000  1
 Ni  Ni4  1  0.41012  0.84434  0.50000  1
 Ni  Ni5  1  0.84434  0.41012  0.50000  1
 Ni  Ni6  1  0.15566  0.58988  0.50000  1
 Ni  Ni7  1  0.08988  0.34434  0.00000  1
 Ni  Ni8  1  0.91012  0.65566  0.00000  1
 Zr  Zr1  1  0.00000  0.00000  0.50000  1
 Zr  Zr2  1  0.50000  0.50000  0.00000  1
