CIF file written using JARVIS-Tools package.
data_BeGeBi
_symmetry_space_group_name_H-M  'I4mm'
_cell_length_a       6.35595
_cell_length_b       6.35595
_cell_length_c       6.35595
_cell_angle_alpha    149.984
_cell_angle_beta     149.984
_cell_angle_gamma    42.9647

_symmetry_Int_Tables_number  107
_chemical_formula_structural  BeGeBi
_chemical_formula_sum  BeGeBi
_cell_volume  64.08722126196092
_cell_formula_units_Z  1
loop_
  _symmetry_equiv_pos_site_id
 _symmetry_equiv_pos_as_xyz
 1  'x, y, z'
loop_
 _atom_site_type_symbol
 _atom_site_label
 _atom_site_symmetry_multiplicity
 _atom_site_fract_x
 _atom_site_fract_y
 _atom_site_fract_z
 _atom_site_fract_occupancy
 Be  Be1  1  0.04028  0.04028  -0.00000  1
 Bi  Bi1  1  0.35325  0.35325  -0.00000  1
 Ge  Ge1  1  0.60647  0.60647  -0.00000  1
