CIF file written using JARVIS-Tools package.
data_Na2TiBe2
_symmetry_space_group_name_H-M  'I4/mmm'
_cell_length_a       7.00382
_cell_length_b       7.00382
_cell_length_c       7.00382
_cell_angle_alpha    150.216
_cell_angle_beta     150.216
_cell_angle_gamma    42.6247

_symmetry_Int_Tables_number  139
_chemical_formula_structural  Na2TiBe2
_chemical_formula_sum  Na2TiBe2
_cell_volume  84.56015076593803
_cell_formula_units_Z  1
loop_
  _symmetry_equiv_pos_site_id
 _symmetry_equiv_pos_as_xyz
 1  'x, y, z'
loop_
 _atom_site_type_symbol
 _atom_site_label
 _atom_site_symmetry_multiplicity
 _atom_site_fract_x
 _atom_site_fract_y
 _atom_site_fract_z
 _atom_site_fract_occupancy
 Be  Be1  1  0.57544  0.57544  -0.00000  1
 Be  Be2  1  0.42456  0.42456  0.00000  1
 Na  Na1  1  0.75000  0.25000  0.50000  1
 Na  Na2  1  0.25000  0.75000  0.50000  1
 Ti  Ti1  1  0.00000  0.00000  0.00000  1
