CIF file written using JARVIS-Tools package.
data_TbSi2Ni
_symmetry_space_group_name_H-M  'Cmcm'
_cell_length_a       3.99829
_cell_length_b       4.02641
_cell_length_c       8.47271
_cell_angle_alpha    103.746
_cell_angle_beta     90
_cell_angle_gamma    90

_symmetry_Int_Tables_number  63
_chemical_formula_structural  TbSi2Ni
_chemical_formula_sum  Tb2Si4Ni2
_cell_volume  132.49385058177756
_cell_formula_units_Z  2
loop_
  _symmetry_equiv_pos_site_id
 _symmetry_equiv_pos_as_xyz
 1  'x, y, z'
loop_
 _atom_site_type_symbol
 _atom_site_label
 _atom_site_symmetry_multiplicity
 _atom_site_fract_x
 _atom_site_fract_y
 _atom_site_fract_z
 _atom_site_fract_occupancy
 Ni  Ni1  1  0.25000  0.67835  0.35669  1
 Ni  Ni2  1  0.75000  0.32165  0.64331  1
 Si  Si1  1  0.25000  0.25003  0.50006  1
 Si  Si2  1  0.75000  0.74997  0.49994  1
 Si  Si3  1  0.25000  0.54034  0.08068  1
 Si  Si4  1  0.75000  0.45966  0.91932  1
 Tb  Tb1  1  0.25000  0.89445  0.78890  1
 Tb  Tb2  1  0.75000  0.10555  0.21110  1
