CIF file written using JARVIS-Tools package.
data_TbReB4
_symmetry_space_group_name_H-M  'Pbam'
_cell_length_a       3.64725
_cell_length_b       5.98196
_cell_length_c       11.5722
_cell_angle_alpha    90
_cell_angle_beta     90
_cell_angle_gamma    90

_symmetry_Int_Tables_number  55
_chemical_formula_structural  TbReB4
_chemical_formula_sum  Tb4Re4B6
_cell_volume  252.47930431022738
_cell_formula_units_Z  4
loop_
  _symmetry_equiv_pos_site_id
 _symmetry_equiv_pos_as_xyz
 1  'x, y, z'
loop_
 _atom_site_type_symbol
 _atom_site_label
 _atom_site_symmetry_multiplicity
 _atom_site_fract_x
 _atom_site_fract_y
 _atom_site_fract_z
 _atom_site_fract_occupancy
 B  B1  1  0.50000  0.11366  0.45288  1
 B  B2  1  0.50000  0.28682  0.68482  1
 B  B3  1  0.50000  0.71318  0.31518  1
 B  B4  1  0.50000  0.21318  0.18482  1
 B  B5  1  0.50000  0.02393  0.30812  1
 B  B6  1  0.50000  0.36324  0.53123  1
 B  B7  1  0.50000  0.63676  0.46877  1
 B  B8  1  0.50000  0.78682  0.81518  1
 B  B9  1  0.50000  0.86324  0.96877  1
 B  B10  1  0.50000  0.38634  0.95288  1
 B  B11  1  0.50000  0.61366  0.04712  1
 B  B12  1  0.50000  0.97607  0.69188  1
 B  B13  1  0.50000  0.88634  0.54712  1
 B  B14  1  0.50000  0.47607  0.80812  1
 B  B15  1  0.50000  0.52393  0.19188  1
 B  B16  1  0.50000  0.13676  0.03123  1
 Re  Re1  1  0.00000  0.63305  0.91233  1
 Re  Re2  1  0.00000  0.36695  0.08767  1
 Re  Re3  1  0.00000  0.86695  0.41233  1
 Re  Re4  1  0.00000  0.13305  0.58767  1
 Tb  Tb1  1  0.00000  0.62595  0.65022  1
 Tb  Tb2  1  0.00000  0.37405  0.34978  1
 Tb  Tb3  1  0.00000  0.87405  0.15022  1
 Tb  Tb4  1  0.00000  0.12595  0.84978  1
