CIF file written using JARVIS-Tools package.
data_GaAg2
_symmetry_space_group_name_H-M  'P-62m'
_cell_length_a       7.82424
_cell_length_b       7.82424
_cell_length_c       2.92311
_cell_angle_alpha    90
_cell_angle_beta     90
_cell_angle_gamma    120

_symmetry_Int_Tables_number  189
_chemical_formula_structural  GaAg2
_chemical_formula_sum  Ga3Ag6
_cell_volume  154.97449077128815
_cell_formula_units_Z  3
loop_
  _symmetry_equiv_pos_site_id
 _symmetry_equiv_pos_as_xyz
 1  'x, y, z'
loop_
 _atom_site_type_symbol
 _atom_site_label
 _atom_site_symmetry_multiplicity
 _atom_site_fract_x
 _atom_site_fract_y
 _atom_site_fract_z
 _atom_site_fract_occupancy
 Ag  Ag1  1  -0.00000  0.69462  0.00000  1
 Ag  Ag2  1  0.30538  0.30538  0.00000  1
 Ag  Ag3  1  0.69462  -0.00000  0.00000  1
 Ag  Ag4  1  0.36120  -0.00000  0.50000  1
 Ag  Ag5  1  0.63880  0.63880  0.50000  1
 Ag  Ag6  1  -0.00000  0.36120  0.50000  1
 Ga  Ga1  1  0.66667  0.33333  0.00000  1
 Ga  Ga2  1  0.33333  0.66667  0.00000  1
 Ga  Ga3  1  0.00000  0.00000  0.50000  1
