CIF file written using JARVIS-Tools package.
data_LiTaBe2
_symmetry_space_group_name_H-M  'P4/mmm'
_cell_length_a       2.78936
_cell_length_b       2.78936
_cell_length_c       6.28737
_cell_angle_alpha    90
_cell_angle_beta     90
_cell_angle_gamma    90

_symmetry_Int_Tables_number  123
_chemical_formula_structural  LiTaBe2
_chemical_formula_sum  LiTaBe2
_cell_volume  48.91888718592854
_cell_formula_units_Z  1
loop_
  _symmetry_equiv_pos_site_id
 _symmetry_equiv_pos_as_xyz
 1  'x, y, z'
loop_
 _atom_site_type_symbol
 _atom_site_label
 _atom_site_symmetry_multiplicity
 _atom_site_fract_x
 _atom_site_fract_y
 _atom_site_fract_z
 _atom_site_fract_occupancy
 Be  Be1  1  0.00000  0.00000  0.77585  1
 Be  Be2  1  0.00000  0.00000  0.22415  1
 Li  Li1  1  0.50000  0.50000  0.00000  1
 Ta  Ta1  1  0.50000  0.50000  0.50000  1
