CIF file written using JARVIS-Tools package.
data_NaBH8N2
_symmetry_space_group_name_H-M  'P2_1/c'
_cell_length_a       7.47504
_cell_length_b       6.33115
_cell_length_c       9.0412
_cell_angle_alpha    90
_cell_angle_beta     107.058
_cell_angle_gamma    90

_symmetry_Int_Tables_number  14
_chemical_formula_structural  NaBH8N2
_chemical_formula_sum  Na4B4H32N8
_cell_volume  409.0565759271042
_cell_formula_units_Z  4
loop_
  _symmetry_equiv_pos_site_id
 _symmetry_equiv_pos_as_xyz
 1  'x, y, z'
loop_
 _atom_site_type_symbol
 _atom_site_label
 _atom_site_symmetry_multiplicity
 _atom_site_fract_x
 _atom_site_fract_y
 _atom_site_fract_z
 _atom_site_fract_occupancy
 B  B1  1  0.31909  0.72605  0.33308  1
 B  B2  1  0.68091  0.22605  0.16692  1
 B  B3  1  0.68091  0.27395  0.66692  1
 B  B4  1  0.31909  0.77395  0.83308  1
 H  H1  1  0.44139  0.86296  0.36394  1
 H  H2  1  0.19138  0.02637  0.08156  1
 H  H3  1  0.97283  0.69534  0.10683  1
 H  H4  1  0.02717  0.19534  0.39317  1
 H  H5  1  0.02717  0.30466  0.89317  1
 H  H6  1  0.81477  0.53946  0.98905  1
 H  H7  1  0.18523  0.03946  0.51095  1
 H  H8  1  0.18523  0.46054  0.01095  1
 H  H9  1  0.96355  0.82132  0.86955  1
 H  H10  1  0.80862  0.52637  0.41844  1
 H  H11  1  0.03645  0.32132  0.63045  1
 H  H12  1  0.03645  0.17868  0.13045  1
 H  H13  1  0.96355  0.67868  0.36955  1
 H  H14  1  0.80862  0.97363  0.91844  1
 H  H15  1  0.19138  0.47363  0.58156  1
 H  H16  1  0.97283  0.80466  0.60683  1
 H  H17  1  0.83587  0.31004  0.20243  1
 H  H18  1  0.66578  0.38299  0.77589  1
 H  H19  1  0.81477  0.96054  0.48905  1
 H  H20  1  0.55861  0.13704  0.63606  1
 H  H21  1  0.44139  0.63704  0.86394  1
 H  H22  1  0.33645  0.61199  0.44711  1
 H  H23  1  0.66355  0.11199  0.05289  1
 H  H24  1  0.33422  0.88299  0.72411  1
 H  H25  1  0.33645  0.88801  0.94711  1
 H  H26  1  0.66355  0.38801  0.55289  1
 H  H27  1  0.33422  0.61701  0.22411  1
 H  H28  1  0.83587  0.18996  0.70243  1
 H  H29  1  0.16413  0.68996  0.79757  1
 H  H30  1  0.55861  0.36296  0.13606  1
 H  H31  1  0.66578  0.11701  0.27589  1
 H  H32  1  0.16413  0.81004  0.29757  1
 N  N1  1  0.16282  0.32154  0.60638  1
 N  N2  1  0.16282  0.17846  0.10638  1
 N  N3  1  0.83718  0.67846  0.39362  1
 N  N4  1  0.84306  0.69232  0.02590  1
 N  N5  1  0.83718  0.82154  0.89362  1
 N  N6  1  0.84306  0.80768  0.52590  1
 N  N7  1  0.15694  0.19232  0.47410  1
 N  N8  1  0.15694  0.30768  0.97410  1
 Na  Na1  1  0.59636  0.76195  0.15042  1
 Na  Na2  1  0.40364  0.26195  0.34958  1
 Na  Na3  1  0.40364  0.23805  0.84958  1
 Na  Na4  1  0.59636  0.73805  0.65042  1
