CIF file written using JARVIS-Tools package.
data_HfBeV
_symmetry_space_group_name_H-M  'I4mm'
_cell_length_a       4.94144
_cell_length_b       4.94144
_cell_length_c       4.94144
_cell_angle_alpha    142.71
_cell_angle_beta     142.71
_cell_angle_gamma    53.7609

_symmetry_Int_Tables_number  107
_chemical_formula_structural  HfBeV
_chemical_formula_sum  HfBeV
_cell_volume  44.00077653506196
_cell_formula_units_Z  1
loop_
  _symmetry_equiv_pos_site_id
 _symmetry_equiv_pos_as_xyz
 1  'x, y, z'
loop_
 _atom_site_type_symbol
 _atom_site_label
 _atom_site_symmetry_multiplicity
 _atom_site_fract_x
 _atom_site_fract_y
 _atom_site_fract_z
 _atom_site_fract_occupancy
 Be  Be1  1  0.02225  0.02225  -0.00000  1
 Hf  Hf1  1  0.33499  0.33499  -0.00000  1
 V  V1  1  0.64276  0.64276  0.00000  1
