CIF file written using JARVIS-Tools package.
data_AuN2
_symmetry_space_group_name_H-M  'Pa-3'
_cell_length_a       5.48059
_cell_length_b       5.48059
_cell_length_c       5.48059
_cell_angle_alpha    90
_cell_angle_beta     90
_cell_angle_gamma    90

_symmetry_Int_Tables_number  205
_chemical_formula_structural  AuN2
_chemical_formula_sum  Au4N8
_cell_volume  164.62010964648857
_cell_formula_units_Z  4
loop_
  _symmetry_equiv_pos_site_id
 _symmetry_equiv_pos_as_xyz
 1  'x, y, z'
loop_
 _atom_site_type_symbol
 _atom_site_label
 _atom_site_symmetry_multiplicity
 _atom_site_fract_x
 _atom_site_fract_y
 _atom_site_fract_z
 _atom_site_fract_occupancy
 Au  Au1  1  0.50000  0.00000  0.50000  1
 Au  Au2  1  0.00000  0.00000  0.00000  1
 Au  Au3  1  0.50000  0.50000  0.00000  1
 Au  Au4  1  0.00000  0.50000  0.50000  1
 N  N1  1  0.06260  0.56260  0.93740  1
 N  N2  1  0.43740  0.43740  0.43740  1
 N  N3  1  0.93740  0.06260  0.56260  1
 N  N4  1  0.56260  0.93740  0.06260  1
 N  N5  1  0.93740  0.43740  0.06260  1
 N  N6  1  0.56260  0.56260  0.56260  1
 N  N7  1  0.06260  0.93740  0.43740  1
 N  N8  1  0.43740  0.06260  0.93740  1
