CIF file written using JARVIS-Tools package.
data_Li4V3FeO10
_symmetry_space_group_name_H-M  'P-4m2'
_cell_length_a       6.61111
_cell_length_b       6.61111
_cell_length_c       4.53516
_cell_angle_alpha    90
_cell_angle_beta     90
_cell_angle_gamma    90

_symmetry_Int_Tables_number  115
_chemical_formula_structural  Li4V3FeO10
_chemical_formula_sum  Li4V3FeO0
_cell_volume  198.21680524229993
_cell_formula_units_Z  1
loop_
  _symmetry_equiv_pos_site_id
 _symmetry_equiv_pos_as_xyz
 1  'x, y, z'
loop_
 _atom_site_type_symbol
 _atom_site_label
 _atom_site_symmetry_multiplicity
 _atom_site_fract_x
 _atom_site_fract_y
 _atom_site_fract_z
 _atom_site_fract_occupancy
 Fe  Fe1  1  0.00000  0.00000  0.50000  1
 Li  Li1  1  0.75948  0.75948  0.00000  1
 Li  Li2  1  0.75948  0.24052  0.00000  1
 Li  Li3  1  0.24052  0.24052  0.00000  1
 Li  Li4  1  0.24052  0.75948  0.00000  1
 O  O1  1  0.50000  0.00000  0.75546  1
 O  O2  1  0.00000  0.50000  0.24454  1
 O  O3  1  0.00000  0.23107  0.74401  1
 O  O4  1  0.76893  0.00000  0.25599  1
 O  O5  1  0.23107  0.00000  0.25599  1
 O  O6  1  0.50000  0.28786  0.26733  1
 O  O7  1  0.50000  0.71214  0.26733  1
 O  O8  1  0.00000  0.76893  0.74401  1
 O  O9  1  0.28786  0.50000  0.73267  1
 O  O10  1  0.71214  0.50000  0.73267  1
 V  V1  1  0.50000  0.50000  0.50000  1
 V  V2  1  0.50000  0.00000  0.38721  1
 V  V3  1  0.00000  0.50000  0.61279  1
