CIF file written using JARVIS-Tools package.
data_LaSiBO5
_symmetry_space_group_name_H-M  'P3_121'
_cell_length_a       6.8627
_cell_length_b       6.8627
_cell_length_c       6.83423
_cell_angle_alpha    90
_cell_angle_beta     90
_cell_angle_gamma    120

_symmetry_Int_Tables_number  152
_chemical_formula_structural  LaSiBO5
_chemical_formula_sum  La3Si3B3O5
_cell_volume  278.7465079759088
_cell_formula_units_Z  3
loop_
  _symmetry_equiv_pos_site_id
 _symmetry_equiv_pos_as_xyz
 1  'x, y, z'
loop_
 _atom_site_type_symbol
 _atom_site_label
 _atom_site_symmetry_multiplicity
 _atom_site_fract_x
 _atom_site_fract_y
 _atom_site_fract_z
 _atom_site_fract_occupancy
 B  B1  1  0.10865  -0.00000  0.83333  1
 B  B2  1  0.89135  0.89135  0.50000  1
 B  B3  1  -0.00000  0.10865  0.16667  1
 La  La1  1  0.60092  -0.00000  0.83333  1
 La  La2  1  0.39908  0.39908  0.50000  1
 La  La3  1  -0.00000  0.60092  0.16667  1
 O  O1  1  0.19098  0.34453  0.13795  1
 O  O2  1  0.15355  0.80902  0.80461  1
 O  O3  1  0.96080  0.96080  0.00000  1
 O  O4  1  0.80902  0.15355  0.19539  1
 O  O5  1  0.84645  0.65547  0.52872  1
 O  O6  1  0.34453  0.19098  0.86205  1
 O  O7  1  0.65547  0.84645  0.47128  1
 O  O8  1  0.13653  0.53081  0.50034  1
 O  O9  1  0.86347  0.39428  0.83300  1
 O  O10  1  0.53081  0.13653  0.49966  1
 O  O11  1  0.46919  0.60572  0.83367  1
 O  O12  1  0.60572  0.46919  0.16633  1
 O  O13  1  0.03920  0.00000  0.33333  1
 O  O14  1  0.39428  0.86347  0.16700  1
 O  O15  1  0.00000  0.03920  0.66667  1
 Si  Si1  1  -0.00000  0.58161  0.66667  1
 Si  Si2  1  0.41839  0.41839  0.00000  1
 Si  Si3  1  0.58161  -0.00000  0.33333  1
