CIF file written using JARVIS-Tools package.
data_Ba2NbCrO6
_symmetry_space_group_name_H-M  'P6_3/mmc'
_cell_length_a       5.79473
_cell_length_b       5.79472
_cell_length_c       19.0074
_cell_angle_alpha    90
_cell_angle_beta     90
_cell_angle_gamma    120

_symmetry_Int_Tables_number  194
_chemical_formula_structural  Ba2NbCrO6
_chemical_formula_sum  Ba8Nb4Cr4O24
_cell_volume  552.7383516754072
_cell_formula_units_Z  4
loop_
  _symmetry_equiv_pos_site_id
 _symmetry_equiv_pos_as_xyz
 1  'x, y, z'
loop_
 _atom_site_type_symbol
 _atom_site_label
 _atom_site_symmetry_multiplicity
 _atom_site_fract_x
 _atom_site_fract_y
 _atom_site_fract_z
 _atom_site_fract_occupancy
 Ba  Ba1  1  0.00000  0.00000  0.00000  1
 Ba  Ba2  1  0.33333  0.66667  0.35945  1
 Ba  Ba3  1  0.66667  0.33333  0.85945  1
 Ba  Ba4  1  0.66667  0.33333  0.64055  1
 Ba  Ba5  1  0.00000  0.00000  0.50000  1
 Ba  Ba6  1  0.66667  0.33333  0.25000  1
 Ba  Ba7  1  0.33333  0.66667  0.75000  1
 Ba  Ba8  1  0.33333  0.66667  0.14055  1
 Cr  Cr1  1  0.00000  0.00000  0.18174  1
 Cr  Cr2  1  0.00000  0.00000  0.68174  1
 Cr  Cr3  1  0.00000  0.00000  0.31826  1
 Cr  Cr4  1  0.00000  0.00000  0.81826  1
 Nb  Nb1  1  0.33333  0.66667  0.56462  1
 Nb  Nb2  1  0.66667  0.33333  0.43538  1
 Nb  Nb3  1  0.33333  0.66667  0.93538  1
 Nb  Nb4  1  0.66667  0.33333  0.06462  1
 O  O1  1  0.16762  0.83238  0.62238  1
 O  O2  1  0.50000  0.00000  0.00000  1
 O  O3  1  0.29691  0.14845  0.75000  1
 O  O4  1  0.70309  0.85155  0.25000  1
 O  O5  1  0.14845  0.85155  0.25000  1
 O  O6  1  0.85155  0.70309  0.75000  1
 O  O7  1  0.16762  0.33524  0.62238  1
 O  O8  1  0.83238  0.16762  0.12238  1
 O  O9  1  0.66476  0.83238  0.62238  1
 O  O10  1  -0.00000  0.50000  0.50000  1
 O  O11  1  0.83238  0.66476  0.37762  1
 O  O12  1  0.50000  0.00000  0.50000  1
 O  O13  1  0.83238  0.66476  0.12238  1
 O  O14  1  0.33524  0.16762  0.37762  1
 O  O15  1  0.66476  0.83238  0.87762  1
 O  O16  1  0.16762  0.33524  0.87762  1
 O  O17  1  0.50000  0.50000  0.50000  1
 O  O18  1  0.16762  0.83238  0.87762  1
 O  O19  1  0.33524  0.16762  0.12238  1
 O  O20  1  0.14845  0.29691  0.25000  1
 O  O21  1  0.85155  0.14845  0.75000  1
 O  O22  1  0.50000  0.50000  0.00000  1
 O  O23  1  0.83238  0.16762  0.37762  1
 O  O24  1  -0.00000  0.50000  0.00000  1
