CIF file written using JARVIS-Tools package.
data_NaHg
_symmetry_space_group_name_H-M  'Cmcm'
_cell_length_a       5.27665
_cell_length_b       6.43466
_cell_length_c       6.43466
_cell_angle_alpha    112.129
_cell_angle_beta     90
_cell_angle_gamma    90

_symmetry_Int_Tables_number  63
_chemical_formula_structural  NaHg
_chemical_formula_sum  Na4Hg4
_cell_volume  202.3845033441016
_cell_formula_units_Z  4
loop_
  _symmetry_equiv_pos_site_id
 _symmetry_equiv_pos_as_xyz
 1  'x, y, z'
loop_
 _atom_site_type_symbol
 _atom_site_label
 _atom_site_symmetry_multiplicity
 _atom_site_fract_x
 _atom_site_fract_y
 _atom_site_fract_z
 _atom_site_fract_occupancy
 Hg  Hg1  1  0.75000  0.87496  0.67345  1
 Hg  Hg2  1  0.25000  0.12504  0.32655  1
 Hg  Hg3  1  0.25000  0.67345  0.87496  1
 Hg  Hg4  1  0.75000  0.32655  0.12504  1
 Na  Na1  1  0.25000  0.16037  0.83963  1
 Na  Na2  1  0.75000  0.83963  0.16037  1
 Na  Na3  1  0.25000  0.62949  0.37051  1
 Na  Na4  1  0.75000  0.37051  0.62949  1
