CIF file written using JARVIS-Tools package.
data_Li2CrPCO7
_symmetry_space_group_name_H-M  'P2_1'
_cell_length_a       4.98308
_cell_length_b       6.31339
_cell_length_c       8.272
_cell_angle_alpha    90
_cell_angle_beta     96.2801
_cell_angle_gamma    90

_symmetry_Int_Tables_number  4
_chemical_formula_structural  Li2CrPCO7
_chemical_formula_sum  Li4Cr2P2C2O4
_cell_volume  258.6766905105577
_cell_formula_units_Z  2
loop_
  _symmetry_equiv_pos_site_id
 _symmetry_equiv_pos_as_xyz
 1  'x, y, z'
loop_
 _atom_site_type_symbol
 _atom_site_label
 _atom_site_symmetry_multiplicity
 _atom_site_fract_x
 _atom_site_fract_y
 _atom_site_fract_z
 _atom_site_fract_occupancy
 C  C1  1  0.67428  0.75177  0.95439  1
 C  C2  1  0.32572  0.25177  0.04561  1
 Cr  Cr1  1  0.79642  0.75268  0.67702  1
 Cr  Cr2  1  0.20358  0.25268  0.32298  1
 Li  Li1  1  0.79053  0.24422  0.89970  1
 Li  Li2  1  0.26362  0.46429  0.72194  1
 Li  Li3  1  0.73638  0.96429  0.27806  1
 Li  Li4  1  0.20947  0.74422  0.10030  1
 O  O1  1  0.92807  0.75490  0.92357  1
 O  O2  1  0.59915  0.77933  0.09342  1
 O  O3  1  0.50493  0.72384  0.82376  1
 O  O4  1  0.79176  0.06050  0.69988  1
 O  O5  1  0.83913  0.43746  0.69367  1
 O  O6  1  0.40085  0.27933  0.90658  1
 O  O7  1  0.41987  0.27855  0.53908  1
 O  O8  1  0.16087  0.93746  0.30633  1
 O  O9  1  0.86563  0.23093  0.42653  1
 O  O10  1  0.20824  0.56050  0.30012  1
 O  O11  1  0.13437  0.73093  0.57347  1
 O  O12  1  0.49507  0.22384  0.17624  1
 O  O13  1  0.58013  0.77855  0.46092  1
 O  O14  1  0.07193  0.25490  0.07643  1
 P  P1  1  0.27024  0.74953  0.41767  1
 P  P2  1  0.72976  0.24953  0.58233  1
