CIF file written using JARVIS-Tools package.
data_LiB6H10O2
_symmetry_space_group_name_H-M  'C2/m'
_cell_length_a       6.99735
_cell_length_b       6.99735
_cell_length_c       7.23052
_cell_angle_alpha    68.0778
_cell_angle_beta     68.0778
_cell_angle_gamma    79.2736

_symmetry_Int_Tables_number  12
_chemical_formula_structural  LiB6H10O2
_chemical_formula_sum  Li2B2H20O4
_cell_volume  304.23070436819154
_cell_formula_units_Z  2
loop_
  _symmetry_equiv_pos_site_id
 _symmetry_equiv_pos_as_xyz
 1  'x, y, z'
loop_
 _atom_site_type_symbol
 _atom_site_label
 _atom_site_symmetry_multiplicity
 _atom_site_fract_x
 _atom_site_fract_y
 _atom_site_fract_z
 _atom_site_fract_occupancy
 B  B1  1  0.99715  0.79829  0.22120  1
 B  B2  1  0.79829  0.99715  0.22120  1
 B  B3  1  0.94927  0.94927  0.81060  1
 B  B4  1  0.82387  0.82387  0.08416  1
 B  B5  1  0.17613  0.17613  0.91584  1
 B  B6  1  0.09099  0.76869  0.96831  1
 B  B7  1  0.05073  0.05073  0.18940  1
 B  B8  1  0.90901  0.23131  0.03169  1
 B  B9  1  0.76869  0.09099  0.96831  1
 B  B10  1  0.20171  0.00285  0.77880  1
 B  B11  1  0.00285  0.20171  0.77880  1
 B  B12  1  0.23131  0.90901  0.03169  1
 H  H1  1  0.00743  0.34589  0.62082  1
 H  H2  1  0.65411  0.99257  0.37918  1
 H  H3  1  0.45348  0.27814  0.16912  1
 H  H4  1  0.30177  0.30177  0.85457  1
 H  H5  1  0.27814  0.45348  0.16912  1
 H  H6  1  0.72186  0.54652  0.83088  1
 H  H7  1  0.75758  0.30096  0.37698  1
 H  H8  1  0.54652  0.72186  0.83088  1
 H  H9  1  0.99257  0.65411  0.37918  1
 H  H10  1  0.08709  0.08709  0.32209  1
 H  H11  1  0.39632  0.84460  0.05368  1
 H  H12  1  0.15540  0.60368  0.94632  1
 H  H13  1  0.30096  0.75758  0.37698  1
 H  H14  1  0.69823  0.69823  0.14543  1
 H  H15  1  0.91291  0.91291  0.67791  1
 H  H16  1  0.69904  0.24242  0.62302  1
 H  H17  1  0.60368  0.15540  0.94632  1
 H  H18  1  0.34589  0.00743  0.62082  1
 H  H19  1  0.84460  0.39632  0.05368  1
 H  H20  1  0.24242  0.69904  0.62302  1
 Li  Li1  1  0.36168  0.36168  0.51657  1
 Li  Li2  1  0.63832  0.63832  0.48343  1
 O  O1  1  0.37602  0.37602  0.24221  1
 O  O2  1  0.33791  0.66209  0.50000  1
 O  O3  1  0.66209  0.33791  0.50000  1
 O  O4  1  0.62398  0.62398  0.75779  1
