CIF file written using JARVIS-Tools package.
data_MnV2O4
_symmetry_space_group_name_H-M  'Fd-3m'
_cell_length_a       6.02485
_cell_length_b       6.02355
_cell_length_c       6.02626
_cell_angle_alpha    59.9961
_cell_angle_beta     59.9785
_cell_angle_gamma    60.0221

_symmetry_Int_Tables_number  227
_chemical_formula_structural  MnV2O4
_chemical_formula_sum  Mn2V4O8
_cell_volume  154.63916634067476
_cell_formula_units_Z  2
loop_
  _symmetry_equiv_pos_site_id
 _symmetry_equiv_pos_as_xyz
 1  'x, y, z'
loop_
 _atom_site_type_symbol
 _atom_site_label
 _atom_site_symmetry_multiplicity
 _atom_site_fract_x
 _atom_site_fract_y
 _atom_site_fract_z
 _atom_site_fract_occupancy
 Mn  Mn1  1  0.12498  0.12503  0.12500  1
 Mn  Mn2  1  0.87501  0.87497  0.87500  1
 O  O1  1  0.71660  0.26134  0.26095  1
 O  O2  1  0.73889  0.73903  0.73867  1
 O  O3  1  0.26111  0.26096  0.26133  1
 O  O4  1  0.26096  0.26113  0.71659  1
 O  O5  1  0.73868  0.28338  0.73889  1
 O  O6  1  0.28340  0.73866  0.73905  1
 O  O7  1  0.73905  0.73887  0.28341  1
 O  O8  1  0.26132  0.71662  0.26111  1
 V  V1  1  0.50000  0.50000  0.00000  1
 V  V2  1  0.50000  0.00000  0.50000  1
 V  V3  1  0.50000  0.50000  0.50000  1
 V  V4  1  0.00000  0.50000  0.50000  1
