CIF file written using JARVIS-Tools package.
data_Li3AuO3
_symmetry_space_group_name_H-M  'P4_2/mnm'
_cell_length_a       9.17627
_cell_length_b       9.17627
_cell_length_c       3.5514
_cell_angle_alpha    90
_cell_angle_beta     90
_cell_angle_gamma    90

_symmetry_Int_Tables_number  136
_chemical_formula_structural  Li3AuO3
_chemical_formula_sum  Li2Au4O2
_cell_volume  299.04209269781484
_cell_formula_units_Z  4
loop_
  _symmetry_equiv_pos_site_id
 _symmetry_equiv_pos_as_xyz
 1  'x, y, z'
loop_
 _atom_site_type_symbol
 _atom_site_label
 _atom_site_symmetry_multiplicity
 _atom_site_fract_x
 _atom_site_fract_y
 _atom_site_fract_z
 _atom_site_fract_occupancy
 Au  Au1  1  0.88146  0.11854  0.50000  1
 Au  Au2  1  0.38146  0.38146  0.00000  1
 Au  Au3  1  0.61854  0.61854  0.00000  1
 Au  Au4  1  0.11854  0.88146  0.50000  1
 Li  Li1  1  0.33264  0.66736  0.50000  1
 Li  Li2  1  0.66736  0.33264  0.50000  1
 Li  Li3  1  0.83264  0.83264  0.00000  1
 Li  Li4  1  0.16736  0.16736  0.00000  1
 Li  Li5  1  0.14058  0.59040  0.00000  1
 Li  Li6  1  0.59040  0.14058  0.00000  1
 Li  Li7  1  0.35942  0.09040  0.50000  1
 Li  Li8  1  0.64058  0.90960  0.50000  1
 Li  Li9  1  0.90960  0.64058  0.50000  1
 Li  Li10  1  0.09040  0.35942  0.50000  1
 Li  Li11  1  0.85942  0.40960  0.00000  1
 Li  Li12  1  0.40960  0.85942  0.00000  1
 O  O1  1  0.39329  0.60671  0.00000  1
 O  O2  1  0.60671  0.39329  0.00000  1
 O  O3  1  0.83761  0.61954  0.00000  1
 O  O4  1  0.16239  0.38046  0.00000  1
 O  O5  1  0.11954  0.66239  0.50000  1
 O  O6  1  0.66239  0.11954  0.50000  1
 O  O7  1  0.33761  0.88046  0.50000  1
 O  O8  1  0.61954  0.83761  0.00000  1
 O  O9  1  0.38046  0.16239  0.00000  1
 O  O10  1  0.89329  0.89329  0.50000  1
 O  O11  1  0.88046  0.33761  0.50000  1
 O  O12  1  0.10671  0.10671  0.50000  1
