CIF file written using JARVIS-Tools package.
data_AgPO3
_symmetry_space_group_name_H-M  'P2_1/c'
_cell_length_a       5.85113
_cell_length_b       4.34448
_cell_length_c       11.2693
_cell_angle_alpha    90
_cell_angle_beta     109.807
_cell_angle_gamma    90

_symmetry_Int_Tables_number  14
_chemical_formula_structural  AgPO3
_chemical_formula_sum  Ag4P4O2
_cell_volume  269.5194065941595
_cell_formula_units_Z  4
loop_
  _symmetry_equiv_pos_site_id
 _symmetry_equiv_pos_as_xyz
 1  'x, y, z'
loop_
 _atom_site_type_symbol
 _atom_site_label
 _atom_site_symmetry_multiplicity
 _atom_site_fract_x
 _atom_site_fract_y
 _atom_site_fract_z
 _atom_site_fract_occupancy
 Ag  Ag1  1  0.33550  0.86981  0.07523  1
 Ag  Ag2  1  0.66450  0.36981  0.42477  1
 Ag  Ag3  1  0.33550  0.63019  0.57523  1
 Ag  Ag4  1  0.66450  0.13019  0.92477  1
 O  O1  1  0.88714  0.77618  0.05516  1
 O  O2  1  0.38644  0.49167  0.83304  1
 O  O3  1  0.06102  0.37114  0.21268  1
 O  O4  1  0.93898  0.87114  0.28732  1
 O  O5  1  0.61356  0.50833  0.16696  1
 O  O6  1  0.11286  0.27618  0.44484  1
 O  O7  1  0.88714  0.72382  0.55516  1
 O  O8  1  0.06102  0.12886  0.71268  1
 O  O9  1  0.38644  0.00833  0.33304  1
 O  O10  1  0.93898  0.62886  0.78732  1
 O  O11  1  0.61356  -0.00833  0.66696  1
 O  O12  1  0.11286  0.22382  0.94484  1
 P  P1  1  0.14405  0.36657  0.82989  1
 P  P2  1  0.85595  0.86657  0.67011  1
 P  P3  1  0.14405  0.13343  0.32989  1
 P  P4  1  0.85595  0.63343  0.17011  1
