CIF file written using JARVIS-Tools package.
data_Li2FeO2F
_symmetry_space_group_name_H-M  'C2/c'
_cell_length_a       5.06877
_cell_length_b       4.9325
_cell_length_c       9.56407
_cell_angle_alpha    86.1475
_cell_angle_beta     97.5138
_cell_angle_gamma    120.918

_symmetry_Int_Tables_number  15
_chemical_formula_structural  Li2FeO2F
_chemical_formula_sum  Li8Fe4O8F4
_cell_volume  203.37837080175524
_cell_formula_units_Z  4
loop_
  _symmetry_equiv_pos_site_id
 _symmetry_equiv_pos_as_xyz
 1  'x, y, z'
loop_
 _atom_site_type_symbol
 _atom_site_label
 _atom_site_symmetry_multiplicity
 _atom_site_fract_x
 _atom_site_fract_y
 _atom_site_fract_z
 _atom_site_fract_occupancy
 F  F1  1  0.85227  0.49661  0.61588  1
 F  F2  1  0.14773  0.50339  0.38412  1
 F  F3  1  0.35566  0.50339  0.11588  1
 F  F4  1  0.64434  0.49661  0.88412  1
 Fe  Fe1  1  0.24903  0.49807  0.75000  1
 Fe  Fe2  1  0.75097  0.50193  0.25000  1
 Fe  Fe3  1  0.57478  0.14956  0.75000  1
 Fe  Fe4  1  0.42522  0.85044  0.25000  1
 Li  Li1  1  0.92587  0.85174  0.75000  1
 Li  Li2  1  0.31858  0.13463  0.00300  1
 Li  Li3  1  0.50000  0.50000  0.50000  1
 Li  Li4  1  0.68142  0.86537  -0.00300  1
 Li  Li5  1  0.07413  0.14826  0.25000  1
 Li  Li6  1  0.00000  0.50000  -0.00000  1
 Li  Li7  1  0.81604  0.13463  0.49700  1
 Li  Li8  1  0.18396  0.86537  0.50300  1
 O  O1  1  0.05473  0.81336  0.14144  1
 O  O2  1  0.30483  0.82916  0.86355  1
 O  O3  1  0.52434  0.82916  0.63645  1
 O  O4  1  0.24137  0.18664  0.64144  1
 O  O5  1  0.75863  0.81336  0.35856  1
 O  O6  1  0.47566  0.17084  0.36355  1
 O  O7  1  0.69517  0.17084  0.13645  1
 O  O8  1  0.94527  0.18664  0.85856  1
