CIF file written using JARVIS-Tools package.
data_DyInRh
_symmetry_space_group_name_H-M  'P-62m'
_cell_length_a       7.52379
_cell_length_b       7.52379
_cell_length_c       3.8885
_cell_angle_alpha    90
_cell_angle_beta     90
_cell_angle_gamma    120

_symmetry_Int_Tables_number  189
_chemical_formula_structural  DyInRh
_chemical_formula_sum  Dy3In3Rh3
_cell_volume  190.62768264168838
_cell_formula_units_Z  3
loop_
  _symmetry_equiv_pos_site_id
 _symmetry_equiv_pos_as_xyz
 1  'x, y, z'
loop_
 _atom_site_type_symbol
 _atom_site_label
 _atom_site_symmetry_multiplicity
 _atom_site_fract_x
 _atom_site_fract_y
 _atom_site_fract_z
 _atom_site_fract_occupancy
 Dy  Dy1  1  -0.00000  0.59447  0.50000  1
 Dy  Dy2  1  0.59447  -0.00000  0.50000  1
 Dy  Dy3  1  0.40553  0.40553  0.50000  1
 In  In1  1  -0.00000  0.25887  0.00000  1
 In  In2  1  0.25887  -0.00000  0.00000  1
 In  In3  1  0.74113  0.74113  0.00000  1
 Rh  Rh1  1  0.00000  0.00000  0.50000  1
 Rh  Rh2  1  0.66667  0.33333  0.00000  1
 Rh  Rh3  1  0.33333  0.66667  0.00000  1
