CIF file written using JARVIS-Tools package.
data_BeGaAg
_symmetry_space_group_name_H-M  'I4mm'
_cell_length_a       6.01489
_cell_length_b       6.01489
_cell_length_c       6.01489
_cell_angle_alpha    153.417
_cell_angle_beta     153.417
_cell_angle_gamma    37.9474

_symmetry_Int_Tables_number  107
_chemical_formula_structural  BeGaAg
_chemical_formula_sum  BeGaAg
_cell_volume  43.50890514707659
_cell_formula_units_Z  1
loop_
  _symmetry_equiv_pos_site_id
 _symmetry_equiv_pos_as_xyz
 1  'x, y, z'
loop_
 _atom_site_type_symbol
 _atom_site_label
 _atom_site_symmetry_multiplicity
 _atom_site_fract_x
 _atom_site_fract_y
 _atom_site_fract_z
 _atom_site_fract_occupancy
 Ag  Ag1  1  0.97952  0.97952  0.00000  1
 Be  Be1  1  0.33249  0.33249  0.00000  1
 Ga  Ga1  1  0.68799  0.68799  0.00000  1
