CIF file written using JARVIS-Tools package.
data_SN
_symmetry_space_group_name_H-M  'P2_1/c'
_cell_length_a       4.40604
_cell_length_b       3.7639
_cell_length_c       8.28459
_cell_angle_alpha    90
_cell_angle_beta     106.029
_cell_angle_gamma    90

_symmetry_Int_Tables_number  14
_chemical_formula_structural  SN
_chemical_formula_sum  S4N4
_cell_volume  132.0493139935079
_cell_formula_units_Z  4
loop_
  _symmetry_equiv_pos_site_id
 _symmetry_equiv_pos_as_xyz
 1  'x, y, z'
loop_
 _atom_site_type_symbol
 _atom_site_label
 _atom_site_symmetry_multiplicity
 _atom_site_fract_x
 _atom_site_fract_y
 _atom_site_fract_z
 _atom_site_fract_occupancy
 N  N1  1  0.82277  0.55494  0.57751  1
 N  N2  1  0.17723  0.05494  0.92249  1
 N  N3  1  0.17723  0.44506  0.42249  1
 N  N4  1  0.82277  0.94506  0.07751  1
 S  S1  1  0.20633  0.62646  0.60756  1
 S  S2  1  0.79367  0.12646  0.89244  1
 S  S3  1  0.79367  0.37354  0.39244  1
 S  S4  1  0.20633  0.87354  0.10756  1
