CIF file written using JARVIS-Tools package.
data_MgSiO3
_symmetry_space_group_name_H-M  'Pbcn'
_cell_length_a       5.36175
_cell_length_b       8.7711
_cell_length_c       9.34158
_cell_angle_alpha    90
_cell_angle_beta     90
_cell_angle_gamma    90

_symmetry_Int_Tables_number  60
_chemical_formula_structural  MgSiO3
_chemical_formula_sum  Mg8Si8O24
_cell_volume  439.3202626591656
_cell_formula_units_Z  8
loop_
  _symmetry_equiv_pos_site_id
 _symmetry_equiv_pos_as_xyz
 1  'x, y, z'
loop_
 _atom_site_type_symbol
 _atom_site_label
 _atom_site_symmetry_multiplicity
 _atom_site_fract_x
 _atom_site_fract_y
 _atom_site_fract_z
 _atom_site_fract_occupancy
 Mg  Mg1  1  0.25000  0.26313  0.00000  1
 Mg  Mg2  1  0.25000  0.90437  0.00000  1
 Mg  Mg3  1  0.25000  0.76313  0.50000  1
 Mg  Mg4  1  0.75000  0.59563  0.50000  1
 Mg  Mg5  1  0.75000  0.73687  0.00000  1
 Mg  Mg6  1  0.75000  0.09563  0.00000  1
 Mg  Mg7  1  0.75000  0.23687  0.50000  1
 Mg  Mg8  1  0.25000  0.40437  0.50000  1
 O  O1  1  0.21152  0.47378  0.84996  1
 O  O2  1  0.42135  0.59400  0.61780  1
 O  O3  1  0.42135  0.09400  0.88220  1
 O  O4  1  0.56989  0.24920  0.12263  1
 O  O5  1  0.43011  0.25080  0.62263  1
 O  O6  1  0.06989  0.75080  0.12263  1
 O  O7  1  0.43011  0.75080  0.87737  1
 O  O8  1  0.57865  0.40600  0.38220  1
 O  O9  1  0.28848  -0.02622  0.34996  1
 O  O10  1  0.21152  -0.02622  0.65004  1
 O  O11  1  0.06989  0.25080  0.37737  1
 O  O12  1  0.07865  0.09400  0.11780  1
 O  O13  1  0.28848  0.47378  0.15004  1
 O  O14  1  0.56989  0.74920  0.37737  1
 O  O15  1  0.71152  0.02622  0.65004  1
 O  O16  1  0.92135  0.40600  0.61780  1
 O  O17  1  0.57865  0.90600  0.11780  1
 O  O18  1  0.92135  0.90600  0.88220  1
 O  O19  1  0.93011  0.24920  0.87737  1
 O  O20  1  0.78848  0.52622  0.15004  1
 O  O21  1  0.71152  0.52622  0.84996  1
 O  O22  1  0.07865  0.59400  0.38220  1
 O  O23  1  0.78848  0.02622  0.34996  1
 O  O24  1  0.93011  0.74920  0.62263  1
 Si  Si1  1  0.93361  0.40838  0.79223  1
 Si  Si2  1  0.43361  0.59162  0.79223  1
 Si  Si3  1  0.43361  0.09162  0.70777  1
 Si  Si4  1  0.06639  0.59162  0.20777  1
 Si  Si5  1  0.93361  0.90838  0.70777  1
 Si  Si6  1  0.06639  0.09162  0.29223  1
 Si  Si7  1  0.56639  0.90838  0.29223  1
 Si  Si8  1  0.56639  0.40838  0.20777  1
