CIF file written using JARVIS-Tools package.
data_P2WO8
_symmetry_space_group_name_H-M  'C2/m'
_cell_length_a       5.19592
_cell_length_b       6.96676
_cell_length_c       8.17728
_cell_angle_alpha    101.933
_cell_angle_beta     108.524
_cell_angle_gamma    90

_symmetry_Int_Tables_number  12
_chemical_formula_structural  P2WO8
_chemical_formula_sum  P4W2O6
_cell_volume  273.9166215438352
_cell_formula_units_Z  2
loop_
  _symmetry_equiv_pos_site_id
 _symmetry_equiv_pos_as_xyz
 1  'x, y, z'
loop_
 _atom_site_type_symbol
 _atom_site_label
 _atom_site_symmetry_multiplicity
 _atom_site_fract_x
 _atom_site_fract_y
 _atom_site_fract_z
 _atom_site_fract_occupancy
 O  O1  1  0.01309  0.75404  0.02618  1
 O  O2  1  0.37648  0.10779  0.22215  1
 O  O3  1  0.15433  0.89221  0.77785  1
 O  O4  1  0.37325  0.18755  0.74650  1
 O  O5  1  0.84567  0.10779  0.22215  1
 O  O6  1  0.62250  0.49879  0.77097  1
 O  O7  1  0.14847  0.49879  0.77097  1
 O  O8  1  0.37750  0.50121  0.22903  1
 O  O9  1  0.62352  0.89221  0.77785  1
 O  O10  1  0.75905  0.11895  0.51809  1
 O  O11  1  -0.01309  0.24596  -0.02618  1
 O  O12  1  0.24240  0.35939  0.48480  1
 O  O13  1  0.75760  0.64061  0.51520  1
 O  O14  1  0.85153  0.50121  0.22903  1
 O  O15  1  0.24095  0.88105  0.48191  1
 O  O16  1  0.62675  0.81245  0.25350  1
 P  P1  1  0.33735  0.95363  0.67470  1
 P  P2  1  0.34054  0.38628  0.68108  1
 P  P3  1  0.66265  0.04637  0.32530  1
 P  P4  1  0.65946  0.61372  0.31892  1
 W  W1  1  0.09977  0.29442  0.19954  1
 W  W2  1  0.90023  0.70558  0.80046  1
