CIF file written using JARVIS-Tools package.
data_UMnB4
_symmetry_space_group_name_H-M  'Pbam'
_cell_length_a       3.45692
_cell_length_b       5.84137
_cell_length_c       11.3226
_cell_angle_alpha    90
_cell_angle_beta     90
_cell_angle_gamma    90

_symmetry_Int_Tables_number  55
_chemical_formula_structural  UMnB4
_chemical_formula_sum  U4Mn4B6
_cell_volume  228.63879123630653
_cell_formula_units_Z  4
loop_
  _symmetry_equiv_pos_site_id
 _symmetry_equiv_pos_as_xyz
 1  'x, y, z'
loop_
 _atom_site_type_symbol
 _atom_site_label
 _atom_site_symmetry_multiplicity
 _atom_site_fract_x
 _atom_site_fract_y
 _atom_site_fract_z
 _atom_site_fract_occupancy
 B  B1  1  0.50000  0.11317  0.45421  1
 B  B2  1  0.50000  0.28412  0.68694  1
 B  B3  1  0.50000  0.71588  0.31306  1
 B  B4  1  0.50000  0.21588  0.18694  1
 B  B5  1  0.50000  0.02627  0.30876  1
 B  B6  1  0.50000  0.36426  0.53321  1
 B  B7  1  0.50000  0.63574  0.46679  1
 B  B8  1  0.50000  0.78412  0.81306  1
 B  B9  1  0.50000  0.86426  0.96679  1
 B  B10  1  0.50000  0.38683  0.95421  1
 B  B11  1  0.50000  0.61317  0.04579  1
 B  B12  1  0.50000  0.97373  0.69124  1
 B  B13  1  0.50000  0.88683  0.54579  1
 B  B14  1  0.50000  0.47373  0.80876  1
 B  B15  1  0.50000  0.52627  0.19124  1
 B  B16  1  0.50000  0.13574  0.03321  1
 Mn  Mn1  1  0.00000  0.63560  0.90874  1
 Mn  Mn2  1  0.00000  0.36440  0.09126  1
 Mn  Mn3  1  0.00000  0.86440  0.40874  1
 Mn  Mn4  1  0.00000  0.13560  0.59126  1
 U  U1  1  0.00000  0.62661  0.65046  1
 U  U2  1  0.00000  0.37339  0.34954  1
 U  U3  1  0.00000  0.87339  0.15046  1
 U  U4  1  0.00000  0.12661  0.84954  1
