CIF file written using JARVIS-Tools package.
data_SmSnAu
_symmetry_space_group_name_H-M  'P6_3mc'
_cell_length_a       4.73956
_cell_length_b       4.73956
_cell_length_c       7.56811
_cell_angle_alpha    90
_cell_angle_beta     90
_cell_angle_gamma    119.999

_symmetry_Int_Tables_number  186
_chemical_formula_structural  SmSnAu
_chemical_formula_sum  Sm2Sn2Au2
_cell_volume  147.2304950172434
_cell_formula_units_Z  2
loop_
  _symmetry_equiv_pos_site_id
 _symmetry_equiv_pos_as_xyz
 1  'x, y, z'
loop_
 _atom_site_type_symbol
 _atom_site_label
 _atom_site_symmetry_multiplicity
 _atom_site_fract_x
 _atom_site_fract_y
 _atom_site_fract_z
 _atom_site_fract_occupancy
 Au  Au1  1  0.66667  0.33333  0.79683  1
 Au  Au2  1  0.33333  0.66667  0.29683  1
 Sm  Sm1  1  0.99999  0.00001  0.97398  1
 Sm  Sm2  1  0.00001  0.99999  0.47398  1
 Sn  Sn1  1  0.66667  0.33333  0.19919  1
 Sn  Sn2  1  0.33333  0.66667  0.69919  1
