CIF file written using JARVIS-Tools package.
data_AuCl2
_symmetry_space_group_name_H-M  'P-1'
_cell_length_a       6.76988
_cell_length_b       6.707
_cell_length_c       7.10898
_cell_angle_alpha    86.2842
_cell_angle_beta     71.8735
_cell_angle_gamma    83.3184

_symmetry_Int_Tables_number  2
_chemical_formula_structural  AuCl2
_chemical_formula_sum  Au4Cl8
_cell_volume  304.54459865158947
_cell_formula_units_Z  4
loop_
  _symmetry_equiv_pos_site_id
 _symmetry_equiv_pos_as_xyz
 1  'x, y, z'
loop_
 _atom_site_type_symbol
 _atom_site_label
 _atom_site_symmetry_multiplicity
 _atom_site_fract_x
 _atom_site_fract_y
 _atom_site_fract_z
 _atom_site_fract_occupancy
 Au  Au1  1  0.73596  0.51664  0.46867  1
 Au  Au2  1  0.26404  0.48336  0.53133  1
 Au  Au3  1  0.63800  0.23416  0.08852  1
 Au  Au4  1  0.36200  0.76584  0.91148  1
 Cl  Cl1  1  0.85162  0.21936  0.29899  1
 Cl  Cl2  1  0.14838  0.78064  0.70101  1
 Cl  Cl3  1  0.34314  0.18119  0.37199  1
 Cl  Cl4  1  0.65686  0.81881  0.62801  1
 Cl  Cl5  1  0.42702  0.25842  0.88550  1
 Cl  Cl6  1  0.57298  0.74158  0.11450  1
 Cl  Cl7  1  0.92503  0.28769  0.81732  1
 Cl  Cl8  1  0.07497  0.71231  0.18268  1
