CIF file written using JARVIS-Tools package.
data_NaBeV
_symmetry_space_group_name_H-M  'I4mm'
_cell_length_a       6.81079
_cell_length_b       6.81079
_cell_length_c       6.81079
_cell_angle_alpha    157.446
_cell_angle_beta     157.446
_cell_angle_gamma    32.1097

_symmetry_Int_Tables_number  107
_chemical_formula_structural  NaBeV
_chemical_formula_sum  NaBeV
_cell_volume  46.4428296322675
_cell_formula_units_Z  1
loop_
  _symmetry_equiv_pos_site_id
 _symmetry_equiv_pos_as_xyz
 1  'x, y, z'
loop_
 _atom_site_type_symbol
 _atom_site_label
 _atom_site_symmetry_multiplicity
 _atom_site_fract_x
 _atom_site_fract_y
 _atom_site_fract_z
 _atom_site_fract_occupancy
 Be  Be1  1  0.02348  0.02348  0.00000  1
 Na  Na1  1  0.34220  0.34220  0.00000  1
 V  V1  1  0.63432  0.63432  0.00000  1
