CIF file written using JARVIS-Tools package.
data_Er3Sb4Au3
_symmetry_space_group_name_H-M  'I-43d'
_cell_length_a       8.54992
_cell_length_b       8.54992
_cell_length_c       8.54992
_cell_angle_alpha    109.471
_cell_angle_beta     109.471
_cell_angle_gamma    109.471

_symmetry_Int_Tables_number  220
_chemical_formula_structural  Er3Sb4Au3
_chemical_formula_sum  Er6Sb8Au6
_cell_volume  481.13348155524886
_cell_formula_units_Z  2
loop_
  _symmetry_equiv_pos_site_id
 _symmetry_equiv_pos_as_xyz
 1  'x, y, z'
loop_
 _atom_site_type_symbol
 _atom_site_label
 _atom_site_symmetry_multiplicity
 _atom_site_fract_x
 _atom_site_fract_y
 _atom_site_fract_z
 _atom_site_fract_occupancy
 Au  Au1  1  0.87500  0.62500  0.75000  1
 Au  Au2  1  0.12500  0.25000  0.87500  1
 Au  Au3  1  0.37500  0.75000  0.62500  1
 Au  Au4  1  0.25000  0.12500  0.37500  1
 Au  Au5  1  0.75000  0.37500  0.12500  1
 Au  Au6  1  0.62500  0.87500  0.25000  1
 Er  Er1  1  0.87500  0.75000  0.12500  1
 Er  Er2  1  0.75000  0.87500  0.62500  1
 Er  Er3  1  0.25000  0.62500  0.87500  1
 Er  Er4  1  0.62500  0.25000  0.37500  1
 Er  Er5  1  0.12500  0.37500  0.25000  1
 Er  Er6  1  0.37500  0.12500  0.75000  1
 Sb  Sb1  1  0.68231  0.00000  0.00000  1
 Sb  Sb2  1  -0.00000  0.68231  0.50000  1
 Sb  Sb3  1  0.31769  0.81769  0.31769  1
 Sb  Sb4  1  0.18231  -0.00000  -0.00000  1
 Sb  Sb5  1  0.50000  0.50000  0.68231  1
 Sb  Sb6  1  0.00000  0.18231  0.50000  1
 Sb  Sb7  1  0.81769  0.31769  0.81769  1
 Sb  Sb8  1  0.50000  0.50000  0.18231  1
