CIF file written using JARVIS-Tools package.
data_BeTlIn
_symmetry_space_group_name_H-M  'I4mm'
_cell_length_a       6.70832
_cell_length_b       6.70832
_cell_length_c       6.70832
_cell_angle_alpha    151.998
_cell_angle_beta     151.998
_cell_angle_gamma    40.0159

_symmetry_Int_Tables_number  107
_chemical_formula_structural  BeTlIn
_chemical_formula_sum  BeTlIn
_cell_volume  66.41519800438272
_cell_formula_units_Z  1
loop_
  _symmetry_equiv_pos_site_id
 _symmetry_equiv_pos_as_xyz
 1  'x, y, z'
loop_
 _atom_site_type_symbol
 _atom_site_label
 _atom_site_symmetry_multiplicity
 _atom_site_fract_x
 _atom_site_fract_y
 _atom_site_fract_z
 _atom_site_fract_occupancy
 Be  Be1  1  0.98669  0.98669  0.00000  1
 In  In1  1  0.36589  0.36589  0.00000  1
 Tl  Tl1  1  0.64742  0.64742  -0.00000  1
