CIF file written using JARVIS-Tools package.
data_Li5Fe7O3F13
_symmetry_space_group_name_H-M  'P1'
_cell_length_a       6.05676
_cell_length_b       5.99914
_cell_length_c       10.3147
_cell_angle_alpha    90.6439
_cell_angle_beta     106.814
_cell_angle_gamma    118.103

_symmetry_Int_Tables_number  1
_chemical_formula_structural  Li5Fe7O3F13
_chemical_formula_sum  Li5Fe7O3F3
_cell_volume  311.59892666229035
_cell_formula_units_Z  1
loop_
  _symmetry_equiv_pos_site_id
 _symmetry_equiv_pos_as_xyz
 1  'x, y, z'
loop_
 _atom_site_type_symbol
 _atom_site_label
 _atom_site_symmetry_multiplicity
 _atom_site_fract_x
 _atom_site_fract_y
 _atom_site_fract_z
 _atom_site_fract_occupancy
 F  F1  1  0.27598  0.65406  0.87282  1
 F  F2  1  0.23525  0.61060  0.37222  1
 F  F3  1  0.75043  0.87108  0.13326  1
 F  F4  1  0.73249  0.09307  0.37416  1
 F  F5  1  0.70046  0.59221  0.37506  1
 F  F6  1  0.72270  0.11106  0.86572  1
 F  F7  1  0.77013  0.86880  0.63145  1
 F  F8  1  0.23785  0.36797  0.13357  1
 F  F9  1  0.23853  0.13458  0.36853  1
 F  F10  1  0.78681  0.64764  0.86693  1
 F  F11  1  0.77248  0.39781  0.63282  1
 F  F12  1  0.26497  0.12614  0.86890  1
 F  F13  1  0.26524  0.88710  0.63039  1
 Fe  Fe1  1  0.95870  0.24789  0.24540  1
 Fe  Fe2  1  0.49128  0.28199  0.73281  1
 Fe  Fe3  1  0.48765  0.71101  0.73126  1
 Fe  Fe4  1  0.51544  0.02040  0.01336  1
 Fe  Fe5  1  0.93241  0.69737  0.07517  1
 Fe  Fe6  1  0.51293  0.24088  0.24175  1
 Fe  Fe7  1  0.48263  0.49187  0.52172  1
 Li  Li1  1  0.47478  0.73181  0.25841  1
 Li  Li2  1  0.12376  0.31944  0.93019  1
 Li  Li3  1  0.03017  0.76816  0.74551  1
 Li  Li4  1  0.09535  0.80672  0.43651  1
 Li  Li5  1  0.87040  0.17925  0.56615  1
 O  O1  1  0.22960  0.36837  0.62103  1
 O  O2  1  0.74252  0.37915  0.12158  1
 O  O3  1  0.29906  0.89357  0.13333  1
