CIF file written using JARVIS-Tools package.
data_Ge
_symmetry_space_group_name_H-M  'P6_3/mmc'
_cell_length_a       4.06252
_cell_length_b       4.06252
_cell_length_c       13.3445
_cell_angle_alpha    90
_cell_angle_beta     90
_cell_angle_gamma    120.001

_symmetry_Int_Tables_number  194
_chemical_formula_structural  Ge
_chemical_formula_sum  Ge8
_cell_volume  190.73025392893456
_cell_formula_units_Z  8
loop_
  _symmetry_equiv_pos_site_id
 _symmetry_equiv_pos_as_xyz
 1  'x, y, z'
loop_
 _atom_site_type_symbol
 _atom_site_label
 _atom_site_symmetry_multiplicity
 _atom_site_fract_x
 _atom_site_fract_y
 _atom_site_fract_z
 _atom_site_fract_occupancy
 Ge  Ge1  1  0.00001  0.99999  0.59309  1
 Ge  Ge2  1  0.99999  0.00001  0.40691  1
 Ge  Ge3  1  0.99999  0.00001  0.09309  1
 Ge  Ge4  1  0.00001  0.99999  0.90691  1
 Ge  Ge5  1  0.66668  0.33332  0.65582  1
 Ge  Ge6  1  0.33332  0.66668  0.34418  1
 Ge  Ge7  1  0.33332  0.66668  0.15582  1
 Ge  Ge8  1  0.66668  0.33332  0.84418  1
