CIF file written using JARVIS-Tools package.
data_Zr2CoP
_symmetry_space_group_name_H-M  'P2_1/m'
_cell_length_a       5.26439
_cell_length_b       3.65836
_cell_length_c       7.434
_cell_angle_alpha    90
_cell_angle_beta     110.391
_cell_angle_gamma    90

_symmetry_Int_Tables_number  11
_chemical_formula_structural  Zr2CoP
_chemical_formula_sum  Zr4Co2P2
_cell_volume  134.19989073092432
_cell_formula_units_Z  2
loop_
  _symmetry_equiv_pos_site_id
 _symmetry_equiv_pos_as_xyz
 1  'x, y, z'
loop_
 _atom_site_type_symbol
 _atom_site_label
 _atom_site_symmetry_multiplicity
 _atom_site_fract_x
 _atom_site_fract_y
 _atom_site_fract_z
 _atom_site_fract_occupancy
 Co  Co1  1  0.35649  0.75000  0.70808  1
 Co  Co2  1  0.64351  0.25000  0.29192  1
 P  P1  1  0.86041  0.75000  0.20923  1
 P  P2  1  0.13959  0.25000  0.79077  1
 Zr  Zr1  1  0.77380  0.75000  0.56326  1
 Zr  Zr2  1  0.22620  0.25000  0.43674  1
 Zr  Zr3  1  0.29415  0.75000  0.08155  1
 Zr  Zr4  1  0.70585  0.25000  0.91845  1
