CIF file written using JARVIS-Tools package.
data_Sr2CuB2O6
_symmetry_space_group_name_H-M  'P2_1/c'
_cell_length_a       5.74615
_cell_length_b       8.89064
_cell_length_c       6.0204
_cell_angle_alpha    90
_cell_angle_beta     116.501
_cell_angle_gamma    90

_symmetry_Int_Tables_number  14
_chemical_formula_structural  Sr2CuB2O6
_chemical_formula_sum  Sr4Cu2B4O2
_cell_volume  275.2479165242975
_cell_formula_units_Z  2
loop_
  _symmetry_equiv_pos_site_id
 _symmetry_equiv_pos_as_xyz
 1  'x, y, z'
loop_
 _atom_site_type_symbol
 _atom_site_label
 _atom_site_symmetry_multiplicity
 _atom_site_fract_x
 _atom_site_fract_y
 _atom_site_fract_z
 _atom_site_fract_occupancy
 B  B1  1  0.80098  0.74798  0.66079  1
 B  B2  1  0.19902  0.24798  0.83921  1
 B  B3  1  0.19902  0.25202  0.33921  1
 B  B4  1  0.80098  0.75202  0.16079  1
 Cu  Cu1  1  0.00000  0.00000  0.00000  1
 Cu  Cu2  1  -0.00000  0.50000  0.50000  1
 O  O1  1  0.41362  0.16348  0.88356  1
 O  O2  1  0.41362  0.33652  0.38356  1
 O  O3  1  0.20841  0.09430  0.32105  1
 O  O4  1  0.20841  0.40570  0.82105  1
 O  O5  1  0.79159  0.90570  0.67895  1
 O  O6  1  0.79159  0.59430  0.17895  1
 O  O7  1  0.96508  0.31322  0.31196  1
 O  O8  1  0.58638  0.83652  0.11644  1
 O  O9  1  0.03492  0.68678  0.68804  1
 O  O10  1  0.58638  0.66348  0.61644  1
 O  O11  1  0.03492  0.81322  0.18804  1
 O  O12  1  0.96508  0.18678  0.81196  1
 Sr  Sr1  1  0.32724  0.60429  0.16202  1
 Sr  Sr2  1  0.67276  0.10429  0.33798  1
 Sr  Sr3  1  0.67276  0.39571  0.83798  1
 Sr  Sr4  1  0.32724  0.89571  0.66202  1
