data_image0
_chemical_formula_structural       Al3Ge2NiY3
_chemical_formula_sum              "Al3 Ge2 Ni1 Y3"
_cell_length_a       6.95712
_cell_length_b       6.95711
_cell_length_c       4.18079
_cell_angle_alpha    90
_cell_angle_beta     90
_cell_angle_gamma    119.998

_space_group_name_H-M_alt    "P 1"
_space_group_IT_number       1

loop_
  _space_group_symop_operation_xyz
  'x, y, z'

loop_
  _atom_site_type_symbol
  _atom_site_label
  _atom_site_symmetry_multiplicity
  _atom_site_fract_x
  _atom_site_fract_y
  _atom_site_fract_z
  _atom_site_occupancy
  Al  Al1       1.0  0.22800  0.00000  0.50000  1.0000
  Al  Al2       1.0  0.00000  0.22800  0.50000  1.0000
  Al  Al3       1.0  0.77200  0.77200  0.50000  1.0000
  Ge  Ge1       1.0  0.66700  0.33300  0.50000  1.0000
  Ge  Ge2       1.0  0.33300  0.66700  0.50000  1.0000
  Ni  Ni1       1.0  0.00000  0.00000  0.00000  1.0000
  Y   Y1        1.0  0.59600  0.00002  0.00000  1.0000
  Y   Y2        1.0  0.40400  0.40400  0.00000  1.0000
  Y   Y3        1.0  0.00002  0.59600  0.00000  1.0000
