CIF file written using JARVIS-Tools package.
data_MnClO3
_symmetry_space_group_name_H-M  'Cmc2_1'
_cell_length_a       4.90366
_cell_length_b       6.10105
_cell_length_c       6.10086
_cell_angle_alpha    111.617
_cell_angle_beta     89.999
_cell_angle_gamma    90.0016

_symmetry_Int_Tables_number  36
_chemical_formula_structural  MnClO3
_chemical_formula_sum  Mn2Cl2O6
_cell_volume  169.68494608210287
_cell_formula_units_Z  2
loop_
  _symmetry_equiv_pos_site_id
 _symmetry_equiv_pos_as_xyz
 1  'x, y, z'
loop_
 _atom_site_type_symbol
 _atom_site_label
 _atom_site_symmetry_multiplicity
 _atom_site_fract_x
 _atom_site_fract_y
 _atom_site_fract_z
 _atom_site_fract_occupancy
 Cl  Cl1  1  0.28279  0.87089  0.12913  1
 Cl  Cl2  1  0.78278  0.12911  0.87088  1
 Mn  Mn1  1  0.40755  0.67265  0.32736  1
 Mn  Mn2  1  0.90756  0.32734  0.67264  1
 O  O1  1  0.29165  0.79364  0.58788  1
 O  O2  1  0.29165  0.41214  0.20634  1
 O  O3  1  0.79165  0.20636  0.41212  1
 O  O4  1  0.73216  0.67012  0.32989  1
 O  O5  1  0.79166  0.58786  0.79366  1
 O  O6  1  0.23216  0.32988  0.67010  1
