CIF file written using JARVIS-Tools package.
data_BiPd
_symmetry_space_group_name_H-M  'Cmc2_1'
_cell_length_a       5.74629
_cell_length_b       5.74629
_cell_length_c       10.8376
_cell_angle_alpha    90
_cell_angle_beta     90
_cell_angle_gamma    100.258

_symmetry_Int_Tables_number  36
_chemical_formula_structural  BiPd
_chemical_formula_sum  Bi8Pd8
_cell_volume  352.1361797835908
_cell_formula_units_Z  8
loop_
  _symmetry_equiv_pos_site_id
 _symmetry_equiv_pos_as_xyz
 1  'x, y, z'
loop_
 _atom_site_type_symbol
 _atom_site_label
 _atom_site_symmetry_multiplicity
 _atom_site_fract_x
 _atom_site_fract_y
 _atom_site_fract_z
 _atom_site_fract_occupancy
 Bi  Bi1  1  0.84938  0.39449  0.27932  1
 Bi  Bi2  1  0.12241  0.12241  0.99347  1
 Bi  Bi3  1  0.39449  0.84938  0.27932  1
 Bi  Bi4  1  0.60551  0.15062  0.77932  1
 Bi  Bi5  1  0.36542  0.36542  0.49751  1
 Bi  Bi6  1  0.63458  0.63458  0.99751  1
 Bi  Bi7  1  0.15062  0.60551  0.77932  1
 Bi  Bi8  1  0.87759  0.87759  0.49347  1
 Pd  Pd1  1  0.08741  0.08741  0.72231  1
 Pd  Pd2  1  0.32757  0.32757  0.22879  1
 Pd  Pd3  1  0.62373  0.13277  0.05564  1
 Pd  Pd4  1  0.67243  0.67243  0.72879  1
 Pd  Pd5  1  0.86723  0.37627  0.55564  1
 Pd  Pd6  1  0.37627  0.86723  0.55564  1
 Pd  Pd7  1  0.13277  0.62373  0.05564  1
 Pd  Pd8  1  0.91259  0.91259  0.22231  1
