CIF file written using JARVIS-Tools package.
data_Be2GaFe2
_symmetry_space_group_name_H-M  'I4/mmm'
_cell_length_a       5.30479
_cell_length_b       5.30479
_cell_length_c       5.30479
_cell_angle_alpha    141.728
_cell_angle_beta     141.728
_cell_angle_gamma    55.2394

_symmetry_Int_Tables_number  139
_chemical_formula_structural  Be2GaFe2
_chemical_formula_sum  Be2GaFe2
_cell_volume  56.856132722114054
_cell_formula_units_Z  1
loop_
  _symmetry_equiv_pos_site_id
 _symmetry_equiv_pos_as_xyz
 1  'x, y, z'
loop_
 _atom_site_type_symbol
 _atom_site_label
 _atom_site_symmetry_multiplicity
 _atom_site_fract_x
 _atom_site_fract_y
 _atom_site_fract_z
 _atom_site_fract_occupancy
 Be  Be1  1  0.60783  0.60783  0.00000  1
 Be  Be2  1  0.39217  0.39217  0.00000  1
 Fe  Fe1  1  0.75000  0.25000  0.50000  1
 Fe  Fe2  1  0.25000  0.75000  0.50000  1
 Ga  Ga1  1  0.00000  0.00000  0.00000  1
