CIF file written using JARVIS-Tools package.
data_Li4Be3As3ClO12
_symmetry_space_group_name_H-M  'P-43n'
_cell_length_a       8.28011
_cell_length_b       8.28011
_cell_length_c       8.28011
_cell_angle_alpha    90
_cell_angle_beta     90
_cell_angle_gamma    90

_symmetry_Int_Tables_number  218
_chemical_formula_structural  Li4Be3As3ClO12
_chemical_formula_sum  Li8Be6As6Cl2O24
_cell_volume  567.6861538287953
_cell_formula_units_Z  2
loop_
  _symmetry_equiv_pos_site_id
 _symmetry_equiv_pos_as_xyz
 1  'x, y, z'
loop_
 _atom_site_type_symbol
 _atom_site_label
 _atom_site_symmetry_multiplicity
 _atom_site_fract_x
 _atom_site_fract_y
 _atom_site_fract_z
 _atom_site_fract_occupancy
 As  As1  1  0.00000  0.75000  0.50000  1
 As  As2  1  0.25000  0.50000  0.00000  1
 As  As3  1  0.75000  0.50000  0.00000  1
 As  As4  1  0.00000  0.25000  0.50000  1
 As  As5  1  0.50000  0.00000  0.75000  1
 As  As6  1  0.50000  0.00000  0.25000  1
 Be  Be1  1  0.00000  0.50000  0.75000  1
 Be  Be2  1  0.00000  0.50000  0.25000  1
 Be  Be3  1  0.50000  0.75000  0.00000  1
 Be  Be4  1  0.25000  0.00000  0.50000  1
 Be  Be5  1  0.75000  0.00000  0.50000  1
 Be  Be6  1  0.50000  0.25000  0.00000  1
 Cl  Cl1  1  0.50000  0.50000  0.50000  1
 Cl  Cl2  1  0.00000  0.00000  0.00000  1
 Li  Li1  1  0.16953  0.16953  0.16953  1
 Li  Li2  1  0.66953  0.33047  0.33047  1
 Li  Li3  1  0.33047  0.33047  0.66953  1
 Li  Li4  1  0.66953  0.66953  0.66953  1
 Li  Li5  1  0.16953  0.83047  0.83047  1
 Li  Li6  1  0.83047  0.16953  0.83047  1
 Li  Li7  1  0.83047  0.83047  0.16953  1
 Li  Li8  1  0.33047  0.66953  0.33047  1
 O  O1  1  0.40241  0.14145  0.13408  1
 O  O2  1  0.85855  0.13408  0.59759  1
 O  O3  1  0.85855  0.86592  0.40241  1
 O  O4  1  0.14145  0.86592  0.59759  1
 O  O5  1  0.86592  0.59759  0.14145  1
 O  O6  1  0.13408  0.59759  0.85855  1
 O  O7  1  0.86592  0.40241  0.85855  1
 O  O8  1  0.35855  0.90241  0.36592  1
 O  O9  1  0.59759  0.14145  0.86592  1
 O  O10  1  0.14145  0.13408  0.40241  1
 O  O11  1  0.13408  0.40241  0.14145  1
 O  O12  1  0.64145  0.09759  0.36592  1
 O  O13  1  0.90241  0.63408  0.64145  1
 O  O14  1  0.09759  0.36592  0.64145  1
 O  O15  1  0.90241  0.36592  0.35855  1
 O  O16  1  0.09759  0.63408  0.35855  1
 O  O17  1  0.63408  0.64145  0.90241  1
 O  O18  1  0.36592  0.64145  0.09759  1
 O  O19  1  0.36592  0.35855  0.90241  1
 O  O20  1  0.63408  0.35855  0.09759  1
 O  O21  1  0.64145  0.90241  0.63408  1
 O  O22  1  0.40241  0.85855  0.86592  1
 O  O23  1  0.59759  0.85855  0.13408  1
 O  O24  1  0.35855  0.09759  0.63408  1
