CIF file written using JARVIS-Tools package.
data_Li4CoO3F
_symmetry_space_group_name_H-M  'Cmc2_1'
_cell_length_a       5.29809
_cell_length_b       5.29809
_cell_length_c       6.65541
_cell_angle_alpha    90
_cell_angle_beta     90
_cell_angle_gamma    94.1785

_symmetry_Int_Tables_number  36
_chemical_formula_structural  Li4CoO3F
_chemical_formula_sum  Li8Co2O6F2
_cell_volume  186.3189587004807
_cell_formula_units_Z  2
loop_
  _symmetry_equiv_pos_site_id
 _symmetry_equiv_pos_as_xyz
 1  'x, y, z'
loop_
 _atom_site_type_symbol
 _atom_site_label
 _atom_site_symmetry_multiplicity
 _atom_site_fract_x
 _atom_site_fract_y
 _atom_site_fract_z
 _atom_site_fract_occupancy
 Co  Co1  1  0.38195  0.38195  0.32026  1
 Co  Co2  1  0.61805  0.61805  0.82026  1
 F  F1  1  0.18931  0.18931  0.94890  1
 F  F2  1  0.81069  0.81069  0.44890  1
 Li  Li1  1  0.41509  0.10502  0.74039  1
 Li  Li2  1  0.89498  0.58491  0.24039  1
 Li  Li3  1  0.83542  0.16034  0.99561  1
 Li  Li4  1  0.83966  0.16458  0.49561  1
 Li  Li5  1  0.58491  0.89498  0.24039  1
 Li  Li6  1  0.16034  0.83542  0.99561  1
 Li  Li7  1  0.10502  0.41509  0.74039  1
 Li  Li8  1  0.16458  0.83966  0.49561  1
 O  O1  1  0.26731  0.68055  0.24809  1
 O  O2  1  0.31945  0.73269  0.74809  1
 O  O3  1  0.79193  0.79193  0.01267  1
 O  O4  1  0.20807  0.20807  0.51267  1
 O  O5  1  0.73269  0.31945  0.74809  1
 O  O6  1  0.68055  0.26731  0.24809  1
