CIF file written using JARVIS-Tools package.
data_HoB4Rh4
_symmetry_space_group_name_H-M  'P4_2/nmc'
_cell_length_a       5.32364
_cell_length_b       5.32364
_cell_length_c       7.46132
_cell_angle_alpha    90
_cell_angle_beta     90
_cell_angle_gamma    90

_symmetry_Int_Tables_number  137
_chemical_formula_structural  HoB4Rh4
_chemical_formula_sum  Ho2B8Rh8
_cell_volume  211.46257538847954
_cell_formula_units_Z  2
loop_
  _symmetry_equiv_pos_site_id
 _symmetry_equiv_pos_as_xyz
 1  'x, y, z'
loop_
 _atom_site_type_symbol
 _atom_site_label
 _atom_site_symmetry_multiplicity
 _atom_site_fract_x
 _atom_site_fract_y
 _atom_site_fract_z
 _atom_site_fract_occupancy
 B  B1  1  0.00000  0.33211  0.85207  1
 B  B2  1  0.83211  0.50000  0.35207  1
 B  B3  1  0.66789  0.00000  0.14793  1
 B  B4  1  0.50000  0.16789  0.64793  1
 B  B5  1  0.50000  0.83211  0.64793  1
 B  B6  1  0.33211  0.00000  0.14793  1
 B  B7  1  0.16789  0.50000  0.35207  1
 B  B8  1  0.00000  0.66789  0.85207  1
 Ho  Ho1  1  0.50000  0.50000  0.00000  1
 Ho  Ho2  1  0.00000  0.00000  0.50000  1
 Rh  Rh1  1  0.75151  0.00000  0.85396  1
 Rh  Rh2  1  0.00000  0.75151  0.14604  1
 Rh  Rh3  1  0.00000  0.24849  0.14604  1
 Rh  Rh4  1  0.74849  0.50000  0.64604  1
 Rh  Rh5  1  0.25151  0.50000  0.64604  1
 Rh  Rh6  1  0.50000  0.25151  0.35396  1
 Rh  Rh7  1  0.50000  0.74849  0.35396  1
 Rh  Rh8  1  0.24849  0.00000  0.85396  1
