CIF file written using JARVIS-Tools package.
data_MnBeNi
_symmetry_space_group_name_H-M  'I4mm'
_cell_length_a       5.07046
_cell_length_b       5.07046
_cell_length_c       5.07046
_cell_angle_alpha    151.691
_cell_angle_beta     151.691
_cell_angle_gamma    40.4641

_symmetry_Int_Tables_number  107
_chemical_formula_structural  MnBeNi
_chemical_formula_sum  MnBeNi
_cell_volume  29.256368311785906
_cell_formula_units_Z  1
loop_
  _symmetry_equiv_pos_site_id
 _symmetry_equiv_pos_as_xyz
 1  'x, y, z'
loop_
 _atom_site_type_symbol
 _atom_site_label
 _atom_site_symmetry_multiplicity
 _atom_site_fract_x
 _atom_site_fract_y
 _atom_site_fract_z
 _atom_site_fract_occupancy
 Be  Be1  1  0.00511  0.00511  -0.00000  1
 Mn  Mn1  1  0.34151  0.34151  -0.00000  1
 Ni  Ni1  1  0.65338  0.65338  0.00000  1
