CIF file written using JARVIS-Tools package.
data_ICl3
_symmetry_space_group_name_H-M  'P-1'
_cell_length_a       5.43541
_cell_length_b       5.72562
_cell_length_c       8.35072
_cell_angle_alpha    71.9724
_cell_angle_beta     77.4428
_cell_angle_gamma    80.8572

_symmetry_Int_Tables_number  2
_chemical_formula_structural  ICl3
_chemical_formula_sum  I2Cl6
_cell_volume  240.0358512595325
_cell_formula_units_Z  2
loop_
  _symmetry_equiv_pos_site_id
 _symmetry_equiv_pos_as_xyz
 1  'x, y, z'
loop_
 _atom_site_type_symbol
 _atom_site_label
 _atom_site_symmetry_multiplicity
 _atom_site_fract_x
 _atom_site_fract_y
 _atom_site_fract_z
 _atom_site_fract_occupancy
 Cl  Cl1  1  0.12967  0.29368  0.86092  1
 Cl  Cl2  1  0.87033  0.70632  0.13908  1
 Cl  Cl3  1  0.78355  0.27798  0.53497  1
 Cl  Cl4  1  0.21645  0.72202  0.46503  1
 Cl  Cl5  1  0.46059  0.27705  0.20618  1
 Cl  Cl6  1  0.53941  0.72295  0.79382  1
 I  I1  1  0.81780  -0.00066  0.81242  1
 I  I2  1  0.18220  0.00066  0.18758  1
