CIF file written using JARVIS-Tools package.
data_LiBeSi
_symmetry_space_group_name_H-M  'I4mm'
_cell_length_a       6.03216
_cell_length_b       6.03216
_cell_length_c       6.03216
_cell_angle_alpha    155.294
_cell_angle_beta     155.294
_cell_angle_gamma    35.2217

_symmetry_Int_Tables_number  107
_chemical_formula_structural  LiBeSi
_chemical_formula_sum  LiBeSi
_cell_volume  38.299964020067186
_cell_formula_units_Z  1
loop_
  _symmetry_equiv_pos_site_id
 _symmetry_equiv_pos_as_xyz
 1  'x, y, z'
loop_
 _atom_site_type_symbol
 _atom_site_label
 _atom_site_symmetry_multiplicity
 _atom_site_fract_x
 _atom_site_fract_y
 _atom_site_fract_z
 _atom_site_fract_occupancy
 Be  Be1  1  0.00912  0.00912  -0.00000  1
 Li  Li1  1  0.33975  0.33975  -0.00000  1
 Si  Si1  1  0.65113  0.65113  0.00000  1
