CIF file written using JARVIS-Tools package.
data_VCrO4
_symmetry_space_group_name_H-M  'Imma'
_cell_length_a       5.79631
_cell_length_b       5.36276
_cell_length_c       5.36276
_cell_angle_alpha    72.3442
_cell_angle_beta     57.2877
_cell_angle_gamma    57.2877

_symmetry_Int_Tables_number  74
_chemical_formula_structural  VCrO4
_chemical_formula_sum  V2Cr2O8
_cell_volume  117.9977957045153
_cell_formula_units_Z  2
loop_
  _symmetry_equiv_pos_site_id
 _symmetry_equiv_pos_as_xyz
 1  'x, y, z'
loop_
 _atom_site_type_symbol
 _atom_site_label
 _atom_site_symmetry_multiplicity
 _atom_site_fract_x
 _atom_site_fract_y
 _atom_site_fract_z
 _atom_site_fract_occupancy
 Cr  Cr1  1  0.00000  0.50000  0.50000  1
 Cr  Cr2  1  0.50000  0.50000  0.50000  1
 O  O1  1  0.29685  0.19850  0.19850  1
 O  O2  1  0.25202  0.29856  0.69739  1
 O  O3  1  0.25202  0.69739  0.29856  1
 O  O4  1  0.19384  0.80150  0.80150  1
 O  O5  1  0.80616  0.19850  0.19850  1
 O  O6  1  0.74798  0.30261  0.70144  1
 O  O7  1  0.74798  0.70144  0.30261  1
 O  O8  1  0.70315  0.80150  0.80150  1
 V  V1  1  0.23149  0.01851  0.01851  1
 V  V2  1  0.76851  0.98149  0.98149  1
