CIF file written using JARVIS-Tools package.
data_Tl2SnHgSe4
_symmetry_space_group_name_H-M  'I-42m'
_cell_length_a       6.72246
_cell_length_b       6.72246
_cell_length_c       6.72246
_cell_angle_alpha    105.871
_cell_angle_beta     105.871
_cell_angle_gamma    116.94

_symmetry_Int_Tables_number  121
_chemical_formula_structural  Tl2SnHgSe4
_chemical_formula_sum  Tl2SnHgSe4
_cell_volume  230.84692524682322
_cell_formula_units_Z  1
loop_
  _symmetry_equiv_pos_site_id
 _symmetry_equiv_pos_as_xyz
 1  'x, y, z'
loop_
 _atom_site_type_symbol
 _atom_site_label
 _atom_site_symmetry_multiplicity
 _atom_site_fract_x
 _atom_site_fract_y
 _atom_site_fract_z
 _atom_site_fract_occupancy
 Hg  Hg1  1  0.50000  0.50000  0.00000  1
 Se  Se1  1  0.94454  0.94454  0.35170  1
 Se  Se2  1  0.59284  0.59284  0.64830  1
 Se  Se3  1  0.05546  0.40716  0.00000  1
 Se  Se4  1  0.40716  0.05546  -0.00000  1
 Sn  Sn1  1  0.00000  0.00000  0.00000  1
 Tl  Tl1  1  0.50000  0.00000  0.50000  1
 Tl  Tl2  1  -0.00000  0.50000  0.50000  1
