CIF file written using JARVIS-Tools package.
data_CaBeRu2
_symmetry_space_group_name_H-M  'P4mm'
_cell_length_a       3.01895
_cell_length_b       3.01895
_cell_length_c       6.89404
_cell_angle_alpha    90
_cell_angle_beta     90
_cell_angle_gamma    90

_symmetry_Int_Tables_number  99
_chemical_formula_structural  CaBeRu2
_chemical_formula_sum  CaBeRu2
_cell_volume  62.832780477901984
_cell_formula_units_Z  1
loop_
  _symmetry_equiv_pos_site_id
 _symmetry_equiv_pos_as_xyz
 1  'x, y, z'
loop_
 _atom_site_type_symbol
 _atom_site_label
 _atom_site_symmetry_multiplicity
 _atom_site_fract_x
 _atom_site_fract_y
 _atom_site_fract_z
 _atom_site_fract_occupancy
 Be  Be1  1  0.00000  0.00000  0.41663  1
 Ca  Ca1  1  0.50000  0.50000  0.74337  1
 Ru  Ru1  1  0.00000  0.00000  0.05386  1
 Ru  Ru2  1  0.50000  0.50000  0.28614  1
