CIF file written using JARVIS-Tools package.
data_SrNb3NO7
_symmetry_space_group_name_H-M  'Cm'
_cell_length_a       3.84266
_cell_length_b       8.95376
_cell_length_c       10.5262
_cell_angle_alpha    90.519
_cell_angle_beta     100.522
_cell_angle_gamma    90.003

_symmetry_Int_Tables_number  8
_chemical_formula_structural  SrNb3NO7
_chemical_formula_sum  Sr2Nb6N2O4
_cell_volume  356.0624866826127
_cell_formula_units_Z  2
loop_
  _symmetry_equiv_pos_site_id
 _symmetry_equiv_pos_as_xyz
 1  'x, y, z'
loop_
 _atom_site_type_symbol
 _atom_site_label
 _atom_site_symmetry_multiplicity
 _atom_site_fract_x
 _atom_site_fract_y
 _atom_site_fract_z
 _atom_site_fract_occupancy
 N  N1  1  0.57301  0.25330  0.14354  1
 N  N2  1  0.15522  0.09248  0.30799  1
 Nb  Nb1  1  0.37585  0.94068  0.74899  1
 Nb  Nb2  1  0.76048  0.75251  0.51836  1
 Nb  Nb3  1  0.36768  0.54534  0.73271  1
 Nb  Nb4  1  0.62488  0.43797  0.24727  1
 Nb  Nb5  1  0.23408  0.23022  0.46561  1
 Nb  Nb6  1  0.62350  0.06217  0.24460  1
 O  O1  1  0.29852  0.40669  0.59451  1
 O  O2  1  0.55951  0.91632  0.11675  1
 O  O3  1  0.29924  0.08848  0.59585  1
 O  O4  1  0.70443  0.90728  0.40636  1
 O  O5  1  0.29351  0.75018  0.58440  1
 O  O6  1  0.42751  0.75580  0.85237  1
 O  O7  1  0.85265  0.91214  0.70263  1
 O  O8  1  0.43955  0.08371  0.87629  1
 O  O9  1  0.56210  0.58407  0.12190  1
 O  O10  1  0.43799  0.42098  0.87320  1
 O  O11  1  0.15259  0.41365  0.30266  1
 O  O12  1  0.70643  0.59192  0.41025  1
 O  O13  1  0.71369  0.26380  0.42485  1
 O  O14  1  0.85438  0.59840  0.70612  1
 Sr  Sr1  1  0.98247  0.25411  0.96222  1
 Sr  Sr2  1  0.01861  0.74853  0.03492  1
