CIF file written using JARVIS-Tools package.
data_Te4Mo2WSe2
_symmetry_space_group_name_H-M  'P3m1'
_cell_length_a       3.48599
_cell_length_b       3.486
_cell_length_c       30.3089
_cell_angle_alpha    89.9997
_cell_angle_beta     90
_cell_angle_gamma    120

_symmetry_Int_Tables_number  156
_chemical_formula_structural  Te4Mo2WSe2
_chemical_formula_sum  Te4Mo2WSe2
_cell_volume  318.973411674946
_cell_formula_units_Z  1
loop_
  _symmetry_equiv_pos_site_id
 _symmetry_equiv_pos_as_xyz
 1  'x, y, z'
loop_
 _atom_site_type_symbol
 _atom_site_label
 _atom_site_symmetry_multiplicity
 _atom_site_fract_x
 _atom_site_fract_y
 _atom_site_fract_z
 _atom_site_fract_occupancy
 Mo  Mo1  1  0.33331  0.66663  0.11781  1
 Mo  Mo2  1  0.66665  0.33331  0.34242  1
 Se  Se1  1  0.66665  0.33330  0.06434  1
 Se  Se2  1  0.66664  0.33329  0.17138  1
 Te  Te1  1  0.33333  0.66666  0.40322  1
 Te  Te2  1  0.66668  0.33337  0.51961  1
 Te  Te3  1  0.66667  0.33334  0.64171  1
 Te  Te4  1  0.33331  0.66663  0.28163  1
 W  W1  1  0.33334  0.66669  0.58072  1
