CIF file written using JARVIS-Tools package.
data_SmCuSb2
_symmetry_space_group_name_H-M  'P4/nmm'
_cell_length_a       4.34921
_cell_length_b       4.34921
_cell_length_c       10.0325
_cell_angle_alpha    90
_cell_angle_beta     90
_cell_angle_gamma    90

_symmetry_Int_Tables_number  129
_chemical_formula_structural  SmCuSb2
_chemical_formula_sum  Sm2Cu2Sb4
_cell_volume  189.76980473330667
_cell_formula_units_Z  2
loop_
  _symmetry_equiv_pos_site_id
 _symmetry_equiv_pos_as_xyz
 1  'x, y, z'
loop_
 _atom_site_type_symbol
 _atom_site_label
 _atom_site_symmetry_multiplicity
 _atom_site_fract_x
 _atom_site_fract_y
 _atom_site_fract_z
 _atom_site_fract_occupancy
 Cu  Cu1  1  0.25000  0.75000  0.50000  1
 Cu  Cu2  1  0.75000  0.25000  0.50000  1
 Sb  Sb1  1  0.25000  0.75000  0.00000  1
 Sb  Sb2  1  0.75000  0.25000  0.00000  1
 Sb  Sb3  1  0.75000  0.75000  0.34245  1
 Sb  Sb4  1  0.25000  0.25000  0.65755  1
 Sm  Sm1  1  0.75000  0.75000  0.75026  1
 Sm  Sm2  1  0.25000  0.25000  0.24974  1
