CIF file written using JARVIS-Tools package.
data_SrSnO3
_symmetry_space_group_name_H-M  'Pnma'
_cell_length_a       5.79225
_cell_length_b       5.76729
_cell_length_c       8.15918
_cell_angle_alpha    90
_cell_angle_beta     90
_cell_angle_gamma    90

_symmetry_Int_Tables_number  62
_chemical_formula_structural  SrSnO3
_chemical_formula_sum  Sr4Sn4O2
_cell_volume  272.56209490495417
_cell_formula_units_Z  4
loop_
  _symmetry_equiv_pos_site_id
 _symmetry_equiv_pos_as_xyz
 1  'x, y, z'
loop_
 _atom_site_type_symbol
 _atom_site_label
 _atom_site_symmetry_multiplicity
 _atom_site_fract_x
 _atom_site_fract_y
 _atom_site_fract_z
 _atom_site_fract_occupancy
 O  O1  1  0.98252  0.42617  0.25000  1
 O  O2  1  0.21387  0.21305  0.96108  1
 O  O3  1  0.78613  0.78695  0.46108  1
 O  O4  1  0.28613  0.71305  0.03892  1
 O  O5  1  0.28613  0.71305  0.46108  1
 O  O6  1  0.78613  0.78695  0.03892  1
 O  O7  1  0.21387  0.21305  0.53892  1
 O  O8  1  0.71387  0.28695  0.96108  1
 O  O9  1  0.71387  0.28695  0.53892  1
 O  O10  1  0.01748  0.57383  0.75000  1
 O  O11  1  0.48252  0.07383  0.25000  1
 O  O12  1  0.51748  0.92617  0.75000  1
 Sn  Sn1  1  0.00000  0.50000  0.00000  1
 Sn  Sn2  1  0.50000  0.00000  0.00000  1
 Sn  Sn3  1  0.00000  0.50000  0.50000  1
 Sn  Sn4  1  0.50000  0.00000  0.50000  1
 Sr  Sr1  1  0.46755  0.49314  0.75000  1
 Sr  Sr2  1  0.96755  0.00686  0.75000  1
 Sr  Sr3  1  0.03245  0.99314  0.25000  1
 Sr  Sr4  1  0.53245  0.50686  0.25000  1
