CIF file written using JARVIS-Tools package.
data_VS2N3Cl2
_symmetry_space_group_name_H-M  'P-1'
_cell_length_a       5.67298
_cell_length_b       6.88828
_cell_length_c       7.7141
_cell_angle_alpha    95.5187
_cell_angle_beta     98.6393
_cell_angle_gamma    97.2825

_symmetry_Int_Tables_number  2
_chemical_formula_structural  VS2N3Cl2
_chemical_formula_sum  V2S4N6Cl4
_cell_volume  293.573469019066
_cell_formula_units_Z  2
loop_
  _symmetry_equiv_pos_site_id
 _symmetry_equiv_pos_as_xyz
 1  'x, y, z'
loop_
 _atom_site_type_symbol
 _atom_site_label
 _atom_site_symmetry_multiplicity
 _atom_site_fract_x
 _atom_site_fract_y
 _atom_site_fract_z
 _atom_site_fract_occupancy
 Cl  Cl1  1  0.37773  0.86879  0.82764  1
 Cl  Cl2  1  0.18361  0.38379  0.19060  1
 Cl  Cl3  1  0.62227  0.13121  0.17236  1
 Cl  Cl4  1  0.81639  0.61621  0.80940  1
 N  N1  1  0.98658  0.25709  0.57159  1
 N  N2  1  0.06837  0.92562  0.14578  1
 N  N3  1  0.01342  0.74291  0.42841  1
 N  N4  1  0.65837  0.69671  0.16783  1
 N  N5  1  0.34163  0.30329  0.83217  1
 N  N6  1  0.93163  0.07438  0.85422  1
 S  S1  1  0.74265  0.63719  0.35755  1
 S  S2  1  0.81278  0.11917  0.66487  1
 S  S3  1  0.25735  0.36281  0.64245  1
 S  S4  1  0.18722  0.88083  0.33513  1
 V  V1  1  0.76390  0.84835  0.02101  1
 V  V2  1  0.23610  0.15165  0.97899  1
