CIF file written using JARVIS-Tools package.
data_BeCrCd
_symmetry_space_group_name_H-M  'I4mm'
_cell_length_a       6.15726
_cell_length_b       6.15726
_cell_length_c       6.15726
_cell_angle_alpha    155.229
_cell_angle_beta     155.229
_cell_angle_gamma    35.316

_symmetry_Int_Tables_number  107
_chemical_formula_structural  BeCrCd
_chemical_formula_sum  BeCrCd
_cell_volume  40.933403190361595
_cell_formula_units_Z  1
loop_
  _symmetry_equiv_pos_site_id
 _symmetry_equiv_pos_as_xyz
 1  'x, y, z'
loop_
 _atom_site_type_symbol
 _atom_site_label
 _atom_site_symmetry_multiplicity
 _atom_site_fract_x
 _atom_site_fract_y
 _atom_site_fract_z
 _atom_site_fract_occupancy
 Be  Be1  1  0.01511  0.01511  0.00000  1
 Cd  Cd1  1  0.33770  0.33770  0.00000  1
 Cr  Cr1  1  0.64718  0.64718  0.00000  1
