CIF file written using JARVIS-Tools package.
data_DyPdPb
_symmetry_space_group_name_H-M  'P-62m'
_cell_length_a       3.86465
_cell_length_b       7.82588
_cell_length_c       7.8254
_cell_angle_alpha    120.002
_cell_angle_beta     90
_cell_angle_gamma    90

_symmetry_Int_Tables_number  189
_chemical_formula_structural  DyPdPb
_chemical_formula_sum  Dy3Pd3Pb3
_cell_volume  204.9612257848559
_cell_formula_units_Z  3
loop_
  _symmetry_equiv_pos_site_id
 _symmetry_equiv_pos_as_xyz
 1  'x, y, z'
loop_
 _atom_site_type_symbol
 _atom_site_label
 _atom_site_symmetry_multiplicity
 _atom_site_fract_x
 _atom_site_fract_y
 _atom_site_fract_z
 _atom_site_fract_occupancy
 Dy  Dy1  1  0.50000  0.60070  0.00000  1
 Dy  Dy2  1  0.50000  0.39927  0.39928  1
 Dy  Dy3  1  0.50000  -0.00001  0.60072  1
 Pb  Pb1  1  0.00000  0.26792  -0.00000  1
 Pb  Pb2  1  0.00000  0.73206  0.73207  1
 Pb  Pb3  1  0.00000  -0.00001  0.26793  1
 Pd  Pd1  1  0.00000  0.33332  0.66666  1
 Pd  Pd2  1  0.00000  0.66666  0.33334  1
 Pd  Pd3  1  0.50000  -0.00001  0.00000  1
