CIF file written using JARVIS-Tools package.
data_Li3VCr3O8
_symmetry_space_group_name_H-M  'R-3m'
_cell_length_a       5.78838
_cell_length_b       5.78837
_cell_length_c       5.78837
_cell_angle_alpha    61.0816
_cell_angle_beta     118.918
_cell_angle_gamma    118.918

_symmetry_Int_Tables_number  166
_chemical_formula_structural  Li3VCr3O8
_chemical_formula_sum  Li3VCr3O8
_cell_volume  140.4761068450357
_cell_formula_units_Z  1
loop_
  _symmetry_equiv_pos_site_id
 _symmetry_equiv_pos_as_xyz
 1  'x, y, z'
loop_
 _atom_site_type_symbol
 _atom_site_label
 _atom_site_symmetry_multiplicity
 _atom_site_fract_x
 _atom_site_fract_y
 _atom_site_fract_z
 _atom_site_fract_occupancy
 Cr  Cr1  1  -0.00000  0.50000  0.50000  1
 Cr  Cr2  1  0.50000  0.00000  0.50000  1
 Cr  Cr3  1  0.50000  0.50000  0.00000  1
 Li  Li1  1  0.00000  1.00000  0.50000  1
 Li  Li2  1  0.00000  0.50000  1.00000  1
 Li  Li3  1  0.50000  1.00000  1.00000  1
 O  O1  1  0.25804  0.74196  0.74196  1
 O  O2  1  0.26415  0.27933  0.73585  1
 O  O3  1  0.26415  0.73585  0.27933  1
 O  O4  1  0.72067  0.73585  0.73585  1
 O  O5  1  0.27933  0.26416  0.26416  1
 O  O6  1  0.73584  0.26416  0.72067  1
 O  O7  1  0.73584  0.72067  0.26416  1
 O  O8  1  0.74196  0.25804  0.25804  1
 V  V1  1  0.50000  0.50000  0.50000  1
