CIF file written using JARVIS-Tools package.
data_BeTlSe
_symmetry_space_group_name_H-M  'I4mm'
_cell_length_a       6.65509
_cell_length_b       6.65509
_cell_length_c       6.65509
_cell_angle_alpha    151.118
_cell_angle_beta     151.118
_cell_angle_gamma    41.3031

_symmetry_Int_Tables_number  107
_chemical_formula_structural  BeTlSe
_chemical_formula_sum  BeTlSe
_cell_volume  68.61511987388174
_cell_formula_units_Z  1
loop_
  _symmetry_equiv_pos_site_id
 _symmetry_equiv_pos_as_xyz
 1  'x, y, z'
loop_
 _atom_site_type_symbol
 _atom_site_label
 _atom_site_symmetry_multiplicity
 _atom_site_fract_x
 _atom_site_fract_y
 _atom_site_fract_z
 _atom_site_fract_occupancy
 Be  Be1  1  0.92365  0.92365  -0.00000  1
 Se  Se1  1  0.41362  0.41362  -0.00000  1
 Tl  Tl1  1  0.66273  0.66273  0.00000  1
