CIF file written using JARVIS-Tools package.
data_YFeGe2
_symmetry_space_group_name_H-M  'Cmcm'
_cell_length_a       4.22375
_cell_length_b       4.16099
_cell_length_c       8.50896
_cell_angle_alpha    104.153
_cell_angle_beta     90
_cell_angle_gamma    90

_symmetry_Int_Tables_number  63
_chemical_formula_structural  YFeGe2
_chemical_formula_sum  Y2Fe2Ge4
_cell_volume  145.00583287021104
_cell_formula_units_Z  2
loop_
  _symmetry_equiv_pos_site_id
 _symmetry_equiv_pos_as_xyz
 1  'x, y, z'
loop_
 _atom_site_type_symbol
 _atom_site_label
 _atom_site_symmetry_multiplicity
 _atom_site_fract_x
 _atom_site_fract_y
 _atom_site_fract_z
 _atom_site_fract_occupancy
 Fe  Fe1  1  0.75000  0.31766  0.63531  1
 Fe  Fe2  1  0.25000  0.68234  0.36469  1
 Ge  Ge1  1  0.75000  0.45446  0.90892  1
 Ge  Ge2  1  0.25000  0.54554  0.09108  1
 Ge  Ge3  1  0.75000  0.74903  0.49806  1
 Ge  Ge4  1  0.25000  0.25097  0.50194  1
 Y  Y1  1  0.75000  0.10834  0.21668  1
 Y  Y2  1  0.25000  0.89166  0.78332  1
