CIF file written using JARVIS-Tools package.
data_AlSeCl7
_symmetry_space_group_name_H-M  'P1'
_cell_length_a       6.44866
_cell_length_b       8.19072
_cell_length_c       9.74472
_cell_angle_alpha    86.6805
_cell_angle_beta     75.2688
_cell_angle_gamma    83.4172

_symmetry_Int_Tables_number  1
_chemical_formula_structural  AlSeCl7
_chemical_formula_sum  Al2Se2Cl4
_cell_volume  494.28506655303835
_cell_formula_units_Z  2
loop_
  _symmetry_equiv_pos_site_id
 _symmetry_equiv_pos_as_xyz
 1  'x, y, z'
loop_
 _atom_site_type_symbol
 _atom_site_label
 _atom_site_symmetry_multiplicity
 _atom_site_fract_x
 _atom_site_fract_y
 _atom_site_fract_z
 _atom_site_fract_occupancy
 Al  Al1  1  0.18432  0.97462  0.51389  1
 Al  Al2  1  0.47705  0.40639  0.94367  1
 Cl  Cl1  1  0.85367  0.93709  0.55168  1
 Cl  Cl2  1  0.39679  0.76287  0.43446  1
 Cl  Cl3  1  0.25842  0.17116  0.34968  1
 Cl  Cl4  1  0.62687  0.33604  0.49930  1
 Cl  Cl5  1  0.55324  0.50999  0.12014  1
 Cl  Cl6  1  0.48044  0.58881  0.77290  1
 Cl  Cl7  1  -0.02514  0.59759  0.34152  1
 Cl  Cl8  1  -0.06791  0.51655  0.72405  1
 Cl  Cl9  1  0.93364  0.78117  0.89472  1
 Cl  Cl10  1  0.28980  0.89214  0.05274  1
 Cl  Cl11  1  0.77724  0.01003  0.19295  1
 Cl  Cl12  1  0.65641  0.17580  0.87038  1
 Cl  Cl13  1  0.13691  0.35608  0.01286  1
 Cl  Cl14  1  0.26697  0.06977  0.69736  1
 Se  Se1  1  0.01080  0.00387  0.97934  1
 Se  Se2  1  0.86726  0.37023  0.30657  1
