CIF file written using JARVIS-Tools package.
data_Na4IrO4
_symmetry_space_group_name_H-M  'I4/m'
_cell_length_a       4.73187
_cell_length_b       5.5789
_cell_length_c       5.57889
_cell_angle_alpha    79.639
_cell_angle_beta     64.907
_cell_angle_gamma    64.9071

_symmetry_Int_Tables_number  87
_chemical_formula_structural  Na4IrO4
_chemical_formula_sum  Na4IrO4
_cell_volume  120.78768050358707
_cell_formula_units_Z  1
loop_
  _symmetry_equiv_pos_site_id
 _symmetry_equiv_pos_as_xyz
 1  'x, y, z'
loop_
 _atom_site_type_symbol
 _atom_site_label
 _atom_site_symmetry_multiplicity
 _atom_site_fract_x
 _atom_site_fract_y
 _atom_site_fract_z
 _atom_site_fract_occupancy
 Ir  Ir1  1  0.00000  0.00000  0.00000  1
 Na  Na1  1  0.41006  0.78710  0.39279  1
 Na  Na2  1  0.58994  0.21290  0.60721  1
 Na  Na3  1  0.80284  0.60721  0.78710  1
 Na  Na4  1  0.19716  0.39279  0.21290  1
 O  O1  1  0.74238  0.34286  0.17238  1
 O  O2  1  0.25762  0.65714  0.82762  1
 O  O3  1  0.91476  0.82762  0.34286  1
 O  O4  1  0.08524  0.17238  0.65714  1
