CIF file written using JARVIS-Tools package.
data_PrPH5CO7
_symmetry_space_group_name_H-M  'P-1'
_cell_length_a       6.71904
_cell_length_b       7.09549
_cell_length_c       7.50298
_cell_angle_alpha    109.543
_cell_angle_beta     93.3865
_cell_angle_gamma    90.2285

_symmetry_Int_Tables_number  2
_chemical_formula_structural  PrPH5CO7
_chemical_formula_sum  Pr2P2H0C2O4
_cell_volume  336.3993878488607
_cell_formula_units_Z  2
loop_
  _symmetry_equiv_pos_site_id
 _symmetry_equiv_pos_as_xyz
 1  'x, y, z'
loop_
 _atom_site_type_symbol
 _atom_site_label
 _atom_site_symmetry_multiplicity
 _atom_site_fract_x
 _atom_site_fract_y
 _atom_site_fract_z
 _atom_site_fract_occupancy
 C  C1  1  0.93453  0.08908  0.49826  1
 C  C2  1  0.06547  0.91092  0.50174  1
 H  H1  1  0.53036  0.75783  0.36222  1
 H  H2  1  0.39368  0.71979  0.79975  1
 H  H3  1  0.46964  0.24217  0.63778  1
 H  H4  1  0.16602  0.52016  0.34424  1
 H  H5  1  0.83398  0.47984  0.65576  1
 H  H6  1  0.60632  0.28021  0.20025  1
 H  H7  1  0.71296  0.66567  0.61989  1
 H  H8  1  0.43812  0.83532  0.56129  1
 H  H9  1  0.56188  0.16468  0.43871  1
 H  H10  1  0.28704  0.33433  0.38011  1
 O  O1  1  0.20074  0.37758  0.28787  1
 O  O2  1  0.94729  0.24352  0.64496  1
 O  O3  1  0.51617  0.76045  0.11235  1
 O  O4  1  0.79659  0.06053  0.95684  1
 O  O5  1  0.18275  0.57467  0.96529  1
 O  O6  1  0.48383  0.23955  0.88765  1
 O  O7  1  0.20341  0.93947  0.04316  1
 O  O8  1  0.79926  0.62242  0.71213  1
 O  O9  1  0.05271  0.75648  0.35504  1
 O  O10  1  0.17614  0.93301  0.64954  1
 O  O11  1  0.82386  0.06699  0.35046  1
 O  O12  1  0.81725  0.42533  0.03471  1
 O  O13  1  0.55664  0.77242  0.49726  1
 O  O14  1  0.44336  0.22758  0.50274  1
 P  P1  1  0.32996  0.74847  0.98193  1
 P  P2  1  0.67004  0.25153  0.01807  1
 Pr  Pr1  1  0.86695  0.77184  0.05865  1
 Pr  Pr2  1  0.13305  0.22816  0.94135  1
