CIF file written using JARVIS-Tools package.
data_Ce6B2C3Br3
_symmetry_space_group_name_H-M  'P2/m'
_cell_length_a       3.66474
_cell_length_b       8.56559
_cell_length_c       10.1141
_cell_angle_alpha    114.334
_cell_angle_beta     90
_cell_angle_gamma    90

_symmetry_Int_Tables_number  10
_chemical_formula_structural  Ce6B2C3Br3
_chemical_formula_sum  Ce6B2C3Br3
_cell_volume  289.2816890314385
_cell_formula_units_Z  1
loop_
  _symmetry_equiv_pos_site_id
 _symmetry_equiv_pos_as_xyz
 1  'x, y, z'
loop_
 _atom_site_type_symbol
 _atom_site_label
 _atom_site_symmetry_multiplicity
 _atom_site_fract_x
 _atom_site_fract_y
 _atom_site_fract_z
 _atom_site_fract_occupancy
 B  B1  1  0.00000  0.10235  0.06422  1
 B  B2  1  0.00000  0.89765  0.93578  1
 Br  Br1  1  0.00000  0.35284  0.81484  1
 Br  Br2  1  0.50000  0.00000  0.50000  1
 Br  Br3  1  0.00000  0.64716  0.18516  1
 C  C1  1  0.00000  0.16439  0.22943  1
 C  C2  1  0.00000  0.83561  0.77057  1
 C  C3  1  0.50000  0.50000  0.50000  1
 Ce  Ce1  1  0.00000  0.28896  0.48418  1
 Ce  Ce2  1  0.50000  0.93908  0.15796  1
 Ce  Ce3  1  0.50000  0.36869  0.21907  1
 Ce  Ce4  1  0.00000  0.71104  0.51582  1
 Ce  Ce5  1  0.50000  0.06092  0.84204  1
 Ce  Ce6  1  0.50000  0.63131  0.78093  1
