CIF file written using JARVIS-Tools package.
data_MnGe
_symmetry_space_group_name_H-M  'P2_13'
_cell_length_a       4.76333
_cell_length_b       4.76333
_cell_length_c       4.76333
_cell_angle_alpha    90
_cell_angle_beta     90
_cell_angle_gamma    90

_symmetry_Int_Tables_number  198
_chemical_formula_structural  MnGe
_chemical_formula_sum  Mn4Ge4
_cell_volume  108.07698141394935
_cell_formula_units_Z  4
loop_
  _symmetry_equiv_pos_site_id
 _symmetry_equiv_pos_as_xyz
 1  'x, y, z'
loop_
 _atom_site_type_symbol
 _atom_site_label
 _atom_site_symmetry_multiplicity
 _atom_site_fract_x
 _atom_site_fract_y
 _atom_site_fract_z
 _atom_site_fract_occupancy
 Ge  Ge1  1  0.34225  0.84225  0.65775  1
 Ge  Ge2  1  0.84225  0.65775  0.34225  1
 Ge  Ge3  1  0.65775  0.34225  0.84225  1
 Ge  Ge4  1  0.15775  0.15775  0.15775  1
 Mn  Mn1  1  0.63587  0.13587  0.36413  1
 Mn  Mn2  1  0.13587  0.36413  0.63587  1
 Mn  Mn3  1  0.36413  0.63587  0.13587  1
 Mn  Mn4  1  0.86413  0.86413  0.86413  1
