CIF file written using JARVIS-Tools package.
data_Na2CoO3
_symmetry_space_group_name_H-M  'C2/m'
_cell_length_a       5.73319
_cell_length_b       5.73319
_cell_length_c       6.12891
_cell_angle_alpha    72.7958
_cell_angle_beta     107.204
_cell_angle_gamma    118.158

_symmetry_Int_Tables_number  12
_chemical_formula_structural  Na2CoO3
_chemical_formula_sum  Na4Co2O6
_cell_volume  166.72110546560583
_cell_formula_units_Z  2
loop_
  _symmetry_equiv_pos_site_id
 _symmetry_equiv_pos_as_xyz
 1  'x, y, z'
loop_
 _atom_site_type_symbol
 _atom_site_label
 _atom_site_symmetry_multiplicity
 _atom_site_fract_x
 _atom_site_fract_y
 _atom_site_fract_z
 _atom_site_fract_occupancy
 Co  Co1  1  0.33667  0.66333  0.76312  1
 Co  Co2  1  0.66333  0.33667  0.23688  1
 Na  Na1  1  0.35229  0.64771  0.28262  1
 Na  Na2  1  -0.00000  -0.00000  0.50000  1
 Na  Na3  1  0.00000  0.00000  0.00000  1
 Na  Na4  1  0.64771  0.35229  0.71738  1
 O  O1  1  0.20492  0.79508  0.88196  1
 O  O2  1  0.64099  0.80891  0.68520  1
 O  O3  1  0.19109  0.35901  0.68520  1
 O  O4  1  0.80891  0.64099  0.31480  1
 O  O5  1  0.35901  0.19109  0.31480  1
 O  O6  1  0.79508  0.20492  0.11804  1
