CIF file written using JARVIS-Tools package.
data_V5O12
_symmetry_space_group_name_H-M  'P1'
_cell_length_a       4.89767
_cell_length_b       5.26253
_cell_length_c       7.37777
_cell_angle_alpha    83.0317
_cell_angle_beta     90.1486
_cell_angle_gamma    89.8065

_symmetry_Int_Tables_number  1
_chemical_formula_structural  V5O12
_chemical_formula_sum  V5O2
_cell_volume  188.74903180031527
_cell_formula_units_Z  1
loop_
  _symmetry_equiv_pos_site_id
 _symmetry_equiv_pos_as_xyz
 1  'x, y, z'
loop_
 _atom_site_type_symbol
 _atom_site_label
 _atom_site_symmetry_multiplicity
 _atom_site_fract_x
 _atom_site_fract_y
 _atom_site_fract_z
 _atom_site_fract_occupancy
 O  O1  1  0.32793  0.45855  0.23273  1
 O  O2  1  0.71186  0.75967  0.41960  1
 O  O3  1  0.89400  0.96148  0.73267  1
 O  O4  1  0.67776  0.14583  0.03526  1
 O  O5  1  0.10570  0.93508  0.22654  1
 O  O6  1  0.83818  0.30059  0.41323  1
 O  O7  1  0.61241  0.47376  0.73632  1
 O  O8  1  0.17518  0.28359  0.93062  1
 O  O9  1  0.32525  0.15025  0.54337  1
 O  O10  1  0.19606  0.65526  0.52137  1
 O  O11  1  0.31755  0.77658  0.92485  1
 O  O12  1  0.81440  0.62174  0.07180  1
 V  V1  1  0.00678  0.59499  0.27405  1
 V  V2  1  0.46724  0.49623  0.97807  1
 V  V3  1  0.03035  -0.00440  0.51925  1
 V  V4  1  0.52387  0.48932  0.51537  1
 V  V5  1  0.97547  0.02006  0.98419  1
