CIF file written using JARVIS-Tools package.
data_UGaRh
_symmetry_space_group_name_H-M  'P-62m'
_cell_length_a       4.08957
_cell_length_b       6.87912
_cell_length_c       6.87903
_cell_angle_alpha    120
_cell_angle_beta     90
_cell_angle_gamma    90

_symmetry_Int_Tables_number  189
_chemical_formula_structural  UGaRh
_chemical_formula_sum  U3Ga3Rh3
_cell_volume  167.59696492415415
_cell_formula_units_Z  3
loop_
  _symmetry_equiv_pos_site_id
 _symmetry_equiv_pos_as_xyz
 1  'x, y, z'
loop_
 _atom_site_type_symbol
 _atom_site_label
 _atom_site_symmetry_multiplicity
 _atom_site_fract_x
 _atom_site_fract_y
 _atom_site_fract_z
 _atom_site_fract_occupancy
 Ga  Ga1  1  0.00000  0.23929  0.00000  1
 Ga  Ga2  1  0.00000  0.76065  0.76063  1
 Ga  Ga3  1  0.00000  0.00002  0.23937  1
 Rh  Rh1  1  0.00000  0.33335  0.66670  1
 Rh  Rh2  1  0.00000  0.66666  0.33330  1
 Rh  Rh3  1  0.50000  0.99994  -0.00000  1
 U  U1  1  0.50000  0.57817  0.00000  1
 U  U2  1  0.50000  0.42180  0.42179  1
 U  U3  1  0.50000  0.00001  0.57821  1
