CIF file written using JARVIS-Tools package.
data_Pr4Fe3B6
_symmetry_space_group_name_H-M  'R-3m'
_cell_length_a       8.06784
_cell_length_b       8.06784
_cell_length_c       8.06784
_cell_angle_alpha    38.9886
_cell_angle_beta     38.9886
_cell_angle_gamma    38.9887

_symmetry_Int_Tables_number  166
_chemical_formula_structural  Pr4Fe3B6
_chemical_formula_sum  Pr4Fe3B6
_cell_volume  186.94142661749686
_cell_formula_units_Z  1
loop_
  _symmetry_equiv_pos_site_id
 _symmetry_equiv_pos_as_xyz
 1  'x, y, z'
loop_
 _atom_site_type_symbol
 _atom_site_label
 _atom_site_symmetry_multiplicity
 _atom_site_fract_x
 _atom_site_fract_y
 _atom_site_fract_z
 _atom_site_fract_occupancy
 B  B1  1  0.16647  0.50000  0.83353  1
 B  B2  1  0.50000  0.83353  0.16647  1
 B  B3  1  0.83353  0.16647  0.50000  1
 B  B4  1  0.83353  0.50000  0.16647  1
 B  B5  1  0.50000  0.16647  0.83353  1
 B  B6  1  0.16647  0.83353  0.50000  1
 Fe  Fe1  1  0.00000  0.00000  0.00000  1
 Fe  Fe2  1  0.88769  0.88769  0.88769  1
 Fe  Fe3  1  0.11231  0.11231  0.11231  1
 Pr  Pr1  1  0.74043  0.74043  0.74043  1
 Pr  Pr2  1  0.25957  0.25957  0.25957  1
 Pr  Pr3  1  0.59260  0.59260  0.59260  1
 Pr  Pr4  1  0.40740  0.40740  0.40740  1
