CIF file written using JARVIS-Tools package.
data_BeNiSe
_symmetry_space_group_name_H-M  'I4mm'
_cell_length_a       6.12177
_cell_length_b       6.12177
_cell_length_c       6.12177
_cell_angle_alpha    154.22
_cell_angle_beta     154.22
_cell_angle_gamma    36.7795

_symmetry_Int_Tables_number  107
_chemical_formula_structural  BeNiSe
_chemical_formula_sum  BeNiSe
_cell_volume  43.33497916969513
_cell_formula_units_Z  1
loop_
  _symmetry_equiv_pos_site_id
 _symmetry_equiv_pos_as_xyz
 1  'x, y, z'
loop_
 _atom_site_type_symbol
 _atom_site_label
 _atom_site_symmetry_multiplicity
 _atom_site_fract_x
 _atom_site_fract_y
 _atom_site_fract_z
 _atom_site_fract_occupancy
 Be  Be1  1  0.95184  0.95184  0.00000  1
 Ni  Ni1  1  0.35992  0.35992  0.00000  1
 Se  Se1  1  0.68825  0.68825  0.00000  1
