CIF file written using JARVIS-Tools package.
data_Ca5Ge3H
_symmetry_space_group_name_H-M  'I4/mcm'
_cell_length_a       9.02509
_cell_length_b       9.02509
_cell_length_c       9.02509
_cell_angle_alpha    129.438
_cell_angle_beta     129.438
_cell_angle_gamma    74.3074

_symmetry_Int_Tables_number  140
_chemical_formula_structural  Ca5Ge3H
_chemical_formula_sum  Ca0Ge6H2
_cell_volume  427.42657292439725
_cell_formula_units_Z  2
loop_
  _symmetry_equiv_pos_site_id
 _symmetry_equiv_pos_as_xyz
 1  'x, y, z'
loop_
 _atom_site_type_symbol
 _atom_site_label
 _atom_site_symmetry_multiplicity
 _atom_site_fract_x
 _atom_site_fract_y
 _atom_site_fract_z
 _atom_site_fract_occupancy
 Ca  Ca1  1  0.50000  0.50000  0.00000  1
 Ca  Ca2  1  0.01730  0.18420  0.50000  1
 Ca  Ca3  1  0.51730  0.01730  0.83311  1
 Ca  Ca4  1  0.18420  0.68420  0.16689  1
 Ca  Ca5  1  0.98270  0.81580  0.50000  1
 Ca  Ca6  1  0.00000  0.00000  0.00000  1
 Ca  Ca7  1  0.48270  0.98270  0.16689  1
 Ca  Ca8  1  0.81580  0.31580  0.83311  1
 Ca  Ca9  1  0.31580  0.48270  0.50000  1
 Ca  Ca10  1  0.68420  0.51730  0.50000  1
 Ge  Ge1  1  0.25000  0.25000  0.00000  1
 Ge  Ge2  1  0.75000  0.75000  0.00000  1
 Ge  Ge3  1  0.88148  0.38148  0.26296  1
 Ge  Ge4  1  0.11852  0.61852  0.73704  1
 Ge  Ge5  1  0.38148  0.11852  0.50000  1
 Ge  Ge6  1  0.61852  0.88148  0.50000  1
 H  H1  1  0.25000  0.75000  0.50000  1
 H  H2  1  0.75000  0.25000  0.50000  1
