CIF file written using JARVIS-Tools package.
data_Ag2SeO3
_symmetry_space_group_name_H-M  'P2_1/c'
_cell_length_a       4.86921
_cell_length_b       7.32243
_cell_length_c       9.90913
_cell_angle_alpha    90
_cell_angle_beta     90
_cell_angle_gamma    92.0152

_symmetry_Int_Tables_number  14
_chemical_formula_structural  Ag2SeO3
_chemical_formula_sum  Ag8Se4O2
_cell_volume  353.08591311818253
_cell_formula_units_Z  4
loop_
  _symmetry_equiv_pos_site_id
 _symmetry_equiv_pos_as_xyz
 1  'x, y, z'
loop_
 _atom_site_type_symbol
 _atom_site_label
 _atom_site_symmetry_multiplicity
 _atom_site_fract_x
 _atom_site_fract_y
 _atom_site_fract_z
 _atom_site_fract_occupancy
 Ag  Ag1  1  0.76387  0.88807  0.75310  1
 Ag  Ag2  1  0.23613  0.11193  0.24690  1
 Ag  Ag3  1  0.76387  0.38807  0.74690  1
 Ag  Ag4  1  0.75242  0.40843  0.44036  1
 Ag  Ag5  1  0.75242  0.90843  0.05964  1
 Ag  Ag6  1  0.24758  0.59157  0.55964  1
 Ag  Ag7  1  0.24758  0.09157  0.94036  1
 Ag  Ag8  1  0.23613  0.61193  0.25310  1
 O  O1  1  0.78741  0.73308  0.25384  1
 O  O2  1  0.78741  0.23308  0.24616  1
 O  O3  1  0.21259  0.26692  0.74616  1
 O  O4  1  0.24791  0.79306  0.02188  1
 O  O5  1  0.75209  0.70694  0.52188  1
 O  O6  1  0.75209  0.20694  0.97812  1
 O  O7  1  0.63231  0.12565  0.61824  1
 O  O8  1  0.24791  0.29306  0.47812  1
 O  O9  1  0.36769  0.87435  0.38176  1
 O  O10  1  0.21259  0.76692  0.75384  1
 O  O11  1  0.36769  0.37435  0.11824  1
 O  O12  1  0.63231  0.62565  0.88176  1
 Se  Se1  1  0.72705  0.86913  0.39430  1
 Se  Se2  1  0.72705  0.36913  0.10570  1
 Se  Se3  1  0.27295  0.63087  0.89430  1
 Se  Se4  1  0.27295  0.13087  0.60570  1
