CIF file written using JARVIS-Tools package.
data_TmZnSn2
_symmetry_space_group_name_H-M  'P4/nmm'
_cell_length_a       4.34233
_cell_length_b       4.34233
_cell_length_c       9.74031
_cell_angle_alpha    90
_cell_angle_beta     90
_cell_angle_gamma    90

_symmetry_Int_Tables_number  129
_chemical_formula_structural  TmZnSn2
_chemical_formula_sum  Tm2Zn2Sn4
_cell_volume  183.6615982112867
_cell_formula_units_Z  2
loop_
  _symmetry_equiv_pos_site_id
 _symmetry_equiv_pos_as_xyz
 1  'x, y, z'
loop_
 _atom_site_type_symbol
 _atom_site_label
 _atom_site_symmetry_multiplicity
 _atom_site_fract_x
 _atom_site_fract_y
 _atom_site_fract_z
 _atom_site_fract_occupancy
 Sn  Sn1  1  0.75000  0.25000  0.00000  1
 Sn  Sn2  1  0.25000  0.75000  0.00000  1
 Sn  Sn3  1  0.75000  0.75000  0.31170  1
 Sn  Sn4  1  0.25000  0.25000  0.68830  1
 Tm  Tm1  1  0.75000  0.75000  0.74893  1
 Tm  Tm2  1  0.25000  0.25000  0.25107  1
 Zn  Zn1  1  0.75000  0.25000  0.50000  1
 Zn  Zn2  1  0.25000  0.75000  0.50000  1
