CIF file written using JARVIS-Tools package.
data_Rb2MnCl4
_symmetry_space_group_name_H-M  'I4/mmm'
_cell_length_a       5.00795
_cell_length_b       5.00795
_cell_length_c       8.82548
_cell_angle_alpha    106.482
_cell_angle_beta     106.482
_cell_angle_gamma    90

_symmetry_Int_Tables_number  139
_chemical_formula_structural  Rb2MnCl4
_chemical_formula_sum  Rb2MnCl4
_cell_volume  202.7405837627681
_cell_formula_units_Z  1
loop_
  _symmetry_equiv_pos_site_id
 _symmetry_equiv_pos_as_xyz
 1  'x, y, z'
loop_
 _atom_site_type_symbol
 _atom_site_label
 _atom_site_symmetry_multiplicity
 _atom_site_fract_x
 _atom_site_fract_y
 _atom_site_fract_z
 _atom_site_fract_occupancy
 Cl  Cl1  1  0.84280  0.84280  0.68560  1
 Cl  Cl2  1  0.15720  0.15720  0.31440  1
 Cl  Cl3  1  0.00000  0.50000  0.00000  1
 Cl  Cl4  1  0.50000  -0.00000  -0.00000  1
 Mn  Mn1  1  0.00000  0.00000  0.00000  1
 Rb  Rb1  1  0.35781  0.35781  0.71563  1
 Rb  Rb2  1  0.64219  0.64219  0.28437  1
