CIF file written using JARVIS-Tools package.
data_CuSe2O5
_symmetry_space_group_name_H-M  'C2/c'
_cell_length_a       5.04446
_cell_length_b       6.62672
_cell_length_c       7.82002
_cell_angle_alpha    110.026
_cell_angle_beta     90
_cell_angle_gamma    112.372

_symmetry_Int_Tables_number  15
_chemical_formula_structural  CuSe2O5
_chemical_formula_sum  Cu2Se4O0
_cell_volume  224.54698384454835
_cell_formula_units_Z  2
loop_
  _symmetry_equiv_pos_site_id
 _symmetry_equiv_pos_as_xyz
 1  'x, y, z'
loop_
 _atom_site_type_symbol
 _atom_site_label
 _atom_site_symmetry_multiplicity
 _atom_site_fract_x
 _atom_site_fract_y
 _atom_site_fract_z
 _atom_site_fract_occupancy
 Cu  Cu1  1  0.50000  0.00000  0.00000  1
 Cu  Cu2  1  0.50000  0.00000  0.50000  1
 O  O1  1  0.39937  0.25534  0.49370  1
 O  O2  1  0.14403  0.74466  0.00630  1
 O  O3  1  0.60063  0.74466  0.50630  1
 O  O4  1  0.85597  0.25534  0.99370  1
 O  O5  1  0.39746  0.25600  0.15197  1
 O  O6  1  0.14145  0.74400  0.34803  1
 O  O7  1  0.11502  -0.00000  0.75000  1
 O  O8  1  0.88498  0.00000  0.25000  1
 O  O9  1  0.85855  0.25600  0.65197  1
 O  O10  1  0.60254  0.74400  0.84803  1
 Se  Se1  1  0.20708  0.28684  0.33112  1
 Se  Se2  1  0.92024  0.71316  0.16888  1
 Se  Se3  1  0.79292  0.71316  0.66888  1
 Se  Se4  1  0.07976  0.28684  0.83112  1
