CIF file written using JARVIS-Tools package.
data_KAuC2N2
_symmetry_space_group_name_H-M  'R-3'
_cell_length_a       9.88604
_cell_length_b       9.88604
_cell_length_c       9.88604
_cell_angle_alpha    41.942
_cell_angle_beta     41.942
_cell_angle_gamma    41.942

_symmetry_Int_Tables_number  148
_chemical_formula_structural  KAuC2N2
_chemical_formula_sum  K3Au3C6N6
_cell_volume  390.3948522270262
_cell_formula_units_Z  3
loop_
  _symmetry_equiv_pos_site_id
 _symmetry_equiv_pos_as_xyz
 1  'x, y, z'
loop_
 _atom_site_type_symbol
 _atom_site_label
 _atom_site_symmetry_multiplicity
 _atom_site_fract_x
 _atom_site_fract_y
 _atom_site_fract_z
 _atom_site_fract_occupancy
 Au  Au1  1  -0.00000  -0.00000  0.50000  1
 Au  Au2  1  0.50000  -0.00000  0.00000  1
 Au  Au3  1  0.00000  0.50000  0.00000  1
 C  C1  1  0.43793  0.02165  0.83337  1
 C  C2  1  0.16663  0.56207  0.97835  1
 C  C3  1  0.83337  0.43793  0.02165  1
 C  C4  1  0.97835  0.16663  0.56207  1
 C  C5  1  0.56207  0.97835  0.16663  1
 C  C6  1  0.02165  0.83337  0.43793  1
 K  K1  1  0.65716  0.65716  0.65716  1
 K  K2  1  0.00000  0.00000  0.00000  1
 K  K3  1  0.34284  0.34284  0.34284  1
 N  N1  1  0.96774  0.26344  0.59893  1
 N  N2  1  0.73656  0.40107  0.03226  1
 N  N3  1  0.03226  0.73656  0.40107  1
 N  N4  1  0.40107  0.03226  0.73656  1
 N  N5  1  0.26344  0.59893  0.96774  1
 N  N6  1  0.59893  0.96774  0.26344  1
