CIF file written using JARVIS-Tools package.
data_Nb5Se4
_symmetry_space_group_name_H-M  'I4/m'
_cell_length_a       3.47423
_cell_length_b       7.27839
_cell_length_c       7.27839
_cell_angle_alpha    86.7346
_cell_angle_beta     76.1922
_cell_angle_gamma    76.1921

_symmetry_Int_Tables_number  87
_chemical_formula_structural  Nb5Se4
_chemical_formula_sum  Nb5Se4
_cell_volume  173.5635847833206
_cell_formula_units_Z  1
loop_
  _symmetry_equiv_pos_site_id
 _symmetry_equiv_pos_as_xyz
 1  'x, y, z'
loop_
 _atom_site_type_symbol
 _atom_site_label
 _atom_site_symmetry_multiplicity
 _atom_site_fract_x
 _atom_site_fract_y
 _atom_site_fract_z
 _atom_site_fract_occupancy
 Nb  Nb1  1  0.69439  0.93255  0.67868  1
 Nb  Nb2  1  0.37306  0.32132  0.93255  1
 Nb  Nb3  1  0.62694  0.67868  0.06745  1
 Nb  Nb4  1  0.30561  0.06745  0.32132  1
 Nb  Nb5  1  0.00000  0.00000  0.00000  1
 Se  Se1  1  0.94246  0.77457  0.34050  1
 Se  Se2  1  0.28297  0.65950  0.77457  1
 Se  Se3  1  0.71703  0.34050  0.22543  1
 Se  Se4  1  0.05754  0.22543  0.65950  1
