CIF file written using JARVIS-Tools package.
data_Li3FeB2O6
_symmetry_space_group_name_H-M  'P-1'
_cell_length_a       5.01254
_cell_length_b       6.178
_cell_length_c       7.907
_cell_angle_alpha    75.9057
_cell_angle_beta     89.577
_cell_angle_gamma    89.7314

_symmetry_Int_Tables_number  2
_chemical_formula_structural  Li3FeB2O6
_chemical_formula_sum  Li6Fe2B4O2
_cell_volume  237.4808482042018
_cell_formula_units_Z  2
loop_
  _symmetry_equiv_pos_site_id
 _symmetry_equiv_pos_as_xyz
 1  'x, y, z'
loop_
 _atom_site_type_symbol
 _atom_site_label
 _atom_site_symmetry_multiplicity
 _atom_site_fract_x
 _atom_site_fract_y
 _atom_site_fract_z
 _atom_site_fract_occupancy
 B  B1  1  0.66673  0.66802  0.07700  1
 B  B2  1  0.83462  0.82321  0.41807  1
 B  B3  1  0.16908  0.17794  0.58626  1
 B  B4  1  0.33697  0.33314  0.92734  1
 Fe  Fe1  1  0.65524  0.04973  0.77190  1
 Fe  Fe2  1  0.34845  0.95142  0.23244  1
 Li  Li1  1  0.17284  0.76364  0.89099  1
 Li  Li2  1  0.67793  0.39798  0.42972  1
 Li  Li3  1  0.17604  0.46946  0.24077  1
 Li  Li4  1  0.32576  0.60319  0.57463  1
 Li  Li5  1  0.82766  0.53169  0.76357  1
 Li  Li6  1  0.83084  0.23751  0.11335  1
 O  O1  1  0.88945  0.17869  0.59211  1
 O  O2  1  0.30468  0.33169  0.46637  1
 O  O3  1  0.79780  0.50765  0.19253  1
 O  O4  1  0.60691  0.27717  0.90192  1
 O  O5  1  0.20590  0.49350  0.81181  1
 O  O6  1  0.69902  0.66947  0.53797  1
 O  O7  1  0.11425  0.82247  0.41223  1
 O  O8  1  0.78771  0.78027  0.91903  1
 O  O9  1  0.21599  0.22089  0.08532  1
 O  O10  1  0.29671  0.01640  0.71727  1
 O  O11  1  0.39679  0.72398  0.10242  1
 O  O12  1  0.70698  0.98474  0.28706  1
