CIF file written using JARVIS-Tools package.
data_Ca3WO6
_symmetry_space_group_name_H-M  'R-3'
_cell_length_a       6.55801
_cell_length_b       6.558
_cell_length_c       6.55801
_cell_angle_alpha    91.7163
_cell_angle_beta     91.7163
_cell_angle_gamma    91.7163

_symmetry_Int_Tables_number  148
_chemical_formula_structural  Ca3WO6
_chemical_formula_sum  Ca6W2O2
_cell_volume  281.65570474123524
_cell_formula_units_Z  2
loop_
  _symmetry_equiv_pos_site_id
 _symmetry_equiv_pos_as_xyz
 1  'x, y, z'
loop_
 _atom_site_type_symbol
 _atom_site_label
 _atom_site_symmetry_multiplicity
 _atom_site_fract_x
 _atom_site_fract_y
 _atom_site_fract_z
 _atom_site_fract_occupancy
 Ca  Ca1  1  0.06659  0.56450  0.25288  1
 Ca  Ca2  1  0.25288  0.06659  0.56450  1
 Ca  Ca3  1  0.43550  0.74712  0.93341  1
 Ca  Ca4  1  0.56450  0.25288  0.06659  1
 Ca  Ca5  1  0.74712  0.93341  0.43550  1
 Ca  Ca6  1  0.93341  0.43550  0.74712  1
 O  O1  1  0.06238  0.71749  0.93002  1
 O  O2  1  0.93002  0.06238  0.71749  1
 O  O3  1  0.21720  0.42164  0.54734  1
 O  O4  1  0.28251  0.06998  0.93762  1
 O  O5  1  0.06998  0.93762  0.28251  1
 O  O6  1  0.45266  0.78280  0.57836  1
 O  O7  1  0.71749  0.93002  0.06238  1
 O  O8  1  0.57836  0.45266  0.78280  1
 O  O9  1  0.42164  0.54734  0.21720  1
 O  O10  1  0.78280  0.57836  0.45266  1
 O  O11  1  0.54734  0.21720  0.42164  1
 O  O12  1  0.93762  0.28251  0.06998  1
 W  W1  1  0.50000  0.50000  0.50000  1
 W  W2  1  0.00000  0.00000  0.00000  1
