CIF file written using JARVIS-Tools package.
data_FeSe
_symmetry_space_group_name_H-M  'Cmcm'
_cell_length_a       4.35456
_cell_length_b       4.86245
_cell_length_c       6.47123
_cell_angle_alpha    90
_cell_angle_beta     90
_cell_angle_gamma    90

_symmetry_Int_Tables_number  63
_chemical_formula_structural  FeSe
_chemical_formula_sum  Fe4Se4
_cell_volume  137.02079338839593
_cell_formula_units_Z  4
loop_
  _symmetry_equiv_pos_site_id
 _symmetry_equiv_pos_as_xyz
 1  'x, y, z'
loop_
 _atom_site_type_symbol
 _atom_site_label
 _atom_site_symmetry_multiplicity
 _atom_site_fract_x
 _atom_site_fract_y
 _atom_site_fract_z
 _atom_site_fract_occupancy
 Fe  Fe1  1  0.25000  -0.00020  0.10195  1
 Fe  Fe2  1  0.25000  0.50020  0.60195  1
 Fe  Fe3  1  0.75000  0.00020  0.89805  1
 Fe  Fe4  1  0.75000  0.49980  0.39805  1
 Se  Se1  1  0.25000  0.49983  0.21990  1
 Se  Se2  1  0.25000  0.00017  0.71990  1
 Se  Se3  1  0.75000  0.50017  0.78010  1
 Se  Se4  1  0.75000  -0.00017  0.28010  1
