CIF file written using JARVIS-Tools package.
data_YB4Os
_symmetry_space_group_name_H-M  'Pbam'
_cell_length_a       3.59606
_cell_length_b       5.96985
_cell_length_c       11.5512
_cell_angle_alpha    90
_cell_angle_beta     90
_cell_angle_gamma    90

_symmetry_Int_Tables_number  55
_chemical_formula_structural  YB4Os
_chemical_formula_sum  Y4B6Os4
_cell_volume  247.97958170058607
_cell_formula_units_Z  4
loop_
  _symmetry_equiv_pos_site_id
 _symmetry_equiv_pos_as_xyz
 1  'x, y, z'
loop_
 _atom_site_type_symbol
 _atom_site_label
 _atom_site_symmetry_multiplicity
 _atom_site_fract_x
 _atom_site_fract_y
 _atom_site_fract_z
 _atom_site_fract_occupancy
 B  B1  1  0.50000  0.38774  0.95338  1
 B  B2  1  0.50000  0.36370  0.52973  1
 B  B3  1  0.50000  0.63630  0.47027  1
 B  B4  1  0.50000  0.13630  0.02973  1
 B  B5  1  0.50000  0.86370  0.97027  1
 B  B6  1  0.50000  0.71051  0.31417  1
 B  B7  1  0.50000  0.61226  0.04662  1
 B  B8  1  0.50000  0.11226  0.45338  1
 B  B9  1  0.50000  0.88774  0.54662  1
 B  B10  1  0.50000  0.47421  0.80867  1
 B  B11  1  0.50000  0.52579  0.19133  1
 B  B12  1  0.50000  0.02579  0.30867  1
 B  B13  1  0.50000  0.97421  0.69133  1
 B  B14  1  0.50000  0.28949  0.68583  1
 B  B15  1  0.50000  0.78949  0.81417  1
 B  B16  1  0.50000  0.21051  0.18583  1
 Os  Os1  1  0.00000  0.14165  0.59397  1
 Os  Os2  1  0.00000  0.85835  0.40603  1
 Os  Os3  1  0.00000  0.64165  0.90603  1
 Os  Os4  1  0.00000  0.35835  0.09397  1
 Y  Y1  1  0.00000  0.62843  0.64997  1
 Y  Y2  1  0.00000  0.37157  0.35003  1
 Y  Y3  1  0.00000  0.87157  0.14997  1
 Y  Y4  1  0.00000  0.12843  0.85003  1
