CIF file written using JARVIS-Tools package.
data_Ag3Te2Au
_symmetry_space_group_name_H-M  'I4_132'
_cell_length_a       9.05833
_cell_length_b       9.05833
_cell_length_c       9.05833
_cell_angle_alpha    109.471
_cell_angle_beta     109.471
_cell_angle_gamma    109.471

_symmetry_Int_Tables_number  214
_chemical_formula_structural  Ag3Te2Au
_chemical_formula_sum  Ag2Te8Au4
_cell_volume  572.1658184988914
_cell_formula_units_Z  4
loop_
  _symmetry_equiv_pos_site_id
 _symmetry_equiv_pos_as_xyz
 1  'x, y, z'
loop_
 _atom_site_type_symbol
 _atom_site_label
 _atom_site_symmetry_multiplicity
 _atom_site_fract_x
 _atom_site_fract_y
 _atom_site_fract_z
 _atom_site_fract_occupancy
 Ag  Ag1  1  0.35750  0.10750  0.75000  1
 Ag  Ag2  1  0.14250  0.39250  0.25000  1
 Ag  Ag3  1  0.60750  0.25000  0.35750  1
 Ag  Ag4  1  0.89250  0.75000  0.14250  1
 Ag  Ag5  1  0.25000  0.64250  0.89250  1
 Ag  Ag6  1  0.75000  0.39250  0.14250  1
 Ag  Ag7  1  0.75000  0.85750  0.60750  1
 Ag  Ag8  1  0.14250  0.25000  0.89250  1
 Ag  Ag9  1  0.60750  0.85750  0.25000  1
 Ag  Ag10  1  0.89250  0.64250  0.75000  1
 Ag  Ag11  1  0.25000  0.10750  0.35750  1
 Ag  Ag12  1  0.35750  0.75000  0.60750  1
 Au  Au1  1  0.25000  0.75000  0.25000  1
 Au  Au2  1  0.50000  0.50000  0.25000  1
 Au  Au3  1  0.00000  0.75000  0.50000  1
 Au  Au4  1  0.25000  0.00000  0.00000  1
 Te  Te1  1  0.54505  0.04505  0.54505  1
 Te  Te2  1  0.95495  0.45495  0.95495  1
 Te  Te3  1  0.00000  0.45495  0.50000  1
 Te  Te4  1  0.50000  0.50000  0.95495  1
 Te  Te5  1  0.54505  0.00000  0.00000  1
 Te  Te6  1  0.95495  -0.00000  -0.00000  1
 Te  Te7  1  -0.00000  0.04505  0.50000  1
 Te  Te8  1  0.50000  0.50000  0.54505  1
