CIF file written using JARVIS-Tools package.
data_InSe
_symmetry_space_group_name_H-M  'P-6m2'
_cell_length_a       4.07773
_cell_length_b       4.07773
_cell_length_c       16.8188
_cell_angle_alpha    90
_cell_angle_beta     90
_cell_angle_gamma    119.998

_symmetry_Int_Tables_number  187
_chemical_formula_structural  InSe
_chemical_formula_sum  In4Se4
_cell_volume  242.19964480676953
_cell_formula_units_Z  4
loop_
  _symmetry_equiv_pos_site_id
 _symmetry_equiv_pos_as_xyz
 1  'x, y, z'
loop_
 _atom_site_type_symbol
 _atom_site_label
 _atom_site_symmetry_multiplicity
 _atom_site_fract_x
 _atom_site_fract_y
 _atom_site_fract_z
 _atom_site_fract_occupancy
 In  In1  1  0.66662  0.33338  0.41636  1
 In  In2  1  0.66662  0.33338  0.58364  1
 In  In3  1  0.00004  0.99996  0.08363  1
 In  In4  1  0.00004  0.99996  0.91637  1
 Se  Se1  1  0.33337  0.66663  0.15965  1
 Se  Se2  1  0.33337  0.66663  0.84035  1
 Se  Se3  1  -0.00003  0.00003  0.34043  1
 Se  Se4  1  -0.00003  0.00003  0.65957  1
