CIF file written using JARVIS-Tools package.
data_Tb2B2C3
_symmetry_space_group_name_H-M  'Cmmm'
_cell_length_a       3.3879
_cell_length_b       3.70836
_cell_length_c       6.84002
_cell_angle_alpha    90
_cell_angle_beta     104.339
_cell_angle_gamma    90

_symmetry_Int_Tables_number  65
_chemical_formula_structural  Tb2B2C3
_chemical_formula_sum  Tb2B2C3
_cell_volume  83.25794555422
_cell_formula_units_Z  1
loop_
  _symmetry_equiv_pos_site_id
 _symmetry_equiv_pos_as_xyz
 1  'x, y, z'
loop_
 _atom_site_type_symbol
 _atom_site_label
 _atom_site_symmetry_multiplicity
 _atom_site_fract_x
 _atom_site_fract_y
 _atom_site_fract_z
 _atom_site_fract_occupancy
 B  B1  1  0.71678  0.50000  0.43356  1
 B  B2  1  0.28322  0.50000  0.56644  1
 C  C1  1  0.39942  0.50000  0.79883  1
 C  C2  1  0.50000  0.50000  0.00000  1
 C  C3  1  0.60058  0.50000  0.20117  1
 Tb  Tb1  1  0.86369  0.00000  0.72738  1
 Tb  Tb2  1  0.13631  0.00000  0.27262  1
