CIF file written using JARVIS-Tools package.
data_CuBr2N6
_symmetry_space_group_name_H-M  'Fm-3m'
_cell_length_a       5.73903
_cell_length_b       5.73903
_cell_length_c       5.73903
_cell_angle_alpha    60
_cell_angle_beta     60
_cell_angle_gamma    60

_symmetry_Int_Tables_number  225
_chemical_formula_structural  CuBr2N6
_chemical_formula_sum  CuBr2N6
_cell_volume  133.65978358793947
_cell_formula_units_Z  1
loop_
  _symmetry_equiv_pos_site_id
 _symmetry_equiv_pos_as_xyz
 1  'x, y, z'
loop_
 _atom_site_type_symbol
 _atom_site_label
 _atom_site_symmetry_multiplicity
 _atom_site_fract_x
 _atom_site_fract_y
 _atom_site_fract_z
 _atom_site_fract_occupancy
 Br  Br1  1  0.25000  0.25000  0.25000  1
 Br  Br2  1  0.75000  0.75000  0.75000  1
 Cu  Cu1  1  0.00000  0.00000  0.00000  1
 N  N1  1  0.65075  0.34925  0.34925  1
 N  N2  1  0.65075  0.34925  0.65075  1
 N  N3  1  0.65075  0.65075  0.34925  1
 N  N4  1  0.34925  0.65075  0.65075  1
 N  N5  1  0.34925  0.65075  0.34925  1
 N  N6  1  0.34925  0.34925  0.65075  1
