CIF file written using JARVIS-Tools package.
data_Ca3In2As4
_symmetry_space_group_name_H-M  'Pnnm'
_cell_length_a       4.36552
_cell_length_b       6.61168
_cell_length_c       16.1721
_cell_angle_alpha    90
_cell_angle_beta     90
_cell_angle_gamma    90

_symmetry_Int_Tables_number  58
_chemical_formula_structural  Ca3In2As4
_chemical_formula_sum  Ca6In4As8
_cell_volume  466.78230673764335
_cell_formula_units_Z  2
loop_
  _symmetry_equiv_pos_site_id
 _symmetry_equiv_pos_as_xyz
 1  'x, y, z'
loop_
 _atom_site_type_symbol
 _atom_site_label
 _atom_site_symmetry_multiplicity
 _atom_site_fract_x
 _atom_site_fract_y
 _atom_site_fract_z
 _atom_site_fract_occupancy
 As  As1  1  0.50000  0.27591  0.67451  1
 As  As2  1  0.50000  0.72409  0.32549  1
 As  As3  1  0.00000  0.26086  0.42821  1
 As  As4  1  0.00000  0.22409  0.17451  1
 As  As5  1  0.50000  0.76086  0.07179  1
 As  As6  1  0.50000  0.23914  0.92821  1
 As  As7  1  0.00000  0.73914  0.57179  1
 As  As8  1  0.00000  0.77591  0.82549  1
 Ca  Ca1  1  0.00000  0.28090  0.80488  1
 Ca  Ca2  1  0.50000  0.50000  0.50000  1
 Ca  Ca3  1  0.00000  0.00000  0.00000  1
 Ca  Ca4  1  0.50000  0.21910  0.30488  1
 Ca  Ca5  1  0.00000  0.71910  0.19512  1
 Ca  Ca6  1  0.50000  0.78090  0.69512  1
 In  In1  1  0.50000  0.35809  0.08894  1
 In  In2  1  0.50000  0.64191  0.91106  1
 In  In3  1  0.00000  0.14191  0.58894  1
 In  In4  1  0.00000  0.85809  0.41106  1
