CIF file written using JARVIS-Tools package.
data_Hf4CuSi4
_symmetry_space_group_name_H-M  'C2/m'
_cell_length_a       3.76516
_cell_length_b       5.22049
_cell_length_c       8.6057
_cell_angle_alpha    73.462
_cell_angle_beta     77.3638
_cell_angle_gamma    68.8621

_symmetry_Int_Tables_number  12
_chemical_formula_structural  Hf4CuSi4
_chemical_formula_sum  Hf4CuSi4
_cell_volume  149.96424182723788
_cell_formula_units_Z  1
loop_
  _symmetry_equiv_pos_site_id
 _symmetry_equiv_pos_as_xyz
 1  'x, y, z'
loop_
 _atom_site_type_symbol
 _atom_site_label
 _atom_site_symmetry_multiplicity
 _atom_site_fract_x
 _atom_site_fract_y
 _atom_site_fract_z
 _atom_site_fract_occupancy
 Cu  Cu1  1  0.00000  0.00000  0.00000  1
 Hf  Hf1  1  0.10764  0.16521  0.61951  1
 Hf  Hf2  1  0.89236  0.83479  0.38049  1
 Hf  Hf3  1  0.75336  0.65060  0.84268  1
 Hf  Hf4  1  0.24664  0.34940  0.15732  1
 Si  Si1  1  0.38338  0.62009  0.61315  1
 Si  Si2  1  0.61662  0.37991  0.38685  1
 Si  Si3  1  0.46207  0.22636  0.84950  1
 Si  Si4  1  0.53793  0.77364  0.15050  1
