CIF file written using JARVIS-Tools package.
data_BeSn2Ge
_symmetry_space_group_name_H-M  'I-4m2'
_cell_length_a       6.01262
_cell_length_b       6.01262
_cell_length_c       6.01262
_cell_angle_alpha    140.486
_cell_angle_beta     140.486
_cell_angle_gamma    57.1159

_symmetry_Int_Tables_number  119
_chemical_formula_structural  BeSn2Ge
_chemical_formula_sum  BeSn2Ge
_cell_volume  87.26126593523807
_cell_formula_units_Z  1
loop_
  _symmetry_equiv_pos_site_id
 _symmetry_equiv_pos_as_xyz
 1  'x, y, z'
loop_
 _atom_site_type_symbol
 _atom_site_label
 _atom_site_symmetry_multiplicity
 _atom_site_fract_x
 _atom_site_fract_y
 _atom_site_fract_z
 _atom_site_fract_occupancy
 Be  Be1  1  0.50000  0.50000  0.00000  1
 Ge  Ge1  1  0.75000  0.25000  0.50000  1
 Sn  Sn1  1  0.00000  0.00000  0.00000  1
 Sn  Sn2  1  0.25000  0.75000  0.50000  1
