CIF file written using JARVIS-Tools package.
data_V5Se4
_symmetry_space_group_name_H-M  'I4/m'
_cell_length_a       3.36435
_cell_length_b       6.78985
_cell_length_c       6.78985
_cell_angle_alpha    86.481
_cell_angle_beta     75.6556
_cell_angle_gamma    75.6556

_symmetry_Int_Tables_number  87
_chemical_formula_structural  V5Se4
_chemical_formula_sum  V5Se4
_cell_volume  145.58335978044667
_cell_formula_units_Z  1
loop_
  _symmetry_equiv_pos_site_id
 _symmetry_equiv_pos_as_xyz
 1  'x, y, z'
loop_
 _atom_site_type_symbol
 _atom_site_label
 _atom_site_symmetry_multiplicity
 _atom_site_fract_x
 _atom_site_fract_y
 _atom_site_fract_z
 _atom_site_fract_occupancy
 Se  Se1  1  0.72235  0.34087  0.21443  1
 Se  Se2  1  0.27765  0.65913  0.78557  1
 Se  Se3  1  0.06322  0.21443  0.65913  1
 Se  Se4  1  0.93678  0.78557  0.34087  1
 V  V1  1  0.00000  0.00000  0.00000  1
 V  V2  1  0.61759  0.69150  0.07332  1
 V  V3  1  0.38241  0.30850  0.92668  1
 V  V4  1  0.30909  0.07332  0.30850  1
 V  V5  1  0.69091  0.92668  0.69150  1
