CIF file written using JARVIS-Tools package.
data_As8S9
_symmetry_space_group_name_H-M  'P2/c'
_cell_length_a       9.17847
_cell_length_b       9.70747
_cell_length_c       9.93598
_cell_angle_alpha    90
_cell_angle_beta     102.658
_cell_angle_gamma    90

_symmetry_Int_Tables_number  13
_chemical_formula_structural  As8S9
_chemical_formula_sum  As6S8
_cell_volume  863.7757225821682
_cell_formula_units_Z  2
loop_
  _symmetry_equiv_pos_site_id
 _symmetry_equiv_pos_as_xyz
 1  'x, y, z'
loop_
 _atom_site_type_symbol
 _atom_site_label
 _atom_site_symmetry_multiplicity
 _atom_site_fract_x
 _atom_site_fract_y
 _atom_site_fract_z
 _atom_site_fract_occupancy
 As  As1  1  0.17754  0.02418  0.37238  1
 As  As2  1  0.93859  0.67683  0.43716  1
 As  As3  1  0.32246  0.02418  0.62762  1
 As  As4  1  0.82246  0.97582  0.62762  1
 As  As5  1  0.67754  0.97582  0.37238  1
 As  As6  1  0.06141  0.32317  0.56284  1
 As  As7  1  0.56141  0.67683  0.56284  1
 As  As8  1  0.35853  0.57955  0.17102  1
 As  As9  1  0.43859  0.32317  0.43716  1
 As  As10  1  0.64147  0.42045  0.82898  1
 As  As11  1  0.14147  0.57955  0.82898  1
 As  As12  1  0.94832  0.22525  0.02141  1
 As  As13  1  0.55168  0.22525  0.97859  1
 As  As14  1  0.05168  0.77475  0.97859  1
 As  As15  1  0.44832  0.77475  0.02141  1
 As  As16  1  0.85853  0.42045  0.17102  1
 S  S1  1  0.32245  0.16775  0.27596  1
 S  S2  1  0.25000  0.92092  -0.00000  1
 S  S3  1  0.51823  0.16631  0.61077  1
 S  S4  1  0.01823  0.83369  0.61077  1
 S  S5  1  0.48177  0.83369  0.38923  1
 S  S6  1  0.25000  0.44569  0.50000  1
 S  S7  1  0.75000  0.55431  0.50000  1
 S  S8  1  0.98177  0.16631  0.38923  1
 S  S9  1  0.82245  0.83225  0.27596  1
 S  S10  1  0.63660  0.32497  0.18796  1
 S  S11  1  0.86340  0.32497  0.81204  1
 S  S12  1  0.36340  0.67503  0.81204  1
 S  S13  1  0.13660  0.67503  0.18796  1
 S  S14  1  0.75000  0.56862  -0.00000  1
 S  S15  1  0.25000  0.43138  -0.00000  1
 S  S16  1  0.17755  0.16775  0.72404  1
 S  S17  1  0.67755  0.83225  0.72404  1
 S  S18  1  0.75000  0.07908  -0.00000  1
