CIF file written using JARVIS-Tools package.
data_B2O3
_symmetry_space_group_name_H-M  'P3_121'
_cell_length_a       4.36359
_cell_length_b       4.36359
_cell_length_c       8.35143
_cell_angle_alpha    90
_cell_angle_beta     90
_cell_angle_gamma    120

_symmetry_Int_Tables_number  152
_chemical_formula_structural  B2O3
_chemical_formula_sum  B6O9
_cell_volume  137.71446340176996
_cell_formula_units_Z  3
loop_
  _symmetry_equiv_pos_site_id
 _symmetry_equiv_pos_as_xyz
 1  'x, y, z'
loop_
 _atom_site_type_symbol
 _atom_site_label
 _atom_site_symmetry_multiplicity
 _atom_site_fract_x
 _atom_site_fract_y
 _atom_site_fract_z
 _atom_site_fract_occupancy
 B  B1  1  0.43306  0.49544  0.01611  1
 B  B2  1  0.50456  0.93762  0.34944  1
 B  B3  1  0.06238  0.56694  0.68277  1
 B  B4  1  0.90026  0.72902  0.23256  1
 B  B5  1  0.27098  0.17124  0.56590  1
 B  B6  1  0.82876  0.09974  0.89923  1
 O  O1  1  0.11630  0.18460  0.99592  1
 O  O2  1  0.81540  0.93169  0.32926  1
 O  O3  1  0.06831  0.88370  0.66259  1
 O  O4  1  0.66667  0.48947  0.12433  1
 O  O5  1  0.51053  0.17720  0.45766  1
 O  O6  1  0.82280  0.33333  0.79099  1
 O  O7  1  0.26506  0.48209  0.58608  1
 O  O8  1  0.51791  0.78297  0.91941  1
 O  O9  1  0.21703  0.73494  0.25274  1
