CIF file written using JARVIS-Tools package.
data_HoSI
_symmetry_space_group_name_H-M  'Pmmn'
_cell_length_a       4.14835
_cell_length_b       5.32749
_cell_length_c       9.11668
_cell_angle_alpha    90
_cell_angle_beta     90
_cell_angle_gamma    90

_symmetry_Int_Tables_number  59
_chemical_formula_structural  HoSI
_chemical_formula_sum  Ho2S2I2
_cell_volume  201.481148489776
_cell_formula_units_Z  2
loop_
  _symmetry_equiv_pos_site_id
 _symmetry_equiv_pos_as_xyz
 1  'x, y, z'
loop_
 _atom_site_type_symbol
 _atom_site_label
 _atom_site_symmetry_multiplicity
 _atom_site_fract_x
 _atom_site_fract_y
 _atom_site_fract_z
 _atom_site_fract_occupancy
 Ho  Ho1  1  0.75000  0.75000  0.87842  1
 Ho  Ho2  1  0.25000  0.25000  0.12158  1
 I  I1  1  0.75000  0.25000  0.36241  1
 I  I2  1  0.25000  0.75000  0.63759  1
 S  S1  1  0.75000  0.25000  0.92683  1
 S  S2  1  0.25000  0.75000  0.07317  1
