CIF file written using JARVIS-Tools package.
data_MnBeCd
_symmetry_space_group_name_H-M  'I4mm'
_cell_length_a       5.64009
_cell_length_b       5.64009
_cell_length_c       5.64009
_cell_angle_alpha    151.243
_cell_angle_beta     151.243
_cell_angle_gamma    41.1194

_symmetry_Int_Tables_number  107
_chemical_formula_structural  MnBeCd
_chemical_formula_sum  MnBeCd
_cell_volume  41.43554828611234
_cell_formula_units_Z  1
loop_
  _symmetry_equiv_pos_site_id
 _symmetry_equiv_pos_as_xyz
 1  'x, y, z'
loop_
 _atom_site_type_symbol
 _atom_site_label
 _atom_site_symmetry_multiplicity
 _atom_site_fract_x
 _atom_site_fract_y
 _atom_site_fract_z
 _atom_site_fract_occupancy
 Be  Be1  1  0.02039  0.02039  -0.00000  1
 Cd  Cd1  1  0.33971  0.33971  0.00000  1
 Mn  Mn1  1  0.63990  0.63990  -0.00000  1
