CIF file written using JARVIS-Tools package.
data_MgBeIn
_symmetry_space_group_name_H-M  'I4mm'
_cell_length_a       6.4467
_cell_length_b       6.4467
_cell_length_c       6.4467
_cell_angle_alpha    152.849
_cell_angle_beta     152.849
_cell_angle_gamma    38.7755

_symmetry_Int_Tables_number  107
_chemical_formula_structural  MgBeIn
_chemical_formula_sum  MgBeIn
_cell_volume  55.7004729160267
_cell_formula_units_Z  1
loop_
  _symmetry_equiv_pos_site_id
 _symmetry_equiv_pos_as_xyz
 1  'x, y, z'
loop_
 _atom_site_type_symbol
 _atom_site_label
 _atom_site_symmetry_multiplicity
 _atom_site_fract_x
 _atom_site_fract_y
 _atom_site_fract_z
 _atom_site_fract_occupancy
 Be  Be1  1  0.00475  0.00475  -0.00000  1
 In  In1  1  0.35301  0.35301  -0.00000  1
 Mg  Mg1  1  0.64225  0.64225  0.00000  1
