CIF file written using JARVIS-Tools package.
data_BeNiIr
_symmetry_space_group_name_H-M  'I4mm'
_cell_length_a       4.86937
_cell_length_b       4.86937
_cell_length_c       4.86937
_cell_angle_alpha    147.49
_cell_angle_beta     147.49
_cell_angle_gamma    46.6392

_symmetry_Int_Tables_number  107
_chemical_formula_structural  BeNiIr
_chemical_formula_sum  BeNiIr
_cell_volume  33.2290750034439
_cell_formula_units_Z  1
loop_
  _symmetry_equiv_pos_site_id
 _symmetry_equiv_pos_as_xyz
 1  'x, y, z'
loop_
 _atom_site_type_symbol
 _atom_site_label
 _atom_site_symmetry_multiplicity
 _atom_site_fract_x
 _atom_site_fract_y
 _atom_site_fract_z
 _atom_site_fract_occupancy
 Be  Be1  1  0.00424  0.00424  0.00000  1
 Ir  Ir1  1  0.34830  0.34830  0.00000  1
 Ni  Ni1  1  0.64745  0.64745  -0.00000  1
