CIF file written using JARVIS-Tools package.
data_DyCrB4
_symmetry_space_group_name_H-M  'Pbam'
_cell_length_a       3.46328
_cell_length_b       5.917
_cell_length_c       11.4344
_cell_angle_alpha    90
_cell_angle_beta     90
_cell_angle_gamma    90

_symmetry_Int_Tables_number  55
_chemical_formula_structural  DyCrB4
_chemical_formula_sum  Dy4Cr4B6
_cell_volume  234.31711422666137
_cell_formula_units_Z  4
loop_
  _symmetry_equiv_pos_site_id
 _symmetry_equiv_pos_as_xyz
 1  'x, y, z'
loop_
 _atom_site_type_symbol
 _atom_site_label
 _atom_site_symmetry_multiplicity
 _atom_site_fract_x
 _atom_site_fract_y
 _atom_site_fract_z
 _atom_site_fract_occupancy
 B  B1  1  0.50000  0.11323  0.45322  1
 B  B2  1  0.50000  0.28009  0.68391  1
 B  B3  1  0.50000  0.71991  0.31609  1
 B  B4  1  0.50000  0.21991  0.18391  1
 B  B5  1  0.50000  0.02521  0.30844  1
 B  B6  1  0.50000  0.36253  0.53251  1
 B  B7  1  0.50000  0.63747  0.46749  1
 B  B8  1  0.50000  0.78009  0.81609  1
 B  B9  1  0.50000  0.86253  0.96749  1
 B  B10  1  0.50000  0.38677  0.95322  1
 B  B11  1  0.50000  0.61323  0.04678  1
 B  B12  1  0.50000  0.97479  0.69156  1
 B  B13  1  0.50000  0.88677  0.54678  1
 B  B14  1  0.50000  0.47479  0.80844  1
 B  B15  1  0.50000  0.52521  0.19156  1
 B  B16  1  0.50000  0.13747  0.03251  1
 Cr  Cr1  1  0.00000  0.62154  0.92088  1
 Cr  Cr2  1  0.00000  0.37846  0.07912  1
 Cr  Cr3  1  0.00000  0.87846  0.42088  1
 Cr  Cr4  1  0.00000  0.12154  0.57912  1
 Dy  Dy1  1  0.00000  0.62409  0.65071  1
 Dy  Dy2  1  0.00000  0.37591  0.34929  1
 Dy  Dy3  1  0.00000  0.87591  0.15071  1
 Dy  Dy4  1  0.00000  0.12409  0.84929  1
