CIF file written using JARVIS-Tools package.
data_LiBi3I2O4
_symmetry_space_group_name_H-M  'Cmcm'
_cell_length_a       5.63103
_cell_length_b       7.27221
_cell_length_c       11.2457
_cell_angle_alpha    90
_cell_angle_beta     90
_cell_angle_gamma    112.778

_symmetry_Int_Tables_number  63
_chemical_formula_structural  LiBi3I2O4
_chemical_formula_sum  Li2Bi6I4O8
_cell_volume  424.5988410689914
_cell_formula_units_Z  2
loop_
  _symmetry_equiv_pos_site_id
 _symmetry_equiv_pos_as_xyz
 1  'x, y, z'
loop_
 _atom_site_type_symbol
 _atom_site_label
 _atom_site_symmetry_multiplicity
 _atom_site_fract_x
 _atom_site_fract_y
 _atom_site_fract_z
 _atom_site_fract_occupancy
 Bi  Bi1  1  0.15794  0.31587  -0.00000  1
 Bi  Bi2  1  0.66543  0.33085  0.25560  1
 Bi  Bi3  1  0.33457  0.66915  0.24440  1
 Bi  Bi4  1  0.84206  0.68413  0.50000  1
 Bi  Bi5  1  0.66543  0.33085  0.74440  1
 Bi  Bi6  1  0.33457  0.66915  0.75560  1
 I  I1  1  0.49800  0.99600  0.50000  1
 I  I2  1  0.50200  0.00400  -0.00000  1
 I  I3  1  -0.00000  0.00000  0.75000  1
 I  I4  1  -0.00000  0.00000  0.25000  1
 Li  Li1  1  0.78506  0.57013  0.00000  1
 Li  Li2  1  0.21494  0.42987  0.50000  1
 O  O1  1  0.49199  0.48842  0.12600  1
 O  O2  1  0.99643  0.48842  0.12600  1
 O  O3  1  0.50801  0.51158  0.37400  1
 O  O4  1  0.00357  0.51158  0.37400  1
 O  O5  1  0.50801  0.51158  0.62600  1
 O  O6  1  0.49199  0.48842  0.87400  1
 O  O7  1  0.00357  0.51158  0.62600  1
 O  O8  1  0.99643  0.48842  0.87400  1
