CIF file written using JARVIS-Tools package.
data_Tc2As3
_symmetry_space_group_name_H-M  'P-1'
_cell_length_a       6.7106
_cell_length_b       6.71263
_cell_length_c       8.07623
_cell_angle_alpha    95.5733
_cell_angle_beta     101.69
_cell_angle_gamma    104.51

_symmetry_Int_Tables_number  2
_chemical_formula_structural  Tc2As3
_chemical_formula_sum  Tc8As2
_cell_volume  340.67001113210114
_cell_formula_units_Z  4
loop_
  _symmetry_equiv_pos_site_id
 _symmetry_equiv_pos_as_xyz
 1  'x, y, z'
loop_
 _atom_site_type_symbol
 _atom_site_label
 _atom_site_symmetry_multiplicity
 _atom_site_fract_x
 _atom_site_fract_y
 _atom_site_fract_z
 _atom_site_fract_occupancy
 As  As1  1  0.03237  0.19336  0.95003  1
 As  As2  1  0.26352  0.40627  0.65353  1
 As  As3  1  0.23531  0.56598  0.38513  1
 As  As4  1  0.76469  0.43402  0.61487  1
 As  As5  1  0.85879  0.12592  0.31384  1
 As  As6  1  0.14121  0.87408  0.68616  1
 As  As7  1  0.37192  0.15369  0.32007  1
 As  As8  1  0.62808  0.84631  0.67993  1
 As  As9  1  0.73648  0.59373  0.34647  1
 As  As10  1  0.45312  0.78923  0.03530  1
 As  As11  1  0.96763  0.80664  0.04997  1
 As  As12  1  0.54688  0.21077  0.96470  1
 Tc  Tc1  1  0.09067  0.87660  0.37608  1
 Tc  Tc2  1  0.91612  0.42670  0.14178  1
 Tc  Tc3  1  0.08388  0.57330  0.85822  1
 Tc  Tc4  1  0.36691  0.42984  0.13221  1
 Tc  Tc5  1  0.63309  0.57016  0.86779  1
 Tc  Tc6  1  0.53052  0.86436  0.36564  1
 Tc  Tc7  1  0.46948  0.13564  0.63436  1
 Tc  Tc8  1  0.90933  0.12340  0.62392  1
