CIF file written using JARVIS-Tools package.
data_HC
_symmetry_space_group_name_H-M  'I2_13'
_cell_length_a       3.73955
_cell_length_b       3.73955
_cell_length_c       3.73955
_cell_angle_alpha    109.471
_cell_angle_beta     109.471
_cell_angle_gamma    109.471

_symmetry_Int_Tables_number  199
_chemical_formula_structural  HC
_chemical_formula_sum  H4C4
_cell_volume  40.25630802234903
_cell_formula_units_Z  4
loop_
  _symmetry_equiv_pos_site_id
 _symmetry_equiv_pos_as_xyz
 1  'x, y, z'
loop_
 _atom_site_type_symbol
 _atom_site_label
 _atom_site_symmetry_multiplicity
 _atom_site_fract_x
 _atom_site_fract_y
 _atom_site_fract_z
 _atom_site_fract_occupancy
 C  C1  1  0.67694  0.00000  0.50000  1
 C  C2  1  0.50000  0.67694  -0.00000  1
 C  C3  1  -0.00000  0.50000  0.67694  1
 C  C4  1  0.82306  0.82306  0.82306  1
 H  H1  1  0.38606  0.00000  0.50000  1
 H  H2  1  0.50000  0.38606  0.00000  1
 H  H3  1  0.00000  0.50000  0.38606  1
 H  H4  1  0.11394  0.11394  0.11394  1
