CIF file written using JARVIS-Tools package.
data_Sc2BeRu
_symmetry_space_group_name_H-M  'I-4m2'
_cell_length_a       4.81693
_cell_length_b       4.81693
_cell_length_c       4.81693
_cell_angle_alpha    130.408
_cell_angle_beta     130.408
_cell_angle_gamma    72.755

_symmetry_Int_Tables_number  119
_chemical_formula_structural  Sc2BeRu
_chemical_formula_sum  Sc2BeRu
_cell_volume  63.30900950952393
_cell_formula_units_Z  1
loop_
  _symmetry_equiv_pos_site_id
 _symmetry_equiv_pos_as_xyz
 1  'x, y, z'
loop_
 _atom_site_type_symbol
 _atom_site_label
 _atom_site_symmetry_multiplicity
 _atom_site_fract_x
 _atom_site_fract_y
 _atom_site_fract_z
 _atom_site_fract_occupancy
 Be  Be1  1  0.50000  0.50000  0.00000  1
 Ru  Ru1  1  0.75000  0.25000  0.50000  1
 Sc  Sc1  1  0.00000  0.00000  0.00000  1
 Sc  Sc2  1  0.25000  0.75000  0.50000  1
