CIF file written using JARVIS-Tools package.
data_Eu2H6Ru
_symmetry_space_group_name_H-M  'Fm-3m'
_cell_length_a       5.09787
_cell_length_b       5.09799
_cell_length_c       5.09819
_cell_angle_alpha    59.9944
_cell_angle_beta     60.0004
_cell_angle_gamma    60.0006

_symmetry_Int_Tables_number  225
_chemical_formula_structural  Eu2H6Ru
_chemical_formula_sum  Eu2H6Ru
_cell_volume  93.68584141836622
_cell_formula_units_Z  1
loop_
  _symmetry_equiv_pos_site_id
 _symmetry_equiv_pos_as_xyz
 1  'x, y, z'
loop_
 _atom_site_type_symbol
 _atom_site_label
 _atom_site_symmetry_multiplicity
 _atom_site_fract_x
 _atom_site_fract_y
 _atom_site_fract_z
 _atom_site_fract_occupancy
 Eu  Eu1  1  0.75000  0.75001  0.74999  1
 Eu  Eu2  1  0.25000  0.24999  0.25001  1
 H  H1  1  0.24345  0.75655  0.75656  1
 H  H2  1  0.24349  0.24348  0.75652  1
 H  H3  1  0.24348  0.75653  0.24347  1
 H  H4  1  0.75655  0.24345  0.24344  1
 H  H5  1  0.75651  0.75652  0.24348  1
 H  H6  1  0.75652  0.24347  0.75653  1
 Ru  Ru1  1  0.00000  -0.00000  -0.00000  1
