CIF file written using JARVIS-Tools package.
data_HgH8C2Br3N
_symmetry_space_group_name_H-M  'P2_1/m'
_cell_length_a       6.40066
_cell_length_b       6.77463
_cell_length_c       10.1639
_cell_angle_alpha    96.198
_cell_angle_beta     90
_cell_angle_gamma    90

_symmetry_Int_Tables_number  11
_chemical_formula_structural  HgH8C2Br3N
_chemical_formula_sum  Hg2H6C4Br6N2
_cell_volume  438.1504997951448
_cell_formula_units_Z  2
loop_
  _symmetry_equiv_pos_site_id
 _symmetry_equiv_pos_as_xyz
 1  'x, y, z'
loop_
 _atom_site_type_symbol
 _atom_site_label
 _atom_site_symmetry_multiplicity
 _atom_site_fract_x
 _atom_site_fract_y
 _atom_site_fract_z
 _atom_site_fract_occupancy
 Br  Br1  1  0.75000  0.48000  0.37212  1
 Br  Br2  1  0.25000  0.02889  0.86885  1
 Br  Br3  1  0.75000  0.97111  0.13115  1
 Br  Br4  1  0.75000  0.43251  0.88665  1
 Br  Br5  1  0.25000  0.52000  0.62788  1
 Br  Br6  1  0.25000  0.56749  0.11335  1
 C  C1  1  0.75000  0.87042  0.64129  1
 C  C2  1  0.25000  0.12958  0.35871  1
 C  C3  1  0.25000  0.93416  0.41891  1
 C  C4  1  0.75000  0.06584  0.58109  1
 H  H1  1  0.11108  0.21942  0.38731  1
 H  H2  1  0.38952  0.84444  0.38984  1
 H  H3  1  0.11048  0.84444  0.38984  1
 H  H4  1  0.88302  0.97913  0.82612  1
 H  H5  1  0.75000  0.03579  0.47245  1
 H  H6  1  0.75000  0.76707  0.82922  1
 H  H7  1  0.25000  0.96421  0.52755  1
 H  H8  1  0.38892  0.21942  0.38731  1
 H  H9  1  0.61108  0.78058  0.61269  1
 H  H10  1  0.25000  0.23293  0.17078  1
 H  H11  1  0.61048  0.15556  0.61016  1
 H  H12  1  0.11698  0.02087  0.17388  1
 H  H13  1  0.88952  0.15556  0.61016  1
 H  H14  1  0.61698  0.97913  0.82612  1
 H  H15  1  0.38302  0.02087  0.17388  1
 H  H16  1  0.88892  0.78058  0.61269  1
 Hg  Hg1  1  0.75000  0.57096  0.13821  1
 Hg  Hg2  1  0.25000  0.42904  0.86179  1
 N  N1  1  0.25000  0.09721  0.21008  1
 N  N2  1  0.75000  0.90279  0.78992  1
