CIF file written using JARVIS-Tools package.
data_MgAs4
_symmetry_space_group_name_H-M  'P4_12_12'
_cell_length_a       5.45549
_cell_length_b       5.45549
_cell_length_c       16.0086
_cell_angle_alpha    90
_cell_angle_beta     90
_cell_angle_gamma    90

_symmetry_Int_Tables_number  92
_chemical_formula_structural  MgAs4
_chemical_formula_sum  Mg4As6
_cell_volume  476.4538210876598
_cell_formula_units_Z  4
loop_
  _symmetry_equiv_pos_site_id
 _symmetry_equiv_pos_as_xyz
 1  'x, y, z'
loop_
 _atom_site_type_symbol
 _atom_site_label
 _atom_site_symmetry_multiplicity
 _atom_site_fract_x
 _atom_site_fract_y
 _atom_site_fract_z
 _atom_site_fract_occupancy
 As  As1  1  0.82396  0.56165  0.04644  1
 As  As2  1  0.39542  0.47370  0.87498  1
 As  As3  1  0.89542  0.02630  0.87502  1
 As  As4  1  0.97370  0.10458  0.62498  1
 As  As5  1  0.02630  0.89542  0.12498  1
 As  As6  1  0.67604  0.06165  0.20356  1
 As  As7  1  0.52630  0.60458  0.62502  1
 As  As8  1  0.43835  0.17604  0.45356  1
 As  As9  1  0.17604  0.43835  0.54644  1
 As  As10  1  0.10458  0.97370  0.37502  1
 As  As11  1  0.32396  0.93835  0.70356  1
 As  As12  1  0.06165  0.67604  0.79644  1
 As  As13  1  0.93835  0.32396  0.29644  1
 As  As14  1  0.60458  0.52630  0.37498  1
 As  As15  1  0.47370  0.39542  0.12502  1
 As  As16  1  0.56165  0.82396  0.95356  1
 Mg  Mg1  1  0.19338  0.19338  0.00000  1
 Mg  Mg2  1  0.30662  0.69338  0.25000  1
 Mg  Mg3  1  0.69338  0.30662  0.75000  1
 Mg  Mg4  1  0.80662  0.80662  0.50000  1
