CIF file written using JARVIS-Tools package.
data_Eu2CN2Cl2
_symmetry_space_group_name_H-M  'C2/m'
_cell_length_a       3.44011
_cell_length_b       5.28801
_cell_length_c       7.41892
_cell_angle_alpha    102.384
_cell_angle_beta     90
_cell_angle_gamma    108.982

_symmetry_Int_Tables_number  12
_chemical_formula_structural  Eu2CN2Cl2
_chemical_formula_sum  Eu2CN2Cl2
_cell_volume  124.29539417316258
_cell_formula_units_Z  1
loop_
  _symmetry_equiv_pos_site_id
 _symmetry_equiv_pos_as_xyz
 1  'x, y, z'
loop_
 _atom_site_type_symbol
 _atom_site_label
 _atom_site_symmetry_multiplicity
 _atom_site_fract_x
 _atom_site_fract_y
 _atom_site_fract_z
 _atom_site_fract_occupancy
 C  C1  1  0.00000  0.00000  0.50000  1
 Cl  Cl1  1  0.61470  0.22940  0.86237  1
 Cl  Cl2  1  0.38530  0.77060  0.13763  1
 Eu  Eu1  1  0.31008  0.62016  0.73856  1
 Eu  Eu2  1  0.68992  0.37984  0.26144  1
 N  N1  1  0.11729  0.23458  0.47246  1
 N  N2  1  0.88271  0.76542  0.52754  1
