CIF file written using JARVIS-Tools package.
data_CuBi2O4
_symmetry_space_group_name_H-M  'P4/ncc'
_cell_length_a       5.99769
_cell_length_b       8.42956
_cell_length_c       8.42956
_cell_angle_alpha    90
_cell_angle_beta     90
_cell_angle_gamma    90

_symmetry_Int_Tables_number  130
_chemical_formula_structural  CuBi2O4
_chemical_formula_sum  Cu4Bi8O6
_cell_volume  426.1807187477777
_cell_formula_units_Z  4
loop_
  _symmetry_equiv_pos_site_id
 _symmetry_equiv_pos_as_xyz
 1  'x, y, z'
loop_
 _atom_site_type_symbol
 _atom_site_label
 _atom_site_symmetry_multiplicity
 _atom_site_fract_x
 _atom_site_fract_y
 _atom_site_fract_z
 _atom_site_fract_occupancy
 Bi  Bi1  1  0.25000  0.91674  0.08326  1
 Bi  Bi2  1  0.75000  0.41674  0.58326  1
 Bi  Bi3  1  0.25000  0.58326  0.41674  1
 Bi  Bi4  1  0.25000  0.08326  0.58326  1
 Bi  Bi5  1  0.75000  0.91674  0.41674  1
 Bi  Bi6  1  0.75000  0.08326  0.91674  1
 Bi  Bi7  1  0.25000  0.41674  0.91674  1
 Bi  Bi8  1  0.75000  0.58326  0.08326  1
 Cu  Cu1  1  0.42437  0.75000  0.75000  1
 Cu  Cu2  1  0.92437  0.75000  0.75000  1
 Cu  Cu3  1  0.57563  0.25000  0.25000  1
 Cu  Cu4  1  0.07563  0.25000  0.25000  1
 O  O1  1  0.59181  0.45957  0.34810  1
 O  O2  1  0.90819  0.54043  0.84810  1
 O  O3  1  0.40819  0.65190  0.95957  1
 O  O4  1  0.90819  0.84810  0.95957  1
 O  O5  1  0.90819  0.95957  0.65190  1
 O  O6  1  0.59181  0.04043  0.15190  1
 O  O7  1  0.90819  0.65190  0.54043  1
 O  O8  1  0.40819  0.54043  0.65190  1
 O  O9  1  0.09181  0.34810  0.45957  1
 O  O10  1  0.09181  0.15190  0.04043  1
 O  O11  1  0.09181  0.04043  0.34810  1
 O  O12  1  0.40819  0.95957  0.84810  1
 O  O13  1  0.59181  0.34810  0.04043  1
 O  O14  1  0.09181  0.45957  0.15190  1
 O  O15  1  0.59181  0.15190  0.45957  1
 O  O16  1  0.40819  0.84810  0.54043  1
