CIF file written using JARVIS-Tools package.
data_LiSbS2
_symmetry_space_group_name_H-M  'C2/c'
_cell_length_a       5.55599
_cell_length_b       5.55599
_cell_length_c       6.75242
_cell_angle_alpha    114.666
_cell_angle_beta     114.303
_cell_angle_gamma    89.5765

_symmetry_Int_Tables_number  15
_chemical_formula_structural  LiSbS2
_chemical_formula_sum  Li2Sb2S4
_cell_volume  169.20124274193628
_cell_formula_units_Z  2
loop_
  _symmetry_equiv_pos_site_id
 _symmetry_equiv_pos_as_xyz
 1  'x, y, z'
loop_
 _atom_site_type_symbol
 _atom_site_label
 _atom_site_symmetry_multiplicity
 _atom_site_fract_x
 _atom_site_fract_y
 _atom_site_fract_z
 _atom_site_fract_occupancy
 Li  Li1  1  0.87237  0.12237  0.25000  1
 Li  Li2  1  0.12763  0.87763  0.75000  1
 S  S1  1  0.62074  0.84998  0.75796  1
 S  S2  1  0.09202  0.36278  0.74204  1
 S  S3  1  0.37926  0.15002  0.24204  1
 S  S4  1  0.90798  0.63722  0.25796  1
 Sb  Sb1  1  0.64266  0.39266  0.75000  1
 Sb  Sb2  1  0.35734  0.60734  0.25000  1
