CIF file written using JARVIS-Tools package.
data_BeInHg
_symmetry_space_group_name_H-M  'I4mm'
_cell_length_a       6.4058
_cell_length_b       6.4058
_cell_length_c       6.4058
_cell_angle_alpha    151.538
_cell_angle_beta     151.538
_cell_angle_gamma    40.6889

_symmetry_Int_Tables_number  107
_chemical_formula_structural  BeInHg
_chemical_formula_sum  BeInHg
_cell_volume  59.57878173895035
_cell_formula_units_Z  1
loop_
  _symmetry_equiv_pos_site_id
 _symmetry_equiv_pos_as_xyz
 1  'x, y, z'
loop_
 _atom_site_type_symbol
 _atom_site_label
 _atom_site_symmetry_multiplicity
 _atom_site_fract_x
 _atom_site_fract_y
 _atom_site_fract_z
 _atom_site_fract_occupancy
 Be  Be1  1  0.98146  0.98146  0.00000  1
 Hg  Hg1  1  0.37062  0.37062  -0.00000  1
 In  In1  1  0.64792  0.64792  -0.00000  1
