CIF file written using JARVIS-Tools package.
data_ZrGa3
_symmetry_space_group_name_H-M  'I4/mmm'
_cell_length_a       3.98656
_cell_length_b       3.98656
_cell_length_c       9.24362
_cell_angle_alpha    102.453
_cell_angle_beta     102.453
_cell_angle_gamma    90

_symmetry_Int_Tables_number  139
_chemical_formula_structural  ZrGa3
_chemical_formula_sum  Zr2Ga6
_cell_volume  139.90779220073296
_cell_formula_units_Z  2
loop_
  _symmetry_equiv_pos_site_id
 _symmetry_equiv_pos_as_xyz
 1  'x, y, z'
loop_
 _atom_site_type_symbol
 _atom_site_label
 _atom_site_symmetry_multiplicity
 _atom_site_fract_x
 _atom_site_fract_y
 _atom_site_fract_z
 _atom_site_fract_occupancy
 Ga  Ga1  1  0.50000  0.00000  0.00000  1
 Ga  Ga2  1  0.00000  0.50000  0.00000  1
 Ga  Ga3  1  0.25000  0.75000  0.50000  1
 Ga  Ga4  1  0.75000  0.25000  0.50000  1
 Ga  Ga5  1  0.62372  0.62372  0.24744  1
 Ga  Ga6  1  0.37628  0.37628  0.75256  1
 Zr  Zr1  1  0.88202  0.88202  0.76403  1
 Zr  Zr2  1  0.11798  0.11798  0.23597  1
