CIF file written using JARVIS-Tools package.
data_Ag2S
_symmetry_space_group_name_H-M  'P2_1/c'
_cell_length_a       4.23211
_cell_length_b       7.4063
_cell_length_c       7.9703
_cell_angle_alpha    90
_cell_angle_beta     98.3668
_cell_angle_gamma    90

_symmetry_Int_Tables_number  14
_chemical_formula_structural  Ag2S
_chemical_formula_sum  Ag8S4
_cell_volume  247.16426962819335
_cell_formula_units_Z  4
loop_
  _symmetry_equiv_pos_site_id
 _symmetry_equiv_pos_as_xyz
 1  'x, y, z'
loop_
 _atom_site_type_symbol
 _atom_site_label
 _atom_site_symmetry_multiplicity
 _atom_site_fract_x
 _atom_site_fract_y
 _atom_site_fract_z
 _atom_site_fract_occupancy
 Ag  Ag1  1  0.74999  0.49956  0.24982  1
 Ag  Ag2  1  0.25001  0.50044  0.75018  1
 Ag  Ag3  1  0.67130  0.74998  0.55712  1
 Ag  Ag4  1  0.75001  -0.00044  0.25018  1
 Ag  Ag5  1  0.24999  0.00044  0.74982  1
 Ag  Ag6  1  0.32870  0.25002  0.44288  1
 Ag  Ag7  1  0.17130  0.75002  0.05712  1
 Ag  Ag8  1  0.82870  0.24998  0.94288  1
 S  S1  1  0.58538  0.75052  0.86183  1
 S  S2  1  0.91462  0.25052  0.63817  1
 S  S3  1  0.41462  0.24948  0.13817  1
 S  S4  1  0.08538  0.74948  0.36183  1
