CIF file written using JARVIS-Tools package.
data_NaHgCl3
_symmetry_space_group_name_H-M  'Pnma'
_cell_length_a       4.11319
_cell_length_b       8.35105
_cell_length_c       15.5677
_cell_angle_alpha    90
_cell_angle_beta     90
_cell_angle_gamma    90

_symmetry_Int_Tables_number  62
_chemical_formula_structural  NaHgCl3
_chemical_formula_sum  Na4Hg4Cl2
_cell_volume  534.7401296036817
_cell_formula_units_Z  4
loop_
  _symmetry_equiv_pos_site_id
 _symmetry_equiv_pos_as_xyz
 1  'x, y, z'
loop_
 _atom_site_type_symbol
 _atom_site_label
 _atom_site_symmetry_multiplicity
 _atom_site_fract_x
 _atom_site_fract_y
 _atom_site_fract_z
 _atom_site_fract_occupancy
 Cl  Cl1  1  0.75000  0.34942  0.43648  1
 Cl  Cl2  1  0.75000  -0.04152  0.76738  1
 Cl  Cl3  1  0.75000  0.84942  0.06352  1
 Cl  Cl4  1  0.25000  0.60845  0.91435  1
 Cl  Cl5  1  0.25000  0.54152  0.26738  1
 Cl  Cl6  1  0.75000  0.45848  0.73262  1
 Cl  Cl7  1  0.25000  0.65058  0.56352  1
 Cl  Cl8  1  0.75000  0.89155  0.41435  1
 Cl  Cl9  1  0.25000  0.10845  0.58565  1
 Cl  Cl10  1  0.25000  0.04152  0.23262  1
 Cl  Cl11  1  0.75000  0.39155  0.08565  1
 Cl  Cl12  1  0.25000  0.15058  0.93648  1
 Hg  Hg1  1  0.25000  0.15664  0.09400  1
 Hg  Hg2  1  0.75000  0.34336  0.59400  1
 Hg  Hg3  1  0.75000  0.84336  0.90600  1
 Hg  Hg4  1  0.25000  0.65664  0.40600  1
 Na  Na1  1  0.25000  0.12867  0.40244  1
 Na  Na2  1  0.75000  0.37133  0.90244  1
 Na  Na3  1  0.75000  0.87133  0.59756  1
 Na  Na4  1  0.25000  0.62867  0.09756  1
