CIF file written using JARVIS-Tools package.
data_Tb3TaO7
_symmetry_space_group_name_H-M  'Cmcm'
_cell_length_a       6.4664
_cell_length_b       6.4664
_cell_length_c       7.52105
_cell_angle_alpha    90
_cell_angle_beta     90
_cell_angle_gamma    110.767

_symmetry_Int_Tables_number  63
_chemical_formula_structural  Tb3TaO7
_chemical_formula_sum  Tb6Ta2O4
_cell_volume  294.05543491099
_cell_formula_units_Z  2
loop_
  _symmetry_equiv_pos_site_id
 _symmetry_equiv_pos_as_xyz
 1  'x, y, z'
loop_
 _atom_site_type_symbol
 _atom_site_label
 _atom_site_symmetry_multiplicity
 _atom_site_fract_x
 _atom_site_fract_y
 _atom_site_fract_z
 _atom_site_fract_occupancy
 O  O1  1  0.43677  0.17839  0.53699  1
 O  O2  1  0.15429  0.89022  0.25000  1
 O  O3  1  0.10978  0.84571  0.75000  1
 O  O4  1  0.84571  0.10978  0.75000  1
 O  O5  1  0.56323  0.82161  0.46301  1
 O  O6  1  0.17839  0.43677  0.96301  1
 O  O7  1  0.56323  0.82161  0.03699  1
 O  O8  1  0.58095  0.58095  0.75000  1
 O  O9  1  0.41905  0.41905  0.25000  1
 O  O10  1  0.82161  0.56323  0.03699  1
 O  O11  1  0.89022  0.15429  0.25000  1
 O  O12  1  0.82161  0.56323  0.46301  1
 O  O13  1  0.43677  0.17839  0.96301  1
 O  O14  1  0.17839  0.43677  0.53699  1
 Ta  Ta1  1  0.50000  0.50000  0.50000  1
 Ta  Ta2  1  0.50000  0.50000  0.00000  1
 Tb  Tb1  1  0.93798  0.48118  0.75000  1
 Tb  Tb2  1  0.51882  0.06202  0.25000  1
 Tb  Tb3  1  0.00000  0.00000  0.50000  1
 Tb  Tb4  1  0.00000  0.00000  0.00000  1
 Tb  Tb5  1  0.48118  0.93798  0.75000  1
 Tb  Tb6  1  0.06202  0.51882  0.25000  1
