CIF file written using JARVIS-Tools package.
data_Ba2LaNbO6
_symmetry_space_group_name_H-M  'C2/m'
_cell_length_a       6.12886
_cell_length_b       6.12886
_cell_length_c       6.18529
_cell_angle_alpha    90.4116
_cell_angle_beta     119.292
_cell_angle_gamma    119.933

_symmetry_Int_Tables_number  12
_chemical_formula_structural  Ba2LaNbO6
_chemical_formula_sum  Ba2LaNbO6
_cell_volume  165.6093135951512
_cell_formula_units_Z  1
loop_
  _symmetry_equiv_pos_site_id
 _symmetry_equiv_pos_as_xyz
 1  'x, y, z'
loop_
 _atom_site_type_symbol
 _atom_site_label
 _atom_site_symmetry_multiplicity
 _atom_site_fract_x
 _atom_site_fract_y
 _atom_site_fract_z
 _atom_site_fract_occupancy
 Ba  Ba1  1  0.00698  0.75214  0.75912  1
 Ba  Ba2  1  0.99302  0.24786  0.24088  1
 La  La1  1  0.50000  -0.00000  0.50000  1
 Nb  Nb1  1  0.50000  0.50000  0.00000  1
 O  O1  1  0.42727  0.27195  0.69922  1
 O  O2  1  0.57273  0.72805  0.30078  1
 O  O3  1  0.04025  0.30729  0.81348  1
 O  O4  1  0.49381  0.22678  0.18652  1
 O  O5  1  0.95975  0.69271  0.18652  1
 O  O6  1  0.50619  0.77322  0.81348  1
