CIF file written using JARVIS-Tools package.
data_Pd4S
_symmetry_space_group_name_H-M  'P-42_1c'
_cell_length_a       5.19216
_cell_length_b       5.19216
_cell_length_c       5.64651
_cell_angle_alpha    90
_cell_angle_beta     90
_cell_angle_gamma    90

_symmetry_Int_Tables_number  114
_chemical_formula_structural  Pd4S
_chemical_formula_sum  Pd8S2
_cell_volume  152.22177169494404
_cell_formula_units_Z  2
loop_
  _symmetry_equiv_pos_site_id
 _symmetry_equiv_pos_as_xyz
 1  'x, y, z'
loop_
 _atom_site_type_symbol
 _atom_site_label
 _atom_site_symmetry_multiplicity
 _atom_site_fract_x
 _atom_site_fract_y
 _atom_site_fract_z
 _atom_site_fract_occupancy
 Pd  Pd1  1  0.76825  0.35501  0.84334  1
 Pd  Pd2  1  0.85501  0.26825  0.34334  1
 Pd  Pd3  1  0.14499  0.73175  0.34334  1
 Pd  Pd4  1  0.64499  0.76825  0.15666  1
 Pd  Pd5  1  0.26825  0.14499  0.65666  1
 Pd  Pd6  1  0.73175  0.85501  0.65666  1
 Pd  Pd7  1  0.23175  0.64499  0.84334  1
 Pd  Pd8  1  0.35501  0.23175  0.15666  1
 S  S1  1  0.50000  0.50000  0.50000  1
 S  S2  1  0.00000  0.00000  0.00000  1
