CIF file written using JARVIS-Tools package.
data_YbNdS3
_symmetry_space_group_name_H-M  'C222_1'
_cell_length_a       3.95535
_cell_length_b       7.15281
_cell_length_c       8.83715
_cell_angle_alpha    90
_cell_angle_beta     90
_cell_angle_gamma    106.051

_symmetry_Int_Tables_number  20
_chemical_formula_structural  YbNdS3
_chemical_formula_sum  Yb2Nd2S6
_cell_volume  240.27294444407144
_cell_formula_units_Z  2
loop_
  _symmetry_equiv_pos_site_id
 _symmetry_equiv_pos_as_xyz
 1  'x, y, z'
loop_
 _atom_site_type_symbol
 _atom_site_label
 _atom_site_symmetry_multiplicity
 _atom_site_fract_x
 _atom_site_fract_y
 _atom_site_fract_z
 _atom_site_fract_occupancy
 Nd  Nd1  1  0.25046  0.50092  0.50000  1
 Nd  Nd2  1  0.74954  0.49908  0.00000  1
 S  S1  1  0.36047  0.71981  0.82635  1
 S  S2  1  0.35933  0.71981  0.17365  1
 S  S3  1  0.63953  0.28019  0.32635  1
 S  S4  1  0.64067  0.28019  0.67365  1
 S  S5  1  0.89220  0.78440  0.50000  1
 S  S6  1  0.10780  0.21560  0.00000  1
 Yb  Yb1  1  0.00077  -0.00000  0.75000  1
 Yb  Yb2  1  0.99923  0.00000  0.25000  1
