CIF file written using JARVIS-Tools package.
data_Na2ZnP2O7
_symmetry_space_group_name_H-M  'P4_2/mnm'
_cell_length_a       7.77174
_cell_length_b       7.77174
_cell_length_c       10.2645
_cell_angle_alpha    90
_cell_angle_beta     90
_cell_angle_gamma    90

_symmetry_Int_Tables_number  136
_chemical_formula_structural  Na2ZnP2O7
_chemical_formula_sum  Na8Zn4P8O28
_cell_volume  619.975783015256
_cell_formula_units_Z  4
loop_
  _symmetry_equiv_pos_site_id
 _symmetry_equiv_pos_as_xyz
 1  'x, y, z'
loop_
 _atom_site_type_symbol
 _atom_site_label
 _atom_site_symmetry_multiplicity
 _atom_site_fract_x
 _atom_site_fract_y
 _atom_site_fract_z
 _atom_site_fract_occupancy
 Na  Na1  1  0.35675  0.35675  0.50000  1
 Na  Na2  1  0.80613  0.19387  0.50000  1
 Na  Na3  1  0.64325  0.64325  0.50000  1
 Na  Na4  1  0.14325  0.85675  0.00000  1
 Na  Na5  1  0.19387  0.80613  0.50000  1
 Na  Na6  1  0.85675  0.14325  0.00000  1
 Na  Na7  1  0.69387  0.69387  0.00000  1
 Na  Na8  1  0.30613  0.30613  0.00000  1
 O  O1  1  0.19225  0.58086  0.85586  1
 O  O2  1  0.41914  0.80775  0.14414  1
 O  O3  1  0.58086  0.19225  0.14414  1
 O  O4  1  0.69225  0.91914  0.64414  1
 O  O5  1  0.91914  0.69225  0.64414  1
 O  O6  1  0.08086  0.30775  0.64414  1
 O  O7  1  0.50000  0.50000  0.15133  1
 O  O8  1  0.69225  0.91914  0.35586  1
 O  O9  1  0.30775  0.08086  0.35586  1
 O  O10  1  0.58086  0.19225  0.85586  1
 O  O11  1  0.41914  0.80775  0.85586  1
 O  O12  1  0.80775  0.41914  0.85586  1
 O  O13  1  0.86368  0.86368  0.85603  1
 O  O14  1  0.13632  0.13632  0.85603  1
 O  O15  1  0.86368  0.86368  0.14397  1
 O  O16  1  0.36368  0.63632  0.35603  1
 O  O17  1  0.00000  0.00000  0.34867  1
 O  O18  1  0.80775  0.41914  0.14414  1
 O  O19  1  0.30775  0.08086  0.64414  1
 O  O20  1  0.36368  0.63632  0.64397  1
 O  O21  1  0.50000  0.50000  0.84867  1
 O  O22  1  0.91914  0.69225  0.35586  1
 O  O23  1  0.13632  0.13632  0.14397  1
 O  O24  1  0.63632  0.36368  0.35603  1
 O  O25  1  0.00000  0.00000  0.65133  1
 O  O26  1  0.19225  0.58086  0.14414  1
 O  O27  1  0.08086  0.30775  0.35586  1
 O  O28  1  0.63632  0.36368  0.64397  1
 P  P1  1  0.86127  0.86127  0.70888  1
 P  P2  1  0.63873  0.36127  0.20888  1
 P  P3  1  0.13873  0.13873  0.29112  1
 P  P4  1  0.86127  0.86127  0.29112  1
 P  P5  1  0.36127  0.63873  0.20888  1
 P  P6  1  0.36127  0.63873  0.79112  1
 P  P7  1  0.63873  0.36127  0.79112  1
 P  P8  1  0.13873  0.13873  0.70888  1
 Zn  Zn1  1  0.00000  0.50000  0.75000  1
 Zn  Zn2  1  0.00000  0.50000  0.25000  1
 Zn  Zn3  1  0.50000  0.00000  0.25000  1
 Zn  Zn4  1  0.50000  0.00000  0.75000  1
