CIF file written using JARVIS-Tools package.
data_TbNiBC
_symmetry_space_group_name_H-M  'P4/nmm'
_cell_length_a       3.61328
_cell_length_b       3.61328
_cell_length_c       7.5296
_cell_angle_alpha    90
_cell_angle_beta     90
_cell_angle_gamma    90

_symmetry_Int_Tables_number  129
_chemical_formula_structural  TbNiBC
_chemical_formula_sum  Tb2Ni2B2C2
_cell_volume  98.30466179387543
_cell_formula_units_Z  2
loop_
  _symmetry_equiv_pos_site_id
 _symmetry_equiv_pos_as_xyz
 1  'x, y, z'
loop_
 _atom_site_type_symbol
 _atom_site_label
 _atom_site_symmetry_multiplicity
 _atom_site_fract_x
 _atom_site_fract_y
 _atom_site_fract_z
 _atom_site_fract_occupancy
 B  B1  1  0.25000  0.25000  0.64547  1
 B  B2  1  0.75000  0.75000  0.35453  1
 C  C1  1  0.25000  0.25000  0.84271  1
 C  C2  1  0.75000  0.75000  0.15729  1
 Ni  Ni1  1  0.75000  0.25000  0.50000  1
 Ni  Ni2  1  0.25000  0.75000  0.50000  1
 Tb  Tb1  1  0.75000  0.75000  0.83281  1
 Tb  Tb2  1  0.25000  0.25000  0.16719  1
