CIF file written using JARVIS-Tools package.
data_NiAs
_symmetry_space_group_name_H-M  'P6_3/mmc'
_cell_length_a       5.07542
_cell_length_b       6.33431
_cell_length_c       6.3343
_cell_angle_alpha    119.995
_cell_angle_beta     90
_cell_angle_gamma    90

_symmetry_Int_Tables_number  194
_chemical_formula_structural  NiAs
_chemical_formula_sum  Ni6As6
_cell_volume  176.36868891156266
_cell_formula_units_Z  6
loop_
  _symmetry_equiv_pos_site_id
 _symmetry_equiv_pos_as_xyz
 1  'x, y, z'
loop_
 _atom_site_type_symbol
 _atom_site_label
 _atom_site_symmetry_multiplicity
 _atom_site_fract_x
 _atom_site_fract_y
 _atom_site_fract_z
 _atom_site_fract_occupancy
 As  As1  1  0.75060  -0.00001  0.66665  1
 As  As2  1  0.25060  0.00001  0.33335  1
 As  As3  1  0.25060  0.33335  0.00001  1
 As  As4  1  0.75060  0.66665  -0.00001  1
 As  As5  1  0.24892  0.66670  0.66670  1
 As  As6  1  0.74892  0.33330  0.33330  1
 Ni  Ni1  1  0.00002  0.66618  0.33286  1
 Ni  Ni2  1  0.50002  0.33382  0.66714  1
 Ni  Ni3  1  0.50002  0.66714  0.33382  1
 Ni  Ni4  1  0.00002  0.33286  0.66618  1
 Ni  Ni5  1  0.50004  0.99911  0.99911  1
 Ni  Ni6  1  0.00004  0.00089  0.00089  1
