CIF file written using JARVIS-Tools package.
data_BeSiTc2
_symmetry_space_group_name_H-M  'P4mm'
_cell_length_a       2.96713
_cell_length_b       2.96713
_cell_length_c       5.60195
_cell_angle_alpha    90
_cell_angle_beta     90
_cell_angle_gamma    90

_symmetry_Int_Tables_number  99
_chemical_formula_structural  BeSiTc2
_chemical_formula_sum  BeSiTc2
_cell_volume  49.318834155625986
_cell_formula_units_Z  1
loop_
  _symmetry_equiv_pos_site_id
 _symmetry_equiv_pos_as_xyz
 1  'x, y, z'
loop_
 _atom_site_type_symbol
 _atom_site_label
 _atom_site_symmetry_multiplicity
 _atom_site_fract_x
 _atom_site_fract_y
 _atom_site_fract_z
 _atom_site_fract_occupancy
 Be  Be1  1  0.00000  0.00000  0.50606  1
 Si  Si1  1  0.50000  0.50000  0.72789  1
 Tc  Tc1  1  0.00000  0.00000  0.98442  1
 Tc  Tc2  1  0.50000  0.50000  0.28163  1
