CIF file written using JARVIS-Tools package.
data_Te2MoW2Se2S2
_symmetry_space_group_name_H-M  'P3m1'
_cell_length_a       3.3506
_cell_length_b       3.35059
_cell_length_c       29.7024
_cell_angle_alpha    90.001
_cell_angle_beta     90
_cell_angle_gamma    120

_symmetry_Int_Tables_number  156
_chemical_formula_structural  Te2MoW2Se2S2
_chemical_formula_sum  Te2MoW2Se2S2
_cell_volume  288.7781082226573
_cell_formula_units_Z  1
loop_
  _symmetry_equiv_pos_site_id
 _symmetry_equiv_pos_as_xyz
 1  'x, y, z'
loop_
 _atom_site_type_symbol
 _atom_site_label
 _atom_site_symmetry_multiplicity
 _atom_site_fract_x
 _atom_site_fract_y
 _atom_site_fract_z
 _atom_site_fract_occupancy
 Mo  Mo1  1  0.66665  0.33330  0.34435  1
 S  S1  1  0.66665  0.33330  0.06601  1
 S  S2  1  0.66664  0.33328  0.16860  1
 Se  Se1  1  0.66669  0.33338  0.52296  1
 Se  Se2  1  0.66668  0.33335  0.63566  1
 Te  Te1  1  0.33333  0.66666  0.40829  1
 Te  Te2  1  0.33330  0.66660  0.28034  1
 W  W1  1  0.33331  0.66662  0.11728  1
 W  W2  1  0.33335  0.66670  0.57936  1
