CIF file written using JARVIS-Tools package.
data_KPd2F5
_symmetry_space_group_name_H-M  'Pnma'
_cell_length_a       6.10431
_cell_length_b       7.48744
_cell_length_c       10.7272
_cell_angle_alpha    90
_cell_angle_beta     90
_cell_angle_gamma    90

_symmetry_Int_Tables_number  62
_chemical_formula_structural  KPd2F5
_chemical_formula_sum  K4Pd8F20
_cell_volume  490.294534658318
_cell_formula_units_Z  4
loop_
  _symmetry_equiv_pos_site_id
 _symmetry_equiv_pos_as_xyz
 1  'x, y, z'
loop_
 _atom_site_type_symbol
 _atom_site_label
 _atom_site_symmetry_multiplicity
 _atom_site_fract_x
 _atom_site_fract_y
 _atom_site_fract_z
 _atom_site_fract_occupancy
 F  F1  1  0.32073  0.93309  0.07967  1
 F  F2  1  0.20865  0.44617  0.83888  1
 F  F3  1  0.29135  0.55383  0.33888  1
 F  F4  1  0.79135  0.94617  0.16112  1
 F  F5  1  0.29135  0.94617  0.33888  1
 F  F6  1  0.79135  0.55383  0.16112  1
 F  F7  1  0.70865  0.44617  0.66112  1
 F  F8  1  0.20865  0.05383  0.83888  1
 F  F9  1  0.82073  0.93309  0.42033  1
 F  F10  1  0.32073  0.56691  0.07967  1
 F  F11  1  0.17927  0.43309  0.57967  1
 F  F12  1  0.67927  0.06691  0.92033  1
 F  F13  1  0.04955  0.25000  0.10046  1
 F  F14  1  0.54955  0.25000  0.39954  1
 F  F15  1  0.70865  0.05383  0.66112  1
 F  F16  1  0.45045  0.75000  0.60046  1
 F  F17  1  0.82073  0.56691  0.42033  1
 F  F18  1  0.67927  0.43309  0.92033  1
 F  F19  1  0.17927  0.06691  0.57967  1
 F  F20  1  0.95045  0.75000  0.89954  1
 K  K1  1  0.01621  0.25000  0.36553  1
 K  K2  1  0.51621  0.25000  0.13447  1
 K  K3  1  0.98379  0.75000  0.63447  1
 K  K4  1  0.48379  0.75000  0.86553  1
 Pd  Pd1  1  0.80956  0.75000  0.28625  1
 Pd  Pd2  1  0.50000  0.00000  0.50000  1
 Pd  Pd3  1  0.00000  0.50000  0.00000  1
 Pd  Pd4  1  0.50000  0.50000  0.50000  1
 Pd  Pd5  1  0.00000  0.00000  0.00000  1
 Pd  Pd6  1  0.19044  0.25000  0.71375  1
 Pd  Pd7  1  0.69044  0.25000  0.78625  1
 Pd  Pd8  1  0.30956  0.75000  0.21375  1
