CIF file written using JARVIS-Tools package.
data_Mn6O5F7
_symmetry_space_group_name_H-M  'P1'
_cell_length_a       5.59247
_cell_length_b       5.6107
_cell_length_c       7.22192
_cell_angle_alpha    73.8703
_cell_angle_beta     73.756
_cell_angle_gamma    72.7099

_symmetry_Int_Tables_number  1
_chemical_formula_structural  Mn6O5F7
_chemical_formula_sum  Mn6O5F7
_cell_volume  202.99126999970508
_cell_formula_units_Z  1
loop_
  _symmetry_equiv_pos_site_id
 _symmetry_equiv_pos_as_xyz
 1  'x, y, z'
loop_
 _atom_site_type_symbol
 _atom_site_label
 _atom_site_symmetry_multiplicity
 _atom_site_fract_x
 _atom_site_fract_y
 _atom_site_fract_z
 _atom_site_fract_occupancy
 F  F1  1  0.68330  0.33326  0.00102  1
 F  F2  1  0.10634  0.09717  0.69688  1
 F  F3  1  0.58506  0.58210  0.63730  1
 F  F4  1  0.88623  0.86797  0.31028  1
 F  F5  1  0.35674  0.93235  0.34028  1
 F  F6  1  0.05894  0.63796  0.65945  1
 F  F7  1  0.29199  0.71191  0.00400  1
 Mn  Mn1  1  0.66652  0.71214  0.83792  1
 Mn  Mn2  1  0.99167  0.02218  0.00265  1
 Mn  Mn3  1  0.98566  0.00752  0.49538  1
 Mn  Mn4  1  0.30918  0.33374  0.17189  1
 Mn  Mn5  1  0.66913  0.62216  0.31036  1
 Mn  Mn6  1  0.35779  0.32225  0.66994  1
 O  O1  1  0.65415  0.03849  0.66619  1
 O  O2  1  0.77021  0.79236  0.03168  1
 O  O3  1  0.23080  0.23490  0.95998  1
 O  O4  1  0.96357  0.33943  0.32782  1
 O  O5  1  0.43272  0.41212  0.37697  1
