CIF file written using JARVIS-Tools package.
data_H2SeO4
_symmetry_space_group_name_H-M  'P2_12_12_1'
_cell_length_a       4.6313
_cell_length_b       8.18648
_cell_length_c       8.35357
_cell_angle_alpha    90
_cell_angle_beta     90
_cell_angle_gamma    90

_symmetry_Int_Tables_number  19
_chemical_formula_structural  H2SeO4
_chemical_formula_sum  H8Se4O6
_cell_volume  316.71781264680334
_cell_formula_units_Z  4
loop_
  _symmetry_equiv_pos_site_id
 _symmetry_equiv_pos_as_xyz
 1  'x, y, z'
loop_
 _atom_site_type_symbol
 _atom_site_label
 _atom_site_symmetry_multiplicity
 _atom_site_fract_x
 _atom_site_fract_y
 _atom_site_fract_z
 _atom_site_fract_occupancy
 H  H1  1  0.69528  0.27187  0.29608  1
 H  H2  1  0.19528  0.22813  0.70392  1
 H  H3  1  0.30472  0.77187  0.20392  1
 H  H4  1  0.80472  0.72813  0.79608  1
 H  H5  1  0.24111  0.54234  0.49799  1
 H  H6  1  0.74111  0.95766  0.50201  1
 H  H7  1  0.75889  0.04234  0.00201  1
 H  H8  1  0.25889  0.45766  0.99799  1
 O  O1  1  0.65306  0.64352  0.82828  1
 O  O2  1  0.03624  0.87270  0.77536  1
 O  O3  1  0.53624  0.62730  0.22464  1
 O  O4  1  0.34694  0.14352  0.67172  1
 O  O5  1  0.15306  0.85648  0.17172  1
 O  O6  1  0.56936  0.97930  0.98247  1
 O  O7  1  0.96376  0.37270  0.72464  1
 O  O8  1  0.46376  0.12730  0.27536  1
 O  O9  1  0.95392  0.64056  0.46440  1
 O  O10  1  0.43064  0.47930  0.51753  1
 O  O11  1  0.06936  0.52070  0.01753  1
 O  O12  1  0.54608  0.35944  0.96440  1
 O  O13  1  0.04608  0.14056  0.03560  1
 O  O14  1  0.93064  0.02070  0.48247  1
 O  O15  1  0.45392  0.85944  0.53560  1
 O  O16  1  0.84694  0.35648  0.32828  1
 Se  Se1  1  0.68857  0.54004  0.37943  1
 Se  Se2  1  0.81143  0.45996  0.87943  1
 Se  Se3  1  0.31143  0.04004  0.12057  1
 Se  Se4  1  0.18857  0.95996  0.62057  1
