CIF file written using JARVIS-Tools package.
data_UTe2
_symmetry_space_group_name_H-M  'Immm'
_cell_length_a       4.1819
_cell_length_b       6.20849
_cell_length_c       7.90433
_cell_angle_alpha    113.124
_cell_angle_beta     105.339
_cell_angle_gamma    89.9999

_symmetry_Int_Tables_number  71
_chemical_formula_structural  UTe2
_chemical_formula_sum  U2Te4
_cell_volume  180.75791930610916
_cell_formula_units_Z  2
loop_
  _symmetry_equiv_pos_site_id
 _symmetry_equiv_pos_as_xyz
 1  'x, y, z'
loop_
 _atom_site_type_symbol
 _atom_site_label
 _atom_site_symmetry_multiplicity
 _atom_site_fract_x
 _atom_site_fract_y
 _atom_site_fract_z
 _atom_site_fract_occupancy
 Te  Te1  1  0.50000  0.75023  0.00000  1
 Te  Te2  1  0.50000  0.24977  1.00000  1
 Te  Te3  1  0.20250  0.70250  0.40499  1
 Te  Te4  1  0.79750  0.29750  0.59501  1
 U  U1  1  0.13411  0.13411  0.26822  1
 U  U2  1  0.86589  0.86589  0.73178  1
