CIF file written using JARVIS-Tools package.
data_CrTe
_symmetry_space_group_name_H-M  'P6_3/mmc'
_cell_length_a       4.11823
_cell_length_b       6.33741
_cell_length_c       7.13138
_cell_angle_alpha    90
_cell_angle_beta     90
_cell_angle_gamma    90

_symmetry_Int_Tables_number  194
_chemical_formula_structural  CrTe
_chemical_formula_sum  Cr4Te4
_cell_volume  186.1212327753097
_cell_formula_units_Z  4
loop_
  _symmetry_equiv_pos_site_id
 _symmetry_equiv_pos_as_xyz
 1  'x, y, z'
loop_
 _atom_site_type_symbol
 _atom_site_label
 _atom_site_symmetry_multiplicity
 _atom_site_fract_x
 _atom_site_fract_y
 _atom_site_fract_z
 _atom_site_fract_occupancy
 Cr  Cr1  1  0.75000  0.50002  0.75005  1
 Cr  Cr2  1  0.75000  0.00002  0.74995  1
 Cr  Cr3  1  0.25000  0.49998  0.24995  1
 Cr  Cr4  1  0.25000  -0.00002  0.25005  1
 Te  Te1  1  0.75000  0.24996  0.08335  1
 Te  Te2  1  0.75000  0.74996  0.41665  1
 Te  Te3  1  0.25000  0.75004  0.91665  1
 Te  Te4  1  0.25000  0.25004  0.58335  1
