CIF file written using JARVIS-Tools package.
data_BeSn2Mo
_symmetry_space_group_name_H-M  'P4mm'
_cell_length_a       3.61938
_cell_length_b       3.61938
_cell_length_c       5.55172
_cell_angle_alpha    90
_cell_angle_beta     90
_cell_angle_gamma    90

_symmetry_Int_Tables_number  99
_chemical_formula_structural  BeSn2Mo
_chemical_formula_sum  BeSn2Mo
_cell_volume  72.7271977900228
_cell_formula_units_Z  1
loop_
  _symmetry_equiv_pos_site_id
 _symmetry_equiv_pos_as_xyz
 1  'x, y, z'
loop_
 _atom_site_type_symbol
 _atom_site_label
 _atom_site_symmetry_multiplicity
 _atom_site_fract_x
 _atom_site_fract_y
 _atom_site_fract_z
 _atom_site_fract_occupancy
 Be  Be1  1  0.00000  0.00000  0.51312  1
 Mo  Mo1  1  0.50000  0.50000  0.74604  1
 Sn  Sn1  1  0.00000  0.00000  0.96514  1
 Sn  Sn2  1  0.50000  0.50000  0.27570  1
