CIF file written using JARVIS-Tools package.
data_Li2MnF4
_symmetry_space_group_name_H-M  'Cmmm'
_cell_length_a       3.19252
_cell_length_b       5.17972
_cell_length_c       9.67029
_cell_angle_alpha    82.5478
_cell_angle_beta     89.9975
_cell_angle_gamma    89.9989

_symmetry_Int_Tables_number  65
_chemical_formula_structural  Li2MnF4
_chemical_formula_sum  Li4Mn2F8
_cell_volume  158.56045075622833
_cell_formula_units_Z  2
loop_
  _symmetry_equiv_pos_site_id
 _symmetry_equiv_pos_as_xyz
 1  'x, y, z'
loop_
 _atom_site_type_symbol
 _atom_site_label
 _atom_site_symmetry_multiplicity
 _atom_site_fract_x
 _atom_site_fract_y
 _atom_site_fract_z
 _atom_site_fract_occupancy
 F  F1  1  0.50080  0.10623  0.13120  1
 F  F2  1  0.00007  0.11929  0.62150  1
 F  F3  1  0.50093  0.39029  0.36985  1
 F  F4  1  0.00070  0.61926  0.12151  1
 F  F5  1  0.00004  0.37726  0.87955  1
 F  F6  1  0.49992  0.60627  0.63122  1
 F  F7  1  0.00072  0.87726  0.37955  1
 F  F8  1  0.49984  0.89029  0.86985  1
 Li  Li1  1  0.00079  0.26581  0.07800  1
 Li  Li2  1  0.00092  0.23070  0.42304  1
 Li  Li3  1  0.99985  0.73072  0.92305  1
 Li  Li4  1  0.99993  0.76583  0.57801  1
 Mn  Mn1  1  0.50004  0.24827  0.75052  1
 Mn  Mn2  1  0.50073  0.74826  0.25053  1
