data_image0
_chemical_formula_structural       Ga3Mg3Sm3
_chemical_formula_sum              "Ga3 Mg3 Sm3"
_cell_length_a       7.39532
_cell_length_b       7.39532
_cell_length_c       4.48887
_cell_angle_alpha    90
_cell_angle_beta     90
_cell_angle_gamma    120.001

_space_group_name_H-M_alt    "P 1"
_space_group_IT_number       1

loop_
  _space_group_symop_operation_xyz
  'x, y, z'

loop_
  _atom_site_type_symbol
  _atom_site_label
  _atom_site_symmetry_multiplicity
  _atom_site_fract_x
  _atom_site_fract_y
  _atom_site_fract_z
  _atom_site_occupancy
  Ga  Ga1       1.0  0.00000  0.00000  0.00000  1.0000
  Ga  Ga2       1.0  0.66700  0.33300  0.50000  1.0000
  Ga  Ga3       1.0  0.33300  0.66700  0.50000  1.0000
  Mg  Mg1       1.0  0.24400  0.00000  0.50000  1.0000
  Mg  Mg2       1.0  0.00000  0.24400  0.50000  1.0000
  Mg  Mg3       1.0  0.75600  0.75600  0.50000  1.0000
  Sm  Sm1       1.0  0.57600  0.00001  0.00000  1.0000
  Sm  Sm2       1.0  0.42400  0.42400  0.00000  1.0000
  Sm  Sm3       1.0  0.00001  0.57600  0.00000  1.0000
