CIF file written using JARVIS-Tools package.
data_TiFeH2
_symmetry_space_group_name_H-M  'Cmmm'
_cell_length_a       4.64953
_cell_length_b       4.65
_cell_length_c       2.78296
_cell_angle_alpha    90
_cell_angle_beta     90
_cell_angle_gamma    97.7273

_symmetry_Int_Tables_number  65
_chemical_formula_structural  TiFeH2
_chemical_formula_sum  Ti2Fe2H4
_cell_volume  59.62210440369365
_cell_formula_units_Z  2
loop_
  _symmetry_equiv_pos_site_id
 _symmetry_equiv_pos_as_xyz
 1  'x, y, z'
loop_
 _atom_site_type_symbol
 _atom_site_label
 _atom_site_symmetry_multiplicity
 _atom_site_fract_x
 _atom_site_fract_y
 _atom_site_fract_z
 _atom_site_fract_occupancy
 Fe  Fe1  1  0.79383  0.29381  0.00000  1
 Fe  Fe2  1  0.20617  0.70619  0.00000  1
 H  H1  1  0.00000  0.00000  0.00000  1
 H  H2  1  0.50000  -0.00000  0.00000  1
 H  H3  1  0.50000  0.50000  0.00000  1
 H  H4  1  0.00000  0.50000  0.50000  1
 Ti  Ti1  1  0.71799  0.78198  0.50000  1
 Ti  Ti2  1  0.28201  0.21802  0.50000  1
