CIF file written using JARVIS-Tools package.
data_LiGaTe2
_symmetry_space_group_name_H-M  'I-42d'
_cell_length_a       6.33608
_cell_length_b       6.33609
_cell_length_c       7.47799
_cell_angle_alpha    115.065
_cell_angle_beta     115.065
_cell_angle_gamma    90

_symmetry_Int_Tables_number  122
_chemical_formula_structural  LiGaTe2
_chemical_formula_sum  Li2Ga2Te4
_cell_volume  240.36469881058335
_cell_formula_units_Z  2
loop_
  _symmetry_equiv_pos_site_id
 _symmetry_equiv_pos_as_xyz
 1  'x, y, z'
loop_
 _atom_site_type_symbol
 _atom_site_label
 _atom_site_symmetry_multiplicity
 _atom_site_fract_x
 _atom_site_fract_y
 _atom_site_fract_z
 _atom_site_fract_occupancy
 Ga  Ga1  1  0.25000  0.75000  0.50000  1
 Ga  Ga2  1  0.00000  0.00000  0.00000  1
 Li  Li1  1  0.75000  0.25000  0.50000  1
 Li  Li2  1  0.50000  0.50000  -0.00000  1
 Te  Te1  1  0.88513  0.87500  0.25000  1
 Te  Te2  1  0.62500  0.11487  0.75000  1
 Te  Te3  1  0.12500  0.63513  0.75000  1
 Te  Te4  1  0.36487  0.37500  0.25000  1
