CIF file written using JARVIS-Tools package.
data_ErF3
_symmetry_space_group_name_H-M  'Pnma'
_cell_length_a       4.38925
_cell_length_b       6.2854
_cell_length_c       6.81757
_cell_angle_alpha    90
_cell_angle_beta     90
_cell_angle_gamma    90

_symmetry_Int_Tables_number  62
_chemical_formula_structural  ErF3
_chemical_formula_sum  Er4F2
_cell_volume  188.08428879346476
_cell_formula_units_Z  4
loop_
  _symmetry_equiv_pos_site_id
 _symmetry_equiv_pos_as_xyz
 1  'x, y, z'
loop_
 _atom_site_type_symbol
 _atom_site_label
 _atom_site_symmetry_multiplicity
 _atom_site_fract_x
 _atom_site_fract_y
 _atom_site_fract_z
 _atom_site_fract_occupancy
 Er  Er1  1  0.93998  0.63079  0.75000  1
 Er  Er2  1  0.43998  0.86921  0.25000  1
 Er  Er3  1  0.56002  0.13079  0.75000  1
 Er  Er4  1  0.06002  0.36921  0.25000  1
 F  F1  1  0.37481  0.16573  0.43767  1
 F  F2  1  0.87481  0.33427  0.56233  1
 F  F3  1  0.12519  0.66573  0.06233  1
 F  F4  1  0.62519  0.83427  0.93767  1
 F  F5  1  0.59299  0.52364  0.25000  1
 F  F6  1  0.09299  0.97636  0.75000  1
 F  F7  1  0.90701  0.02364  0.25000  1
 F  F8  1  0.40701  0.47636  0.75000  1
 F  F9  1  0.37481  0.16573  0.06233  1
 F  F10  1  0.87481  0.33427  0.93767  1
 F  F11  1  0.12519  0.66573  0.43767  1
 F  F12  1  0.62519  0.83427  0.56233  1
