CIF file written using JARVIS-Tools package.
data_Zr2BePb
_symmetry_space_group_name_H-M  'I-4m2'
_cell_length_a       5.64108
_cell_length_b       5.64108
_cell_length_c       5.64108
_cell_angle_alpha    137.118
_cell_angle_beta     137.118
_cell_angle_gamma    62.2573

_symmetry_Int_Tables_number  119
_chemical_formula_structural  Zr2BePb
_chemical_formula_sum  Zr2BePb
_cell_volume  82.13206160383838
_cell_formula_units_Z  1
loop_
  _symmetry_equiv_pos_site_id
 _symmetry_equiv_pos_as_xyz
 1  'x, y, z'
loop_
 _atom_site_type_symbol
 _atom_site_label
 _atom_site_symmetry_multiplicity
 _atom_site_fract_x
 _atom_site_fract_y
 _atom_site_fract_z
 _atom_site_fract_occupancy
 Be  Be1  1  0.50000  0.50000  0.00000  1
 Pb  Pb1  1  0.75000  0.25000  0.50000  1
 Zr  Zr1  1  0.00000  0.00000  0.00000  1
 Zr  Zr2  1  0.25000  0.75000  0.50000  1
