CIF file written using JARVIS-Tools package.
data_BaAg2SnSe4
_symmetry_space_group_name_H-M  'I222'
_cell_length_a       6.70833
_cell_length_b       6.70831
_cell_length_c       6.70833
_cell_angle_alpha    102.182
_cell_angle_beta     111.117
_cell_angle_gamma    115.386

_symmetry_Int_Tables_number  23
_chemical_formula_structural  BaAg2SnSe4
_chemical_formula_sum  BaAg2SnSe4
_cell_volume  229.25312729126796
_cell_formula_units_Z  1
loop_
  _symmetry_equiv_pos_site_id
 _symmetry_equiv_pos_as_xyz
 1  'x, y, z'
loop_
 _atom_site_type_symbol
 _atom_site_label
 _atom_site_symmetry_multiplicity
 _atom_site_fract_x
 _atom_site_fract_y
 _atom_site_fract_z
 _atom_site_fract_occupancy
 Ag  Ag1  1  0.50000  0.82133  0.32133  1
 Ag  Ag2  1  0.50000  0.17867  0.67867  1
 Ba  Ba1  1  -0.00000  0.00000  -0.00000  1
 Se  Se1  1  0.01036  0.53129  0.12766  1
 Se  Se2  1  0.40363  0.88270  0.87234  1
 Se  Se3  1  0.98964  0.11730  0.52093  1
 Se  Se4  1  0.59637  0.46871  0.47907  1
 Sn  Sn1  1  0.00000  0.50000  0.50000  1
