CIF file written using JARVIS-Tools package.
data_BaNaB9O15
_symmetry_space_group_name_H-M  'R3c'
_cell_length_a       8.69024
_cell_length_b       8.69024
_cell_length_c       8.69024
_cell_angle_alpha    79.7033
_cell_angle_beta     79.7033
_cell_angle_gamma    79.7033

_symmetry_Int_Tables_number  161
_chemical_formula_structural  BaNaB9O15
_chemical_formula_sum  Ba2Na2B8O30
_cell_volume  627.9740325464943
_cell_formula_units_Z  2
loop_
  _symmetry_equiv_pos_site_id
 _symmetry_equiv_pos_as_xyz
 1  'x, y, z'
loop_
 _atom_site_type_symbol
 _atom_site_label
 _atom_site_symmetry_multiplicity
 _atom_site_fract_x
 _atom_site_fract_y
 _atom_site_fract_z
 _atom_site_fract_occupancy
 B  B1  1  0.43228  0.94257  0.28922  1
 B  B2  1  0.62740  0.11519  0.77660  1
 B  B3  1  0.77660  0.62740  0.11519  1
 B  B4  1  0.11519  0.77660  0.62740  1
 B  B5  1  0.27660  0.61519  0.12740  1
 B  B6  1  0.83964  0.28335  0.71618  1
 B  B7  1  0.12740  0.27660  0.61519  1
 B  B8  1  0.33964  0.21618  0.78335  1
 B  B9  1  0.78335  0.33964  0.21618  1
 B  B10  1  0.21618  0.78335  0.33964  1
 B  B11  1  0.28335  0.71618  0.83964  1
 B  B12  1  0.71618  0.83964  0.28335  1
 B  B13  1  0.44257  0.93228  0.78922  1
 B  B14  1  0.93228  0.78922  0.44257  1
 B  B15  1  0.78922  0.44257  0.93228  1
 B  B16  1  0.61519  0.12740  0.27660  1
 B  B17  1  0.94257  0.28922  0.43228  1
 B  B18  1  0.28922  0.43228  0.94257  1
 Ba  Ba1  1  0.50197  0.50197  0.50197  1
 Ba  Ba2  1  0.00197  0.00197  0.00197  1
 Na  Na1  1  0.21952  0.21952  0.21952  1
 Na  Na2  1  0.71952  0.71952  0.71952  1
 O  O1  1  0.81733  0.31445  0.54876  1
 O  O2  1  0.54876  0.81733  0.31445  1
 O  O3  1  0.31445  0.54876  0.81733  1
 O  O4  1  0.04876  0.81445  0.31733  1
 O  O5  1  0.81445  0.31733  0.04876  1
 O  O6  1  0.31733  0.04876  0.81445  1
 O  O7  1  0.09713  0.28498  0.46108  1
 O  O8  1  0.46108  0.09713  0.28498  1
 O  O9  1  0.78416  0.76697  0.42842  1
 O  O10  1  0.96108  0.78498  0.59713  1
 O  O11  1  0.78498  0.59713  0.96108  1
 O  O12  1  0.59713  0.96108  0.78498  1
 O  O13  1  0.27414  0.29334  0.63760  1
 O  O14  1  0.28498  0.46108  0.09713  1
 O  O15  1  0.74997  0.50816  0.23780  1
 O  O16  1  0.73780  0.00816  0.24997  1
 O  O17  1  0.13760  0.79334  0.77414  1
 O  O18  1  0.42842  0.78416  0.76697  1
 O  O19  1  0.92842  0.26697  0.28416  1
 O  O20  1  0.26697  0.28416  0.92842  1
 O  O21  1  0.00816  0.24997  0.73780  1
 O  O22  1  0.28416  0.92842  0.26697  1
 O  O23  1  0.24997  0.73780  0.00816  1
 O  O24  1  0.23780  0.74997  0.50816  1
 O  O25  1  0.63760  0.27414  0.29334  1
 O  O26  1  0.50816  0.23780  0.74997  1
 O  O27  1  0.77414  0.13760  0.79334  1
 O  O28  1  0.79334  0.77414  0.13760  1
 O  O29  1  0.29334  0.63760  0.27414  1
 O  O30  1  0.76697  0.42842  0.78416  1
