CIF file written using JARVIS-Tools package.
data_InRu3
_symmetry_space_group_name_H-M  'P6_3/mmc'
_cell_length_a       4.53064
_cell_length_b       5.61491
_cell_length_c       5.61491
_cell_angle_alpha    120.009
_cell_angle_beta     90
_cell_angle_gamma    90

_symmetry_Int_Tables_number  194
_chemical_formula_structural  InRu3
_chemical_formula_sum  In2Ru6
_cell_volume  123.69068856588407
_cell_formula_units_Z  2
loop_
  _symmetry_equiv_pos_site_id
 _symmetry_equiv_pos_as_xyz
 1  'x, y, z'
loop_
 _atom_site_type_symbol
 _atom_site_label
 _atom_site_symmetry_multiplicity
 _atom_site_fract_x
 _atom_site_fract_y
 _atom_site_fract_z
 _atom_site_fract_occupancy
 In  In1  1  0.75000  0.66676  0.33324  1
 In  In2  1  0.25000  0.33324  0.66676  1
 Ru  Ru1  1  0.75000  0.16459  0.32892  1
 Ru  Ru2  1  0.75000  0.16439  0.83561  1
 Ru  Ru3  1  0.75000  0.67108  0.83541  1
 Ru  Ru4  1  0.25000  0.83541  0.67108  1
 Ru  Ru5  1  0.25000  0.83561  0.16439  1
 Ru  Ru6  1  0.25000  0.32892  0.16459  1
