CIF file written using JARVIS-Tools package.
data_Li7TaO6
_symmetry_space_group_name_H-M  'R3'
_cell_length_a       5.52988
_cell_length_b       5.52987
_cell_length_c       14.6682
_cell_angle_alpha    90
_cell_angle_beta     90
_cell_angle_gamma    120

_symmetry_Int_Tables_number  146
_chemical_formula_structural  Li7TaO6
_chemical_formula_sum  Li2Ta3O8
_cell_volume  388.4538746158706
_cell_formula_units_Z  3
loop_
  _symmetry_equiv_pos_site_id
 _symmetry_equiv_pos_as_xyz
 1  'x, y, z'
loop_
 _atom_site_type_symbol
 _atom_site_label
 _atom_site_symmetry_multiplicity
 _atom_site_fract_x
 _atom_site_fract_y
 _atom_site_fract_z
 _atom_site_fract_occupancy
 Li  Li1  1  0.38258  0.38899  0.11597  1
 Li  Li2  1  0.61101  0.99359  0.11597  1
 Li  Li3  1  0.00641  0.61742  0.11597  1
 Li  Li4  1  0.60464  0.65050  0.88450  1
 Li  Li5  1  0.34950  0.95414  0.88450  1
 Li  Li6  1  0.04586  0.39536  0.88450  1
 Li  Li7  1  0.04925  0.72232  0.44930  1
 Li  Li8  1  0.27768  0.32692  0.44930  1
 Li  Li9  1  0.67308  0.95075  0.44930  1
 Li  Li10  1  0.93797  0.31716  0.55117  1
 Li  Li11  1  0.68284  0.62081  0.55117  1
 Li  Li12  1  0.37919  0.06203  0.55117  1
 Li  Li13  1  0.71591  0.05565  0.78263  1
 Li  Li14  1  0.94435  0.66026  0.78263  1
 Li  Li15  1  0.33974  0.28409  0.78263  1
 Li  Li16  1  0.27130  0.98383  0.21784  1
 Li  Li17  1  0.01617  0.28747  0.21784  1
 Li  Li18  1  0.71253  0.72870  0.21784  1
 Li  Li19  1  0.00000  0.00000  0.65400  1
 Li  Li20  1  0.66667  0.33333  0.98734  1
 Li  Li21  1  0.33333  0.66667  0.32068  1
 O  O1  1  0.38063  0.03722  0.41578  1
 O  O2  1  0.96580  0.68597  0.91911  1
 O  O3  1  0.72016  0.03420  0.91911  1
 O  O4  1  0.71396  0.70389  0.08245  1
 O  O5  1  0.63247  0.01930  0.25245  1
 O  O6  1  0.29611  0.01007  0.08245  1
 O  O7  1  0.65659  0.61937  0.41578  1
 O  O8  1  0.31403  0.27984  0.91911  1
 O  O9  1  0.38683  0.36753  0.25245  1
 O  O10  1  0.62945  0.67674  0.74911  1
 O  O11  1  0.05350  0.70087  0.58578  1
 O  O12  1  0.29913  0.35263  0.58578  1
 O  O13  1  0.04729  0.37055  0.74911  1
 O  O14  1  0.32326  0.95271  0.74911  1
 O  O15  1  0.98070  0.61317  0.25245  1
 O  O16  1  0.96278  0.34341  0.41578  1
 O  O17  1  0.64737  0.94650  0.58578  1
 O  O18  1  0.98993  0.28604  0.08245  1
 Ta  Ta1  1  0.66667  0.33333  0.33473  1
 Ta  Ta2  1  0.00000  0.00000  0.00139  1
 Ta  Ta3  1  0.33333  0.66667  0.66806  1
