CIF file written using JARVIS-Tools package.
data_BN
_symmetry_space_group_name_H-M  'R3m'
_cell_length_a       2.51198
_cell_length_b       2.51198
_cell_length_c       9.83318
_cell_angle_alpha    90
_cell_angle_beta     90
_cell_angle_gamma    120

_symmetry_Int_Tables_number  160
_chemical_formula_structural  BN
_chemical_formula_sum  B3N3
_cell_volume  53.73492386775047
_cell_formula_units_Z  3
loop_
  _symmetry_equiv_pos_site_id
 _symmetry_equiv_pos_as_xyz
 1  'x, y, z'
loop_
 _atom_site_type_symbol
 _atom_site_label
 _atom_site_symmetry_multiplicity
 _atom_site_fract_x
 _atom_site_fract_y
 _atom_site_fract_z
 _atom_site_fract_occupancy
 B  B1  1  0.00000  0.00000  0.00010  1
 B  B2  1  0.33333  0.66667  0.66681  1
 B  B3  1  0.66667  0.33333  0.33348  1
 N  N1  1  0.66667  0.33333  0.00044  1
 N  N2  1  0.00000  0.00000  0.66715  1
 N  N3  1  0.33333  0.66667  0.33383  1
