CIF file written using JARVIS-Tools package.
data_FeOF
_symmetry_space_group_name_H-M  'Pmn2_1'
_cell_length_a       2.87999
_cell_length_b       4.55678
_cell_length_c       4.37038
_cell_angle_alpha    90
_cell_angle_beta     90
_cell_angle_gamma    90

_symmetry_Int_Tables_number  31
_chemical_formula_structural  FeOF
_chemical_formula_sum  Fe2O2F2
_cell_volume  57.35455781389889
_cell_formula_units_Z  2
loop_
  _symmetry_equiv_pos_site_id
 _symmetry_equiv_pos_as_xyz
 1  'x, y, z'
loop_
 _atom_site_type_symbol
 _atom_site_label
 _atom_site_symmetry_multiplicity
 _atom_site_fract_x
 _atom_site_fract_y
 _atom_site_fract_z
 _atom_site_fract_occupancy
 F  F1  1  0.50000  0.92997  0.77955  1
 F  F2  1  0.00000  0.07003  0.27955  1
 Fe  Fe1  1  0.00000  0.71143  0.00328  1
 Fe  Fe2  1  0.50000  0.28857  0.50328  1
 O  O1  1  0.00000  0.42860  0.71717  1
 O  O2  1  0.50000  0.57140  0.21717  1
