CIF file written using JARVIS-Tools package.
data_TlIO3
_symmetry_space_group_name_H-M  'R3m'
_cell_length_a       4.50585
_cell_length_b       4.50585
_cell_length_c       4.50585
_cell_angle_alpha    88.6406
_cell_angle_beta     88.6406
_cell_angle_gamma    88.6407

_symmetry_Int_Tables_number  160
_chemical_formula_structural  TlIO3
_chemical_formula_sum  TlIO3
_cell_volume  91.40482239833672
_cell_formula_units_Z  1
loop_
  _symmetry_equiv_pos_site_id
 _symmetry_equiv_pos_as_xyz
 1  'x, y, z'
loop_
 _atom_site_type_symbol
 _atom_site_label
 _atom_site_symmetry_multiplicity
 _atom_site_fract_x
 _atom_site_fract_y
 _atom_site_fract_z
 _atom_site_fract_occupancy
 I  I1  1  0.49807  0.49807  0.49807  1
 O  O1  1  0.53826  0.09099  0.53826  1
 O  O2  1  0.09099  0.53826  0.53826  1
 O  O3  1  0.53826  0.53826  0.09099  1
 Tl  Tl1  1  0.99673  0.99673  0.99673  1
