CIF file written using JARVIS-Tools package.
data_HfMnBe
_symmetry_space_group_name_H-M  'I4mm'
_cell_length_a       4.76015
_cell_length_b       4.76015
_cell_length_c       4.76015
_cell_angle_alpha    142.059
_cell_angle_beta     142.059
_cell_angle_gamma    54.7397

_symmetry_Int_Tables_number  107
_chemical_formula_structural  HfMnBe
_chemical_formula_sum  HfMnBe
_cell_volume  40.48960003334141
_cell_formula_units_Z  1
loop_
  _symmetry_equiv_pos_site_id
 _symmetry_equiv_pos_as_xyz
 1  'x, y, z'
loop_
 _atom_site_type_symbol
 _atom_site_label
 _atom_site_symmetry_multiplicity
 _atom_site_fract_x
 _atom_site_fract_y
 _atom_site_fract_z
 _atom_site_fract_occupancy
 Be  Be1  1  0.02679  0.02679  -0.00000  1
 Hf  Hf1  1  0.33217  0.33217  -0.00000  1
 Mn  Mn1  1  0.64105  0.64105  -0.00000  1
