CIF file written using JARVIS-Tools package.
data_MgB2C2
_symmetry_space_group_name_H-M  'Pnnm'
_cell_length_a       2.77235
_cell_length_b       4.62895
_cell_length_c       7.21076
_cell_angle_alpha    90
_cell_angle_beta     90
_cell_angle_gamma    90

_symmetry_Int_Tables_number  58
_chemical_formula_structural  MgB2C2
_chemical_formula_sum  Mg2B4C4
_cell_volume  92.5362048778441
_cell_formula_units_Z  2
loop_
  _symmetry_equiv_pos_site_id
 _symmetry_equiv_pos_as_xyz
 1  'x, y, z'
loop_
 _atom_site_type_symbol
 _atom_site_label
 _atom_site_symmetry_multiplicity
 _atom_site_fract_x
 _atom_site_fract_y
 _atom_site_fract_z
 _atom_site_fract_occupancy
 B  B1  1  0.00000  0.61639  0.77033  1
 B  B2  1  0.00000  0.38361  0.22967  1
 B  B3  1  0.50000  0.11639  0.72967  1
 B  B4  1  0.50000  0.88361  0.27033  1
 C  C1  1  0.00000  0.71471  0.27875  1
 C  C2  1  0.00000  0.28529  0.72125  1
 C  C3  1  0.50000  0.21471  0.22125  1
 C  C4  1  0.50000  0.78529  0.77875  1
 Mg  Mg1  1  0.00000  0.00000  0.00000  1
 Mg  Mg2  1  0.50000  0.50000  0.50000  1
