CIF file written using JARVIS-Tools package.
data_AsI2F6
_symmetry_space_group_name_H-M  'C2/m'
_cell_length_a       5.78974
_cell_length_b       8.66693
_cell_length_c       8.66693
_cell_angle_alpha    118.679
_cell_angle_beta     90.6405
_cell_angle_gamma    90.6405

_symmetry_Int_Tables_number  12
_chemical_formula_structural  AsI2F6
_chemical_formula_sum  As2I4F2
_cell_volume  381.4543430745651
_cell_formula_units_Z  2
loop_
  _symmetry_equiv_pos_site_id
 _symmetry_equiv_pos_as_xyz
 1  'x, y, z'
loop_
 _atom_site_type_symbol
 _atom_site_label
 _atom_site_symmetry_multiplicity
 _atom_site_fract_x
 _atom_site_fract_y
 _atom_site_fract_z
 _atom_site_fract_occupancy
 As  As1  1  0.44587  0.35656  0.35656  1
 As  As2  1  0.55413  0.64344  0.64344  1
 F  F1  1  0.72840  0.72130  0.52911  1
 F  F2  1  0.69117  0.11826  0.48819  1
 F  F3  1  0.25221  0.67860  0.67860  1
 F  F4  1  0.69117  0.48819  0.11826  1
 F  F5  1  0.74779  0.32140  0.32140  1
 F  F6  1  0.72840  0.52911  0.72130  1
 F  F7  1  0.30883  0.88174  0.51181  1
 F  F8  1  0.30883  0.51181  0.88174  1
 F  F9  1  0.27160  0.47089  0.27870  1
 F  F10  1  0.60423  0.83903  0.83903  1
 F  F11  1  0.39577  0.16097  0.16097  1
 F  F12  1  0.27160  0.27870  0.47089  1
 I  I1  1  0.19949  0.72750  0.09809  1
 I  I2  1  0.19949  0.09809  0.72750  1
 I  I3  1  0.80051  0.27250  0.90191  1
 I  I4  1  0.80051  0.90191  0.27250  1
