CIF file written using JARVIS-Tools package.
data_Li2BF5
_symmetry_space_group_name_H-M  'I4_1/amd'
_cell_length_a       7.00491
_cell_length_b       7.00491
_cell_length_c       7.00491
_cell_angle_alpha    136.422
_cell_angle_beta     136.422
_cell_angle_gamma    63.328

_symmetry_Int_Tables_number  141
_chemical_formula_structural  Li2BF5
_chemical_formula_sum  Li4B2F0
_cell_volume  161.2336342248028
_cell_formula_units_Z  2
loop_
  _symmetry_equiv_pos_site_id
 _symmetry_equiv_pos_as_xyz
 1  'x, y, z'
loop_
 _atom_site_type_symbol
 _atom_site_label
 _atom_site_symmetry_multiplicity
 _atom_site_fract_x
 _atom_site_fract_y
 _atom_site_fract_z
 _atom_site_fract_occupancy
 B  B1  1  0.62500  0.37500  0.75000  1
 B  B2  1  0.37500  0.62500  0.25000  1
 F  F1  1  0.87500  0.12500  0.25000  1
 F  F2  1  0.12500  0.87500  0.75000  1
 F  F3  1  0.69220  0.66559  0.97339  1
 F  F4  1  0.69220  0.21881  0.52661  1
 F  F5  1  0.21881  0.69220  0.02661  1
 F  F6  1  0.66559  0.69220  0.47339  1
 F  F7  1  0.30780  0.78119  0.47339  1
 F  F8  1  0.30780  0.33441  0.02661  1
 F  F9  1  0.78119  0.30780  0.97339  1
 F  F10  1  0.33441  0.30780  0.52661  1
 Li  Li1  1  0.00000  0.00000  0.00000  1
 Li  Li2  1  0.00000  0.50000  0.50000  1
 Li  Li3  1  0.50000  0.00000  0.00000  1
 Li  Li4  1  -0.00000  -0.00000  0.50000  1
