CIF file written using JARVIS-Tools package.
data_KRhF6
_symmetry_space_group_name_H-M  'R-3'
_cell_length_a       4.88286
_cell_length_b       4.88286
_cell_length_c       4.88287
_cell_angle_alpha    97.7895
_cell_angle_beta     97.7895
_cell_angle_gamma    97.7894

_symmetry_Int_Tables_number  148
_chemical_formula_structural  KRhF6
_chemical_formula_sum  KRhF6
_cell_volume  112.86723274383755
_cell_formula_units_Z  1
loop_
  _symmetry_equiv_pos_site_id
 _symmetry_equiv_pos_as_xyz
 1  'x, y, z'
loop_
 _atom_site_type_symbol
 _atom_site_label
 _atom_site_symmetry_multiplicity
 _atom_site_fract_x
 _atom_site_fract_y
 _atom_site_fract_z
 _atom_site_fract_occupancy
 F  F1  1  0.07524  0.67365  0.78627  1
 F  F2  1  0.67365  0.78627  0.07524  1
 F  F3  1  0.78627  0.07524  0.67365  1
 F  F4  1  0.92476  0.32635  0.21373  1
 F  F5  1  0.32635  0.21373  0.92476  1
 F  F6  1  0.21373  0.92476  0.32635  1
 K  K1  1  0.50000  0.50000  0.50000  1
 Rh  Rh1  1  0.00000  0.00000  0.00000  1
