CIF file written using JARVIS-Tools package.
data_TaTe2
_symmetry_space_group_name_H-M  'C2/m'
_cell_length_a       7.71379
_cell_length_b       7.71379
_cell_length_c       9.53311
_cell_angle_alpha    69.1885
_cell_angle_beta     69.1885
_cell_angle_gamma    27.6793

_symmetry_Int_Tables_number  12
_chemical_formula_structural  TaTe2
_chemical_formula_sum  Ta3Te6
_cell_volume  245.22247942480035
_cell_formula_units_Z  3
loop_
  _symmetry_equiv_pos_site_id
 _symmetry_equiv_pos_as_xyz
 1  'x, y, z'
loop_
 _atom_site_type_symbol
 _atom_site_label
 _atom_site_symmetry_multiplicity
 _atom_site_fract_x
 _atom_site_fract_y
 _atom_site_fract_z
 _atom_site_fract_occupancy
 Ta  Ta1  1  0.00000  0.00000  0.00000  1
 Ta  Ta2  1  0.36108  0.36108  0.29024  1
 Ta  Ta3  1  0.63892  0.63892  0.70976  1
 Te  Te1  1  0.35231  0.35231  0.01364  1
 Te  Te2  1  0.64769  0.64769  0.98636  1
 Te  Te3  1  0.70452  0.70452  0.37935  1
 Te  Te4  1  0.29548  0.29548  0.62065  1
 Te  Te5  1  0.00597  0.00597  0.69273  1
 Te  Te6  1  0.99403  0.99403  0.30727  1
