CIF file written using JARVIS-Tools package.
data_ScHO2
_symmetry_space_group_name_H-M  'Cc'
_cell_length_a       5.90222
_cell_length_b       5.8615
_cell_length_c       3.84896
_cell_angle_alpha    80.1997
_cell_angle_beta     70.3387
_cell_angle_gamma    38.1886

_symmetry_Int_Tables_number  9
_chemical_formula_structural  ScHO2
_chemical_formula_sum  Sc2H2O4
_cell_volume  76.50306961523977
_cell_formula_units_Z  2
loop_
  _symmetry_equiv_pos_site_id
 _symmetry_equiv_pos_as_xyz
 1  'x, y, z'
loop_
 _atom_site_type_symbol
 _atom_site_label
 _atom_site_symmetry_multiplicity
 _atom_site_fract_x
 _atom_site_fract_y
 _atom_site_fract_z
 _atom_site_fract_occupancy
 H  H1  1  0.06067  0.46756  0.44896  1
 H  H2  1  -0.01824  0.04643  0.02785  1
 O  O1  1  0.34848  0.24862  0.27974  1
 O  O2  1  0.64383  0.75573  0.73338  1
 O  O3  1  -0.11858  0.21564  0.24680  1
 O  O4  1  0.13750  0.76207  0.73968  1
 Sc  Sc1  1  0.44422  0.80067  0.33091  1
 Sc  Sc2  1  0.58037  0.16451  0.69477  1
