CIF file written using JARVIS-Tools package.
data_Lu2Al3Co
_symmetry_space_group_name_H-M  'P6_3/mmc'
_cell_length_a       5.41544
_cell_length_b       5.41544
_cell_length_c       8.44567
_cell_angle_alpha    90
_cell_angle_beta     90
_cell_angle_gamma    120

_symmetry_Int_Tables_number  194
_chemical_formula_structural  Lu2Al3Co
_chemical_formula_sum  Lu4Al6Co2
_cell_volume  214.50267521176886
_cell_formula_units_Z  2
loop_
  _symmetry_equiv_pos_site_id
 _symmetry_equiv_pos_as_xyz
 1  'x, y, z'
loop_
 _atom_site_type_symbol
 _atom_site_label
 _atom_site_symmetry_multiplicity
 _atom_site_fract_x
 _atom_site_fract_y
 _atom_site_fract_z
 _atom_site_fract_occupancy
 Al  Al1  1  0.83695  0.67390  0.25000  1
 Al  Al2  1  0.16305  0.83695  0.75000  1
 Al  Al3  1  0.67390  0.83695  0.75000  1
 Al  Al4  1  0.32610  0.16305  0.25000  1
 Al  Al5  1  0.83695  0.16305  0.25000  1
 Al  Al6  1  0.16305  0.32610  0.75000  1
 Co  Co1  1  0.00000  0.00000  0.00000  1
 Co  Co2  1  0.00000  0.00000  0.50000  1
 Lu  Lu1  1  0.66667  0.33333  0.94393  1
 Lu  Lu2  1  0.33333  0.66667  0.44393  1
 Lu  Lu3  1  0.33333  0.66667  0.05607  1
 Lu  Lu4  1  0.66667  0.33333  0.55607  1
