CIF file written using JARVIS-Tools package.
data_Na3AsS3
_symmetry_space_group_name_H-M  'P2_13'
_cell_length_a       8.52095
_cell_length_b       8.52095
_cell_length_c       8.52095
_cell_angle_alpha    90
_cell_angle_beta     90
_cell_angle_gamma    90

_symmetry_Int_Tables_number  198
_chemical_formula_structural  Na3AsS3
_chemical_formula_sum  Na2As4S2
_cell_volume  618.6777964420047
_cell_formula_units_Z  4
loop_
  _symmetry_equiv_pos_site_id
 _symmetry_equiv_pos_as_xyz
 1  'x, y, z'
loop_
 _atom_site_type_symbol
 _atom_site_label
 _atom_site_symmetry_multiplicity
 _atom_site_fract_x
 _atom_site_fract_y
 _atom_site_fract_z
 _atom_site_fract_occupancy
 As  As1  1  0.77971  0.72029  0.27971  1
 As  As2  1  0.22029  0.22029  0.22029  1
 As  As3  1  0.27971  0.77971  0.72029  1
 As  As4  1  0.72029  0.27971  0.77971  1
 Na  Na1  1  0.17082  0.82918  0.32918  1
 Na  Na2  1  0.32918  0.17082  0.82918  1
 Na  Na3  1  0.82918  0.32918  0.17082  1
 Na  Na4  1  0.67082  0.67082  0.67082  1
 Na  Na5  1  0.43893  0.43893  0.43893  1
 Na  Na6  1  0.06973  0.43027  0.56973  1
 Na  Na7  1  0.56973  0.06973  0.43027  1
 Na  Na8  1  0.93027  0.93027  0.93027  1
 Na  Na9  1  0.93893  0.06107  0.56107  1
 Na  Na10  1  0.56107  0.93893  0.06107  1
 Na  Na11  1  0.06107  0.56107  0.93893  1
 Na  Na12  1  0.43027  0.56973  0.06973  1
 S  S1  1  0.52331  0.74961  0.35779  1
 S  S2  1  0.47669  0.24961  0.14221  1
 S  S3  1  0.75039  0.64221  0.02331  1
 S  S4  1  0.25039  0.85779  0.97669  1
 S  S5  1  0.74961  0.35779  0.52331  1
 S  S6  1  0.85779  0.97669  0.25039  1
 S  S7  1  0.64221  0.02331  0.75039  1
 S  S8  1  0.35779  0.52331  0.74961  1
 S  S9  1  0.14221  0.47669  0.24961  1
 S  S10  1  0.97669  0.25039  0.85779  1
 S  S11  1  0.24961  0.14221  0.47669  1
 S  S12  1  0.02331  0.75039  0.64221  1
