CIF file written using JARVIS-Tools package.
data_Li2VCrO4
_symmetry_space_group_name_H-M  'C2/m'
_cell_length_a       2.90482
_cell_length_b       5.07199
_cell_length_c       5.15181
_cell_angle_alpha    99.2761
_cell_angle_beta     90.0028
_cell_angle_gamma    106.639

_symmetry_Int_Tables_number  12
_chemical_formula_structural  Li2VCrO4
_chemical_formula_sum  Li2VCrO4
_cell_volume  71.68803323697685
_cell_formula_units_Z  1
loop_
  _symmetry_equiv_pos_site_id
 _symmetry_equiv_pos_as_xyz
 1  'x, y, z'
loop_
 _atom_site_type_symbol
 _atom_site_label
 _atom_site_symmetry_multiplicity
 _atom_site_fract_x
 _atom_site_fract_y
 _atom_site_fract_z
 _atom_site_fract_occupancy
 Cr  Cr1  1  0.50000  0.50000  -0.00000  1
 Li  Li1  1  0.24846  0.99691  0.24454  1
 Li  Li2  1  0.75154  0.00309  0.75546  1
 O  O1  1  0.61500  0.73002  0.36430  1
 O  O2  1  0.38500  0.26998  0.63570  1
 O  O3  1  0.11350  0.72702  0.87157  1
 O  O4  1  0.88650  0.27298  0.12843  1
 V  V1  1  -0.00000  0.50000  0.50000  1
