CIF file written using JARVIS-Tools package.
data_Pu2InNi2
_symmetry_space_group_name_H-M  'P4/mbm'
_cell_length_a       3.77671
_cell_length_b       7.26418
_cell_length_c       7.26418
_cell_angle_alpha    90
_cell_angle_beta     90
_cell_angle_gamma    90

_symmetry_Int_Tables_number  127
_chemical_formula_structural  Pu2InNi2
_chemical_formula_sum  Pu4In2Ni4
_cell_volume  199.29074118436094
_cell_formula_units_Z  2
loop_
  _symmetry_equiv_pos_site_id
 _symmetry_equiv_pos_as_xyz
 1  'x, y, z'
loop_
 _atom_site_type_symbol
 _atom_site_label
 _atom_site_symmetry_multiplicity
 _atom_site_fract_x
 _atom_site_fract_y
 _atom_site_fract_z
 _atom_site_fract_occupancy
 In  In1  1  0.00000  0.00000  0.00000  1
 In  In2  1  0.00000  0.50000  0.50000  1
 Ni  Ni1  1  0.00000  0.12418  0.37582  1
 Ni  Ni2  1  0.00000  0.37582  0.87582  1
 Ni  Ni3  1  0.00000  0.87582  0.62418  1
 Ni  Ni4  1  0.00000  0.62418  0.12418  1
 Pu  Pu1  1  0.50000  0.17291  0.67291  1
 Pu  Pu2  1  0.50000  0.32709  0.17291  1
 Pu  Pu3  1  0.50000  0.67291  0.82709  1
 Pu  Pu4  1  0.50000  0.82709  0.32709  1
