CIF file written using JARVIS-Tools package.
data_MnBeV
_symmetry_space_group_name_H-M  'I4mm'
_cell_length_a       5.7119
_cell_length_b       5.7119
_cell_length_c       5.7119
_cell_angle_alpha    155.145
_cell_angle_beta     155.145
_cell_angle_gamma    35.4371

_symmetry_Int_Tables_number  107
_chemical_formula_structural  MnBeV
_chemical_formula_sum  MnBeV
_cell_volume  32.883893181938845
_cell_formula_units_Z  1
loop_
  _symmetry_equiv_pos_site_id
 _symmetry_equiv_pos_as_xyz
 1  'x, y, z'
loop_
 _atom_site_type_symbol
 _atom_site_label
 _atom_site_symmetry_multiplicity
 _atom_site_fract_x
 _atom_site_fract_y
 _atom_site_fract_z
 _atom_site_fract_occupancy
 Be  Be1  1  0.99352  0.99352  -0.00000  1
 Mn  Mn1  1  0.34919  0.34919  -0.00000  1
 V  V1  1  0.65729  0.65729  0.00000  1
