CIF file written using JARVIS-Tools package.
data_PuB4Os
_symmetry_space_group_name_H-M  'Pbam'
_cell_length_a       3.57416
_cell_length_b       5.9998
_cell_length_c       11.617
_cell_angle_alpha    90
_cell_angle_beta     90
_cell_angle_gamma    90

_symmetry_Int_Tables_number  55
_chemical_formula_structural  PuB4Os
_chemical_formula_sum  Pu4B6Os4
_cell_volume  249.11714159314582
_cell_formula_units_Z  4
loop_
  _symmetry_equiv_pos_site_id
 _symmetry_equiv_pos_as_xyz
 1  'x, y, z'
loop_
 _atom_site_type_symbol
 _atom_site_label
 _atom_site_symmetry_multiplicity
 _atom_site_fract_x
 _atom_site_fract_y
 _atom_site_fract_z
 _atom_site_fract_occupancy
 B  B1  1  0.50000  0.38632  0.95340  1
 B  B2  1  0.50000  0.36473  0.53077  1
 B  B3  1  0.50000  0.63527  0.46923  1
 B  B4  1  0.50000  0.13527  0.03077  1
 B  B5  1  0.50000  0.86473  0.96923  1
 B  B6  1  0.50000  0.71251  0.31309  1
 B  B7  1  0.50000  0.61368  0.04660  1
 B  B8  1  0.50000  0.11368  0.45340  1
 B  B9  1  0.50000  0.88632  0.54660  1
 B  B10  1  0.50000  0.47144  0.80855  1
 B  B11  1  0.50000  0.52856  0.19145  1
 B  B12  1  0.50000  0.02856  0.30855  1
 B  B13  1  0.50000  0.97144  0.69145  1
 B  B14  1  0.50000  0.28749  0.68691  1
 B  B15  1  0.50000  0.78749  0.81309  1
 B  B16  1  0.50000  0.21251  0.18691  1
 Os  Os1  1  0.00000  0.13924  0.59327  1
 Os  Os2  1  0.00000  0.86076  0.40673  1
 Os  Os3  1  0.00000  0.63924  0.90673  1
 Os  Os4  1  0.00000  0.36076  0.09327  1
 Pu  Pu1  1  0.00000  0.62734  0.64982  1
 Pu  Pu2  1  0.00000  0.37266  0.35018  1
 Pu  Pu3  1  0.00000  0.87266  0.14982  1
 Pu  Pu4  1  0.00000  0.12734  0.85018  1
