CIF file written using JARVIS-Tools package.
data_Na2PdSe2O8
_symmetry_space_group_name_H-M  'P-1'
_cell_length_a       5.00854
_cell_length_b       6.01704
_cell_length_c       7.21637
_cell_angle_alpha    72.9975
_cell_angle_beta     86.643
_cell_angle_gamma    70.6217

_symmetry_Int_Tables_number  2
_chemical_formula_structural  Na2PdSe2O8
_chemical_formula_sum  Na2PdSe2O8
_cell_volume  196.0111359999357
_cell_formula_units_Z  1
loop_
  _symmetry_equiv_pos_site_id
 _symmetry_equiv_pos_as_xyz
 1  'x, y, z'
loop_
 _atom_site_type_symbol
 _atom_site_label
 _atom_site_symmetry_multiplicity
 _atom_site_fract_x
 _atom_site_fract_y
 _atom_site_fract_z
 _atom_site_fract_occupancy
 Na  Na1  1  0.79876  0.26215  0.80898  1
 Na  Na2  1  0.20124  0.73785  0.19102  1
 O  O1  1  0.26235  0.78578  0.50098  1
 O  O2  1  0.79359  0.68351  0.65458  1
 O  O3  1  0.29210  0.38542  0.82349  1
 O  O4  1  0.20641  0.31649  0.34542  1
 O  O5  1  0.10409  0.85804  0.85682  1
 O  O6  1  0.89591  0.14196  0.14318  1
 O  O7  1  0.73765  0.21422  0.49902  1
 O  O8  1  0.70790  0.61458  0.17651  1
 Pd  Pd1  1  0.50000  -0.00000  0.50000  1
 Se  Se1  1  0.12080  0.67865  0.71906  1
 Se  Se2  1  0.87920  0.32135  0.28094  1
