CIF file written using JARVIS-Tools package.
data_PrS2
_symmetry_space_group_name_H-M  'P2_1/c'
_cell_length_a       4.0764
_cell_length_b       8.10689
_cell_length_c       8.19043
_cell_angle_alpha    89.9137
_cell_angle_beta     90
_cell_angle_gamma    90

_symmetry_Int_Tables_number  14
_chemical_formula_structural  PrS2
_chemical_formula_sum  Pr4S8
_cell_volume  270.6683330168335
_cell_formula_units_Z  4
loop_
  _symmetry_equiv_pos_site_id
 _symmetry_equiv_pos_as_xyz
 1  'x, y, z'
loop_
 _atom_site_type_symbol
 _atom_site_label
 _atom_site_symmetry_multiplicity
 _atom_site_fract_x
 _atom_site_fract_y
 _atom_site_fract_z
 _atom_site_fract_occupancy
 Pr  Pr1  1  0.21252  0.12953  0.27562  1
 Pr  Pr2  1  0.28748  0.62953  0.27562  1
 Pr  Pr3  1  0.78748  0.87047  0.72438  1
 Pr  Pr4  1  0.71252  0.37047  0.72438  1
 S  S1  1  0.74014  0.37499  0.36679  1
 S  S2  1  0.84227  0.60774  0.00223  1
 S  S3  1  0.24014  0.12501  0.63321  1
 S  S4  1  0.25986  0.62501  0.63321  1
 S  S5  1  0.75986  0.87499  0.36679  1
 S  S6  1  0.34227  0.89226  0.99777  1
 S  S7  1  0.65773  0.10774  0.00223  1
 S  S8  1  0.15773  0.39226  0.99777  1
