CIF file written using JARVIS-Tools package.
data_LuAg4
_symmetry_space_group_name_H-M  'I4/m'
_cell_length_a       4.15524
_cell_length_b       5.1851
_cell_length_c       5.18461
_cell_angle_alpha    80.7802
_cell_angle_beta     66.3715
_cell_angle_gamma    66.376

_symmetry_Int_Tables_number  87
_chemical_formula_structural  LuAg4
_chemical_formula_sum  LuAg4
_cell_volume  93.76254232779327
_cell_formula_units_Z  1
loop_
  _symmetry_equiv_pos_site_id
 _symmetry_equiv_pos_as_xyz
 1  'x, y, z'
loop_
 _atom_site_type_symbol
 _atom_site_label
 _atom_site_symmetry_multiplicity
 _atom_site_fract_x
 _atom_site_fract_y
 _atom_site_fract_z
 _atom_site_fract_occupancy
 Ag  Ag1  1  0.59791  0.59965  0.20456  1
 Ag  Ag2  1  0.80250  0.79536  0.59956  1
 Ag  Ag3  1  0.19750  0.20464  0.40044  1
 Ag  Ag4  1  0.40209  0.40035  0.79544  1
 Lu  Lu1  1  0.00000  0.00000  0.00000  1
