CIF file written using JARVIS-Tools package.
data_MoF3
_symmetry_space_group_name_H-M  'R-3c'
_cell_length_a       5.66958
_cell_length_b       5.66959
_cell_length_c       5.66958
_cell_angle_alpha    53.4261
_cell_angle_beta     53.4261
_cell_angle_gamma    53.4261

_symmetry_Int_Tables_number  167
_chemical_formula_structural  MoF3
_chemical_formula_sum  Mo2F6
_cell_volume  109.03830463270492
_cell_formula_units_Z  2
loop_
  _symmetry_equiv_pos_site_id
 _symmetry_equiv_pos_as_xyz
 1  'x, y, z'
loop_
 _atom_site_type_symbol
 _atom_site_label
 _atom_site_symmetry_multiplicity
 _atom_site_fract_x
 _atom_site_fract_y
 _atom_site_fract_z
 _atom_site_fract_occupancy
 F  F1  1  0.40694  0.75000  0.09306  1
 F  F2  1  0.75000  0.09306  0.40694  1
 F  F3  1  0.90694  0.59306  0.25000  1
 F  F4  1  0.25000  0.90694  0.59306  1
 F  F5  1  0.59306  0.25000  0.90694  1
 F  F6  1  0.09306  0.40694  0.75000  1
 Mo  Mo1  1  0.50000  0.50000  0.50000  1
 Mo  Mo2  1  0.00000  0.00000  0.00000  1
