CIF file written using JARVIS-Tools package.
data_BN
_symmetry_space_group_name_H-M  'P6_3/mmc'
_cell_length_a       2.51095
_cell_length_b       2.51095
_cell_length_c       7.01157
_cell_angle_alpha    90
_cell_angle_beta     90
_cell_angle_gamma    120.001

_symmetry_Int_Tables_number  194
_chemical_formula_structural  BN
_chemical_formula_sum  B2N2
_cell_volume  38.284148610281875
_cell_formula_units_Z  2
loop_
  _symmetry_equiv_pos_site_id
 _symmetry_equiv_pos_as_xyz
 1  'x, y, z'
loop_
 _atom_site_type_symbol
 _atom_site_label
 _atom_site_symmetry_multiplicity
 _atom_site_fract_x
 _atom_site_fract_y
 _atom_site_fract_z
 _atom_site_fract_occupancy
 B  B1  1  0.33330  0.66670  0.25000  1
 B  B2  1  0.66670  0.33330  0.75000  1
 N  N1  1  -0.00003  0.00003  0.25000  1
 N  N2  1  0.00003  -0.00003  0.75000  1
