CIF file written using JARVIS-Tools package.
data_PbS
_symmetry_space_group_name_H-M  'P2_1/m'
_cell_length_a       4.02797
_cell_length_b       5.92609
_cell_length_c       10.0366
_cell_angle_alpha    94.2699
_cell_angle_beta     90
_cell_angle_gamma    90

_symmetry_Int_Tables_number  11
_chemical_formula_structural  PbS
_chemical_formula_sum  Pb4S4
_cell_volume  238.90985522559959
_cell_formula_units_Z  4
loop_
  _symmetry_equiv_pos_site_id
 _symmetry_equiv_pos_as_xyz
 1  'x, y, z'
loop_
 _atom_site_type_symbol
 _atom_site_label
 _atom_site_symmetry_multiplicity
 _atom_site_fract_x
 _atom_site_fract_y
 _atom_site_fract_z
 _atom_site_fract_occupancy
 Pb  Pb1  1  0.25000  0.76182  0.61240  1
 Pb  Pb2  1  0.75000  0.23818  0.38760  1
 Pb  Pb3  1  0.25000  0.23409  0.89966  1
 Pb  Pb4  1  0.75000  0.76591  0.10034  1
 S  S1  1  0.25000  0.74129  0.90718  1
 S  S2  1  0.75000  0.25871  0.09282  1
 S  S3  1  0.75000  0.06898  0.65828  1
 S  S4  1  0.25000  0.93102  0.34172  1
