CIF file written using JARVIS-Tools package.
data_TaBe2Rh
_symmetry_space_group_name_H-M  'P4mm'
_cell_length_a       2.84179
_cell_length_b       2.84179
_cell_length_c       6.0665
_cell_angle_alpha    90
_cell_angle_beta     90
_cell_angle_gamma    90

_symmetry_Int_Tables_number  99
_chemical_formula_structural  TaBe2Rh
_chemical_formula_sum  TaBe2Rh
_cell_volume  48.99157230092677
_cell_formula_units_Z  1
loop_
  _symmetry_equiv_pos_site_id
 _symmetry_equiv_pos_as_xyz
 1  'x, y, z'
loop_
 _atom_site_type_symbol
 _atom_site_label
 _atom_site_symmetry_multiplicity
 _atom_site_fract_x
 _atom_site_fract_y
 _atom_site_fract_z
 _atom_site_fract_occupancy
 Be  Be1  1  0.00000  0.00000  0.04931  1
 Be  Be2  1  0.50000  0.50000  0.24118  1
 Rh  Rh1  1  0.00000  0.00000  0.44744  1
 Ta  Ta1  1  0.50000  0.50000  0.76207  1
