CIF file written using JARVIS-Tools package.
data_Ba3SrNb2O9
_symmetry_space_group_name_H-M  'P6_3/mmc'
_cell_length_a       6.08067
_cell_length_b       6.08068
_cell_length_c       15.9355
_cell_angle_alpha    90
_cell_angle_beta     90
_cell_angle_gamma    120

_symmetry_Int_Tables_number  194
_chemical_formula_structural  Ba3SrNb2O9
_chemical_formula_sum  Ba6Sr2Nb4O8
_cell_volume  510.26809438202105
_cell_formula_units_Z  2
loop_
  _symmetry_equiv_pos_site_id
 _symmetry_equiv_pos_as_xyz
 1  'x, y, z'
loop_
 _atom_site_type_symbol
 _atom_site_label
 _atom_site_symmetry_multiplicity
 _atom_site_fract_x
 _atom_site_fract_y
 _atom_site_fract_z
 _atom_site_fract_occupancy
 Ba  Ba1  1  0.00000  0.00000  0.25000  1
 Ba  Ba2  1  0.00000  0.00000  0.75000  1
 Ba  Ba3  1  0.33333  0.66667  0.87621  1
 Ba  Ba4  1  0.66667  0.33333  0.37621  1
 Ba  Ba5  1  0.66667  0.33333  0.12379  1
 Ba  Ba6  1  0.33333  0.66667  0.62379  1
 Nb  Nb1  1  0.33333  0.66667  0.15563  1
 Nb  Nb2  1  0.66667  0.33333  0.65563  1
 Nb  Nb3  1  0.66667  0.33333  0.84437  1
 Nb  Nb4  1  0.33333  0.66667  0.34437  1
 O  O1  1  0.96896  0.48448  0.75000  1
 O  O2  1  0.51552  0.48448  0.75000  1
 O  O3  1  0.48448  0.96896  0.25000  1
 O  O4  1  0.17184  0.34368  0.10140  1
 O  O5  1  0.03104  0.51552  0.25000  1
 O  O6  1  0.48448  0.51552  0.25000  1
 O  O7  1  0.51552  0.03104  0.75000  1
 O  O8  1  0.17184  0.34368  0.39860  1
 O  O9  1  0.34368  0.17184  0.89860  1
 O  O10  1  0.82816  0.65632  0.89860  1
 O  O11  1  0.17184  0.82816  0.39860  1
 O  O12  1  0.82816  0.65632  0.60140  1
 O  O13  1  0.82816  0.17184  0.60140  1
 O  O14  1  0.82816  0.17184  0.89860  1
 O  O15  1  0.34368  0.17184  0.60140  1
 O  O16  1  0.65632  0.82816  0.10140  1
 O  O17  1  0.65632  0.82816  0.39860  1
 O  O18  1  0.17184  0.82816  0.10140  1
 Sr  Sr1  1  0.00000  0.00000  0.50000  1
 Sr  Sr2  1  0.00000  0.00000  0.00000  1
