CIF file written using JARVIS-Tools package.
data_Mn4O3F5
_symmetry_space_group_name_H-M  'Imm2'
_cell_length_a       5.6786
_cell_length_b       5.6786
_cell_length_c       5.6786
_cell_angle_alpha    68.04
_cell_angle_beta     102.543
_cell_angle_gamma    65.8659

_symmetry_Int_Tables_number  44
_chemical_formula_structural  Mn4O3F5
_chemical_formula_sum  Mn4O3F5
_cell_volume  139.38459427157161
_cell_formula_units_Z  1
loop_
  _symmetry_equiv_pos_site_id
 _symmetry_equiv_pos_as_xyz
 1  'x, y, z'
loop_
 _atom_site_type_symbol
 _atom_site_label
 _atom_site_symmetry_multiplicity
 _atom_site_fract_x
 _atom_site_fract_y
 _atom_site_fract_z
 _atom_site_fract_occupancy
 F  F1  1  0.05649  0.74982  0.80671  1
 F  F2  1  0.55653  0.24978  0.80671  1
 F  F3  1  0.50000  0.20781  0.29219  1
 F  F4  1  0.44347  0.74982  0.19369  1
 F  F5  1  0.94351  0.24978  0.19369  1
 Mn  Mn1  1  0.76069  0.72962  0.50969  1
 Mn  Mn2  1  0.23931  0.25101  0.50969  1
 Mn  Mn3  1  0.50000  0.52437  0.97563  1
 Mn  Mn4  1  -0.00000  0.99024  0.00976  1
 O  O1  1  0.50000  0.81744  0.68256  1
 O  O2  1  0.00000  0.29214  0.70786  1
 O  O3  1  0.00000  0.68817  0.31183  1
