CIF file written using JARVIS-Tools package.
data_BeFeNi
_symmetry_space_group_name_H-M  'I4mm'
_cell_length_a       4.98699
_cell_length_b       4.98699
_cell_length_c       4.98699
_cell_angle_alpha    150.895
_cell_angle_beta     150.895
_cell_angle_gamma    41.6297

_symmetry_Int_Tables_number  107
_chemical_formula_structural  BeFeNi
_chemical_formula_sum  BeFeNi
_cell_volume  29.277970618001202
_cell_formula_units_Z  1
loop_
  _symmetry_equiv_pos_site_id
 _symmetry_equiv_pos_as_xyz
 1  'x, y, z'
loop_
 _atom_site_type_symbol
 _atom_site_label
 _atom_site_symmetry_multiplicity
 _atom_site_fract_x
 _atom_site_fract_y
 _atom_site_fract_z
 _atom_site_fract_occupancy
 Be  Be1  1  0.00499  0.00499  -0.00000  1
 Fe  Fe1  1  0.34316  0.34316  0.00000  1
 Ni  Ni1  1  0.65185  0.65185  0.00000  1
