CIF file written using JARVIS-Tools package.
data_GaAsO4
_symmetry_space_group_name_H-M  'P3_121'
_cell_length_a       4.9925
_cell_length_b       4.99242
_cell_length_c       11.569
_cell_angle_alpha    89.9985
_cell_angle_beta     90.0016
_cell_angle_gamma    120.002

_symmetry_Int_Tables_number  152
_chemical_formula_structural  GaAsO4
_chemical_formula_sum  Ga3As3O2
_cell_volume  249.7177895087071
_cell_formula_units_Z  3
loop_
  _symmetry_equiv_pos_site_id
 _symmetry_equiv_pos_as_xyz
 1  'x, y, z'
loop_
 _atom_site_type_symbol
 _atom_site_label
 _atom_site_symmetry_multiplicity
 _atom_site_fract_x
 _atom_site_fract_y
 _atom_site_fract_z
 _atom_site_fract_occupancy
 As  As1  1  0.44414  -0.00000  0.83332  1
 As  As2  1  -0.00001  0.44414  0.16666  1
 As  As3  1  0.55586  0.55586  0.49999  1
 Ga  Ga1  1  0.44670  -0.00000  0.33332  1
 Ga  Ga2  1  0.00000  0.44670  0.66666  1
 Ga  Ga3  1  0.55330  0.55330  0.99999  1
 O  O1  1  0.39269  0.32387  0.38100  1
 O  O2  1  0.67611  0.06881  0.71433  1
 O  O3  1  0.08778  0.69745  0.79663  1
 O  O4  1  0.32387  0.39269  0.61898  1
 O  O5  1  0.93119  0.60732  0.04766  1
 O  O6  1  0.69745  0.08777  0.20335  1
 O  O7  1  0.39031  0.30252  0.87002  1
 O  O8  1  0.06881  0.67611  0.28566  1
 O  O9  1  0.91223  0.60971  0.53669  1
 O  O10  1  0.30251  0.39031  0.12996  1
 O  O11  1  0.60732  0.93120  0.95232  1
 O  O12  1  0.60971  0.91223  0.46329  1
