CIF file written using JARVIS-Tools package.
data_NiPPd
_symmetry_space_group_name_H-M  'P-62m'
_cell_length_a       3.65516
_cell_length_b       6.06262
_cell_length_c       6.0626
_cell_angle_alpha    120
_cell_angle_beta     90
_cell_angle_gamma    90

_symmetry_Int_Tables_number  189
_chemical_formula_structural  NiPPd
_chemical_formula_sum  Ni3P3Pd3
_cell_volume  116.34725514306774
_cell_formula_units_Z  3
loop_
  _symmetry_equiv_pos_site_id
 _symmetry_equiv_pos_as_xyz
 1  'x, y, z'
loop_
 _atom_site_type_symbol
 _atom_site_label
 _atom_site_symmetry_multiplicity
 _atom_site_fract_x
 _atom_site_fract_y
 _atom_site_fract_z
 _atom_site_fract_occupancy
 Ni  Ni1  1  0.00000  0.25594  -0.00000  1
 Ni  Ni2  1  0.00000  0.74403  0.74404  1
 Ni  Ni3  1  0.00000  0.99999  0.25596  1
 P  P1  1  0.00000  0.33332  0.66667  1
 P  P2  1  0.00000  0.66665  0.33333  1
 P  P3  1  0.50000  0.99999  -0.00000  1
 Pd  Pd1  1  0.50000  0.59847  -0.00000  1
 Pd  Pd2  1  0.50000  0.40150  0.40151  1
 Pd  Pd3  1  0.50000  -0.00001  0.59849  1
