CIF file written using JARVIS-Tools package.
data_ScBeSe
_symmetry_space_group_name_H-M  'I4mm'
_cell_length_a       4.60065
_cell_length_b       4.60065
_cell_length_c       4.60065
_cell_angle_alpha    131.675
_cell_angle_beta     131.675
_cell_angle_gamma    70.7426

_symmetry_Int_Tables_number  107
_chemical_formula_structural  ScBeSe
_chemical_formula_sum  ScBeSe
_cell_volume  53.21473775528555
_cell_formula_units_Z  1
loop_
  _symmetry_equiv_pos_site_id
 _symmetry_equiv_pos_as_xyz
 1  'x, y, z'
loop_
 _atom_site_type_symbol
 _atom_site_label
 _atom_site_symmetry_multiplicity
 _atom_site_fract_x
 _atom_site_fract_y
 _atom_site_fract_z
 _atom_site_fract_occupancy
 Be  Be1  1  0.97219  0.97219  0.00000  1
 Sc  Sc1  1  0.33248  0.33248  -0.00000  1
 Se  Se1  1  0.69533  0.69533  -0.00000  1
