CIF file written using JARVIS-Tools package.
data_Li2Co3O6
_symmetry_space_group_name_H-M  'C2/m'
_cell_length_a       4.89691
_cell_length_b       4.88883
_cell_length_c       4.97157
_cell_angle_alpha    99.4872
_cell_angle_beta     109.215
_cell_angle_gamma    59.9452

_symmetry_Int_Tables_number  12
_chemical_formula_structural  Li2Co3O6
_chemical_formula_sum  Li2Co3O6
_cell_volume  97.27865143075239
_cell_formula_units_Z  1
loop_
  _symmetry_equiv_pos_site_id
 _symmetry_equiv_pos_as_xyz
 1  'x, y, z'
loop_
 _atom_site_type_symbol
 _atom_site_label
 _atom_site_symmetry_multiplicity
 _atom_site_fract_x
 _atom_site_fract_y
 _atom_site_fract_z
 _atom_site_fract_occupancy
 Co  Co1  1  0.50000  -0.00000  0.50000  1
 Co  Co2  1  0.16421  0.67159  0.50000  1
 Co  Co3  1  0.83579  0.32841  0.50000  1
 Li  Li1  1  0.33409  0.33181  -0.00000  1
 Li  Li2  1  0.66591  0.66819  0.00000  1
 O  O1  1  0.24478  -0.00000  0.71415  1
 O  O2  1  0.09653  0.33948  0.29059  1
 O  O3  1  0.75522  0.00000  0.28585  1
 O  O4  1  0.56399  0.33948  0.70941  1
 O  O5  1  0.43601  0.66052  0.29059  1
 O  O6  1  0.90347  0.66052  0.70941  1
