CIF file written using JARVIS-Tools package.
data_ScBe2Cl
_symmetry_space_group_name_H-M  'P4/mmm'
_cell_length_a       3.05135
_cell_length_b       3.05135
_cell_length_c       7.06425
_cell_angle_alpha    90
_cell_angle_beta     90
_cell_angle_gamma    90

_symmetry_Int_Tables_number  123
_chemical_formula_structural  ScBe2Cl
_chemical_formula_sum  ScBe2Cl
_cell_volume  65.7731787519498
_cell_formula_units_Z  1
loop_
  _symmetry_equiv_pos_site_id
 _symmetry_equiv_pos_as_xyz
 1  'x, y, z'
loop_
 _atom_site_type_symbol
 _atom_site_label
 _atom_site_symmetry_multiplicity
 _atom_site_fract_x
 _atom_site_fract_y
 _atom_site_fract_z
 _atom_site_fract_occupancy
 Be  Be1  1  0.00000  0.00000  0.74641  1
 Be  Be2  1  0.00000  0.00000  0.25359  1
 Cl  Cl1  1  0.50000  0.50000  0.00000  1
 Sc  Sc1  1  0.50000  0.50000  0.50000  1
