CIF file written using JARVIS-Tools package.
data_CeAs12Os4
_symmetry_space_group_name_H-M  'Im-3'
_cell_length_a       7.49122
_cell_length_b       7.49122
_cell_length_c       7.49122
_cell_angle_alpha    109.471
_cell_angle_beta     109.471
_cell_angle_gamma    109.471

_symmetry_Int_Tables_number  204
_chemical_formula_structural  CeAs12Os4
_chemical_formula_sum  CeAs2Os4
_cell_volume  323.6204875831878
_cell_formula_units_Z  1
loop_
  _symmetry_equiv_pos_site_id
 _symmetry_equiv_pos_as_xyz
 1  'x, y, z'
loop_
 _atom_site_type_symbol
 _atom_site_label
 _atom_site_symmetry_multiplicity
 _atom_site_fract_x
 _atom_site_fract_y
 _atom_site_fract_z
 _atom_site_fract_occupancy
 As  As1  1  0.65444  0.85123  0.50567  1
 As  As2  1  0.14877  0.80321  0.65444  1
 As  As3  1  0.80321  0.65444  0.14877  1
 As  As4  1  0.50567  0.65444  0.85123  1
 As  As5  1  0.49433  0.34556  0.14877  1
 As  As6  1  0.34556  0.14877  0.49433  1
 As  As7  1  0.19679  0.34556  0.85123  1
 As  As8  1  0.65444  0.14877  0.80321  1
 As  As9  1  0.34556  0.85123  0.19679  1
 As  As10  1  0.85123  0.19679  0.34556  1
 As  As11  1  0.14877  0.49433  0.34556  1
 As  As12  1  0.85123  0.50567  0.65444  1
 Ce  Ce1  1  0.00000  0.00000  0.00000  1
 Os  Os1  1  0.50000  0.50000  0.50000  1
 Os  Os2  1  0.00000  0.00000  0.50000  1
 Os  Os3  1  -0.00000  0.50000  0.00000  1
 Os  Os4  1  0.50000  -0.00000  -0.00000  1
