CIF file written using JARVIS-Tools package.
data_LiMnPO4
_symmetry_space_group_name_H-M  'Pnma'
_cell_length_a       4.92953
_cell_length_b       6.35629
_cell_length_c       9.40438
_cell_angle_alpha    90
_cell_angle_beta     90
_cell_angle_gamma    90

_symmetry_Int_Tables_number  62
_chemical_formula_structural  LiMnPO4
_chemical_formula_sum  Li4Mn4P4O6
_cell_volume  294.672217550733
_cell_formula_units_Z  4
loop_
  _symmetry_equiv_pos_site_id
 _symmetry_equiv_pos_as_xyz
 1  'x, y, z'
loop_
 _atom_site_type_symbol
 _atom_site_label
 _atom_site_symmetry_multiplicity
 _atom_site_fract_x
 _atom_site_fract_y
 _atom_site_fract_z
 _atom_site_fract_occupancy
 Li  Li1  1  0.01949  0.25000  0.33305  1
 Li  Li2  1  0.48051  0.25000  0.83305  1
 Li  Li3  1  0.98051  0.75000  0.66695  1
 Li  Li4  1  0.51949  0.75000  0.16695  1
 Mn  Mn1  1  0.00000  0.00000  0.00000  1
 Mn  Mn2  1  0.50000  0.00000  0.50000  1
 Mn  Mn3  1  0.00000  0.50000  0.00000  1
 Mn  Mn4  1  0.50000  0.50000  0.50000  1
 O  O1  1  0.65145  0.04859  0.11896  1
 O  O2  1  0.58357  0.25000  0.34468  1
 O  O3  1  0.21137  0.25000  0.14471  1
 O  O4  1  0.84855  0.04859  0.61896  1
 O  O5  1  0.91643  0.25000  0.84468  1
 O  O6  1  0.34855  0.95141  0.88104  1
 O  O7  1  0.65145  0.45141  0.11896  1
 O  O8  1  0.28863  0.25000  0.64471  1
 O  O9  1  0.34855  0.54859  0.88104  1
 O  O10  1  0.41643  0.75000  0.65532  1
 O  O11  1  0.71137  0.75000  0.35529  1
 O  O12  1  0.78863  0.75000  0.85529  1
 O  O13  1  0.84855  0.45141  0.61896  1
 O  O14  1  0.08357  0.75000  0.15532  1
 O  O15  1  0.15145  0.54859  0.38104  1
 O  O16  1  0.15145  0.95141  0.38104  1
 P  P1  1  0.97853  0.25000  0.67967  1
 P  P2  1  0.52147  0.25000  0.17967  1
 P  P3  1  0.02147  0.75000  0.32033  1
 P  P4  1  0.47853  0.75000  0.82033  1
