CIF file written using JARVIS-Tools package.
data_BeGeSb
_symmetry_space_group_name_H-M  'I4mm'
_cell_length_a       6.28015
_cell_length_b       6.28015
_cell_length_c       6.28015
_cell_angle_alpha    150.504
_cell_angle_beta     150.504
_cell_angle_gamma    42.2022

_symmetry_Int_Tables_number  107
_chemical_formula_structural  BeGeSb
_chemical_formula_sum  BeGeSb
_cell_volume  59.90121568386649
_cell_formula_units_Z  1
loop_
  _symmetry_equiv_pos_site_id
 _symmetry_equiv_pos_as_xyz
 1  'x, y, z'
loop_
 _atom_site_type_symbol
 _atom_site_label
 _atom_site_symmetry_multiplicity
 _atom_site_fract_x
 _atom_site_fract_y
 _atom_site_fract_z
 _atom_site_fract_occupancy
 Be  Be1  1  0.98266  0.98266  -0.00000  1
 Ge  Ge1  1  0.38362  0.38362  -0.00000  1
 Sb  Sb1  1  0.63371  0.63371  -0.00000  1
