CIF file written using JARVIS-Tools package.
data_Cr2AsSe
_symmetry_space_group_name_H-M  'P-6m2'
_cell_length_a       3.87988
_cell_length_b       3.87988
_cell_length_c       4.93973
_cell_angle_alpha    90
_cell_angle_beta     90
_cell_angle_gamma    120

_symmetry_Int_Tables_number  187
_chemical_formula_structural  Cr2AsSe
_chemical_formula_sum  Cr2AsSe
_cell_volume  64.39740811558332
_cell_formula_units_Z  1
loop_
  _symmetry_equiv_pos_site_id
 _symmetry_equiv_pos_as_xyz
 1  'x, y, z'
loop_
 _atom_site_type_symbol
 _atom_site_label
 _atom_site_symmetry_multiplicity
 _atom_site_fract_x
 _atom_site_fract_y
 _atom_site_fract_z
 _atom_site_fract_occupancy
 As  As1  1  0.66667  0.33333  0.50000  1
 Cr  Cr1  1  0.00000  0.00000  0.71378  1
 Cr  Cr2  1  0.00000  0.00000  0.28622  1
 Se  Se1  1  0.33333  0.66667  0.00000  1
