CIF file written using JARVIS-Tools package.
data_Li3V2P4H2O16
_symmetry_space_group_name_H-M  'P1'
_cell_length_a       4.84542
_cell_length_b       7.46028
_cell_length_c       7.93902
_cell_angle_alpha    89.8276
_cell_angle_beta     89.697
_cell_angle_gamma    75.3974

_symmetry_Int_Tables_number  1
_chemical_formula_structural  Li3V2P4H2O16
_chemical_formula_sum  Li3V2P4H2O6
_cell_volume  277.7065126689957
_cell_formula_units_Z  1
loop_
  _symmetry_equiv_pos_site_id
 _symmetry_equiv_pos_as_xyz
 1  'x, y, z'
loop_
 _atom_site_type_symbol
 _atom_site_label
 _atom_site_symmetry_multiplicity
 _atom_site_fract_x
 _atom_site_fract_y
 _atom_site_fract_z
 _atom_site_fract_occupancy
 H  H1  1  0.46681  0.51042  0.49100  1
 H  H2  1  0.97432  0.01211  0.01149  1
 Li  Li1  1  0.38551  0.15537  0.86704  1
 Li  Li2  1  0.60727  0.84239  0.13159  1
 Li  Li3  1  0.89706  0.64712  0.62787  1
 O  O1  1  0.12717  0.14252  0.55517  1
 O  O2  1  0.02100  0.69032  0.17444  1
 O  O3  1  0.98735  0.30780  0.82722  1
 O  O4  1  0.25410  0.55790  0.44734  1
 O  O5  1  0.37895  0.33811  0.04937  1
 O  O6  1  0.54353  0.18434  0.33220  1
 O  O7  1  0.14980  0.64709  0.82519  1
 O  O8  1  0.35016  0.85511  0.32178  1
 O  O9  1  0.76240  0.05276  0.06125  1
 O  O10  1  0.48591  0.80813  0.67308  1
 O  O11  1  0.74111  0.44636  0.56370  1
 O  O12  1  0.25178  0.94530  0.94308  1
 O  O13  1  0.84855  0.35845  0.17252  1
 O  O14  1  0.65167  0.14539  0.68040  1
 O  O15  1  0.62375  0.65176  0.95379  1
 O  O16  1  0.87442  0.84556  0.45290  1
 P  P1  1  0.37122  0.76392  0.84592  1
 P  P2  1  0.13087  0.73815  0.34567  1
 P  P3  1  0.86926  0.26552  0.65403  1
 P  P4  1  0.63450  0.23982  0.16011  1
 V  V1  1  0.00266  0.49661  0.00330  1
 V  V2  1  0.49332  0.00698  0.50154  1
