CIF file written using JARVIS-Tools package.
data_K
_symmetry_space_group_name_H-M  'Pnma'
_cell_length_a       4.50357
_cell_length_b       11.4509
_cell_length_c       11.3498
_cell_angle_alpha    90
_cell_angle_beta     90
_cell_angle_gamma    90

_symmetry_Int_Tables_number  62
_chemical_formula_structural  K
_chemical_formula_sum  K8
_cell_volume  585.3096452365845
_cell_formula_units_Z  8
loop_
  _symmetry_equiv_pos_site_id
 _symmetry_equiv_pos_as_xyz
 1  'x, y, z'
loop_
 _atom_site_type_symbol
 _atom_site_label
 _atom_site_symmetry_multiplicity
 _atom_site_fract_x
 _atom_site_fract_y
 _atom_site_fract_z
 _atom_site_fract_occupancy
 K  K1  1  0.75000  0.49343  0.68140  1
 K  K2  1  0.75000  0.99343  0.81860  1
 K  K3  1  0.25000  0.50657  0.31860  1
 K  K4  1  0.25000  0.00657  0.18140  1
 K  K5  1  0.75000  0.31841  0.02242  1
 K  K6  1  0.75000  0.81841  0.47758  1
 K  K7  1  0.25000  0.68159  0.97758  1
 K  K8  1  0.25000  0.18159  0.52242  1
