CIF file written using JARVIS-Tools package.
data_CeTh2O6
_symmetry_space_group_name_H-M  'Immm'
_cell_length_a       3.93986
_cell_length_b       5.56566
_cell_length_c       6.81442
_cell_angle_alpha    114.099
_cell_angle_beta     106.804
_cell_angle_gamma    90.0007

_symmetry_Int_Tables_number  71
_chemical_formula_structural  CeTh2O6
_chemical_formula_sum  CeTh2O6
_cell_volume  129.38035954642874
_cell_formula_units_Z  1
loop_
  _symmetry_equiv_pos_site_id
 _symmetry_equiv_pos_as_xyz
 1  'x, y, z'
loop_
 _atom_site_type_symbol
 _atom_site_label
 _atom_site_symmetry_multiplicity
 _atom_site_fract_x
 _atom_site_fract_y
 _atom_site_fract_z
 _atom_site_fract_occupancy
 Ce  Ce1  1  0.67066  0.66710  0.33352  1
 O  O1  1  0.83518  0.58413  0.66255  1
 O  O2  1  0.17068  0.91209  0.33354  1
 O  O3  1  0.83519  0.07922  0.66259  1
 O  O4  1  0.50613  0.75007  0.00447  1
 O  O5  1  0.17065  0.42214  0.33350  1
 O  O6  1  0.50614  0.25500  0.00447  1
 Th  Th1  1  0.33628  0.33274  0.66477  1
 Th  Th2  1  0.00503  0.00148  0.00227  1
