CIF file written using JARVIS-Tools package.
data_TeI
_symmetry_space_group_name_H-M  'C2/m'
_cell_length_a       4.23943
_cell_length_b       8.11411
_cell_length_c       9.73867
_cell_angle_alpha    85.7751
_cell_angle_beta     77.4332
_cell_angle_gamma    74.8555

_symmetry_Int_Tables_number  12
_chemical_formula_structural  TeI
_chemical_formula_sum  Te4I4
_cell_volume  315.57031866643547
_cell_formula_units_Z  4
loop_
  _symmetry_equiv_pos_site_id
 _symmetry_equiv_pos_as_xyz
 1  'x, y, z'
loop_
 _atom_site_type_symbol
 _atom_site_label
 _atom_site_symmetry_multiplicity
 _atom_site_fract_x
 _atom_site_fract_y
 _atom_site_fract_z
 _atom_site_fract_occupancy
 I  I1  1  0.65414  0.88038  0.81138  1
 I  I2  1  0.10695  0.23072  0.55537  1
 I  I3  1  0.89305  0.76928  0.44463  1
 I  I4  1  0.34586  0.11962  0.18862  1
 Te  Te1  1  0.69975  0.41683  0.18375  1
 Te  Te2  1  0.08054  0.67981  0.15908  1
 Te  Te3  1  0.91946  0.32019  0.84092  1
 Te  Te4  1  0.30025  0.58317  0.81625  1
