CIF file written using JARVIS-Tools package.
data_HoGe2Pd2
_symmetry_space_group_name_H-M  'I4/mmm'
_cell_length_a       4.26237
_cell_length_b       4.26236
_cell_length_c       5.90064
_cell_angle_alpha    111.173
_cell_angle_beta     111.173
_cell_angle_gamma    90

_symmetry_Int_Tables_number  139
_chemical_formula_structural  HoGe2Pd2
_chemical_formula_sum  HoGe2Pd2
_cell_volume  92.16214262916706
_cell_formula_units_Z  1
loop_
  _symmetry_equiv_pos_site_id
 _symmetry_equiv_pos_as_xyz
 1  'x, y, z'
loop_
 _atom_site_type_symbol
 _atom_site_label
 _atom_site_symmetry_multiplicity
 _atom_site_fract_x
 _atom_site_fract_y
 _atom_site_fract_z
 _atom_site_fract_occupancy
 Ge  Ge1  1  0.61931  0.61931  0.23862  1
 Ge  Ge2  1  0.38069  0.38069  0.76138  1
 Ho  Ho1  1  0.00000  0.00000  0.00000  1
 Pd  Pd1  1  0.75000  0.25000  0.50000  1
 Pd  Pd2  1  0.25000  0.75000  0.50000  1
