CIF file written using JARVIS-Tools package.
data_AgN
_symmetry_space_group_name_H-M  'Cmce'
_cell_length_a       4.1099
_cell_length_b       4.1099
_cell_length_c       6.64585
_cell_angle_alpha    90
_cell_angle_beta     90
_cell_angle_gamma    91.3056

_symmetry_Int_Tables_number  64
_chemical_formula_structural  AgN
_chemical_formula_sum  Ag4N4
_cell_volume  112.22770725692868
_cell_formula_units_Z  4
loop_
  _symmetry_equiv_pos_site_id
 _symmetry_equiv_pos_as_xyz
 1  'x, y, z'
loop_
 _atom_site_type_symbol
 _atom_site_label
 _atom_site_symmetry_multiplicity
 _atom_site_fract_x
 _atom_site_fract_y
 _atom_site_fract_z
 _atom_site_fract_occupancy
 Ag  Ag1  1  0.33359  0.66641  0.33883  1
 Ag  Ag2  1  0.66641  0.33359  0.66117  1
 Ag  Ag3  1  0.16641  0.83359  0.83883  1
 Ag  Ag4  1  0.83359  0.16641  0.16117  1
 N  N1  1  0.83627  0.66373  0.25000  1
 N  N2  1  0.66373  0.83627  0.75000  1
 N  N3  1  0.16373  0.33627  0.75000  1
 N  N4  1  0.33627  0.16373  0.25000  1
