CIF file written using JARVIS-Tools package.
data_TiFeSi
_symmetry_space_group_name_H-M  'Ima2'
_cell_length_a       6.23
_cell_length_b       6.97994
_cell_length_c       7.12796
_cell_angle_alpha    119.315
_cell_angle_beta     115.913
_cell_angle_gamma    90

_symmetry_Int_Tables_number  46
_chemical_formula_structural  TiFeSi
_chemical_formula_sum  Ti6Fe6Si6
_cell_volume  233.8699397470971
_cell_formula_units_Z  6
loop_
  _symmetry_equiv_pos_site_id
 _symmetry_equiv_pos_as_xyz
 1  'x, y, z'
loop_
 _atom_site_type_symbol
 _atom_site_label
 _atom_site_symmetry_multiplicity
 _atom_site_fract_x
 _atom_site_fract_y
 _atom_site_fract_z
 _atom_site_fract_occupancy
 Fe  Fe1  1  0.25144  -0.00000  -0.00000  1
 Fe  Fe2  1  0.49683  0.40989  0.75343  1
 Fe  Fe3  1  0.74340  0.59011  0.24657  1
 Fe  Fe4  1  0.49683  0.84355  0.75343  1
 Fe  Fe5  1  0.74340  0.15645  0.24657  1
 Fe  Fe6  1  0.25144  0.50000  -0.00000  1
 Si  Si1  1  0.16264  0.65914  0.33454  1
 Si  Si2  1  0.82810  0.34086  0.66546  1
 Si  Si3  1  0.47474  0.21988  0.93976  1
 Si  Si4  1  0.82810  0.82460  0.66546  1
 Si  Si5  1  0.53498  0.78012  0.06024  1
 Si  Si6  1  0.16264  0.17540  0.33454  1
 Ti  Ti1  1  0.49550  0.44503  0.39006  1
 Ti  Ti2  1  0.92244  0.75295  0.00591  1
 Ti  Ti3  1  0.49144  0.97758  0.45516  1
 Ti  Ti4  1  0.91653  0.24705  0.99409  1
 Ti  Ti5  1  0.10544  0.55497  0.60994  1
 Ti  Ti6  1  0.03629  0.02242  0.54484  1
