CIF file written using JARVIS-Tools package.
data_LiBePt
_symmetry_space_group_name_H-M  'I4mm'
_cell_length_a       4.8211
_cell_length_b       4.8211
_cell_length_c       4.8211
_cell_angle_alpha    144.98
_cell_angle_beta     144.98
_cell_angle_gamma    50.3642

_symmetry_Int_Tables_number  107
_chemical_formula_structural  LiBePt
_chemical_formula_sum  LiBePt
_cell_volume  36.718964447150896
_cell_formula_units_Z  1
loop_
  _symmetry_equiv_pos_site_id
 _symmetry_equiv_pos_as_xyz
 1  'x, y, z'
loop_
 _atom_site_type_symbol
 _atom_site_label
 _atom_site_symmetry_multiplicity
 _atom_site_fract_x
 _atom_site_fract_y
 _atom_site_fract_z
 _atom_site_fract_occupancy
 Be  Be1  1  0.02225  0.02225  0.00000  1
 Li  Li1  1  0.33412  0.33412  0.00000  1
 Pt  Pt1  1  0.64363  0.64363  0.00000  1
