CIF file written using JARVIS-Tools package.
data_Li2MnO2F
_symmetry_space_group_name_H-M  'Cc'
_cell_length_a       5.07894
_cell_length_b       5.07894
_cell_length_c       5.09165
_cell_angle_alpha    79.868
_cell_angle_beta     100.132
_cell_angle_gamma    60.1872

_symmetry_Int_Tables_number  9
_chemical_formula_structural  Li2MnO2F
_chemical_formula_sum  Li4Mn2O4F2
_cell_volume  106.71617912484922
_cell_formula_units_Z  2
loop_
  _symmetry_equiv_pos_site_id
 _symmetry_equiv_pos_as_xyz
 1  'x, y, z'
loop_
 _atom_site_type_symbol
 _atom_site_label
 _atom_site_symmetry_multiplicity
 _atom_site_fract_x
 _atom_site_fract_y
 _atom_site_fract_z
 _atom_site_fract_occupancy
 F  F1  1  0.65920  0.15877  0.97407  1
 F  F2  1  0.84123  0.34080  0.47407  1
 Li  Li1  1  0.25322  0.24132  0.75433  1
 Li  Li2  1  0.56762  0.60535  0.76708  1
 Li  Li3  1  0.39465  0.43238  0.26708  1
 Li  Li4  1  0.75868  0.74678  0.25433  1
 Mn  Mn1  1  0.92460  0.87555  0.75017  1
 Mn  Mn2  1  0.12445  0.07540  0.25017  1
 O  O1  1  0.15441  0.71135  0.49665  1
 O  O2  1  0.28865  0.84559  0.99665  1
 O  O3  1  0.00710  0.47380  0.00770  1
 O  O4  1  0.52620  0.99290  0.50770  1
