CIF file written using JARVIS-Tools package.
data_Fe4O5F3
_symmetry_space_group_name_H-M  'P1'
_cell_length_a       4.59193
_cell_length_b       5.79746
_cell_length_c       9.6861
_cell_angle_alpha    107.418
_cell_angle_beta     94.7739
_cell_angle_gamma    89.8225

_symmetry_Int_Tables_number  1
_chemical_formula_structural  Fe4O5F3
_chemical_formula_sum  Fe8O0F6
_cell_volume  245.1178084299097
_cell_formula_units_Z  2
loop_
  _symmetry_equiv_pos_site_id
 _symmetry_equiv_pos_as_xyz
 1  'x, y, z'
loop_
 _atom_site_type_symbol
 _atom_site_label
 _atom_site_symmetry_multiplicity
 _atom_site_fract_x
 _atom_site_fract_y
 _atom_site_fract_z
 _atom_site_fract_occupancy
 F  F1  1  0.83361  0.04279  0.58158  1
 F  F2  1  0.28623  0.56977  0.15404  1
 F  F3  1  0.19695  0.69336  0.89756  1
 F  F4  1  0.23642  0.94550  0.39084  1
 F  F5  1  0.76371  0.30666  0.11066  1
 F  F6  1  0.79861  0.55439  0.60362  1
 Fe  Fe1  1  0.02357  0.73322  0.48908  1
 Fe  Fe2  1  0.54745  0.88597  0.24099  1
 Fe  Fe3  1  0.03352  0.26238  0.49498  1
 Fe  Fe4  1  0.96593  0.49329  0.99301  1
 Fe  Fe5  1  0.49492  0.37219  0.26597  1
 Fe  Fe6  1  0.44553  0.13332  0.77064  1
 Fe  Fe7  1  0.49630  0.62765  0.74771  1
 Fe  Fe8  1  -0.01140  0.00450  0.00275  1
 O  O1  1  0.80238  0.79366  0.09339  1
 O  O2  1  0.70983  0.66424  0.34293  1
 O  O3  1  0.72598  0.18760  0.35131  1
 O  O4  1  0.67962  0.92539  0.85134  1
 O  O5  1  0.29918  0.07506  0.15341  1
 O  O6  1  0.30066  0.82539  0.65104  1
 O  O7  1  0.16397  0.20577  0.91223  1
 O  O8  1  0.22730  0.44893  0.40110  1
 O  O9  1  0.30399  0.32811  0.65309  1
 O  O10  1  0.67574  0.42087  0.84673  1
