CIF file written using JARVIS-Tools package.
data_BaMn2O5
_symmetry_space_group_name_H-M  'Cmmm'
_cell_length_a       4.05366
_cell_length_b       3.75717
_cell_length_c       6.3489
_cell_angle_alpha    90
_cell_angle_beta     108.617
_cell_angle_gamma    90

_symmetry_Int_Tables_number  65
_chemical_formula_structural  BaMn2O5
_chemical_formula_sum  BaMn2O5
_cell_volume  91.63578705508989
_cell_formula_units_Z  1
loop_
  _symmetry_equiv_pos_site_id
 _symmetry_equiv_pos_as_xyz
 1  'x, y, z'
loop_
 _atom_site_type_symbol
 _atom_site_label
 _atom_site_symmetry_multiplicity
 _atom_site_fract_x
 _atom_site_fract_y
 _atom_site_fract_z
 _atom_site_fract_occupancy
 Ba  Ba1  1  0.99253  0.00000  0.00000  1
 Mn  Mn1  1  0.65692  0.50000  0.32881  1
 Mn  Mn2  1  0.32811  0.50000  0.67119  1
 O  O1  1  0.49251  0.50000  0.00000  1
 O  O2  1  0.81415  0.50000  0.64334  1
 O  O3  1  0.17080  0.50000  0.35666  1
 O  O4  1  0.64688  0.00000  0.30879  1
 O  O5  1  0.33810  0.00000  0.69121  1
