CIF file written using JARVIS-Tools package.
data_BeNbTc
_symmetry_space_group_name_H-M  'I4mm'
_cell_length_a       5.91702
_cell_length_b       5.91702
_cell_length_c       5.91702
_cell_angle_alpha    153.329
_cell_angle_beta     153.329
_cell_angle_gamma    38.0757

_symmetry_Int_Tables_number  107
_chemical_formula_structural  BeNbTc
_chemical_formula_sum  BeNbTc
_cell_volume  41.67322941642025
_cell_formula_units_Z  1
loop_
  _symmetry_equiv_pos_site_id
 _symmetry_equiv_pos_as_xyz
 1  'x, y, z'
loop_
 _atom_site_type_symbol
 _atom_site_label
 _atom_site_symmetry_multiplicity
 _atom_site_fract_x
 _atom_site_fract_y
 _atom_site_fract_z
 _atom_site_fract_occupancy
 Be  Be1  1  0.00916  0.00916  -0.00000  1
 Nb  Nb1  1  0.34768  0.34768  -0.00000  1
 Tc  Tc1  1  0.64316  0.64316  -0.00000  1
