CIF file written using JARVIS-Tools package.
data_MgSi2O5
_symmetry_space_group_name_H-M  'Pbam'
_cell_length_a       5.36443
_cell_length_b       6.9704
_cell_length_c       7.68288
_cell_angle_alpha    90
_cell_angle_beta     90.0216
_cell_angle_gamma    90

_symmetry_Int_Tables_number  55
_chemical_formula_structural  MgSi2O5
_chemical_formula_sum  Mg4Si8O20
_cell_volume  287.2796344721953
_cell_formula_units_Z  4
loop_
  _symmetry_equiv_pos_site_id
 _symmetry_equiv_pos_as_xyz
 1  'x, y, z'
loop_
 _atom_site_type_symbol
 _atom_site_label
 _atom_site_symmetry_multiplicity
 _atom_site_fract_x
 _atom_site_fract_y
 _atom_site_fract_z
 _atom_site_fract_occupancy
 Mg  Mg1  1  0.00009  0.84755  0.65591  1
 Mg  Mg2  1  0.99991  0.34755  0.84409  1
 Mg  Mg3  1  0.99991  0.15245  0.34409  1
 Mg  Mg4  1  0.00009  0.65245  0.15591  1
 O  O1  1  0.71252  0.50023  0.00037  1
 O  O2  1  0.28748  0.49977  0.99963  1
 O  O3  1  0.73851  0.61913  0.70246  1
 O  O4  1  0.26189  0.88020  0.20212  1
 O  O5  1  0.73811  0.38020  0.29788  1
 O  O6  1  0.26189  0.61980  0.70212  1
 O  O7  1  0.00014  0.34717  0.56794  1
 O  O8  1  0.49986  0.34679  0.57880  1
 O  O9  1  0.26149  0.11913  0.79754  1
 O  O10  1  0.26149  0.38087  0.29754  1
 O  O11  1  0.73851  0.88087  0.20246  1
 O  O12  1  0.73811  0.11980  0.79788  1
 O  O13  1  0.99986  0.84717  0.93206  1
 O  O14  1  0.00014  0.15283  0.06794  1
 O  O15  1  0.71252  0.99977  0.50037  1
 O  O16  1  0.50014  0.65321  0.42120  1
 O  O17  1  0.49986  0.15321  0.07880  1
 O  O18  1  0.28748  0.00023  0.49963  1
 O  O19  1  0.99986  0.65283  0.43206  1
 O  O20  1  0.50014  0.84679  0.92120  1
 Si  Si1  1  0.50008  0.61463  0.85278  1
 Si  Si2  1  0.50008  0.88537  0.35278  1
 Si  Si3  1  0.49992  0.38537  0.14722  1
 Si  Si4  1  0.49992  0.11463  0.64722  1
 Si  Si5  1  0.24501  0.50009  0.49998  1
 Si  Si6  1  0.75499  0.49991  0.50002  1
 Si  Si7  1  0.24501  0.99991  0.99998  1
 Si  Si8  1  0.75499  0.00009  0.00002  1
