CIF file written using JARVIS-Tools package.
data_MgB2H8
_symmetry_space_group_name_H-M  'P-4n2'
_cell_length_a       5.55927
_cell_length_b       5.55927
_cell_length_c       5.94764
_cell_angle_alpha    90
_cell_angle_beta     90
_cell_angle_gamma    90

_symmetry_Int_Tables_number  118
_chemical_formula_structural  MgB2H8
_chemical_formula_sum  Mg2B4H6
_cell_volume  183.81478843289364
_cell_formula_units_Z  2
loop_
  _symmetry_equiv_pos_site_id
 _symmetry_equiv_pos_as_xyz
 1  'x, y, z'
loop_
 _atom_site_type_symbol
 _atom_site_label
 _atom_site_symmetry_multiplicity
 _atom_site_fract_x
 _atom_site_fract_y
 _atom_site_fract_z
 _atom_site_fract_occupancy
 B  B1  1  0.75015  0.25015  0.25003  1
 B  B2  1  0.24985  0.74985  0.25003  1
 B  B3  1  0.25015  0.24985  0.74997  1
 B  B4  1  0.74985  0.75015  0.74997  1
 H  H1  1  0.03542  0.78053  0.28630  1
 H  H2  1  0.71931  0.46453  0.21364  1
 H  H3  1  0.28069  0.53547  0.21364  1
 H  H4  1  0.46453  0.28069  0.78636  1
 H  H5  1  0.53547  0.71931  0.78636  1
 H  H6  1  0.17223  0.35949  0.58613  1
 H  H7  1  0.32787  0.85968  0.08634  1
 H  H8  1  0.67213  0.14032  0.08634  1
 H  H9  1  0.82777  0.64051  0.58613  1
 H  H10  1  0.96458  0.21947  0.28630  1
 H  H11  1  0.14032  0.32787  0.91366  1
 H  H12  1  0.21947  0.03542  0.71370  1
 H  H13  1  0.78053  0.96458  0.71370  1
 H  H14  1  0.64051  0.17223  0.41387  1
 H  H15  1  0.35949  0.82777  0.41387  1
 H  H16  1  0.85968  0.67213  0.91366  1
 Mg  Mg1  1  0.50000  0.50000  0.50000  1
 Mg  Mg2  1  0.00000  0.00000  0.00000  1
