CIF file written using JARVIS-Tools package.
data_HfBeTc
_symmetry_space_group_name_H-M  'I4mm'
_cell_length_a       4.82837
_cell_length_b       4.82837
_cell_length_c       4.82837
_cell_angle_alpha    140.816
_cell_angle_beta     140.816
_cell_angle_gamma    56.6156

_symmetry_Int_Tables_number  107
_chemical_formula_structural  HfBeTc
_chemical_formula_sum  HfBeTc
_cell_volume  44.57161718128606
_cell_formula_units_Z  1
loop_
  _symmetry_equiv_pos_site_id
 _symmetry_equiv_pos_as_xyz
 1  'x, y, z'
loop_
 _atom_site_type_symbol
 _atom_site_label
 _atom_site_symmetry_multiplicity
 _atom_site_fract_x
 _atom_site_fract_y
 _atom_site_fract_z
 _atom_site_fract_occupancy
 Be  Be1  1  0.02352  0.02352  0.00000  1
 Hf  Hf1  1  0.33098  0.33098  -0.00000  1
 Tc  Tc1  1  0.64551  0.64551  -0.00000  1
