CIF file written using JARVIS-Tools package.
data_Mg2SiO4
_symmetry_space_group_name_H-M  'Pnma'
_cell_length_a       4.79437
_cell_length_b       6.01051
_cell_length_c       10.243
_cell_angle_alpha    90
_cell_angle_beta     90
_cell_angle_gamma    90

_symmetry_Int_Tables_number  62
_chemical_formula_structural  Mg2SiO4
_chemical_formula_sum  Mg8Si4O6
_cell_volume  295.16825986572275
_cell_formula_units_Z  4
loop_
  _symmetry_equiv_pos_site_id
 _symmetry_equiv_pos_as_xyz
 1  'x, y, z'
loop_
 _atom_site_type_symbol
 _atom_site_label
 _atom_site_symmetry_multiplicity
 _atom_site_fract_x
 _atom_site_fract_y
 _atom_site_fract_z
 _atom_site_fract_occupancy
 Mg  Mg1  1  0.49100  0.75000  0.77698  1
 Mg  Mg2  1  0.99100  0.25000  0.72302  1
 Mg  Mg3  1  0.50900  0.25000  0.22302  1
 Mg  Mg4  1  0.00900  0.75000  0.27698  1
 Mg  Mg5  1  0.50000  0.50000  0.50000  1
 Mg  Mg6  1  0.00000  0.50000  0.00000  1
 Mg  Mg7  1  0.50000  0.00000  0.50000  1
 Mg  Mg8  1  0.00000  0.00000  0.00000  1
 O  O1  1  0.77616  0.96822  0.66320  1
 O  O2  1  0.27616  0.03178  0.83680  1
 O  O3  1  0.22384  0.46822  0.33680  1
 O  O4  1  0.77616  0.53178  0.66320  1
 O  O5  1  0.22384  0.03178  0.33680  1
 O  O6  1  0.72384  0.96822  0.16320  1
 O  O7  1  0.77783  0.75000  0.44616  1
 O  O8  1  0.72384  0.53178  0.16320  1
 O  O9  1  0.27783  0.25000  0.05384  1
 O  O10  1  0.73231  0.25000  0.40847  1
 O  O11  1  0.72217  0.75000  0.94616  1
 O  O12  1  0.27616  0.46822  0.83680  1
 O  O13  1  0.26769  0.75000  0.59153  1
 O  O14  1  0.23231  0.75000  0.09153  1
 O  O15  1  0.22217  0.25000  0.55384  1
 O  O16  1  0.76769  0.25000  0.90847  1
 Si  Si1  1  0.07277  0.25000  0.40592  1
 Si  Si2  1  0.92723  0.75000  0.59408  1
 Si  Si3  1  0.42723  0.25000  0.90592  1
 Si  Si4  1  0.57277  0.75000  0.09408  1
