CIF file written using JARVIS-Tools package.
data_V3S
_symmetry_space_group_name_H-M  'I-42m'
_cell_length_a       4.5627
_cell_length_b       7.05959
_cell_length_c       7.05958
_cell_angle_alpha    84.0057
_cell_angle_beta     71.1461
_cell_angle_gamma    71.1461

_symmetry_Int_Tables_number  121
_chemical_formula_structural  V3S
_chemical_formula_sum  V2S4
_cell_volume  203.64780943567501
_cell_formula_units_Z  4
loop_
  _symmetry_equiv_pos_site_id
 _symmetry_equiv_pos_as_xyz
 1  'x, y, z'
loop_
 _atom_site_type_symbol
 _atom_site_label
 _atom_site_symmetry_multiplicity
 _atom_site_fract_x
 _atom_site_fract_y
 _atom_site_fract_z
 _atom_site_fract_occupancy
 S  S1  1  0.21109  0.28891  0.28891  1
 S  S2  1  0.50000  0.28891  0.71109  1
 S  S3  1  0.50000  0.71109  0.28891  1
 S  S4  1  0.78891  0.71109  0.71109  1
 V  V1  1  0.45651  -0.00000  0.60042  1
 V  V2  1  0.94307  0.60042  -0.00000  1
 V  V3  1  0.54349  0.39958  -0.00000  1
 V  V4  1  0.05693  -0.00000  0.39958  1
 V  V5  1  0.35680  0.64320  0.64320  1
 V  V6  1  -0.00000  0.64320  0.35680  1
 V  V7  1  0.00000  0.35680  0.64320  1
 V  V8  1  0.64320  0.35680  0.35680  1
 V  V9  1  0.67240  -0.00000  0.18142  1
 V  V10  1  0.14618  0.18142  -0.00000  1
 V  V11  1  0.32760  0.81858  0.00000  1
 V  V12  1  0.85382  0.00000  0.81858  1
