CIF file written using JARVIS-Tools package.
data_PrCrB4
_symmetry_space_group_name_H-M  'Pbam'
_cell_length_a       3.59554
_cell_length_b       6.05703
_cell_length_c       11.7186
_cell_angle_alpha    90
_cell_angle_beta     90
_cell_angle_gamma    90

_symmetry_Int_Tables_number  55
_chemical_formula_structural  PrCrB4
_chemical_formula_sum  Pr4Cr4B6
_cell_volume  255.21089774109268
_cell_formula_units_Z  4
loop_
  _symmetry_equiv_pos_site_id
 _symmetry_equiv_pos_as_xyz
 1  'x, y, z'
loop_
 _atom_site_type_symbol
 _atom_site_label
 _atom_site_symmetry_multiplicity
 _atom_site_fract_x
 _atom_site_fract_y
 _atom_site_fract_z
 _atom_site_fract_occupancy
 B  B1  1  0.50000  0.11124  0.45468  1
 B  B2  1  0.50000  0.27300  0.68077  1
 B  B3  1  0.50000  0.72700  0.31923  1
 B  B4  1  0.50000  0.22700  0.18077  1
 B  B5  1  0.50000  0.02438  0.31236  1
 B  B6  1  0.50000  0.35681  0.53308  1
 B  B7  1  0.50000  0.64319  0.46692  1
 B  B8  1  0.50000  0.77300  0.81923  1
 B  B9  1  0.50000  0.85681  0.96692  1
 B  B10  1  0.50000  0.38876  0.95468  1
 B  B11  1  0.50000  0.61124  0.04532  1
 B  B12  1  0.50000  0.97562  0.68764  1
 B  B13  1  0.50000  0.88876  0.54532  1
 B  B14  1  0.50000  0.47562  0.81236  1
 B  B15  1  0.50000  0.52438  0.18764  1
 B  B16  1  0.50000  0.14319  0.03308  1
 Cr  Cr1  1  0.00000  0.61767  0.92302  1
 Cr  Cr2  1  0.00000  0.38233  0.07698  1
 Cr  Cr3  1  0.00000  0.88233  0.42302  1
 Cr  Cr4  1  0.00000  0.11767  0.57698  1
 Pr  Pr1  1  0.00000  0.62145  0.65140  1
 Pr  Pr2  1  0.00000  0.37855  0.34860  1
 Pr  Pr3  1  0.00000  0.87855  0.15140  1
 Pr  Pr4  1  0.00000  0.12145  0.84860  1
