CIF file written using JARVIS-Tools package.
data_LiNiF3
_symmetry_space_group_name_H-M  'R-3'
_cell_length_a       5.08104
_cell_length_b       5.08101
_cell_length_c       5.48094
_cell_angle_alpha    62.3945
_cell_angle_beta     90.0045
_cell_angle_gamma    60.0026

_symmetry_Int_Tables_number  148
_chemical_formula_structural  LiNiF3
_chemical_formula_sum  Li2Ni2F6
_cell_volume  103.52603684908895
_cell_formula_units_Z  2
loop_
  _symmetry_equiv_pos_site_id
 _symmetry_equiv_pos_as_xyz
 1  'x, y, z'
loop_
 _atom_site_type_symbol
 _atom_site_label
 _atom_site_symmetry_multiplicity
 _atom_site_fract_x
 _atom_site_fract_y
 _atom_site_fract_z
 _atom_site_fract_occupancy
 F  F1  1  0.88660  0.84497  0.76606  1
 F  F2  1  0.61104  0.50233  0.76607  1
 F  F3  1  0.26838  0.12056  0.76605  1
 F  F4  1  0.73162  0.87944  0.23395  1
 F  F5  1  0.38896  0.49767  0.23394  1
 F  F6  1  0.11340  0.15503  0.23394  1
 Li  Li1  1  0.29317  0.41368  0.87951  1
 Li  Li2  1  0.70683  0.58632  0.12049  1
 Ni  Ni1  1  0.00000  0.00000  -0.00000  1
 Ni  Ni2  1  0.50000  0.00000  0.50000  1
