CIF file written using JARVIS-Tools package.
data_AuO2F6
_symmetry_space_group_name_H-M  'P-1'
_cell_length_a       5.1047
_cell_length_b       4.78097
_cell_length_c       5.19595
_cell_angle_alpha    97.792
_cell_angle_beta     90.5275
_cell_angle_gamma    107.295

_symmetry_Int_Tables_number  2
_chemical_formula_structural  AuO2F6
_chemical_formula_sum  AuO2F6
_cell_volume  119.79354642158579
_cell_formula_units_Z  1
loop_
  _symmetry_equiv_pos_site_id
 _symmetry_equiv_pos_as_xyz
 1  'x, y, z'
loop_
 _atom_site_type_symbol
 _atom_site_label
 _atom_site_symmetry_multiplicity
 _atom_site_fract_x
 _atom_site_fract_y
 _atom_site_fract_z
 _atom_site_fract_occupancy
 Au  Au1  1  0.00000  0.00000  0.00000  1
 F  F1  1  0.68539  0.02968  0.80661  1
 F  F2  1  0.10085  0.81327  0.67797  1
 F  F3  1  0.89915  0.18673  0.32203  1
 F  F4  1  0.22491  0.38267  0.92905  1
 F  F5  1  0.77509  0.61733  0.07095  1
 F  F6  1  0.31461  0.97032  0.19339  1
 O  O1  1  0.56073  0.61768  0.47530  1
 O  O2  1  0.43927  0.38232  0.52470  1
