CIF file written using JARVIS-Tools package.
data_CaSn
_symmetry_space_group_name_H-M  'Cmcm'
_cell_length_a       4.77501
_cell_length_b       4.37326
_cell_length_c       6.23037
_cell_angle_alpha    90
_cell_angle_beta     112.532
_cell_angle_gamma    90

_symmetry_Int_Tables_number  63
_chemical_formula_structural  CaSn
_chemical_formula_sum  Ca2Sn2
_cell_volume  120.17324432245952
_cell_formula_units_Z  2
loop_
  _symmetry_equiv_pos_site_id
 _symmetry_equiv_pos_as_xyz
 1  'x, y, z'
loop_
 _atom_site_type_symbol
 _atom_site_label
 _atom_site_symmetry_multiplicity
 _atom_site_fract_x
 _atom_site_fract_y
 _atom_site_fract_z
 _atom_site_fract_occupancy
 Ca  Ca1  1  0.13307  0.75000  0.26615  1
 Ca  Ca2  1  0.86693  0.25000  0.73385  1
 Sn  Sn1  1  0.41336  0.75000  0.82673  1
 Sn  Sn2  1  0.58664  0.25000  0.17327  1
