CIF file written using JARVIS-Tools package.
data_CaSc2Be
_symmetry_space_group_name_H-M  'P4mm'
_cell_length_a       3.30999
_cell_length_b       3.30999
_cell_length_c       8.37187
_cell_angle_alpha    90
_cell_angle_beta     90
_cell_angle_gamma    90

_symmetry_Int_Tables_number  99
_chemical_formula_structural  CaSc2Be
_chemical_formula_sum  CaSc2Be
_cell_volume  91.72256632144939
_cell_formula_units_Z  1
loop_
  _symmetry_equiv_pos_site_id
 _symmetry_equiv_pos_as_xyz
 1  'x, y, z'
loop_
 _atom_site_type_symbol
 _atom_site_label
 _atom_site_symmetry_multiplicity
 _atom_site_fract_x
 _atom_site_fract_y
 _atom_site_fract_z
 _atom_site_fract_occupancy
 Be  Be1  1  0.00000  0.00000  0.53849  1
 Ca  Ca1  1  0.50000  0.50000  0.30324  1
 Sc  Sc1  1  0.00000  0.00000  0.96096  1
 Sc  Sc2  1  0.50000  0.50000  0.69731  1
