CIF file written using JARVIS-Tools package.
data_CrO3
_symmetry_space_group_name_H-M  'Ama2'
_cell_length_a       4.77634
_cell_length_b       4.83049
_cell_length_c       5.76013
_cell_angle_alpha    89.997
_cell_angle_beta     89.9883
_cell_angle_gamma    60.3754

_symmetry_Int_Tables_number  40
_chemical_formula_structural  CrO3
_chemical_formula_sum  Cr2O6
_cell_volume  115.52572867335947
_cell_formula_units_Z  2
loop_
  _symmetry_equiv_pos_site_id
 _symmetry_equiv_pos_as_xyz
 1  'x, y, z'
loop_
 _atom_site_type_symbol
 _atom_site_label
 _atom_site_symmetry_multiplicity
 _atom_site_fract_x
 _atom_site_fract_y
 _atom_site_fract_z
 _atom_site_fract_occupancy
 Cr  Cr1  1  0.09489  0.79544  0.74999  1
 Cr  Cr2  1  0.89040  0.20456  0.25000  1
 O  O1  1  0.84834  0.55286  0.25002  1
 O  O2  1  0.40103  0.44711  0.74997  1
 O  O3  1  0.78011  0.76276  0.75004  1
 O  O4  1  0.54293  0.23729  0.25006  1
 O  O5  1  0.10514  0.00002  -0.00004  1
 O  O6  1  0.10516  -0.00004  0.49996  1
