CIF file written using JARVIS-Tools package.
data_ThAlPd
_symmetry_space_group_name_H-M  'P-62m'
_cell_length_a       4.2273
_cell_length_b       7.30722
_cell_length_c       7.30696
_cell_angle_alpha    120.001
_cell_angle_beta     90
_cell_angle_gamma    90

_symmetry_Int_Tables_number  189
_chemical_formula_structural  ThAlPd
_chemical_formula_sum  Th3Al3Pd3
_cell_volume  195.46913190664822
_cell_formula_units_Z  3
loop_
  _symmetry_equiv_pos_site_id
 _symmetry_equiv_pos_as_xyz
 1  'x, y, z'
loop_
 _atom_site_type_symbol
 _atom_site_label
 _atom_site_symmetry_multiplicity
 _atom_site_fract_x
 _atom_site_fract_y
 _atom_site_fract_z
 _atom_site_fract_occupancy
 Al  Al1  1  0.00000  0.23208  -0.00000  1
 Al  Al2  1  0.00000  0.76790  0.76791  1
 Al  Al3  1  0.00000  -0.00001  0.23209  1
 Pd  Pd1  1  0.00000  0.33332  0.66667  1
 Pd  Pd2  1  0.00000  0.66666  0.33333  1
 Pd  Pd3  1  0.50000  -0.00001  -0.00000  1
 Th  Th1  1  0.50000  0.58046  -0.00000  1
 Th  Th2  1  0.50000  0.41951  0.41952  1
 Th  Th3  1  0.50000  0.99999  0.58048  1
