CIF file written using JARVIS-Tools package.
data_SrMnBe
_symmetry_space_group_name_H-M  'I4mm'
_cell_length_a       6.00665
_cell_length_b       6.00665
_cell_length_c       6.00665
_cell_angle_alpha    148.332
_cell_angle_beta     148.332
_cell_angle_gamma    45.3958

_symmetry_Int_Tables_number  107
_chemical_formula_structural  SrMnBe
_chemical_formula_sum  SrMnBe
_cell_volume  59.53932179756259
_cell_formula_units_Z  1
loop_
  _symmetry_equiv_pos_site_id
 _symmetry_equiv_pos_as_xyz
 1  'x, y, z'
loop_
 _atom_site_type_symbol
 _atom_site_label
 _atom_site_symmetry_multiplicity
 _atom_site_fract_x
 _atom_site_fract_y
 _atom_site_fract_z
 _atom_site_fract_occupancy
 Be  Be1  1  0.94817  0.94817  -0.00000  1
 Mn  Mn1  1  0.38753  0.38753  -0.00000  1
 Sr  Sr1  1  0.66430  0.66430  0.00000  1
