CIF file written using JARVIS-Tools package.
data_Ho2Mo2C3
_symmetry_space_group_name_H-M  'C2/m'
_cell_length_a       3.33406
_cell_length_b       5.69647
_cell_length_c       6.06869
_cell_angle_alpha    111.094
_cell_angle_beta     105.944
_cell_angle_gamma    90

_symmetry_Int_Tables_number  12
_chemical_formula_structural  Ho2Mo2C3
_chemical_formula_sum  Ho2Mo2C3
_cell_volume  102.76911720791725
_cell_formula_units_Z  1
loop_
  _symmetry_equiv_pos_site_id
 _symmetry_equiv_pos_as_xyz
 1  'x, y, z'
loop_
 _atom_site_type_symbol
 _atom_site_label
 _atom_site_symmetry_multiplicity
 _atom_site_fract_x
 _atom_site_fract_y
 _atom_site_fract_z
 _atom_site_fract_occupancy
 C  C1  1  0.75123  0.26498  0.50247  1
 C  C2  1  0.24877  0.73502  0.49753  1
 C  C3  1  0.00000  0.00000  0.00000  1
 Ho  Ho1  1  0.39001  0.17569  0.78002  1
 Ho  Ho2  1  0.60999  0.82431  0.21998  1
 Mo  Mo1  1  0.15626  0.32659  0.31252  1
 Mo  Mo2  1  0.84374  0.67341  0.68748  1
