CIF file written using JARVIS-Tools package.
data_Ba3Cd2As4
_symmetry_space_group_name_H-M  'C2/m'
_cell_length_a       4.639
_cell_length_b       7.36293
_cell_length_c       8.89546
_cell_angle_alpha    111.052
_cell_angle_beta     105.115
_cell_angle_gamma    90

_symmetry_Int_Tables_number  12
_chemical_formula_structural  Ba3Cd2As4
_chemical_formula_sum  Ba3Cd2As4
_cell_volume  272.26526678293857
_cell_formula_units_Z  1
loop_
  _symmetry_equiv_pos_site_id
 _symmetry_equiv_pos_as_xyz
 1  'x, y, z'
loop_
 _atom_site_type_symbol
 _atom_site_label
 _atom_site_symmetry_multiplicity
 _atom_site_fract_x
 _atom_site_fract_y
 _atom_site_fract_z
 _atom_site_fract_occupancy
 As  As1  1  0.79246  0.80522  0.58492  1
 As  As2  1  0.20754  0.19478  0.41508  1
 As  As3  1  0.50384  0.67493  0.00768  1
 As  As4  1  0.49616  0.32507  0.99232  1
 Ba  Ba1  1  0.85740  0.41923  0.71481  1
 Ba  Ba2  1  0.14260  0.58077  0.28519  1
 Ba  Ba3  1  0.00000  0.00000  0.00000  1
 Cd  Cd1  1  0.66808  0.97245  0.33616  1
 Cd  Cd2  1  0.33192  0.02755  0.66384  1
