CIF file written using JARVIS-Tools package.
data_RbErSe2
_symmetry_space_group_name_H-M  'R-3m'
_cell_length_a       8.26844
_cell_length_b       8.26844
_cell_length_c       8.26844
_cell_angle_alpha    29.237
_cell_angle_beta     29.237
_cell_angle_gamma    29.237

_symmetry_Int_Tables_number  166
_chemical_formula_structural  RbErSe2
_chemical_formula_sum  RbErSe2
_cell_volume  119.31771024470524
_cell_formula_units_Z  1
loop_
  _symmetry_equiv_pos_site_id
 _symmetry_equiv_pos_as_xyz
 1  'x, y, z'
loop_
 _atom_site_type_symbol
 _atom_site_label
 _atom_site_symmetry_multiplicity
 _atom_site_fract_x
 _atom_site_fract_y
 _atom_site_fract_z
 _atom_site_fract_occupancy
 Er  Er1  1  0.50000  0.50000  0.50000  1
 Rb  Rb1  1  0.00000  0.00000  0.00000  1
 Se  Se1  1  0.23203  0.23203  0.23203  1
 Se  Se2  1  0.76797  0.76797  0.76797  1
