CIF file written using JARVIS-Tools package.
data_BeTlMo
_symmetry_space_group_name_H-M  'I4mm'
_cell_length_a       6.99997
_cell_length_b       6.99997
_cell_length_c       6.99997
_cell_angle_alpha    156.732
_cell_angle_beta     156.732
_cell_angle_gamma    33.1401

_symmetry_Int_Tables_number  107
_chemical_formula_structural  BeTlMo
_chemical_formula_sum  BeTlMo
_cell_volume  53.4756859862421
_cell_formula_units_Z  1
loop_
  _symmetry_equiv_pos_site_id
 _symmetry_equiv_pos_as_xyz
 1  'x, y, z'
loop_
 _atom_site_type_symbol
 _atom_site_label
 _atom_site_symmetry_multiplicity
 _atom_site_fract_x
 _atom_site_fract_y
 _atom_site_fract_z
 _atom_site_fract_occupancy
 Be  Be1  1  0.97239  0.97239  0.00000  1
 Mo  Mo1  1  0.35773  0.35773  0.00000  1
 Tl  Tl1  1  0.66988  0.66988  -0.00000  1
