CIF file written using JARVIS-Tools package.
data_Na2CoO3
_symmetry_space_group_name_H-M  'Cmce'
_cell_length_a       5.36402
_cell_length_b       5.87684
_cell_length_c       11.1635
_cell_angle_alpha    90
_cell_angle_beta     90
_cell_angle_gamma    117.153

_symmetry_Int_Tables_number  64
_chemical_formula_structural  Na2CoO3
_chemical_formula_sum  Na8Co4O2
_cell_volume  313.1297191443132
_cell_formula_units_Z  4
loop_
  _symmetry_equiv_pos_site_id
 _symmetry_equiv_pos_as_xyz
 1  'x, y, z'
loop_
 _atom_site_type_symbol
 _atom_site_label
 _atom_site_symmetry_multiplicity
 _atom_site_fract_x
 _atom_site_fract_y
 _atom_site_fract_z
 _atom_site_fract_occupancy
 Co  Co1  1  0.25567  0.51135  0.84374  1
 Co  Co2  1  0.24433  0.48865  0.34374  1
 Co  Co3  1  0.75567  0.51135  0.65626  1
 Co  Co4  1  0.74433  0.48865  0.15626  1
 Na  Na1  1  0.63273  0.26547  0.92325  1
 Na  Na2  1  0.96040  0.92080  0.85480  1
 Na  Na3  1  0.03960  0.07920  0.14520  1
 Na  Na4  1  0.53960  0.07920  0.35480  1
 Na  Na5  1  0.46040  0.92080  0.64520  1
 Na  Na6  1  0.13273  0.26547  0.57675  1
 Na  Na7  1  0.36727  0.73453  0.07675  1
 Na  Na8  1  0.86727  0.73453  0.42325  1
 O  O1  1  0.92295  0.84589  0.64343  1
 O  O2  1  0.84372  0.68744  0.03185  1
 O  O3  1  0.45026  0.40052  0.75000  1
 O  O4  1  0.54974  0.59948  0.25000  1
 O  O5  1  0.42295  0.84589  0.85657  1
 O  O6  1  0.07705  0.15411  0.35657  1
 O  O7  1  0.34372  0.68744  0.46815  1
 O  O8  1  0.04974  0.59948  0.25000  1
 O  O9  1  0.65628  0.31256  0.53185  1
 O  O10  1  0.57705  0.15411  0.14343  1
 O  O11  1  0.15628  0.31256  0.96815  1
 O  O12  1  0.95026  0.40052  0.75000  1
