CIF file written using JARVIS-Tools package.
data_Zr2N2O
_symmetry_space_group_name_H-M  'P1'
_cell_length_a       5.49402
_cell_length_b       5.55045
_cell_length_c       10.2487
_cell_angle_alpha    75.5093
_cell_angle_beta     74.8832
_cell_angle_gamma    60.7598

_symmetry_Int_Tables_number  1
_chemical_formula_structural  Zr2N2O
_chemical_formula_sum  Zr8N8O4
_cell_volume  260.45351180979634
_cell_formula_units_Z  4
loop_
  _symmetry_equiv_pos_site_id
 _symmetry_equiv_pos_as_xyz
 1  'x, y, z'
loop_
 _atom_site_type_symbol
 _atom_site_label
 _atom_site_symmetry_multiplicity
 _atom_site_fract_x
 _atom_site_fract_y
 _atom_site_fract_z
 _atom_site_fract_occupancy
 N  N1  1  0.57558  0.17380  0.36900  1
 N  N2  1  0.11237  0.42522  0.62841  1
 N  N3  1  0.08735  0.67590  0.87384  1
 N  N4  1  0.38653  0.07428  0.87438  1
 N  N5  1  0.41657  0.83045  0.62126  1
 N  N6  1  0.16736  0.86837  0.37638  1
 N  N7  1  0.92157  0.32646  0.12021  1
 N  N8  1  0.62150  0.91824  0.12483  1
 O  O1  1  0.68031  0.37488  0.87542  1
 O  O2  1  0.86846  0.56262  0.38126  1
 O  O3  1  0.31760  0.61925  0.12897  1
 O  O4  1  0.81261  0.12713  0.62639  1
 Zr  Zr1  1  0.32220  0.30881  0.03764  1
 Zr  Zr2  1  0.19778  0.16970  0.46352  1
 Zr  Zr3  1  0.56379  0.57876  0.28685  1
 Zr  Zr4  1  0.08748  0.06758  0.78851  1
 Zr  Zr5  1  0.92098  0.95252  0.21193  1
 Zr  Zr6  1  0.41518  0.44288  0.71220  1
 Zr  Zr7  1  0.82955  0.81556  0.53794  1
 Zr  Zr8  1  0.69525  0.68760  0.96105  1
