CIF file written using JARVIS-Tools package.
data_Na3EuC3O9
_symmetry_space_group_name_H-M  'Ama2'
_cell_length_a       6.54705
_cell_length_b       6.54706
_cell_length_c       9.99067
_cell_angle_alpha    90
_cell_angle_beta     90
_cell_angle_gamma    114.445

_symmetry_Int_Tables_number  40
_chemical_formula_structural  Na3EuC3O9
_chemical_formula_sum  Na6Eu2C6O8
_cell_volume  389.851719572925
_cell_formula_units_Z  2
loop_
  _symmetry_equiv_pos_site_id
 _symmetry_equiv_pos_as_xyz
 1  'x, y, z'
loop_
 _atom_site_type_symbol
 _atom_site_label
 _atom_site_symmetry_multiplicity
 _atom_site_fract_x
 _atom_site_fract_y
 _atom_site_fract_z
 _atom_site_fract_occupancy
 C  C1  1  0.53241  0.11979  0.50127  1
 C  C2  1  0.76033  0.78405  0.75000  1
 C  C3  1  0.78405  0.76033  0.25000  1
 C  C4  1  0.11979  0.53241  0.49873  1
 C  C5  1  0.53241  0.11979  0.99873  1
 C  C6  1  0.11979  0.53241  0.00127  1
 Eu  Eu1  1  0.22781  0.77205  0.25000  1
 Eu  Eu2  1  0.77205  0.22781  0.75000  1
 Na  Na1  1  0.40179  0.36582  0.25000  1
 Na  Na2  1  0.06842  0.06842  0.00000  1
 Na  Na3  1  0.36582  0.40179  0.75000  1
 Na  Na4  1  0.20670  0.79824  0.75000  1
 Na  Na5  1  0.06842  0.06842  0.50000  1
 Na  Na6  1  0.79824  0.20670  0.25000  1
 O  O1  1  0.72141  0.10430  0.98697  1
 O  O2  1  0.10142  0.43607  0.61376  1
 O  O3  1  0.10430  0.72141  0.01303  1
 O  O4  1  0.10430  0.72141  0.48697  1
 O  O5  1  0.15979  0.44215  0.10891  1
 O  O6  1  0.57429  0.80837  0.75000  1
 O  O7  1  0.80837  0.57429  0.25000  1
 O  O8  1  0.44215  0.15979  0.89109  1
 O  O9  1  0.58966  0.76488  0.25000  1
 O  O10  1  0.96754  0.94858  0.25000  1
 O  O11  1  0.15979  0.44215  0.39109  1
 O  O12  1  0.43607  0.10142  0.11376  1
 O  O13  1  0.76488  0.58966  0.75000  1
 O  O14  1  0.72141  0.10430  0.51303  1
 O  O15  1  0.43607  0.10142  0.38624  1
 O  O16  1  0.10142  0.43607  0.88624  1
 O  O17  1  0.94858  0.96754  0.75000  1
 O  O18  1  0.44215  0.15979  0.60891  1
