CIF file written using JARVIS-Tools package.
data_Te2Mo2WSe2S2
_symmetry_space_group_name_H-M  'Cm'
_cell_length_a       3.36018
_cell_length_b       3.36025
_cell_length_c       20.1254
_cell_angle_alpha    85.1723
_cell_angle_beta     90
_cell_angle_gamma    119.999

_symmetry_Int_Tables_number  8
_chemical_formula_structural  Te2Mo2WSe2S2
_chemical_formula_sum  Te2Mo2WSe2S2
_cell_volume  195.8625671156825
_cell_formula_units_Z  1
loop_
  _symmetry_equiv_pos_site_id
 _symmetry_equiv_pos_as_xyz
 1  'x, y, z'
loop_
 _atom_site_type_symbol
 _atom_site_label
 _atom_site_symmetry_multiplicity
 _atom_site_fract_x
 _atom_site_fract_y
 _atom_site_fract_z
 _atom_site_fract_occupancy
 Mo  Mo1  1  0.44144  0.88287  0.02088  1
 Mo  Mo2  1  0.67058  0.34115  0.33648  1
 S  S1  1  0.80018  0.60036  0.94529  1
 S  S2  1  0.74935  0.49869  0.09644  1
 Se  Se1  1  0.30935  0.61869  0.41947  1
 Se  Se2  1  0.36514  0.73029  0.25347  1
 Te  Te1  1  0.58666  0.17331  0.58837  1
 Te  Te2  1  0.52262  0.04524  0.77881  1
 W  W1  1  0.22130  0.44260  0.68363  1
