CIF file written using JARVIS-Tools package.
data_ZrBeSn
_symmetry_space_group_name_H-M  'I4mm'
_cell_length_a       5.79999
_cell_length_b       5.79999
_cell_length_c       5.79999
_cell_angle_alpha    147.683
_cell_angle_beta     147.683
_cell_angle_gamma    46.3532

_symmetry_Int_Tables_number  107
_chemical_formula_structural  ZrBeSn
_chemical_formula_sum  ZrBeSn
_cell_volume  55.56505620243682
_cell_formula_units_Z  1
loop_
  _symmetry_equiv_pos_site_id
 _symmetry_equiv_pos_as_xyz
 1  'x, y, z'
loop_
 _atom_site_type_symbol
 _atom_site_label
 _atom_site_symmetry_multiplicity
 _atom_site_fract_x
 _atom_site_fract_y
 _atom_site_fract_z
 _atom_site_fract_occupancy
 Be  Be1  1  0.99699  0.99699  -0.00000  1
 Sn  Sn1  1  0.35562  0.35562  -0.00000  1
 Zr  Zr1  1  0.64740  0.64740  0.00000  1
