CIF file written using JARVIS-Tools package.
data_BeTl2Cd
_symmetry_space_group_name_H-M  'I-4m2'
_cell_length_a       6.08269
_cell_length_b       6.08269
_cell_length_c       6.08269
_cell_angle_alpha    139.009
_cell_angle_beta     139.009
_cell_angle_gamma    59.361

_symmetry_Int_Tables_number  119
_chemical_formula_structural  BeTl2Cd
_chemical_formula_sum  BeTl2Cd
_cell_volume  95.88089904340869
_cell_formula_units_Z  1
loop_
  _symmetry_equiv_pos_site_id
 _symmetry_equiv_pos_as_xyz
 1  'x, y, z'
loop_
 _atom_site_type_symbol
 _atom_site_label
 _atom_site_symmetry_multiplicity
 _atom_site_fract_x
 _atom_site_fract_y
 _atom_site_fract_z
 _atom_site_fract_occupancy
 Be  Be1  1  0.50000  0.50000  0.00000  1
 Cd  Cd1  1  0.75000  0.25000  0.50000  1
 Tl  Tl1  1  0.00000  0.00000  0.00000  1
 Tl  Tl2  1  0.25000  0.75000  0.50000  1
