CIF file written using JARVIS-Tools package.
data_PrAlNi
_symmetry_space_group_name_H-M  'P-62m'
_cell_length_a       4.07413
_cell_length_b       7.12769
_cell_length_c       7.12757
_cell_angle_alpha    120.001
_cell_angle_beta     90
_cell_angle_gamma    90

_symmetry_Int_Tables_number  189
_chemical_formula_structural  PrAlNi
_chemical_formula_sum  Pr3Al3Ni3
_cell_volume  179.24751200232336
_cell_formula_units_Z  3
loop_
  _symmetry_equiv_pos_site_id
 _symmetry_equiv_pos_as_xyz
 1  'x, y, z'
loop_
 _atom_site_type_symbol
 _atom_site_label
 _atom_site_symmetry_multiplicity
 _atom_site_fract_x
 _atom_site_fract_y
 _atom_site_fract_z
 _atom_site_fract_occupancy
 Al  Al1  1  0.00000  0.22643  -0.00000  1
 Al  Al2  1  0.00000  0.77356  0.77357  1
 Al  Al3  1  0.00000  -0.00001  0.22643  1
 Ni  Ni1  1  0.00000  0.33332  0.66667  1
 Ni  Ni2  1  0.00000  0.66664  0.33333  1
 Ni  Ni3  1  0.50000  0.99999  -0.00000  1
 Pr  Pr1  1  0.50000  0.58027  0.00000  1
 Pr  Pr2  1  0.50000  0.41971  0.41972  1
 Pr  Pr3  1  0.50000  0.99999  0.58028  1
