CIF file written using JARVIS-Tools package.
data_BPdIr
_symmetry_space_group_name_H-M  'Fdd2'
_cell_length_a       5.55619
_cell_length_b       5.55619
_cell_length_c       6.12585
_cell_angle_alpha    109.252
_cell_angle_beta     109.252
_cell_angle_gamma    105.839

_symmetry_Int_Tables_number  43
_chemical_formula_structural  BPdIr
_chemical_formula_sum  B4Pd4Ir4
_cell_volume  152.31757507629985
_cell_formula_units_Z  4
loop_
  _symmetry_equiv_pos_site_id
 _symmetry_equiv_pos_as_xyz
 1  'x, y, z'
loop_
 _atom_site_type_symbol
 _atom_site_label
 _atom_site_symmetry_multiplicity
 _atom_site_fract_x
 _atom_site_fract_y
 _atom_site_fract_z
 _atom_site_fract_occupancy
 B  B1  1  0.05544  0.93501  0.52715  1
 B  B2  1  0.68501  0.30544  0.02715  1
 B  B3  1  0.40786  0.52830  0.47285  1
 B  B4  1  0.27830  0.65786  0.97285  1
 Ir  Ir1  1  0.10481  0.62759  0.23390  1
 Ir  Ir2  1  0.37759  0.35481  0.73390  1
 Ir  Ir3  1  0.62091  0.64369  0.26610  1
 Ir  Ir4  1  0.39369  0.87091  0.76610  1
 Pd  Pd1  1  0.93453  0.10991  0.22864  1
 Pd  Pd2  1  0.45589  0.13127  0.27136  1
 Pd  Pd3  1  0.85991  0.18453  0.72864  1
 Pd  Pd4  1  0.88127  0.70589  0.77136  1
