CIF file written using JARVIS-Tools package.
data_TiNi
_symmetry_space_group_name_H-M  'P31m'
_cell_length_a       7.25682
_cell_length_b       7.25683
_cell_length_c       5.34331
_cell_angle_alpha    90
_cell_angle_beta     90
_cell_angle_gamma    120

_symmetry_Int_Tables_number  157
_chemical_formula_structural  TiNi
_chemical_formula_sum  Ti9Ni9
_cell_volume  243.68806030439296
_cell_formula_units_Z  9
loop_
  _symmetry_equiv_pos_site_id
 _symmetry_equiv_pos_as_xyz
 1  'x, y, z'
loop_
 _atom_site_type_symbol
 _atom_site_label
 _atom_site_symmetry_multiplicity
 _atom_site_fract_x
 _atom_site_fract_y
 _atom_site_fract_z
 _atom_site_fract_occupancy
 Ni  Ni1  1  0.33334  0.30801  0.15949  1
 Ni  Ni2  1  0.64578  0.66667  0.88396  1
 Ni  Ni3  1  0.02089  0.35422  0.88396  1
 Ni  Ni4  1  0.33333  0.97911  0.88396  1
 Ni  Ni5  1  0.66667  0.33333  0.44046  1
 Ni  Ni6  1  0.33333  0.66667  0.61149  1
 Ni  Ni7  1  0.00000  0.00000  0.44050  1
 Ni  Ni8  1  0.97467  0.66666  0.15949  1
 Ni  Ni9  1  0.69199  0.02533  0.15949  1
 Ti  Ti1  1  0.00000  0.00000  0.97625  1
 Ti  Ti2  1  0.66667  0.33333  0.97623  1
 Ti  Ti3  1  0.33333  0.98730  0.36488  1
 Ti  Ti4  1  0.33333  0.32521  0.66668  1
 Ti  Ti5  1  0.65396  0.66667  0.36488  1
 Ti  Ti6  1  0.67479  0.00812  0.66668  1
 Ti  Ti7  1  0.99188  0.66667  0.66668  1
 Ti  Ti8  1  0.33333  0.66667  0.06934  1
 Ti  Ti9  1  0.01270  0.34604  0.36488  1
