CIF file written using JARVIS-Tools package.
data_SrAl2SiN2O3
_symmetry_space_group_name_H-M  'P2_12_12_1'
_cell_length_a       4.96339
_cell_length_b       8.12662
_cell_length_c       11.3882
_cell_angle_alpha    90
_cell_angle_beta     90
_cell_angle_gamma    90

_symmetry_Int_Tables_number  19
_chemical_formula_structural  SrAl2SiN2O3
_chemical_formula_sum  Sr4Al8Si4N8O2
_cell_volume  459.3494179069426
_cell_formula_units_Z  4
loop_
  _symmetry_equiv_pos_site_id
 _symmetry_equiv_pos_as_xyz
 1  'x, y, z'
loop_
 _atom_site_type_symbol
 _atom_site_label
 _atom_site_symmetry_multiplicity
 _atom_site_fract_x
 _atom_site_fract_y
 _atom_site_fract_z
 _atom_site_fract_occupancy
 Al  Al1  1  0.98389  0.52861  0.54254  1
 Al  Al2  1  0.01611  0.02861  0.95746  1
 Al  Al3  1  0.51611  0.47139  0.04254  1
 Al  Al4  1  0.00568  0.33725  0.16241  1
 Al  Al5  1  0.48389  0.97139  0.45746  1
 Al  Al6  1  0.50568  0.16275  0.83759  1
 Al  Al7  1  0.99432  0.83725  0.33759  1
 Al  Al8  1  0.49432  0.66275  0.66241  1
 N  N1  1  0.78706  0.34440  0.49105  1
 N  N2  1  0.82874  0.02008  0.40368  1
 N  N3  1  0.71294  0.65560  0.99105  1
 N  N4  1  0.67126  0.97992  0.90368  1
 N  N5  1  0.21294  0.84440  0.00895  1
 N  N6  1  0.32874  0.47992  0.59632  1
 N  N7  1  0.28706  0.15560  0.50895  1
 N  N8  1  0.17126  0.52008  0.09632  1
 O  O1  1  0.15275  0.13141  0.83161  1
 O  O2  1  0.04790  0.15336  0.08372  1
 O  O3  1  0.13191  0.29221  0.30510  1
 O  O4  1  0.86809  0.79221  0.19490  1
 O  O5  1  0.54790  0.34664  0.91628  1
 O  O6  1  0.36809  0.70779  0.80510  1
 O  O7  1  0.95210  0.65336  0.41628  1
 O  O8  1  0.34725  0.86859  0.33161  1
 O  O9  1  0.65275  0.36859  0.16839  1
 O  O10  1  0.63191  0.20779  0.69490  1
 O  O11  1  0.84725  0.63141  0.66839  1
 O  O12  1  0.45210  0.84664  0.58372  1
 Si  Si1  1  0.00161  0.20233  0.42544  1
 Si  Si2  1  0.49839  0.79767  0.92544  1
 Si  Si3  1  0.50161  0.29768  0.57456  1
 Si  Si4  1  0.99839  0.70233  0.07456  1
 Sr  Sr1  1  0.48397  0.54348  0.33523  1
 Sr  Sr2  1  0.98397  0.95652  0.66477  1
 Sr  Sr3  1  0.01603  0.45652  0.83523  1
 Sr  Sr4  1  0.51603  0.04348  0.16477  1
