CIF file written using JARVIS-Tools package.
data_HfMg2Be
_symmetry_space_group_name_H-M  'F-43m'
_cell_length_a       4.64997
_cell_length_b       4.64997
_cell_length_c       4.64997
_cell_angle_alpha    120.025
_cell_angle_beta     120.025
_cell_angle_gamma    89.9559

_symmetry_Int_Tables_number  216
_chemical_formula_structural  HfMg2Be
_chemical_formula_sum  HfMg2Be
_cell_volume  71.06707855348633
_cell_formula_units_Z  1
loop_
  _symmetry_equiv_pos_site_id
 _symmetry_equiv_pos_as_xyz
 1  'x, y, z'
loop_
 _atom_site_type_symbol
 _atom_site_label
 _atom_site_symmetry_multiplicity
 _atom_site_fract_x
 _atom_site_fract_y
 _atom_site_fract_z
 _atom_site_fract_occupancy
 Be  Be1  1  0.50000  0.50000  0.00000  1
 Hf  Hf1  1  0.75000  0.25000  0.50000  1
 Mg  Mg1  1  0.00000  0.00000  0.00000  1
 Mg  Mg2  1  0.25000  0.75000  0.50000  1
