CIF file written using JARVIS-Tools package.
data_Fe2B
_symmetry_space_group_name_H-M  'P4/mmm'
_cell_length_a       4.28421
_cell_length_b       4.28421
_cell_length_c       4.28421
_cell_angle_alpha    109.847
_cell_angle_beta     109.847
_cell_angle_gamma    108.722

_symmetry_Int_Tables_number  123
_chemical_formula_structural  Fe2B
_chemical_formula_sum  Fe4B2
_cell_volume  60.52501042466859
_cell_formula_units_Z  2
loop_
  _symmetry_equiv_pos_site_id
 _symmetry_equiv_pos_as_xyz
 1  'x, y, z'
loop_
 _atom_site_type_symbol
 _atom_site_label
 _atom_site_symmetry_multiplicity
 _atom_site_fract_x
 _atom_site_fract_y
 _atom_site_fract_z
 _atom_site_fract_occupancy
 B  B1  1  0.00000  0.00000  0.00000  1
 B  B2  1  0.50000  0.50000  0.00000  1
 Fe  Fe1  1  0.99997  0.49995  0.00000  1
 Fe  Fe2  1  0.49995  0.99997  -0.00000  1
 Fe  Fe3  1  0.00003  0.00003  0.49998  1
 Fe  Fe4  1  0.50005  0.50005  0.50002  1
