CIF file written using JARVIS-Tools package.
data_Ca6FeN5
_symmetry_space_group_name_H-M  'P6_3/mcm'
_cell_length_a       6.21409
_cell_length_b       6.21409
_cell_length_c       12.1832
_cell_angle_alpha    90
_cell_angle_beta     90
_cell_angle_gamma    120

_symmetry_Int_Tables_number  193
_chemical_formula_structural  Ca6FeN5
_chemical_formula_sum  Ca2Fe2N0
_cell_volume  407.4232763218837
_cell_formula_units_Z  2
loop_
  _symmetry_equiv_pos_site_id
 _symmetry_equiv_pos_as_xyz
 1  'x, y, z'
loop_
 _atom_site_type_symbol
 _atom_site_label
 _atom_site_symmetry_multiplicity
 _atom_site_fract_x
 _atom_site_fract_y
 _atom_site_fract_z
 _atom_site_fract_occupancy
 Ca  Ca1  1  0.60352  0.60352  0.87942  1
 Ca  Ca2  1  -0.00000  0.39648  0.87942  1
 Ca  Ca3  1  0.39648  -0.00000  0.62058  1
 Ca  Ca4  1  0.39648  0.39648  0.37942  1
 Ca  Ca5  1  0.60352  0.00000  0.37942  1
 Ca  Ca6  1  0.39648  0.39648  0.12058  1
 Ca  Ca7  1  0.60352  0.00000  0.12058  1
 Ca  Ca8  1  -0.00000  0.39648  0.62058  1
 Ca  Ca9  1  0.60352  0.60352  0.62058  1
 Ca  Ca10  1  0.39648  -0.00000  0.87942  1
 Ca  Ca11  1  0.00000  0.60352  0.37942  1
 Ca  Ca12  1  0.00000  0.60352  0.12058  1
 Fe  Fe1  1  0.00000  0.00000  0.25000  1
 Fe  Fe2  1  0.00000  0.00000  0.75000  1
 N  N1  1  0.28883  -0.00000  0.25000  1
 N  N2  1  0.66667  0.33333  0.50000  1
 N  N3  1  0.33333  0.66667  0.00000  1
 N  N4  1  0.33333  0.66667  0.50000  1
 N  N5  1  -0.00000  0.28883  0.25000  1
 N  N6  1  0.71117  0.71117  0.25000  1
 N  N7  1  0.00000  0.71117  0.75000  1
 N  N8  1  0.28883  0.28883  0.75000  1
 N  N9  1  0.66667  0.33333  0.00000  1
 N  N10  1  0.71117  0.00000  0.75000  1
