CIF file written using JARVIS-Tools package.
data_BeCdFe2
_symmetry_space_group_name_H-M  'P4mm'
_cell_length_a       2.7443
_cell_length_b       2.7443
_cell_length_c       6.40364
_cell_angle_alpha    90
_cell_angle_beta     90
_cell_angle_gamma    90

_symmetry_Int_Tables_number  99
_chemical_formula_structural  BeCdFe2
_chemical_formula_sum  BeCdFe2
_cell_volume  48.22714170147995
_cell_formula_units_Z  1
loop_
  _symmetry_equiv_pos_site_id
 _symmetry_equiv_pos_as_xyz
 1  'x, y, z'
loop_
 _atom_site_type_symbol
 _atom_site_label
 _atom_site_symmetry_multiplicity
 _atom_site_fract_x
 _atom_site_fract_y
 _atom_site_fract_z
 _atom_site_fract_occupancy
 Be  Be1  1  0.00000  0.00000  0.44117  1
 Cd  Cd1  1  0.50000  0.50000  0.74052  1
 Fe  Fe1  1  0.00000  0.00000  0.05356  1
 Fe  Fe2  1  0.50000  0.50000  0.26474  1
