CIF file written using JARVIS-Tools package.
data_DyAlB14
_symmetry_space_group_name_H-M  'Imma'
_cell_length_a       7.30753
_cell_length_b       7.30753
_cell_length_c       7.30753
_cell_angle_alpha    132.338
_cell_angle_beta     111.182
_cell_angle_gamma    88.0036

_symmetry_Int_Tables_number  74
_chemical_formula_structural  DyAlB14
_chemical_formula_sum  Dy2Al2B28
_cell_volume  256.35541496579947
_cell_formula_units_Z  2
loop_
  _symmetry_equiv_pos_site_id
 _symmetry_equiv_pos_as_xyz
 1  'x, y, z'
loop_
 _atom_site_type_symbol
 _atom_site_label
 _atom_site_symmetry_multiplicity
 _atom_site_fract_x
 _atom_site_fract_y
 _atom_site_fract_z
 _atom_site_fract_occupancy
 Al  Al1  1  0.50000  0.00000  0.00000  1
 Al  Al2  1  0.50000  0.50000  0.50000  1
 B  B1  1  0.89919  0.89754  0.67457  1
 B  B2  1  0.13217  0.16723  0.96493  1
 B  B3  1  0.29770  0.33277  0.96493  1
 B  B4  1  0.51355  0.14139  0.37217  1
 B  B5  1  0.73078  0.35861  0.37217  1
 B  B6  1  0.26922  0.64139  0.62783  1
 B  B7  1  0.48645  0.85861  0.62783  1
 B  B8  1  0.25532  0.08970  0.16562  1
 B  B9  1  0.57592  0.41030  0.16562  1
 B  B10  1  0.42408  0.58970  0.83438  1
 B  B11  1  0.74468  0.91030  0.83438  1
 B  B12  1  0.72296  0.39754  0.99835  1
 B  B13  1  0.89919  0.22462  0.00165  1
 B  B14  1  0.27704  0.27538  0.67457  1
 B  B15  1  0.10081  0.10246  0.32543  1
 B  B16  1  0.70230  0.66723  0.03507  1
 B  B17  1  0.10081  0.77538  0.99835  1
 B  B18  1  0.72296  0.72462  0.32543  1
 B  B19  1  0.12791  0.83176  0.80044  1
 B  B20  1  0.46868  0.66824  0.29615  1
 B  B21  1  0.53132  0.82747  0.19956  1
 B  B22  1  0.87209  0.67253  0.70385  1
 B  B23  1  0.87209  0.16824  0.19956  1
 B  B24  1  0.53132  0.33176  0.70385  1
 B  B25  1  0.46868  0.17253  0.80044  1
 B  B26  1  0.12791  0.32747  0.29615  1
 B  B27  1  0.86783  0.83277  0.03507  1
 B  B28  1  0.27704  0.60246  0.00165  1
 Dy  Dy1  1  0.89864  0.25000  0.64864  1
 Dy  Dy2  1  0.10136  0.75000  0.35136  1
