CIF file written using JARVIS-Tools package.
data_Li3CoOF3
_symmetry_space_group_name_H-M  'C2/m'
_cell_length_a       2.93523
_cell_length_b       5.11349
_cell_length_c       9.94246
_cell_angle_alpha    100.523
_cell_angle_beta     90.0005
_cell_angle_gamma    106.678

_symmetry_Int_Tables_number  12
_chemical_formula_structural  Li3CoOF3
_chemical_formula_sum  Li6Co2O2F6
_cell_volume  140.32893511519308
_cell_formula_units_Z  2
loop_
  _symmetry_equiv_pos_site_id
 _symmetry_equiv_pos_as_xyz
 1  'x, y, z'
loop_
 _atom_site_type_symbol
 _atom_site_label
 _atom_site_symmetry_multiplicity
 _atom_site_fract_x
 _atom_site_fract_y
 _atom_site_fract_z
 _atom_site_fract_occupancy
 Co  Co1  1  0.74294  0.48703  0.64710  1
 Co  Co2  1  0.25817  0.51751  0.85329  1
 F  F1  1  0.87578  0.75267  0.31083  1
 F  F2  1  0.62588  0.25289  0.43328  1
 F  F3  1  0.62965  0.26047  0.94975  1
 F  F4  1  0.12543  0.25197  0.18956  1
 F  F5  1  0.37529  0.75173  0.06711  1
 F  F6  1  0.37151  0.74412  0.55064  1
 Li  Li1  1  0.75229  0.50562  0.12953  1
 Li  Li2  1  0.50068  0.00233  0.25020  1
 Li  Li3  1  0.50051  0.00226  0.75019  1
 Li  Li4  1  -0.00383  -0.00644  0.49994  1
 Li  Li5  1  0.24902  0.49901  0.37085  1
 Li  Li6  1  0.00488  0.01101  0.00044  1
 O  O1  1  0.88482  0.77087  0.81724  1
 O  O2  1  0.11623  0.23367  0.68315  1
