CIF file written using JARVIS-Tools package.
data_K6Cr2O9
_symmetry_space_group_name_H-M  'Cm'
_cell_length_a       6.42911
_cell_length_b       7.39326
_cell_length_c       6.42911
_cell_angle_alpha    89.5937
_cell_angle_beta     101.27
_cell_angle_gamma    90.4063

_symmetry_Int_Tables_number  8
_chemical_formula_structural  K6Cr2O9
_chemical_formula_sum  K6Cr2O9
_cell_volume  299.68349854264335
_cell_formula_units_Z  1
loop_
  _symmetry_equiv_pos_site_id
 _symmetry_equiv_pos_as_xyz
 1  'x, y, z'
loop_
 _atom_site_type_symbol
 _atom_site_label
 _atom_site_symmetry_multiplicity
 _atom_site_fract_x
 _atom_site_fract_y
 _atom_site_fract_z
 _atom_site_fract_occupancy
 Cr  Cr1  1  0.48939  0.50178  0.51061  1
 Cr  Cr2  1  0.97647  0.98500  0.02353  1
 K  K1  1  0.51362  0.02397  0.48638  1
 K  K2  1  0.50509  0.28784  -0.01697  1
 K  K3  1  0.48827  0.79696  -0.00254  1
 K  K4  1  0.03012  0.51939  -0.03012  1
 K  K5  1  0.00254  0.79696  0.51173  1
 K  K6  1  0.01697  0.28784  0.49491  1
 O  O1  1  0.24437  0.05313  0.75563  1
 O  O2  1  0.82020  0.85867  0.83382  1
 O  O3  1  0.60616  0.66972  0.39384  1
 O  O4  1  0.16618  0.85867  0.17980  1
 O  O5  1  0.34167  0.37334  0.31547  1
 O  O6  1  0.32228  0.56451  0.67772  1
 O  O7  1  0.68453  0.37334  0.65833  1
 O  O8  1  0.81713  0.07942  0.18287  1
 O  O9  1  0.11052  0.15195  0.88948  1
