CIF file written using JARVIS-Tools package.
data_W3Se2S4
_symmetry_space_group_name_H-M  'R3m'
_cell_length_a       3.23535
_cell_length_b       3.23531
_cell_length_c       19.2403
_cell_angle_alpha    94.8505
_cell_angle_beta     90
_cell_angle_gamma    120.001

_symmetry_Int_Tables_number  160
_chemical_formula_structural  W3Se2S4
_chemical_formula_sum  W3Se2S4
_cell_volume  173.57947396793745
_cell_formula_units_Z  1
loop_
  _symmetry_equiv_pos_site_id
 _symmetry_equiv_pos_as_xyz
 1  'x, y, z'
loop_
 _atom_site_type_symbol
 _atom_site_label
 _atom_site_symmetry_multiplicity
 _atom_site_fract_x
 _atom_site_fract_y
 _atom_site_fract_z
 _atom_site_fract_occupancy
 S  S1  1  0.35902  0.71803  0.42442  1
 S  S2  1  0.52956  0.05912  0.93595  1
 S  S3  1  0.58423  0.16847  0.09891  1
 S  S4  1  0.30435  0.60871  0.26143  1
 Se  Se1  1  0.74802  0.49603  0.59100  1
 Se  Se2  1  0.80811  0.61622  0.77020  1
 W  W1  1  0.22356  0.44712  0.01741  1
 W  W2  1  0.44473  0.88947  0.68061  1
 W  W3  1  0.66502  0.33004  0.34291  1
