CIF file written using JARVIS-Tools package.
data_Ag2HgI4
_symmetry_space_group_name_H-M  'I-4'
_cell_length_a       6.38825
_cell_length_b       6.38824
_cell_length_c       7.79876
_cell_angle_alpha    114.178
_cell_angle_beta     114.178
_cell_angle_gamma    90

_symmetry_Int_Tables_number  82
_chemical_formula_structural  Ag2HgI4
_chemical_formula_sum  Ag2HgI4
_cell_volume  259.4411278144244
_cell_formula_units_Z  1
loop_
  _symmetry_equiv_pos_site_id
 _symmetry_equiv_pos_as_xyz
 1  'x, y, z'
loop_
 _atom_site_type_symbol
 _atom_site_label
 _atom_site_symmetry_multiplicity
 _atom_site_fract_x
 _atom_site_fract_y
 _atom_site_fract_z
 _atom_site_fract_occupancy
 Ag  Ag1  1  0.25000  0.75000  0.50000  1
 Ag  Ag2  1  0.50000  0.50000  -0.00000  1
 Hg  Hg1  1  0.00000  0.00000  0.00000  1
 I  I1  1  0.86331  0.90590  0.27223  1
 I  I2  1  0.09410  0.59108  0.72777  1
 I  I3  1  0.40892  0.36633  0.27223  1
 I  I4  1  0.63367  0.13669  0.72777  1
