CIF file written using JARVIS-Tools package.
data_NaMnBe
_symmetry_space_group_name_H-M  'I4mm'
_cell_length_a       6.9642
_cell_length_b       6.9642
_cell_length_c       6.9642
_cell_angle_alpha    159.822
_cell_angle_beta     159.822
_cell_angle_gamma    28.687

_symmetry_Int_Tables_number  107
_chemical_formula_structural  NaMnBe
_chemical_formula_sum  NaMnBe
_cell_volume  40.16659883049739
_cell_formula_units_Z  1
loop_
  _symmetry_equiv_pos_site_id
 _symmetry_equiv_pos_as_xyz
 1  'x, y, z'
loop_
 _atom_site_type_symbol
 _atom_site_label
 _atom_site_symmetry_multiplicity
 _atom_site_fract_x
 _atom_site_fract_y
 _atom_site_fract_z
 _atom_site_fract_occupancy
 Be  Be1  1  0.97545  0.97545  -0.00000  1
 Mn  Mn1  1  0.35734  0.35734  0.00000  1
 Na  Na1  1  0.66720  0.66720  -0.00000  1
