CIF file written using JARVIS-Tools package.
data_LaGeAu
_symmetry_space_group_name_H-M  'P6_3mc'
_cell_length_a       4.5283
_cell_length_b       4.5283
_cell_length_c       8.10037
_cell_angle_alpha    90
_cell_angle_beta     90
_cell_angle_gamma    120

_symmetry_Int_Tables_number  186
_chemical_formula_structural  LaGeAu
_chemical_formula_sum  La2Ge2Au2
_cell_volume  143.8483725373815
_cell_formula_units_Z  2
loop_
  _symmetry_equiv_pos_site_id
 _symmetry_equiv_pos_as_xyz
 1  'x, y, z'
loop_
 _atom_site_type_symbol
 _atom_site_label
 _atom_site_symmetry_multiplicity
 _atom_site_fract_x
 _atom_site_fract_y
 _atom_site_fract_z
 _atom_site_fract_occupancy
 Au  Au1  1  0.66667  0.33333  0.74247  1
 Au  Au2  1  0.33333  0.66667  0.24247  1
 Ge  Ge1  1  0.33333  0.66667  0.78627  1
 Ge  Ge2  1  0.66667  0.33333  0.28627  1
 La  La1  1  0.00000  0.00000  0.00815  1
 La  La2  1  0.00000  0.00000  0.50815  1
