CIF file written using JARVIS-Tools package.
data_HfBePd
_symmetry_space_group_name_H-M  'I4mm'
_cell_length_a       5.25816
_cell_length_b       5.25816
_cell_length_c       5.25816
_cell_angle_alpha    146.247
_cell_angle_beta     146.247
_cell_angle_gamma    48.4799

_symmetry_Int_Tables_number  107
_chemical_formula_structural  HfBePd
_chemical_formula_sum  HfBePd
_cell_volume  44.68875530596804
_cell_formula_units_Z  1
loop_
  _symmetry_equiv_pos_site_id
 _symmetry_equiv_pos_as_xyz
 1  'x, y, z'
loop_
 _atom_site_type_symbol
 _atom_site_label
 _atom_site_symmetry_multiplicity
 _atom_site_fract_x
 _atom_site_fract_y
 _atom_site_fract_z
 _atom_site_fract_occupancy
 Be  Be1  1  0.02395  0.02395  -0.00000  1
 Hf  Hf1  1  0.33856  0.33856  -0.00000  1
 Pd  Pd1  1  0.63749  0.63749  0.00000  1
