CIF file written using JARVIS-Tools package.
data_Mg3Zr
_symmetry_space_group_name_H-M  'P6_3/mmc'
_cell_length_a       6.33884
_cell_length_b       6.33884
_cell_length_c       5.01208
_cell_angle_alpha    90
_cell_angle_beta     90
_cell_angle_gamma    120

_symmetry_Int_Tables_number  194
_chemical_formula_structural  Mg3Zr
_chemical_formula_sum  Mg6Zr2
_cell_volume  174.40875764656937
_cell_formula_units_Z  2
loop_
  _symmetry_equiv_pos_site_id
 _symmetry_equiv_pos_as_xyz
 1  'x, y, z'
loop_
 _atom_site_type_symbol
 _atom_site_label
 _atom_site_symmetry_multiplicity
 _atom_site_fract_x
 _atom_site_fract_y
 _atom_site_fract_z
 _atom_site_fract_occupancy
 Mg  Mg1  1  0.33519  0.16760  0.25000  1
 Mg  Mg2  1  0.83240  0.16760  0.25000  1
 Mg  Mg3  1  0.83240  0.66481  0.25000  1
 Mg  Mg4  1  0.66481  0.83240  0.75000  1
 Mg  Mg5  1  0.16760  0.33519  0.75000  1
 Mg  Mg6  1  0.16760  0.83240  0.75000  1
 Zr  Zr1  1  0.33333  0.66667  0.25000  1
 Zr  Zr2  1  0.66667  0.33333  0.75000  1
