CIF file written using JARVIS-Tools package.
data_BeGaPt
_symmetry_space_group_name_H-M  'I4mm'
_cell_length_a       4.57704
_cell_length_b       4.57704
_cell_length_c       4.57704
_cell_angle_alpha    139.801
_cell_angle_beta     139.801
_cell_angle_gamma    58.1557

_symmetry_Int_Tables_number  107
_chemical_formula_structural  BeGaPt
_chemical_formula_sum  BeGaPt
_cell_volume  39.58607532821934
_cell_formula_units_Z  1
loop_
  _symmetry_equiv_pos_site_id
 _symmetry_equiv_pos_as_xyz
 1  'x, y, z'
loop_
 _atom_site_type_symbol
 _atom_site_label
 _atom_site_symmetry_multiplicity
 _atom_site_fract_x
 _atom_site_fract_y
 _atom_site_fract_z
 _atom_site_fract_occupancy
 Be  Be1  1  0.01197  0.01197  -0.00000  1
 Ga  Ga1  1  0.33607  0.33607  -0.00000  1
 Pt  Pt1  1  0.65196  0.65196  -0.00000  1
