CIF file written using JARVIS-Tools package.
data_EuSb12Os4
_symmetry_space_group_name_H-M  'Im-3'
_cell_length_a       8.1764
_cell_length_b       8.1762
_cell_length_c       8.17616
_cell_angle_alpha    109.471
_cell_angle_beta     109.472
_cell_angle_gamma    109.472

_symmetry_Int_Tables_number  204
_chemical_formula_structural  EuSb12Os4
_chemical_formula_sum  EuSb2Os4
_cell_volume  420.75997516619964
_cell_formula_units_Z  1
loop_
  _symmetry_equiv_pos_site_id
 _symmetry_equiv_pos_as_xyz
 1  'x, y, z'
loop_
 _atom_site_type_symbol
 _atom_site_label
 _atom_site_symmetry_multiplicity
 _atom_site_fract_x
 _atom_site_fract_y
 _atom_site_fract_z
 _atom_site_fract_occupancy
 Eu  Eu1  1  0.00000  0.00000  0.00000  1
 Os  Os1  1  0.50000  0.50000  0.50000  1
 Os  Os2  1  0.00000  0.50000  0.00000  1
 Os  Os3  1  0.00000  0.00000  0.50000  1
 Os  Os4  1  0.50000  -0.00000  0.00000  1
 Sb  Sb1  1  0.33779  0.84415  0.18194  1
 Sb  Sb2  1  0.50636  0.66222  0.84415  1
 Sb  Sb3  1  0.33778  0.15586  0.49365  1
 Sb  Sb4  1  0.66221  0.15585  0.81806  1
 Sb  Sb5  1  0.81809  0.66222  0.15586  1
 Sb  Sb6  1  0.18191  0.33778  0.84414  1
 Sb  Sb7  1  0.49364  0.33778  0.15585  1
 Sb  Sb8  1  0.84414  0.50637  0.66222  1
 Sb  Sb9  1  0.15586  0.49363  0.33778  1
 Sb  Sb10  1  0.66222  0.84414  0.50635  1
 Sb  Sb11  1  0.84414  0.18193  0.33778  1
 Sb  Sb12  1  0.15586  0.81807  0.66222  1
