CIF file written using JARVIS-Tools package.
data_Y3Ni4B4C3
_symmetry_space_group_name_H-M  'I4/mmm'
_cell_length_a       3.57803
_cell_length_b       3.57803
_cell_length_c       12.9698
_cell_angle_alpha    97.9285
_cell_angle_beta     97.9285
_cell_angle_gamma    90

_symmetry_Int_Tables_number  139
_chemical_formula_structural  Y3Ni4B4C3
_chemical_formula_sum  Y3Ni4B4C3
_cell_volume  162.8533798254141
_cell_formula_units_Z  1
loop_
  _symmetry_equiv_pos_site_id
 _symmetry_equiv_pos_as_xyz
 1  'x, y, z'
loop_
 _atom_site_type_symbol
 _atom_site_label
 _atom_site_symmetry_multiplicity
 _atom_site_fract_x
 _atom_site_fract_y
 _atom_site_fract_z
 _atom_site_fract_occupancy
 B  B1  1  0.85497  0.85497  0.70994  1
 B  B2  1  0.55851  0.55851  0.11701  1
 B  B3  1  0.14503  0.14503  0.29006  1
 B  B4  1  0.44149  0.44149  0.88299  1
 C  C1  1  0.79658  0.79658  0.59316  1
 C  C2  1  0.20342  0.20342  0.40684  1
 C  C3  1  0.50000  0.50000  -0.00000  1
 Ni  Ni1  1  0.89949  0.39949  0.79898  1
 Ni  Ni2  1  0.10051  0.60051  0.20102  1
 Ni  Ni3  1  0.60051  0.10051  0.20102  1
 Ni  Ni4  1  0.39949  0.89949  0.79898  1
 Y  Y1  1  0.70077  0.70077  0.40153  1
 Y  Y2  1  0.29923  0.29923  0.59847  1
 Y  Y3  1  0.00000  0.00000  0.00000  1
