CIF file written using JARVIS-Tools package.
data_UFe2B6
_symmetry_space_group_name_H-M  'Immm'
_cell_length_a       3.13284
_cell_length_b       5.35534
_cell_length_c       5.35534
_cell_angle_alpha    69.9611
_cell_angle_beta     72.9925
_cell_angle_gamma    72.9925

_symmetry_Int_Tables_number  71
_chemical_formula_structural  UFe2B6
_chemical_formula_sum  UFe2B6
_cell_volume  78.84753798687963
_cell_formula_units_Z  1
loop_
  _symmetry_equiv_pos_site_id
 _symmetry_equiv_pos_as_xyz
 1  'x, y, z'
loop_
 _atom_site_type_symbol
 _atom_site_label
 _atom_site_symmetry_multiplicity
 _atom_site_fract_x
 _atom_site_fract_y
 _atom_site_fract_z
 _atom_site_fract_occupancy
 B  B1  1  0.50000  0.14482  0.85518  1
 B  B2  1  0.50000  0.85518  0.14482  1
 B  B3  1  0.30392  0.43491  0.95724  1
 B  B4  1  0.69608  0.56509  0.04276  1
 B  B5  1  0.69608  0.04276  0.56509  1
 B  B6  1  0.30392  0.95724  0.43491  1
 Fe  Fe1  1  0.15354  0.84646  0.84646  1
 Fe  Fe2  1  0.84646  0.15354  0.15354  1
 U  U1  1  0.00000  0.50000  0.50000  1
