CIF file written using JARVIS-Tools package.
data_Zn3CrSe4
_symmetry_space_group_name_H-M  'P-43m'
_cell_length_a       5.74213
_cell_length_b       5.74213
_cell_length_c       5.74213
_cell_angle_alpha    90
_cell_angle_beta     90
_cell_angle_gamma    90

_symmetry_Int_Tables_number  215
_chemical_formula_structural  Zn3CrSe4
_chemical_formula_sum  Zn3CrSe4
_cell_volume  189.33007933429428
_cell_formula_units_Z  1
loop_
  _symmetry_equiv_pos_site_id
 _symmetry_equiv_pos_as_xyz
 1  'x, y, z'
loop_
 _atom_site_type_symbol
 _atom_site_label
 _atom_site_symmetry_multiplicity
 _atom_site_fract_x
 _atom_site_fract_y
 _atom_site_fract_z
 _atom_site_fract_occupancy
 Cr  Cr1  1  0.00000  0.00000  0.00000  1
 Se  Se1  1  0.74886  0.74886  0.25114  1
 Se  Se2  1  0.74886  0.25114  0.74886  1
 Se  Se3  1  0.25114  0.74886  0.74886  1
 Se  Se4  1  0.25114  0.25114  0.25114  1
 Zn  Zn1  1  0.50000  0.50000  0.00000  1
 Zn  Zn2  1  0.50000  0.00000  0.50000  1
 Zn  Zn3  1  0.00000  0.50000  0.50000  1
