CIF file written using JARVIS-Tools package.
data_Na7NbO6
_symmetry_space_group_name_H-M  'R3'
_cell_length_a       6.36547
_cell_length_b       6.36629
_cell_length_c       6.36609
_cell_angle_alpha    60.9309
_cell_angle_beta     60.9139
_cell_angle_gamma    60.887

_symmetry_Int_Tables_number  146
_chemical_formula_structural  Na7NbO6
_chemical_formula_sum  Na7NbO6
_cell_volume  186.16486457126587
_cell_formula_units_Z  1
loop_
  _symmetry_equiv_pos_site_id
 _symmetry_equiv_pos_as_xyz
 1  'x, y, z'
loop_
 _atom_site_type_symbol
 _atom_site_label
 _atom_site_symmetry_multiplicity
 _atom_site_fract_x
 _atom_site_fract_y
 _atom_site_fract_z
 _atom_site_fract_occupancy
 Na  Na1  1  0.70460  0.50125  0.11533  1
 Na  Na2  1  0.24610  0.48208  0.95568  1
 Na  Na3  1  0.47816  0.95700  0.24965  1
 Na  Na4  1  0.95291  0.25051  0.48128  1
 Na  Na5  1  0.65133  0.65515  0.65521  1
 Na  Na6  1  0.11221  0.70865  0.49938  1
 Na  Na7  1  0.49677  0.11647  0.70730  1
 Nb  Nb1  1  0.99858  0.00284  0.00157  1
 O  O1  1  0.88540  0.67735  0.21551  1
 O  O2  1  0.06983  0.34012  0.81414  1
 O  O3  1  0.33591  0.81607  0.07291  1
 O  O4  1  0.81155  0.07479  0.33848  1
 O  O5  1  0.21220  0.88899  0.67637  1
 O  O6  1  0.67308  0.21615  0.88826  1
