CIF file written using JARVIS-Tools package.
data_TlBS2
_symmetry_space_group_name_H-M  'R-3m'
_cell_length_a       8.22112
_cell_length_b       8.22112
_cell_length_c       8.22111
_cell_angle_alpha    74.6283
_cell_angle_beta     74.6283
_cell_angle_gamma    74.6284

_symmetry_Int_Tables_number  166
_chemical_formula_structural  TlBS2
_chemical_formula_sum  Tl6B6S2
_cell_volume  505.12694353705774
_cell_formula_units_Z  6
loop_
  _symmetry_equiv_pos_site_id
 _symmetry_equiv_pos_as_xyz
 1  'x, y, z'
loop_
 _atom_site_type_symbol
 _atom_site_label
 _atom_site_symmetry_multiplicity
 _atom_site_fract_x
 _atom_site_fract_y
 _atom_site_fract_z
 _atom_site_fract_occupancy
 B  B1  1  0.41045  0.10258  0.10258  1
 B  B2  1  0.89742  0.89742  0.58955  1
 B  B3  1  0.58955  0.89742  0.89742  1
 B  B4  1  0.89742  0.58955  0.89742  1
 B  B5  1  0.10258  0.41045  0.10258  1
 B  B6  1  0.10258  0.10258  0.41045  1
 S  S1  1  0.97018  0.34245  0.97018  1
 S  S2  1  0.02982  0.65755  0.02982  1
 S  S3  1  0.65755  0.02982  0.02982  1
 S  S4  1  0.97360  0.65361  0.65361  1
 S  S5  1  0.65361  0.97360  0.65361  1
 S  S6  1  0.65361  0.65361  0.97360  1
 S  S7  1  0.02640  0.34639  0.34639  1
 S  S8  1  0.34639  0.34639  0.02640  1
 S  S9  1  0.02982  0.02982  0.65755  1
 S  S10  1  0.34245  0.97018  0.97018  1
 S  S11  1  0.97018  0.97018  0.34245  1
 S  S12  1  0.34639  0.02640  0.34639  1
 Tl  Tl1  1  0.72289  0.32969  0.72289  1
 Tl  Tl2  1  0.27711  0.67031  0.27711  1
 Tl  Tl3  1  0.27711  0.27711  0.67031  1
 Tl  Tl4  1  0.67031  0.27711  0.27711  1
 Tl  Tl5  1  0.72289  0.72289  0.32969  1
 Tl  Tl6  1  0.32969  0.72289  0.72289  1
