CIF file written using JARVIS-Tools package.
data_NbVF6
_symmetry_space_group_name_H-M  'R-3'
_cell_length_a       5.65249
_cell_length_b       5.65249
_cell_length_c       5.65249
_cell_angle_alpha    54.1529
_cell_angle_beta     54.1529
_cell_angle_gamma    54.1529

_symmetry_Int_Tables_number  148
_chemical_formula_structural  NbVF6
_chemical_formula_sum  NbVF6
_cell_volume  110.27311407464691
_cell_formula_units_Z  1
loop_
  _symmetry_equiv_pos_site_id
 _symmetry_equiv_pos_as_xyz
 1  'x, y, z'
loop_
 _atom_site_type_symbol
 _atom_site_label
 _atom_site_symmetry_multiplicity
 _atom_site_fract_x
 _atom_site_fract_y
 _atom_site_fract_z
 _atom_site_fract_occupancy
 F  F1  1  0.88584  0.24819  0.61962  1
 F  F2  1  0.24819  0.61962  0.88584  1
 F  F3  1  0.38038  0.11416  0.75181  1
 F  F4  1  0.75181  0.38038  0.11416  1
 F  F5  1  0.11416  0.75181  0.38038  1
 F  F6  1  0.61962  0.88584  0.24819  1
 Nb  Nb1  1  0.50000  0.50000  0.50000  1
 V  V1  1  0.00000  0.00000  0.00000  1
