CIF file written using JARVIS-Tools package.
data_AsPPd2
_symmetry_space_group_name_H-M  'F-43m'
_cell_length_a       4.49416
_cell_length_b       4.49416
_cell_length_c       4.49416
_cell_angle_alpha    60
_cell_angle_beta     60
_cell_angle_gamma    60

_symmetry_Int_Tables_number  216
_chemical_formula_structural  AsPPd2
_chemical_formula_sum  AsPPd2
_cell_volume  64.18429943339929
_cell_formula_units_Z  1
loop_
  _symmetry_equiv_pos_site_id
 _symmetry_equiv_pos_as_xyz
 1  'x, y, z'
loop_
 _atom_site_type_symbol
 _atom_site_label
 _atom_site_symmetry_multiplicity
 _atom_site_fract_x
 _atom_site_fract_y
 _atom_site_fract_z
 _atom_site_fract_occupancy
 As  As1  1  0.50000  0.50000  0.50000  1
 P  P1  1  0.75000  0.75000  0.75000  1
 Pd  Pd1  1  0.00000  0.00000  0.00000  1
 Pd  Pd2  1  0.25000  0.25000  0.25000  1
