CIF file written using JARVIS-Tools package.
data_KHCO2
_symmetry_space_group_name_H-M  'Cmcm'
_cell_length_a       4.4849
_cell_length_b       4.4849
_cell_length_c       6.82528
_cell_angle_alpha    90
_cell_angle_beta     90
_cell_angle_gamma    82.6254

_symmetry_Int_Tables_number  63
_chemical_formula_structural  KHCO2
_chemical_formula_sum  K2H2C2O4
_cell_volume  136.15063613094256
_cell_formula_units_Z  2
loop_
  _symmetry_equiv_pos_site_id
 _symmetry_equiv_pos_as_xyz
 1  'x, y, z'
loop_
 _atom_site_type_symbol
 _atom_site_label
 _atom_site_symmetry_multiplicity
 _atom_site_fract_x
 _atom_site_fract_y
 _atom_site_fract_z
 _atom_site_fract_occupancy
 C  C1  1  0.40259  0.40259  0.25000  1
 C  C2  1  0.59741  0.59741  0.75000  1
 H  H1  1  0.56811  0.56811  0.25000  1
 H  H2  1  0.43189  0.43189  0.75000  1
 K  K1  1  0.00000  0.00000  0.50000  1
 K  K2  1  0.00000  0.00000  0.00000  1
 O  O1  1  0.12530  0.50597  0.25000  1
 O  O2  1  0.49403  0.87470  0.75000  1
 O  O3  1  0.87470  0.49403  0.75000  1
 O  O4  1  0.50597  0.12530  0.25000  1
