CIF file written using JARVIS-Tools package.
data_RbCSO3F3
_symmetry_space_group_name_H-M  'P2_1'
_cell_length_a       5.17054
_cell_length_b       5.90541
_cell_length_c       9.27066
_cell_angle_alpha    90
_cell_angle_beta     103.626
_cell_angle_gamma    90

_symmetry_Int_Tables_number  4
_chemical_formula_structural  RbCSO3F3
_chemical_formula_sum  Rb2C2S2O6F6
_cell_volume  275.1047253181249
_cell_formula_units_Z  2
loop_
  _symmetry_equiv_pos_site_id
 _symmetry_equiv_pos_as_xyz
 1  'x, y, z'
loop_
 _atom_site_type_symbol
 _atom_site_label
 _atom_site_symmetry_multiplicity
 _atom_site_fract_x
 _atom_site_fract_y
 _atom_site_fract_z
 _atom_site_fract_occupancy
 C  C1  1  0.36872  0.95170  0.62779  1
 C  C2  1  0.63128  0.45170  0.37221  1
 F  F1  1  0.18283  0.84870  0.52013  1
 F  F2  1  0.29387  0.17123  0.63580  1
 F  F3  1  0.60331  0.95055  0.58678  1
 F  F4  1  0.81717  0.34870  0.47987  1
 F  F5  1  0.39669  0.45055  0.41322  1
 F  F6  1  0.70613  0.67123  0.36420  1
 O  O1  1  0.61237  0.95130  0.90524  1
 O  O2  1  0.85639  0.33701  0.15736  1
 O  O3  1  0.38763  0.45130  0.09476  1
 O  O4  1  0.51981  0.08275  0.21458  1
 O  O5  1  0.48019  0.58275  0.78542  1
 O  O6  1  0.14361  0.83701  0.84264  1
 Rb  Rb1  1  -0.03861  0.33065  0.84143  1
 Rb  Rb2  1  0.03861  0.83065  0.15857  1
 S  S1  1  0.40637  0.81351  0.81171  1
 S  S2  1  0.59363  0.31351  0.18829  1
