CIF file written using JARVIS-Tools package.
data_CaTiBe
_symmetry_space_group_name_H-M  'I4mm'
_cell_length_a       6.28514
_cell_length_b       6.28514
_cell_length_c       6.28514
_cell_angle_alpha    151.045
_cell_angle_beta     151.045
_cell_angle_gamma    41.409

_symmetry_Int_Tables_number  107
_chemical_formula_structural  CaTiBe
_chemical_formula_sum  CaTiBe
_cell_volume  58.06012038825464
_cell_formula_units_Z  1
loop_
  _symmetry_equiv_pos_site_id
 _symmetry_equiv_pos_as_xyz
 1  'x, y, z'
loop_
 _atom_site_type_symbol
 _atom_site_label
 _atom_site_symmetry_multiplicity
 _atom_site_fract_x
 _atom_site_fract_y
 _atom_site_fract_z
 _atom_site_fract_occupancy
 Be  Be1  1  0.02709  0.02709  -0.00000  1
 Ca  Ca1  1  0.34976  0.34976  -0.00000  1
 Ti  Ti1  1  0.62315  0.62315  -0.00000  1
