CIF file written using JARVIS-Tools package.
data_B5Mo2
_symmetry_space_group_name_H-M  'P6_3/mmc'
_cell_length_a       3.91073
_cell_length_b       3.91073
_cell_length_c       10.246
_cell_angle_alpha    90
_cell_angle_beta     90
_cell_angle_gamma    120

_symmetry_Int_Tables_number  194
_chemical_formula_structural  B5Mo2
_chemical_formula_sum  B0Mo4
_cell_volume  135.70627065367398
_cell_formula_units_Z  2
loop_
  _symmetry_equiv_pos_site_id
 _symmetry_equiv_pos_as_xyz
 1  'x, y, z'
loop_
 _atom_site_type_symbol
 _atom_site_label
 _atom_site_symmetry_multiplicity
 _atom_site_fract_x
 _atom_site_fract_y
 _atom_site_fract_z
 _atom_site_fract_occupancy
 B  B1  1  0.33333  0.66667  0.33923  1
 B  B2  1  0.66667  0.33333  0.83923  1
 B  B3  1  0.66667  0.33333  0.66077  1
 B  B4  1  0.33333  0.66667  0.16077  1
 B  B5  1  0.50000  -0.00000  0.00000  1
 B  B6  1  0.00000  0.50000  0.00000  1
 B  B7  1  0.50000  0.50000  0.00000  1
 B  B8  1  0.50000  -0.00000  0.50000  1
 B  B9  1  0.00000  0.50000  0.50000  1
 B  B10  1  0.50000  0.50000  0.50000  1
 Mo  Mo1  1  0.00000  0.00000  0.36794  1
 Mo  Mo2  1  0.00000  0.00000  0.86794  1
 Mo  Mo3  1  0.00000  0.00000  0.63206  1
 Mo  Mo4  1  0.00000  0.00000  0.13206  1
