CIF file written using JARVIS-Tools package.
data_BeReMo
_symmetry_space_group_name_H-M  'I4mm'
_cell_length_a       4.6902
_cell_length_b       4.6902
_cell_length_c       4.6902
_cell_angle_alpha    141.226
_cell_angle_beta     141.226
_cell_angle_gamma    55.9957

_symmetry_Int_Tables_number  107
_chemical_formula_structural  BeReMo
_chemical_formula_sum  BeReMo
_cell_volume  40.151651897078885
_cell_formula_units_Z  1
loop_
  _symmetry_equiv_pos_site_id
 _symmetry_equiv_pos_as_xyz
 1  'x, y, z'
loop_
 _atom_site_type_symbol
 _atom_site_label
 _atom_site_symmetry_multiplicity
 _atom_site_fract_x
 _atom_site_fract_y
 _atom_site_fract_z
 _atom_site_fract_occupancy
 Be  Be1  1  0.00593  0.00593  -0.00000  1
 Mo  Mo1  1  0.33447  0.33447  0.00000  1
 Re  Re1  1  0.65960  0.65960  -0.00000  1
