CIF file written using JARVIS-Tools package.
data_Sr2BBrN2
_symmetry_space_group_name_H-M  'R-3m'
_cell_length_a       9.19556
_cell_length_b       9.19556
_cell_length_c       9.19556
_cell_angle_alpha    25.8544
_cell_angle_beta     25.8544
_cell_angle_gamma    25.8543

_symmetry_Int_Tables_number  166
_chemical_formula_structural  Sr2BBrN2
_chemical_formula_sum  Sr2BBrN2
_cell_volume  130.22890378256804
_cell_formula_units_Z  1
loop_
  _symmetry_equiv_pos_site_id
 _symmetry_equiv_pos_as_xyz
 1  'x, y, z'
loop_
 _atom_site_type_symbol
 _atom_site_label
 _atom_site_symmetry_multiplicity
 _atom_site_fract_x
 _atom_site_fract_y
 _atom_site_fract_z
 _atom_site_fract_occupancy
 B  B1  1  0.50000  0.50000  0.50000  1
 Br  Br1  1  0.00000  0.00000  0.00000  1
 N  N1  1  0.55049  0.55049  0.55049  1
 N  N2  1  0.44951  0.44951  0.44951  1
 Sr  Sr1  1  0.75137  0.75137  0.75137  1
 Sr  Sr2  1  0.24863  0.24863  0.24863  1
