CIF file written using JARVIS-Tools package.
data_Sr2NiTeO6
_symmetry_space_group_name_H-M  'C2/m'
_cell_length_a       5.48331
_cell_length_b       6.19387
_cell_length_c       6.19381
_cell_angle_alpha    52.599
_cell_angle_beta     64.8578
_cell_angle_gamma    64.8571

_symmetry_Int_Tables_number  12
_chemical_formula_structural  Sr2NiTeO6
_chemical_formula_sum  Sr2NiTeO6
_cell_volume  147.15147176785135
_cell_formula_units_Z  1
loop_
  _symmetry_equiv_pos_site_id
 _symmetry_equiv_pos_as_xyz
 1  'x, y, z'
loop_
 _atom_site_type_symbol
 _atom_site_label
 _atom_site_symmetry_multiplicity
 _atom_site_fract_x
 _atom_site_fract_y
 _atom_site_fract_z
 _atom_site_fract_occupancy
 Ni  Ni1  1  0.50000  0.00001  -0.00001  1
 O  O1  1  0.26746  0.74664  0.23269  1
 O  O2  1  0.73255  0.25336  0.76731  1
 O  O3  1  0.16686  0.79910  0.79910  1
 O  O4  1  0.73255  0.76732  0.25336  1
 O  O5  1  0.26745  0.23269  0.74664  1
 O  O6  1  0.83314  0.20090  0.20090  1
 Sr  Sr1  1  0.18241  0.30433  0.30433  1
 Sr  Sr2  1  0.81759  0.69567  0.69568  1
 Te  Te1  1  -0.00000  -0.00000  0.00000  1
