CIF file written using JARVIS-Tools package.
data_Be2CdRu
_symmetry_space_group_name_H-M  'P4/mmm'
_cell_length_a       2.99043
_cell_length_b       2.99043
_cell_length_c       5.71982
_cell_angle_alpha    90
_cell_angle_beta     90
_cell_angle_gamma    90

_symmetry_Int_Tables_number  123
_chemical_formula_structural  Be2CdRu
_chemical_formula_sum  Be2CdRu
_cell_volume  51.1503814131979
_cell_formula_units_Z  1
loop_
  _symmetry_equiv_pos_site_id
 _symmetry_equiv_pos_as_xyz
 1  'x, y, z'
loop_
 _atom_site_type_symbol
 _atom_site_label
 _atom_site_symmetry_multiplicity
 _atom_site_fract_x
 _atom_site_fract_y
 _atom_site_fract_z
 _atom_site_fract_occupancy
 Be  Be1  1  0.00000  0.00000  0.68281  1
 Be  Be2  1  0.00000  0.00000  0.31719  1
 Cd  Cd1  1  0.50000  0.50000  0.00000  1
 Ru  Ru1  1  0.50000  0.50000  0.50000  1
