CIF file written using JARVIS-Tools package.
data_VOF
_symmetry_space_group_name_H-M  'Pm'
_cell_length_a       4.67364
_cell_length_b       3.03014
_cell_length_c       14.0661
_cell_angle_alpha    90
_cell_angle_beta     93.0623
_cell_angle_gamma    90

_symmetry_Int_Tables_number  6
_chemical_formula_structural  VOF
_chemical_formula_sum  V6O6F6
_cell_volume  198.91706499025042
_cell_formula_units_Z  6
loop_
  _symmetry_equiv_pos_site_id
 _symmetry_equiv_pos_as_xyz
 1  'x, y, z'
loop_
 _atom_site_type_symbol
 _atom_site_label
 _atom_site_symmetry_multiplicity
 _atom_site_fract_x
 _atom_site_fract_y
 _atom_site_fract_z
 _atom_site_fract_occupancy
 F  F1  1  0.21880  0.50000  0.26428  1
 F  F2  1  0.18845  0.50000  0.93796  1
 F  F3  1  0.29852  0.00000  0.10097  1
 F  F4  1  0.81422  0.50000  0.39931  1
 F  F5  1  0.78342  0.50000  0.73161  1
 F  F6  1  0.20108  0.50000  0.60105  1
 O  O1  1  0.79711  0.50000  0.06533  1
 O  O2  1  0.68372  0.00000  0.89868  1
 O  O3  1  0.71853  0.00000  0.23262  1
 O  O4  1  0.70471  0.00000  0.56628  1
 O  O5  1  0.31312  0.00000  0.43277  1
 O  O6  1  0.27976  0.00000  0.76803  1
 V  V1  1  0.55316  0.50000  0.16751  1
 V  V2  1  0.50668  0.50000  0.49976  1
 V  V3  1  0.47797  0.50000  0.83334  1
 V  V4  1  0.02098  0.00000  0.33354  1
 V  V5  1  0.99282  0.00000  0.66669  1
 V  V6  1  0.94696  0.00000  0.00023  1
