CIF file written using JARVIS-Tools package.
data_MgN8
_symmetry_space_group_name_H-M  'I4/m'
_cell_length_a       5.66177
_cell_length_b       5.66177
_cell_length_c       5.66177
_cell_angle_alpha    98.834
_cell_angle_beta     115.038
_cell_angle_gamma    115.038

_symmetry_Int_Tables_number  87
_chemical_formula_structural  MgN8
_chemical_formula_sum  MgN8
_cell_volume  136.20123895872055
_cell_formula_units_Z  1
loop_
  _symmetry_equiv_pos_site_id
 _symmetry_equiv_pos_as_xyz
 1  'x, y, z'
loop_
 _atom_site_type_symbol
 _atom_site_label
 _atom_site_symmetry_multiplicity
 _atom_site_fract_x
 _atom_site_fract_y
 _atom_site_fract_z
 _atom_site_fract_occupancy
 Mg  Mg1  1  0.00000  0.00000  0.00000  1
 N  N1  1  0.50000  0.50000  0.00000  1
 N  N2  1  0.50000  0.00000  0.50000  1
 N  N3  1  0.76414  0.09602  0.66812  1
 N  N4  1  0.23586  0.90398  0.33188  1
 N  N5  1  0.57210  0.66812  0.90398  1
 N  N6  1  0.42790  0.33188  0.09602  1
 N  N7  1  0.00000  0.69052  0.69052  1
 N  N8  1  0.00000  0.30948  0.30948  1
