CIF file written using JARVIS-Tools package.
data_LiB
_symmetry_space_group_name_H-M  'R-3m'
_cell_length_a       5.6055
_cell_length_b       5.6055
_cell_length_c       5.6055
_cell_angle_alpha    31.6212
_cell_angle_beta     31.6212
_cell_angle_gamma    31.6213

_symmetry_Int_Tables_number  166
_chemical_formula_structural  LiB
_chemical_formula_sum  Li2B2
_cell_volume  42.99339645553296
_cell_formula_units_Z  2
loop_
  _symmetry_equiv_pos_site_id
 _symmetry_equiv_pos_as_xyz
 1  'x, y, z'
loop_
 _atom_site_type_symbol
 _atom_site_label
 _atom_site_symmetry_multiplicity
 _atom_site_fract_x
 _atom_site_fract_y
 _atom_site_fract_z
 _atom_site_fract_occupancy
 B  B1  1  0.66676  0.66676  0.66676  1
 B  B2  1  0.33324  0.33324  0.33324  1
 Li  Li1  1  0.91488  0.91488  0.91488  1
 Li  Li2  1  0.08512  0.08512  0.08512  1
