CIF file written using JARVIS-Tools package.
data_CaMgSiO4
_symmetry_space_group_name_H-M  'Pnma'
_cell_length_a       4.85763
_cell_length_b       6.39739
_cell_length_c       11.1337
_cell_angle_alpha    90
_cell_angle_beta     90
_cell_angle_gamma    90

_symmetry_Int_Tables_number  62
_chemical_formula_structural  CaMgSiO4
_chemical_formula_sum  Ca4Mg4Si4O6
_cell_volume  345.99151369910123
_cell_formula_units_Z  4
loop_
  _symmetry_equiv_pos_site_id
 _symmetry_equiv_pos_as_xyz
 1  'x, y, z'
loop_
 _atom_site_type_symbol
 _atom_site_label
 _atom_site_symmetry_multiplicity
 _atom_site_fract_x
 _atom_site_fract_y
 _atom_site_fract_z
 _atom_site_fract_occupancy
 Ca  Ca1  1  0.52207  0.25000  0.77636  1
 Ca  Ca2  1  0.97793  0.25000  0.27636  1
 Ca  Ca3  1  0.02207  0.75000  0.72364  1
 Ca  Ca4  1  0.47793  0.75000  0.22364  1
 Mg  Mg1  1  0.50000  0.50000  0.50000  1
 Mg  Mg2  1  0.50000  0.00000  0.50000  1
 Mg  Mg3  1  0.00000  0.50000  0.00000  1
 Mg  Mg4  1  0.00000  0.00000  0.00000  1
 O  O1  1  0.72796  0.95613  0.85264  1
 O  O2  1  0.22796  0.04387  0.64736  1
 O  O3  1  0.27204  0.45613  0.14736  1
 O  O4  1  0.72796  0.54387  0.85264  1
 O  O5  1  0.27204  0.04387  0.14736  1
 O  O6  1  0.77204  0.95613  0.35264  1
 O  O7  1  0.74788  0.75000  0.05220  1
 O  O8  1  0.77204  0.54387  0.35264  1
 O  O9  1  0.24788  0.25000  0.44780  1
 O  O10  1  0.74875  0.25000  0.07700  1
 O  O11  1  0.75212  0.75000  0.55220  1
 O  O12  1  0.22796  0.45613  0.64736  1
 O  O13  1  0.25125  0.75000  0.92300  1
 O  O14  1  0.24875  0.75000  0.42300  1
 O  O15  1  0.25212  0.25000  0.94780  1
 O  O16  1  0.75125  0.25000  0.57700  1
 Si  Si1  1  0.08760  0.25000  0.58101  1
 Si  Si2  1  0.41240  0.25000  0.08101  1
 Si  Si3  1  0.91240  0.75000  0.41899  1
 Si  Si4  1  0.58760  0.75000  0.91899  1
