CIF file written using JARVIS-Tools package.
data_Mn3O2F4
_symmetry_space_group_name_H-M  'C2'
_cell_length_a       7.72493
_cell_length_b       5.68959
_cell_length_c       5.68959
_cell_angle_alpha    68.4474
_cell_angle_beta     69.9586
_cell_angle_gamma    69.9586

_symmetry_Int_Tables_number  5
_chemical_formula_structural  Mn3O2F4
_chemical_formula_sum  Mn6O4F8
_cell_volume  211.66513497858801
_cell_formula_units_Z  2
loop_
  _symmetry_equiv_pos_site_id
 _symmetry_equiv_pos_as_xyz
 1  'x, y, z'
loop_
 _atom_site_type_symbol
 _atom_site_label
 _atom_site_symmetry_multiplicity
 _atom_site_fract_x
 _atom_site_fract_y
 _atom_site_fract_z
 _atom_site_fract_occupancy
 F  F1  1  0.37487  0.44178  0.42929  1
 F  F2  1  0.96296  0.22445  0.23219  1
 F  F3  1  0.62513  0.57071  0.55822  1
 F  F4  1  0.30197  0.89976  0.89886  1
 F  F5  1  0.32829  0.37875  0.96532  1
 F  F6  1  0.67171  0.03468  0.62125  1
 F  F7  1  0.03704  0.76781  0.77555  1
 F  F8  1  0.69803  0.10114  0.10024  1
 Mn  Mn1  1  0.84280  0.64270  0.66953  1
 Mn  Mn2  1  0.00000  0.98694  0.01306  1
 Mn  Mn3  1  0.50000  0.98126  0.01874  1
 Mn  Mn4  1  0.15720  0.33047  0.35730  1
 Mn  Mn5  1  0.32985  0.69052  0.64983  1
 Mn  Mn6  1  0.67015  0.35017  0.30948  1
 O  O1  1  0.67504  0.63578  0.01216  1
 O  O2  1  0.00000  0.68505  0.31495  1
 O  O3  1  0.00000  0.29019  0.70981  1
 O  O4  1  0.32496  0.98784  0.36422  1
