CIF file written using JARVIS-Tools package.
data_SrH2O2
_symmetry_space_group_name_H-M  'Pnma'
_cell_length_a       9.88148
_cell_length_b       6.04174
_cell_length_c       3.91251
_cell_angle_alpha    90
_cell_angle_beta     90
_cell_angle_gamma    90

_symmetry_Int_Tables_number  62
_chemical_formula_structural  SrH2O2
_chemical_formula_sum  Sr4H8O8
_cell_volume  233.58190763451324
_cell_formula_units_Z  4
loop_
  _symmetry_equiv_pos_site_id
 _symmetry_equiv_pos_as_xyz
 1  'x, y, z'
loop_
 _atom_site_type_symbol
 _atom_site_label
 _atom_site_symmetry_multiplicity
 _atom_site_fract_x
 _atom_site_fract_y
 _atom_site_fract_z
 _atom_site_fract_occupancy
 H  H1  1  0.40636  0.18408  0.25000  1
 H  H2  1  0.52376  0.12844  0.75000  1
 H  H3  1  0.02376  0.37156  0.75000  1
 H  H4  1  0.97299  0.62850  0.25000  1
 H  H5  1  0.47299  0.87150  0.25000  1
 H  H6  1  0.09041  0.68404  0.75000  1
 H  H7  1  0.90636  0.31592  0.25000  1
 H  H8  1  0.59041  0.81596  0.75000  1
 O  O1  1  0.87404  0.62605  0.25000  1
 O  O2  1  0.60443  0.65407  0.75000  1
 O  O3  1  0.10443  0.84593  0.75000  1
 O  O4  1  0.39232  0.34596  0.25000  1
 O  O5  1  0.89232  0.15404  0.25000  1
 O  O6  1  0.62271  0.12609  0.75000  1
 O  O7  1  0.37404  0.87395  0.25000  1
 O  O8  1  0.12271  0.37391  0.75000  1
 Sr  Sr1  1  0.83868  0.89788  0.75000  1
 Sr  Sr2  1  0.33868  0.60212  0.75000  1
 Sr  Sr3  1  0.15808  0.10210  0.25000  1
 Sr  Sr4  1  0.65808  0.39790  0.25000  1
