CIF file written using JARVIS-Tools package.
data_Si2H2O5
_symmetry_space_group_name_H-M  'C2'
_cell_length_a       8.39084
_cell_length_b       8.39084
_cell_length_c       8.44323
_cell_angle_alpha    138.22
_cell_angle_beta     55.2765
_cell_angle_gamma    145.367

_symmetry_Int_Tables_number  5
_chemical_formula_structural  Si2H2O5
_chemical_formula_sum  Si4H4O0
_cell_volume  223.57123002917757
_cell_formula_units_Z  2
loop_
  _symmetry_equiv_pos_site_id
 _symmetry_equiv_pos_as_xyz
 1  'x, y, z'
loop_
 _atom_site_type_symbol
 _atom_site_label
 _atom_site_symmetry_multiplicity
 _atom_site_fract_x
 _atom_site_fract_y
 _atom_site_fract_z
 _atom_site_fract_occupancy
 H  H1  1  0.42630  0.55077  0.44157  1
 H  H2  1  0.10920  -0.01527  0.55843  1
 H  H3  1  0.75442  0.88911  0.67815  1
 H  H4  1  0.21096  0.07627  0.32185  1
 O  O1  1  0.24608  0.01709  0.43519  1
 O  O2  1  0.87281  0.93676  0.73856  1
 O  O3  1  0.84585  0.84585  0.00000  1
 O  O4  1  0.28506  0.95517  0.81552  1
 O  O5  1  0.58957  0.08957  0.50000  1
 O  O6  1  0.57297  0.96537  0.11203  1
 O  O7  1  0.19821  0.13425  0.26144  1
 O  O8  1  0.58190  0.81089  0.56481  1
 O  O9  1  0.13965  0.46954  0.18448  1
 O  O10  1  0.85333  0.46093  0.88797  1
 Si  Si1  1  0.04823  0.85043  -0.00765  1
 Si  Si2  1  0.85808  0.05588  0.00765  1
 Si  Si3  1  0.38288  0.88250  0.30929  1
 Si  Si4  1  0.57321  0.07359  0.69071  1
