CIF file written using JARVIS-Tools package.
data_MgBeSe
_symmetry_space_group_name_H-M  'I4mm'
_cell_length_a       5.3755
_cell_length_b       5.3755
_cell_length_c       5.3755
_cell_angle_alpha    144.347
_cell_angle_beta     144.347
_cell_angle_gamma    51.308

_symmetry_Int_Tables_number  107
_chemical_formula_structural  MgBeSe
_chemical_formula_sum  MgBeSe
_cell_volume  52.48838628785717
_cell_formula_units_Z  1
loop_
  _symmetry_equiv_pos_site_id
 _symmetry_equiv_pos_as_xyz
 1  'x, y, z'
loop_
 _atom_site_type_symbol
 _atom_site_label
 _atom_site_symmetry_multiplicity
 _atom_site_fract_x
 _atom_site_fract_y
 _atom_site_fract_z
 _atom_site_fract_occupancy
 Be  Be1  1  0.03978  0.03978  0.00000  1
 Mg  Mg1  1  0.34110  0.34110  0.00000  1
 Se  Se1  1  0.61912  0.61912  0.00000  1
