CIF file written using JARVIS-Tools package.
data_KHCO3
_symmetry_space_group_name_H-M  'P-1'
_cell_length_a       3.67347
_cell_length_b       5.63192
_cell_length_c       7.78758
_cell_angle_alpha    107.903
_cell_angle_beta     101.851
_cell_angle_gamma    90.7519

_symmetry_Int_Tables_number  2
_chemical_formula_structural  KHCO3
_chemical_formula_sum  K2H2C2O6
_cell_volume  149.54117747116197
_cell_formula_units_Z  2
loop_
  _symmetry_equiv_pos_site_id
 _symmetry_equiv_pos_as_xyz
 1  'x, y, z'
loop_
 _atom_site_type_symbol
 _atom_site_label
 _atom_site_symmetry_multiplicity
 _atom_site_fract_x
 _atom_site_fract_y
 _atom_site_fract_z
 _atom_site_fract_occupancy
 C  C1  1  0.13776  0.37680  0.76401  1
 C  C2  1  0.86224  0.62320  0.23599  1
 H  H1  1  0.45809  0.29368  0.97219  1
 H  H2  1  0.54191  0.70632  0.02781  1
 K  K1  1  0.29531  0.17460  0.33017  1
 K  K2  1  0.70469  0.82540  0.66983  1
 O  O1  1  0.10553  0.70575  0.38485  1
 O  O2  1  0.89447  0.29425  0.61515  1
 O  O3  1  0.27185  0.20696  0.84797  1
 O  O4  1  0.72815  0.79304  0.15203  1
 O  O5  1  0.26555  0.60606  0.84029  1
 O  O6  1  0.73445  0.39394  0.15971  1
