CIF file written using JARVIS-Tools package.
data_Li2Ti3NiO8
_symmetry_space_group_name_H-M  'P6_3mc'
_cell_length_a       5.90808
_cell_length_b       5.90808
_cell_length_c       9.5686
_cell_angle_alpha    90
_cell_angle_beta     90
_cell_angle_gamma    120

_symmetry_Int_Tables_number  186
_chemical_formula_structural  Li2Ti3NiO8
_chemical_formula_sum  Li4Ti6Ni2O6
_cell_volume  289.24961513328714
_cell_formula_units_Z  2
loop_
  _symmetry_equiv_pos_site_id
 _symmetry_equiv_pos_as_xyz
 1  'x, y, z'
loop_
 _atom_site_type_symbol
 _atom_site_label
 _atom_site_symmetry_multiplicity
 _atom_site_fract_x
 _atom_site_fract_y
 _atom_site_fract_z
 _atom_site_fract_occupancy
 Li  Li1  1  0.33333  0.66667  0.10787  1
 Li  Li2  1  0.00000  0.00000  0.00111  1
 Li  Li3  1  0.00000  0.00000  0.50111  1
 Li  Li4  1  0.66667  0.33333  0.60787  1
 Ni  Ni1  1  0.33333  0.66667  0.51215  1
 Ni  Ni2  1  0.66667  0.33333  0.01215  1
 O  O1  1  0.15986  0.84014  0.39498  1
 O  O2  1  0.51769  0.03539  0.16742  1
 O  O3  1  0.33333  0.66667  0.89743  1
 O  O4  1  0.00000  0.00000  0.68407  1
 O  O5  1  0.00000  0.00000  0.18407  1
 O  O6  1  0.68028  0.84014  0.39498  1
 O  O7  1  0.48231  0.96461  0.66742  1
 O  O8  1  0.48231  0.51769  0.66742  1
 O  O9  1  0.15986  0.31972  0.39498  1
 O  O10  1  0.51769  0.48231  0.16742  1
 O  O11  1  0.31972  0.15986  0.89498  1
 O  O12  1  0.66667  0.33333  0.39743  1
 O  O13  1  0.03539  0.51769  0.66742  1
 O  O14  1  0.84014  0.68028  0.89498  1
 O  O15  1  0.96461  0.48231  0.16742  1
 O  O16  1  0.84014  0.15986  0.89498  1
 Ti  Ti1  1  0.16853  0.33706  0.78541  1
 Ti  Ti2  1  0.16853  0.83147  0.78541  1
 Ti  Ti3  1  0.66294  0.83147  0.78541  1
 Ti  Ti4  1  0.83147  0.16853  0.28541  1
 Ti  Ti5  1  0.83147  0.66294  0.28541  1
 Ti  Ti6  1  0.33706  0.16853  0.28541  1
