CIF file written using JARVIS-Tools package.
data_SrAl2B2O7
_symmetry_space_group_name_H-M  'R32'
_cell_length_a       8.56515
_cell_length_b       8.56526
_cell_length_c       8.56547
_cell_angle_alpha    33.4865
_cell_angle_beta     33.4869
_cell_angle_gamma    33.4876

_symmetry_Int_Tables_number  155
_chemical_formula_structural  SrAl2B2O7
_chemical_formula_sum  SrAl2B2O7
_cell_volume  170.37264425928115
_cell_formula_units_Z  1
loop_
  _symmetry_equiv_pos_site_id
 _symmetry_equiv_pos_as_xyz
 1  'x, y, z'
loop_
 _atom_site_type_symbol
 _atom_site_label
 _atom_site_symmetry_multiplicity
 _atom_site_fract_x
 _atom_site_fract_y
 _atom_site_fract_z
 _atom_site_fract_occupancy
 Al  Al1  1  0.56995  0.56996  0.56994  1
 Al  Al2  1  0.43021  0.43017  0.43014  1
 B  B1  1  0.73468  0.73460  0.73459  1
 B  B2  1  0.26551  0.26550  0.26549  1
 O  O1  1  0.50003  0.50011  0.50004  1
 O  O2  1  0.96463  0.51400  0.32513  1
 O  O3  1  0.32517  0.96462  0.51400  1
 O  O4  1  0.51402  0.32514  0.96460  1
 O  O5  1  0.03555  0.67494  0.48608  1
 O  O6  1  0.67503  0.48610  0.03548  1
 O  O7  1  0.48617  0.03549  0.67495  1
 Sr  Sr1  1  0.00008  0.00007  0.00003  1
