CIF file written using JARVIS-Tools package.
data_HfCo3B2
_symmetry_space_group_name_H-M  'R-3m'
_cell_length_a       5.69066
_cell_length_b       5.69066
_cell_length_c       5.69066
_cell_angle_alpha    94.5629
_cell_angle_beta     94.5629
_cell_angle_gamma    94.5629

_symmetry_Int_Tables_number  166
_chemical_formula_structural  HfCo3B2
_chemical_formula_sum  Hf3Co9B6
_cell_volume  182.4327194870851
_cell_formula_units_Z  3
loop_
  _symmetry_equiv_pos_site_id
 _symmetry_equiv_pos_as_xyz
 1  'x, y, z'
loop_
 _atom_site_type_symbol
 _atom_site_label
 _atom_site_symmetry_multiplicity
 _atom_site_fract_x
 _atom_site_fract_y
 _atom_site_fract_z
 _atom_site_fract_occupancy
 B  B1  1  0.00000  0.62205  0.37795  1
 B  B2  1  0.37795  0.00000  0.62205  1
 B  B3  1  -0.00000  0.37795  0.62205  1
 B  B4  1  0.37795  0.62205  -0.00000  1
 B  B5  1  0.62205  -0.00000  0.37795  1
 B  B6  1  0.62205  0.37795  0.00000  1
 Co  Co1  1  0.00000  0.50000  0.00000  1
 Co  Co2  1  -0.00000  0.00000  0.50000  1
 Co  Co3  1  0.50000  -0.00000  0.00000  1
 Co  Co4  1  0.19742  0.69530  0.69529  1
 Co  Co5  1  0.69529  0.19742  0.69530  1
 Co  Co6  1  0.80258  0.30470  0.30471  1
 Co  Co7  1  0.30470  0.30471  0.80258  1
 Co  Co8  1  0.30471  0.80258  0.30470  1
 Co  Co9  1  0.69530  0.69529  0.19742  1
 Hf  Hf1  1  0.67038  0.67038  0.67038  1
 Hf  Hf2  1  0.00000  0.00000  0.00000  1
 Hf  Hf3  1  0.32962  0.32962  0.32962  1
