CIF file written using JARVIS-Tools package.
data_Bi2PdO4
_symmetry_space_group_name_H-M  'I4cm'
_cell_length_a       5.56903
_cell_length_b       6.98188
_cell_length_c       6.98187
_cell_angle_alpha    80.8488
_cell_angle_beta     66.496
_cell_angle_gamma    66.496

_symmetry_Int_Tables_number  108
_chemical_formula_structural  Bi2PdO4
_chemical_formula_sum  Bi4Pd2O8
_cell_volume  228.29303661252524
_cell_formula_units_Z  2
loop_
  _symmetry_equiv_pos_site_id
 _symmetry_equiv_pos_as_xyz
 1  'x, y, z'
loop_
 _atom_site_type_symbol
 _atom_site_label
 _atom_site_symmetry_multiplicity
 _atom_site_fract_x
 _atom_site_fract_y
 _atom_site_fract_z
 _atom_site_fract_occupancy
 Bi  Bi1  1  0.65357  0.50000  0.16011  1
 Bi  Bi2  1  0.81368  0.83989  0.50000  1
 Bi  Bi3  1  0.15357  0.16011  0.50000  1
 Bi  Bi4  1  0.31368  0.50000  0.83989  1
 O  O1  1  0.55302  0.90728  0.30216  1
 O  O2  1  0.96030  0.09272  0.30216  1
 O  O3  1  0.05302  0.30216  0.90728  1
 O  O4  1  0.76247  0.09272  0.69784  1
 O  O5  1  0.35519  0.90728  0.69784  1
 O  O6  1  0.85519  0.69784  0.90728  1
 O  O7  1  0.46030  0.30216  0.09272  1
 O  O8  1  0.26247  0.69784  0.09272  1
 Pd  Pd1  1  0.67167  -0.00000  -0.00000  1
 Pd  Pd2  1  0.17167  -0.00000  -0.00000  1
