CIF file written using JARVIS-Tools package.
data_Zr2Al3C4
_symmetry_space_group_name_H-M  'P6_3/mmc'
_cell_length_a       3.36092
_cell_length_b       3.36093
_cell_length_c       22.3509
_cell_angle_alpha    90
_cell_angle_beta     90
_cell_angle_gamma    120

_symmetry_Int_Tables_number  194
_chemical_formula_structural  Zr2Al3C4
_chemical_formula_sum  Zr4Al6C8
_cell_volume  218.64670245703513
_cell_formula_units_Z  2
loop_
  _symmetry_equiv_pos_site_id
 _symmetry_equiv_pos_as_xyz
 1  'x, y, z'
loop_
 _atom_site_type_symbol
 _atom_site_label
 _atom_site_symmetry_multiplicity
 _atom_site_fract_x
 _atom_site_fract_y
 _atom_site_fract_z
 _atom_site_fract_occupancy
 Al  Al1  1  0.00000  0.00000  0.34073  1
 Al  Al2  1  0.33333  0.66667  0.75000  1
 Al  Al3  1  0.66667  0.33333  0.25000  1
 Al  Al4  1  0.00000  0.00000  0.15927  1
 Al  Al5  1  0.00000  0.00000  0.84073  1
 Al  Al6  1  0.00000  0.00000  0.65927  1
 C  C1  1  0.66667  0.33333  0.12847  1
 C  C2  1  0.00000  0.00000  0.00000  1
 C  C3  1  0.33333  0.66667  0.87153  1
 C  C4  1  0.33333  0.66667  0.62847  1
 C  C5  1  0.66667  0.33333  0.37153  1
 C  C6  1  0.00000  0.00000  0.75000  1
 C  C7  1  0.00000  0.00000  0.25000  1
 C  C8  1  0.00000  0.00000  0.50000  1
 Zr  Zr1  1  0.66667  0.33333  0.55848  1
 Zr  Zr2  1  0.33333  0.66667  0.44152  1
 Zr  Zr3  1  0.66667  0.33333  0.94152  1
 Zr  Zr4  1  0.33333  0.66667  0.05848  1
