CIF file written using JARVIS-Tools package.
data_Rb3NaPbO4
_symmetry_space_group_name_H-M  'P2_1/c'
_cell_length_a       6.66553
_cell_length_b       11.0423
_cell_length_c       11.1722
_cell_angle_alpha    111.746
_cell_angle_beta     90
_cell_angle_gamma    90

_symmetry_Int_Tables_number  14
_chemical_formula_structural  Rb3NaPbO4
_chemical_formula_sum  Rb2Na4Pb4O6
_cell_volume  763.7872335951594
_cell_formula_units_Z  4
loop_
  _symmetry_equiv_pos_site_id
 _symmetry_equiv_pos_as_xyz
 1  'x, y, z'
loop_
 _atom_site_type_symbol
 _atom_site_label
 _atom_site_symmetry_multiplicity
 _atom_site_fract_x
 _atom_site_fract_y
 _atom_site_fract_z
 _atom_site_fract_occupancy
 Na  Na1  1  0.38018  0.87462  0.89045  1
 Na  Na2  1  0.11982  0.87462  0.39045  1
 Na  Na3  1  0.88018  0.12538  0.60955  1
 Na  Na4  1  0.61982  0.12538  0.10955  1
 O  O1  1  0.49182  0.20614  0.31116  1
 O  O2  1  0.76419  0.56854  0.44231  1
 O  O3  1  0.07521  0.77382  0.88064  1
 O  O4  1  0.50818  0.79386  0.68884  1
 O  O5  1  0.42479  0.77382  0.38064  1
 O  O6  1  0.88233  0.89682  0.54948  1
 O  O7  1  0.38233  0.10318  0.95052  1
 O  O8  1  0.73581  0.56854  0.94231  1
 O  O9  1  0.92479  0.22618  0.11936  1
 O  O10  1  0.57521  0.22618  0.61936  1
 O  O11  1  0.00818  0.20614  0.81116  1
 O  O12  1  0.11767  0.10318  0.45052  1
 O  O13  1  0.23581  0.43146  0.55769  1
 O  O14  1  0.26419  0.43146  0.05769  1
 O  O15  1  0.61767  0.89682  0.04948  1
 O  O16  1  0.99182  0.79386  0.18884  1
 Pb  Pb1  1  0.14628  0.24105  0.99084  1
 Pb  Pb2  1  0.35372  0.24105  0.49084  1
 Pb  Pb3  1  0.85372  0.75895  0.00916  1
 Pb  Pb4  1  0.64628  0.75895  0.50916  1
 Rb  Rb1  1  0.38714  0.45923  0.31441  1
 Rb  Rb2  1  0.32007  0.02975  0.66981  1
 Rb  Rb3  1  0.37944  0.68303  0.10722  1
 Rb  Rb4  1  0.12056  0.68303  0.60722  1
 Rb  Rb5  1  0.61286  0.54077  0.68559  1
 Rb  Rb6  1  0.82007  0.97025  0.83019  1
 Rb  Rb7  1  0.11286  0.45923  0.81441  1
 Rb  Rb8  1  0.88714  0.54077  0.18559  1
 Rb  Rb9  1  0.87944  0.31697  0.39278  1
 Rb  Rb10  1  0.17993  0.02975  0.16981  1
 Rb  Rb11  1  0.67993  0.97025  0.33019  1
 Rb  Rb12  1  0.62056  0.31697  0.89278  1
