CIF file written using JARVIS-Tools package.
data_DyFeGe2
_symmetry_space_group_name_H-M  'Cmcm'
_cell_length_a       4.20762
_cell_length_b       4.13582
_cell_length_c       8.5383
_cell_angle_alpha    104.016
_cell_angle_beta     90
_cell_angle_gamma    90

_symmetry_Int_Tables_number  63
_chemical_formula_structural  DyFeGe2
_chemical_formula_sum  Dy2Fe2Ge4
_cell_volume  144.15938308282378
_cell_formula_units_Z  2
loop_
  _symmetry_equiv_pos_site_id
 _symmetry_equiv_pos_as_xyz
 1  'x, y, z'
loop_
 _atom_site_type_symbol
 _atom_site_label
 _atom_site_symmetry_multiplicity
 _atom_site_fract_x
 _atom_site_fract_y
 _atom_site_fract_z
 _atom_site_fract_occupancy
 Dy  Dy1  1  0.75000  0.10908  0.21816  1
 Dy  Dy2  1  0.25000  0.89092  0.78184  1
 Fe  Fe1  1  0.75000  0.31871  0.63741  1
 Fe  Fe2  1  0.25000  0.68129  0.36259  1
 Ge  Ge1  1  0.75000  0.45490  0.90979  1
 Ge  Ge2  1  0.25000  0.54510  0.09021  1
 Ge  Ge3  1  0.75000  0.74899  0.49798  1
 Ge  Ge4  1  0.25000  0.25101  0.50202  1
