CIF file written using JARVIS-Tools package.
data_FeHgC4S4N4
_symmetry_space_group_name_H-M  'I-4'
_cell_length_a       4.22299
_cell_length_b       8.21033
_cell_length_c       8.21033
_cell_angle_alpha    86.2077
_cell_angle_beta     75.0975
_cell_angle_gamma    75.0975

_symmetry_Int_Tables_number  82
_chemical_formula_structural  FeHgC4S4N4
_chemical_formula_sum  FeHgC4S4N4
_cell_volume  265.8417405925934
_cell_formula_units_Z  1
loop_
  _symmetry_equiv_pos_site_id
 _symmetry_equiv_pos_as_xyz
 1  'x, y, z'
loop_
 _atom_site_type_symbol
 _atom_site_label
 _atom_site_symmetry_multiplicity
 _atom_site_fract_x
 _atom_site_fract_y
 _atom_site_fract_z
 _atom_site_fract_occupancy
 C  C1  1  0.20920  0.19158  0.64066  1
 C  C2  1  0.15014  0.64066  0.80842  1
 C  C3  1  0.59921  0.35934  0.19158  1
 C  C4  1  0.04144  0.80842  0.35934  1
 Fe  Fe1  1  0.75000  0.50000  0.50000  1
 Hg  Hg1  1  0.00000  0.00000  0.00000  1
 N  N1  1  0.04374  0.31144  0.58763  1
 N  N2  1  0.36863  0.58763  0.68856  1
 N  N3  1  0.64482  0.41237  0.31144  1
 N  N4  1  0.94282  0.68856  0.41237  1
 S  S1  1  0.44035  0.02490  0.71050  1
 S  S2  1  0.84915  0.71050  0.97510  1
 S  S3  1  0.53475  0.28950  0.02490  1
 S  S4  1  0.17575  0.97510  0.28950  1
