CIF file written using JARVIS-Tools package.
data_HfNbO4
_symmetry_space_group_name_H-M  'C2/c'
_cell_length_a       6.41112
_cell_length_b       6.28767
_cell_length_c       6.41112
_cell_angle_alpha    132.68
_cell_angle_beta     70.8962
_cell_angle_gamma    132.488

_symmetry_Int_Tables_number  15
_chemical_formula_structural  HfNbO4
_chemical_formula_sum  Hf2Nb2O8
_cell_volume  135.97721220887286
_cell_formula_units_Z  2
loop_
  _symmetry_equiv_pos_site_id
 _symmetry_equiv_pos_as_xyz
 1  'x, y, z'
loop_
 _atom_site_type_symbol
 _atom_site_label
 _atom_site_symmetry_multiplicity
 _atom_site_fract_x
 _atom_site_fract_y
 _atom_site_fract_z
 _atom_site_fract_occupancy
 Hf  Hf1  1  0.38133  0.75000  0.13133  1
 Hf  Hf2  1  0.61867  0.25000  0.86867  1
 Nb  Nb1  1  0.85709  0.75000  0.60709  1
 Nb  Nb2  1  0.14291  0.25000  0.39291  1
 O  O1  1  0.01285  0.72201  0.26603  1
 O  O2  1  0.45598  0.22201  0.20916  1
 O  O3  1  0.75868  0.79304  0.10013  1
 O  O4  1  0.69291  0.29304  0.53436  1
 O  O5  1  0.30709  0.70696  0.46564  1
 O  O6  1  0.24132  0.20696  0.89987  1
 O  O7  1  0.54402  0.77799  0.79084  1
 O  O8  1  0.98715  0.27799  0.73397  1
