CIF file written using JARVIS-Tools package.
data_Yb4As3
_symmetry_space_group_name_H-M  'I-43d'
_cell_length_a       7.61944
_cell_length_b       7.61944
_cell_length_c       7.61944
_cell_angle_alpha    109.471
_cell_angle_beta     109.471
_cell_angle_gamma    109.471

_symmetry_Int_Tables_number  220
_chemical_formula_structural  Yb4As3
_chemical_formula_sum  Yb8As6
_cell_volume  340.5245110198926
_cell_formula_units_Z  2
loop_
  _symmetry_equiv_pos_site_id
 _symmetry_equiv_pos_as_xyz
 1  'x, y, z'
loop_
 _atom_site_type_symbol
 _atom_site_label
 _atom_site_symmetry_multiplicity
 _atom_site_fract_x
 _atom_site_fract_y
 _atom_site_fract_z
 _atom_site_fract_occupancy
 As  As1  1  0.98098  0.85600  0.60600  1
 As  As2  1  0.85600  0.60600  0.98098  1
 As  As3  1  0.60600  0.98098  0.85600  1
 As  As4  1  0.48098  0.10600  0.35600  1
 As  As5  1  0.35600  0.48098  0.10600  1
 As  As6  1  0.10600  0.35600  0.48098  1
 Yb  Yb1  1  0.58546  0.58546  0.58546  1
 Yb  Yb2  1  0.08546  0.08546  0.08546  1
 Yb  Yb3  1  0.23100  0.73100  0.87651  1
 Yb  Yb4  1  0.73100  0.87651  0.23100  1
 Yb  Yb5  1  0.87651  0.23100  0.73100  1
 Yb  Yb6  1  0.73100  0.37651  0.23100  1
 Yb  Yb7  1  0.23100  0.73100  0.37651  1
 Yb  Yb8  1  0.37651  0.23100  0.73100  1
