CIF file written using JARVIS-Tools package.
data_Li2FeOF3
_symmetry_space_group_name_H-M  'C2/m'
_cell_length_a       5.8863
_cell_length_b       5.94497
_cell_length_c       5.83493
_cell_angle_alpha    120.323
_cell_angle_beta     90
_cell_angle_gamma    60.3259

_symmetry_Int_Tables_number  12
_chemical_formula_structural  Li2FeOF3
_chemical_formula_sum  Li4Fe2O2F6
_cell_volume  144.3835266953255
_cell_formula_units_Z  2
loop_
  _symmetry_equiv_pos_site_id
 _symmetry_equiv_pos_as_xyz
 1  'x, y, z'
loop_
 _atom_site_type_symbol
 _atom_site_label
 _atom_site_symmetry_multiplicity
 _atom_site_fract_x
 _atom_site_fract_y
 _atom_site_fract_z
 _atom_site_fract_occupancy
 F  F1  1  0.75640  0.98720  0.75130  1
 F  F2  1  0.22743  0.51849  0.26248  1
 F  F3  1  0.75408  0.51849  0.26248  1
 F  F4  1  0.24592  0.48151  0.73752  1
 F  F5  1  0.77257  0.48151  0.73752  1
 F  F6  1  0.24360  0.01280  0.24870  1
 Fe  Fe1  1  -0.00000  0.00000  0.50000  1
 Fe  Fe2  1  0.50000  0.00000  0.50000  1
 Li  Li1  1  0.37830  0.74340  0.84459  1
 Li  Li2  1  -0.00000  0.50000  0.50000  1
 Li  Li3  1  0.00000  0.50000  -0.00000  1
 Li  Li4  1  0.62170  0.25660  0.15541  1
 O  O1  1  0.75328  0.99343  0.29785  1
 O  O2  1  0.24672  0.00657  0.70215  1
