CIF file written using JARVIS-Tools package.
data_Ba2SrI6
_symmetry_space_group_name_H-M  'P-62m'
_cell_length_a       9.16223
_cell_length_b       9.16218
_cell_length_c       4.96858
_cell_angle_alpha    90
_cell_angle_beta     90
_cell_angle_gamma    120

_symmetry_Int_Tables_number  189
_chemical_formula_structural  Ba2SrI6
_chemical_formula_sum  Ba2SrI6
_cell_volume  361.2133241232915
_cell_formula_units_Z  1
loop_
  _symmetry_equiv_pos_site_id
 _symmetry_equiv_pos_as_xyz
 1  'x, y, z'
loop_
 _atom_site_type_symbol
 _atom_site_label
 _atom_site_symmetry_multiplicity
 _atom_site_fract_x
 _atom_site_fract_y
 _atom_site_fract_z
 _atom_site_fract_occupancy
 Ba  Ba1  1  0.33333  0.66668  0.50000  1
 Ba  Ba2  1  0.66667  0.33334  0.50000  1
 I  I1  1  0.00000  0.59361  0.00000  1
 I  I2  1  -0.00000  0.25022  0.50000  1
 I  I3  1  0.40641  0.40642  0.00000  1
 I  I4  1  0.25021  0.00001  0.50000  1
 I  I5  1  0.74979  0.74980  0.50000  1
 I  I6  1  0.59359  0.00001  0.00000  1
 Sr  Sr1  1  -0.00000  0.00001  0.00000  1
