CIF file written using JARVIS-Tools package.
data_BeGePb
_symmetry_space_group_name_H-M  'I4mm'
_cell_length_a       6.46519
_cell_length_b       6.46519
_cell_length_c       6.46519
_cell_angle_alpha    151.407
_cell_angle_beta     151.407
_cell_angle_gamma    40.8799

_symmetry_Int_Tables_number  107
_chemical_formula_structural  BeGePb
_chemical_formula_sum  BeGePb
_cell_volume  61.7653378853537
_cell_formula_units_Z  1
loop_
  _symmetry_equiv_pos_site_id
 _symmetry_equiv_pos_as_xyz
 1  'x, y, z'
loop_
 _atom_site_type_symbol
 _atom_site_label
 _atom_site_symmetry_multiplicity
 _atom_site_fract_x
 _atom_site_fract_y
 _atom_site_fract_z
 _atom_site_fract_occupancy
 Be  Be1  1  0.97147  0.97147  -0.00000  1
 Ge  Ge1  1  0.38010  0.38010  0.00000  1
 Pb  Pb1  1  0.64843  0.64843  -0.00000  1
