CIF file written using JARVIS-Tools package.
data_Zn3N2
_symmetry_space_group_name_H-M  'P6_3/mmc'
_cell_length_a       3.40063
_cell_length_b       5.89064
_cell_length_c       12.0437
_cell_angle_alpha    90
_cell_angle_beta     90
_cell_angle_gamma    90

_symmetry_Int_Tables_number  194
_chemical_formula_structural  Zn3N2
_chemical_formula_sum  Zn2N8
_cell_volume  241.25739853775784
_cell_formula_units_Z  4
loop_
  _symmetry_equiv_pos_site_id
 _symmetry_equiv_pos_as_xyz
 1  'x, y, z'
loop_
 _atom_site_type_symbol
 _atom_site_label
 _atom_site_symmetry_multiplicity
 _atom_site_fract_x
 _atom_site_fract_y
 _atom_site_fract_z
 _atom_site_fract_occupancy
 N  N1  1  0.25000  0.75000  0.00000  1
 N  N2  1  0.25000  0.08339  0.25000  1
 N  N3  1  0.75000  0.25000  0.50000  1
 N  N4  1  0.75000  0.91661  0.75000  1
 N  N5  1  0.75000  0.25000  -0.00000  1
 N  N6  1  0.75000  0.58339  0.25000  1
 N  N7  1  0.25000  0.75000  0.50000  1
 N  N8  1  0.25000  0.41661  0.75000  1
 Zn  Zn1  1  0.75000  0.91665  0.92080  1
 Zn  Zn2  1  0.75000  0.91666  0.57920  1
 Zn  Zn3  1  0.75000  0.58334  0.07920  1
 Zn  Zn4  1  0.75000  0.24993  0.75001  1
 Zn  Zn5  1  0.25000  0.74993  0.74999  1
 Zn  Zn6  1  0.25000  0.08335  0.07920  1
 Zn  Zn7  1  0.25000  0.41666  0.92080  1
 Zn  Zn8  1  0.25000  0.75007  0.24999  1
 Zn  Zn9  1  0.25000  0.41665  0.57920  1
 Zn  Zn10  1  0.25000  0.08334  0.42080  1
 Zn  Zn11  1  0.75000  0.58335  0.42080  1
 Zn  Zn12  1  0.75000  0.25007  0.25001  1
