CIF file written using JARVIS-Tools package.
data_Fe2Cu6SnS8
_symmetry_space_group_name_H-M  'P-4m2'
_cell_length_a       5.19241
_cell_length_b       7.62554
_cell_length_c       7.62554
_cell_angle_alpha    90
_cell_angle_beta     90
_cell_angle_gamma    90

_symmetry_Int_Tables_number  115
_chemical_formula_structural  Fe2Cu6SnS8
_chemical_formula_sum  Fe2Cu6SnS8
_cell_volume  301.93308782352983
_cell_formula_units_Z  1
loop_
  _symmetry_equiv_pos_site_id
 _symmetry_equiv_pos_as_xyz
 1  'x, y, z'
loop_
 _atom_site_type_symbol
 _atom_site_label
 _atom_site_symmetry_multiplicity
 _atom_site_fract_x
 _atom_site_fract_y
 _atom_site_fract_z
 _atom_site_fract_occupancy
 Cu  Cu1  1  0.50000  0.74587  0.74587  1
 Cu  Cu2  1  0.00951  0.00000  0.50000  1
 Cu  Cu3  1  0.50000  0.74587  0.25413  1
 Cu  Cu4  1  0.50000  0.25413  0.25413  1
 Cu  Cu5  1  0.50000  0.25413  0.74587  1
 Cu  Cu6  1  0.99049  0.50000  0.00000  1
 Fe  Fe1  1  0.50000  0.50000  0.50000  1
 Fe  Fe2  1  0.00000  0.50000  0.50000  1
 S  S1  1  0.23880  0.26947  0.50000  1
 S  S2  1  0.23880  0.73053  0.50000  1
 S  S3  1  0.76120  0.50000  0.26947  1
 S  S4  1  0.76120  0.50000  0.73053  1
 S  S5  1  0.73702  0.00000  0.26717  1
 S  S6  1  0.73702  0.00000  0.73283  1
 S  S7  1  0.26298  0.73283  0.00000  1
 S  S8  1  0.26298  0.26717  0.00000  1
 Sn  Sn1  1  0.00000  0.00000  0.00000  1
