CIF file written using JARVIS-Tools package.
data_Ba2CdSe3
_symmetry_space_group_name_H-M  'Pnma'
_cell_length_a       4.52897
_cell_length_b       9.32002
_cell_length_c       18.0399
_cell_angle_alpha    90
_cell_angle_beta     90
_cell_angle_gamma    90

_symmetry_Int_Tables_number  62
_chemical_formula_structural  Ba2CdSe3
_chemical_formula_sum  Ba8Cd4Se2
_cell_volume  761.4671828977108
_cell_formula_units_Z  4
loop_
  _symmetry_equiv_pos_site_id
 _symmetry_equiv_pos_as_xyz
 1  'x, y, z'
loop_
 _atom_site_type_symbol
 _atom_site_label
 _atom_site_symmetry_multiplicity
 _atom_site_fract_x
 _atom_site_fract_y
 _atom_site_fract_z
 _atom_site_fract_occupancy
 Ba  Ba1  1  0.75000  0.57522  0.28546  1
 Ba  Ba2  1  0.75000  0.07522  0.21454  1
 Ba  Ba3  1  0.25000  0.92478  0.78546  1
 Ba  Ba4  1  0.75000  0.74082  0.53970  1
 Ba  Ba5  1  0.25000  0.75918  0.03970  1
 Ba  Ba6  1  0.75000  0.24082  0.96030  1
 Ba  Ba7  1  0.25000  0.25918  0.46030  1
 Ba  Ba8  1  0.25000  0.42478  0.71454  1
 Cd  Cd1  1  0.75000  0.12551  0.63355  1
 Cd  Cd2  1  0.75000  0.62551  0.86645  1
 Cd  Cd3  1  0.25000  0.87449  0.36645  1
 Cd  Cd4  1  0.25000  0.37449  0.13355  1
 Se  Se1  1  0.25000  0.31032  0.27790  1
 Se  Se2  1  0.25000  0.48514  0.90421  1
 Se  Se3  1  0.75000  0.18968  0.77790  1
 Se  Se4  1  0.25000  0.81032  0.22210  1
 Se  Se5  1  0.75000  0.68968  0.72210  1
 Se  Se6  1  0.25000  0.11523  0.07197  1
 Se  Se7  1  0.75000  0.38477  0.57197  1
 Se  Se8  1  0.25000  0.61523  0.42803  1
 Se  Se9  1  0.75000  0.01486  0.40421  1
 Se  Se10  1  0.25000  0.98514  0.59579  1
 Se  Se11  1  0.75000  0.51486  0.09579  1
 Se  Se12  1  0.75000  0.88477  0.92803  1
