CIF file written using JARVIS-Tools package.
data_Th3Pt5
_symmetry_space_group_name_H-M  'P-62m'
_cell_length_a       3.62162
_cell_length_b       7.72773
_cell_length_c       7.7279
_cell_angle_alpha    119.999
_cell_angle_beta     90
_cell_angle_gamma    90

_symmetry_Int_Tables_number  189
_chemical_formula_structural  Th3Pt5
_chemical_formula_sum  Th3Pt5
_cell_volume  187.30511421350647
_cell_formula_units_Z  1
loop_
  _symmetry_equiv_pos_site_id
 _symmetry_equiv_pos_as_xyz
 1  'x, y, z'
loop_
 _atom_site_type_symbol
 _atom_site_label
 _atom_site_symmetry_multiplicity
 _atom_site_fract_x
 _atom_site_fract_y
 _atom_site_fract_z
 _atom_site_fract_occupancy
 Pt  Pt1  1  0.00000  0.33332  0.66666  1
 Pt  Pt2  1  0.00000  0.66667  0.33334  1
 Pt  Pt3  1  0.50000  0.33499  0.00000  1
 Pt  Pt4  1  0.50000  0.66499  0.66500  1
 Pt  Pt5  1  0.50000  -0.00002  0.33500  1
 Th  Th1  1  0.00000  0.72189  0.00000  1
 Th  Th2  1  0.00000  0.27808  0.27809  1
 Th  Th3  1  0.00000  -0.00001  0.72191  1
