CIF file written using JARVIS-Tools package.
data_CrPPd
_symmetry_space_group_name_H-M  'Amm2'
_cell_length_a       3.67483
_cell_length_b       5.93282
_cell_length_c       6.37782
_cell_angle_alpha    117.718
_cell_angle_beta     90
_cell_angle_gamma    90

_symmetry_Int_Tables_number  38
_chemical_formula_structural  CrPPd
_chemical_formula_sum  Cr3P3Pd3
_cell_volume  123.09398488411637
_cell_formula_units_Z  3
loop_
  _symmetry_equiv_pos_site_id
 _symmetry_equiv_pos_as_xyz
 1  'x, y, z'
loop_
 _atom_site_type_symbol
 _atom_site_label
 _atom_site_symmetry_multiplicity
 _atom_site_fract_x
 _atom_site_fract_y
 _atom_site_fract_z
 _atom_site_fract_occupancy
 Cr  Cr1  1  0.50000  0.58655  -0.00000  1
 Cr  Cr2  1  0.50000  0.42739  0.36427  1
 Cr  Cr3  1  0.50000  0.06312  0.63573  1
 P  P1  1  0.00000  0.31873  0.67150  1
 P  P2  1  0.00000  0.64723  0.32850  1
 P  P3  1  0.50000  0.98705  -0.00000  1
 Pd  Pd1  1  0.00000  0.24818  -0.00000  1
 Pd  Pd2  1  0.00000  0.72380  0.72594  1
 Pd  Pd3  1  0.00000  -0.00214  0.27406  1
