CIF file written using JARVIS-Tools package.
data_EuAs3
_symmetry_space_group_name_H-M  'P-1'
_cell_length_a       5.48375
_cell_length_b       5.92158
_cell_length_c       6.98627
_cell_angle_alpha    92.6719
_cell_angle_beta     124.874
_cell_angle_gamma    75.3061

_symmetry_Int_Tables_number  2
_chemical_formula_structural  EuAs3
_chemical_formula_sum  Eu2As6
_cell_volume  178.64323605484088
_cell_formula_units_Z  2
loop_
  _symmetry_equiv_pos_site_id
 _symmetry_equiv_pos_as_xyz
 1  'x, y, z'
loop_
 _atom_site_type_symbol
 _atom_site_label
 _atom_site_symmetry_multiplicity
 _atom_site_fract_x
 _atom_site_fract_y
 _atom_site_fract_z
 _atom_site_fract_occupancy
 As  As1  1  0.77531  0.01020  0.01008  1
 As  As2  1  0.22469  0.98980  0.98992  1
 As  As3  1  0.64787  0.83297  0.42864  1
 As  As4  1  0.35213  0.16703  0.57136  1
 As  As5  1  0.94898  0.57113  0.16810  1
 As  As6  1  0.05102  0.42887  0.83190  1
 Eu  Eu1  1  0.35275  0.67456  0.67550  1
 Eu  Eu2  1  0.64725  0.32544  0.32450  1
