CIF file written using JARVIS-Tools package.
data_LiFeF3
_symmetry_space_group_name_H-M  'Pnma'
_cell_length_a       4.92565
_cell_length_b       5.26516
_cell_length_c       7.82313
_cell_angle_alpha    90
_cell_angle_beta     90
_cell_angle_gamma    90

_symmetry_Int_Tables_number  62
_chemical_formula_structural  LiFeF3
_chemical_formula_sum  Li4Fe4F2
_cell_volume  202.887965151694
_cell_formula_units_Z  4
loop_
  _symmetry_equiv_pos_site_id
 _symmetry_equiv_pos_as_xyz
 1  'x, y, z'
loop_
 _atom_site_type_symbol
 _atom_site_label
 _atom_site_symmetry_multiplicity
 _atom_site_fract_x
 _atom_site_fract_y
 _atom_site_fract_z
 _atom_site_fract_occupancy
 F  F1  1  0.69777  0.29791  0.41634  1
 F  F2  1  0.16267  0.42472  0.25000  1
 F  F3  1  0.80223  0.79791  0.41634  1
 F  F4  1  0.19777  0.20209  0.91634  1
 F  F5  1  0.30223  0.70209  0.91634  1
 F  F6  1  0.19777  0.20209  0.58366  1
 F  F7  1  0.33733  0.92472  0.25000  1
 F  F8  1  0.66267  0.07528  0.75000  1
 F  F9  1  0.69777  0.29791  0.08366  1
 F  F10  1  0.83733  0.57528  0.75000  1
 F  F11  1  0.80223  0.79791  0.08366  1
 F  F12  1  0.30223  0.70209  0.58366  1
 Fe  Fe1  1  0.95731  0.07620  0.25000  1
 Fe  Fe2  1  0.54269  0.57620  0.25000  1
 Fe  Fe3  1  0.45731  0.42380  0.75000  1
 Fe  Fe4  1  0.04269  0.92380  0.75000  1
 Li  Li1  1  0.50000  0.00000  0.00000  1
 Li  Li2  1  0.50000  0.00000  0.50000  1
 Li  Li3  1  0.00000  0.50000  0.50000  1
 Li  Li4  1  0.00000  0.50000  0.00000  1
