CIF file written using JARVIS-Tools package.
data_Te2W3S4
_symmetry_space_group_name_H-M  'P-6m2'
_cell_length_a       3.3053
_cell_length_b       3.3053
_cell_length_c       29.3192
_cell_angle_alpha    90
_cell_angle_beta     90
_cell_angle_gamma    120

_symmetry_Int_Tables_number  187
_chemical_formula_structural  Te2W3S4
_chemical_formula_sum  Te2W3S4
_cell_volume  277.39901532010214
_cell_formula_units_Z  1
loop_
  _symmetry_equiv_pos_site_id
 _symmetry_equiv_pos_as_xyz
 1  'x, y, z'
loop_
 _atom_site_type_symbol
 _atom_site_label
 _atom_site_symmetry_multiplicity
 _atom_site_fract_x
 _atom_site_fract_y
 _atom_site_fract_z
 _atom_site_fract_occupancy
 S  S1  1  0.66668  0.33337  0.06328  1
 S  S2  1  0.66669  0.33338  0.52591  1
 S  S3  1  0.66669  0.33338  0.16805  1
 S  S4  1  0.66668  0.33337  0.63068  1
 Te  Te1  1  0.33327  0.66655  0.41278  1
 Te  Te2  1  0.33327  0.66655  0.28118  1
 W  W1  1  0.33335  0.66670  0.11563  1
 W  W2  1  0.33335  0.66670  0.57834  1
 W  W3  1  0.66661  0.33321  0.34698  1
