CIF file written using JARVIS-Tools package.
data_Li5MnCr3O8
_symmetry_space_group_name_H-M  'R-3m'
_cell_length_a       5.87545
_cell_length_b       5.87546
_cell_length_c       5.87545
_cell_angle_alpha    119.766
_cell_angle_beta     119.766
_cell_angle_gamma    60.2344

_symmetry_Int_Tables_number  166
_chemical_formula_structural  Li5MnCr3O8
_chemical_formula_sum  Li5MnCr3O8
_cell_volume  144.18057352285842
_cell_formula_units_Z  1
loop_
  _symmetry_equiv_pos_site_id
 _symmetry_equiv_pos_as_xyz
 1  'x, y, z'
loop_
 _atom_site_type_symbol
 _atom_site_label
 _atom_site_symmetry_multiplicity
 _atom_site_fract_x
 _atom_site_fract_y
 _atom_site_fract_z
 _atom_site_fract_occupancy
 Cr  Cr1  1  0.50000  0.50000  0.00000  1
 Cr  Cr2  1  0.50000  -0.00000  0.50000  1
 Cr  Cr3  1  -0.00000  0.50000  0.50000  1
 Li  Li1  1  1.00000  1.00000  0.50000  1
 Li  Li2  1  0.93037  0.93037  0.06963  1
 Li  Li3  1  0.50000  1.00000  0.00000  1
 Li  Li4  1  1.00000  0.50000  0.00000  1
 Li  Li5  1  0.06963  0.06963  0.93037  1
 Mn  Mn1  1  0.50000  0.50000  0.50000  1
 O  O1  1  0.25846  0.25846  0.27081  1
 O  O2  1  0.72919  0.25846  0.74154  1
 O  O3  1  0.74400  0.74400  0.25600  1
 O  O4  1  0.27081  0.74154  0.25846  1
 O  O5  1  0.74154  0.74154  0.72919  1
 O  O6  1  0.74154  0.27081  0.25846  1
 O  O7  1  0.25846  0.72919  0.74154  1
 O  O8  1  0.25600  0.25600  0.74400  1
