CIF file written using JARVIS-Tools package.
data_ZrTe5
_symmetry_space_group_name_H-M  'Cmcm'
_cell_length_a       4.03665
_cell_length_b       7.66051
_cell_length_c       13.8558
_cell_angle_alpha    90
_cell_angle_beta     90
_cell_angle_gamma    105.276

_symmetry_Int_Tables_number  63
_chemical_formula_structural  ZrTe5
_chemical_formula_sum  Zr2Te0
_cell_volume  413.3222892887419
_cell_formula_units_Z  2
loop_
  _symmetry_equiv_pos_site_id
 _symmetry_equiv_pos_as_xyz
 1  'x, y, z'
loop_
 _atom_site_type_symbol
 _atom_site_label
 _atom_site_symmetry_multiplicity
 _atom_site_fract_x
 _atom_site_fract_y
 _atom_site_fract_z
 _atom_site_fract_occupancy
 Te  Te1  1  0.66419  0.32837  0.75000  1
 Te  Te2  1  0.33581  0.67163  0.25000  1
 Te  Te3  1  0.92979  0.85957  0.85079  1
 Te  Te4  1  0.07021  0.14043  0.14921  1
 Te  Te5  1  0.07021  0.14043  0.35079  1
 Te  Te6  1  0.92979  0.85957  0.64921  1
 Te  Te7  1  0.20923  0.41847  0.56520  1
 Te  Te8  1  0.79077  0.58153  0.43480  1
 Te  Te9  1  0.79077  0.58153  0.06520  1
 Te  Te10  1  0.20923  0.41847  0.93480  1
 Zr  Zr1  1  0.31548  0.63096  0.75000  1
 Zr  Zr2  1  0.68452  0.36904  0.25000  1
