CIF file written using JARVIS-Tools package.
data_BeSiRh
_symmetry_space_group_name_H-M  'I4mm'
_cell_length_a       4.33692
_cell_length_b       4.33692
_cell_length_c       4.33692
_cell_angle_alpha    138.74
_cell_angle_beta     138.74
_cell_angle_gamma    59.7714

_symmetry_Int_Tables_number  107
_chemical_formula_structural  BeSiRh
_chemical_formula_sum  BeSiRh
_cell_volume  35.11859721907999
_cell_formula_units_Z  1
loop_
  _symmetry_equiv_pos_site_id
 _symmetry_equiv_pos_as_xyz
 1  'x, y, z'
loop_
 _atom_site_type_symbol
 _atom_site_label
 _atom_site_symmetry_multiplicity
 _atom_site_fract_x
 _atom_site_fract_y
 _atom_site_fract_z
 _atom_site_fract_occupancy
 Be  Be1  1  0.99958  0.99958  -0.00000  1
 Rh  Rh1  1  0.33481  0.33481  -0.00000  1
 Si  Si1  1  0.66561  0.66561  0.00000  1
