CIF file written using JARVIS-Tools package.
data_CaBePt
_symmetry_space_group_name_H-M  'I4mm'
_cell_length_a       5.59071
_cell_length_b       5.59071
_cell_length_c       5.59071
_cell_angle_alpha    146.63
_cell_angle_beta     146.63
_cell_angle_gamma    47.9114

_symmetry_Int_Tables_number  107
_chemical_formula_structural  CaBePt
_chemical_formula_sum  CaBePt
_cell_volume  52.65308253527937
_cell_formula_units_Z  1
loop_
  _symmetry_equiv_pos_site_id
 _symmetry_equiv_pos_as_xyz
 1  'x, y, z'
loop_
 _atom_site_type_symbol
 _atom_site_label
 _atom_site_symmetry_multiplicity
 _atom_site_fract_x
 _atom_site_fract_y
 _atom_site_fract_z
 _atom_site_fract_occupancy
 Be  Be1  1  0.05140  0.05140  0.00000  1
 Ca  Ca1  1  0.32902  0.32902  0.00000  1
 Pt  Pt1  1  0.61958  0.61958  -0.00000  1
