CIF file written using JARVIS-Tools package.
data_TiSe
_symmetry_space_group_name_H-M  'R-3m'
_cell_length_a       3.58711
_cell_length_b       3.58711
_cell_length_c       13.0168
_cell_angle_alpha    82.0802
_cell_angle_beta     82.0802
_cell_angle_gamma    60.0001

_symmetry_Int_Tables_number  166
_chemical_formula_structural  TiSe
_chemical_formula_sum  Ti4Se4
_cell_volume  143.20541845939437
_cell_formula_units_Z  4
loop_
  _symmetry_equiv_pos_site_id
 _symmetry_equiv_pos_as_xyz
 1  'x, y, z'
loop_
 _atom_site_type_symbol
 _atom_site_label
 _atom_site_symmetry_multiplicity
 _atom_site_fract_x
 _atom_site_fract_y
 _atom_site_fract_z
 _atom_site_fract_occupancy
 Se  Se1  1  0.20809  0.20809  0.37573  1
 Se  Se2  1  0.79191  0.79191  0.62427  1
 Se  Se3  1  0.37523  0.37523  0.87430  1
 Se  Se4  1  0.62477  0.62477  0.12570  1
 Ti  Ti1  1  0.00000  0.00000  0.00000  1
 Ti  Ti2  1  0.50000  0.50000  0.50000  1
 Ti  Ti3  1  0.08431  0.08431  0.74708  1
 Ti  Ti4  1  0.91569  0.91569  0.25292  1
