CIF file written using JARVIS-Tools package.
data_UCo
_symmetry_space_group_name_H-M  'I2_13'
_cell_length_a       5.47018
_cell_length_b       5.47018
_cell_length_c       5.47018
_cell_angle_alpha    109.471
_cell_angle_beta     109.471
_cell_angle_gamma    109.471

_symmetry_Int_Tables_number  199
_chemical_formula_structural  UCo
_chemical_formula_sum  U4Co4
_cell_volume  126.00303301277985
_cell_formula_units_Z  4
loop_
  _symmetry_equiv_pos_site_id
 _symmetry_equiv_pos_as_xyz
 1  'x, y, z'
loop_
 _atom_site_type_symbol
 _atom_site_label
 _atom_site_symmetry_multiplicity
 _atom_site_fract_x
 _atom_site_fract_y
 _atom_site_fract_z
 _atom_site_fract_occupancy
 Co  Co1  1  0.09343  -0.00000  0.50000  1
 Co  Co2  1  0.50000  0.09343  0.00000  1
 Co  Co3  1  0.00000  0.50000  0.09343  1
 Co  Co4  1  0.40657  0.40657  0.40657  1
 U  U1  1  0.56943  0.00000  0.50000  1
 U  U2  1  0.50000  0.56943  -0.00000  1
 U  U3  1  -0.00000  0.50000  0.56943  1
 U  U4  1  0.93057  0.93057  0.93057  1
