CIF file written using JARVIS-Tools package.
data_Zr3As2
_symmetry_space_group_name_H-M  'Pnma'
_cell_length_a       3.77172
_cell_length_b       10.1909
_cell_length_c       10.6131
_cell_angle_alpha    90
_cell_angle_beta     90
_cell_angle_gamma    90

_symmetry_Int_Tables_number  62
_chemical_formula_structural  Zr3As2
_chemical_formula_sum  Zr2As8
_cell_volume  407.93957694337945
_cell_formula_units_Z  4
loop_
  _symmetry_equiv_pos_site_id
 _symmetry_equiv_pos_as_xyz
 1  'x, y, z'
loop_
 _atom_site_type_symbol
 _atom_site_label
 _atom_site_symmetry_multiplicity
 _atom_site_fract_x
 _atom_site_fract_y
 _atom_site_fract_z
 _atom_site_fract_occupancy
 As  As1  1  0.25000  0.50089  0.69429  1
 As  As2  1  0.25000  0.99911  0.19429  1
 As  As3  1  0.75000  0.81988  0.47215  1
 As  As4  1  0.25000  0.31988  0.02785  1
 As  As5  1  0.25000  0.18012  0.52785  1
 As  As6  1  0.75000  0.68012  0.97215  1
 As  As7  1  0.75000  0.00089  0.80571  1
 As  As8  1  0.75000  0.49911  0.30571  1
 Zr  Zr1  1  0.75000  0.06730  0.37635  1
 Zr  Zr2  1  0.25000  0.62479  0.45500  1
 Zr  Zr3  1  0.75000  0.12479  0.04500  1
 Zr  Zr4  1  0.25000  0.56730  0.12365  1
 Zr  Zr5  1  0.25000  0.29473  0.28470  1
 Zr  Zr6  1  0.75000  0.43270  0.87635  1
 Zr  Zr7  1  0.25000  0.93270  0.62365  1
 Zr  Zr8  1  0.75000  0.79473  0.21530  1
 Zr  Zr9  1  0.25000  0.20527  0.78470  1
 Zr  Zr10  1  0.75000  0.70527  0.71530  1
 Zr  Zr11  1  0.75000  0.37521  0.54500  1
 Zr  Zr12  1  0.25000  0.87521  0.95500  1
