CIF file written using JARVIS-Tools package.
data_Li2Fe3F8
_symmetry_space_group_name_H-M  'R-3m'
_cell_length_a       5.81475
_cell_length_b       6.13787
_cell_length_c       5.81475
_cell_angle_alpha    118.273
_cell_angle_beta     59.9999
_cell_angle_gamma    118.273

_symmetry_Int_Tables_number  166
_chemical_formula_structural  Li2Fe3F8
_chemical_formula_sum  Li2Fe3F8
_cell_volume  150.45933018002648
_cell_formula_units_Z  1
loop_
  _symmetry_equiv_pos_site_id
 _symmetry_equiv_pos_as_xyz
 1  'x, y, z'
loop_
 _atom_site_type_symbol
 _atom_site_label
 _atom_site_symmetry_multiplicity
 _atom_site_fract_x
 _atom_site_fract_y
 _atom_site_fract_z
 _atom_site_fract_occupancy
 F  F1  1  0.09052  0.75994  0.09052  1
 F  F2  1  0.09052  0.75994  0.57890  1
 F  F3  1  0.57890  0.75994  0.09052  1
 F  F4  1  0.58696  0.76089  0.58696  1
 F  F5  1  0.41304  0.23911  0.41304  1
 F  F6  1  0.42110  0.24006  0.90948  1
 F  F7  1  0.90948  0.24006  0.42110  1
 F  F8  1  0.90948  0.24006  0.90948  1
 Fe  Fe1  1  -0.00000  0.00000  0.50000  1
 Fe  Fe2  1  0.50000  0.00000  0.00000  1
 Fe  Fe3  1  0.50000  0.00000  0.50000  1
 Li  Li1  1  0.14170  0.42509  0.14170  1
 Li  Li2  1  0.85830  0.57491  0.85830  1
