CIF file written using JARVIS-Tools package.
data_NaBe2Pd
_symmetry_space_group_name_H-M  'P4mm'
_cell_length_a       2.86555
_cell_length_b       2.86555
_cell_length_c       6.89375
_cell_angle_alpha    90
_cell_angle_beta     90
_cell_angle_gamma    90

_symmetry_Int_Tables_number  99
_chemical_formula_structural  NaBe2Pd
_chemical_formula_sum  NaBe2Pd
_cell_volume  56.607153688725305
_cell_formula_units_Z  1
loop_
  _symmetry_equiv_pos_site_id
 _symmetry_equiv_pos_as_xyz
 1  'x, y, z'
loop_
 _atom_site_type_symbol
 _atom_site_label
 _atom_site_symmetry_multiplicity
 _atom_site_fract_x
 _atom_site_fract_y
 _atom_site_fract_z
 _atom_site_fract_occupancy
 Be  Be1  1  0.00000  0.00000  0.00991  1
 Be  Be2  1  0.50000  0.50000  0.16281  1
 Na  Na1  1  0.00000  0.00000  0.49699  1
 Pd  Pd1  1  0.50000  0.50000  0.83029  1
