CIF file written using JARVIS-Tools package.
data_AgTe2Au
_symmetry_space_group_name_H-M  'Pmma'
_cell_length_a       4.42047
_cell_length_b       5.34131
_cell_length_c       8.92349
_cell_angle_alpha    90
_cell_angle_beta     90.0031
_cell_angle_gamma    90

_symmetry_Int_Tables_number  51
_chemical_formula_structural  AgTe2Au
_chemical_formula_sum  Ag2Te4Au2
_cell_volume  210.69364079625035
_cell_formula_units_Z  2
loop_
  _symmetry_equiv_pos_site_id
 _symmetry_equiv_pos_as_xyz
 1  'x, y, z'
loop_
 _atom_site_type_symbol
 _atom_site_label
 _atom_site_symmetry_multiplicity
 _atom_site_fract_x
 _atom_site_fract_y
 _atom_site_fract_z
 _atom_site_fract_occupancy
 Ag  Ag1  1  0.50000  0.50000  -0.00000  1
 Ag  Ag2  1  0.50000  0.50000  0.50000  1
 Au  Au1  1  0.00000  0.00000  0.50000  1
 Au  Au2  1  0.00000  0.00000  0.00000  1
 Te  Te1  1  0.15464  0.50000  0.75000  1
 Te  Te2  1  0.84536  0.50000  0.25000  1
 Te  Te3  1  0.33664  0.00000  0.25000  1
 Te  Te4  1  0.66336  0.00000  0.75000  1
