CIF file written using JARVIS-Tools package.
data_TbNiGe2
_symmetry_space_group_name_H-M  'Cmcm'
_cell_length_a       4.21438
_cell_length_b       4.10794
_cell_length_c       8.5887
_cell_angle_alpha    103.836
_cell_angle_beta     90
_cell_angle_gamma    90

_symmetry_Int_Tables_number  63
_chemical_formula_structural  TbNiGe2
_chemical_formula_sum  Tb2Ni2Ge4
_cell_volume  144.3765013895432
_cell_formula_units_Z  2
loop_
  _symmetry_equiv_pos_site_id
 _symmetry_equiv_pos_as_xyz
 1  'x, y, z'
loop_
 _atom_site_type_symbol
 _atom_site_label
 _atom_site_symmetry_multiplicity
 _atom_site_fract_x
 _atom_site_fract_y
 _atom_site_fract_z
 _atom_site_fract_occupancy
 Ge  Ge1  1  0.75000  0.45899  0.91797  1
 Ge  Ge2  1  0.25000  0.25183  0.50367  1
 Ge  Ge3  1  0.25000  0.54101  0.08203  1
 Ge  Ge4  1  0.75000  0.74817  0.49633  1
 Ni  Ni1  1  0.75000  0.32129  0.64258  1
 Ni  Ni2  1  0.25000  0.67871  0.35742  1
 Tb  Tb1  1  0.75000  0.10821  0.21642  1
 Tb  Tb2  1  0.25000  0.89179  0.78358  1
