CIF file written using JARVIS-Tools package.
data_ErZrSb
_symmetry_space_group_name_H-M  'I4/mmm'
_cell_length_a       4.25126
_cell_length_b       4.25126
_cell_length_c       8.76687
_cell_angle_alpha    104.032
_cell_angle_beta     104.032
_cell_angle_gamma    90

_symmetry_Int_Tables_number  139
_chemical_formula_structural  ErZrSb
_chemical_formula_sum  Er2Zr2Sb2
_cell_volume  148.83935946612732
_cell_formula_units_Z  2
loop_
  _symmetry_equiv_pos_site_id
 _symmetry_equiv_pos_as_xyz
 1  'x, y, z'
loop_
 _atom_site_type_symbol
 _atom_site_label
 _atom_site_symmetry_multiplicity
 _atom_site_fract_x
 _atom_site_fract_y
 _atom_site_fract_z
 _atom_site_fract_occupancy
 Er  Er1  1  0.67595  0.67595  0.35190  1
 Er  Er2  1  0.32405  0.32405  0.64810  1
 Sb  Sb1  1  0.13559  0.13559  0.27119  1
 Sb  Sb2  1  0.86441  0.86441  0.72881  1
 Zr  Zr1  1  0.00000  0.50000  0.00000  1
 Zr  Zr2  1  0.50000  -0.00000  -0.00000  1
