CIF file written using JARVIS-Tools package.
data_VOF3
_symmetry_space_group_name_H-M  'Pnc2'
_cell_length_a       4.60013
_cell_length_b       4.84565
_cell_length_c       12.6035
_cell_angle_alpha    90
_cell_angle_beta     90
_cell_angle_gamma    90

_symmetry_Int_Tables_number  30
_chemical_formula_structural  VOF3
_chemical_formula_sum  V4O4F2
_cell_volume  280.9402369888837
_cell_formula_units_Z  4
loop_
  _symmetry_equiv_pos_site_id
 _symmetry_equiv_pos_as_xyz
 1  'x, y, z'
loop_
 _atom_site_type_symbol
 _atom_site_label
 _atom_site_symmetry_multiplicity
 _atom_site_fract_x
 _atom_site_fract_y
 _atom_site_fract_z
 _atom_site_fract_occupancy
 F  F1  1  0.77939  0.79723  0.43791  1
 F  F2  1  0.77817  0.16934  0.82896  1
 F  F3  1  0.68387  0.75281  0.19131  1
 F  F4  1  0.22061  0.29723  0.93791  1
 F  F5  1  0.22061  0.20277  0.43791  1
 F  F6  1  0.31613  0.24719  0.19131  1
 F  F7  1  0.77817  0.33066  0.32896  1
 F  F8  1  0.22183  0.66934  0.32896  1
 F  F9  1  0.68387  0.74719  0.69131  1
 F  F10  1  0.22183  0.83066  0.82896  1
 F  F11  1  0.77939  0.70277  0.93791  1
 F  F12  1  0.31613  0.25281  0.69131  1
 O  O1  1  0.24625  0.85206  0.03925  1
 O  O2  1  0.24625  0.64794  0.53925  1
 O  O3  1  0.75375  0.35206  0.53925  1
 O  O4  1  0.75375  0.14794  0.03925  1
 V  V1  1  0.00000  0.50000  0.42068  1
 V  V2  1  0.50000  0.50000  0.61690  1
 V  V3  1  0.00000  0.00000  0.92068  1
 V  V4  1  0.50000  0.00000  0.11690  1
