CIF file written using JARVIS-Tools package.
data_Pr3Al
_symmetry_space_group_name_H-M  'P6_3/mmc'
_cell_length_a       5.44744
_cell_length_b       7.13659
_cell_length_c       7.13659
_cell_angle_alpha    120.001
_cell_angle_beta     90
_cell_angle_gamma    90

_symmetry_Int_Tables_number  194
_chemical_formula_structural  Pr3Al
_chemical_formula_sum  Pr6Al2
_cell_volume  240.27068968375573
_cell_formula_units_Z  2
loop_
  _symmetry_equiv_pos_site_id
 _symmetry_equiv_pos_as_xyz
 1  'x, y, z'
loop_
 _atom_site_type_symbol
 _atom_site_label
 _atom_site_symmetry_multiplicity
 _atom_site_fract_x
 _atom_site_fract_y
 _atom_site_fract_z
 _atom_site_fract_occupancy
 Al  Al1  1  0.75000  0.66667  0.33333  1
 Al  Al2  1  0.25000  0.33333  0.66667  1
 Pr  Pr1  1  0.75000  0.17800  0.35601  1
 Pr  Pr2  1  0.75000  0.17801  0.82199  1
 Pr  Pr3  1  0.75000  0.64399  0.82200  1
 Pr  Pr4  1  0.25000  0.82200  0.64399  1
 Pr  Pr5  1  0.25000  0.82199  0.17801  1
 Pr  Pr6  1  0.25000  0.35601  0.17800  1
