CIF file written using JARVIS-Tools package.
data_Li8Cr3TeO12
_symmetry_space_group_name_H-M  'P2'
_cell_length_a       4.96956
_cell_length_b       8.51384
_cell_length_c       4.97567
_cell_angle_alpha    90
_cell_angle_beta     90.2901
_cell_angle_gamma    90

_symmetry_Int_Tables_number  3
_chemical_formula_structural  Li8Cr3TeO12
_chemical_formula_sum  Li8Cr3TeO2
_cell_volume  210.51808427227988
_cell_formula_units_Z  1
loop_
  _symmetry_equiv_pos_site_id
 _symmetry_equiv_pos_as_xyz
 1  'x, y, z'
loop_
 _atom_site_type_symbol
 _atom_site_label
 _atom_site_symmetry_multiplicity
 _atom_site_fract_x
 _atom_site_fract_y
 _atom_site_fract_z
 _atom_site_fract_occupancy
 Cr  Cr1  1  0.50000  0.40636  0.50000  1
 Cr  Cr2  1  0.50000  0.57064  -0.00000  1
 Cr  Cr3  1  0.00000  0.09747  0.50000  1
 Li  Li1  1  0.00000  0.41660  0.50000  1
 Li  Li2  1  0.00000  0.70685  0.50000  1
 Li  Li3  1  0.50000  0.74517  0.50000  1
 Li  Li4  1  0.50000  0.07944  0.50000  1
 Li  Li5  1  0.00000  0.54867  0.00000  1
 Li  Li6  1  0.00000  0.26401  0.00000  1
 Li  Li7  1  0.50000  0.93182  -0.00000  1
 Li  Li8  1  0.50000  0.24416  -0.00000  1
 O  O1  1  0.27713  0.41427  0.17355  1
 O  O2  1  0.71917  0.56657  0.33134  1
 O  O3  1  0.77669  0.91819  0.32204  1
 O  O4  1  0.74519  0.24645  0.35476  1
 O  O5  1  0.25481  0.24645  0.64524  1
 O  O6  1  0.24182  0.74405  0.15761  1
 O  O7  1  0.28083  0.56657  0.66866  1
 O  O8  1  0.72287  0.41427  0.82645  1
 O  O9  1  0.77916  0.06911  0.83031  1
 O  O10  1  0.75818  0.74405  0.84239  1
 O  O11  1  0.22084  0.06911  0.16969  1
 O  O12  1  0.22331  0.91819  0.67796  1
 Te  Te1  1  0.00000  0.89919  0.00000  1
