CIF file written using JARVIS-Tools package.
data_Mg2GeB2Rh5
_symmetry_space_group_name_H-M  'P4/mbm'
_cell_length_a       9.40287
_cell_length_b       9.40287
_cell_length_c       2.93276
_cell_angle_alpha    90
_cell_angle_beta     90
_cell_angle_gamma    90

_symmetry_Int_Tables_number  127
_chemical_formula_structural  Mg2GeB2Rh5
_chemical_formula_sum  Mg4Ge2B4Rh0
_cell_volume  259.2966163864853
_cell_formula_units_Z  2
loop_
  _symmetry_equiv_pos_site_id
 _symmetry_equiv_pos_as_xyz
 1  'x, y, z'
loop_
 _atom_site_type_symbol
 _atom_site_label
 _atom_site_symmetry_multiplicity
 _atom_site_fract_x
 _atom_site_fract_y
 _atom_site_fract_z
 _atom_site_fract_occupancy
 B  B1  1  0.37487  0.87487  0.00000  1
 B  B2  1  0.62513  0.12513  0.00000  1
 B  B3  1  0.87487  0.62513  0.00000  1
 B  B4  1  0.12513  0.37487  0.00000  1
 Ge  Ge1  1  0.00000  0.00000  0.00000  1
 Ge  Ge2  1  0.50000  0.50000  0.00000  1
 Mg  Mg1  1  0.82562  0.32562  0.00000  1
 Mg  Mg2  1  0.32562  0.17438  0.00000  1
 Mg  Mg3  1  0.17438  0.67438  0.00000  1
 Mg  Mg4  1  0.67438  0.82562  0.00000  1
 Rh  Rh1  1  0.28675  0.42714  0.50000  1
 Rh  Rh2  1  0.50000  0.00000  0.50000  1
 Rh  Rh3  1  0.07286  0.21325  0.50000  1
 Rh  Rh4  1  0.92714  0.78675  0.50000  1
 Rh  Rh5  1  0.21325  0.92714  0.50000  1
 Rh  Rh6  1  0.78675  0.07286  0.50000  1
 Rh  Rh7  1  0.57286  0.28675  0.50000  1
 Rh  Rh8  1  0.42714  0.71325  0.50000  1
 Rh  Rh9  1  0.71325  0.57286  0.50000  1
 Rh  Rh10  1  0.00000  0.50000  0.50000  1
