CIF file written using JARVIS-Tools package.
data_Ca2Si5N8
_symmetry_space_group_name_H-M  'Cc'
_cell_length_a       5.63663
_cell_length_b       7.75234
_cell_length_c       9.74891
_cell_angle_alpha    110.458
_cell_angle_beta     90
_cell_angle_gamma    111.318

_symmetry_Int_Tables_number  9
_chemical_formula_structural  Ca2Si5N8
_chemical_formula_sum  Ca4Si0N6
_cell_volume  367.8609881814562
_cell_formula_units_Z  2
loop_
  _symmetry_equiv_pos_site_id
 _symmetry_equiv_pos_as_xyz
 1  'x, y, z'
loop_
 _atom_site_type_symbol
 _atom_site_label
 _atom_site_symmetry_multiplicity
 _atom_site_fract_x
 _atom_site_fract_y
 _atom_site_fract_z
 _atom_site_fract_occupancy
 Ca  Ca1  1  0.23682  0.00250  0.00271  1
 Ca  Ca2  1  0.86289  0.21862  0.19772  1
 Ca  Ca3  1  0.35573  0.21862  0.69772  1
 Ca  Ca4  1  0.76567  0.00250  0.50271  1
 N  N1  1  0.31143  0.58911  0.41497  1
 N  N2  1  0.78476  0.26182  0.77293  1
 N  N3  1  0.47706  0.26182  0.27293  1
 N  N4  1  0.84816  0.66877  0.43497  1
 N  N5  1  0.82060  0.66877  0.93497  1
 N  N6  1  0.97775  0.96274  0.71788  1
 N  N7  1  0.98499  0.96274  0.21788  1
 N  N8  1  0.55097  0.60710  0.67572  1
 N  N9  1  0.05613  0.60710  0.17572  1
 N  N10  1  0.03683  0.59061  0.66928  1
 N  N11  1  0.55378  0.59061  0.16928  1
 N  N12  1  0.13993  0.25708  0.49734  1
 N  N13  1  0.62399  0.97346  0.93020  1
 N  N14  1  0.11716  0.25708  0.99734  1
 N  N15  1  0.27768  0.58911  0.91497  1
 N  N16  1  0.34947  0.97346  0.43020  1
 Si  Si1  1  0.85797  0.71152  0.62606  1
 Si  Si2  1  0.85356  0.71152  0.12606  1
 Si  Si3  1  0.56941  0.72475  0.86820  1
 Si  Si4  1  0.15534  0.72475  0.36820  1
 Si  Si5  1  0.25073  0.50827  0.56290  1
 Si  Si6  1  0.25754  0.50827  0.06290  1
 Si  Si7  1  0.96410  0.51106  0.81752  1
 Si  Si8  1  0.54696  0.51106  0.31752  1
 Si  Si9  1  0.86146  0.11540  0.85348  1
 Si  Si10  1  0.25394  0.11540  0.35348  1
