CIF file written using JARVIS-Tools package.
data_CaNi12B6
_symmetry_space_group_name_H-M  'R-3m'
_cell_length_a       6.03906
_cell_length_b       6.03906
_cell_length_c       6.03906
_cell_angle_alpha    104.461
_cell_angle_beta     104.461
_cell_angle_gamma    104.462

_symmetry_Int_Tables_number  166
_chemical_formula_structural  CaNi12B6
_chemical_formula_sum  CaNi2B6
_cell_volume  194.735493648048
_cell_formula_units_Z  1
loop_
  _symmetry_equiv_pos_site_id
 _symmetry_equiv_pos_as_xyz
 1  'x, y, z'
loop_
 _atom_site_type_symbol
 _atom_site_label
 _atom_site_symmetry_multiplicity
 _atom_site_fract_x
 _atom_site_fract_y
 _atom_site_fract_z
 _atom_site_fract_occupancy
 B  B1  1  0.33443  0.76447  0.76447  1
 B  B2  1  0.76447  0.33443  0.76447  1
 B  B3  1  0.66557  0.23553  0.23553  1
 B  B4  1  0.23553  0.66557  0.23553  1
 B  B5  1  0.23553  0.23553  0.66557  1
 B  B6  1  0.76447  0.76447  0.33443  1
 Ca  Ca1  1  0.00000  0.00000  0.00000  1
 Ni  Ni1  1  0.86935  0.50000  0.13065  1
 Ni  Ni2  1  0.13065  0.86935  0.50000  1
 Ni  Ni3  1  0.81307  0.54462  0.54462  1
 Ni  Ni4  1  0.13065  0.50000  0.86935  1
 Ni  Ni5  1  0.86935  0.13065  0.50000  1
 Ni  Ni6  1  0.45538  0.18693  0.45538  1
 Ni  Ni7  1  0.54462  0.54462  0.81307  1
 Ni  Ni8  1  0.54462  0.81307  0.54462  1
 Ni  Ni9  1  0.18693  0.45538  0.45538  1
 Ni  Ni10  1  0.50000  0.86935  0.13065  1
 Ni  Ni11  1  0.50000  0.13065  0.86935  1
 Ni  Ni12  1  0.45538  0.45538  0.18693  1
