CIF file written using JARVIS-Tools package.
data_Te4MoBr
_symmetry_space_group_name_H-M  'P-1'
_cell_length_a       6.88447
_cell_length_b       7.91567
_cell_length_c       7.99115
_cell_angle_alpha    112.495
_cell_angle_beta     102.872
_cell_angle_gamma    101.375

_symmetry_Int_Tables_number  2
_chemical_formula_structural  Te4MoBr
_chemical_formula_sum  Te8Mo2Br2
_cell_volume  372.44791839323295
_cell_formula_units_Z  2
loop_
  _symmetry_equiv_pos_site_id
 _symmetry_equiv_pos_as_xyz
 1  'x, y, z'
loop_
 _atom_site_type_symbol
 _atom_site_label
 _atom_site_symmetry_multiplicity
 _atom_site_fract_x
 _atom_site_fract_y
 _atom_site_fract_z
 _atom_site_fract_occupancy
 Br  Br1  1  0.74372  0.59844  0.41563  1
 Br  Br2  1  0.25628  0.40156  0.58437  1
 Mo  Mo1  1  0.78161  0.99980  0.00150  1
 Mo  Mo2  1  0.21839  0.00020  0.99850  1
 Te  Te1  1  0.87959  0.66825  0.82725  1
 Te  Te2  1  0.03760  0.88837  0.23258  1
 Te  Te3  1  0.96240  0.11163  0.76742  1
 Te  Te4  1  0.53801  0.23835  0.93199  1
 Te  Te5  1  0.61129  0.14483  0.31108  1
 Te  Te6  1  0.38871  0.85517  0.68892  1
 Te  Te7  1  0.12041  0.33175  0.17275  1
 Te  Te8  1  0.46199  0.76165  0.06801  1
