CIF file written using JARVIS-Tools package.
data_SnI3
_symmetry_space_group_name_H-M  'I4/mcm'
_cell_length_a       8.13117
_cell_length_b       8.13117
_cell_length_c       8.29024
_cell_angle_alpha    119.367
_cell_angle_beta     119.367
_cell_angle_gamma    90

_symmetry_Int_Tables_number  140
_chemical_formula_structural  SnI3
_chemical_formula_sum  Sn2I6
_cell_volume  394.87407509951646
_cell_formula_units_Z  2
loop_
  _symmetry_equiv_pos_site_id
 _symmetry_equiv_pos_as_xyz
 1  'x, y, z'
loop_
 _atom_site_type_symbol
 _atom_site_label
 _atom_site_symmetry_multiplicity
 _atom_site_fract_x
 _atom_site_fract_y
 _atom_site_fract_z
 _atom_site_fract_occupancy
 I  I1  1  0.33513  0.83513  0.00000  1
 I  I2  1  0.66487  0.16487  -0.00000  1
 I  I3  1  0.16487  0.33513  0.00000  1
 I  I4  1  0.83513  0.66487  0.00000  1
 I  I5  1  0.75000  0.75000  0.50000  1
 I  I6  1  0.25000  0.25000  0.50000  1
 Sn  Sn1  1  0.50000  0.50000  0.00000  1
 Sn  Sn2  1  0.00000  0.00000  0.00000  1
