CIF file written using JARVIS-Tools package.
data_KCuC2N2
_symmetry_space_group_name_H-M  'P2_1/c'
_cell_length_a       7.3019
_cell_length_b       7.56209
_cell_length_c       7.65783
_cell_angle_alpha    90
_cell_angle_beta     90
_cell_angle_gamma    102.181

_symmetry_Int_Tables_number  14
_chemical_formula_structural  KCuC2N2
_chemical_formula_sum  K4Cu4C8N8
_cell_volume  413.3268140173787
_cell_formula_units_Z  4
loop_
  _symmetry_equiv_pos_site_id
 _symmetry_equiv_pos_as_xyz
 1  'x, y, z'
loop_
 _atom_site_type_symbol
 _atom_site_label
 _atom_site_symmetry_multiplicity
 _atom_site_fract_x
 _atom_site_fract_y
 _atom_site_fract_z
 _atom_site_fract_occupancy
 C  C1  1  0.47007  0.66960  0.69924  1
 C  C2  1  0.27114  0.93846  0.42245  1
 C  C3  1  0.72886  0.06154  0.57755  1
 C  C4  1  0.52993  0.33040  0.30076  1
 C  C5  1  0.22886  0.06154  0.92245  1
 C  C6  1  0.77114  0.93846  0.07755  1
 C  C7  1  0.02993  0.33040  0.19924  1
 C  C8  1  0.97007  0.66960  0.80076  1
 Cu  Cu1  1  0.59093  0.11085  0.37895  1
 Cu  Cu2  1  0.40907  0.88915  0.62105  1
 Cu  Cu3  1  0.09093  0.11085  0.12105  1
 Cu  Cu4  1  0.90907  0.88915  0.87895  1
 K  K1  1  0.68791  0.30496  0.92886  1
 K  K2  1  0.18791  0.30496  0.57114  1
 K  K3  1  0.31209  0.69504  0.07114  1
 K  K4  1  0.81209  0.69504  0.42886  1
 N  N1  1  0.99769  0.53122  0.74906  1
 N  N2  1  0.50231  0.46878  0.24906  1
 N  N3  1  0.84045  0.03764  0.68169  1
 N  N4  1  0.65955  0.96236  0.18169  1
 N  N5  1  0.00231  0.46878  0.25094  1
 N  N6  1  0.15955  0.96236  0.31831  1
 N  N7  1  0.49769  0.53122  0.75094  1
 N  N8  1  0.34045  0.03764  0.81831  1
