CIF file written using JARVIS-Tools package.
data_Li2Ti3FeO8
_symmetry_space_group_name_H-M  'R-3m'
_cell_length_a       5.73294
_cell_length_b       5.73294
_cell_length_c       5.73293
_cell_angle_alpha    62.8375
_cell_angle_beta     62.8376
_cell_angle_gamma    62.8376

_symmetry_Int_Tables_number  166
_chemical_formula_structural  Li2Ti3FeO8
_chemical_formula_sum  Li2Ti3FeO8
_cell_volume  141.6377704466858
_cell_formula_units_Z  1
loop_
  _symmetry_equiv_pos_site_id
 _symmetry_equiv_pos_as_xyz
 1  'x, y, z'
loop_
 _atom_site_type_symbol
 _atom_site_label
 _atom_site_symmetry_multiplicity
 _atom_site_fract_x
 _atom_site_fract_y
 _atom_site_fract_z
 _atom_site_fract_occupancy
 Fe  Fe1  1  0.50000  0.50000  0.50000  1
 Li  Li1  1  0.12051  0.12051  0.12051  1
 Li  Li2  1  0.87949  0.87949  0.87949  1
 O  O1  1  0.25904  0.25904  0.25904  1
 O  O2  1  0.26010  0.26010  0.71715  1
 O  O3  1  0.26010  0.71715  0.26010  1
 O  O4  1  0.71715  0.26010  0.26010  1
 O  O5  1  0.28285  0.73990  0.73990  1
 O  O6  1  0.73990  0.28285  0.73990  1
 O  O7  1  0.73990  0.73990  0.28285  1
 O  O8  1  0.74096  0.74096  0.74096  1
 Ti  Ti1  1  -0.00000  0.50000  0.50000  1
 Ti  Ti2  1  0.50000  0.00000  0.50000  1
 Ti  Ti3  1  0.50000  0.50000  0.00000  1
