CIF file written using JARVIS-Tools package.
data_CaBeFe2
_symmetry_space_group_name_H-M  'P4mm'
_cell_length_a       2.85426
_cell_length_b       2.85426
_cell_length_c       6.67141
_cell_angle_alpha    90
_cell_angle_beta     90
_cell_angle_gamma    90

_symmetry_Int_Tables_number  99
_chemical_formula_structural  CaBeFe2
_chemical_formula_sum  CaBeFe2
_cell_volume  54.350562430285194
_cell_formula_units_Z  1
loop_
  _symmetry_equiv_pos_site_id
 _symmetry_equiv_pos_as_xyz
 1  'x, y, z'
loop_
 _atom_site_type_symbol
 _atom_site_label
 _atom_site_symmetry_multiplicity
 _atom_site_fract_x
 _atom_site_fract_y
 _atom_site_fract_z
 _atom_site_fract_occupancy
 Be  Be1  1  0.00000  0.00000  0.41542  1
 Ca  Ca1  1  0.50000  0.50000  0.75123  1
 Fe  Fe1  1  0.00000  0.00000  0.07210  1
 Fe  Fe2  1  0.50000  0.50000  0.26125  1
