CIF file written using JARVIS-Tools package.
data_CeSiRu
_symmetry_space_group_name_H-M  'P4/nmm'
_cell_length_a       4.21952
_cell_length_b       4.21952
_cell_length_c       6.70924
_cell_angle_alpha    90
_cell_angle_beta     90
_cell_angle_gamma    90

_symmetry_Int_Tables_number  129
_chemical_formula_structural  CeSiRu
_chemical_formula_sum  Ce2Si2Ru2
_cell_volume  119.45366531437185
_cell_formula_units_Z  2
loop_
  _symmetry_equiv_pos_site_id
 _symmetry_equiv_pos_as_xyz
 1  'x, y, z'
loop_
 _atom_site_type_symbol
 _atom_site_label
 _atom_site_symmetry_multiplicity
 _atom_site_fract_x
 _atom_site_fract_y
 _atom_site_fract_z
 _atom_site_fract_occupancy
 Ce  Ce1  1  0.25000  0.25000  0.67940  1
 Ce  Ce2  1  0.75000  0.75000  0.32060  1
 Ru  Ru1  1  0.75000  0.25000  0.00000  1
 Ru  Ru2  1  0.25000  0.75000  0.00000  1
 Si  Si1  1  0.25000  0.25000  0.19011  1
 Si  Si2  1  0.75000  0.75000  0.80989  1
