CIF file written using JARVIS-Tools package.
data_Na3VO4
_symmetry_space_group_name_H-M  'I-42m'
_cell_length_a       5.94359
_cell_length_b       5.94359
_cell_length_c       5.94359
_cell_angle_alpha    129.995
_cell_angle_beta     129.995
_cell_angle_gamma    73.4153

_symmetry_Int_Tables_number  121
_chemical_formula_structural  Na3VO4
_chemical_formula_sum  Na3VO4
_cell_volume  120.28143029627243
_cell_formula_units_Z  1
loop_
  _symmetry_equiv_pos_site_id
 _symmetry_equiv_pos_as_xyz
 1  'x, y, z'
loop_
 _atom_site_type_symbol
 _atom_site_label
 _atom_site_symmetry_multiplicity
 _atom_site_fract_x
 _atom_site_fract_y
 _atom_site_fract_z
 _atom_site_fract_occupancy
 Na  Na1  1  0.50000  0.50000  0.00000  1
 Na  Na2  1  0.75000  0.25000  0.50000  1
 Na  Na3  1  0.25000  0.75000  0.50000  1
 O  O1  1  0.69477  0.09605  0.00000  1
 O  O2  1  0.30523  0.30523  0.40127  1
 O  O3  1  0.90395  0.90395  0.59873  1
 O  O4  1  0.09605  0.69477  -0.00000  1
 V  V1  1  0.00000  0.00000  0.00000  1
