CIF file written using JARVIS-Tools package.
data_MgBeNi
_symmetry_space_group_name_H-M  'I4mm'
_cell_length_a       4.95324
_cell_length_b       4.95324
_cell_length_c       4.95324
_cell_angle_alpha    146.255
_cell_angle_beta     146.255
_cell_angle_gamma    48.4688

_symmetry_Int_Tables_number  107
_chemical_formula_structural  MgBeNi
_chemical_formula_sum  MgBeNi
_cell_volume  37.34196167044316
_cell_formula_units_Z  1
loop_
  _symmetry_equiv_pos_site_id
 _symmetry_equiv_pos_as_xyz
 1  'x, y, z'
loop_
 _atom_site_type_symbol
 _atom_site_label
 _atom_site_symmetry_multiplicity
 _atom_site_fract_x
 _atom_site_fract_y
 _atom_site_fract_z
 _atom_site_fract_occupancy
 Be  Be1  1  0.03792  0.03792  -0.00000  1
 Mg  Mg1  1  0.32929  0.32929  0.00000  1
 Ni  Ni1  1  0.63279  0.63279  0.00000  1
