CIF file written using JARVIS-Tools package.
data_KSbO2
_symmetry_space_group_name_H-M  'C2/c'
_cell_length_a       5.70262
_cell_length_b       5.63168
_cell_length_c       5.63167
_cell_angle_alpha    91.4124
_cell_angle_beta     113.405
_cell_angle_gamma    113.405

_symmetry_Int_Tables_number  15
_chemical_formula_structural  KSbO2
_chemical_formula_sum  K2Sb2O4
_cell_volume  148.7077599491967
_cell_formula_units_Z  2
loop_
  _symmetry_equiv_pos_site_id
 _symmetry_equiv_pos_as_xyz
 1  'x, y, z'
loop_
 _atom_site_type_symbol
 _atom_site_label
 _atom_site_symmetry_multiplicity
 _atom_site_fract_x
 _atom_site_fract_y
 _atom_site_fract_z
 _atom_site_fract_occupancy
 K  K1  1  0.25000  0.63237  0.36763  1
 K  K2  1  0.75000  0.36763  0.63237  1
 O  O1  1  0.21900  0.12725  0.23876  1
 O  O2  1  0.28100  0.76124  0.87275  1
 O  O3  1  0.71900  0.23876  0.12725  1
 O  O4  1  0.78100  0.87275  0.76124  1
 Sb  Sb1  1  0.75000  0.89805  0.10195  1
 Sb  Sb2  1  0.25000  0.10195  0.89805  1
