CIF file written using JARVIS-Tools package.
data_Y2Ni3B6
_symmetry_space_group_name_H-M  'Cmmm'
_cell_length_a       5.80305
_cell_length_b       5.80305
_cell_length_c       3.49805
_cell_angle_alpha    90
_cell_angle_beta     90
_cell_angle_gamma    96.5703

_symmetry_Int_Tables_number  65
_chemical_formula_structural  Y2Ni3B6
_chemical_formula_sum  Y2Ni3B6
_cell_volume  117.02473924429754
_cell_formula_units_Z  1
loop_
  _symmetry_equiv_pos_site_id
 _symmetry_equiv_pos_as_xyz
 1  'x, y, z'
loop_
 _atom_site_type_symbol
 _atom_site_label
 _atom_site_symmetry_multiplicity
 _atom_site_fract_x
 _atom_site_fract_y
 _atom_site_fract_z
 _atom_site_fract_occupancy
 B  B1  1  0.08677  0.38830  0.50000  1
 B  B2  1  0.91323  0.61170  0.50000  1
 B  B3  1  0.61170  0.91323  0.50000  1
 B  B4  1  0.38830  0.08677  0.50000  1
 B  B5  1  0.38659  0.38659  0.50000  1
 B  B6  1  0.61341  0.61341  0.50000  1
 Ni  Ni1  1  0.00000  0.00000  0.50000  1
 Ni  Ni2  1  0.22690  0.22690  0.00000  1
 Ni  Ni3  1  0.77310  0.77310  0.00000  1
 Y  Y1  1  0.72467  0.27533  0.00000  1
 Y  Y2  1  0.27533  0.72467  0.00000  1
