CIF file written using JARVIS-Tools package.
data_BeCuSi
_symmetry_space_group_name_H-M  'I4mm'
_cell_length_a       5.80163
_cell_length_b       5.80163
_cell_length_c       5.80163
_cell_angle_alpha    154.745
_cell_angle_beta     154.745
_cell_angle_gamma    36.0182

_symmetry_Int_Tables_number  107
_chemical_formula_structural  BeCuSi
_chemical_formula_sum  BeCuSi
_cell_volume  35.50163926013578
_cell_formula_units_Z  1
loop_
  _symmetry_equiv_pos_site_id
 _symmetry_equiv_pos_as_xyz
 1  'x, y, z'
loop_
 _atom_site_type_symbol
 _atom_site_label
 _atom_site_symmetry_multiplicity
 _atom_site_fract_x
 _atom_site_fract_y
 _atom_site_fract_z
 _atom_site_fract_occupancy
 Be  Be1  1  0.99164  0.99164  0.00000  1
 Cu  Cu1  1  0.35218  0.35218  0.00000  1
 Si  Si1  1  0.65618  0.65618  -0.00000  1
