CIF file written using JARVIS-Tools package.
data_SrO2
_symmetry_space_group_name_H-M  'I4/mmm'
_cell_length_a       3.55378
_cell_length_b       3.55378
_cell_length_c       4.19317
_cell_angle_alpha    115.072
_cell_angle_beta     115.072
_cell_angle_gamma    90

_symmetry_Int_Tables_number  139
_chemical_formula_structural  SrO2
_chemical_formula_sum  SrO2
_cell_volume  42.39407812515781
_cell_formula_units_Z  1
loop_
  _symmetry_equiv_pos_site_id
 _symmetry_equiv_pos_as_xyz
 1  'x, y, z'
loop_
 _atom_site_type_symbol
 _atom_site_label
 _atom_site_symmetry_multiplicity
 _atom_site_fract_x
 _atom_site_fract_y
 _atom_site_fract_z
 _atom_site_fract_occupancy
 O  O1  1  0.38746  0.38746  0.77493  1
 O  O2  1  0.61254  0.61254  0.22507  1
 Sr  Sr1  1  0.00000  0.00000  0.00000  1
