CIF file written using JARVIS-Tools package.
data_Tb2C
_symmetry_space_group_name_H-M  'R-3m'
_cell_length_a       6.50114
_cell_length_b       6.50114
_cell_length_c       6.50114
_cell_angle_alpha    32.031
_cell_angle_beta     32.031
_cell_angle_gamma    32.031

_symmetry_Int_Tables_number  166
_chemical_formula_structural  Tb2C
_chemical_formula_sum  Tb2C
_cell_volume  68.67775015056685
_cell_formula_units_Z  1
loop_
  _symmetry_equiv_pos_site_id
 _symmetry_equiv_pos_as_xyz
 1  'x, y, z'
loop_
 _atom_site_type_symbol
 _atom_site_label
 _atom_site_symmetry_multiplicity
 _atom_site_fract_x
 _atom_site_fract_y
 _atom_site_fract_z
 _atom_site_fract_occupancy
 C  C1  1  0.00000  0.00000  0.00000  1
 Tb  Tb1  1  0.74025  0.74025  0.74025  1
 Tb  Tb2  1  0.25975  0.25975  0.25975  1
