CIF file written using JARVIS-Tools package.
data_CeP2
_symmetry_space_group_name_H-M  'P2_1/c'
_cell_length_a       4.03126
_cell_length_b       6.4245
_cell_length_c       9.68342
_cell_angle_alpha    90
_cell_angle_beta     96.7882
_cell_angle_gamma    90

_symmetry_Int_Tables_number  14
_chemical_formula_structural  CeP2
_chemical_formula_sum  Ce4P8
_cell_volume  249.03109995285996
_cell_formula_units_Z  4
loop_
  _symmetry_equiv_pos_site_id
 _symmetry_equiv_pos_as_xyz
 1  'x, y, z'
loop_
 _atom_site_type_symbol
 _atom_site_label
 _atom_site_symmetry_multiplicity
 _atom_site_fract_x
 _atom_site_fract_y
 _atom_site_fract_z
 _atom_site_fract_occupancy
 Ce  Ce1  1  0.21608  0.31507  0.13830  1
 Ce  Ce2  1  0.78392  0.68493  0.86170  1
 Ce  Ce3  1  0.28392  0.81507  0.36170  1
 Ce  Ce4  1  0.71608  0.18493  0.63830  1
 P  P1  1  0.20906  0.85524  0.67231  1
 P  P2  1  0.79094  0.14476  0.32769  1
 P  P3  1  0.14928  0.36862  0.44937  1
 P  P4  1  0.35072  0.86862  0.05063  1
 P  P5  1  0.70906  0.64476  0.17231  1
 P  P6  1  0.64928  0.13138  0.94937  1
 P  P7  1  0.85072  0.63138  0.55063  1
 P  P8  1  0.29094  0.35524  0.82769  1
