CIF file written using JARVIS-Tools package.
data_KLi2As
_symmetry_space_group_name_H-M  'Pmmn'
_cell_length_a       4.43024
_cell_length_b       6.25698
_cell_length_c       6.62427
_cell_angle_alpha    90
_cell_angle_beta     90
_cell_angle_gamma    90

_symmetry_Int_Tables_number  59
_chemical_formula_structural  KLi2As
_chemical_formula_sum  K2Li4As2
_cell_volume  183.62441128467384
_cell_formula_units_Z  2
loop_
  _symmetry_equiv_pos_site_id
 _symmetry_equiv_pos_as_xyz
 1  'x, y, z'
loop_
 _atom_site_type_symbol
 _atom_site_label
 _atom_site_symmetry_multiplicity
 _atom_site_fract_x
 _atom_site_fract_y
 _atom_site_fract_z
 _atom_site_fract_occupancy
 As  As1  1  0.25000  0.33588  0.75000  1
 As  As2  1  0.75000  0.66412  0.25000  1
 K  K1  1  0.75000  0.90121  0.75000  1
 K  K2  1  0.25000  0.09879  0.25000  1
 Li  Li1  1  0.25000  0.59684  0.44639  1
 Li  Li2  1  0.75000  0.40316  0.55361  1
 Li  Li3  1  0.75000  0.40316  0.94639  1
 Li  Li4  1  0.25000  0.59684  0.05361  1
