CIF file written using JARVIS-Tools package.
data_BeInW
_symmetry_space_group_name_H-M  'I4mm'
_cell_length_a       6.63226
_cell_length_b       6.63226
_cell_length_c       6.63226
_cell_angle_alpha    155.81
_cell_angle_beta     155.81
_cell_angle_gamma    34.4732

_symmetry_Int_Tables_number  107
_chemical_formula_structural  BeInW
_chemical_formula_sum  BeInW
_cell_volume  48.92999604412854
_cell_formula_units_Z  1
loop_
  _symmetry_equiv_pos_site_id
 _symmetry_equiv_pos_as_xyz
 1  'x, y, z'
loop_
 _atom_site_type_symbol
 _atom_site_label
 _atom_site_symmetry_multiplicity
 _atom_site_fract_x
 _atom_site_fract_y
 _atom_site_fract_z
 _atom_site_fract_occupancy
 Be  Be1  1  0.01712  0.01712  0.00000  1
 In  In1  1  0.33580  0.33580  -0.00000  1
 W  W1  1  0.64708  0.64708  -0.00000  1
