CIF file written using JARVIS-Tools package.
data_BeCdFe
_symmetry_space_group_name_H-M  'I4mm'
_cell_length_a       5.48609
_cell_length_b       5.48609
_cell_length_c       5.48609
_cell_angle_alpha    150.477
_cell_angle_beta     150.477
_cell_angle_gamma    42.2422

_symmetry_Int_Tables_number  107
_chemical_formula_structural  BeCdFe
_chemical_formula_sum  BeCdFe
_cell_volume  39.998225144315555
_cell_formula_units_Z  1
loop_
  _symmetry_equiv_pos_site_id
 _symmetry_equiv_pos_as_xyz
 1  'x, y, z'
loop_
 _atom_site_type_symbol
 _atom_site_label
 _atom_site_symmetry_multiplicity
 _atom_site_fract_x
 _atom_site_fract_y
 _atom_site_fract_z
 _atom_site_fract_occupancy
 Be  Be1  1  0.02304  0.02304  -0.00000  1
 Cd  Cd1  1  0.33767  0.33767  -0.00000  1
 Fe  Fe1  1  0.63929  0.63929  0.00000  1
