CIF file written using JARVIS-Tools package.
data_Mg6CuNi
_symmetry_space_group_name_H-M  'Amm2'
_cell_length_a       5.96547
_cell_length_b       5.96547
_cell_length_c       4.29159
_cell_angle_alpha    90
_cell_angle_beta     90
_cell_angle_gamma    102.849

_symmetry_Int_Tables_number  38
_chemical_formula_structural  Mg6CuNi
_chemical_formula_sum  Mg6CuNi
_cell_volume  148.89942880035306
_cell_formula_units_Z  1
loop_
  _symmetry_equiv_pos_site_id
 _symmetry_equiv_pos_as_xyz
 1  'x, y, z'
loop_
 _atom_site_type_symbol
 _atom_site_label
 _atom_site_symmetry_multiplicity
 _atom_site_fract_x
 _atom_site_fract_y
 _atom_site_fract_z
 _atom_site_fract_occupancy
 Cu  Cu1  1  0.06261  0.43739  0.25000  1
 Mg  Mg1  1  0.16638  0.93298  0.25000  1
 Mg  Mg2  1  0.56702  0.33362  0.25000  1
 Mg  Mg3  1  0.63069  0.86931  0.25000  1
 Mg  Mg4  1  0.34039  0.57653  0.75000  1
 Mg  Mg5  1  0.92347  0.15961  0.75000  1
 Mg  Mg6  1  0.86573  0.63427  0.75000  1
 Ni  Ni1  1  0.44371  0.05629  0.75000  1
