CIF file written using JARVIS-Tools package.
data_Sc2FeSi2
_symmetry_space_group_name_H-M  'C2/m'
_cell_length_a       3.98277
_cell_length_b       5.32633
_cell_length_c       8.53563
_cell_angle_alpha    82.3747
_cell_angle_beta     76.5084
_cell_angle_gamma    68.0451

_symmetry_Int_Tables_number  12
_chemical_formula_structural  Sc2FeSi2
_chemical_formula_sum  Sc4Fe2Si4
_cell_volume  163.09766504305597
_cell_formula_units_Z  2
loop_
  _symmetry_equiv_pos_site_id
 _symmetry_equiv_pos_as_xyz
 1  'x, y, z'
loop_
 _atom_site_type_symbol
 _atom_site_label
 _atom_site_symmetry_multiplicity
 _atom_site_fract_x
 _atom_site_fract_y
 _atom_site_fract_z
 _atom_site_fract_occupancy
 Fe  Fe1  1  0.72860  0.91587  0.62692  1
 Fe  Fe2  1  0.27140  0.08413  0.37308  1
 Sc  Sc1  1  0.81475  0.26302  0.10748  1
 Sc  Sc2  1  0.00081  0.67037  0.32801  1
 Sc  Sc3  1  0.18525  0.73698  0.89252  1
 Sc  Sc4  1  0.99919  0.32963  0.67199  1
 Si  Si1  1  0.49151  0.14286  0.87412  1
 Si  Si2  1  0.35250  0.72876  0.56624  1
 Si  Si3  1  0.50849  0.85714  0.12588  1
 Si  Si4  1  0.64750  0.27124  0.43376  1
