CIF file written using JARVIS-Tools package.
data_Mn8O13F3
_symmetry_space_group_name_H-M  'P1'
_cell_length_a       4.39068
_cell_length_b       5.41429
_cell_length_c       9.77705
_cell_angle_alpha    90.0544
_cell_angle_beta     90.503
_cell_angle_gamma    90.6212

_symmetry_Int_Tables_number  1
_chemical_formula_structural  Mn8O13F3
_chemical_formula_sum  Mn8O3F3
_cell_volume  232.40147385098123
_cell_formula_units_Z  1
loop_
  _symmetry_equiv_pos_site_id
 _symmetry_equiv_pos_as_xyz
 1  'x, y, z'
loop_
 _atom_site_type_symbol
 _atom_site_label
 _atom_site_symmetry_multiplicity
 _atom_site_fract_x
 _atom_site_fract_y
 _atom_site_fract_z
 _atom_site_fract_occupancy
 F  F1  1  0.27161  0.88764  0.44908  1
 F  F2  1  0.25937  0.62027  0.21291  1
 F  F3  1  0.73243  0.88796  0.79808  1
 Mn  Mn1  1  0.53894  0.63343  0.37981  1
 Mn  Mn2  1  0.47433  0.63202  0.88154  1
 Mn  Mn3  1  0.99709  0.15808  0.37275  1
 Mn  Mn4  1  0.50433  0.33875  0.12134  1
 Mn  Mn5  1  0.98240  0.86351  0.11997  1
 Mn  Mn6  1  0.01008  0.85713  0.62505  1
 Mn  Mn7  1  0.00383  0.15550  0.87450  1
 Mn  Mn8  1  0.50270  0.35430  0.62774  1
 O  O1  1  0.71348  0.61819  0.04244  1
 O  O2  1  0.77678  0.11728  0.53943  1
 O  O3  1  0.76205  0.11332  0.03571  1
 O  O4  1  0.77643  0.88172  0.29070  1
 O  O5  1  0.74761  0.61363  0.54036  1
 O  O6  1  0.73017  0.38884  0.79487  1
 O  O7  1  0.25057  0.38229  0.96201  1
 O  O8  1  0.27289  0.61163  0.70950  1
 O  O9  1  0.23453  0.11825  0.71200  1
 O  O10  1  0.21396  0.87868  0.95664  1
 O  O11  1  0.22886  0.11626  0.20775  1
 O  O12  1  0.73714  0.38282  0.28680  1
 O  O13  1  0.27843  0.38850  0.45902  1
