CIF file written using JARVIS-Tools package.
data_YF3
_symmetry_space_group_name_H-M  'Pnma'
_cell_length_a       4.4024
_cell_length_b       6.40715
_cell_length_c       6.9004
_cell_angle_alpha    90
_cell_angle_beta     90
_cell_angle_gamma    90

_symmetry_Int_Tables_number  62
_chemical_formula_structural  YF3
_chemical_formula_sum  Y4F2
_cell_volume  194.63847234634284
_cell_formula_units_Z  4
loop_
  _symmetry_equiv_pos_site_id
 _symmetry_equiv_pos_as_xyz
 1  'x, y, z'
loop_
 _atom_site_type_symbol
 _atom_site_label
 _atom_site_symmetry_multiplicity
 _atom_site_fract_x
 _atom_site_fract_y
 _atom_site_fract_z
 _atom_site_fract_occupancy
 F  F1  1  0.37927  0.16548  0.43701  1
 F  F2  1  0.87927  0.33452  0.56299  1
 F  F3  1  0.12073  0.66548  0.06299  1
 F  F4  1  0.62073  0.83452  0.93701  1
 F  F5  1  0.58857  0.52243  0.25000  1
 F  F6  1  0.08857  0.97757  0.75000  1
 F  F7  1  0.91143  0.02243  0.25000  1
 F  F8  1  0.41143  0.47757  0.75000  1
 F  F9  1  0.37927  0.16548  0.06299  1
 F  F10  1  0.87927  0.33452  0.93701  1
 F  F11  1  0.12073  0.66548  0.43701  1
 F  F12  1  0.62073  0.83452  0.56299  1
 Y  Y1  1  0.93841  0.63121  0.75000  1
 Y  Y2  1  0.43841  0.86879  0.25000  1
 Y  Y3  1  0.56159  0.13121  0.75000  1
 Y  Y4  1  0.06159  0.36879  0.25000  1
