CIF file written using JARVIS-Tools package.
data_KBAs4
_symmetry_space_group_name_H-M  'F-43m'
_cell_length_a       5.79023
_cell_length_b       5.79023
_cell_length_c       5.79023
_cell_angle_alpha    60
_cell_angle_beta     60
_cell_angle_gamma    60

_symmetry_Int_Tables_number  216
_chemical_formula_structural  KBAs4
_chemical_formula_sum  KBAs4
_cell_volume  137.2690564526343
_cell_formula_units_Z  1
loop_
  _symmetry_equiv_pos_site_id
 _symmetry_equiv_pos_as_xyz
 1  'x, y, z'
loop_
 _atom_site_type_symbol
 _atom_site_label
 _atom_site_symmetry_multiplicity
 _atom_site_fract_x
 _atom_site_fract_y
 _atom_site_fract_z
 _atom_site_fract_occupancy
 As  As1  1  0.61308  0.16077  0.61308  1
 As  As2  1  0.16077  0.61308  0.61308  1
 As  As3  1  0.61308  0.61308  0.61308  1
 As  As4  1  0.61308  0.61308  0.16077  1
 B  B1  1  0.25000  0.25000  0.25000  1
 K  K1  1  0.00000  0.00000  0.00000  1
