CIF file written using JARVIS-Tools package.
data_Al2O3
_symmetry_space_group_name_H-M  'P1'
_cell_length_a       5.60245
_cell_length_b       5.62093
_cell_length_c       9.32815
_cell_angle_alpha    91.9386
_cell_angle_beta     98.791
_cell_angle_gamma    119.967

_symmetry_Int_Tables_number  1
_chemical_formula_structural  Al2O3
_chemical_formula_sum  Al0O5
_cell_volume  249.401399754473
_cell_formula_units_Z  5
loop_
  _symmetry_equiv_pos_site_id
 _symmetry_equiv_pos_as_xyz
 1  'x, y, z'
loop_
 _atom_site_type_symbol
 _atom_site_label
 _atom_site_symmetry_multiplicity
 _atom_site_fract_x
 _atom_site_fract_y
 _atom_site_fract_z
 _atom_site_fract_occupancy
 Al  Al1  1  0.58655  0.25462  0.12332  1
 Al  Al2  1  0.90436  -0.01365  0.01438  1
 Al  Al3  1  0.94917  0.96272  0.31023  1
 Al  Al4  1  0.48253  0.48179  0.32987  1
 Al  Al5  1  0.75543  0.87267  0.63082  1
 Al  Al6  1  0.32757  0.42677  0.82378  1
 Al  Al7  1  0.39871  0.17680  0.55735  1
 Al  Al8  1  0.03224  0.52089  0.49528  1
 Al  Al9  1  0.83639  0.43064  0.82543  1
 Al  Al10  1  0.32235  0.91080  0.82161  1
 O  O1  1  0.78695  0.09962  0.16974  1
 O  O2  1  0.18560  0.32794  0.43114  1
 O  O3  1  0.53549  0.77950  0.91552  1
 O  O4  1  0.72808  0.60762  0.20091  1
 O  O5  1  0.67802  0.82702  0.43466  1
 O  O6  1  0.13757  0.07146  0.69079  1
 O  O7  1  0.11245  0.55992  0.69649  1
 O  O8  1  0.16498  0.85140  0.43715  1
 O  O9  1  0.66365  0.33791  0.44298  1
 O  O10  1  0.03184  0.78410  0.92450  1
 O  O11  1  0.59603  0.52621  0.69097  1
 O  O12  1  0.59871  0.06601  0.68963  1
 O  O13  1  0.53180  0.27110  0.92657  1
 O  O14  1  0.25740  0.14731  0.18656  1
 O  O15  1  0.03614  0.28884  0.92035  1
