data_image0
_chemical_formula_structural       Br4Cs2I2Pd
_chemical_formula_sum              "Br4 Cs2 I2 Pd1"
_cell_length_a       7.59028
_cell_length_b       7.59028
_cell_length_c       7.59028
_cell_angle_alpha    106.549
_cell_angle_beta     110.952
_cell_angle_gamma    110.952

_space_group_name_H-M_alt    "P 1"
_space_group_IT_number       1

loop_
  _space_group_symop_operation_xyz
  'x, y, z'

loop_
  _atom_site_type_symbol
  _atom_site_label
  _atom_site_symmetry_multiplicity
  _atom_site_fract_x
  _atom_site_fract_y
  _atom_site_fract_z
  _atom_site_occupancy
  Br  Br1       1.0  0.00000  0.79600  0.20400  1.0000
  Br  Br2       1.0  0.40800  0.20400  0.20400  1.0000
  Br  Br3       1.0  0.00000  0.20400  0.79600  1.0000
  Br  Br4       1.0  0.59200  0.79600  0.79600  1.0000
  Cs  Cs1       1.0  0.50000  0.75000  0.25000  1.0000
  Cs  Cs2       1.0  0.50000  0.25000  0.75000  1.0000
  I   I1        1.0  0.00000  0.34100  0.34100  1.0000
  I   I2        1.0  0.00000  0.65900  0.65900  1.0000
  Pd  Pd1       1.0  0.00000  0.00000  0.00000  1.0000
