CIF file written using JARVIS-Tools package.
data_Na2VO3
_symmetry_space_group_name_H-M  'Pnma'
_cell_length_a       5.29776
_cell_length_b       6.07551
_cell_length_c       9.20952
_cell_angle_alpha    90
_cell_angle_beta     90
_cell_angle_gamma    90

_symmetry_Int_Tables_number  62
_chemical_formula_structural  Na2VO3
_chemical_formula_sum  Na8V4O2
_cell_volume  296.4231836474886
_cell_formula_units_Z  4
loop_
  _symmetry_equiv_pos_site_id
 _symmetry_equiv_pos_as_xyz
 1  'x, y, z'
loop_
 _atom_site_type_symbol
 _atom_site_label
 _atom_site_symmetry_multiplicity
 _atom_site_fract_x
 _atom_site_fract_y
 _atom_site_fract_z
 _atom_site_fract_occupancy
 Na  Na1  1  0.76391  0.39132  0.41887  1
 Na  Na2  1  0.76391  0.39132  0.08113  1
 Na  Na3  1  0.73609  0.89132  0.58113  1
 Na  Na4  1  0.73609  0.89132  0.91887  1
 Na  Na5  1  0.26391  0.10868  0.08113  1
 Na  Na6  1  0.26391  0.10868  0.41887  1
 Na  Na7  1  0.23609  0.60868  0.58113  1
 Na  Na8  1  0.23609  0.60868  0.91887  1
 O  O1  1  0.36779  0.87460  0.75000  1
 O  O2  1  0.49529  0.71095  0.38524  1
 O  O3  1  0.49529  0.71095  0.11476  1
 O  O4  1  0.50471  0.28905  0.61476  1
 O  O5  1  0.50471  0.28905  0.88524  1
 O  O6  1  0.63221  0.12540  0.25000  1
 O  O7  1  0.86779  0.62540  0.75000  1
 O  O8  1  0.00471  0.21095  0.88524  1
 O  O9  1  0.99529  0.78905  0.11476  1
 O  O10  1  0.00471  0.21095  0.61476  1
 O  O11  1  0.13221  0.37460  0.25000  1
 O  O12  1  0.99529  0.78905  0.38524  1
 V  V1  1  0.77769  0.35335  0.75000  1
 V  V2  1  0.22231  0.64665  0.25000  1
 V  V3  1  0.27769  0.14665  0.75000  1
 V  V4  1  0.72231  0.85335  0.25000  1
