CIF file written using JARVIS-Tools package.
data_NaSmO2
_symmetry_space_group_name_H-M  'R-3m'
_cell_length_a       3.51849
_cell_length_b       5.90613
_cell_length_c       3.51849
_cell_angle_alpha    107.33
_cell_angle_beta     60
_cell_angle_gamma    107.329

_symmetry_Int_Tables_number  166
_chemical_formula_structural  NaSmO2
_chemical_formula_sum  NaSmO2
_cell_volume  59.45744723923329
_cell_formula_units_Z  1
loop_
  _symmetry_equiv_pos_site_id
 _symmetry_equiv_pos_as_xyz
 1  'x, y, z'
loop_
 _atom_site_type_symbol
 _atom_site_label
 _atom_site_symmetry_multiplicity
 _atom_site_fract_x
 _atom_site_fract_y
 _atom_site_fract_z
 _atom_site_fract_occupancy
 Na  Na1  1  0.00000  0.00000  0.00000  1
 O  O1  1  0.76059  0.28176  0.76059  1
 O  O2  1  0.23941  0.71824  0.23941  1
 Sm  Sm1  1  0.50000  0.50000  0.50000  1
