CIF file written using JARVIS-Tools package.
data_Ce2UO6
_symmetry_space_group_name_H-M  'Immm'
_cell_length_a       3.8661
_cell_length_b       6.65031
_cell_length_c       5.4589
_cell_angle_alpha    65.7757
_cell_angle_beta     90.0007
_cell_angle_gamma    73.1035

_symmetry_Int_Tables_number  71
_chemical_formula_structural  Ce2UO6
_chemical_formula_sum  Ce2UO6
_cell_volume  121.3190213418606
_cell_formula_units_Z  1
loop_
  _symmetry_equiv_pos_site_id
 _symmetry_equiv_pos_as_xyz
 1  'x, y, z'
loop_
 _atom_site_type_symbol
 _atom_site_label
 _atom_site_symmetry_multiplicity
 _atom_site_fract_x
 _atom_site_fract_y
 _atom_site_fract_z
 _atom_site_fract_occupancy
 Ce  Ce1  1  0.67052  0.66725  0.66624  1
 Ce  Ce2  1  0.33769  0.33284  0.33345  1
 O  O1  1  0.16468  0.67891  0.91672  1
 O  O2  1  0.50409  0.00005  0.76208  1
 O  O3  1  0.16467  0.67892  0.40408  1
 O  O4  1  0.84352  0.32117  0.59561  1
 O  O5  1  0.50411  0.00004  0.23758  1
 O  O6  1  0.84356  0.32118  0.08297  1
 U  U1  1  0.00410  0.00004  0.99984  1
