CIF file written using JARVIS-Tools package.
data_Y2HfS5
_symmetry_space_group_name_H-M  'Pnma'
_cell_length_a       7.24597
_cell_length_b       7.732
_cell_length_c       11.5237
_cell_angle_alpha    90
_cell_angle_beta     90
_cell_angle_gamma    90

_symmetry_Int_Tables_number  62
_chemical_formula_structural  Y2HfS5
_chemical_formula_sum  Y8Hf4S20
_cell_volume  645.6282475311558
_cell_formula_units_Z  4
loop_
  _symmetry_equiv_pos_site_id
 _symmetry_equiv_pos_as_xyz
 1  'x, y, z'
loop_
 _atom_site_type_symbol
 _atom_site_label
 _atom_site_symmetry_multiplicity
 _atom_site_fract_x
 _atom_site_fract_y
 _atom_site_fract_z
 _atom_site_fract_occupancy
 Hf  Hf1  1  0.07571  0.75000  0.49417  1
 Hf  Hf2  1  0.57571  0.25000  0.00583  1
 Hf  Hf3  1  0.42429  0.75000  0.99417  1
 Hf  Hf4  1  0.92429  0.25000  0.50583  1
 S  S1  1  0.16711  0.25000  0.68100  1
 S  S2  1  0.33289  0.25000  0.18100  1
 S  S3  1  0.83289  0.75000  0.31900  1
 S  S4  1  0.66711  0.75000  0.81900  1
 S  S5  1  0.16174  0.03645  0.40717  1
 S  S6  1  0.94779  0.25000  0.00332  1
 S  S7  1  0.55221  0.25000  0.50332  1
 S  S8  1  0.05221  0.75000  0.99668  1
 S  S9  1  0.18828  0.75000  0.70748  1
 S  S10  1  0.68828  0.25000  0.79252  1
 S  S11  1  0.81172  0.25000  0.29252  1
 S  S12  1  0.44779  0.75000  0.49668  1
 S  S13  1  0.83826  0.96355  0.59283  1
 S  S14  1  0.66174  0.53645  0.09283  1
 S  S15  1  0.31172  0.75000  0.20748  1
 S  S16  1  0.16174  0.46355  0.40717  1
 S  S17  1  0.66174  0.96355  0.09283  1
 S  S18  1  0.83826  0.53645  0.59283  1
 S  S19  1  0.33826  0.46355  0.90717  1
 S  S20  1  0.33826  0.03645  0.90717  1
 Y  Y1  1  0.97606  0.00249  0.82160  1
 Y  Y2  1  0.47606  0.99751  0.67840  1
 Y  Y3  1  0.02394  0.50249  0.17840  1
 Y  Y4  1  0.52394  0.49751  0.32160  1
 Y  Y5  1  0.47606  0.50249  0.67840  1
 Y  Y6  1  0.97606  0.49751  0.82160  1
 Y  Y7  1  0.52394  0.00249  0.32160  1
 Y  Y8  1  0.02394  0.99751  0.17840  1
