CIF file written using JARVIS-Tools package.
data_BeHgSe
_symmetry_space_group_name_H-M  'I4mm'
_cell_length_a       6.27242
_cell_length_b       6.27242
_cell_length_c       6.27242
_cell_angle_alpha    149.214
_cell_angle_beta     149.214
_cell_angle_gamma    44.0964

_symmetry_Int_Tables_number  107
_chemical_formula_structural  BeHgSe
_chemical_formula_sum  BeHgSe
_cell_volume  64.46260255082034
_cell_formula_units_Z  1
loop_
  _symmetry_equiv_pos_site_id
 _symmetry_equiv_pos_as_xyz
 1  'x, y, z'
loop_
 _atom_site_type_symbol
 _atom_site_label
 _atom_site_symmetry_multiplicity
 _atom_site_fract_x
 _atom_site_fract_y
 _atom_site_fract_z
 _atom_site_fract_occupancy
 Be  Be1  1  0.11237  0.11237  -0.00000  1
 Hg  Hg1  1  0.31894  0.31894  -0.00000  1
 Se  Se1  1  0.56869  0.56869  0.00000  1
