CIF file written using JARVIS-Tools package.
data_TbMnB4
_symmetry_space_group_name_H-M  'Pbam'
_cell_length_a       3.44037
_cell_length_b       5.91398
_cell_length_c       11.4348
_cell_angle_alpha    90
_cell_angle_beta     90
_cell_angle_gamma    90

_symmetry_Int_Tables_number  55
_chemical_formula_structural  TbMnB4
_chemical_formula_sum  Tb4Mn4B6
_cell_volume  232.6553510158768
_cell_formula_units_Z  4
loop_
  _symmetry_equiv_pos_site_id
 _symmetry_equiv_pos_as_xyz
 1  'x, y, z'
loop_
 _atom_site_type_symbol
 _atom_site_label
 _atom_site_symmetry_multiplicity
 _atom_site_fract_x
 _atom_site_fract_y
 _atom_site_fract_z
 _atom_site_fract_occupancy
 B  B1  1  0.50000  0.11189  0.45389  1
 B  B2  1  0.50000  0.28009  0.68333  1
 B  B3  1  0.50000  0.71991  0.31667  1
 B  B4  1  0.50000  0.21991  0.18333  1
 B  B5  1  0.50000  0.02506  0.30957  1
 B  B6  1  0.50000  0.36105  0.53222  1
 B  B7  1  0.50000  0.63895  0.46778  1
 B  B8  1  0.50000  0.78009  0.81667  1
 B  B9  1  0.50000  0.86105  0.96778  1
 B  B10  1  0.50000  0.38811  0.95389  1
 B  B11  1  0.50000  0.61189  0.04611  1
 B  B12  1  0.50000  0.97494  0.69043  1
 B  B13  1  0.50000  0.88811  0.54611  1
 B  B14  1  0.50000  0.47494  0.80957  1
 B  B15  1  0.50000  0.52506  0.19043  1
 B  B16  1  0.50000  0.13895  0.03222  1
 Mn  Mn1  1  0.00000  0.62681  0.91661  1
 Mn  Mn2  1  0.00000  0.37319  0.08339  1
 Mn  Mn3  1  0.00000  0.87319  0.41661  1
 Mn  Mn4  1  0.00000  0.12681  0.58339  1
 Tb  Tb1  1  0.00000  0.62539  0.65054  1
 Tb  Tb2  1  0.00000  0.37461  0.34946  1
 Tb  Tb3  1  0.00000  0.87461  0.15054  1
 Tb  Tb4  1  0.00000  0.12539  0.84946  1
