CIF file written using JARVIS-Tools package.
data_Be2ReSb
_symmetry_space_group_name_H-M  'P4/mmm'
_cell_length_a       3.22466
_cell_length_b       3.22466
_cell_length_c       5.31609
_cell_angle_alpha    90
_cell_angle_beta     90
_cell_angle_gamma    90

_symmetry_Int_Tables_number  123
_chemical_formula_structural  Be2ReSb
_chemical_formula_sum  Be2ReSb
_cell_volume  55.27904934014291
_cell_formula_units_Z  1
loop_
  _symmetry_equiv_pos_site_id
 _symmetry_equiv_pos_as_xyz
 1  'x, y, z'
loop_
 _atom_site_type_symbol
 _atom_site_label
 _atom_site_symmetry_multiplicity
 _atom_site_fract_x
 _atom_site_fract_y
 _atom_site_fract_z
 _atom_site_fract_occupancy
 Be  Be1  1  0.00000  0.00000  0.80723  1
 Be  Be2  1  0.00000  0.00000  0.19277  1
 Re  Re1  1  0.50000  0.50000  0.00000  1
 Sb  Sb1  1  0.50000  0.50000  0.50000  1
