CIF file written using JARVIS-Tools package.
data_NaNiPO4
_symmetry_space_group_name_H-M  'Pnma'
_cell_length_a       4.95798
_cell_length_b       6.13762
_cell_length_c       10.1175
_cell_angle_alpha    90
_cell_angle_beta     90
_cell_angle_gamma    90

_symmetry_Int_Tables_number  62
_chemical_formula_structural  NaNiPO4
_chemical_formula_sum  Na4Ni4P4O6
_cell_volume  307.8768461558763
_cell_formula_units_Z  4
loop_
  _symmetry_equiv_pos_site_id
 _symmetry_equiv_pos_as_xyz
 1  'x, y, z'
loop_
 _atom_site_type_symbol
 _atom_site_label
 _atom_site_symmetry_multiplicity
 _atom_site_fract_x
 _atom_site_fract_y
 _atom_site_fract_z
 _atom_site_fract_occupancy
 Na  Na1  1  0.00000  0.00000  0.00000  1
 Na  Na2  1  0.00000  0.50000  0.00000  1
 Na  Na3  1  0.50000  0.00000  0.50000  1
 Na  Na4  1  0.50000  0.50000  0.50000  1
 Ni  Ni1  1  0.51160  0.25000  0.21984  1
 Ni  Ni2  1  0.01160  0.75000  0.28016  1
 Ni  Ni3  1  0.98840  0.25000  0.71984  1
 Ni  Ni4  1  0.48840  0.75000  0.78016  1
 O  O1  1  0.25066  0.75000  0.11329  1
 O  O2  1  0.19607  0.05093  0.32055  1
 O  O3  1  0.19607  0.44907  0.32055  1
 O  O4  1  0.34015  0.25000  0.03778  1
 O  O5  1  0.69607  0.94907  0.17945  1
 O  O6  1  0.74934  0.25000  0.88671  1
 O  O7  1  0.84015  0.75000  0.46222  1
 O  O8  1  0.69607  0.55093  0.17945  1
 O  O9  1  0.15985  0.25000  0.53778  1
 O  O10  1  0.30393  0.44907  0.82055  1
 O  O11  1  0.80393  0.94907  0.67945  1
 O  O12  1  0.80393  0.55093  0.67945  1
 O  O13  1  0.75066  0.25000  0.38671  1
 O  O14  1  0.30393  0.05093  0.82055  1
 O  O15  1  0.24934  0.75000  0.61329  1
 O  O16  1  0.65985  0.75000  0.96222  1
 P  P1  1  0.56004  0.75000  0.10770  1
 P  P2  1  0.06004  0.25000  0.39230  1
 P  P3  1  0.93996  0.75000  0.60770  1
 P  P4  1  0.43996  0.25000  0.89230  1
