CIF file written using JARVIS-Tools package.
data_LiMg4H13Os2
_symmetry_space_group_name_H-M  'P1'
_cell_length_a       4.71935
_cell_length_b       4.71935
_cell_length_c       18.3764
_cell_angle_alpha    90
_cell_angle_beta     90
_cell_angle_gamma    120

_symmetry_Int_Tables_number  1
_chemical_formula_structural  LiMg4H13Os2
_chemical_formula_sum  Li2Mg8H26Os4
_cell_volume  354.44910227493773
_cell_formula_units_Z  2
loop_
  _symmetry_equiv_pos_site_id
 _symmetry_equiv_pos_as_xyz
 1  'x, y, z'
loop_
 _atom_site_type_symbol
 _atom_site_label
 _atom_site_symmetry_multiplicity
 _atom_site_fract_x
 _atom_site_fract_y
 _atom_site_fract_z
 _atom_site_fract_occupancy
 H  H1  1  -0.00000  -0.00001  0.75000  1
 H  H2  1  0.00002  0.50001  0.83838  1
 H  H3  1  0.49999  -0.00001  0.66163  1
 H  H4  1  0.66667  0.33333  0.60500  1
 H  H5  1  0.50001  0.49999  0.16162  1
 H  H6  1  0.67253  0.83626  0.05121  1
 H  H7  1  0.00000  0.00001  0.25000  1
 H  H8  1  0.00002  0.50001  0.66162  1
 H  H9  1  0.33333  0.66667  0.39500  1
 H  H10  1  0.49999  0.50001  0.66162  1
 H  H11  1  -0.00002  0.49999  0.33838  1
 H  H12  1  0.50001  0.00001  0.33837  1
 H  H13  1  0.50001  0.49999  0.33838  1
 H  H14  1  -0.00002  0.49999  0.16162  1
 H  H15  1  0.50001  0.00001  0.16163  1
 H  H16  1  0.16373  0.32747  0.05121  1
 H  H17  1  0.66667  0.33333  0.89500  1
 H  H18  1  0.32747  0.16374  0.94879  1
 H  H19  1  0.83627  0.67253  0.94879  1
 H  H20  1  0.83627  0.16374  0.94879  1
 H  H21  1  0.32747  0.16374  0.55121  1
 H  H22  1  0.83627  0.67253  0.55121  1
 H  H23  1  0.83627  0.16374  0.55121  1
 H  H24  1  0.67253  0.83626  0.44879  1
 H  H25  1  0.16373  0.83626  0.05121  1
 H  H26  1  0.49999  0.50001  0.83838  1
 Li  Li1  1  0.33332  0.66664  0.25000  1
 Li  Li2  1  0.66668  0.33336  0.75000  1
 Mg  Mg1  1  0.33334  0.66667  0.55256  1
 Mg  Mg2  1  0.66666  0.33333  0.44744  1
 Mg  Mg3  1  0.66666  0.33333  0.05256  1
 Mg  Mg4  1  0.33334  0.66667  0.94744  1
 Mg  Mg5  1  -0.00000  -0.00000  0.14975  1
 Mg  Mg6  1  0.00000  0.00000  0.85025  1
 Mg  Mg7  1  0.00000  0.00000  0.64975  1
 Mg  Mg8  1  -0.00000  -0.00000  0.35025  1
 Os  Os1  1  0.16373  0.32747  0.44879  1
 Os  Os2  1  0.16373  0.83626  0.44879  1
 Os  Os3  1  0.49999  -0.00001  0.83837  1
 Os  Os4  1  0.33333  0.66667  0.10500  1
