CIF file written using JARVIS-Tools package.
data_K2SnN6
_symmetry_space_group_name_H-M  'Fm-3m'
_cell_length_a       6.20638
_cell_length_b       6.20638
_cell_length_c       6.20852
_cell_angle_alpha    60.0114
_cell_angle_beta     60.0114
_cell_angle_gamma    60

_symmetry_Int_Tables_number  225
_chemical_formula_structural  K2SnN6
_chemical_formula_sum  K2SnN6
_cell_volume  169.13127544508245
_cell_formula_units_Z  1
loop_
  _symmetry_equiv_pos_site_id
 _symmetry_equiv_pos_as_xyz
 1  'x, y, z'
loop_
 _atom_site_type_symbol
 _atom_site_label
 _atom_site_symmetry_multiplicity
 _atom_site_fract_x
 _atom_site_fract_y
 _atom_site_fract_z
 _atom_site_fract_occupancy
 K  K1  1  0.24995  0.24995  0.25015  1
 K  K2  1  0.75005  0.75005  0.74985  1
 N  N1  1  0.75236  0.24755  0.75255  1
 N  N2  1  0.24755  0.24755  0.75255  1
 N  N3  1  0.24755  0.75236  0.75255  1
 N  N4  1  0.24764  0.75245  0.24745  1
 N  N5  1  0.75245  0.75245  0.24745  1
 N  N6  1  0.75245  0.24764  0.24745  1
 Sn  Sn1  1  0.00000  0.00000  0.00000  1
