CIF file written using JARVIS-Tools package.
data_NaZn4As3
_symmetry_space_group_name_H-M  'R-3m'
_cell_length_a       4.18551
_cell_length_b       4.18551
_cell_length_c       11.2669
_cell_angle_alpha    79.2955
_cell_angle_beta     79.2955
_cell_angle_gamma    60.0001

_symmetry_Int_Tables_number  166
_chemical_formula_structural  NaZn4As3
_chemical_formula_sum  NaZn4As3
_cell_volume  166.95760064793419
_cell_formula_units_Z  1
loop_
  _symmetry_equiv_pos_site_id
 _symmetry_equiv_pos_as_xyz
 1  'x, y, z'
loop_
 _atom_site_type_symbol
 _atom_site_label
 _atom_site_symmetry_multiplicity
 _atom_site_fract_x
 _atom_site_fract_y
 _atom_site_fract_z
 _atom_site_fract_occupancy
 As  As1  1  0.22504  0.22504  0.32488  1
 As  As2  1  0.77496  0.77496  0.67512  1
 As  As3  1  0.00000  0.00000  0.00000  1
 Na  Na1  1  0.50000  0.50000  0.50000  1
 Zn  Zn1  1  0.09239  0.09239  0.72284  1
 Zn  Zn2  1  0.90761  0.90761  0.27716  1
 Zn  Zn3  1  0.30031  0.30031  0.09908  1
 Zn  Zn4  1  0.69969  0.69969  0.90092  1
