CIF file written using JARVIS-Tools package.
data_NiH2O2
_symmetry_space_group_name_H-M  'R-3m'
_cell_length_a       6.2395
_cell_length_b       6.2395
_cell_length_c       6.23949
_cell_angle_alpha    28.9807
_cell_angle_beta     28.9807
_cell_angle_gamma    28.9807

_symmetry_Int_Tables_number  166
_chemical_formula_structural  NiH2O2
_chemical_formula_sum  NiH2O2
_cell_volume  50.43646773201067
_cell_formula_units_Z  1
loop_
  _symmetry_equiv_pos_site_id
 _symmetry_equiv_pos_as_xyz
 1  'x, y, z'
loop_
 _atom_site_type_symbol
 _atom_site_label
 _atom_site_symmetry_multiplicity
 _atom_site_fract_x
 _atom_site_fract_y
 _atom_site_fract_z
 _atom_site_fract_occupancy
 H  H1  1  0.55609  0.55609  0.55609  1
 H  H2  1  0.44391  0.44391  0.44391  1
 Ni  Ni1  1  0.00000  0.00000  0.00000  1
 O  O1  1  0.61048  0.61048  0.61048  1
 O  O2  1  0.38952  0.38952  0.38952  1
