CIF file written using JARVIS-Tools package.
data_K3Pd2O4
_symmetry_space_group_name_H-M  'Cmcm'
_cell_length_a       5.51071
_cell_length_b       5.51072
_cell_length_c       11.4115
_cell_angle_alpha    90
_cell_angle_beta     90
_cell_angle_gamma    112.22

_symmetry_Int_Tables_number  63
_chemical_formula_structural  K3Pd2O4
_chemical_formula_sum  K6Pd4O8
_cell_volume  320.80991508907573
_cell_formula_units_Z  2
loop_
  _symmetry_equiv_pos_site_id
 _symmetry_equiv_pos_as_xyz
 1  'x, y, z'
loop_
 _atom_site_type_symbol
 _atom_site_label
 _atom_site_symmetry_multiplicity
 _atom_site_fract_x
 _atom_site_fract_y
 _atom_site_fract_z
 _atom_site_fract_occupancy
 K  K1  1  0.35308  0.64692  0.56841  1
 K  K2  1  0.64692  0.35308  0.06841  1
 K  K3  1  0.28364  0.71636  0.25000  1
 K  K4  1  0.64692  0.35308  0.43159  1
 K  K5  1  0.71636  0.28364  0.75000  1
 K  K6  1  0.35308  0.64692  0.93159  1
 O  O1  1  0.86971  0.70317  0.61520  1
 O  O2  1  0.70317  0.86971  0.11520  1
 O  O3  1  0.29683  0.13029  0.61520  1
 O  O4  1  0.70317  0.86971  0.38480  1
 O  O5  1  0.13029  0.29683  0.38480  1
 O  O6  1  0.86971  0.70317  0.88480  1
 O  O7  1  0.29683  0.13029  0.88480  1
 O  O8  1  0.13029  0.29683  0.11520  1
 Pd  Pd1  1  0.00000  0.00000  0.00000  1
 Pd  Pd2  1  0.92229  0.07771  0.25000  1
 Pd  Pd3  1  0.00000  0.00000  0.50000  1
 Pd  Pd4  1  0.07771  0.92229  0.75000  1
