CIF file written using JARVIS-Tools package.
data_Si2H2O5
_symmetry_space_group_name_H-M  'Cc'
_cell_length_a       9.66447
_cell_length_b       8.17272
_cell_length_c       8.17272
_cell_angle_alpha    140.309
_cell_angle_beta     48.7009
_cell_angle_gamma    148.75

_symmetry_Int_Tables_number  9
_chemical_formula_structural  Si2H2O5
_chemical_formula_sum  Si4H4O0
_cell_volume  213.8653458385191
_cell_formula_units_Z  2
loop_
  _symmetry_equiv_pos_site_id
 _symmetry_equiv_pos_as_xyz
 1  'x, y, z'
loop_
 _atom_site_type_symbol
 _atom_site_label
 _atom_site_symmetry_multiplicity
 _atom_site_fract_x
 _atom_site_fract_y
 _atom_site_fract_z
 _atom_site_fract_occupancy
 H  H1  1  0.62726  0.74234  0.46596  1
 H  H2  1  0.38260  0.30740  0.56724  1
 H  H3  1  0.88260  0.81536  0.57520  1
 H  H4  1  0.12726  0.16131  0.38492  1
 O  O1  1  0.52551  0.32038  0.46265  1
 O  O2  1  0.02551  0.06286  0.70513  1
 O  O3  1  0.96996  0.98247  0.01291  1
 O  O4  1  0.10880  0.67395  0.79049  1
 O  O5  1  0.46996  0.95704  0.48749  1
 O  O6  1  0.63422  0.93099  0.05755  1
 O  O7  1  -0.04668  -0.08923  0.29619  1
 O  O8  1  0.45332  0.65713  0.54255  1
 O  O9  1  0.13422  0.57667  0.20323  1
 O  O10  1  0.60880  0.31831  0.93485  1
 Si  Si1  1  -0.08406  0.72846  0.00870  1
 Si  Si2  1  0.93911  0.13291  -0.00844  1
 Si  Si3  1  0.43911  0.94755  0.30620  1
 Si  Si4  1  0.41594  -0.09276  0.68749  1
