CIF file written using JARVIS-Tools package.
data_Mn6OF11
_symmetry_space_group_name_H-M  'C2'
_cell_length_a       7.65634
_cell_length_b       5.84562
_cell_length_c       5.84562
_cell_angle_alpha    70.7843
_cell_angle_beta     73.1838
_cell_angle_gamma    73.1838

_symmetry_Int_Tables_number  5
_chemical_formula_structural  Mn6OF11
_chemical_formula_sum  Mn6OF
_cell_volume  230.9699288738497
_cell_formula_units_Z  1
loop_
  _symmetry_equiv_pos_site_id
 _symmetry_equiv_pos_as_xyz
 1  'x, y, z'
loop_
 _atom_site_type_symbol
 _atom_site_label
 _atom_site_symmetry_multiplicity
 _atom_site_fract_x
 _atom_site_fract_y
 _atom_site_fract_z
 _atom_site_fract_occupancy
 F  F1  1  0.37087  0.42618  0.44095  1
 F  F2  1  0.67486  0.00802  0.63588  1
 F  F3  1  0.66630  0.63332  0.03352  1
 F  F4  1  0.29708  0.90421  0.89597  1
 F  F5  1  0.62913  0.55905  0.57382  1
 F  F6  1  0.32514  0.36412  0.99198  1
 F  F7  1  0.70292  0.10403  0.09579  1
 F  F8  1  0.03242  0.77703  0.76375  1
 F  F9  1  -0.00000  0.72055  0.27945  1
 F  F10  1  0.33370  0.96648  0.36668  1
 F  F11  1  0.96758  0.23625  0.22297  1
 Mn  Mn1  1  -0.00000  0.02750  0.97250  1
 Mn  Mn2  1  0.50000  0.99793  0.00207  1
 Mn  Mn3  1  0.15631  0.33288  0.35480  1
 Mn  Mn4  1  0.33072  0.66064  0.67431  1
 Mn  Mn5  1  0.66928  0.32569  0.33936  1
 Mn  Mn6  1  0.84369  0.64520  0.66712  1
 O  O1  1  -0.00000  0.31092  0.68908  1
