CIF file written using JARVIS-Tools package.
data_BeGaRu
_symmetry_space_group_name_H-M  'I4mm'
_cell_length_a       4.63401
_cell_length_b       4.63401
_cell_length_c       4.63401
_cell_angle_alpha    142.143
_cell_angle_beta     142.143
_cell_angle_gamma    54.6128

_symmetry_Int_Tables_number  107
_chemical_formula_structural  BeGaRu
_chemical_formula_sum  BeGaRu
_cell_volume  37.21678309734566
_cell_formula_units_Z  1
loop_
  _symmetry_equiv_pos_site_id
 _symmetry_equiv_pos_as_xyz
 1  'x, y, z'
loop_
 _atom_site_type_symbol
 _atom_site_label
 _atom_site_symmetry_multiplicity
 _atom_site_fract_x
 _atom_site_fract_y
 _atom_site_fract_z
 _atom_site_fract_occupancy
 Be  Be1  1  0.02288  0.02288  0.00000  1
 Ga  Ga1  1  0.33119  0.33119  -0.00000  1
 Ru  Ru1  1  0.64593  0.64593  0.00000  1
