CIF file written using JARVIS-Tools package.
data_MnBeGa
_symmetry_space_group_name_H-M  'I4mm'
_cell_length_a       4.79571
_cell_length_b       4.79571
_cell_length_c       4.79571
_cell_angle_alpha    146.047
_cell_angle_beta     146.047
_cell_angle_gamma    48.7766

_symmetry_Int_Tables_number  107
_chemical_formula_structural  MnBeGa
_chemical_formula_sum  MnBeGa
_cell_volume  34.25522925851062
_cell_formula_units_Z  1
loop_
  _symmetry_equiv_pos_site_id
 _symmetry_equiv_pos_as_xyz
 1  'x, y, z'
loop_
 _atom_site_type_symbol
 _atom_site_label
 _atom_site_symmetry_multiplicity
 _atom_site_fract_x
 _atom_site_fract_y
 _atom_site_fract_z
 _atom_site_fract_occupancy
 Be  Be1  1  0.01279  0.01279  0.00000  1
 Ga  Ga1  1  0.33698  0.33698  -0.00000  1
 Mn  Mn1  1  0.65023  0.65023  -0.00000  1
