CIF file written using JARVIS-Tools package.
data_Li2AlFeO4
_symmetry_space_group_name_H-M  'Pmn2_1'
_cell_length_a       4.98218
_cell_length_b       5.47484
_cell_length_c       6.2231
_cell_angle_alpha    90
_cell_angle_beta     90
_cell_angle_gamma    90

_symmetry_Int_Tables_number  31
_chemical_formula_structural  Li2AlFeO4
_chemical_formula_sum  Li4Al2Fe2O8
_cell_volume  169.7451040307248
_cell_formula_units_Z  2
loop_
  _symmetry_equiv_pos_site_id
 _symmetry_equiv_pos_as_xyz
 1  'x, y, z'
loop_
 _atom_site_type_symbol
 _atom_site_label
 _atom_site_symmetry_multiplicity
 _atom_site_fract_x
 _atom_site_fract_y
 _atom_site_fract_z
 _atom_site_fract_occupancy
 Al  Al1  1  0.50115  0.83034  0.00000  1
 Al  Al2  1  0.00115  0.16966  0.50000  1
 Fe  Fe1  1  0.00343  0.16817  0.00000  1
 Fe  Fe2  1  0.50343  0.83183  0.50000  1
 Li  Li1  1  0.00632  0.66627  0.25056  1
 Li  Li2  1  0.50632  0.33373  0.24944  1
 Li  Li3  1  0.00632  0.66627  0.74944  1
 Li  Li4  1  0.50632  0.33373  0.75056  1
 O  O1  1  0.14213  0.84528  0.00000  1
 O  O2  1  0.62425  0.13764  0.00000  1
 O  O3  1  0.10820  0.32242  0.26112  1
 O  O4  1  0.60820  0.67758  0.23888  1
 O  O5  1  0.12425  0.86236  0.50000  1
 O  O6  1  0.64213  0.15472  0.50000  1
 O  O7  1  0.60820  0.67758  0.76112  1
 O  O8  1  0.10820  0.32242  0.73888  1
