CIF file written using JARVIS-Tools package.
data_Na2Si4Cu2O11
_symmetry_space_group_name_H-M  'P1'
_cell_length_a       5.22877
_cell_length_b       6.35286
_cell_length_c       8.35511
_cell_angle_alpha    97.1412
_cell_angle_beta     97.698
_cell_angle_gamma    100.609

_symmetry_Int_Tables_number  1
_chemical_formula_structural  Na2Si4Cu2O11
_chemical_formula_sum  Na2Si4Cu2O
_cell_volume  267.15404418031704
_cell_formula_units_Z  1
loop_
  _symmetry_equiv_pos_site_id
 _symmetry_equiv_pos_as_xyz
 1  'x, y, z'
loop_
 _atom_site_type_symbol
 _atom_site_label
 _atom_site_symmetry_multiplicity
 _atom_site_fract_x
 _atom_site_fract_y
 _atom_site_fract_z
 _atom_site_fract_occupancy
 Cu  Cu1  1  0.99034  0.86586  0.32015  1
 Cu  Cu2  1  0.70027  0.88941  0.92939  1
 Na  Na1  1  0.87284  0.35295  0.19325  1
 Na  Na2  1  0.12716  0.64705  0.80675  1
 O  O1  1  0.28449  0.32515  0.72016  1
 O  O2  1  -0.00000  0.00000  0.50000  1
 O  O3  1  0.59767  0.17512  0.94696  1
 O  O4  1  0.40232  0.82488  0.05304  1
 O  O5  1  0.71551  0.67485  0.27984  1
 O  O6  1  0.00118  0.02487  0.18379  1
 O  O7  1  0.72699  0.58870  0.89694  1
 O  O8  1  -0.00118  0.97513  0.81621  1
 O  O9  1  0.76856  0.26931  0.67256  1
 O  O10  1  0.23144  0.73069  0.32744  1
 O  O11  1  0.27301  0.41130  0.10306  1
 Si  Si1  1  0.29973  0.11059  0.07061  1
 Si  Si2  1  0.59152  0.34535  0.81296  1
 Si  Si3  1  0.00966  0.13414  0.67985  1
 Si  Si4  1  0.40848  0.65465  0.18704  1
