CIF file written using JARVIS-Tools package.
data_ErCo12B6
_symmetry_space_group_name_H-M  'R-3m'
_cell_length_a       5.94676
_cell_length_b       5.94676
_cell_length_c       5.94677
_cell_angle_alpha    104.069
_cell_angle_beta     104.069
_cell_angle_gamma    104.069

_symmetry_Int_Tables_number  166
_chemical_formula_structural  ErCo12B6
_chemical_formula_sum  ErCo2B6
_cell_volume  187.39327472698392
_cell_formula_units_Z  1
loop_
  _symmetry_equiv_pos_site_id
 _symmetry_equiv_pos_as_xyz
 1  'x, y, z'
loop_
 _atom_site_type_symbol
 _atom_site_label
 _atom_site_symmetry_multiplicity
 _atom_site_fract_x
 _atom_site_fract_y
 _atom_site_fract_z
 _atom_site_fract_occupancy
 B  B1  1  0.32041  0.76700  0.76700  1
 B  B2  1  0.76700  0.32041  0.76700  1
 B  B3  1  0.67959  0.23300  0.23300  1
 B  B4  1  0.23300  0.67959  0.23300  1
 B  B5  1  0.23300  0.23300  0.67959  1
 B  B6  1  0.76700  0.76700  0.32041  1
 Co  Co1  1  0.50000  0.86789  0.13211  1
 Co  Co2  1  0.86789  0.13211  0.50000  1
 Co  Co3  1  0.13211  0.50000  0.86789  1
 Co  Co4  1  0.13211  0.86789  0.50000  1
 Co  Co5  1  0.86789  0.50000  0.13211  1
 Co  Co6  1  0.50000  0.13211  0.86789  1
 Co  Co7  1  0.81399  0.54605  0.54605  1
 Co  Co8  1  0.54605  0.54605  0.81399  1
 Co  Co9  1  0.54605  0.81399  0.54605  1
 Co  Co10  1  0.18601  0.45395  0.45395  1
 Co  Co11  1  0.45395  0.18601  0.45395  1
 Co  Co12  1  0.45395  0.45395  0.18601  1
 Er  Er1  1  0.00000  0.00000  0.00000  1
