CIF file written using JARVIS-Tools package.
data_DyZrSb
_symmetry_space_group_name_H-M  'I4/mmm'
_cell_length_a       4.26567
_cell_length_b       4.26566
_cell_length_c       8.83241
_cell_angle_alpha    103.974
_cell_angle_beta     103.974
_cell_angle_gamma    89.9999

_symmetry_Int_Tables_number  139
_chemical_formula_structural  DyZrSb
_chemical_formula_sum  Dy2Zr2Sb2
_cell_volume  151.05147755109195
_cell_formula_units_Z  2
loop_
  _symmetry_equiv_pos_site_id
 _symmetry_equiv_pos_as_xyz
 1  'x, y, z'
loop_
 _atom_site_type_symbol
 _atom_site_label
 _atom_site_symmetry_multiplicity
 _atom_site_fract_x
 _atom_site_fract_y
 _atom_site_fract_z
 _atom_site_fract_occupancy
 Dy  Dy1  1  0.67654  0.67654  0.35308  1
 Dy  Dy2  1  0.32346  0.32346  0.64692  1
 Sb  Sb1  1  0.13413  0.13413  0.26826  1
 Sb  Sb2  1  0.86587  0.86587  0.73174  1
 Zr  Zr1  1  -0.00000  0.50000  0.00000  1
 Zr  Zr2  1  0.50000  -0.00000  -0.00000  1
