CIF file written using JARVIS-Tools package.
data_IN2O6
_symmetry_space_group_name_H-M  'R-3'
_cell_length_a       7.34871
_cell_length_b       7.34871
_cell_length_c       7.3487
_cell_angle_alpha    37.4579
_cell_angle_beta     37.4579
_cell_angle_gamma    37.4579

_symmetry_Int_Tables_number  148
_chemical_formula_structural  IN2O6
_chemical_formula_sum  IN2O6
_cell_volume  131.63411668552823
_cell_formula_units_Z  1
loop_
  _symmetry_equiv_pos_site_id
 _symmetry_equiv_pos_as_xyz
 1  'x, y, z'
loop_
 _atom_site_type_symbol
 _atom_site_label
 _atom_site_symmetry_multiplicity
 _atom_site_fract_x
 _atom_site_fract_y
 _atom_site_fract_z
 _atom_site_fract_occupancy
 I  I1  1  0.00000  0.00000  0.00000  1
 N  N1  1  0.57319  0.57319  0.57319  1
 N  N2  1  0.42681  0.42681  0.42681  1
 O  O1  1  0.84465  0.30523  0.57115  1
 O  O2  1  0.30523  0.57115  0.84465  1
 O  O3  1  0.57115  0.84465  0.30523  1
 O  O4  1  0.15535  0.69477  0.42885  1
 O  O5  1  0.69477  0.42885  0.15535  1
 O  O6  1  0.42885  0.15535  0.69477  1
