CIF file written using JARVIS-Tools package.
data_ZnWO4
_symmetry_space_group_name_H-M  'C2/c'
_cell_length_a       4.81998
_cell_length_b       4.86597
_cell_length_c       7.16453
_cell_angle_alpha    107.968
_cell_angle_beta     107.753
_cell_angle_gamma    95.3104

_symmetry_Int_Tables_number  15
_chemical_formula_structural  ZnWO4
_chemical_formula_sum  Zn2W2O8
_cell_volume  148.9649302388928
_cell_formula_units_Z  2
loop_
  _symmetry_equiv_pos_site_id
 _symmetry_equiv_pos_as_xyz
 1  'x, y, z'
loop_
 _atom_site_type_symbol
 _atom_site_label
 _atom_site_symmetry_multiplicity
 _atom_site_fract_x
 _atom_site_fract_y
 _atom_site_fract_z
 _atom_site_fract_occupancy
 O  O1  1  0.87156  0.59375  0.65172  1
 O  O2  1  0.50697  0.26681  0.08957  1
 O  O3  1  0.71982  0.94206  0.34829  1
 O  O4  1  0.91741  0.17724  0.91043  1
 O  O5  1  0.12844  0.40625  0.34828  1
 O  O6  1  0.28018  0.05794  0.65171  1
 O  O7  1  0.49303  0.73319  0.91043  1
 O  O8  1  0.08259  0.82276  0.08957  1
 W  W1  1  0.83848  0.08849  0.17697  1
 W  W2  1  0.16152  0.91151  0.82303  1
 Zn  Zn1  1  0.37060  0.62063  0.24123  1
 Zn  Zn2  1  0.62940  0.37937  0.75877  1
