CIF file written using JARVIS-Tools package.
data_Ba2NO6
_symmetry_space_group_name_H-M  'P-62m'
_cell_length_a       3.91255
_cell_length_b       6.83362
_cell_length_c       6.83376
_cell_angle_alpha    119.999
_cell_angle_beta     90
_cell_angle_gamma    90

_symmetry_Int_Tables_number  189
_chemical_formula_structural  Ba2NO6
_chemical_formula_sum  Ba2NO6
_cell_volume  158.2354558181982
_cell_formula_units_Z  1
loop_
  _symmetry_equiv_pos_site_id
 _symmetry_equiv_pos_as_xyz
 1  'x, y, z'
loop_
 _atom_site_type_symbol
 _atom_site_label
 _atom_site_symmetry_multiplicity
 _atom_site_fract_x
 _atom_site_fract_y
 _atom_site_fract_z
 _atom_site_fract_occupancy
 Ba  Ba1  1  0.00000  0.33333  0.66667  1
 Ba  Ba2  1  0.00000  0.66665  0.33333  1
 N  N1  1  0.00000  -0.00001  -0.00000  1
 O  O1  1  0.00000  0.81453  0.00000  1
 O  O2  1  0.00000  0.18545  0.18546  1
 O  O3  1  0.00000  -0.00001  0.81454  1
 O  O4  1  0.50000  0.46953  0.00000  1
 O  O5  1  0.50000  0.53044  0.53045  1
 O  O6  1  0.50000  0.99999  0.46955  1
