CIF file written using JARVIS-Tools package.
data_CeNi2As2
_symmetry_space_group_name_H-M  'P4/nmm'
_cell_length_a       4.25007
_cell_length_b       4.25035
_cell_length_c       9.2487
_cell_angle_alpha    89.9991
_cell_angle_beta     90
_cell_angle_gamma    90.004

_symmetry_Int_Tables_number  129
_chemical_formula_structural  CeNi2As2
_chemical_formula_sum  Ce2Ni4As4
_cell_volume  167.0709710867373
_cell_formula_units_Z  2
loop_
  _symmetry_equiv_pos_site_id
 _symmetry_equiv_pos_as_xyz
 1  'x, y, z'
loop_
 _atom_site_type_symbol
 _atom_site_label
 _atom_site_symmetry_multiplicity
 _atom_site_fract_x
 _atom_site_fract_y
 _atom_site_fract_z
 _atom_site_fract_occupancy
 As  As1  1  0.75001  0.75000  0.37083  1
 As  As2  1  0.25000  0.75000  0.00000  1
 As  As3  1  0.75000  0.25000  -0.00000  1
 As  As4  1  0.24999  0.25000  0.62916  1
 Ce  Ce1  1  0.25001  0.25000  0.25514  1
 Ce  Ce2  1  0.74999  0.75000  0.74486  1
 Ni  Ni1  1  0.25000  0.25000  0.88318  1
 Ni  Ni2  1  0.25000  0.75001  0.50000  1
 Ni  Ni3  1  0.75000  0.75000  0.11683  1
 Ni  Ni4  1  0.75000  0.24999  0.50000  1
