CIF file written using JARVIS-Tools package.
data_Li2MnF6
_symmetry_space_group_name_H-M  'P321'
_cell_length_a       8.42165
_cell_length_b       8.42169
_cell_length_c       4.56808
_cell_angle_alpha    90.0039
_cell_angle_beta     89.998
_cell_angle_gamma    120

_symmetry_Int_Tables_number  150
_chemical_formula_structural  Li2MnF6
_chemical_formula_sum  Li6Mn3F8
_cell_volume  280.5833393580543
_cell_formula_units_Z  3
loop_
  _symmetry_equiv_pos_site_id
 _symmetry_equiv_pos_as_xyz
 1  'x, y, z'
loop_
 _atom_site_type_symbol
 _atom_site_label
 _atom_site_symmetry_multiplicity
 _atom_site_fract_x
 _atom_site_fract_y
 _atom_site_fract_z
 _atom_site_fract_occupancy
 F  F1  1  0.54887  0.12653  0.26478  1
 F  F2  1  0.09785  0.89013  0.77607  1
 F  F3  1  0.22250  0.76350  0.28370  1
 F  F4  1  0.12654  0.54888  0.73521  1
 F  F5  1  0.42233  0.87346  0.73522  1
 F  F6  1  0.87345  0.42233  0.26479  1
 F  F7  1  0.10986  0.20772  0.77609  1
 F  F8  1  0.20772  0.10987  0.22392  1
 F  F9  1  0.23649  0.45899  0.28369  1
 F  F10  1  0.54099  0.77749  0.28369  1
 F  F11  1  0.57766  0.45112  0.26478  1
 F  F12  1  0.79227  0.90214  0.77609  1
 F  F13  1  0.45112  0.57767  0.73521  1
 F  F14  1  0.89013  0.09785  0.22393  1
 F  F15  1  0.90214  0.79228  0.22391  1
 F  F16  1  0.76350  0.22251  0.71630  1
 F  F17  1  0.45900  0.23650  0.71630  1
 F  F18  1  0.77749  0.54101  0.71632  1
 Li  Li1  1  0.63599  -0.00000  -0.00001  1
 Li  Li2  1  0.69880  0.69880  0.50000  1
 Li  Li3  1  0.30119  0.00001  0.49998  1
 Li  Li4  1  0.36401  0.36401  -0.00000  1
 Li  Li5  1  0.00000  0.30120  0.50002  1
 Li  Li6  1  -0.00001  0.63599  0.00002  1
 Mn  Mn1  1  0.33333  0.66667  0.50927  1
 Mn  Mn2  1  0.66666  0.33333  0.49073  1
 Mn  Mn3  1  -0.00000  -0.00000  -0.00000  1
