CIF file written using JARVIS-Tools package.
data_BeTeBr
_symmetry_space_group_name_H-M  'P3m1'
_cell_length_a       3.46101
_cell_length_b       3.46101
_cell_length_c       6.74446
_cell_angle_alpha    90
_cell_angle_beta     90
_cell_angle_gamma    120

_symmetry_Int_Tables_number  156
_chemical_formula_structural  BeTeBr
_chemical_formula_sum  BeTeBr
_cell_volume  69.96547823184724
_cell_formula_units_Z  1
loop_
  _symmetry_equiv_pos_site_id
 _symmetry_equiv_pos_as_xyz
 1  'x, y, z'
loop_
 _atom_site_type_symbol
 _atom_site_label
 _atom_site_symmetry_multiplicity
 _atom_site_fract_x
 _atom_site_fract_y
 _atom_site_fract_z
 _atom_site_fract_occupancy
 Be  Be1  1  0.00000  0.00000  0.97593  1
 Br  Br1  1  0.33333  0.66667  0.77979  1
 Te  Te1  1  0.66667  0.33333  0.24428  1
