CIF file written using JARVIS-Tools package.
data_TbInPt2
_symmetry_space_group_name_H-M  'P6_3/mmc'
_cell_length_a       4.58242
_cell_length_b       4.58242
_cell_length_c       9.07013
_cell_angle_alpha    90
_cell_angle_beta     90
_cell_angle_gamma    119.996

_symmetry_Int_Tables_number  194
_chemical_formula_structural  TbInPt2
_chemical_formula_sum  Tb2In2Pt4
_cell_volume  164.94864092865652
_cell_formula_units_Z  2
loop_
  _symmetry_equiv_pos_site_id
 _symmetry_equiv_pos_as_xyz
 1  'x, y, z'
loop_
 _atom_site_type_symbol
 _atom_site_label
 _atom_site_symmetry_multiplicity
 _atom_site_fract_x
 _atom_site_fract_y
 _atom_site_fract_z
 _atom_site_fract_occupancy
 In  In1  1  0.00000  0.00000  0.50000  1
 In  In2  1  0.00000  0.00000  0.00000  1
 Pt  Pt1  1  0.66665  0.33335  0.09268  1
 Pt  Pt2  1  0.33335  0.66665  0.90732  1
 Pt  Pt3  1  0.33335  0.66665  0.59268  1
 Pt  Pt4  1  0.66665  0.33335  0.40732  1
 Tb  Tb1  1  0.66668  0.33332  0.75000  1
 Tb  Tb2  1  0.33332  0.66668  0.25000  1
