CIF file written using JARVIS-Tools package.
data_SiTe2
_symmetry_space_group_name_H-M  'P-3m1'
_cell_length_a       3.82782
_cell_length_b       3.82782
_cell_length_c       6.74896
_cell_angle_alpha    90
_cell_angle_beta     90
_cell_angle_gamma    120

_symmetry_Int_Tables_number  164
_chemical_formula_structural  SiTe2
_chemical_formula_sum  SiTe2
_cell_volume  85.63904579751033
_cell_formula_units_Z  1
loop_
  _symmetry_equiv_pos_site_id
 _symmetry_equiv_pos_as_xyz
 1  'x, y, z'
loop_
 _atom_site_type_symbol
 _atom_site_label
 _atom_site_symmetry_multiplicity
 _atom_site_fract_x
 _atom_site_fract_y
 _atom_site_fract_z
 _atom_site_fract_occupancy
 Si  Si1  1  0.00000  0.00000  0.00000  1
 Te  Te1  1  0.33333  0.66667  0.75647  1
 Te  Te2  1  0.66667  0.33333  0.24353  1
