CIF file written using JARVIS-Tools package.
data_KTaB2O6
_symmetry_space_group_name_H-M  'Pmn2_1'
_cell_length_a       3.93324
_cell_length_b       7.45399
_cell_length_c       9.2653
_cell_angle_alpha    90
_cell_angle_beta     90
_cell_angle_gamma    90

_symmetry_Int_Tables_number  31
_chemical_formula_structural  KTaB2O6
_chemical_formula_sum  K2Ta2B4O2
_cell_volume  271.64297595430975
_cell_formula_units_Z  2
loop_
  _symmetry_equiv_pos_site_id
 _symmetry_equiv_pos_as_xyz
 1  'x, y, z'
loop_
 _atom_site_type_symbol
 _atom_site_label
 _atom_site_symmetry_multiplicity
 _atom_site_fract_x
 _atom_site_fract_y
 _atom_site_fract_z
 _atom_site_fract_occupancy
 B  B1  1  0.01443  0.66677  0.45529  1
 B  B2  1  0.98557  0.16677  0.95529  1
 B  B3  1  0.01443  0.33323  0.45529  1
 B  B4  1  0.98557  0.83323  0.95529  1
 K  K1  1  0.52955  0.50000  0.14056  1
 K  K2  1  0.47045  0.00000  0.64056  1
 O  O1  1  0.16944  0.80828  0.39026  1
 O  O2  1  0.85271  0.68441  0.58444  1
 O  O3  1  0.83056  0.30828  0.89026  1
 O  O4  1  0.67111  0.00000  0.24391  1
 O  O5  1  0.16944  0.19172  0.39026  1
 O  O6  1  0.14729  0.18441  0.08444  1
 O  O7  1  0.85271  0.31559  0.58444  1
 O  O8  1  0.83056  0.69172  0.89026  1
 O  O9  1  0.32889  0.50000  0.74391  1
 O  O10  1  0.95998  0.00000  0.88423  1
 O  O11  1  0.14729  0.81559  0.08444  1
 O  O12  1  0.04002  0.50000  0.38423  1
 Ta  Ta1  1  0.80168  0.50000  0.74452  1
 Ta  Ta2  1  0.19832  0.00000  0.24452  1
