CIF file written using JARVIS-Tools package.
data_Ca2BrN
_symmetry_space_group_name_H-M  'R-3m'
_cell_length_a       7.17403
_cell_length_b       7.17403
_cell_length_c       7.17403
_cell_angle_alpha    29.8726
_cell_angle_beta     29.8726
_cell_angle_gamma    29.8726

_symmetry_Int_Tables_number  166
_chemical_formula_structural  Ca2BrN
_chemical_formula_sum  Ca2BrN
_cell_volume  81.11841895450719
_cell_formula_units_Z  1
loop_
  _symmetry_equiv_pos_site_id
 _symmetry_equiv_pos_as_xyz
 1  'x, y, z'
loop_
 _atom_site_type_symbol
 _atom_site_label
 _atom_site_symmetry_multiplicity
 _atom_site_fract_x
 _atom_site_fract_y
 _atom_site_fract_z
 _atom_site_fract_occupancy
 Br  Br1  1  0.00000  0.00000  0.00000  1
 Ca  Ca1  1  0.22596  0.22596  0.22596  1
 Ca  Ca2  1  0.77404  0.77404  0.77404  1
 N  N1  1  0.50000  0.50000  0.50000  1
