CIF file written using JARVIS-Tools package.
data_NdFeGe2
_symmetry_space_group_name_H-M  'Cmcm'
_cell_length_a       4.31379
_cell_length_b       4.31987
_cell_length_c       8.5184
_cell_angle_alpha    104.688
_cell_angle_beta     90
_cell_angle_gamma    90

_symmetry_Int_Tables_number  63
_chemical_formula_structural  NdFeGe2
_chemical_formula_sum  Nd2Fe2Ge4
_cell_volume  153.55295373113205
_cell_formula_units_Z  2
loop_
  _symmetry_equiv_pos_site_id
 _symmetry_equiv_pos_as_xyz
 1  'x, y, z'
loop_
 _atom_site_type_symbol
 _atom_site_label
 _atom_site_symmetry_multiplicity
 _atom_site_fract_x
 _atom_site_fract_y
 _atom_site_fract_z
 _atom_site_fract_occupancy
 Fe  Fe1  1  0.75000  0.31326  0.62652  1
 Fe  Fe2  1  0.25000  0.68674  0.37348  1
 Ge  Ge1  1  0.75000  0.45294  0.90588  1
 Ge  Ge2  1  0.25000  0.54706  0.09412  1
 Ge  Ge3  1  0.75000  0.74985  0.49971  1
 Ge  Ge4  1  0.25000  0.25015  0.50029  1
 Nd  Nd1  1  0.75000  0.10658  0.21316  1
 Nd  Nd2  1  0.25000  0.89342  0.78684  1
