CIF file written using JARVIS-Tools package.
data_V2CN
_symmetry_space_group_name_H-M  'I4_1/amd'
_cell_length_a       5.8554
_cell_length_b       7.76337
_cell_length_c       5.09745
_cell_angle_alpha    29.1665
_cell_angle_beta     54.9454
_cell_angle_gamma    41.041

_symmetry_Int_Tables_number  141
_chemical_formula_structural  V2CN
_chemical_formula_sum  V4C2N2
_cell_volume  71.53221828865847
_cell_formula_units_Z  2
loop_
  _symmetry_equiv_pos_site_id
 _symmetry_equiv_pos_as_xyz
 1  'x, y, z'
loop_
 _atom_site_type_symbol
 _atom_site_label
 _atom_site_symmetry_multiplicity
 _atom_site_fract_x
 _atom_site_fract_y
 _atom_site_fract_z
 _atom_site_fract_occupancy
 C  C1  1  0.75072  0.00323  0.49648  1
 C  C2  1  0.50073  0.50322  0.49649  1
 N  N1  1  0.25071  0.00322  0.49649  1
 N  N2  1  0.00073  0.50325  0.49644  1
 V  V1  1  0.99367  0.00327  0.01057  1
 V  V2  1  0.50778  0.00324  0.98234  1
 V  V3  1  0.25779  0.50318  0.98239  1
 V  V4  1  0.74365  0.50324  0.01060  1
