CIF file written using JARVIS-Tools package.
data_YGaO3
_symmetry_space_group_name_H-M  'P6_3cm'
_cell_length_a       6.09134
_cell_length_b       6.09134
_cell_length_c       11.7279
_cell_angle_alpha    90
_cell_angle_beta     90
_cell_angle_gamma    120

_symmetry_Int_Tables_number  185
_chemical_formula_structural  YGaO3
_chemical_formula_sum  Y6Ga6O8
_cell_volume  376.85740218582595
_cell_formula_units_Z  6
loop_
  _symmetry_equiv_pos_site_id
 _symmetry_equiv_pos_as_xyz
 1  'x, y, z'
loop_
 _atom_site_type_symbol
 _atom_site_label
 _atom_site_symmetry_multiplicity
 _atom_site_fract_x
 _atom_site_fract_y
 _atom_site_fract_z
 _atom_site_fract_occupancy
 Ga  Ga1  1  0.00000  0.66580  0.49675  1
 Ga  Ga2  1  0.66580  1.00000  0.49675  1
 Ga  Ga3  1  0.66580  0.66580  0.99675  1
 Ga  Ga4  1  0.33420  0.00000  0.99675  1
 Ga  Ga5  1  0.33420  0.33420  0.49675  1
 Ga  Ga6  1  0.00000  0.33420  0.99675  1
 O  O1  1  0.00000  0.64008  0.33509  1
 O  O2  1  0.35992  0.35992  0.33509  1
 O  O3  1  0.35992  1.00000  0.83509  1
 O  O4  1  0.00000  0.30632  0.15947  1
 O  O5  1  0.00000  0.00000  0.47424  1
 O  O6  1  0.00000  0.00000  0.97424  1
 O  O7  1  0.33333  0.66667  0.01589  1
 O  O8  1  0.66667  0.33333  0.51589  1
 O  O9  1  0.33333  0.66667  0.51589  1
 O  O10  1  0.00000  0.35992  0.83509  1
 O  O11  1  0.64008  0.64008  0.83509  1
 O  O12  1  0.00000  0.69368  0.65947  1
 O  O13  1  0.30632  1.00000  0.15947  1
 O  O14  1  0.66667  0.33333  0.01589  1
 O  O15  1  0.30632  0.30632  0.65947  1
 O  O16  1  0.69368  0.69368  0.15947  1
 O  O17  1  0.69368  0.00000  0.65947  1
 O  O18  1  0.64008  0.00000  0.33509  1
 Y  Y1  1  0.00000  0.00000  0.77101  1
 Y  Y2  1  0.66667  0.33333  0.23002  1
 Y  Y3  1  0.33333  0.66667  0.73002  1
 Y  Y4  1  0.66667  0.33333  0.73002  1
 Y  Y5  1  0.33333  0.66667  0.23002  1
 Y  Y6  1  0.00000  0.00000  0.27101  1
