CIF file written using JARVIS-Tools package.
data_Li2CuSbO5
_symmetry_space_group_name_H-M  'P1'
_cell_length_a       5.08345
_cell_length_b       5.52867
_cell_length_c       7.86173
_cell_angle_alpha    103.849
_cell_angle_beta     99.9069
_cell_angle_gamma    106.481

_symmetry_Int_Tables_number  1
_chemical_formula_structural  Li2CuSbO5
_chemical_formula_sum  Li4Cu2Sb2O0
_cell_volume  198.76509341175742
_cell_formula_units_Z  2
loop_
  _symmetry_equiv_pos_site_id
 _symmetry_equiv_pos_as_xyz
 1  'x, y, z'
loop_
 _atom_site_type_symbol
 _atom_site_label
 _atom_site_symmetry_multiplicity
 _atom_site_fract_x
 _atom_site_fract_y
 _atom_site_fract_z
 _atom_site_fract_occupancy
 Cu  Cu1  1  0.01593  0.50785  0.00254  1
 Cu  Cu2  1  0.69608  0.90152  0.91008  1
 Li  Li1  1  0.20110  0.89863  0.33154  1
 Li  Li2  1  0.41775  0.29718  0.82505  1
 Li  Li3  1  0.60440  0.71211  0.24028  1
 Li  Li4  1  0.76650  0.10078  0.60784  1
 O  O1  1  0.69153  0.35151  0.06957  1
 O  O2  1  0.33321  0.64915  0.91459  1
 O  O3  1  0.13726  0.34698  0.54312  1
 O  O4  1  0.01238  0.01423  0.81293  1
 O  O5  1  0.47042  0.92899  0.70446  1
 O  O6  1  0.88782  0.67225  0.44218  1
 O  O7  1  0.79248  0.47193  0.77757  1
 O  O8  1  0.21463  0.52445  0.22399  1
 O  O9  1  0.57686  0.07952  0.36303  1
 O  O10  1  0.90594  0.94893  0.14693  1
 Sb  Sb1  1  0.88804  0.29725  0.29777  1
 Sb  Sb2  1  0.09080  0.68702  0.68764  1
