CIF file written using JARVIS-Tools package.
data_Na2TcF6
_symmetry_space_group_name_H-M  'P-31m'
_cell_length_a       4.67073
_cell_length_b       5.45716
_cell_length_c       5.45706
_cell_angle_alpha    119.995
_cell_angle_beta     89.9993
_cell_angle_gamma    90.0031

_symmetry_Int_Tables_number  162
_chemical_formula_structural  Na2TcF6
_chemical_formula_sum  Na2TcF6
_cell_volume  120.46583486337737
_cell_formula_units_Z  1
loop_
  _symmetry_equiv_pos_site_id
 _symmetry_equiv_pos_as_xyz
 1  'x, y, z'
loop_
 _atom_site_type_symbol
 _atom_site_label
 _atom_site_symmetry_multiplicity
 _atom_site_fract_x
 _atom_site_fract_y
 _atom_site_fract_z
 _atom_site_fract_occupancy
 F  F1  1  0.23656  0.70368  0.70331  1
 F  F2  1  0.23657  0.29672  0.00038  1
 F  F3  1  0.23656  0.99964  0.29636  1
 F  F4  1  0.76344  0.29632  0.29669  1
 F  F5  1  0.76343  0.70328  0.99962  1
 F  F6  1  0.76344  0.00036  0.70364  1
 Na  Na1  1  0.49941  0.33334  0.66665  1
 Na  Na2  1  0.50059  0.66666  0.33335  1
 Tc  Tc1  1  0.00000  0.00000  0.00000  1
