CIF file written using JARVIS-Tools package.
data_CuI
_symmetry_space_group_name_H-M  'F-43m'
_cell_length_a       4.29051
_cell_length_b       17.164
_cell_length_c       7.43265
_cell_angle_alpha    29.9943
_cell_angle_beta     54.7325
_cell_angle_gamma    59.9955

_symmetry_Int_Tables_number  216
_chemical_formula_structural  CuI
_chemical_formula_sum  Cu4I4
_cell_volume  223.41067006122256
_cell_formula_units_Z  4
loop_
  _symmetry_equiv_pos_site_id
 _symmetry_equiv_pos_as_xyz
 1  'x, y, z'
loop_
 _atom_site_type_symbol
 _atom_site_label
 _atom_site_symmetry_multiplicity
 _atom_site_fract_x
 _atom_site_fract_y
 _atom_site_fract_z
 _atom_site_fract_occupancy
 Cu  Cu1  1  0.80509  0.00005  0.73159  1
 Cu  Cu2  1  0.80509  0.24995  0.73177  1
 Cu  Cu3  1  0.80437  0.49994  0.73198  1
 Cu  Cu4  1  0.80437  0.75006  0.73174  1
 I  I1  1  0.05489  -0.00002  0.98177  1
 I  I2  1  0.05489  0.25002  0.98167  1
 I  I3  1  0.05435  0.50002  0.98180  1
 I  I4  1  0.05435  0.74998  0.98189  1
