CIF file written using JARVIS-Tools package.
data_Co6O7F5
_symmetry_space_group_name_H-M  'C2'
_cell_length_a       4.41247
_cell_length_b       4.41247
_cell_length_c       8.8372
_cell_angle_alpha    90.0508
_cell_angle_beta     89.9492
_cell_angle_gamma    93.2451

_symmetry_Int_Tables_number  5
_chemical_formula_structural  Co6O7F5
_chemical_formula_sum  Co6O7F5
_cell_volume  171.78361325887474
_cell_formula_units_Z  1
loop_
  _symmetry_equiv_pos_site_id
 _symmetry_equiv_pos_as_xyz
 1  'x, y, z'
loop_
 _atom_site_type_symbol
 _atom_site_label
 _atom_site_symmetry_multiplicity
 _atom_site_fract_x
 _atom_site_fract_y
 _atom_site_fract_z
 _atom_site_fract_occupancy
 Co  Co1  1  0.99089  0.00281  0.00834  1
 Co  Co2  1  0.02320  0.02320  0.33333  1
 Co  Co3  1  0.00281  0.99089  0.65833  1
 Co  Co4  1  0.52176  0.46573  0.16001  1
 Co  Co5  1  0.49797  0.49797  0.83333  1
 Co  Co6  1  0.46573  0.52176  0.50665  1
 F  F1  1  0.20083  0.79397  0.83868  1
 F  F2  1  0.22331  0.77548  0.16801  1
 F  F3  1  0.79397  0.20083  0.82799  1
 F  F4  1  0.77548  0.22331  0.49865  1
 F  F5  1  0.70391  0.70391  0.33333  1
 O  O1  1  0.31333  0.31333  0.33333  1
 O  O2  1  0.18600  0.81525  0.49755  1
 O  O3  1  0.28501  0.31295  0.66691  1
 O  O4  1  0.70690  0.68071  -0.00140  1
 O  O5  1  0.81525  0.18600  0.16912  1
 O  O6  1  0.31295  0.28501  -0.00024  1
 O  O7  1  0.68071  0.70690  0.66807  1
