CIF file written using JARVIS-Tools package.
data_BeTlCu
_symmetry_space_group_name_H-M  'I4mm'
_cell_length_a       5.90935
_cell_length_b       5.90935
_cell_length_c       5.90935
_cell_angle_alpha    149.783
_cell_angle_beta     149.783
_cell_angle_gamma    43.2594

_symmetry_Int_Tables_number  107
_chemical_formula_structural  BeTlCu
_chemical_formula_sum  BeTlCu
_cell_volume  52.12773117467423
_cell_formula_units_Z  1
loop_
  _symmetry_equiv_pos_site_id
 _symmetry_equiv_pos_as_xyz
 1  'x, y, z'
loop_
 _atom_site_type_symbol
 _atom_site_label
 _atom_site_symmetry_multiplicity
 _atom_site_fract_x
 _atom_site_fract_y
 _atom_site_fract_z
 _atom_site_fract_occupancy
 Be  Be1  1  0.93968  0.93968  0.00000  1
 Cu  Cu1  1  0.39112  0.39112  -0.00000  1
 Tl  Tl1  1  0.66919  0.66919  -0.00000  1
