CIF file written using JARVIS-Tools package.
data_Li2Fe3F8
_symmetry_space_group_name_H-M  'P-1'
_cell_length_a       5.18705
_cell_length_b       5.87162
_cell_length_c       5.72896
_cell_angle_alpha    108.835
_cell_angle_beta     85.914
_cell_angle_gamma    118.76

_symmetry_Int_Tables_number  2
_chemical_formula_structural  Li2Fe3F8
_chemical_formula_sum  Li2Fe3F8
_cell_volume  144.02506915610218
_cell_formula_units_Z  1
loop_
  _symmetry_equiv_pos_site_id
 _symmetry_equiv_pos_as_xyz
 1  'x, y, z'
loop_
 _atom_site_type_symbol
 _atom_site_label
 _atom_site_symmetry_multiplicity
 _atom_site_fract_x
 _atom_site_fract_y
 _atom_site_fract_z
 _atom_site_fract_occupancy
 F  F1  1  0.45850  0.22117  0.06859  1
 F  F2  1  0.46869  0.22448  0.54899  1
 F  F3  1  0.03882  0.72401  0.68551  1
 F  F4  1  0.00561  0.76575  0.19084  1
 F  F5  1  0.99439  0.23425  0.80916  1
 F  F6  1  0.96118  0.27599  0.31449  1
 F  F7  1  0.53131  0.77552  0.45101  1
 F  F8  1  0.54150  0.77883  0.93141  1
 Fe  Fe1  1  0.00000  0.00000  0.00000  1
 Fe  Fe2  1  0.72026  0.52234  0.38553  1
 Fe  Fe3  1  0.27974  0.47766  0.61447  1
 Li  Li1  1  0.58816  0.09579  0.75634  1
 Li  Li2  1  0.41184  0.90421  0.24366  1
