CIF file written using JARVIS-Tools package.
data_BeSnPt
_symmetry_space_group_name_H-M  'I4mm'
_cell_length_a       5.98709
_cell_length_b       5.98709
_cell_length_c       5.98709
_cell_angle_alpha    150.447
_cell_angle_beta     150.447
_cell_angle_gamma    42.2856

_symmetry_Int_Tables_number  107
_chemical_formula_structural  BeSnPt
_chemical_formula_sum  BeSnPt
_cell_volume  52.08203901991597
_cell_formula_units_Z  1
loop_
  _symmetry_equiv_pos_site_id
 _symmetry_equiv_pos_as_xyz
 1  'x, y, z'
loop_
 _atom_site_type_symbol
 _atom_site_label
 _atom_site_symmetry_multiplicity
 _atom_site_fract_x
 _atom_site_fract_y
 _atom_site_fract_z
 _atom_site_fract_occupancy
 Be  Be1  1  0.95186  0.95186  0.00000  1
 Pt  Pt1  1  0.38095  0.38095  0.00000  1
 Sn  Sn1  1  0.66719  0.66719  0.00000  1
