CIF file written using JARVIS-Tools package.
data_Li3Ni4O8
_symmetry_space_group_name_H-M  'C2/m'
_cell_length_a       5.75346
_cell_length_b       5.67604
_cell_length_c       5.75867
_cell_angle_alpha    90
_cell_angle_beta     120.03
_cell_angle_gamma    60.8194

_symmetry_Int_Tables_number  12
_chemical_formula_structural  Li3Ni4O8
_chemical_formula_sum  Li3Ni4O8
_cell_volume  134.5424997021342
_cell_formula_units_Z  1
loop_
  _symmetry_equiv_pos_site_id
 _symmetry_equiv_pos_as_xyz
 1  'x, y, z'
loop_
 _atom_site_type_symbol
 _atom_site_label
 _atom_site_symmetry_multiplicity
 _atom_site_fract_x
 _atom_site_fract_y
 _atom_site_fract_z
 _atom_site_fract_occupancy
 Li  Li1  1  -0.00000  0.50000  0.50000  1
 Li  Li2  1  0.50000  -0.00000  -0.00000  1
 Li  Li3  1  -0.00000  0.50000  0.00000  1
 Ni  Ni1  1  0.50000  0.50000  0.50000  1
 Ni  Ni2  1  0.50000  -0.00000  0.50000  1
 Ni  Ni3  1  -0.00000  -0.00000  0.50000  1
 Ni  Ni4  1  0.00000  0.00000  0.00000  1
 O  O1  1  0.95625  0.77240  0.72812  1
 O  O2  1  0.00501  0.21860  0.75250  1
 O  O3  1  0.47318  0.76850  0.70864  1
 O  O4  1  0.47318  0.76850  0.26454  1
 O  O5  1  0.52682  0.23150  0.73546  1
 O  O6  1  0.52682  0.23150  0.29136  1
 O  O7  1  -0.00501  0.78140  0.24750  1
 O  O8  1  0.04375  0.22760  0.27188  1
