CIF file written using JARVIS-Tools package.
data_SmClO2
_symmetry_space_group_name_H-M  'P2_1/m'
_cell_length_a       3.68931
_cell_length_b       6.27251
_cell_length_c       6.34418
_cell_angle_alpha    108.7
_cell_angle_beta     90
_cell_angle_gamma    90

_symmetry_Int_Tables_number  11
_chemical_formula_structural  SmClO2
_chemical_formula_sum  Sm2Cl2O4
_cell_volume  139.06168361688825
_cell_formula_units_Z  2
loop_
  _symmetry_equiv_pos_site_id
 _symmetry_equiv_pos_as_xyz
 1  'x, y, z'
loop_
 _atom_site_type_symbol
 _atom_site_label
 _atom_site_symmetry_multiplicity
 _atom_site_fract_x
 _atom_site_fract_y
 _atom_site_fract_z
 _atom_site_fract_occupancy
 Cl  Cl1  1  0.25000  0.74833  0.51301  1
 Cl  Cl2  1  0.75000  0.25167  0.48699  1
 O  O1  1  0.25000  0.91214  0.05378  1
 O  O2  1  0.75000  0.08786  0.94622  1
 O  O3  1  0.25000  0.44970  0.86736  1
 O  O4  1  0.75000  0.55030  0.13264  1
 Sm  Sm1  1  0.75000  0.69238  0.83516  1
 Sm  Sm2  1  0.25000  0.30762  0.16484  1
