CIF file written using JARVIS-Tools package.
data_Fe2CuAs2H2O10
_symmetry_space_group_name_H-M  'P-1'
_cell_length_a       5.12308
_cell_length_b       5.38359
_cell_length_c       7.74375
_cell_angle_alpha    104.991
_cell_angle_beta     105.632
_cell_angle_gamma    100.516

_symmetry_Int_Tables_number  2
_chemical_formula_structural  Fe2CuAs2H2O10
_chemical_formula_sum  Fe2CuAs2H2O0
_cell_volume  191.23522195699124
_cell_formula_units_Z  1
loop_
  _symmetry_equiv_pos_site_id
 _symmetry_equiv_pos_as_xyz
 1  'x, y, z'
loop_
 _atom_site_type_symbol
 _atom_site_label
 _atom_site_symmetry_multiplicity
 _atom_site_fract_x
 _atom_site_fract_y
 _atom_site_fract_z
 _atom_site_fract_occupancy
 As  As1  1  0.28943  0.79492  0.67553  1
 As  As2  1  0.71057  0.20508  0.32447  1
 Cu  Cu1  1  0.00000  0.00000  0.00000  1
 Fe  Fe1  1  0.81353  0.39702  0.80738  1
 Fe  Fe2  1  0.18647  0.60298  0.19262  1
 H  H1  1  0.23544  0.35096  0.63082  1
 H  H2  1  0.76456  0.64904  0.36918  1
 O  O1  1  0.56420  0.06315  0.81139  1
 O  O2  1  0.13515  0.32484  0.95664  1
 O  O3  1  0.41176  0.50007  0.67287  1
 O  O4  1  0.43580  0.93685  0.18861  1
 O  O5  1  0.14869  0.78293  0.44493  1
 O  O6  1  0.98144  0.24216  0.23178  1
 O  O7  1  0.58824  0.49993  0.32713  1
 O  O8  1  0.85131  0.21707  0.55507  1
 O  O9  1  0.01856  0.75784  0.76822  1
 O  O10  1  0.86485  0.67516  0.04336  1
