CIF file written using JARVIS-Tools package.
data_LiErSn2
_symmetry_space_group_name_H-M  'Cmcm'
_cell_length_a       4.37911
_cell_length_b       4.44423
_cell_length_c       9.71607
_cell_angle_alpha    90
_cell_angle_beta     103.024
_cell_angle_gamma    90

_symmetry_Int_Tables_number  63
_chemical_formula_structural  LiErSn2
_chemical_formula_sum  Li2Er2Sn4
_cell_volume  184.22798879633604
_cell_formula_units_Z  2
loop_
  _symmetry_equiv_pos_site_id
 _symmetry_equiv_pos_as_xyz
 1  'x, y, z'
loop_
 _atom_site_type_symbol
 _atom_site_label
 _atom_site_symmetry_multiplicity
 _atom_site_fract_x
 _atom_site_fract_y
 _atom_site_fract_z
 _atom_site_fract_occupancy
 Er  Er1  1  0.89143  0.75000  0.78285  1
 Er  Er2  1  0.10857  0.25000  0.21715  1
 Li  Li1  1  0.67459  0.75000  0.34919  1
 Li  Li2  1  0.32541  0.25000  0.65081  1
 Sn  Sn1  1  0.54612  0.75000  0.09224  1
 Sn  Sn2  1  0.45388  0.25000  0.90776  1
 Sn  Sn3  1  0.25116  0.75000  0.50232  1
 Sn  Sn4  1  0.74884  0.25000  0.49768  1
