data_image0
_chemical_formula_structural       Ag2Sn2Tm2
_chemical_formula_sum              "Ag2 Sn2 Tm2"
_cell_length_a       4.69098
_cell_length_b       4.69089
_cell_length_c       7.29523
_cell_angle_alpha    90
_cell_angle_beta     90
_cell_angle_gamma    120.001

_space_group_name_H-M_alt    "P 1"
_space_group_IT_number       1

loop_
  _space_group_symop_operation_xyz
  'x, y, z'

loop_
  _atom_site_type_symbol
  _atom_site_label
  _atom_site_symmetry_multiplicity
  _atom_site_fract_x
  _atom_site_fract_y
  _atom_site_fract_z
  _atom_site_occupancy
  Ag  Ag1       1.0  0.66700  0.33300  0.30700  1.0000
  Ag  Ag2       1.0  0.33300  0.66700  0.80700  1.0000
  Sn  Sn1       1.0  0.33300  0.66700  0.21500  1.0000
  Sn  Sn2       1.0  0.66700  0.33300  0.71500  1.0000
  Tm  Tm1       1.0  0.00000  0.00000  0.49500  1.0000
  Tm  Tm2       1.0  0.00000  0.00000  0.99500  1.0000
