CIF file written using JARVIS-Tools package.
data_K2SnHgSe4
_symmetry_space_group_name_H-M  'I-42m'
_cell_length_a       6.70782
_cell_length_b       6.70782
_cell_length_c       6.70781
_cell_angle_alpha    106.197
_cell_angle_beta     106.197
_cell_angle_gamma    116.24

_symmetry_Int_Tables_number  121
_chemical_formula_structural  K2SnHgSe4
_chemical_formula_sum  K2SnHgSe4
_cell_volume  229.87907503543812
_cell_formula_units_Z  1
loop_
  _symmetry_equiv_pos_site_id
 _symmetry_equiv_pos_as_xyz
 1  'x, y, z'
loop_
 _atom_site_type_symbol
 _atom_site_label
 _atom_site_symmetry_multiplicity
 _atom_site_fract_x
 _atom_site_fract_y
 _atom_site_fract_z
 _atom_site_fract_occupancy
 Hg  Hg1  1  0.00000  0.00000  0.00000  1
 K  K1  1  0.50000  -0.00000  0.50000  1
 K  K2  1  0.00000  0.50000  0.50000  1
 Se  Se1  1  0.44489  0.09325  -0.00000  1
 Se  Se2  1  0.09325  0.44489  0.00000  1
 Se  Se3  1  0.55511  0.55511  0.64836  1
 Se  Se4  1  0.90675  0.90675  0.35164  1
 Sn  Sn1  1  0.50000  0.50000  0.00000  1
