CIF file written using JARVIS-Tools package.
data_RbCd13
_symmetry_space_group_name_H-M  'Fm-3c'
_cell_length_a       9.9344
_cell_length_b       9.9344
_cell_length_c       9.9344
_cell_angle_alpha    60
_cell_angle_beta     60
_cell_angle_gamma    60

_symmetry_Int_Tables_number  226
_chemical_formula_structural  RbCd13
_chemical_formula_sum  Rb2Cd26
_cell_volume  693.2821796432803
_cell_formula_units_Z  2
loop_
  _symmetry_equiv_pos_site_id
 _symmetry_equiv_pos_as_xyz
 1  'x, y, z'
loop_
 _atom_site_type_symbol
 _atom_site_label
 _atom_site_symmetry_multiplicity
 _atom_site_fract_x
 _atom_site_fract_y
 _atom_site_fract_z
 _atom_site_fract_occupancy
 Cd  Cd1  1  0.44208  0.80213  0.55792  1
 Cd  Cd2  1  0.19787  0.80213  0.44208  1
 Cd  Cd3  1  0.69787  0.05792  0.94208  1
 Cd  Cd4  1  0.94208  0.30213  0.69787  1
 Cd  Cd5  1  0.69787  0.94208  0.30213  1
 Cd  Cd6  1  0.05792  0.30213  0.94208  1
 Cd  Cd7  1  0.05792  0.94208  0.69787  1
 Cd  Cd8  1  0.94208  0.05792  0.30213  1
 Cd  Cd9  1  0.44208  0.19787  0.80213  1
 Cd  Cd10  1  0.80213  0.44208  0.19787  1
 Cd  Cd11  1  0.55792  0.19787  0.44208  1
 Cd  Cd12  1  0.80213  0.55792  0.44208  1
 Cd  Cd13  1  0.55792  0.80213  0.19787  1
 Cd  Cd14  1  0.50000  0.50000  0.50000  1
 Cd  Cd15  1  0.19787  0.44208  0.55792  1
 Cd  Cd16  1  0.19787  0.55792  0.80213  1
 Cd  Cd17  1  0.94208  0.69787  0.05792  1
 Cd  Cd18  1  0.30213  0.94208  0.05792  1
 Cd  Cd19  1  0.30213  0.69787  0.94208  1
 Cd  Cd20  1  0.69787  0.30213  0.05792  1
 Cd  Cd21  1  0.05792  0.69787  0.30213  1
 Cd  Cd22  1  0.30213  0.05792  0.69787  1
 Cd  Cd23  1  0.44208  0.55792  0.19787  1
 Cd  Cd24  1  0.55792  0.44208  0.80213  1
 Cd  Cd25  1  0.80213  0.19787  0.55792  1
 Cd  Cd26  1  0.00000  0.00000  0.00000  1
 Rb  Rb1  1  0.75000  0.75000  0.75000  1
 Rb  Rb2  1  0.25000  0.25000  0.25000  1
