CIF file written using JARVIS-Tools package.
data_TbSF
_symmetry_space_group_name_H-M  'P4/nmm'
_cell_length_a       3.79549
_cell_length_b       3.79549
_cell_length_c       6.83569
_cell_angle_alpha    90
_cell_angle_beta     90
_cell_angle_gamma    90

_symmetry_Int_Tables_number  129
_chemical_formula_structural  TbSF
_chemical_formula_sum  Tb2S2F2
_cell_volume  98.47323884054016
_cell_formula_units_Z  2
loop_
  _symmetry_equiv_pos_site_id
 _symmetry_equiv_pos_as_xyz
 1  'x, y, z'
loop_
 _atom_site_type_symbol
 _atom_site_label
 _atom_site_symmetry_multiplicity
 _atom_site_fract_x
 _atom_site_fract_y
 _atom_site_fract_z
 _atom_site_fract_occupancy
 F  F1  1  0.50000  0.50000  0.00000  1
 F  F2  1  0.00000  0.00000  0.00000  1
 S  S1  1  0.50000  0.00000  0.64473  1
 S  S2  1  0.00000  0.50000  0.35527  1
 Tb  Tb1  1  0.00000  0.50000  0.77226  1
 Tb  Tb2  1  0.50000  0.00000  0.22774  1
