CIF file written using JARVIS-Tools package.
data_Na5LiN2
_symmetry_space_group_name_H-M  'C2'
_cell_length_a       4.95041
_cell_length_b       4.95042
_cell_length_c       6.60931
_cell_angle_alpha    87.5941
_cell_angle_beta     87.5942
_cell_angle_gamma    111.487

_symmetry_Int_Tables_number  5
_chemical_formula_structural  Na5LiN2
_chemical_formula_sum  Na5LiN2
_cell_volume  150.2954506306726
_cell_formula_units_Z  1
loop_
  _symmetry_equiv_pos_site_id
 _symmetry_equiv_pos_as_xyz
 1  'x, y, z'
loop_
 _atom_site_type_symbol
 _atom_site_label
 _atom_site_symmetry_multiplicity
 _atom_site_fract_x
 _atom_site_fract_y
 _atom_site_fract_z
 _atom_site_fract_occupancy
 Li  Li1  1  0.88650  0.11350  0.00000  1
 N  N1  1  0.07752  0.37828  0.77247  1
 N  N2  1  0.62172  -0.07752  0.22753  1
 Na  Na1  1  0.23867  0.76133  -0.00000  1
 Na  Na2  1  0.58414  0.41198  0.76697  1
 Na  Na3  1  0.91449  0.08551  0.50000  1
 Na  Na4  1  0.26794  0.73206  0.50000  1
 Na  Na5  1  0.58802  0.41586  0.23303  1
