CIF file written using JARVIS-Tools package.
data_BN
_symmetry_space_group_name_H-M  'Fddd'
_cell_length_a       4.24061
_cell_length_b       4.24061
_cell_length_c       4.9011
_cell_angle_alpha    55.8676
_cell_angle_beta     55.8676
_cell_angle_gamma    72.7306

_symmetry_Int_Tables_number  70
_chemical_formula_structural  BN
_chemical_formula_sum  B4N4
_cell_volume  60.36605526722674
_cell_formula_units_Z  4
loop_
  _symmetry_equiv_pos_site_id
 _symmetry_equiv_pos_as_xyz
 1  'x, y, z'
loop_
 _atom_site_type_symbol
 _atom_site_label
 _atom_site_symmetry_multiplicity
 _atom_site_fract_x
 _atom_site_fract_y
 _atom_site_fract_z
 _atom_site_fract_occupancy
 B  B1  1  0.02602  0.27602  0.44796  1
 B  B2  1  0.72398  0.97398  0.05204  1
 B  B3  1  0.97398  0.72398  0.55204  1
 B  B4  1  0.27602  0.02602  0.94796  1
 N  N1  1  0.05340  0.30335  0.74995  1
 N  N2  1  0.69665  0.94660  0.75005  1
 N  N3  1  0.94660  0.69665  0.25005  1
 N  N4  1  0.30335  0.05340  0.24995  1
