CIF file written using JARVIS-Tools package.
data_YbSnIr
_symmetry_space_group_name_H-M  'P-62m'
_cell_length_a       4.15929
_cell_length_b       7.26513
_cell_length_c       7.26505
_cell_angle_alpha    120
_cell_angle_beta     90
_cell_angle_gamma    90

_symmetry_Int_Tables_number  189
_chemical_formula_structural  YbSnIr
_chemical_formula_sum  Yb3Sn3Ir3
_cell_volume  190.1209795592518
_cell_formula_units_Z  3
loop_
  _symmetry_equiv_pos_site_id
 _symmetry_equiv_pos_as_xyz
 1  'x, y, z'
loop_
 _atom_site_type_symbol
 _atom_site_label
 _atom_site_symmetry_multiplicity
 _atom_site_fract_x
 _atom_site_fract_y
 _atom_site_fract_z
 _atom_site_fract_occupancy
 Ir  Ir1  1  0.00000  0.33332  0.66667  1
 Ir  Ir2  1  0.00000  0.66665  0.33333  1
 Ir  Ir3  1  0.50000  0.99999  0.00000  1
 Sn  Sn1  1  0.00000  0.25791  0.00000  1
 Sn  Sn2  1  0.00000  0.74207  0.74209  1
 Sn  Sn3  1  0.00000  0.99998  0.25791  1
 Yb  Yb1  1  0.50000  0.59024  0.00000  1
 Yb  Yb2  1  0.50000  0.40974  0.40975  1
 Yb  Yb3  1  0.50000  0.99999  0.59025  1
