CIF file written using JARVIS-Tools package.
data_HfBe2Se
_symmetry_space_group_name_H-M  'P4/mmm'
_cell_length_a       3.16775
_cell_length_b       3.16775
_cell_length_c       5.67261
_cell_angle_alpha    90
_cell_angle_beta     90
_cell_angle_gamma    90

_symmetry_Int_Tables_number  123
_chemical_formula_structural  HfBe2Se
_chemical_formula_sum  HfBe2Se
_cell_volume  56.92238288372368
_cell_formula_units_Z  1
loop_
  _symmetry_equiv_pos_site_id
 _symmetry_equiv_pos_as_xyz
 1  'x, y, z'
loop_
 _atom_site_type_symbol
 _atom_site_label
 _atom_site_symmetry_multiplicity
 _atom_site_fract_x
 _atom_site_fract_y
 _atom_site_fract_z
 _atom_site_fract_occupancy
 Be  Be1  1  0.00000  0.00000  0.69967  1
 Be  Be2  1  0.00000  0.00000  0.30033  1
 Hf  Hf1  1  0.50000  0.50000  0.00000  1
 Se  Se1  1  0.50000  0.50000  0.50000  1
