CIF file written using JARVIS-Tools package.
data_EuMo6S8
_symmetry_space_group_name_H-M  'R-3'
_cell_length_a       6.50596
_cell_length_b       6.50595
_cell_length_c       6.50596
_cell_angle_alpha    89.0222
_cell_angle_beta     89.0223
_cell_angle_gamma    89.0222

_symmetry_Int_Tables_number  148
_chemical_formula_structural  EuMo6S8
_chemical_formula_sum  EuMo6S8
_cell_volume  275.2618167304138
_cell_formula_units_Z  1
loop_
  _symmetry_equiv_pos_site_id
 _symmetry_equiv_pos_as_xyz
 1  'x, y, z'
loop_
 _atom_site_type_symbol
 _atom_site_label
 _atom_site_symmetry_multiplicity
 _atom_site_fract_x
 _atom_site_fract_y
 _atom_site_fract_z
 _atom_site_fract_occupancy
 Eu  Eu1  1  0.00000  0.00000  0.00000  1
 Mo  Mo1  1  0.57959  0.77485  0.43856  1
 Mo  Mo2  1  0.77485  0.43856  0.57959  1
 Mo  Mo3  1  0.43856  0.57959  0.77485  1
 Mo  Mo4  1  0.42041  0.22515  0.56144  1
 Mo  Mo5  1  0.22515  0.56144  0.42041  1
 Mo  Mo6  1  0.56144  0.42041  0.22515  1
 S  S1  1  0.75992  0.75992  0.75992  1
 S  S2  1  0.24008  0.24008  0.24008  1
 S  S3  1  0.24626  0.87383  0.62957  1
 S  S4  1  0.87383  0.62957  0.24626  1
 S  S5  1  0.62957  0.24626  0.87383  1
 S  S6  1  0.75374  0.12617  0.37043  1
 S  S7  1  0.12617  0.37043  0.75374  1
 S  S8  1  0.37043  0.75374  0.12617  1
