CIF file written using JARVIS-Tools package.
data_Rb4CO4
_symmetry_space_group_name_H-M  'I-42m'
_cell_length_a       5.72896
_cell_length_b       5.72909
_cell_length_c       6.60805
_cell_angle_alpha    115.689
_cell_angle_beta     115.688
_cell_angle_gamma    89.9993

_symmetry_Int_Tables_number  121
_chemical_formula_structural  Rb4CO4
_chemical_formula_sum  Rb4CO4
_cell_volume  171.35407828532504
_cell_formula_units_Z  1
loop_
  _symmetry_equiv_pos_site_id
 _symmetry_equiv_pos_as_xyz
 1  'x, y, z'
loop_
 _atom_site_type_symbol
 _atom_site_label
 _atom_site_symmetry_multiplicity
 _atom_site_fract_x
 _atom_site_fract_y
 _atom_site_fract_z
 _atom_site_fract_occupancy
 C  C1  1  0.00001  0.00001  -0.00000  1
 O  O1  1  0.93788  0.22576  0.16365  1
 O  O2  1  0.77425  0.77425  0.83636  1
 O  O3  1  0.22576  0.93789  0.16365  1
 O  O4  1  0.06213  0.06212  0.83636  1
 Rb  Rb1  1  0.55706  0.15335  0.71044  1
 Rb  Rb2  1  0.44293  0.44292  0.28957  1
 Rb  Rb3  1  0.84662  0.84663  0.28955  1
 Rb  Rb4  1  0.15336  0.55706  0.71044  1
