CIF file written using JARVIS-Tools package.
data_ZrIn2Br6
_symmetry_space_group_name_H-M  'Ama2'
_cell_length_a       7.25258
_cell_length_b       7.25312
_cell_length_c       10.9914
_cell_angle_alpha    90.0007
_cell_angle_beta     89.9993
_cell_angle_gamma    90.0032

_symmetry_Int_Tables_number  40
_chemical_formula_structural  ZrIn2Br6
_chemical_formula_sum  Zr2In4Br2
_cell_volume  578.1878751182876
_cell_formula_units_Z  2
loop_
  _symmetry_equiv_pos_site_id
 _symmetry_equiv_pos_as_xyz
 1  'x, y, z'
loop_
 _atom_site_type_symbol
 _atom_site_label
 _atom_site_symmetry_multiplicity
 _atom_site_fract_x
 _atom_site_fract_y
 _atom_site_fract_z
 _atom_site_fract_occupancy
 Br  Br1  1  0.80577  0.30634  0.00011  1
 Br  Br2  1  0.30580  0.19385  0.49988  1
 Br  Br3  1  0.69398  0.80577  -0.00011  1
 Br  Br4  1  -0.00004  -0.00004  0.24143  1
 Br  Br5  1  0.80636  0.30576  0.49995  1
 Br  Br6  1  -0.00000  0.00041  0.75855  1
 Br  Br7  1  0.30627  0.19448  0.00006  1
 Br  Br8  1  0.19447  0.69412  -0.00008  1
 Br  Br9  1  0.19407  0.69438  0.50010  1
 Br  Br10  1  0.50015  0.49978  0.74143  1
 Br  Br11  1  0.69449  0.80613  0.50008  1
 Br  Br12  1  0.50011  0.50017  0.25857  1
 In  In1  1  0.00001  0.50014  0.25011  1
 In  In2  1  0.99952  0.50016  0.75010  1
 In  In3  1  0.49925  0.99926  0.74991  1
 In  In4  1  0.49957  0.99910  0.24992  1
 Zr  Zr1  1  0.00008  0.00024  -0.00001  1
 Zr  Zr2  1  0.50016  0.49993  0.50000  1
