CIF file written using JARVIS-Tools package.
data_V2NO
_symmetry_space_group_name_H-M  'C2'
_cell_length_a       5.85514
_cell_length_b       7.56233
_cell_length_c       5.0108
_cell_angle_alpha    30.3719
_cell_angle_beta     56.3218
_cell_angle_gamma    41.4708

_symmetry_Int_Tables_number  5
_chemical_formula_structural  V2NO
_chemical_formula_sum  V4N2O2
_cell_volume  71.43493812082033
_cell_formula_units_Z  2
loop_
  _symmetry_equiv_pos_site_id
 _symmetry_equiv_pos_as_xyz
 1  'x, y, z'
loop_
 _atom_site_type_symbol
 _atom_site_label
 _atom_site_symmetry_multiplicity
 _atom_site_fract_x
 _atom_site_fract_y
 _atom_site_fract_z
 _atom_site_fract_occupancy
 N  N1  1  0.77955  0.97543  0.51366  1
 N  N2  1  0.51232  0.47477  0.54881  1
 O  O1  1  0.23513  0.05356  0.43606  1
 O  O2  1  0.96849  0.48483  0.53828  1
 V  V1  1  0.04037  0.92090  0.06274  1
 V  V2  1  0.26767  0.51309  0.01603  1
 V  V3  1  0.69023  0.53421  0.01341  1
 V  V4  1  0.48160  0.03605  0.92894  1
