CIF file written using JARVIS-Tools package.
data_LiMnSiO4
_symmetry_space_group_name_H-M  'Pnma'
_cell_length_a       4.77868
_cell_length_b       6.20184
_cell_length_c       9.99148
_cell_angle_alpha    90
_cell_angle_beta     90
_cell_angle_gamma    90

_symmetry_Int_Tables_number  62
_chemical_formula_structural  LiMnSiO4
_chemical_formula_sum  Li4Mn4Si4O6
_cell_volume  296.1139299911293
_cell_formula_units_Z  4
loop_
  _symmetry_equiv_pos_site_id
 _symmetry_equiv_pos_as_xyz
 1  'x, y, z'
loop_
 _atom_site_type_symbol
 _atom_site_label
 _atom_site_symmetry_multiplicity
 _atom_site_fract_x
 _atom_site_fract_y
 _atom_site_fract_z
 _atom_site_fract_occupancy
 Li  Li1  1  0.05613  0.00659  0.21908  1
 Li  Li2  1  0.44387  0.00659  0.71908  1
 Li  Li3  1  0.55613  0.50659  0.28092  1
 Li  Li4  1  0.94387  0.50659  0.78092  1
 Mn  Mn1  1  0.00000  0.25652  0.50000  1
 Mn  Mn2  1  0.50000  0.25652  -0.00000  1
 Mn  Mn3  1  0.50000  0.75652  0.00000  1
 Mn  Mn4  1  -0.00000  0.75652  0.50000  1
 O  O1  1  0.24500  0.28360  0.14970  1
 O  O2  1  0.25498  0.72943  0.64971  1
 O  O3  1  0.24291  0.00652  0.90541  1
 O  O4  1  0.25966  0.50653  0.94113  1
 O  O5  1  0.24502  0.72943  0.14971  1
 O  O6  1  0.75500  0.78360  0.85030  1
 O  O7  1  0.24034  0.50653  0.44113  1
 O  O8  1  0.25709  0.00652  0.40541  1
 O  O9  1  0.75966  0.00653  0.55887  1
 O  O10  1  0.74291  0.50652  0.59459  1
 O  O11  1  0.74502  0.22943  0.35029  1
 O  O12  1  0.75709  0.50652  0.09459  1
 O  O13  1  0.25500  0.28360  0.64970  1
 O  O14  1  0.75498  0.22943  0.85029  1
 O  O15  1  0.74500  0.78360  0.35030  1
 O  O16  1  0.74034  0.00653  0.05887  1
 Si  Si1  1  0.09369  0.50652  0.09412  1
 Si  Si2  1  0.40631  0.50652  0.59412  1
 Si  Si3  1  0.59369  0.00652  0.40588  1
 Si  Si4  1  0.90631  0.00652  0.90588  1
