CIF file written using JARVIS-Tools package.
data_ErNiBC
_symmetry_space_group_name_H-M  'P4/nmm'
_cell_length_a       3.55342
_cell_length_b       3.55342
_cell_length_c       7.52689
_cell_angle_alpha    90
_cell_angle_beta     90
_cell_angle_gamma    90

_symmetry_Int_Tables_number  129
_chemical_formula_structural  ErNiBC
_chemical_formula_sum  Er2Ni2B2C2
_cell_volume  95.04065266692876
_cell_formula_units_Z  2
loop_
  _symmetry_equiv_pos_site_id
 _symmetry_equiv_pos_as_xyz
 1  'x, y, z'
loop_
 _atom_site_type_symbol
 _atom_site_label
 _atom_site_symmetry_multiplicity
 _atom_site_fract_x
 _atom_site_fract_y
 _atom_site_fract_z
 _atom_site_fract_occupancy
 B  B1  1  0.25000  0.25000  0.64922  1
 B  B2  1  0.75000  0.75000  0.35078  1
 C  C1  1  0.25000  0.25000  0.84636  1
 C  C2  1  0.75000  0.75000  0.15364  1
 Er  Er1  1  0.75000  0.75000  0.83604  1
 Er  Er2  1  0.25000  0.25000  0.16396  1
 Ni  Ni1  1  0.75000  0.25000  0.50000  1
 Ni  Ni2  1  0.25000  0.75000  0.50000  1
