CIF file written using JARVIS-Tools package.
data_Mo2WSe6
_symmetry_space_group_name_H-M  'P3m1'
_cell_length_a       3.3262
_cell_length_b       3.3262
_cell_length_c       28.5577
_cell_angle_alpha    89.9997
_cell_angle_beta     90.0001
_cell_angle_gamma    120

_symmetry_Int_Tables_number  156
_chemical_formula_structural  Mo2WSe6
_chemical_formula_sum  Mo2WSe6
_cell_volume  273.6226840628015
_cell_formula_units_Z  1
loop_
  _symmetry_equiv_pos_site_id
 _symmetry_equiv_pos_as_xyz
 1  'x, y, z'
loop_
 _atom_site_type_symbol
 _atom_site_label
 _atom_site_symmetry_multiplicity
 _atom_site_fract_x
 _atom_site_fract_y
 _atom_site_fract_z
 _atom_site_fract_occupancy
 Mo  Mo1  1  0.33334  0.66665  0.11628  1
 Mo  Mo2  1  0.66666  0.33332  0.34679  1
 Se  Se1  1  0.33332  0.66664  0.40540  1
 Se  Se2  1  0.66666  0.33331  0.05773  1
 Se  Se3  1  0.66665  0.33333  0.51900  1
 Se  Se4  1  0.66666  0.33330  0.17491  1
 Se  Se5  1  0.66666  0.33333  0.63668  1
 Se  Se6  1  0.33332  0.66665  0.28818  1
 W  W1  1  0.33332  0.66666  0.57788  1
