CIF file written using JARVIS-Tools package.
data_EuMnBi2
_symmetry_space_group_name_H-M  'I4/mmm'
_cell_length_a       4.45697
_cell_length_b       4.45697
_cell_length_c       11.1282
_cell_angle_alpha    101.552
_cell_angle_beta     101.552
_cell_angle_gamma    90

_symmetry_Int_Tables_number  139
_chemical_formula_structural  EuMnBi2
_chemical_formula_sum  Eu2Mn2Bi4
_cell_volume  212.00701569505546
_cell_formula_units_Z  2
loop_
  _symmetry_equiv_pos_site_id
 _symmetry_equiv_pos_as_xyz
 1  'x, y, z'
loop_
 _atom_site_type_symbol
 _atom_site_label
 _atom_site_symmetry_multiplicity
 _atom_site_fract_x
 _atom_site_fract_y
 _atom_site_fract_z
 _atom_site_fract_occupancy
 Bi  Bi1  1  0.50000  0.00000  0.00000  1
 Bi  Bi2  1  0.00000  0.50000  0.00000  1
 Bi  Bi3  1  0.66457  0.66457  0.32914  1
 Bi  Bi4  1  0.33543  0.33543  0.67086  1
 Eu  Eu1  1  0.87848  0.87848  0.75695  1
 Eu  Eu2  1  0.12152  0.12152  0.24305  1
 Mn  Mn1  1  0.25000  0.75000  0.50000  1
 Mn  Mn2  1  0.75000  0.25000  0.50000  1
