CIF file written using JARVIS-Tools package.
data_TaBeFe
_symmetry_space_group_name_H-M  'P3m1'
_cell_length_a       3.00626
_cell_length_b       3.00626
_cell_length_c       4.92645
_cell_angle_alpha    90
_cell_angle_beta     90
_cell_angle_gamma    120

_symmetry_Int_Tables_number  156
_chemical_formula_structural  TaBeFe
_chemical_formula_sum  TaBeFe
_cell_volume  38.55830038411757
_cell_formula_units_Z  1
loop_
  _symmetry_equiv_pos_site_id
 _symmetry_equiv_pos_as_xyz
 1  'x, y, z'
loop_
 _atom_site_type_symbol
 _atom_site_label
 _atom_site_symmetry_multiplicity
 _atom_site_fract_x
 _atom_site_fract_y
 _atom_site_fract_z
 _atom_site_fract_occupancy
 Be  Be1  1  0.00000  0.00000  0.03433  1
 Fe  Fe1  1  0.33333  0.66667  0.28972  1
 Ta  Ta1  1  0.66667  0.33333  0.67595  1
