CIF file written using JARVIS-Tools package.
data_SrCaI4
_symmetry_space_group_name_H-M  'I4_1/a'
_cell_length_a       7.8586
_cell_length_b       9.83425
_cell_length_c       7.8586
_cell_angle_alpha    66.4498
_cell_angle_beta     90
_cell_angle_gamma    113.55

_symmetry_Int_Tables_number  88
_chemical_formula_structural  SrCaI4
_chemical_formula_sum  Sr2Ca2I8
_cell_volume  501.08881667272624
_cell_formula_units_Z  2
loop_
  _symmetry_equiv_pos_site_id
 _symmetry_equiv_pos_as_xyz
 1  'x, y, z'
loop_
 _atom_site_type_symbol
 _atom_site_label
 _atom_site_symmetry_multiplicity
 _atom_site_fract_x
 _atom_site_fract_y
 _atom_site_fract_z
 _atom_site_fract_occupancy
 Ca  Ca1  1  0.87500  0.25000  0.37500  1
 Ca  Ca2  1  0.12500  0.75000  0.62500  1
 I  I1  1  0.57120  0.05587  0.21280  1
 I  I2  1  0.23133  0.44413  0.07120  1
 I  I3  1  0.71280  0.44413  0.48468  1
 I  I4  1  0.01532  0.94413  0.26867  1
 I  I5  1  0.98468  0.05587  0.73133  1
 I  I6  1  0.28720  0.55587  0.51532  1
 I  I7  1  0.76867  0.55587  0.92880  1
 I  I8  1  0.42880  0.94413  0.78720  1
 Sr  Sr1  1  0.62500  0.75000  0.12500  1
 Sr  Sr2  1  0.37500  0.25000  0.87500  1
