CIF file written using JARVIS-Tools package.
data_Sr2CrClO4
_symmetry_space_group_name_H-M  'Pbcm'
_cell_length_a       6.5303
_cell_length_b       7.51299
_cell_length_c       11.4578
_cell_angle_alpha    90
_cell_angle_beta     90
_cell_angle_gamma    90

_symmetry_Int_Tables_number  57
_chemical_formula_structural  Sr2CrClO4
_chemical_formula_sum  Sr8Cr4Cl4O6
_cell_volume  562.1416758529048
_cell_formula_units_Z  4
loop_
  _symmetry_equiv_pos_site_id
 _symmetry_equiv_pos_as_xyz
 1  'x, y, z'
loop_
 _atom_site_type_symbol
 _atom_site_label
 _atom_site_symmetry_multiplicity
 _atom_site_fract_x
 _atom_site_fract_y
 _atom_site_fract_z
 _atom_site_fract_occupancy
 Cl  Cl1  1  0.47702  0.32542  0.75000  1
 Cl  Cl2  1  0.52298  0.82542  0.75000  1
 Cl  Cl3  1  0.47702  0.17458  0.25000  1
 Cl  Cl4  1  0.52298  0.67458  0.25000  1
 Cr  Cr1  1  0.12347  0.25000  0.50000  1
 Cr  Cr2  1  0.87653  0.75000  0.00000  1
 Cr  Cr3  1  0.87653  0.75000  0.50000  1
 Cr  Cr4  1  0.12347  0.25000  0.00000  1
 O  O1  1  0.71837  0.57439  0.96946  1
 O  O2  1  0.96513  0.27076  0.88083  1
 O  O3  1  0.96513  0.22924  0.11917  1
 O  O4  1  0.28163  0.07439  0.96946  1
 O  O5  1  0.96513  0.27076  0.61917  1
 O  O6  1  0.03487  0.72924  0.38083  1
 O  O7  1  0.28163  0.07439  0.53054  1
 O  O8  1  0.96513  0.22924  0.38083  1
 O  O9  1  0.71837  0.92561  0.46946  1
 O  O10  1  0.03487  0.77076  0.61917  1
 O  O11  1  0.28163  0.42561  0.03054  1
 O  O12  1  0.03487  0.77076  0.88083  1
 O  O13  1  0.28163  0.42561  0.46946  1
 O  O14  1  0.03487  0.72924  0.11917  1
 O  O15  1  0.71837  0.92561  0.03054  1
 O  O16  1  0.71837  0.57439  0.53054  1
 Sr  Sr1  1  0.37892  0.75000  0.50000  1
 Sr  Sr2  1  0.86391  0.53447  0.75000  1
 Sr  Sr3  1  0.86391  0.96553  0.25000  1
 Sr  Sr4  1  0.13609  0.03447  0.75000  1
 Sr  Sr5  1  0.62108  0.25000  0.50000  1
 Sr  Sr6  1  0.37892  0.75000  0.00000  1
 Sr  Sr7  1  0.62108  0.25000  0.00000  1
 Sr  Sr8  1  0.13609  0.46553  0.25000  1
