CIF file written using JARVIS-Tools package.
data_SnF4
_symmetry_space_group_name_H-M  'I4/mmm'
_cell_length_a       4.12807
_cell_length_b       4.12805
_cell_length_c       4.88687
_cell_angle_alpha    114.984
_cell_angle_beta     114.984
_cell_angle_gamma    90.0001

_symmetry_Int_Tables_number  139
_chemical_formula_structural  SnF4
_chemical_formula_sum  SnF4
_cell_volume  66.78805888819022
_cell_formula_units_Z  1
loop_
  _symmetry_equiv_pos_site_id
 _symmetry_equiv_pos_as_xyz
 1  'x, y, z'
loop_
 _atom_site_type_symbol
 _atom_site_label
 _atom_site_symmetry_multiplicity
 _atom_site_fract_x
 _atom_site_fract_y
 _atom_site_fract_z
 _atom_site_fract_occupancy
 F  F1  1  0.75561  0.75559  0.51122  1
 F  F2  1  -0.00000  0.50000  0.00000  1
 F  F3  1  0.50000  -0.00000  0.00000  1
 F  F4  1  0.24439  0.24441  0.48878  1
 Sn  Sn1  1  0.00000  0.00000  0.00000  1
