CIF file written using JARVIS-Tools package.
data_V6O7F5
_symmetry_space_group_name_H-M  'P1'
_cell_length_a       4.6696
_cell_length_b       5.54655
_cell_length_c       7.58031
_cell_angle_alpha    85.2207
_cell_angle_beta     88.624
_cell_angle_gamma    87.5196

_symmetry_Int_Tables_number  1
_chemical_formula_structural  V6O7F5
_chemical_formula_sum  V6O7F5
_cell_volume  195.42413284093112
_cell_formula_units_Z  1
loop_
  _symmetry_equiv_pos_site_id
 _symmetry_equiv_pos_as_xyz
 1  'x, y, z'
loop_
 _atom_site_type_symbol
 _atom_site_label
 _atom_site_symmetry_multiplicity
 _atom_site_fract_x
 _atom_site_fract_y
 _atom_site_fract_z
 _atom_site_fract_occupancy
 F  F1  1  0.19566  0.63333  0.56988  1
 F  F2  1  0.80329  0.02648  0.76553  1
 F  F3  1  0.79633  0.70109  0.09810  1
 F  F4  1  0.20354  0.97291  0.23719  1
 F  F5  1  0.30405  0.13503  0.56482  1
 O  O1  1  0.69477  0.87889  0.43397  1
 O  O2  1  0.80545  0.37272  0.43507  1
 O  O3  1  0.70817  0.19924  0.09713  1
 O  O4  1  0.69383  0.52796  0.76938  1
 O  O5  1  0.29697  0.47119  0.23444  1
 O  O6  1  0.19609  0.29270  0.89557  1
 O  O7  1  0.29839  0.79521  0.90102  1
 V  V1  1  0.02301  0.00978  0.99881  1
 V  V2  1  0.98017  0.65800  0.33491  1
 V  V3  1  0.98201  0.34007  0.67259  1
 V  V4  1  0.54443  0.18946  0.32346  1
 V  V5  1  0.46306  0.48231  0.99661  1
 V  V6  1  0.51078  0.81364  0.67153  1
