CIF file written using JARVIS-Tools package.
data_BeTcHg
_symmetry_space_group_name_H-M  'I4mm'
_cell_length_a       5.46188
_cell_length_b       5.46188
_cell_length_c       5.46188
_cell_angle_alpha    148.573
_cell_angle_beta     148.573
_cell_angle_gamma    45.0397

_symmetry_Int_Tables_number  107
_chemical_formula_structural  BeTcHg
_chemical_formula_sum  BeTcHg
_cell_volume  44.1584001801888
_cell_formula_units_Z  1
loop_
  _symmetry_equiv_pos_site_id
 _symmetry_equiv_pos_as_xyz
 1  'x, y, z'
loop_
 _atom_site_type_symbol
 _atom_site_label
 _atom_site_symmetry_multiplicity
 _atom_site_fract_x
 _atom_site_fract_y
 _atom_site_fract_z
 _atom_site_fract_occupancy
 Be  Be1  1  0.02323  0.02323  -0.00000  1
 Hg  Hg1  1  0.34207  0.34207  -0.00000  1
 Tc  Tc1  1  0.63470  0.63470  -0.00000  1
