CIF file written using JARVIS-Tools package.
data_LaCoC2
_symmetry_space_group_name_H-M  'Cc'
_cell_length_a       3.87086
_cell_length_b       3.87086
_cell_length_c       7.46511
_cell_angle_alpha    98.7109
_cell_angle_beta     98.7109
_cell_angle_gamma    90.0017

_symmetry_Int_Tables_number  9
_chemical_formula_structural  LaCoC2
_chemical_formula_sum  La2Co2C4
_cell_volume  109.2584096702605
_cell_formula_units_Z  2
loop_
  _symmetry_equiv_pos_site_id
 _symmetry_equiv_pos_as_xyz
 1  'x, y, z'
loop_
 _atom_site_type_symbol
 _atom_site_label
 _atom_site_symmetry_multiplicity
 _atom_site_fract_x
 _atom_site_fract_y
 _atom_site_fract_z
 _atom_site_fract_occupancy
 C  C1  1  0.50809  0.15233  0.77477  1
 C  C2  1  0.15233  0.50809  0.27477  1
 C  C3  1  0.55773  0.40402  0.92550  1
 C  C4  1  0.40402  0.55773  0.42550  1
 Co  Co1  1  0.48423  0.63082  0.69460  1
 Co  Co2  1  0.63082  0.48423  0.19460  1
 La  La1  1  0.92313  0.07365  0.50213  1
 La  La2  1  0.07365  0.92313  0.00213  1
