CIF file written using JARVIS-Tools package.
data_Li2FeF4
_symmetry_space_group_name_H-M  'Cmcm'
_cell_length_a       5.2396
_cell_length_b       5.2396
_cell_length_c       6.20187
_cell_angle_alpha    90
_cell_angle_beta     90
_cell_angle_gamma    64.3246

_symmetry_Int_Tables_number  63
_chemical_formula_structural  Li2FeF4
_chemical_formula_sum  Li4Fe2F8
_cell_volume  153.4516589818429
_cell_formula_units_Z  2
loop_
  _symmetry_equiv_pos_site_id
 _symmetry_equiv_pos_as_xyz
 1  'x, y, z'
loop_
 _atom_site_type_symbol
 _atom_site_label
 _atom_site_symmetry_multiplicity
 _atom_site_fract_x
 _atom_site_fract_y
 _atom_site_fract_z
 _atom_site_fract_occupancy
 F  F1  1  0.23439  0.75034  0.75000  1
 F  F2  1  0.24966  0.76561  0.25000  1
 F  F3  1  0.27744  0.27744  0.01248  1
 F  F4  1  0.27744  0.27744  0.48752  1
 F  F5  1  0.72256  0.72256  0.98752  1
 F  F6  1  0.72256  0.72256  0.51248  1
 F  F7  1  0.75034  0.23439  0.75000  1
 F  F8  1  0.76561  0.24966  0.25000  1
 Fe  Fe1  1  0.15990  0.15990  0.75000  1
 Fe  Fe2  1  0.84010  0.84010  0.25000  1
 Li  Li1  1  0.15747  0.15747  0.25000  1
 Li  Li2  1  0.50000  0.50000  0.00000  1
 Li  Li3  1  0.50000  0.50000  0.50000  1
 Li  Li4  1  0.84253  0.84253  0.75000  1
