CIF file written using JARVIS-Tools package.
data_TbLiGe
_symmetry_space_group_name_H-M  'P-62m'
_cell_length_a       4.25031
_cell_length_b       7.06267
_cell_length_c       7.06254
_cell_angle_alpha    120.001
_cell_angle_beta     90
_cell_angle_gamma    90

_symmetry_Int_Tables_number  189
_chemical_formula_structural  TbLiGe
_chemical_formula_sum  Tb3Li3Ge3
_cell_volume  183.60253684937123
_cell_formula_units_Z  3
loop_
  _symmetry_equiv_pos_site_id
 _symmetry_equiv_pos_as_xyz
 1  'x, y, z'
loop_
 _atom_site_type_symbol
 _atom_site_label
 _atom_site_symmetry_multiplicity
 _atom_site_fract_x
 _atom_site_fract_y
 _atom_site_fract_z
 _atom_site_fract_occupancy
 Ge  Ge1  1  0.00000  -0.00001  0.00000  1
 Ge  Ge2  1  0.50000  0.33332  0.66667  1
 Ge  Ge3  1  0.50000  0.66665  0.33333  1
 Li  Li1  1  0.50000  0.23316  0.00000  1
 Li  Li2  1  0.50000  0.76681  0.76683  1
 Li  Li3  1  0.50000  0.99999  0.23317  1
 Tb  Tb1  1  0.00000  0.57774  0.00000  1
 Tb  Tb2  1  0.00000  0.42224  0.42224  1
 Tb  Tb3  1  0.00000  0.99999  0.57776  1
