CIF file written using JARVIS-Tools package.
data_BeZnMo
_symmetry_space_group_name_H-M  'I4mm'
_cell_length_a       5.85707
_cell_length_b       5.85707
_cell_length_c       5.85707
_cell_angle_alpha    153.938
_cell_angle_beta     153.938
_cell_angle_gamma    37.19

_symmetry_Int_Tables_number  107
_chemical_formula_structural  BeZnMo
_chemical_formula_sum  BeZnMo
_cell_volume  38.72859639782999
_cell_formula_units_Z  1
loop_
  _symmetry_equiv_pos_site_id
 _symmetry_equiv_pos_as_xyz
 1  'x, y, z'
loop_
 _atom_site_type_symbol
 _atom_site_label
 _atom_site_symmetry_multiplicity
 _atom_site_fract_x
 _atom_site_fract_y
 _atom_site_fract_z
 _atom_site_fract_occupancy
 Be  Be1  1  0.00401  0.00401  -0.00000  1
 Mo  Mo1  1  0.34373  0.34373  -0.00000  1
 Zn  Zn1  1  0.65225  0.65225  0.00000  1
