CIF file written using JARVIS-Tools package.
data_NpNiSn
_symmetry_space_group_name_H-M  'Pnma'
_cell_length_a       4.25039
_cell_length_b       7.73916
_cell_length_c       7.19468
_cell_angle_alpha    89.9966
_cell_angle_beta     90.0006
_cell_angle_gamma    90.0006

_symmetry_Int_Tables_number  62
_chemical_formula_structural  NpNiSn
_chemical_formula_sum  Np4Ni4Sn4
_cell_volume  236.66478647229866
_cell_formula_units_Z  4
loop_
  _symmetry_equiv_pos_site_id
 _symmetry_equiv_pos_as_xyz
 1  'x, y, z'
loop_
 _atom_site_type_symbol
 _atom_site_label
 _atom_site_symmetry_multiplicity
 _atom_site_fract_x
 _atom_site_fract_y
 _atom_site_fract_z
 _atom_site_fract_occupancy
 Ni  Ni1  1  0.24999  0.67637  0.37987  1
 Ni  Ni2  1  0.75000  0.82364  0.87986  1
 Ni  Ni3  1  0.75001  0.32363  0.62013  1
 Ni  Ni4  1  0.25000  0.17636  0.12014  1
 Np  Np1  1  0.24999  0.47827  0.86032  1
 Np  Np2  1  0.25001  0.97828  0.63968  1
 Np  Np3  1  0.74999  0.02172  0.36032  1
 Np  Np4  1  0.75001  0.52173  0.13968  1
 Sn  Sn1  1  0.25000  0.84095  0.07890  1
 Sn  Sn2  1  0.75000  0.15905  0.92110  1
 Sn  Sn3  1  0.75000  0.65905  0.57891  1
 Sn  Sn4  1  0.25000  0.34095  0.42109  1
