CIF file written using JARVIS-Tools package.
data_K2CdSnSe4
_symmetry_space_group_name_H-M  'I-42m'
_cell_length_a       6.69675
_cell_length_b       6.69675
_cell_length_c       6.69675
_cell_angle_alpha    105.949
_cell_angle_beta     105.949
_cell_angle_gamma    116.771

_symmetry_Int_Tables_number  121
_chemical_formula_structural  K2CdSnSe4
_chemical_formula_sum  K2CdSnSe4
_cell_volume  228.34241836985345
_cell_formula_units_Z  1
loop_
  _symmetry_equiv_pos_site_id
 _symmetry_equiv_pos_as_xyz
 1  'x, y, z'
loop_
 _atom_site_type_symbol
 _atom_site_label
 _atom_site_symmetry_multiplicity
 _atom_site_fract_x
 _atom_site_fract_y
 _atom_site_fract_z
 _atom_site_fract_occupancy
 Cd  Cd1  1  0.50000  0.50000  0.00000  1
 K  K1  1  0.50000  0.00000  0.50000  1
 K  K2  1  0.00000  0.50000  0.50000  1
 Se  Se1  1  0.94015  0.94015  0.34938  1
 Se  Se2  1  0.59077  0.59077  0.65062  1
 Se  Se3  1  0.05985  0.40923  0.00000  1
 Se  Se4  1  0.40923  0.05985  -0.00000  1
 Sn  Sn1  1  0.00000  0.00000  0.00000  1
