CIF file written using JARVIS-Tools package.
data_Na6ZnSn2
_symmetry_space_group_name_H-M  'C2/m'
_cell_length_a       5.45304
_cell_length_b       5.717
_cell_length_c       9.31397
_cell_angle_alpha    96.9636
_cell_angle_beta     90
_cell_angle_gamma    118.484

_symmetry_Int_Tables_number  12
_chemical_formula_structural  Na6ZnSn2
_chemical_formula_sum  Na6ZnSn2
_cell_volume  252.7749765747919
_cell_formula_units_Z  1
loop_
  _symmetry_equiv_pos_site_id
 _symmetry_equiv_pos_as_xyz
 1  'x, y, z'
loop_
 _atom_site_type_symbol
 _atom_site_label
 _atom_site_symmetry_multiplicity
 _atom_site_fract_x
 _atom_site_fract_y
 _atom_site_fract_z
 _atom_site_fract_occupancy
 Na  Na1  1  0.47418  0.94835  0.28005  1
 Na  Na2  1  0.17155  0.34310  0.59486  1
 Na  Na3  1  0.29872  0.59744  0.93625  1
 Na  Na4  1  0.82845  0.65690  0.40514  1
 Na  Na5  1  0.52582  0.05165  0.71995  1
 Na  Na6  1  0.70128  0.40256  0.06375  1
 Sn  Sn1  1  0.14911  0.29822  0.25257  1
 Sn  Sn2  1  0.85089  0.70178  0.74743  1
 Zn  Zn1  1  0.00000  0.00000  0.00000  1
