CIF file written using JARVIS-Tools package.
data_Ni4B3
_symmetry_space_group_name_H-M  'Pnma'
_cell_length_a       3.00164
_cell_length_b       6.60461
_cell_length_c       11.9874
_cell_angle_alpha    90
_cell_angle_beta     90
_cell_angle_gamma    90

_symmetry_Int_Tables_number  62
_chemical_formula_structural  Ni4B3
_chemical_formula_sum  Ni6B2
_cell_volume  237.6472433986571
_cell_formula_units_Z  4
loop_
  _symmetry_equiv_pos_site_id
 _symmetry_equiv_pos_as_xyz
 1  'x, y, z'
loop_
 _atom_site_type_symbol
 _atom_site_label
 _atom_site_symmetry_multiplicity
 _atom_site_fract_x
 _atom_site_fract_y
 _atom_site_fract_z
 _atom_site_fract_occupancy
 B  B1  1  0.75000  0.18752  0.75685  1
 B  B2  1  0.25000  0.68752  0.74315  1
 B  B3  1  0.75000  0.55985  0.47577  1
 B  B4  1  0.25000  0.05985  0.02423  1
 B  B5  1  0.75000  0.94015  0.97577  1
 B  B6  1  0.25000  0.44015  0.52423  1
 B  B7  1  0.25000  0.02139  0.46241  1
 B  B8  1  0.25000  0.47861  0.96241  1
 B  B9  1  0.75000  0.97861  0.53759  1
 B  B10  1  0.75000  0.31248  0.25685  1
 B  B11  1  0.25000  0.81248  0.24315  1
 B  B12  1  0.75000  0.52139  0.03759  1
 Ni  Ni1  1  0.75000  0.25137  0.94998  1
 Ni  Ni2  1  0.25000  0.50399  0.35029  1
 Ni  Ni3  1  0.75000  0.00399  0.14971  1
 Ni  Ni4  1  0.75000  0.24863  0.44998  1
 Ni  Ni5  1  0.25000  0.74863  0.05002  1
 Ni  Ni6  1  0.25000  0.75137  0.55002  1
 Ni  Ni7  1  0.25000  0.32664  0.12417  1
 Ni  Ni8  1  0.75000  0.61579  0.19976  1
 Ni  Ni9  1  0.25000  0.11579  0.30024  1
 Ni  Ni10  1  0.25000  0.38421  0.80024  1
 Ni  Ni11  1  0.75000  0.88421  0.69976  1
 Ni  Ni12  1  0.75000  0.82664  0.37583  1
 Ni  Ni13  1  0.25000  0.17336  0.62417  1
 Ni  Ni14  1  0.75000  0.67336  0.87583  1
 Ni  Ni15  1  0.75000  0.49601  0.64971  1
 Ni  Ni16  1  0.25000  0.99601  0.85029  1
