CIF file written using JARVIS-Tools package.
data_ScAlCO
_symmetry_space_group_name_H-M  'P6_3mc'
_cell_length_a       3.25471
_cell_length_b       3.25471
_cell_length_c       10.2483
_cell_angle_alpha    90
_cell_angle_beta     90
_cell_angle_gamma    120

_symmetry_Int_Tables_number  186
_chemical_formula_structural  ScAlCO
_chemical_formula_sum  Sc2Al2C2O2
_cell_volume  94.01703881488542
_cell_formula_units_Z  2
loop_
  _symmetry_equiv_pos_site_id
 _symmetry_equiv_pos_as_xyz
 1  'x, y, z'
loop_
 _atom_site_type_symbol
 _atom_site_label
 _atom_site_symmetry_multiplicity
 _atom_site_fract_x
 _atom_site_fract_y
 _atom_site_fract_z
 _atom_site_fract_occupancy
 Al  Al1  1  0.00000  1.00000  0.52031  1
 Al  Al2  1  1.00000  0.00000  0.02031  1
 C  C1  1  0.33333  0.66667  0.94161  1
 C  C2  1  0.66667  0.33333  0.44161  1
 O  O1  1  0.00000  1.00000  0.69708  1
 O  O2  1  1.00000  0.00000  0.19708  1
 Sc  Sc1  1  0.66667  0.33333  0.80432  1
 Sc  Sc2  1  0.33333  0.66667  0.30432  1
