CIF file written using JARVIS-Tools package.
data_ScSnPd
_symmetry_space_group_name_H-M  'P-62c'
_cell_length_a       7.52893
_cell_length_b       7.52892
_cell_length_c       7.20579
_cell_angle_alpha    90
_cell_angle_beta     90
_cell_angle_gamma    120

_symmetry_Int_Tables_number  190
_chemical_formula_structural  ScSnPd
_chemical_formula_sum  Sc6Sn6Pd6
_cell_volume  353.7351754992686
_cell_formula_units_Z  6
loop_
  _symmetry_equiv_pos_site_id
 _symmetry_equiv_pos_as_xyz
 1  'x, y, z'
loop_
 _atom_site_type_symbol
 _atom_site_label
 _atom_site_symmetry_multiplicity
 _atom_site_fract_x
 _atom_site_fract_y
 _atom_site_fract_z
 _atom_site_fract_occupancy
 Pd  Pd1  1  0.66667  0.33333  0.96762  1
 Pd  Pd2  1  0.33333  0.66667  0.03238  1
 Pd  Pd3  1  0.33333  0.66667  0.46762  1
 Pd  Pd4  1  0.66667  0.33333  0.53238  1
 Pd  Pd5  1  0.00000  0.00000  0.75000  1
 Pd  Pd6  1  0.00000  0.00000  0.25000  1
 Sc  Sc1  1  0.40015  0.01498  0.25000  1
 Sc  Sc2  1  0.01498  0.40015  0.75000  1
 Sc  Sc3  1  0.59985  0.61483  0.75000  1
 Sc  Sc4  1  0.38517  0.98502  0.75000  1
 Sc  Sc5  1  0.98502  0.38517  0.25000  1
 Sc  Sc6  1  0.61483  0.59985  0.25000  1
 Sn  Sn1  1  0.00000  0.72371  0.50000  1
 Sn  Sn2  1  0.72371  0.00000  0.00000  1
 Sn  Sn3  1  0.72371  0.00000  0.50000  1
 Sn  Sn4  1  0.27629  0.27629  0.00000  1
 Sn  Sn5  1  0.00000  0.72371  0.00000  1
 Sn  Sn6  1  0.27629  0.27629  0.50000  1
