CIF file written using JARVIS-Tools package.
data_LiFeO2
_symmetry_space_group_name_H-M  'Fd-3m'
_cell_length_a       5.67982
_cell_length_b       5.67966
_cell_length_c       5.67966
_cell_angle_alpha    89.9977
_cell_angle_beta     59.9982
_cell_angle_gamma    59.9982

_symmetry_Int_Tables_number  227
_chemical_formula_structural  LiFeO2
_chemical_formula_sum  Li4Fe4O8
_cell_volume  129.5538426442171
_cell_formula_units_Z  4
loop_
  _symmetry_equiv_pos_site_id
 _symmetry_equiv_pos_as_xyz
 1  'x, y, z'
loop_
 _atom_site_type_symbol
 _atom_site_label
 _atom_site_symmetry_multiplicity
 _atom_site_fract_x
 _atom_site_fract_y
 _atom_site_fract_z
 _atom_site_fract_occupancy
 Fe  Fe1  1  0.50000  -0.00000  0.50000  1
 Fe  Fe2  1  0.50000  -0.00000  0.00000  1
 Fe  Fe3  1  -0.00000  0.50000  0.00000  1
 Fe  Fe4  1  0.00000  0.00000  0.00000  1
 Li  Li1  1  0.50000  0.50000  0.50000  1
 Li  Li2  1  0.50000  0.50000  -0.00000  1
 Li  Li3  1  -0.00000  0.50000  0.50000  1
 Li  Li4  1  -0.00000  0.00000  0.50000  1
 O  O1  1  0.98417  0.75792  0.77373  1
 O  O2  1  0.98417  0.75790  0.24210  1
 O  O3  1  0.48417  0.77373  0.75792  1
 O  O4  1  0.51583  0.75790  0.24210  1
 O  O5  1  0.48417  0.24210  0.75790  1
 O  O6  1  0.51583  0.22627  0.24208  1
 O  O7  1  0.01583  0.24210  0.75790  1
 O  O8  1  0.01583  0.24208  0.22627  1
