CIF file written using JARVIS-Tools package.
data_SrBeSb
_symmetry_space_group_name_H-M  'I4mm'
_cell_length_a       6.17003
_cell_length_b       6.17003
_cell_length_c       6.17003
_cell_angle_alpha    145.358
_cell_angle_beta     145.358
_cell_angle_gamma    49.8008

_symmetry_Int_Tables_number  107
_chemical_formula_structural  SrBeSb
_chemical_formula_sum  SrBeSb
_cell_volume  75.5385261557952
_cell_formula_units_Z  1
loop_
  _symmetry_equiv_pos_site_id
 _symmetry_equiv_pos_as_xyz
 1  'x, y, z'
loop_
 _atom_site_type_symbol
 _atom_site_label
 _atom_site_symmetry_multiplicity
 _atom_site_fract_x
 _atom_site_fract_y
 _atom_site_fract_z
 _atom_site_fract_occupancy
 Be  Be1  1  0.95897  0.95897  0.00000  1
 Sb  Sb1  1  0.37609  0.37609  -0.00000  1
 Sr  Sr1  1  0.66494  0.66494  -0.00000  1
