CIF file written using JARVIS-Tools package.
data_HgPd
_symmetry_space_group_name_H-M  'P2_13'
_cell_length_a       5.30473
_cell_length_b       5.30473
_cell_length_c       5.30473
_cell_angle_alpha    90
_cell_angle_beta     90
_cell_angle_gamma    90

_symmetry_Int_Tables_number  198
_chemical_formula_structural  HgPd
_chemical_formula_sum  Hg4Pd4
_cell_volume  149.27577603946355
_cell_formula_units_Z  4
loop_
  _symmetry_equiv_pos_site_id
 _symmetry_equiv_pos_as_xyz
 1  'x, y, z'
loop_
 _atom_site_type_symbol
 _atom_site_label
 _atom_site_symmetry_multiplicity
 _atom_site_fract_x
 _atom_site_fract_y
 _atom_site_fract_z
 _atom_site_fract_occupancy
 Hg  Hg1  1  0.84326  0.65674  0.34326  1
 Hg  Hg2  1  0.65674  0.34326  0.84326  1
 Hg  Hg3  1  0.34326  0.84326  0.65674  1
 Hg  Hg4  1  0.15674  0.15674  0.15674  1
 Pd  Pd1  1  0.15281  0.34719  0.65281  1
 Pd  Pd2  1  0.34719  0.65281  0.15281  1
 Pd  Pd3  1  0.65281  0.15281  0.34719  1
 Pd  Pd4  1  0.84719  0.84719  0.84719  1
