CIF file written using JARVIS-Tools package.
data_K2PbS2O8
_symmetry_space_group_name_H-M  'R-3m'
_cell_length_a       10.6362
_cell_length_b       10.6362
_cell_length_c       10.6362
_cell_angle_alpha    30.8996
_cell_angle_beta     30.8996
_cell_angle_gamma    30.8996

_symmetry_Int_Tables_number  166
_chemical_formula_structural  K2PbS2O8
_chemical_formula_sum  K2PbS2O8
_cell_volume  281.45570216806703
_cell_formula_units_Z  1
loop_
  _symmetry_equiv_pos_site_id
 _symmetry_equiv_pos_as_xyz
 1  'x, y, z'
loop_
 _atom_site_type_symbol
 _atom_site_label
 _atom_site_symmetry_multiplicity
 _atom_site_fract_x
 _atom_site_fract_y
 _atom_site_fract_z
 _atom_site_fract_occupancy
 K  K1  1  0.72622  0.72622  0.72622  1
 K  K2  1  0.27378  0.27378  0.27378  1
 O  O1  1  0.71596  0.71596  0.28998  1
 O  O2  1  0.28404  0.71002  0.28404  1
 O  O3  1  0.71596  0.28998  0.71596  1
 O  O4  1  0.71002  0.28404  0.28404  1
 O  O5  1  0.28404  0.28404  0.71002  1
 O  O6  1  0.35933  0.35933  0.35933  1
 O  O7  1  0.28998  0.71596  0.71596  1
 O  O8  1  0.64067  0.64067  0.64067  1
 Pb  Pb1  1  0.50000  0.50000  0.50000  1
 S  S1  1  0.59278  0.59278  0.59278  1
 S  S2  1  0.40722  0.40722  0.40722  1
