CIF file written using JARVIS-Tools package.
data_NaAgC2N2
_symmetry_space_group_name_H-M  'C2/c'
_cell_length_a       3.59862
_cell_length_b       3.59512
_cell_length_c       18.3956
_cell_angle_alpha    84.53
_cell_angle_beta     90
_cell_angle_gamma    120.032

_symmetry_Int_Tables_number  15
_chemical_formula_structural  NaAgC2N2
_chemical_formula_sum  Na2Ag2C4N4
_cell_volume  204.7875244627378
_cell_formula_units_Z  2
loop_
  _symmetry_equiv_pos_site_id
 _symmetry_equiv_pos_as_xyz
 1  'x, y, z'
loop_
 _atom_site_type_symbol
 _atom_site_label
 _atom_site_symmetry_multiplicity
 _atom_site_fract_x
 _atom_site_fract_y
 _atom_site_fract_z
 _atom_site_fract_occupancy
 Ag  Ag1  1  -0.00000  0.50000  0.50000  1
 Ag  Ag2  1  0.50000  0.50000  0.00000  1
 C  C1  1  0.52093  0.42522  0.11082  1
 C  C2  1  0.09572  0.57478  0.38918  1
 C  C3  1  0.47907  0.57478  0.88918  1
 C  C4  1  0.90428  0.42522  0.61082  1
 N  N1  1  0.53009  0.38222  0.17448  1
 N  N2  1  0.46991  0.61778  0.82552  1
 N  N3  1  0.85213  0.38222  0.67448  1
 N  N4  1  0.14787  0.61778  0.32552  1
 Na  Na1  1  0.83585  0.00000  0.25000  1
 Na  Na2  1  0.16415  0.00000  0.75000  1
