CIF file written using JARVIS-Tools package.
data_Hg2SeO3
_symmetry_space_group_name_H-M  'P2_1/c'
_cell_length_a       5.14939
_cell_length_b       8.6546
_cell_length_c       10.4921
_cell_angle_alpha    104.134
_cell_angle_beta     90
_cell_angle_gamma    90

_symmetry_Int_Tables_number  14
_chemical_formula_structural  Hg2SeO3
_chemical_formula_sum  Hg8Se4O2
_cell_volume  453.4317440101285
_cell_formula_units_Z  4
loop_
  _symmetry_equiv_pos_site_id
 _symmetry_equiv_pos_as_xyz
 1  'x, y, z'
loop_
 _atom_site_type_symbol
 _atom_site_label
 _atom_site_symmetry_multiplicity
 _atom_site_fract_x
 _atom_site_fract_y
 _atom_site_fract_z
 _atom_site_fract_occupancy
 Hg  Hg1  1  0.73050  0.15881  0.59342  1
 Hg  Hg2  1  0.26950  0.84119  0.40658  1
 Hg  Hg3  1  0.76950  0.65881  0.09342  1
 Hg  Hg4  1  0.79742  0.10790  0.34118  1
 Hg  Hg5  1  0.70258  0.60790  0.84118  1
 Hg  Hg6  1  0.20258  0.89210  0.65882  1
 Hg  Hg7  1  0.29742  0.39210  0.15882  1
 Hg  Hg8  1  0.23050  0.34119  0.90658  1
 O  O1  1  0.66555  0.19023  0.80521  1
 O  O2  1  0.83445  0.69023  0.30521  1
 O  O3  1  0.33445  0.80977  0.19479  1
 O  O4  1  0.58072  0.47491  0.63882  1
 O  O5  1  0.08072  0.02509  0.86118  1
 O  O6  1  0.41928  0.52509  0.36118  1
 O  O7  1  0.34667  0.12956  0.23753  1
 O  O8  1  0.91928  0.97491  0.13882  1
 O  O9  1  0.65333  0.87044  0.76247  1
 O  O10  1  0.16555  0.30977  0.69479  1
 O  O11  1  0.84667  0.37044  0.26247  1
 O  O12  1  0.15333  0.62956  0.73753  1
 Se  Se1  1  0.74378  0.03560  0.87995  1
 Se  Se2  1  0.75622  0.53560  0.37995  1
 Se  Se3  1  0.24378  0.46440  0.62005  1
 Se  Se4  1  0.25622  0.96440  0.12005  1
