CIF file written using JARVIS-Tools package.
data_K2TcF6
_symmetry_space_group_name_H-M  'P-3m1'
_cell_length_a       4.56267
_cell_length_b       5.7963
_cell_length_c       5.79634
_cell_angle_alpha    120
_cell_angle_beta     90
_cell_angle_gamma    90.0005

_symmetry_Int_Tables_number  164
_chemical_formula_structural  K2TcF6
_chemical_formula_sum  K2TcF6
_cell_volume  132.75566877077694
_cell_formula_units_Z  1
loop_
  _symmetry_equiv_pos_site_id
 _symmetry_equiv_pos_as_xyz
 1  'x, y, z'
loop_
 _atom_site_type_symbol
 _atom_site_label
 _atom_site_symmetry_multiplicity
 _atom_site_fract_x
 _atom_site_fract_y
 _atom_site_fract_z
 _atom_site_fract_occupancy
 F  F1  1  0.23235  0.83627  0.67259  1
 F  F2  1  0.23234  0.32741  0.16368  1
 F  F3  1  0.23235  0.83632  0.16373  1
 F  F4  1  0.76765  0.16373  0.32741  1
 F  F5  1  0.76766  0.67259  0.83632  1
 F  F6  1  0.76765  0.16368  0.83627  1
 K  K1  1  0.29054  0.33333  0.66667  1
 K  K2  1  0.70946  0.66667  0.33333  1
 Tc  Tc1  1  0.00000  0.00000  0.00000  1
