CIF file written using JARVIS-Tools package.
data_NdInPd
_symmetry_space_group_name_H-M  'P-62m'
_cell_length_a       7.78355
_cell_length_b       7.78361
_cell_length_c       4.01183
_cell_angle_alpha    89.9992
_cell_angle_beta     90.0006
_cell_angle_gamma    119.999

_symmetry_Int_Tables_number  189
_chemical_formula_structural  NdInPd
_chemical_formula_sum  Nd3In3Pd3
_cell_volume  210.49197356466084
_cell_formula_units_Z  3
loop_
  _symmetry_equiv_pos_site_id
 _symmetry_equiv_pos_as_xyz
 1  'x, y, z'
loop_
 _atom_site_type_symbol
 _atom_site_label
 _atom_site_symmetry_multiplicity
 _atom_site_fract_x
 _atom_site_fract_y
 _atom_site_fract_z
 _atom_site_fract_occupancy
 In  In1  1  0.58741  0.66666  0.05557  1
 In  In2  1  0.07922  0.41255  0.05557  1
 In  In3  1  0.33336  0.92080  0.05555  1
 Nd  Nd1  1  -0.07650  0.66667  0.55555  1
 Nd  Nd2  1  0.33334  0.25683  0.55555  1
 Nd  Nd3  1  0.74319  0.07649  0.55555  1
 Pd  Pd1  1  0.00001  -0.00002  0.05554  1
 Pd  Pd2  1  0.66668  0.33336  0.05555  1
 Pd  Pd3  1  0.33330  0.66666  0.55556  1
