CIF file written using JARVIS-Tools package.
data_LiTi4O8
_symmetry_space_group_name_H-M  'Pm'
_cell_length_a       4.99562
_cell_length_b       2.97364
_cell_length_c       9.63007
_cell_angle_alpha    90
_cell_angle_beta     91.3273
_cell_angle_gamma    90

_symmetry_Int_Tables_number  6
_chemical_formula_structural  LiTi4O8
_chemical_formula_sum  LiTi4O8
_cell_volume  143.01776755272112
_cell_formula_units_Z  1
loop_
  _symmetry_equiv_pos_site_id
 _symmetry_equiv_pos_as_xyz
 1  'x, y, z'
loop_
 _atom_site_type_symbol
 _atom_site_label
 _atom_site_symmetry_multiplicity
 _atom_site_fract_x
 _atom_site_fract_y
 _atom_site_fract_z
 _atom_site_fract_occupancy
 Li  Li1  1  0.06820  0.50000  0.54115  1
 O  O1  1  0.83782  0.00000  0.77002  1
 O  O2  1  0.80218  0.50000  0.03097  1
 O  O3  1  0.70039  0.50000  0.53170  1
 O  O4  1  0.66974  0.00000  0.27214  1
 O  O5  1  0.31634  0.50000  0.71748  1
 O  O6  1  0.28602  0.00000  0.46854  1
 O  O7  1  0.20620  0.00000  0.96662  1
 O  O8  1  0.16425  0.50000  0.22778  1
 Ti  Ti1  1  0.95248  0.00000  0.13729  1
 Ti  Ti2  1  0.54172  0.00000  0.64289  1
 Ti  Ti3  1  0.46564  0.50000  0.35519  1
 Ti  Ti4  1  0.05002  0.50000  0.86874  1
