CIF file written using JARVIS-Tools package.
data_KMg6W
_symmetry_space_group_name_H-M  'P4/mmm'
_cell_length_a       6.51648
_cell_length_b       9.21501
_cell_length_c       4.37389
_cell_angle_alpha    90
_cell_angle_beta     90
_cell_angle_gamma    134.996

_symmetry_Int_Tables_number  123
_chemical_formula_structural  KMg6W
_chemical_formula_sum  KMg6W
_cell_volume  185.73502563107547
_cell_formula_units_Z  1
loop_
  _symmetry_equiv_pos_site_id
 _symmetry_equiv_pos_as_xyz
 1  'x, y, z'
loop_
 _atom_site_type_symbol
 _atom_site_label
 _atom_site_symmetry_multiplicity
 _atom_site_fract_x
 _atom_site_fract_y
 _atom_site_fract_z
 _atom_site_fract_occupancy
 K  K1  1  0.24993  0.37496  0.25000  1
 Mg  Mg1  1  0.75002  0.37504  0.25000  1
 Mg  Mg2  1  0.75002  0.87497  0.25000  1
 Mg  Mg3  1  0.25001  0.09074  0.75000  1
 Mg  Mg4  1  0.25001  0.65927  0.75000  1
 Mg  Mg5  1  0.68142  0.09071  0.75000  1
 Mg  Mg6  1  0.81859  0.65930  0.75000  1
 W  W1  1  0.25001  0.87500  0.25000  1
