CIF file written using JARVIS-Tools package.
data_LiPtF6
_symmetry_space_group_name_H-M  'R-3'
_cell_length_a       4.94862
_cell_length_b       4.94862
_cell_length_c       5.36519
_cell_angle_alpha    62.5368
_cell_angle_beta     62.5368
_cell_angle_gamma    60

_symmetry_Int_Tables_number  148
_chemical_formula_structural  LiPtF6
_chemical_formula_sum  LiPtF6
_cell_volume  96.30918367696803
_cell_formula_units_Z  1
loop_
  _symmetry_equiv_pos_site_id
 _symmetry_equiv_pos_as_xyz
 1  'x, y, z'
loop_
 _atom_site_type_symbol
 _atom_site_label
 _atom_site_symmetry_multiplicity
 _atom_site_fract_x
 _atom_site_fract_y
 _atom_site_fract_z
 _atom_site_fract_occupancy
 F  F1  1  0.90477  0.60807  0.24497  1
 F  F2  1  0.60807  0.24219  0.24497  1
 F  F3  1  0.24219  0.90477  0.24497  1
 F  F4  1  0.09523  0.39193  0.75503  1
 F  F5  1  0.39193  0.75781  0.75503  1
 F  F6  1  0.75781  0.09523  0.75503  1
 Li  Li1  1  0.50000  0.50000  0.50000  1
 Pt  Pt1  1  0.00000  0.00000  0.00000  1
