CIF file written using JARVIS-Tools package.
data_TlH6N3O12
_symmetry_space_group_name_H-M  'R-3'
_cell_length_a       7.73733
_cell_length_b       7.73733
_cell_length_c       7.73733
_cell_angle_alpha    101.596
_cell_angle_beta     101.596
_cell_angle_gamma    101.596

_symmetry_Int_Tables_number  148
_chemical_formula_structural  TlH6N3O12
_chemical_formula_sum  Tl2H2N6O24
_cell_volume  430.1947899597193
_cell_formula_units_Z  2
loop_
  _symmetry_equiv_pos_site_id
 _symmetry_equiv_pos_as_xyz
 1  'x, y, z'
loop_
 _atom_site_type_symbol
 _atom_site_label
 _atom_site_symmetry_multiplicity
 _atom_site_fract_x
 _atom_site_fract_y
 _atom_site_fract_z
 _atom_site_fract_occupancy
 H  H1  1  0.84417  0.40948  0.69703  1
 H  H2  1  0.63880  0.32574  0.37399  1
 H  H3  1  0.37399  0.63880  0.32574  1
 H  H4  1  0.32574  0.37399  0.63880  1
 H  H5  1  0.36120  0.67426  0.62601  1
 H  H6  1  0.62601  0.36120  0.67426  1
 H  H7  1  0.67426  0.62601  0.36120  1
 H  H8  1  0.15583  0.59052  0.30297  1
 H  H9  1  0.30297  0.15583  0.59052  1
 H  H10  1  0.40948  0.69703  0.84417  1
 H  H11  1  0.69703  0.84417  0.40948  1
 H  H12  1  0.59052  0.30297  0.15583  1
 N  N1  1  0.10560  0.86756  0.66226  1
 N  N2  1  0.86756  0.66226  0.10560  1
 N  N3  1  0.66226  0.10560  0.86756  1
 N  N4  1  0.13244  0.33774  0.89440  1
 N  N5  1  0.33774  0.89440  0.13244  1
 N  N6  1  0.89440  0.13244  0.33774  1
 O  O1  1  0.70725  0.99437  0.96486  1
 O  O2  1  0.74923  0.05563  0.36795  1
 O  O3  1  0.99437  0.96486  0.70725  1
 O  O4  1  0.96486  0.70725  0.99437  1
 O  O5  1  0.36795  0.74923  0.05563  1
 O  O6  1  0.35245  0.27180  0.55776  1
 O  O7  1  0.25077  0.94437  0.63205  1
 O  O8  1  0.27180  0.55776  0.35245  1
 O  O9  1  0.03514  0.29275  0.00563  1
 O  O10  1  0.94437  0.63205  0.25077  1
 O  O11  1  0.05563  0.36795  0.74923  1
 O  O12  1  0.63205  0.25077  0.94437  1
 O  O13  1  0.55776  0.35245  0.27180  1
 O  O14  1  0.65158  0.06355  0.70021  1
 O  O15  1  0.06355  0.70021  0.65158  1
 O  O16  1  0.29979  0.34842  0.93645  1
 O  O17  1  0.34842  0.93645  0.29979  1
 O  O18  1  0.93645  0.29979  0.34842  1
 O  O19  1  0.64755  0.72820  0.44224  1
 O  O20  1  0.72820  0.44224  0.64755  1
 O  O21  1  0.44224  0.64755  0.72820  1
 O  O22  1  0.29275  0.00563  0.03514  1
 O  O23  1  0.70021  0.65158  0.06355  1
 O  O24  1  0.00563  0.03514  0.29275  1
 Tl  Tl1  1  0.24514  0.24514  0.24514  1
 Tl  Tl2  1  0.75486  0.75486  0.75486  1
