CIF file written using JARVIS-Tools package.
data_RbSbO2
_symmetry_space_group_name_H-M  'C2/c'
_cell_length_a       5.70159
_cell_length_b       5.90494
_cell_length_c       5.90493
_cell_angle_alpha    94.2959
_cell_angle_beta     111.889
_cell_angle_gamma    111.889

_symmetry_Int_Tables_number  15
_chemical_formula_structural  RbSbO2
_chemical_formula_sum  Rb2Sb2O4
_cell_volume  165.80680846547398
_cell_formula_units_Z  2
loop_
  _symmetry_equiv_pos_site_id
 _symmetry_equiv_pos_as_xyz
 1  'x, y, z'
loop_
 _atom_site_type_symbol
 _atom_site_label
 _atom_site_symmetry_multiplicity
 _atom_site_fract_x
 _atom_site_fract_y
 _atom_site_fract_z
 _atom_site_fract_occupancy
 O  O1  1  0.20989  0.12514  0.22796  1
 O  O2  1  0.29011  0.77204  0.87486  1
 O  O3  1  0.70989  0.22796  0.12514  1
 O  O4  1  0.79011  0.87486  0.77204  1
 Rb  Rb1  1  0.25000  0.63833  0.36167  1
 Rb  Rb2  1  0.75000  0.36167  0.63833  1
 Sb  Sb1  1  0.75000  0.90609  0.09391  1
 Sb  Sb2  1  0.25000  0.09391  0.90609  1
