CIF file written using JARVIS-Tools package.
data_Ce2Fe17
_symmetry_space_group_name_H-M  'R-3m'
_cell_length_a       6.35284
_cell_length_b       6.35284
_cell_length_c       6.35284
_cell_angle_alpha    81.6292
_cell_angle_beta     81.6293
_cell_angle_gamma    81.6292

_symmetry_Int_Tables_number  166
_chemical_formula_structural  Ce2Fe17
_chemical_formula_sum  Ce2Fe7
_cell_volume  248.92351465159697
_cell_formula_units_Z  1
loop_
  _symmetry_equiv_pos_site_id
 _symmetry_equiv_pos_as_xyz
 1  'x, y, z'
loop_
 _atom_site_type_symbol
 _atom_site_label
 _atom_site_symmetry_multiplicity
 _atom_site_fract_x
 _atom_site_fract_y
 _atom_site_fract_z
 _atom_site_fract_occupancy
 Ce  Ce1  1  0.34135  0.34135  0.34135  1
 Ce  Ce2  1  0.65865  0.65865  0.65865  1
 Fe  Fe1  1  0.34114  0.84165  0.34114  1
 Fe  Fe2  1  0.09467  0.09467  0.09467  1
 Fe  Fe3  1  0.90533  0.90533  0.90533  1
 Fe  Fe4  1  -0.00000  -0.00000  0.50000  1
 Fe  Fe5  1  0.50000  0.00000  0.00000  1
 Fe  Fe6  1  -0.00000  0.50000  -0.00000  1
 Fe  Fe7  1  0.29595  0.70405  -0.00000  1
 Fe  Fe8  1  0.34114  0.34114  0.84165  1
 Fe  Fe9  1  0.70405  0.29595  0.00000  1
 Fe  Fe10  1  0.00000  0.70405  0.29595  1
 Fe  Fe11  1  0.29595  -0.00000  0.70405  1
 Fe  Fe12  1  0.65886  0.15835  0.65886  1
 Fe  Fe13  1  0.65886  0.65886  0.15835  1
 Fe  Fe14  1  0.15835  0.65886  0.65886  1
 Fe  Fe15  1  0.84165  0.34114  0.34114  1
 Fe  Fe16  1  -0.00000  0.29595  0.70405  1
 Fe  Fe17  1  0.70405  0.00000  0.29595  1
