CIF file written using JARVIS-Tools package.
data_RbAuI3
_symmetry_space_group_name_H-M  'C2/m'
_cell_length_a       7.74487
_cell_length_b       7.74487
_cell_length_c       8.71237
_cell_angle_alpha    65.9162
_cell_angle_beta     65.9161
_cell_angle_gamma    61.5878

_symmetry_Int_Tables_number  12
_chemical_formula_structural  RbAuI3
_chemical_formula_sum  Rb2Au2I6
_cell_volume  404.4705624740724
_cell_formula_units_Z  2
loop_
  _symmetry_equiv_pos_site_id
 _symmetry_equiv_pos_as_xyz
 1  'x, y, z'
loop_
 _atom_site_type_symbol
 _atom_site_label
 _atom_site_symmetry_multiplicity
 _atom_site_fract_x
 _atom_site_fract_y
 _atom_site_fract_z
 _atom_site_fract_occupancy
 Au  Au1  1  0.00000  0.00000  0.00000  1
 Au  Au2  1  0.50000  0.50000  0.50000  1
 I  I1  1  0.72382  0.72382  0.35683  1
 I  I2  1  0.19940  0.72129  0.81380  1
 I  I3  1  0.80060  0.27871  0.18620  1
 I  I4  1  0.27871  0.80060  0.18620  1
 I  I5  1  0.72129  0.19940  0.81380  1
 I  I6  1  0.27618  0.27618  0.64317  1
 Rb  Rb1  1  0.27660  0.27660  0.22142  1
 Rb  Rb2  1  0.72340  0.72340  0.77858  1
