CIF file written using JARVIS-Tools package.
data_MnCo2O6
_symmetry_space_group_name_H-M  'Cmce'
_cell_length_a       4.91738
_cell_length_b       4.90299
_cell_length_c       8.83192
_cell_angle_alpha    90
_cell_angle_beta     90
_cell_angle_gamma    60.0969

_symmetry_Int_Tables_number  64
_chemical_formula_structural  MnCo2O6
_chemical_formula_sum  Mn2Co4O2
_cell_volume  184.58802362945315
_cell_formula_units_Z  2
loop_
  _symmetry_equiv_pos_site_id
 _symmetry_equiv_pos_as_xyz
 1  'x, y, z'
loop_
 _atom_site_type_symbol
 _atom_site_label
 _atom_site_symmetry_multiplicity
 _atom_site_fract_x
 _atom_site_fract_y
 _atom_site_fract_z
 _atom_site_fract_occupancy
 Co  Co1  1  0.33332  0.33334  0.00000  1
 Co  Co2  1  0.33332  0.83334  0.50000  1
 Co  Co3  1  0.66668  0.16666  0.50000  1
 Co  Co4  1  0.66668  0.66666  0.00000  1
 Mn  Mn1  1  0.00000  0.00000  0.00000  1
 Mn  Mn2  1  0.00000  0.50000  0.50000  1
 O  O1  1  0.00000  0.16318  0.60671  1
 O  O2  1  -0.00000  0.33682  0.10671  1
 O  O3  1  0.66356  0.50013  0.39360  1
 O  O4  1  0.33644  -0.00013  0.89360  1
 O  O5  1  0.00000  0.66318  0.89329  1
 O  O6  1  0.33644  0.66368  0.10640  1
 O  O7  1  0.33644  0.49987  0.60640  1
 O  O8  1  -0.00000  0.83682  0.39329  1
 O  O9  1  0.66356  0.00013  0.10640  1
 O  O10  1  0.66356  0.33632  0.89360  1
 O  O11  1  0.33644  0.16368  0.39360  1
 O  O12  1  0.66356  0.83632  0.60640  1
