CIF file written using JARVIS-Tools package.
data_PrMgGa
_symmetry_space_group_name_H-M  'P-62m'
_cell_length_a       7.5024
_cell_length_b       7.5024
_cell_length_c       4.53127
_cell_angle_alpha    90
_cell_angle_beta     90
_cell_angle_gamma    120

_symmetry_Int_Tables_number  189
_chemical_formula_structural  PrMgGa
_chemical_formula_sum  Pr3Mg3Ga3
_cell_volume  220.87770944565847
_cell_formula_units_Z  3
loop_
  _symmetry_equiv_pos_site_id
 _symmetry_equiv_pos_as_xyz
 1  'x, y, z'
loop_
 _atom_site_type_symbol
 _atom_site_label
 _atom_site_symmetry_multiplicity
 _atom_site_fract_x
 _atom_site_fract_y
 _atom_site_fract_z
 _atom_site_fract_occupancy
 Ga  Ga1  1  0.33333  0.66667  0.50000  1
 Ga  Ga2  1  0.66667  0.33333  0.50000  1
 Ga  Ga3  1  0.00000  0.00000  0.00000  1
 Mg  Mg1  1  0.24312  -0.00000  0.50000  1
 Mg  Mg2  1  0.75688  0.75688  0.50000  1
 Mg  Mg3  1  -0.00000  0.24312  0.50000  1
 Pr  Pr1  1  0.58003  -0.00000  0.00000  1
 Pr  Pr2  1  0.41997  0.41997  0.00000  1
 Pr  Pr3  1  -0.00000  0.58003  0.00000  1
