CIF file written using JARVIS-Tools package.
data_RbCdAg3C6N6
_symmetry_space_group_name_H-M  'P312'
_cell_length_a       6.87092
_cell_length_b       6.87092
_cell_length_c       8.48922
_cell_angle_alpha    90
_cell_angle_beta     90
_cell_angle_gamma    120

_symmetry_Int_Tables_number  149
_chemical_formula_structural  RbCdAg3C6N6
_chemical_formula_sum  RbCdAg3C6N6
_cell_volume  347.07896373344767
_cell_formula_units_Z  1
loop_
  _symmetry_equiv_pos_site_id
 _symmetry_equiv_pos_as_xyz
 1  'x, y, z'
loop_
 _atom_site_type_symbol
 _atom_site_label
 _atom_site_symmetry_multiplicity
 _atom_site_fract_x
 _atom_site_fract_y
 _atom_site_fract_z
 _atom_site_fract_occupancy
 Ag  Ag1  1  0.50828  0.01656  0.50000  1
 Ag  Ag2  1  0.50828  0.49172  0.50000  1
 Ag  Ag3  1  0.98344  0.49172  0.50000  1
 C  C1  1  0.65587  0.64241  0.29194  1
 C  C2  1  0.98654  0.34413  0.29194  1
 C  C3  1  0.35759  0.34413  0.70806  1
 C  C4  1  0.98654  0.64241  0.70806  1
 C  C5  1  0.65587  0.01346  0.70806  1
 C  C6  1  0.35759  0.01346  0.29194  1
 Cd  Cd1  1  0.00000  0.00000  0.00000  1
 N  N1  1  0.27198  0.26251  0.82788  1
 N  N2  1  0.73749  0.00947  0.82788  1
 N  N3  1  0.99053  0.72802  0.82788  1
 N  N4  1  0.99053  0.26251  0.17212  1
 N  N5  1  0.27198  0.00947  0.17212  1
 N  N6  1  0.73749  0.72802  0.17212  1
 Rb  Rb1  1  0.33333  0.66667  0.00000  1
