CIF file written using JARVIS-Tools package.
data_Li4MnO2F3
_symmetry_space_group_name_H-M  'Cm'
_cell_length_a       3.87923
_cell_length_b       5.03297
_cell_length_c       5.23653
_cell_angle_alpha    78.795
_cell_angle_beta     68.261
_cell_angle_gamma    67.3325

_symmetry_Int_Tables_number  8
_chemical_formula_structural  Li4MnO2F3
_chemical_formula_sum  Li4MnO2F3
_cell_volume  87.47267548576062
_cell_formula_units_Z  1
loop_
  _symmetry_equiv_pos_site_id
 _symmetry_equiv_pos_as_xyz
 1  'x, y, z'
loop_
 _atom_site_type_symbol
 _atom_site_label
 _atom_site_symmetry_multiplicity
 _atom_site_fract_x
 _atom_site_fract_y
 _atom_site_fract_z
 _atom_site_fract_occupancy
 F  F1  1  0.68737  0.21391  0.40664  1
 F  F2  1  0.07416  0.63226  0.21473  1
 F  F3  1  0.30113  0.79507  0.59798  1
 Li  Li1  1  0.19059  0.20044  0.41367  1
 Li  Li2  1  0.60665  0.60162  0.18037  1
 Li  Li3  1  0.41693  0.38709  0.77436  1
 Li  Li4  1  0.80118  0.77125  0.62171  1
 Mn  Mn1  1  0.98601  0.03029  0.99301  1
 O  O1  1  0.49651  0.99676  0.00555  1
 O  O2  1  0.90144  0.38026  0.81216  1
