CIF file written using JARVIS-Tools package.
data_K2AgAs
_symmetry_space_group_name_H-M  'Cmcm'
_cell_length_a       6.33777
_cell_length_b       6.33777
_cell_length_c       6.02627
_cell_angle_alpha    90
_cell_angle_beta     90
_cell_angle_gamma    103.164

_symmetry_Int_Tables_number  63
_chemical_formula_structural  K2AgAs
_chemical_formula_sum  K4Ag2As2
_cell_volume  235.69843737612644
_cell_formula_units_Z  2
loop_
  _symmetry_equiv_pos_site_id
 _symmetry_equiv_pos_as_xyz
 1  'x, y, z'
loop_
 _atom_site_type_symbol
 _atom_site_label
 _atom_site_symmetry_multiplicity
 _atom_site_fract_x
 _atom_site_fract_y
 _atom_site_fract_z
 _atom_site_fract_occupancy
 Ag  Ag1  1  0.50005  0.49995  0.00000  1
 Ag  Ag2  1  0.49995  0.50005  0.50000  1
 As  As1  1  0.23631  0.23631  0.25000  1
 As  As2  1  0.76369  0.76369  0.75000  1
 K  K1  1  0.68375  0.02909  0.24998  1
 K  K2  1  0.31625  0.97091  0.74998  1
 K  K3  1  0.02909  0.68375  0.25002  1
 K  K4  1  0.97091  0.31625  0.75002  1
