CIF file written using JARVIS-Tools package.
data_OsC
_symmetry_space_group_name_H-M  'P2_13'
_cell_length_a       4.49407
_cell_length_b       4.49407
_cell_length_c       4.49407
_cell_angle_alpha    90
_cell_angle_beta     90
_cell_angle_gamma    90

_symmetry_Int_Tables_number  198
_chemical_formula_structural  OsC
_chemical_formula_sum  Os4C4
_cell_volume  90.76537285136331
_cell_formula_units_Z  4
loop_
  _symmetry_equiv_pos_site_id
 _symmetry_equiv_pos_as_xyz
 1  'x, y, z'
loop_
 _atom_site_type_symbol
 _atom_site_label
 _atom_site_symmetry_multiplicity
 _atom_site_fract_x
 _atom_site_fract_y
 _atom_site_fract_z
 _atom_site_fract_occupancy
 C  C1  1  0.44548  0.94548  0.55452  1
 C  C2  1  0.94548  0.55452  0.44548  1
 C  C3  1  0.55452  0.44548  0.94548  1
 C  C4  1  0.05452  0.05452  0.05452  1
 Os  Os1  1  0.18486  0.68486  0.81514  1
 Os  Os2  1  0.68486  0.81514  0.18486  1
 Os  Os3  1  0.81514  0.18486  0.68486  1
 Os  Os4  1  0.31514  0.31514  0.31514  1
