CIF file written using JARVIS-Tools package.
data_SbCl6O2
_symmetry_space_group_name_H-M  'Immm'
_cell_length_a       6.56767
_cell_length_b       6.91999
_cell_length_c       6.91999
_cell_angle_alpha    69.3143
_cell_angle_beta     61.6704
_cell_angle_gamma    61.6704

_symmetry_Int_Tables_number  71
_chemical_formula_structural  SbCl6O2
_chemical_formula_sum  SbCl6O2
_cell_volume  240.32748430521448
_cell_formula_units_Z  1
loop_
  _symmetry_equiv_pos_site_id
 _symmetry_equiv_pos_as_xyz
 1  'x, y, z'
loop_
 _atom_site_type_symbol
 _atom_site_label
 _atom_site_symmetry_multiplicity
 _atom_site_fract_x
 _atom_site_fract_y
 _atom_site_fract_z
 _atom_site_fract_occupancy
 Cl  Cl1  1  0.00000  0.69354  0.30646  1
 Cl  Cl2  1  0.00000  0.30646  0.69354  1
 Cl  Cl3  1  0.44134  0.81512  0.81512  1
 Cl  Cl4  1  0.07157  0.18488  0.18488  1
 Cl  Cl5  1  0.92843  0.81512  0.81512  1
 Cl  Cl6  1  0.55866  0.18488  0.18488  1
 O  O1  1  0.50000  0.57712  0.42288  1
 O  O2  1  0.50000  0.42288  0.57712  1
 Sb  Sb1  1  0.00000  0.00000  0.00000  1
