CIF file written using JARVIS-Tools package.
data_Pr3MnBi5
_symmetry_space_group_name_H-M  'P6_3/mcm'
_cell_length_a       9.71015
_cell_length_b       9.71016
_cell_length_c       6.51941
_cell_angle_alpha    90
_cell_angle_beta     90
_cell_angle_gamma    120

_symmetry_Int_Tables_number  193
_chemical_formula_structural  Pr3MnBi5
_chemical_formula_sum  Pr6Mn2Bi0
_cell_volume  532.3422398774048
_cell_formula_units_Z  2
loop_
  _symmetry_equiv_pos_site_id
 _symmetry_equiv_pos_as_xyz
 1  'x, y, z'
loop_
 _atom_site_type_symbol
 _atom_site_label
 _atom_site_symmetry_multiplicity
 _atom_site_fract_x
 _atom_site_fract_y
 _atom_site_fract_z
 _atom_site_fract_occupancy
 Bi  Bi1  1  0.74813  0.74813  0.25000  1
 Bi  Bi2  1  0.74813  -0.00000  0.75000  1
 Bi  Bi3  1  -0.00000  0.25187  0.25000  1
 Bi  Bi4  1  0.00000  0.74813  0.75000  1
 Bi  Bi5  1  0.25187  0.00000  0.25000  1
 Bi  Bi6  1  0.33333  0.66667  0.00000  1
 Bi  Bi7  1  0.25187  0.25187  0.75000  1
 Bi  Bi8  1  0.66667  0.33333  0.50000  1
 Bi  Bi9  1  0.66667  0.33333  0.00000  1
 Bi  Bi10  1  0.33333  0.66667  0.50000  1
 Mn  Mn1  1  0.00000  0.00000  0.50000  1
 Mn  Mn2  1  0.00000  0.00000  0.00000  1
 Pr  Pr1  1  0.00000  0.61948  0.25000  1
 Pr  Pr2  1  0.38052  0.38052  0.25000  1
 Pr  Pr3  1  -0.00000  0.38052  0.75000  1
 Pr  Pr4  1  0.61948  -0.00000  0.25000  1
 Pr  Pr5  1  0.38052  0.00000  0.75000  1
 Pr  Pr6  1  0.61948  0.61948  0.75000  1
