CIF file written using JARVIS-Tools package.
data_Na4PtO4
_symmetry_space_group_name_H-M  'C2/m'
_cell_length_a       3.27685
_cell_length_b       5.62773
_cell_length_c       7.09841
_cell_angle_alpha    76.1477
_cell_angle_beta     103.34
_cell_angle_gamma    106.931

_symmetry_Int_Tables_number  12
_chemical_formula_structural  Na4PtO4
_chemical_formula_sum  Na4PtO4
_cell_volume  119.74684842534849
_cell_formula_units_Z  1
loop_
  _symmetry_equiv_pos_site_id
 _symmetry_equiv_pos_as_xyz
 1  'x, y, z'
loop_
 _atom_site_type_symbol
 _atom_site_label
 _atom_site_symmetry_multiplicity
 _atom_site_fract_x
 _atom_site_fract_y
 _atom_site_fract_z
 _atom_site_fract_occupancy
 Na  Na1  1  0.99617  0.01890  0.97646  1
 Na  Na2  1  0.82768  0.46307  0.19549  1
 Na  Na3  1  0.39958  0.17908  0.62281  1
 Na  Na4  1  0.56799  0.73489  0.40377  1
 O  O1  1  0.39679  0.72569  0.07100  1
 O  O2  1  0.99891  0.47227  0.52826  1
 O  O3  1  0.76848  0.83503  0.70471  1
 O  O4  1  0.62725  0.36294  0.89456  1
 Pt  Pt1  1  0.19785  0.59898  0.79963  1
