CIF file written using JARVIS-Tools package.
data_RbCrCl3
_symmetry_space_group_name_H-M  'C2/m'
_cell_length_a       6.17032
_cell_length_b       6.93166
_cell_length_c       6.9652
_cell_angle_alpha    119.841
_cell_angle_beta     92.1719
_cell_angle_gamma    90

_symmetry_Int_Tables_number  12
_chemical_formula_structural  RbCrCl3
_chemical_formula_sum  Rb2Cr2Cl6
_cell_volume  258.1597758217351
_cell_formula_units_Z  2
loop_
  _symmetry_equiv_pos_site_id
 _symmetry_equiv_pos_as_xyz
 1  'x, y, z'
loop_
 _atom_site_type_symbol
 _atom_site_label
 _atom_site_symmetry_multiplicity
 _atom_site_fract_x
 _atom_site_fract_y
 _atom_site_fract_z
 _atom_site_fract_occupancy
 Cl  Cl1  1  0.22466  0.67559  0.83827  1
 Cl  Cl2  1  0.22466  0.16268  0.83827  1
 Cl  Cl3  1  0.30349  0.16696  0.33393  1
 Cl  Cl4  1  0.77534  0.32441  0.16173  1
 Cl  Cl5  1  0.77534  0.83732  0.16173  1
 Cl  Cl6  1  0.69651  0.83304  0.66607  1
 Cr  Cr1  1  0.50000  0.00000  -0.00000  1
 Cr  Cr2  1  0.00000  0.00000  0.00000  1
 Rb  Rb1  1  0.75671  0.33337  0.66673  1
 Rb  Rb2  1  0.24329  0.66663  0.33327  1
