CIF file written using JARVIS-Tools package.
data_Rb2CoO3
_symmetry_space_group_name_H-M  'Cmcm'
_cell_length_a       6.26793
_cell_length_b       6.26793
_cell_length_c       5.37109
_cell_angle_alpha    90
_cell_angle_beta     90
_cell_angle_gamma    108.57

_symmetry_Int_Tables_number  63
_chemical_formula_structural  Rb2CoO3
_chemical_formula_sum  Rb4Co2O6
_cell_volume  200.02780282914935
_cell_formula_units_Z  2
loop_
  _symmetry_equiv_pos_site_id
 _symmetry_equiv_pos_as_xyz
 1  'x, y, z'
loop_
 _atom_site_type_symbol
 _atom_site_label
 _atom_site_symmetry_multiplicity
 _atom_site_fract_x
 _atom_site_fract_y
 _atom_site_fract_z
 _atom_site_fract_occupancy
 Co  Co1  1  0.07243  0.07243  0.24001  1
 Co  Co2  1  0.92757  0.92757  0.74001  1
 O  O1  1  0.11948  0.88044  0.99003  1
 O  O2  1  0.11956  0.88052  0.49003  1
 O  O3  1  0.32046  0.32046  0.23989  1
 O  O4  1  0.67954  0.67954  0.73989  1
 O  O5  1  0.88044  0.11948  0.99003  1
 O  O6  1  0.88052  0.11956  0.49003  1
 Rb  Rb1  1  0.18301  0.50506  0.74002  1
 Rb  Rb2  1  0.49494  0.81699  0.24002  1
 Rb  Rb3  1  0.50506  0.18301  0.74002  1
 Rb  Rb4  1  0.81699  0.49494  0.24002  1
