CIF file written using JARVIS-Tools package.
data_Be2NbTc2
_symmetry_space_group_name_H-M  'I4/mmm'
_cell_length_a       5.74243
_cell_length_b       5.74243
_cell_length_c       5.74243
_cell_angle_alpha    143.895
_cell_angle_beta     143.895
_cell_angle_gamma    51.9849

_symmetry_Int_Tables_number  139
_chemical_formula_structural  Be2NbTc2
_chemical_formula_sum  Be2NbTc2
_cell_volume  65.38141435456902
_cell_formula_units_Z  1
loop_
  _symmetry_equiv_pos_site_id
 _symmetry_equiv_pos_as_xyz
 1  'x, y, z'
loop_
 _atom_site_type_symbol
 _atom_site_label
 _atom_site_symmetry_multiplicity
 _atom_site_fract_x
 _atom_site_fract_y
 _atom_site_fract_z
 _atom_site_fract_occupancy
 Be  Be1  1  0.59404  0.59404  -0.00000  1
 Be  Be2  1  0.40596  0.40596  -0.00000  1
 Nb  Nb1  1  0.00000  0.00000  0.00000  1
 Tc  Tc1  1  0.75000  0.25000  0.50000  1
 Tc  Tc2  1  0.25000  0.75000  0.50000  1
