CIF file written using JARVIS-Tools package.
data_ZrBe2Nb
_symmetry_space_group_name_H-M  'I4/mmm'
_cell_length_a       4.54837
_cell_length_b       4.54837
_cell_length_c       4.54837
_cell_angle_alpha    126.522
_cell_angle_beta     126.522
_cell_angle_gamma    79.0311

_symmetry_Int_Tables_number  139
_chemical_formula_structural  ZrBe2Nb
_chemical_formula_sum  ZrBe2Nb
_cell_volume  58.777683481676895
_cell_formula_units_Z  1
loop_
  _symmetry_equiv_pos_site_id
 _symmetry_equiv_pos_as_xyz
 1  'x, y, z'
loop_
 _atom_site_type_symbol
 _atom_site_label
 _atom_site_symmetry_multiplicity
 _atom_site_fract_x
 _atom_site_fract_y
 _atom_site_fract_z
 _atom_site_fract_occupancy
 Be  Be1  1  0.00000  0.00000  0.00000  1
 Be  Be2  1  0.50000  0.50000  0.00000  1
 Nb  Nb1  1  0.25000  0.75000  0.50000  1
 Zr  Zr1  1  0.75000  0.25000  0.50000  1
