CIF file written using JARVIS-Tools package.
data_Te6Br2O11
_symmetry_space_group_name_H-M  'Cmcm'
_cell_length_a       6.83709
_cell_length_b       6.83709
_cell_length_c       15.6437
_cell_angle_alpha    90
_cell_angle_beta     90
_cell_angle_gamma    118.984

_symmetry_Int_Tables_number  63
_chemical_formula_structural  Te6Br2O11
_chemical_formula_sum  Te2Br4O22
_cell_volume  639.687704922577
_cell_formula_units_Z  2
loop_
  _symmetry_equiv_pos_site_id
 _symmetry_equiv_pos_as_xyz
 1  'x, y, z'
loop_
 _atom_site_type_symbol
 _atom_site_label
 _atom_site_symmetry_multiplicity
 _atom_site_fract_x
 _atom_site_fract_y
 _atom_site_fract_z
 _atom_site_fract_occupancy
 Br  Br1  1  0.49225  0.14626  0.75000  1
 Br  Br2  1  0.50775  0.85374  0.25000  1
 Br  Br3  1  0.14626  0.49225  0.75000  1
 Br  Br4  1  0.85374  0.50775  0.25000  1
 O  O1  1  0.81638  0.51489  0.03690  1
 O  O2  1  0.80535  0.04899  0.59361  1
 O  O3  1  0.95101  0.19465  0.40639  1
 O  O4  1  0.04899  0.80535  0.90639  1
 O  O5  1  0.80535  0.04899  0.90639  1
 O  O6  1  0.19465  0.95101  0.40639  1
 O  O7  1  0.04899  0.80535  0.59361  1
 O  O8  1  0.95101  0.19465  0.09361  1
 O  O9  1  0.51489  0.81638  0.03690  1
 O  O10  1  0.48511  0.18362  0.53690  1
 O  O11  1  0.81638  0.51489  0.46310  1
 O  O12  1  0.18362  0.48511  0.96310  1
 O  O13  1  0.48511  0.18362  0.96310  1
 O  O14  1  0.51489  0.81638  0.46310  1
 O  O15  1  0.19465  0.95101  0.09361  1
 O  O16  1  0.06124  0.06124  0.25000  1
 O  O17  1  0.41706  0.41706  0.38516  1
 O  O18  1  0.93876  0.93876  0.75000  1
 O  O19  1  0.58294  0.58294  0.61484  1
 O  O20  1  0.18362  0.48511  0.53690  1
 O  O21  1  0.58294  0.58294  0.88516  1
 O  O22  1  0.41706  0.41706  0.11484  1
 Te  Te1  1  0.08122  0.08122  0.86050  1
 Te  Te2  1  0.08122  0.08122  0.63950  1
 Te  Te3  1  0.91878  0.91878  0.13950  1
 Te  Te4  1  0.52349  0.20647  0.08621  1
 Te  Te5  1  0.91878  0.91878  0.36050  1
 Te  Te6  1  0.79353  0.47651  0.91379  1
 Te  Te7  1  0.47651  0.79353  0.91379  1
 Te  Te8  1  0.52349  0.20647  0.41379  1
 Te  Te9  1  0.47651  0.79353  0.58621  1
 Te  Te10  1  0.79353  0.47651  0.58621  1
 Te  Te11  1  0.20647  0.52349  0.41379  1
 Te  Te12  1  0.20647  0.52349  0.08621  1
