CIF file written using JARVIS-Tools package.
data_Bi2Pt
_symmetry_space_group_name_H-M  'P-3m1'
_cell_length_a       7.0893
_cell_length_b       7.08931
_cell_length_c       5.71673
_cell_angle_alpha    90
_cell_angle_beta     90
_cell_angle_gamma    120

_symmetry_Int_Tables_number  164
_chemical_formula_structural  Bi2Pt
_chemical_formula_sum  Bi6Pt3
_cell_volume  248.82023605334277
_cell_formula_units_Z  3
loop_
  _symmetry_equiv_pos_site_id
 _symmetry_equiv_pos_as_xyz
 1  'x, y, z'
loop_
 _atom_site_type_symbol
 _atom_site_label
 _atom_site_symmetry_multiplicity
 _atom_site_fract_x
 _atom_site_fract_y
 _atom_site_fract_z
 _atom_site_fract_occupancy
 Bi  Bi1  1  0.33332  0.99997  0.26480  1
 Bi  Bi2  1  0.99997  0.66665  0.73520  1
 Bi  Bi3  1  0.66668  0.00003  0.73520  1
 Bi  Bi4  1  0.66665  0.66668  0.26480  1
 Bi  Bi5  1  0.33335  0.33332  0.73520  1
 Bi  Bi6  1  0.00003  0.33335  0.26480  1
 Pt  Pt1  1  0.66667  0.33333  0.00005  1
 Pt  Pt2  1  0.00000  0.00000  0.00000  1
 Pt  Pt3  1  0.33333  0.66667  -0.00005  1
