CIF file written using JARVIS-Tools package.
data_H2O
_symmetry_space_group_name_H-M  'P2_12_12_1'
_cell_length_a       3.94222
_cell_length_b       7.95116
_cell_length_c       8.16799
_cell_angle_alpha    89.9999
_cell_angle_beta     90.0006
_cell_angle_gamma    89.9984

_symmetry_Int_Tables_number  19
_chemical_formula_structural  H2O
_chemical_formula_sum  H24O2
_cell_volume  256.0279565584393
_cell_formula_units_Z  12
loop_
  _symmetry_equiv_pos_site_id
 _symmetry_equiv_pos_as_xyz
 1  'x, y, z'
loop_
 _atom_site_type_symbol
 _atom_site_label
 _atom_site_symmetry_multiplicity
 _atom_site_fract_x
 _atom_site_fract_y
 _atom_site_fract_z
 _atom_site_fract_occupancy
 H  H1  1  0.26790  0.07238  0.84881  1
 H  H2  1  0.60560  0.04531  0.59655  1
 H  H3  1  0.64438  0.54529  0.40348  1
 H  H4  1  0.50384  0.65983  0.91711  1
 H  H5  1  0.19293  0.21880  0.72441  1
 H  H6  1  0.45908  0.22080  0.21394  1
 H  H7  1  0.89858  0.09066  0.46582  1
 H  H8  1  0.10553  0.45473  0.90348  1
 H  H9  1  0.35138  0.59065  0.53420  1
 H  H10  1  0.74605  0.15985  0.08292  1
 H  H11  1  0.00388  0.84017  0.58293  1
 H  H12  1  0.85136  0.90936  0.96583  1
 H  H13  1  0.79083  0.72077  0.78609  1
 H  H14  1  0.76789  0.42764  0.65122  1
 H  H15  1  0.39852  0.40937  0.03421  1
 H  H16  1  0.55700  0.78123  0.22442  1
 H  H17  1  0.24607  0.34019  0.41709  1
 H  H18  1  0.48203  0.92764  0.34882  1
 H  H19  1  0.69293  0.28124  0.77564  1
 H  H20  1  0.95908  0.27925  0.28608  1
 H  H21  1  0.14433  0.95472  0.09655  1
 H  H22  1  0.29084  0.77921  0.71395  1
 H  H23  1  0.98204  0.57239  0.15123  1
 H  H24  1  0.05701  0.71879  0.27565  1
 O  O1  1  0.61159  0.76014  0.86355  1
 O  O2  1  0.24884  0.50219  0.99339  1
 O  O3  1  0.00104  0.00218  0.00664  1
 O  O4  1  0.87940  0.63431  0.24585  1
 O  O5  1  0.74890  0.99785  0.50665  1
 O  O6  1  0.37055  0.13432  0.75420  1
 O  O7  1  0.63832  0.26016  0.13647  1
 O  O8  1  0.50107  0.49783  0.49339  1
 O  O9  1  0.11159  0.73985  0.63649  1
 O  O10  1  0.13833  0.23988  0.36354  1
 O  O11  1  0.87053  0.36572  0.74585  1
 O  O12  1  0.37939  0.86571  0.25421  1
