CIF file written using JARVIS-Tools package.
data_BaHo2O4
_symmetry_space_group_name_H-M  'Pnma'
_cell_length_a       3.45506
_cell_length_b       10.4276
_cell_length_c       12.1163
_cell_angle_alpha    90
_cell_angle_beta     90
_cell_angle_gamma    90

_symmetry_Int_Tables_number  62
_chemical_formula_structural  BaHo2O4
_chemical_formula_sum  Ba4Ho8O6
_cell_volume  436.52757912490796
_cell_formula_units_Z  4
loop_
  _symmetry_equiv_pos_site_id
 _symmetry_equiv_pos_as_xyz
 1  'x, y, z'
loop_
 _atom_site_type_symbol
 _atom_site_label
 _atom_site_symmetry_multiplicity
 _atom_site_fract_x
 _atom_site_fract_y
 _atom_site_fract_z
 _atom_site_fract_occupancy
 Ba  Ba1  1  0.25000  0.25285  0.85041  1
 Ba  Ba2  1  0.75000  0.74715  0.14959  1
 Ba  Ba3  1  0.25000  0.75285  0.64959  1
 Ba  Ba4  1  0.75000  0.24715  0.35041  1
 Ho  Ho1  1  0.75000  0.07418  0.11060  1
 Ho  Ho2  1  0.25000  0.92250  0.39106  1
 Ho  Ho3  1  0.25000  0.42250  0.10894  1
 Ho  Ho4  1  0.75000  0.07750  0.60894  1
 Ho  Ho5  1  0.75000  0.57418  0.38940  1
 Ho  Ho6  1  0.25000  0.42582  0.61060  1
 Ho  Ho7  1  0.25000  0.92582  0.88940  1
 Ho  Ho8  1  0.75000  0.57750  0.89106  1
 O  O1  1  0.25000  0.51819  0.78245  1
 O  O2  1  0.75000  0.06964  0.92558  1
 O  O3  1  0.25000  0.43036  0.42558  1
 O  O4  1  0.75000  0.56964  0.57442  1
 O  O5  1  0.25000  0.01819  0.71755  1
 O  O6  1  0.75000  0.98181  0.28245  1
 O  O7  1  0.75000  0.48181  0.21755  1
 O  O8  1  0.75000  0.28995  0.65807  1
 O  O9  1  0.75000  0.38475  0.98252  1
 O  O10  1  0.25000  0.11525  0.48252  1
 O  O11  1  0.75000  0.88475  0.51748  1
 O  O12  1  0.25000  0.93036  0.07442  1
 O  O13  1  0.75000  0.78995  0.84193  1
 O  O14  1  0.25000  0.71005  0.34193  1
 O  O15  1  0.25000  0.61525  0.01748  1
 O  O16  1  0.25000  0.21005  0.15807  1
