CIF file written using JARVIS-Tools package.
data_Mg7Cu
_symmetry_space_group_name_H-M  'P-6m2'
_cell_length_a       6.22218
_cell_length_b       6.22218
_cell_length_c       4.94957
_cell_angle_alpha    90
_cell_angle_beta     90
_cell_angle_gamma    120

_symmetry_Int_Tables_number  187
_chemical_formula_structural  Mg7Cu
_chemical_formula_sum  Mg7Cu
_cell_volume  165.95245672350782
_cell_formula_units_Z  1
loop_
  _symmetry_equiv_pos_site_id
 _symmetry_equiv_pos_as_xyz
 1  'x, y, z'
loop_
 _atom_site_type_symbol
 _atom_site_label
 _atom_site_symmetry_multiplicity
 _atom_site_fract_x
 _atom_site_fract_y
 _atom_site_fract_z
 _atom_site_fract_occupancy
 Cu  Cu1  1  0.16667  0.33333  0.25000  1
 Mg  Mg1  1  0.16571  0.83285  0.25000  1
 Mg  Mg2  1  0.66715  0.33429  0.25000  1
 Mg  Mg3  1  0.66715  0.83285  0.25000  1
 Mg  Mg4  1  0.32744  0.17256  0.75000  1
 Mg  Mg5  1  0.32744  0.65488  0.75000  1
 Mg  Mg6  1  0.84512  0.17256  0.75000  1
 Mg  Mg7  1  0.83333  0.66667  0.75000  1
