CIF file written using JARVIS-Tools package.
data_Ti2TlC
_symmetry_space_group_name_H-M  'P6_3/mmc'
_cell_length_a       3.17597
_cell_length_b       3.17597
_cell_length_c       14.129
_cell_angle_alpha    90
_cell_angle_beta     90
_cell_angle_gamma    119.999

_symmetry_Int_Tables_number  194
_chemical_formula_structural  Ti2TlC
_chemical_formula_sum  Ti4Tl2C2
_cell_volume  123.42389209596904
_cell_formula_units_Z  2
loop_
  _symmetry_equiv_pos_site_id
 _symmetry_equiv_pos_as_xyz
 1  'x, y, z'
loop_
 _atom_site_type_symbol
 _atom_site_label
 _atom_site_symmetry_multiplicity
 _atom_site_fract_x
 _atom_site_fract_y
 _atom_site_fract_z
 _atom_site_fract_occupancy
 C  C1  1  0.00000  0.00000  0.50000  1
 C  C2  1  0.00000  0.00000  0.00000  1
 Ti  Ti1  1  0.66667  0.33333  0.57788  1
 Ti  Ti2  1  0.33333  0.66667  0.42212  1
 Ti  Ti3  1  0.33333  0.66667  0.07788  1
 Ti  Ti4  1  0.66667  0.33333  0.92212  1
 Tl  Tl1  1  0.66669  0.33331  0.25000  1
 Tl  Tl2  1  0.33331  0.66669  0.75000  1
