CIF file written using JARVIS-Tools package.
data_RePbClO4
_symmetry_space_group_name_H-M  'Pmn2_1'
_cell_length_a       4.44364
_cell_length_b       5.7541
_cell_length_c       9.45839
_cell_angle_alpha    90
_cell_angle_beta     90
_cell_angle_gamma    90

_symmetry_Int_Tables_number  31
_chemical_formula_structural  RePbClO4
_chemical_formula_sum  Re2Pb2Cl2O8
_cell_volume  241.84329869471281
_cell_formula_units_Z  2
loop_
  _symmetry_equiv_pos_site_id
 _symmetry_equiv_pos_as_xyz
 1  'x, y, z'
loop_
 _atom_site_type_symbol
 _atom_site_label
 _atom_site_symmetry_multiplicity
 _atom_site_fract_x
 _atom_site_fract_y
 _atom_site_fract_z
 _atom_site_fract_occupancy
 Cl  Cl1  1  0.66654  0.00000  0.46068  1
 Cl  Cl2  1  0.16654  0.50000  0.53932  1
 O  O1  1  0.64007  0.24531  0.77804  1
 O  O2  1  0.14007  0.74531  0.22196  1
 O  O3  1  0.62900  0.50000  0.04739  1
 O  O4  1  0.63734  0.00000  0.12765  1
 O  O5  1  0.64007  0.75469  0.77804  1
 O  O6  1  0.14007  0.25469  0.22196  1
 O  O7  1  0.12900  0.00000  0.95261  1
 O  O8  1  0.13734  0.50000  0.87235  1
 Pb  Pb1  1  0.71035  0.50000  0.32417  1
 Pb  Pb2  1  0.21035  0.00000  0.67583  1
 Re  Re1  1  0.24593  0.00000  0.13001  1
 Re  Re2  1  0.74593  0.50000  0.86999  1
