CIF file written using JARVIS-Tools package.
data_V2OF5
_symmetry_space_group_name_H-M  'Pc'
_cell_length_a       4.76546
_cell_length_b       4.76717
_cell_length_c       9.88918
_cell_angle_alpha    90
_cell_angle_beta     119.074
_cell_angle_gamma    90

_symmetry_Int_Tables_number  7
_chemical_formula_structural  V2OF5
_chemical_formula_sum  V4O2F0
_cell_volume  196.35106585663104
_cell_formula_units_Z  2
loop_
  _symmetry_equiv_pos_site_id
 _symmetry_equiv_pos_as_xyz
 1  'x, y, z'
loop_
 _atom_site_type_symbol
 _atom_site_label
 _atom_site_symmetry_multiplicity
 _atom_site_fract_x
 _atom_site_fract_y
 _atom_site_fract_z
 _atom_site_fract_occupancy
 F  F1  1  0.03668  0.47087  0.81853  1
 F  F2  1  0.38907  0.54111  0.67634  1
 F  F3  1  0.96233  0.96535  0.67679  1
 F  F4  1  0.67939  0.42702  0.50202  1
 F  F5  1  0.31755  0.06758  0.50067  1
 F  F6  1  0.03668  0.52913  0.31853  1
 F  F7  1  0.96233  0.03465  0.17679  1
 F  F8  1  0.38907  0.45889  0.17634  1
 F  F9  1  0.67939  0.57298  0.00202  1
 F  F10  1  0.31755  0.93242  0.00067  1
 O  O1  1  0.59183  0.03615  0.81013  1
 O  O2  1  0.59183  0.96385  0.31013  1
 V  V1  1  0.34822  0.77299  0.82722  1
 V  V2  1  0.67567  0.24370  0.68634  1
 V  V3  1  0.34822  0.22701  0.32722  1
 V  V4  1  0.67567  0.75630  0.18634  1
