CIF file written using JARVIS-Tools package.
data_LiBeBr
_symmetry_space_group_name_H-M  'I4mm'
_cell_length_a       6.16345
_cell_length_b       6.16345
_cell_length_c       6.16345
_cell_angle_alpha    149.399
_cell_angle_beta     149.399
_cell_angle_gamma    43.8238

_symmetry_Int_Tables_number  107
_chemical_formula_structural  LiBeBr
_chemical_formula_sum  LiBeBr
_cell_volume  60.50252012128959
_cell_formula_units_Z  1
loop_
  _symmetry_equiv_pos_site_id
 _symmetry_equiv_pos_as_xyz
 1  'x, y, z'
loop_
 _atom_site_type_symbol
 _atom_site_label
 _atom_site_symmetry_multiplicity
 _atom_site_fract_x
 _atom_site_fract_y
 _atom_site_fract_z
 _atom_site_fract_occupancy
 Be  Be1  1  0.99257  0.99257  -0.00000  1
 Br  Br1  1  0.38095  0.38095  -0.00000  1
 Li  Li1  1  0.62648  0.62648  -0.00000  1
