CIF file written using JARVIS-Tools package.
data_SiO2
_symmetry_space_group_name_H-M  'I4/mmm'
_cell_length_a       10.3809
_cell_length_b       11.3502
_cell_length_c       11.3502
_cell_angle_alpha    77.9288
_cell_angle_beta     62.7867
_cell_angle_gamma    62.7868

_symmetry_Int_Tables_number  139
_chemical_formula_structural  SiO2
_chemical_formula_sum  Si6O32
_cell_volume  1057.6665157988239
_cell_formula_units_Z  16
loop_
  _symmetry_equiv_pos_site_id
 _symmetry_equiv_pos_as_xyz
 1  'x, y, z'
loop_
 _atom_site_type_symbol
 _atom_site_label
 _atom_site_symmetry_multiplicity
 _atom_site_fract_x
 _atom_site_fract_y
 _atom_site_fract_z
 _atom_site_fract_occupancy
 O  O1  1  0.19869  0.53448  0.81314  1
 O  O2  1  0.01183  0.53448  0.18686  1
 O  O3  1  0.16784  0.66431  0.00000  1
 O  O4  1  0.66017  0.62656  0.62656  1
 O  O5  1  0.91328  0.37344  0.37344  1
 O  O6  1  0.80131  0.18686  0.46552  1
 O  O7  1  0.01183  0.18686  0.53448  1
 O  O8  1  0.75651  0.24349  0.24349  1
 O  O9  1  -0.00000  0.75651  0.24349  1
 O  O10  1  0.98817  0.81314  0.46552  1
 O  O11  1  0.45370  0.81314  0.53448  1
 O  O12  1  0.45370  0.53448  0.81314  1
 O  O13  1  0.71328  0.37344  0.62656  1
 O  O14  1  0.28672  0.62656  0.37344  1
 O  O15  1  0.80131  0.46552  0.18686  1
 O  O16  1  0.83216  -0.00000  0.33569  1
 O  O17  1  0.54630  0.18686  0.46552  1
 O  O18  1  0.71328  0.62656  0.37344  1
 O  O19  1  0.28672  0.37344  0.62656  1
 O  O20  1  0.73316  0.81314  0.46552  1
 O  O21  1  0.24349  0.75651  0.75651  1
 O  O22  1  0.19869  0.81314  0.53448  1
 O  O23  1  0.98817  0.46552  0.81314  1
 O  O24  1  0.33983  0.37344  0.37344  1
 O  O25  1  0.54630  0.46552  0.18686  1
 O  O26  1  0.26684  0.18686  0.53448  1
 O  O27  1  0.83216  0.33569  -0.00000  1
 O  O28  1  0.00000  0.24349  0.75651  1
 O  O29  1  0.73316  0.46552  0.81314  1
 O  O30  1  0.26684  0.53448  0.18686  1
 O  O31  1  0.16784  0.00000  0.66431  1
 O  O32  1  0.08672  0.62656  0.62656  1
 Si  Si1  1  0.85990  0.50000  0.28021  1
 Si  Si2  1  0.35990  0.50000  0.28021  1
 Si  Si3  1  0.73380  0.15475  0.37764  1
 Si  Si4  1  0.26620  0.62236  0.84525  1
 Si  Si5  1  0.64010  0.50000  0.71979  1
 Si  Si6  1  0.14010  0.71979  0.50000  1
 Si  Si7  1  0.88855  0.37764  0.84525  1
 Si  Si8  1  0.14010  0.50000  0.71979  1
 Si  Si9  1  0.26620  0.84525  0.62236  1
 Si  Si10  1  0.64010  0.71979  0.50000  1
 Si  Si11  1  0.73380  0.37764  0.15475  1
 Si  Si12  1  0.88855  0.84525  0.37764  1
 Si  Si13  1  0.85990  0.28021  0.50000  1
 Si  Si14  1  0.11145  0.15475  0.62236  1
 Si  Si15  1  0.11145  0.62236  0.15475  1
 Si  Si16  1  0.35990  0.28021  0.50000  1
