CIF file written using JARVIS-Tools package.
data_Sr2Ti2Sb2OF2
_symmetry_space_group_name_H-M  'I4/mmm'
_cell_length_a       4.11088
_cell_length_b       4.11088
_cell_length_c       10.9186
_cell_angle_alpha    100.851
_cell_angle_beta     100.851
_cell_angle_gamma    90

_symmetry_Int_Tables_number  139
_chemical_formula_structural  Sr2Ti2Sb2OF2
_chemical_formula_sum  Sr2Ti2Sb2OF2
_cell_volume  177.8573966477753
_cell_formula_units_Z  1
loop_
  _symmetry_equiv_pos_site_id
 _symmetry_equiv_pos_as_xyz
 1  'x, y, z'
loop_
 _atom_site_type_symbol
 _atom_site_label
 _atom_site_symmetry_multiplicity
 _atom_site_fract_x
 _atom_site_fract_y
 _atom_site_fract_z
 _atom_site_fract_occupancy
 F  F1  1  0.75000  0.25000  0.50000  1
 F  F2  1  0.25000  0.75000  0.50000  1
 O  O1  1  0.50000  0.50000  0.00000  1
 Sb  Sb1  1  0.90362  0.90362  0.80724  1
 Sb  Sb2  1  0.09638  0.09638  0.19276  1
 Sr  Sr1  1  0.31692  0.31692  0.63384  1
 Sr  Sr2  1  0.68308  0.68308  0.36616  1
 Ti  Ti1  1  0.00000  0.50000  0.00000  1
 Ti  Ti2  1  0.50000  0.00000  0.00000  1
