CIF file written using JARVIS-Tools package.
data_BePW
_symmetry_space_group_name_H-M  'I4mm'
_cell_length_a       4.47959
_cell_length_b       4.47959
_cell_length_c       4.47959
_cell_angle_alpha    140.074
_cell_angle_beta     140.074
_cell_angle_gamma    57.7413

_symmetry_Int_Tables_number  107
_chemical_formula_structural  BePW
_chemical_formula_sum  BePW
_cell_volume  36.70284234391162
_cell_formula_units_Z  1
loop_
  _symmetry_equiv_pos_site_id
 _symmetry_equiv_pos_as_xyz
 1  'x, y, z'
loop_
 _atom_site_type_symbol
 _atom_site_label
 _atom_site_symmetry_multiplicity
 _atom_site_fract_x
 _atom_site_fract_y
 _atom_site_fract_z
 _atom_site_fract_occupancy
 Be  Be1  1  0.99189  0.99189  0.00000  1
 P  P1  1  0.33821  0.33821  0.00000  1
 W  W1  1  0.66991  0.66991  0.00000  1
