CIF file written using JARVIS-Tools package.
data_TeF4
_symmetry_space_group_name_H-M  'P2_12_12_1'
_cell_length_a       5.29774
_cell_length_b       6.05949
_cell_length_c       9.53449
_cell_angle_alpha    90
_cell_angle_beta     90
_cell_angle_gamma    90

_symmetry_Int_Tables_number  19
_chemical_formula_structural  TeF4
_chemical_formula_sum  Te4F6
_cell_volume  306.0725337103415
_cell_formula_units_Z  4
loop_
  _symmetry_equiv_pos_site_id
 _symmetry_equiv_pos_as_xyz
 1  'x, y, z'
loop_
 _atom_site_type_symbol
 _atom_site_label
 _atom_site_symmetry_multiplicity
 _atom_site_fract_x
 _atom_site_fract_y
 _atom_site_fract_z
 _atom_site_fract_occupancy
 F  F1  1  0.08868  0.29795  0.74952  1
 F  F2  1  0.71042  0.21890  0.94777  1
 F  F3  1  0.05440  0.85854  0.03706  1
 F  F4  1  0.55440  0.64146  0.96294  1
 F  F5  1  0.41132  0.70205  0.24952  1
 F  F6  1  0.13332  0.04770  0.27558  1
 F  F7  1  0.91132  0.79795  0.75048  1
 F  F8  1  0.36668  0.95230  0.77558  1
 F  F9  1  0.44560  0.14146  0.53706  1
 F  F10  1  0.21042  0.28110  0.05223  1
 F  F11  1  0.86668  0.54770  0.22442  1
 F  F12  1  0.94560  0.35854  0.46294  1
 F  F13  1  0.28958  0.71890  0.55223  1
 F  F14  1  0.58868  0.20205  0.25048  1
 F  F15  1  0.78958  0.78110  0.44777  1
 F  F16  1  0.63332  0.45230  0.72442  1
 Te  Te1  1  0.84643  0.49607  0.88078  1
 Te  Te2  1  0.65357  0.50393  0.38078  1
 Te  Te3  1  0.34643  0.00393  0.11922  1
 Te  Te4  1  0.15357  0.99607  0.61922  1
