CIF file written using JARVIS-Tools package.
data_HfFe2
_symmetry_space_group_name_H-M  'Fd-3m'
_cell_length_a       4.9128
_cell_length_b       4.9128
_cell_length_c       4.9128
_cell_angle_alpha    60
_cell_angle_beta     60
_cell_angle_gamma    60.0001

_symmetry_Int_Tables_number  227
_chemical_formula_structural  HfFe2
_chemical_formula_sum  Hf2Fe4
_cell_volume  83.84421706901959
_cell_formula_units_Z  2
loop_
  _symmetry_equiv_pos_site_id
 _symmetry_equiv_pos_as_xyz
 1  'x, y, z'
loop_
 _atom_site_type_symbol
 _atom_site_label
 _atom_site_symmetry_multiplicity
 _atom_site_fract_x
 _atom_site_fract_y
 _atom_site_fract_z
 _atom_site_fract_occupancy
 Fe  Fe1  1  0.50000  0.50000  0.50000  1
 Fe  Fe2  1  0.50000  0.50000  0.00000  1
 Fe  Fe3  1  0.00000  0.50000  0.50000  1
 Fe  Fe4  1  0.50000  0.00000  0.50000  1
 Hf  Hf1  1  0.87500  0.87500  0.87500  1
 Hf  Hf2  1  0.12500  0.12500  0.12500  1
