CIF file written using JARVIS-Tools package.
data_CeB2Ir2
_symmetry_space_group_name_H-M  'Fddd'
_cell_length_a       5.58049
_cell_length_b       5.5805
_cell_length_c       6.13362
_cell_angle_alpha    105.236
_cell_angle_beta     105.236
_cell_angle_gamma    114.98

_symmetry_Int_Tables_number  70
_chemical_formula_structural  CeB2Ir2
_chemical_formula_sum  Ce2B4Ir4
_cell_volume  151.03286865040542
_cell_formula_units_Z  2
loop_
  _symmetry_equiv_pos_site_id
 _symmetry_equiv_pos_as_xyz
 1  'x, y, z'
loop_
 _atom_site_type_symbol
 _atom_site_label
 _atom_site_symmetry_multiplicity
 _atom_site_fract_x
 _atom_site_fract_y
 _atom_site_fract_z
 _atom_site_fract_occupancy
 B  B1  1  0.80525  0.19475  0.75000  1
 B  B2  1  0.55525  0.44475  0.25000  1
 B  B3  1  0.44475  0.55525  0.75000  1
 B  B4  1  0.19475  0.80525  0.25000  1
 Ce  Ce1  1  0.12500  0.87500  0.75000  1
 Ce  Ce2  1  0.87500  0.12500  0.25000  1
 Ir  Ir1  1  0.75470  0.50470  0.00940  1
 Ir  Ir2  1  0.50470  0.75470  0.50940  1
 Ir  Ir3  1  0.24530  0.49530  0.99060  1
 Ir  Ir4  1  0.49530  0.24530  0.49060  1
