CIF file written using JARVIS-Tools package.
data_MgTiBe
_symmetry_space_group_name_H-M  'I4mm'
_cell_length_a       5.98207
_cell_length_b       5.98207
_cell_length_c       5.98207
_cell_angle_alpha    152.353
_cell_angle_beta     152.353
_cell_angle_gamma    39.4978

_symmetry_Int_Tables_number  107
_chemical_formula_structural  MgTiBe
_chemical_formula_sum  MgTiBe
_cell_volume  46.008170929691396
_cell_formula_units_Z  1
loop_
  _symmetry_equiv_pos_site_id
 _symmetry_equiv_pos_as_xyz
 1  'x, y, z'
loop_
 _atom_site_type_symbol
 _atom_site_label
 _atom_site_symmetry_multiplicity
 _atom_site_fract_x
 _atom_site_fract_y
 _atom_site_fract_z
 _atom_site_fract_occupancy
 Be  Be1  1  0.00798  0.00798  0.00000  1
 Mg  Mg1  1  0.35136  0.35136  0.00000  1
 Ti  Ti1  1  0.64066  0.64066  0.00000  1
