CIF file written using JARVIS-Tools package.
data_LaB2ClO4
_symmetry_space_group_name_H-M  'P-1'
_cell_length_a       4.25802
_cell_length_b       6.64229
_cell_length_c       8.1543
_cell_angle_alpha    82.1322
_cell_angle_beta     89.2698
_cell_angle_gamma    72.0288

_symmetry_Int_Tables_number  2
_chemical_formula_structural  LaB2ClO4
_chemical_formula_sum  La2B4Cl2O8
_cell_volume  217.20458870609923
_cell_formula_units_Z  2
loop_
  _symmetry_equiv_pos_site_id
 _symmetry_equiv_pos_as_xyz
 1  'x, y, z'
loop_
 _atom_site_type_symbol
 _atom_site_label
 _atom_site_symmetry_multiplicity
 _atom_site_fract_x
 _atom_site_fract_y
 _atom_site_fract_z
 _atom_site_fract_occupancy
 B  B1  1  0.16613  0.35062  0.85312  1
 B  B2  1  0.43743  0.43624  0.19365  1
 B  B3  1  0.83387  0.64938  0.14688  1
 B  B4  1  0.56257  0.56376  0.80635  1
 Cl  Cl1  1  0.14524  0.20532  0.54171  1
 Cl  Cl2  1  0.85476  0.79468  0.45829  1
 La  La1  1  0.21397  0.03064  0.22251  1
 La  La2  1  0.78603  0.96936  0.77749  1
 O  O1  1  0.90019  0.53603  0.82389  1
 O  O2  1  0.47725  0.37569  0.81877  1
 O  O3  1  0.63521  0.23533  0.20942  1
 O  O4  1  0.52275  0.62431  0.18123  1
 O  O5  1  0.36479  0.76467  0.79058  1
 O  O6  1  0.09981  0.46397  0.17611  1
 O  O7  1  0.83808  0.84540  0.07965  1
 O  O8  1  0.16192  0.15460  0.92035  1
