CIF file written using JARVIS-Tools package.
data_Al2CuIr
_symmetry_space_group_name_H-M  'Cmme'
_cell_length_a       4.80736
_cell_length_b       4.80736
_cell_length_c       5.26021
_cell_angle_alpha    90
_cell_angle_beta     90
_cell_angle_gamma    115.559

_symmetry_Int_Tables_number  67
_chemical_formula_structural  Al2CuIr
_chemical_formula_sum  Al4Cu2Ir2
_cell_volume  109.67073288204635
_cell_formula_units_Z  2
loop_
  _symmetry_equiv_pos_site_id
 _symmetry_equiv_pos_as_xyz
 1  'x, y, z'
loop_
 _atom_site_type_symbol
 _atom_site_label
 _atom_site_symmetry_multiplicity
 _atom_site_fract_x
 _atom_site_fract_y
 _atom_site_fract_z
 _atom_site_fract_occupancy
 Al  Al1  1  0.75000  0.25000  0.50000  1
 Al  Al2  1  0.25000  0.75000  0.50000  1
 Al  Al3  1  0.75000  0.75000  0.82870  1
 Al  Al4  1  0.25000  0.25000  0.17130  1
 Cu  Cu1  1  0.75000  0.25000  0.00000  1
 Cu  Cu2  1  0.25000  0.75000  0.00000  1
 Ir  Ir1  1  0.25000  0.25000  0.68061  1
 Ir  Ir2  1  0.75000  0.75000  0.31939  1
