CIF file written using JARVIS-Tools package.
data_SrBeGe
_symmetry_space_group_name_H-M  'I4mm'
_cell_length_a       6.03973
_cell_length_b       6.03973
_cell_length_c       6.03973
_cell_angle_alpha    147.314
_cell_angle_beta     147.314
_cell_angle_gamma    46.8984

_symmetry_Int_Tables_number  107
_chemical_formula_structural  SrBeGe
_chemical_formula_sum  SrBeGe
_cell_volume  64.0140645001629
_cell_formula_units_Z  1
loop_
  _symmetry_equiv_pos_site_id
 _symmetry_equiv_pos_as_xyz
 1  'x, y, z'
loop_
 _atom_site_type_symbol
 _atom_site_label
 _atom_site_symmetry_multiplicity
 _atom_site_fract_x
 _atom_site_fract_y
 _atom_site_fract_z
 _atom_site_fract_occupancy
 Be  Be1  1  0.95868  0.95868  0.00000  1
 Ge  Ge1  1  0.37619  0.37619  0.00000  1
 Sr  Sr1  1  0.66512  0.66512  0.00000  1
