CIF file written using JARVIS-Tools package.
data_EuInPd
_symmetry_space_group_name_H-M  'P-62m'
_cell_length_a       3.90941
_cell_length_b       7.72795
_cell_length_c       7.72782
_cell_angle_alpha    120.001
_cell_angle_beta     90
_cell_angle_gamma    90

_symmetry_Int_Tables_number  189
_chemical_formula_structural  EuInPd
_chemical_formula_sum  Eu3In3Pd3
_cell_volume  202.19065381527304
_cell_formula_units_Z  3
loop_
  _symmetry_equiv_pos_site_id
 _symmetry_equiv_pos_as_xyz
 1  'x, y, z'
loop_
 _atom_site_type_symbol
 _atom_site_label
 _atom_site_symmetry_multiplicity
 _atom_site_fract_x
 _atom_site_fract_y
 _atom_site_fract_z
 _atom_site_fract_occupancy
 Eu  Eu1  1  0.50000  0.59182  -0.00000  1
 Eu  Eu2  1  0.50000  0.40815  0.40816  1
 Eu  Eu3  1  0.50000  0.99999  0.59184  1
 In  In1  1  0.00000  0.25813  0.00000  1
 In  In2  1  0.00000  0.74185  0.74186  1
 In  In3  1  0.00000  0.99999  0.25814  1
 Pd  Pd1  1  0.00000  0.33332  0.66667  1
 Pd  Pd2  1  0.00000  0.66666  0.33333  1
 Pd  Pd3  1  0.50000  0.99999  -0.00000  1
