CIF file written using JARVIS-Tools package.
data_LiTi2As
_symmetry_space_group_name_H-M  'F-43m'
_cell_length_a       4.4481
_cell_length_b       4.4481
_cell_length_c       4.4481
_cell_angle_alpha    60
_cell_angle_beta     60
_cell_angle_gamma    60

_symmetry_Int_Tables_number  216
_chemical_formula_structural  LiTi2As
_chemical_formula_sum  LiTi2As
_cell_volume  62.23127863392753
_cell_formula_units_Z  1
loop_
  _symmetry_equiv_pos_site_id
 _symmetry_equiv_pos_as_xyz
 1  'x, y, z'
loop_
 _atom_site_type_symbol
 _atom_site_label
 _atom_site_symmetry_multiplicity
 _atom_site_fract_x
 _atom_site_fract_y
 _atom_site_fract_z
 _atom_site_fract_occupancy
 As  As1  1  0.50000  0.50000  0.50000  1
 Li  Li1  1  0.75000  0.75000  0.75000  1
 Ti  Ti1  1  0.00000  0.00000  0.00000  1
 Ti  Ti2  1  0.25000  0.25000  0.25000  1
