CIF file written using JARVIS-Tools package.
data_LaMg6B
_symmetry_space_group_name_H-M  'Amm2'
_cell_length_a       7.43092
_cell_length_b       5.73746
_cell_length_c       4.63074
_cell_angle_alpha    90
_cell_angle_beta     90
_cell_angle_gamma    112.709

_symmetry_Int_Tables_number  38
_chemical_formula_structural  LaMg6B
_chemical_formula_sum  LaMg6B
_cell_volume  182.1241880642387
_cell_formula_units_Z  1
loop_
  _symmetry_equiv_pos_site_id
 _symmetry_equiv_pos_as_xyz
 1  'x, y, z'
loop_
 _atom_site_type_symbol
 _atom_site_label
 _atom_site_symmetry_multiplicity
 _atom_site_fract_x
 _atom_site_fract_y
 _atom_site_fract_z
 _atom_site_fract_occupancy
 B  B1  1  0.30054  0.90027  0.25000  1
 La  La1  1  0.10426  0.30213  0.25000  1
 Mg  Mg1  1  0.60677  0.30567  0.25000  1
 Mg  Mg2  1  0.60677  0.80110  0.25000  1
 Mg  Mg3  1  0.33837  0.15711  0.75000  1
 Mg  Mg4  1  0.33837  0.68126  0.75000  1
 Mg  Mg5  1  0.77859  0.13929  0.75000  1
 Mg  Mg6  1  0.92633  0.71317  0.75000  1
