CIF file written using JARVIS-Tools package.
data_TiSn2O4
_symmetry_space_group_name_H-M  'P4_2/mbc'
_cell_length_a       5.98002
_cell_length_b       8.5736
_cell_length_c       8.5736
_cell_angle_alpha    90
_cell_angle_beta     90
_cell_angle_gamma    90

_symmetry_Int_Tables_number  135
_chemical_formula_structural  TiSn2O4
_chemical_formula_sum  Ti4Sn8O6
_cell_volume  439.5709569359247
_cell_formula_units_Z  4
loop_
  _symmetry_equiv_pos_site_id
 _symmetry_equiv_pos_as_xyz
 1  'x, y, z'
loop_
 _atom_site_type_symbol
 _atom_site_label
 _atom_site_symmetry_multiplicity
 _atom_site_fract_x
 _atom_site_fract_y
 _atom_site_fract_z
 _atom_site_fract_occupancy
 O  O1  1  0.75000  0.16346  0.33654  1
 O  O2  1  0.50000  0.12014  0.59730  1
 O  O3  1  0.00000  0.40270  0.12014  1
 O  O4  1  0.00000  0.59730  0.87986  1
 O  O5  1  0.00000  0.90270  0.37986  1
 O  O6  1  0.50000  0.62014  0.90270  1
 O  O7  1  0.50000  0.37986  0.09730  1
 O  O8  1  0.00000  0.09730  0.62014  1
 O  O9  1  0.75000  0.66346  0.16346  1
 O  O10  1  0.25000  0.83654  0.66346  1
 O  O11  1  0.25000  0.16346  0.33654  1
 O  O12  1  0.75000  0.33654  0.83654  1
 O  O13  1  0.50000  0.87986  0.40270  1
 O  O14  1  0.75000  0.83654  0.66346  1
 O  O15  1  0.25000  0.33654  0.83654  1
 O  O16  1  0.25000  0.66346  0.16346  1
 Sn  Sn1  1  0.50000  0.83871  0.14646  1
 Sn  Sn2  1  0.50000  0.33871  0.35354  1
 Sn  Sn3  1  0.50000  0.66129  0.64646  1
 Sn  Sn4  1  0.00000  0.35354  0.66129  1
 Sn  Sn5  1  0.00000  0.64646  0.33871  1
 Sn  Sn6  1  0.00000  0.85354  0.83871  1
 Sn  Sn7  1  0.50000  0.16129  0.85354  1
 Sn  Sn8  1  0.00000  0.14646  0.16129  1
 Ti  Ti1  1  0.25000  0.50000  0.00000  1
 Ti  Ti2  1  0.75000  0.00000  0.50000  1
 Ti  Ti3  1  0.75000  0.50000  0.00000  1
 Ti  Ti4  1  0.25000  0.00000  0.50000  1
