CIF file written using JARVIS-Tools package.
data_Rb2Ni3S4
_symmetry_space_group_name_H-M  'Fmmm'
_cell_length_a       5.81113
_cell_length_b       5.81113
_cell_length_c       7.328
_cell_angle_alpha    101.805
_cell_angle_beta     101.805
_cell_angle_gamma    118.95

_symmetry_Int_Tables_number  69
_chemical_formula_structural  Rb2Ni3S4
_chemical_formula_sum  Rb2Ni3S4
_cell_volume  198.19736766086743
_cell_formula_units_Z  1
loop_
  _symmetry_equiv_pos_site_id
 _symmetry_equiv_pos_as_xyz
 1  'x, y, z'
loop_
 _atom_site_type_symbol
 _atom_site_label
 _atom_site_symmetry_multiplicity
 _atom_site_fract_x
 _atom_site_fract_y
 _atom_site_fract_z
 _atom_site_fract_occupancy
 Ni  Ni1  1  0.00000  0.00000  0.00000  1
 Ni  Ni2  1  -0.00000  0.50000  0.00000  1
 Ni  Ni3  1  0.50000  -0.00000  0.00000  1
 Rb  Rb1  1  0.66170  0.66170  0.32339  1
 Rb  Rb2  1  0.33830  0.33830  0.67661  1
 S  S1  1  0.72446  0.06009  0.78455  1
 S  S2  1  0.93991  0.27554  0.21545  1
 S  S3  1  0.06009  0.72446  0.78455  1
 S  S4  1  0.27554  0.93991  0.21545  1
