CIF file written using JARVIS-Tools package.
data_Li3FeF6
_symmetry_space_group_name_H-M  'P-31m'
_cell_length_a       4.86464
_cell_length_b       4.86464
_cell_length_c       4.68492
_cell_angle_alpha    90
_cell_angle_beta     90
_cell_angle_gamma    120

_symmetry_Int_Tables_number  162
_chemical_formula_structural  Li3FeF6
_chemical_formula_sum  Li3FeF6
_cell_volume  96.01366689764295
_cell_formula_units_Z  1
loop_
  _symmetry_equiv_pos_site_id
 _symmetry_equiv_pos_as_xyz
 1  'x, y, z'
loop_
 _atom_site_type_symbol
 _atom_site_label
 _atom_site_symmetry_multiplicity
 _atom_site_fract_x
 _atom_site_fract_y
 _atom_site_fract_z
 _atom_site_fract_occupancy
 F  F1  1  -0.00000  0.30648  0.25023  1
 F  F2  1  0.00000  0.69352  0.74977  1
 F  F3  1  0.30648  -0.00000  0.25023  1
 F  F4  1  0.30648  0.30648  0.74977  1
 F  F5  1  0.69352  0.00000  0.74977  1
 F  F6  1  0.69352  0.69352  0.25023  1
 Fe  Fe1  1  0.00000  0.00000  0.00000  1
 Li  Li1  1  0.33333  0.66667  0.50000  1
 Li  Li2  1  0.00000  0.00000  0.50000  1
 Li  Li3  1  0.66667  0.33333  0.50000  1
