CIF file written using JARVIS-Tools package.
data_ErSi
_symmetry_space_group_name_H-M  'Pnma'
_cell_length_a       3.81
_cell_length_b       5.63882
_cell_length_c       7.83214
_cell_angle_alpha    90
_cell_angle_beta     90
_cell_angle_gamma    90

_symmetry_Int_Tables_number  62
_chemical_formula_structural  ErSi
_chemical_formula_sum  Er4Si4
_cell_volume  168.2649955910429
_cell_formula_units_Z  4
loop_
  _symmetry_equiv_pos_site_id
 _symmetry_equiv_pos_as_xyz
 1  'x, y, z'
loop_
 _atom_site_type_symbol
 _atom_site_label
 _atom_site_symmetry_multiplicity
 _atom_site_fract_x
 _atom_site_fract_y
 _atom_site_fract_z
 _atom_site_fract_occupancy
 Er  Er1  1  0.25000  0.38512  0.67905  1
 Er  Er2  1  0.25000  0.11488  0.17905  1
 Er  Er3  1  0.75000  0.61488  0.32095  1
 Er  Er4  1  0.75000  0.88512  0.82095  1
 Si  Si1  1  0.25000  0.86704  0.53950  1
 Si  Si2  1  0.25000  0.63296  0.03950  1
 Si  Si3  1  0.75000  0.13296  0.46050  1
 Si  Si4  1  0.75000  0.36704  0.96050  1
