CIF file written using JARVIS-Tools package.
data_NdAlPt
_symmetry_space_group_name_H-M  'Pnma'
_cell_length_a       4.48593
_cell_length_b       7.18776
_cell_length_c       7.87117
_cell_angle_alpha    90
_cell_angle_beta     90
_cell_angle_gamma    90

_symmetry_Int_Tables_number  62
_chemical_formula_structural  NdAlPt
_chemical_formula_sum  Nd4Al4Pt4
_cell_volume  253.796283278652
_cell_formula_units_Z  4
loop_
  _symmetry_equiv_pos_site_id
 _symmetry_equiv_pos_as_xyz
 1  'x, y, z'
loop_
 _atom_site_type_symbol
 _atom_site_label
 _atom_site_symmetry_multiplicity
 _atom_site_fract_x
 _atom_site_fract_y
 _atom_site_fract_z
 _atom_site_fract_occupancy
 Al  Al1  1  0.75000  0.85288  0.06832  1
 Al  Al2  1  0.25000  0.64712  0.56832  1
 Al  Al3  1  0.75000  0.35288  0.43168  1
 Al  Al4  1  0.25000  0.14712  0.93168  1
 Nd  Nd1  1  0.75000  0.47225  0.81765  1
 Nd  Nd2  1  0.25000  0.02775  0.31765  1
 Nd  Nd3  1  0.75000  0.97225  0.68235  1
 Nd  Nd4  1  0.25000  0.52775  0.18235  1
 Pt  Pt1  1  0.75000  0.71620  0.39044  1
 Pt  Pt2  1  0.75000  0.21620  0.10956  1
 Pt  Pt3  1  0.25000  0.28380  0.60956  1
 Pt  Pt4  1  0.25000  0.78380  0.89044  1
