CIF file written using JARVIS-Tools package.
data_HoNiSn
_symmetry_space_group_name_H-M  'P-62m'
_cell_length_a       3.89841
_cell_length_b       7.25719
_cell_length_c       7.25714
_cell_angle_alpha    120
_cell_angle_beta     90
_cell_angle_gamma    90

_symmetry_Int_Tables_number  189
_chemical_formula_structural  HoNiSn
_chemical_formula_sum  Ho3Ni3Sn3
_cell_volume  177.8079665525315
_cell_formula_units_Z  3
loop_
  _symmetry_equiv_pos_site_id
 _symmetry_equiv_pos_as_xyz
 1  'x, y, z'
loop_
 _atom_site_type_symbol
 _atom_site_label
 _atom_site_symmetry_multiplicity
 _atom_site_fract_x
 _atom_site_fract_y
 _atom_site_fract_z
 _atom_site_fract_occupancy
 Ho  Ho1  1  0.50000  0.59275  0.00000  1
 Ho  Ho2  1  0.50000  0.40722  0.40723  1
 Ho  Ho3  1  0.50000  -0.00001  0.59277  1
 Ni  Ni1  1  0.50000  0.99999  -0.00000  1
 Ni  Ni2  1  0.00000  0.33332  0.66667  1
 Ni  Ni3  1  0.00000  0.66665  0.33333  1
 Sn  Sn1  1  0.00000  0.25815  0.00000  1
 Sn  Sn2  1  0.00000  0.74183  0.74184  1
 Sn  Sn3  1  0.00000  -0.00001  0.25816  1
