CIF file written using JARVIS-Tools package.
data_SiH4
_symmetry_space_group_name_H-M  'P2_1/c'
_cell_length_a       7.39378
_cell_length_b       4.74038
_cell_length_c       7.493
_cell_angle_alpha    90
_cell_angle_beta     104.596
_cell_angle_gamma    90

_symmetry_Int_Tables_number  14
_chemical_formula_structural  SiH4
_chemical_formula_sum  Si4H6
_cell_volume  254.14821428702973
_cell_formula_units_Z  4
loop_
  _symmetry_equiv_pos_site_id
 _symmetry_equiv_pos_as_xyz
 1  'x, y, z'
loop_
 _atom_site_type_symbol
 _atom_site_label
 _atom_site_symmetry_multiplicity
 _atom_site_fract_x
 _atom_site_fract_y
 _atom_site_fract_z
 _atom_site_fract_occupancy
 H  H1  1  0.30060  0.13453  0.38837  1
 H  H2  1  0.19814  0.93101  0.00816  1
 H  H3  1  0.80186  0.43101  0.49184  1
 H  H4  1  0.80186  0.06899  0.99184  1
 H  H5  1  0.19814  0.56899  0.50816  1
 H  H6  1  0.08528  0.45380  0.18132  1
 H  H7  1  0.58923  0.41001  0.69388  1
 H  H8  1  0.91472  0.95380  0.31868  1
 H  H9  1  0.08528  0.04620  0.68132  1
 H  H10  1  0.41077  0.91001  0.80612  1
 H  H11  1  0.69940  0.63453  0.11163  1
 H  H12  1  0.69940  0.86547  0.61163  1
 H  H13  1  0.30060  0.36547  0.88837  1
 H  H14  1  0.41077  0.58999  0.30612  1
 H  H15  1  0.58923  0.08999  0.19388  1
 H  H16  1  0.91472  0.54620  0.81868  1
 Si  Si1  1  0.24851  0.43668  0.34610  1
 Si  Si2  1  0.75149  0.93668  0.15390  1
 Si  Si3  1  0.75149  0.56332  0.65390  1
 Si  Si4  1  0.24851  0.06332  0.84610  1
