CIF file written using JARVIS-Tools package.
data_Li2NiO2F
_symmetry_space_group_name_H-M  'P-3m1'
_cell_length_a       2.8782
_cell_length_b       2.8782
_cell_length_c       14.0323
_cell_angle_alpha    90
_cell_angle_beta     90
_cell_angle_gamma    120

_symmetry_Int_Tables_number  164
_chemical_formula_structural  Li2NiO2F
_chemical_formula_sum  Li4Ni2O4F2
_cell_volume  100.66984171506
_cell_formula_units_Z  2
loop_
  _symmetry_equiv_pos_site_id
 _symmetry_equiv_pos_as_xyz
 1  'x, y, z'
loop_
 _atom_site_type_symbol
 _atom_site_label
 _atom_site_symmetry_multiplicity
 _atom_site_fract_x
 _atom_site_fract_y
 _atom_site_fract_z
 _atom_site_fract_occupancy
 F  F1  1  0.33333  0.66667  0.91776  1
 F  F2  1  0.66667  0.33333  0.08224  1
 Li  Li1  1  0.00000  0.00000  0.50000  1
 Li  Li2  1  0.00000  0.00000  0.00000  1
 Li  Li3  1  0.33333  0.66667  0.16399  1
 Li  Li4  1  0.66667  0.33333  0.83601  1
 Ni  Ni1  1  0.33333  0.66667  0.66748  1
 Ni  Ni2  1  0.66667  0.33333  0.33252  1
 O  O1  1  0.00000  0.00000  0.74234  1
 O  O2  1  0.33333  0.66667  0.40776  1
 O  O3  1  0.00000  0.00000  0.25766  1
 O  O4  1  0.66667  0.33333  0.59224  1
