CIF file written using JARVIS-Tools package.
data_LiFeSiO4
_symmetry_space_group_name_H-M  'Pna2_1'
_cell_length_a       5.04084
_cell_length_b       6.63101
_cell_length_c       10.327
_cell_angle_alpha    90
_cell_angle_beta     90
_cell_angle_gamma    90

_symmetry_Int_Tables_number  33
_chemical_formula_structural  LiFeSiO4
_chemical_formula_sum  Li4Fe4Si4O6
_cell_volume  345.18901074648943
_cell_formula_units_Z  4
loop_
  _symmetry_equiv_pos_site_id
 _symmetry_equiv_pos_as_xyz
 1  'x, y, z'
loop_
 _atom_site_type_symbol
 _atom_site_label
 _atom_site_symmetry_multiplicity
 _atom_site_fract_x
 _atom_site_fract_y
 _atom_site_fract_z
 _atom_site_fract_occupancy
 Fe  Fe1  1  0.75260  0.99584  0.16937  1
 Fe  Fe2  1  0.25260  0.49584  0.33063  1
 Fe  Fe3  1  0.75260  0.50416  0.66937  1
 Fe  Fe4  1  0.25260  0.00416  0.83063  1
 Li  Li1  1  0.75478  0.49661  0.15430  1
 Li  Li2  1  0.25478  0.99661  0.34570  1
 Li  Li3  1  0.75478  0.00339  0.65430  1
 Li  Li4  1  0.25478  0.50339  0.84570  1
 O  O1  1  0.92742  0.23261  0.11629  1
 O  O2  1  0.86871  0.94555  0.34134  1
 O  O3  1  0.88456  0.54512  0.33469  1
 O  O4  1  0.81536  0.76211  0.06607  1
 O  O5  1  0.36871  0.44555  0.15866  1
 O  O6  1  0.42742  0.76739  0.88371  1
 O  O7  1  0.31536  0.26211  0.43393  1
 O  O8  1  0.38456  0.04512  0.16531  1
 O  O9  1  0.81536  0.73789  0.56607  1
 O  O10  1  0.88456  0.95488  0.83469  1
 O  O11  1  0.36871  0.05445  0.65866  1
 O  O12  1  0.38456  0.45488  0.66531  1
 O  O13  1  0.42742  0.73261  0.38371  1
 O  O14  1  0.86871  0.55445  0.84134  1
 O  O15  1  0.92742  0.26739  0.61629  1
 O  O16  1  0.31536  0.23789  0.93393  1
 Si  Si1  1  0.25072  0.23982  0.08968  1
 Si  Si2  1  0.75072  0.73982  0.41032  1
 Si  Si3  1  0.25072  0.26018  0.58968  1
 Si  Si4  1  0.75072  0.76018  0.91032  1
