CIF file written using JARVIS-Tools package.
data_SmNi2Ge2
_symmetry_space_group_name_H-M  'I4/mmm'
_cell_length_a       4.11601
_cell_length_b       4.116
_cell_length_c       5.70987
_cell_angle_alpha    111.127
_cell_angle_beta     111.126
_cell_angle_gamma    90

_symmetry_Int_Tables_number  139
_chemical_formula_structural  SmNi2Ge2
_chemical_formula_sum  SmNi2Ge2
_cell_volume  83.223773344654
_cell_formula_units_Z  1
loop_
  _symmetry_equiv_pos_site_id
 _symmetry_equiv_pos_as_xyz
 1  'x, y, z'
loop_
 _atom_site_type_symbol
 _atom_site_label
 _atom_site_symmetry_multiplicity
 _atom_site_fract_x
 _atom_site_fract_y
 _atom_site_fract_z
 _atom_site_fract_occupancy
 Ge  Ge1  1  0.63060  0.63060  0.26120  1
 Ge  Ge2  1  0.36940  0.36940  0.73880  1
 Ni  Ni1  1  0.75000  0.25000  0.50000  1
 Ni  Ni2  1  0.25000  0.75000  0.50000  1
 Sm  Sm1  1  0.00000  0.00000  0.00000  1
