CIF file written using JARVIS-Tools package.
data_BeReBi
_symmetry_space_group_name_H-M  'I4mm'
_cell_length_a       5.25545
_cell_length_b       5.25545
_cell_length_c       5.25545
_cell_angle_alpha    143.633
_cell_angle_beta     143.633
_cell_angle_gamma    52.3767

_symmetry_Int_Tables_number  107
_chemical_formula_structural  BeReBi
_chemical_formula_sum  BeReBi
_cell_volume  50.737941389147586
_cell_formula_units_Z  1
loop_
  _symmetry_equiv_pos_site_id
 _symmetry_equiv_pos_as_xyz
 1  'x, y, z'
loop_
 _atom_site_type_symbol
 _atom_site_label
 _atom_site_symmetry_multiplicity
 _atom_site_fract_x
 _atom_site_fract_y
 _atom_site_fract_z
 _atom_site_fract_occupancy
 Be  Be1  1  0.04855  0.04855  0.00000  1
 Bi  Bi1  1  0.32430  0.32430  0.00000  1
 Re  Re1  1  0.62715  0.62715  0.00000  1
