CIF file written using JARVIS-Tools package.
data_Mo2WS6
_symmetry_space_group_name_H-M  'R3m'
_cell_length_a       3.19262
_cell_length_b       3.19254
_cell_length_c       18.8184
_cell_angle_alpha    94.9097
_cell_angle_beta     90
_cell_angle_gamma    120.001

_symmetry_Int_Tables_number  160
_chemical_formula_structural  Mo2WS6
_chemical_formula_sum  Mo2WS6
_cell_volume  165.2950166301085
_cell_formula_units_Z  1
loop_
  _symmetry_equiv_pos_site_id
 _symmetry_equiv_pos_as_xyz
 1  'x, y, z'
loop_
 _atom_site_type_symbol
 _atom_site_label
 _atom_site_symmetry_multiplicity
 _atom_site_fract_x
 _atom_site_fract_y
 _atom_site_fract_z
 _atom_site_fract_occupancy
 Mo  Mo1  1  0.22197  0.44395  0.01355  1
 Mo  Mo2  1  0.66634  0.33268  0.34672  1
 S  S1  1  0.36115  0.72230  0.43036  1
 S  S2  1  0.52718  0.05437  0.92996  1
 S  S3  1  0.75001  0.50001  0.59654  1
 S  S4  1  0.58347  0.16693  0.09722  1
 S  S5  1  0.80664  0.61327  0.76477  1
 S  S6  1  0.30485  0.60970  0.26307  1
 W  W1  1  0.44500  0.88999  0.68066  1
