CIF file written using JARVIS-Tools package.
data_K2OsNCl5
_symmetry_space_group_name_H-M  'Cmc2_1'
_cell_length_a       8.20656
_cell_length_b       7.75694
_cell_length_c       7.75694
_cell_angle_alpha    102.119
_cell_angle_beta     90
_cell_angle_gamma    90

_symmetry_Int_Tables_number  36
_chemical_formula_structural  K2OsNCl5
_chemical_formula_sum  K4Os2N2Cl0
_cell_volume  482.7857631332304
_cell_formula_units_Z  2
loop_
  _symmetry_equiv_pos_site_id
 _symmetry_equiv_pos_as_xyz
 1  'x, y, z'
loop_
 _atom_site_type_symbol
 _atom_site_label
 _atom_site_symmetry_multiplicity
 _atom_site_fract_x
 _atom_site_fract_y
 _atom_site_fract_z
 _atom_site_fract_occupancy
 Cl  Cl1  1  0.91496  0.94537  0.72161  1
 Cl  Cl2  1  0.04895  0.20484  0.45526  1
 Cl  Cl3  1  0.41496  0.05463  0.27839  1
 Cl  Cl4  1  0.54895  0.79516  0.54474  1
 Cl  Cl5  1  0.71403  0.32047  0.67953  1
 Cl  Cl6  1  0.41496  0.72161  0.94537  1
 Cl  Cl7  1  0.21403  0.67953  0.32047  1
 Cl  Cl8  1  0.54895  0.45526  0.20484  1
 Cl  Cl9  1  0.91496  0.27839  0.05463  1
 Cl  Cl10  1  0.04895  0.54474  0.79516  1
 K  K1  1  0.06149  0.90439  0.09561  1
 K  K2  1  0.37463  0.43750  0.56250  1
 K  K3  1  0.56149  0.09561  0.90439  1
 K  K4  1  0.87463  0.56250  0.43750  1
 N  N1  1  0.71456  0.80797  0.19203  1
 N  N2  1  0.21456  0.19203  0.80797  1
 Os  Os1  1  0.02147  0.23480  0.76520  1
 Os  Os2  1  0.52147  0.76520  0.23480  1
