CIF file written using JARVIS-Tools package.
data_LiCo2OF3
_symmetry_space_group_name_H-M  'R-3m'
_cell_length_a       5.91776
_cell_length_b       6.11412
_cell_length_c       5.91776
_cell_angle_alpha    61.0568
_cell_angle_beta     60
_cell_angle_gamma    61.0568

_symmetry_Int_Tables_number  166
_chemical_formula_structural  LiCo2OF3
_chemical_formula_sum  Li2Co4O2F6
_cell_volume  153.77633964000665
_cell_formula_units_Z  2
loop_
  _symmetry_equiv_pos_site_id
 _symmetry_equiv_pos_as_xyz
 1  'x, y, z'
loop_
 _atom_site_type_symbol
 _atom_site_label
 _atom_site_symmetry_multiplicity
 _atom_site_fract_x
 _atom_site_fract_y
 _atom_site_fract_z
 _atom_site_fract_occupancy
 Co  Co1  1  0.62500  0.62500  0.12500  1
 Co  Co2  1  0.62500  0.12500  0.62500  1
 Co  Co3  1  0.12500  0.62500  0.62500  1
 Co  Co4  1  0.62500  0.62500  0.62500  1
 F  F1  1  0.38190  0.35436  0.38190  1
 F  F2  1  0.88184  0.35436  0.38190  1
 F  F3  1  0.86810  0.89564  0.36816  1
 F  F4  1  0.38190  0.35436  0.88184  1
 F  F5  1  0.36816  0.89564  0.86810  1
 F  F6  1  0.86810  0.89564  0.86810  1
 Li  Li1  1  0.97989  0.06032  0.97989  1
 Li  Li2  1  0.27011  0.18968  0.27011  1
 O  O1  1  0.85157  0.44531  0.85157  1
 O  O2  1  0.39843  0.80469  0.39843  1
