CIF file written using JARVIS-Tools package.
data_BeCdPt2
_symmetry_space_group_name_H-M  'P4mm'
_cell_length_a       3.04161
_cell_length_b       3.04161
_cell_length_c       6.64757
_cell_angle_alpha    90
_cell_angle_beta     90
_cell_angle_gamma    90

_symmetry_Int_Tables_number  99
_chemical_formula_structural  BeCdPt2
_chemical_formula_sum  BeCdPt2
_cell_volume  61.499120723898166
_cell_formula_units_Z  1
loop_
  _symmetry_equiv_pos_site_id
 _symmetry_equiv_pos_as_xyz
 1  'x, y, z'
loop_
 _atom_site_type_symbol
 _atom_site_label
 _atom_site_symmetry_multiplicity
 _atom_site_fract_x
 _atom_site_fract_y
 _atom_site_fract_z
 _atom_site_fract_occupancy
 Be  Be1  1  0.00000  0.00000  0.42790  1
 Cd  Cd1  1  0.50000  0.50000  0.74098  1
 Pt  Pt1  1  0.00000  0.00000  0.01840  1
 Pt  Pt2  1  0.50000  0.50000  0.31272  1
