CIF file written using JARVIS-Tools package.
data_BeOsPb
_symmetry_space_group_name_H-M  'I4mm'
_cell_length_a       5.35035
_cell_length_b       5.35035
_cell_length_c       5.35035
_cell_angle_alpha    145.251
_cell_angle_beta     145.251
_cell_angle_gamma    49.96

_symmetry_Int_Tables_number  107
_chemical_formula_structural  BeOsPb
_chemical_formula_sum  BeOsPb
_cell_volume  49.51846710114399
_cell_formula_units_Z  1
loop_
  _symmetry_equiv_pos_site_id
 _symmetry_equiv_pos_as_xyz
 1  'x, y, z'
loop_
 _atom_site_type_symbol
 _atom_site_label
 _atom_site_symmetry_multiplicity
 _atom_site_fract_x
 _atom_site_fract_y
 _atom_site_fract_z
 _atom_site_fract_occupancy
 Be  Be1  1  0.05339  0.05339  0.00000  1
 Os  Os1  1  0.62022  0.62022  0.00000  1
 Pb  Pb1  1  0.32639  0.32639  0.00000  1
