CIF file written using JARVIS-Tools package.
data_K2PdBr4
_symmetry_space_group_name_H-M  'P4/mmm'
_cell_length_a       7.37394
_cell_length_b       7.37394
_cell_length_c       4.23094
_cell_angle_alpha    90
_cell_angle_beta     90
_cell_angle_gamma    90

_symmetry_Int_Tables_number  123
_chemical_formula_structural  K2PdBr4
_chemical_formula_sum  K2PdBr4
_cell_volume  230.05692422596277
_cell_formula_units_Z  1
loop_
  _symmetry_equiv_pos_site_id
 _symmetry_equiv_pos_as_xyz
 1  'x, y, z'
loop_
 _atom_site_type_symbol
 _atom_site_label
 _atom_site_symmetry_multiplicity
 _atom_site_fract_x
 _atom_site_fract_y
 _atom_site_fract_z
 _atom_site_fract_occupancy
 Br  Br1  1  0.76262  0.76262  0.00000  1
 Br  Br2  1  0.23738  0.23738  0.00000  1
 Br  Br3  1  0.23738  0.76262  0.00000  1
 Br  Br4  1  0.76262  0.23738  0.00000  1
 K  K1  1  0.50000  0.00000  0.50000  1
 K  K2  1  0.00000  0.50000  0.50000  1
 Pd  Pd1  1  0.00000  0.00000  0.00000  1
