CIF file written using JARVIS-Tools package.
data_LiPrS2
_symmetry_space_group_name_H-M  'Imma'
_cell_length_a       8.02204
_cell_length_b       10.621
_cell_length_c       6.96064
_cell_angle_alpha    29.1925
_cell_angle_beta     54.8118
_cell_angle_gamma    40.9461

_symmetry_Int_Tables_number  74
_chemical_formula_structural  LiPrS2
_chemical_formula_sum  Li2Pr2S4
_cell_volume  183.0454772832586
_cell_formula_units_Z  2
loop_
  _symmetry_equiv_pos_site_id
 _symmetry_equiv_pos_as_xyz
 1  'x, y, z'
loop_
 _atom_site_type_symbol
 _atom_site_label
 _atom_site_symmetry_multiplicity
 _atom_site_fract_x
 _atom_site_fract_y
 _atom_site_fract_z
 _atom_site_fract_occupancy
 Li  Li1  1  0.24853  0.50204  0.00114  1
 Li  Li2  1  0.49841  0.00217  0.00021  1
 Pr  Pr1  1  0.99816  0.00209  0.00079  1
 Pr  Pr2  1  0.74828  0.50205  0.00081  1
 S  S1  1  0.99886  0.50202  0.49967  1
 S  S2  1  0.49763  0.50218  0.50181  1
 S  S3  1  0.24880  0.00190  0.49987  1
 S  S4  1  0.74739  0.00233  0.50176  1
