CIF file written using JARVIS-Tools package.
data_CaSiSnO5
_symmetry_space_group_name_H-M  'P-1'
_cell_length_a       7.21754
_cell_length_b       5.65989
_cell_length_c       5.5501
_cell_angle_alpha    106.689
_cell_angle_beta     102.656
_cell_angle_gamma    104.371

_symmetry_Int_Tables_number  2
_chemical_formula_structural  CaSiSnO5
_chemical_formula_sum  Ca2Si2Sn2O0
_cell_volume  199.81159537768076
_cell_formula_units_Z  2
loop_
  _symmetry_equiv_pos_site_id
 _symmetry_equiv_pos_as_xyz
 1  'x, y, z'
loop_
 _atom_site_type_symbol
 _atom_site_label
 _atom_site_symmetry_multiplicity
 _atom_site_fract_x
 _atom_site_fract_y
 _atom_site_fract_z
 _atom_site_fract_occupancy
 Ca  Ca1  1  0.78130  0.82974  0.15137  1
 Ca  Ca2  1  0.21870  0.17026  0.84863  1
 O  O1  1  0.24891  0.41487  0.59560  1
 O  O2  1  0.75109  0.58513  0.40440  1
 O  O3  1  0.07314  0.75098  0.90399  1
 O  O4  1  0.92686  0.24902  0.09601  1
 O  O5  1  0.40397  0.11221  0.23045  1
 O  O6  1  0.59603  0.88779  0.76955  1
 O  O7  1  0.62768  0.39075  0.81841  1
 O  O8  1  0.37232  0.60925  0.18159  1
 O  O9  1  0.86573  0.16691  0.58571  1
 O  O10  1  0.13427  0.83309  0.41429  1
 Si  Si1  1  0.25209  0.82254  0.18700  1
 Si  Si2  1  0.74791  0.17746  0.81300  1
 Sn  Sn1  1  0.50000  0.50000  0.50000  1
 Sn  Sn2  1  0.00000  0.50000  0.50000  1
