CIF file written using JARVIS-Tools package.
data_Li2B2S5
_symmetry_space_group_name_H-M  'Cmcm'
_cell_length_a       6.3547
_cell_length_b       6.7902
_cell_length_c       8.61779
_cell_angle_alpha    90
_cell_angle_beta     111.635
_cell_angle_gamma    90

_symmetry_Int_Tables_number  63
_chemical_formula_structural  Li2B2S5
_chemical_formula_sum  Li4B4S0
_cell_volume  345.6581021161056
_cell_formula_units_Z  2
loop_
  _symmetry_equiv_pos_site_id
 _symmetry_equiv_pos_as_xyz
 1  'x, y, z'
loop_
 _atom_site_type_symbol
 _atom_site_label
 _atom_site_symmetry_multiplicity
 _atom_site_fract_x
 _atom_site_fract_y
 _atom_site_fract_z
 _atom_site_fract_occupancy
 B  B1  1  0.55248  0.75000  0.82649  1
 B  B2  1  0.72599  0.75000  0.17351  1
 B  B3  1  0.44752  0.25000  0.17351  1
 B  B4  1  0.27401  0.25000  0.82649  1
 Li  Li1  1  0.77025  0.00000  0.54051  1
 Li  Li2  1  0.22975  0.50000  0.45949  1
 Li  Li3  1  0.22975  0.00000  0.45949  1
 Li  Li4  1  0.77025  0.50000  0.54051  1
 S  S1  1  0.82216  0.75000  0.00000  1
 S  S2  1  0.53117  0.75000  0.61163  1
 S  S3  1  0.46883  0.25000  0.38837  1
 S  S4  1  0.91955  0.75000  0.38837  1
 S  S5  1  0.70577  0.25000  0.13112  1
 S  S6  1  0.29423  0.75000  0.86888  1
 S  S7  1  0.57465  0.25000  0.86888  1
 S  S8  1  0.08045  0.25000  0.61163  1
 S  S9  1  0.42535  0.75000  0.13112  1
 S  S10  1  0.17784  0.25000  -0.00000  1
