CIF file written using JARVIS-Tools package.
data_Si2H2O5
_symmetry_space_group_name_H-M  'P1'
_cell_length_a       8.00163
_cell_length_b       8.64521
_cell_length_c       8.66617
_cell_angle_alpha    138.11
_cell_angle_beta     57.1227
_cell_angle_gamma    147.099

_symmetry_Int_Tables_number  1
_chemical_formula_structural  Si2H2O5
_chemical_formula_sum  Si4H4O0
_cell_volume  211.77294394437865
_cell_formula_units_Z  2
loop_
  _symmetry_equiv_pos_site_id
 _symmetry_equiv_pos_as_xyz
 1  'x, y, z'
loop_
 _atom_site_type_symbol
 _atom_site_label
 _atom_site_symmetry_multiplicity
 _atom_site_fract_x
 _atom_site_fract_y
 _atom_site_fract_z
 _atom_site_fract_occupancy
 H  H1  1  0.14014  0.61342  0.48487  1
 H  H2  1  0.66800  0.84189  0.64743  1
 H  H3  1  0.46455  0.45716  0.65768  1
 H  H4  1  0.16678  0.04370  0.32579  1
 O  O1  1  0.30897  0.09626  0.46276  1
 O  O2  1  0.57659  0.72139  0.78695  1
 O  O3  1  0.06722  0.05197  -0.02731  1
 O  O4  1  0.51041  0.17569  0.94932  1
 O  O5  1  0.35222  0.84743  0.51062  1
 O  O6  1  0.69891  0.06933  0.25148  1
 O  O7  1  0.11662  0.05456  0.25164  1
 O  O8  1  0.73081  -0.04993  0.58981  1
 O  O9  1  0.06969  0.44440  0.10248  1
 O  O10  1  0.92697  0.51817  0.76461  1
 Si  Si1  1  0.15634  0.95840  0.00022  1
 Si  Si2  1  0.84418  0.05506  0.01792  1
 Si  Si3  1  0.35698  0.88014  0.32585  1
 Si  Si4  1  0.65422  0.13943  0.71715  1
