CIF file written using JARVIS-Tools package.
data_Li4MnSb2WO12
_symmetry_space_group_name_H-M  'P1'
_cell_length_a       5.07112
_cell_length_b       5.40329
_cell_length_c       7.41404
_cell_angle_alpha    94.9241
_cell_angle_beta     90.0485
_cell_angle_gamma    90.0246

_symmetry_Int_Tables_number  1
_chemical_formula_structural  Li4MnSb2WO12
_chemical_formula_sum  Li4MnSb2WO2
_cell_volume  202.4000400011832
_cell_formula_units_Z  1
loop_
  _symmetry_equiv_pos_site_id
 _symmetry_equiv_pos_as_xyz
 1  'x, y, z'
loop_
 _atom_site_type_symbol
 _atom_site_label
 _atom_site_symmetry_multiplicity
 _atom_site_fract_x
 _atom_site_fract_y
 _atom_site_fract_z
 _atom_site_fract_occupancy
 Li  Li1  1  0.99697  0.44429  0.30032  1
 Li  Li2  1  0.49950  0.91055  0.77204  1
 Li  Li3  1  0.00209  0.56527  0.70772  1
 Li  Li4  1  0.49890  0.89671  0.30910  1
 Mn  Mn1  1  0.50149  0.49220  0.49904  1
 O  O1  1  0.31534  0.19799  0.42719  1
 O  O2  1  0.86644  0.00548  0.24513  1
 O  O3  1  0.31116  0.82065  0.06205  1
 O  O4  1  0.19971  0.69179  0.43553  1
 O  O5  1  0.13269  -0.00201  0.76046  1
 O  O6  1  0.37276  0.51653  0.74652  1
 O  O7  1  0.81678  0.32890  0.55454  1
 O  O8  1  0.16690  0.31443  0.06673  1
 O  O9  1  0.81708  0.69025  0.93172  1
 O  O10  1  0.68315  0.16692  0.92921  1
 O  O11  1  0.63023  0.51666  0.25171  1
 O  O12  1  0.68632  0.80985  0.56008  1
 Sb  Sb1  1  0.49983  0.48627  -0.00108  1
 Sb  Sb2  1  0.00346  0.00638  0.50633  1
 W  W1  1  -0.00080  -0.00151  0.00686  1
