CIF file written using JARVIS-Tools package.
data_Bi
_symmetry_space_group_name_H-M  'Cmce'
_cell_length_a       6.69071
_cell_length_b       6.69071
_cell_length_c       6.6839
_cell_angle_alpha    90
_cell_angle_beta     90
_cell_angle_gamma    118.968

_symmetry_Int_Tables_number  64
_chemical_formula_structural  Bi
_chemical_formula_sum  Bi8
_cell_volume  261.77456296856116
_cell_formula_units_Z  8
loop_
  _symmetry_equiv_pos_site_id
 _symmetry_equiv_pos_as_xyz
 1  'x, y, z'
loop_
 _atom_site_type_symbol
 _atom_site_label
 _atom_site_symmetry_multiplicity
 _atom_site_fract_x
 _atom_site_fract_y
 _atom_site_fract_z
 _atom_site_fract_occupancy
 Bi  Bi1  1  0.29638  0.70362  0.50000  1
 Bi  Bi2  1  0.79638  0.20362  0.00000  1
 Bi  Bi3  1  0.70362  0.29638  0.50000  1
 Bi  Bi4  1  0.20362  0.79638  0.00000  1
 Bi  Bi5  1  0.31585  0.31585  0.84084  1
 Bi  Bi6  1  0.68415  0.68415  0.15916  1
 Bi  Bi7  1  0.18415  0.18415  0.34084  1
 Bi  Bi8  1  0.81585  0.81585  0.65916  1
