CIF file written using JARVIS-Tools package.
data_Li2HN
_symmetry_space_group_name_H-M  'Imma'
_cell_length_a       7.0549
_cell_length_b       7.0549
_cell_length_c       7.0549
_cell_angle_alpha    119.964
_cell_angle_beta     89.8811
_cell_angle_gamma    120.174

_symmetry_Int_Tables_number  74
_chemical_formula_structural  Li2HN
_chemical_formula_sum  Li6H8N8
_cell_volume  248.02961224662437
_cell_formula_units_Z  8
loop_
  _symmetry_equiv_pos_site_id
 _symmetry_equiv_pos_as_xyz
 1  'x, y, z'
loop_
 _atom_site_type_symbol
 _atom_site_label
 _atom_site_symmetry_multiplicity
 _atom_site_fract_x
 _atom_site_fract_y
 _atom_site_fract_z
 _atom_site_fract_occupancy
 H  H1  1  0.06238  0.76090  0.80149  1
 H  H2  1  0.67813  0.97965  0.19849  1
 H  H3  1  0.78116  0.47965  0.80151  1
 H  H4  1  0.95941  0.26090  0.19851  1
 H  H5  1  0.67652  0.95368  0.88966  1
 H  H6  1  0.06402  0.78686  0.11034  1
 H  H7  1  0.67652  0.28686  0.22285  1
 H  H8  1  0.06402  0.45368  0.77715  1
 Li  Li1  1  0.98774  0.12027  0.36747  1
 Li  Li2  1  0.75279  0.62027  0.63253  1
 Li  Li3  1  0.49338  0.12028  0.87310  1
 Li  Li4  1  0.24718  0.62028  0.12690  1
 Li  Li5  1  0.37026  0.37029  0.49998  1
 Li  Li6  1  0.47634  0.62029  0.35605  1
 Li  Li7  1  0.71796  0.59528  0.10819  1
 Li  Li8  1  0.26424  0.12029  0.64395  1
 Li  Li9  1  0.71796  0.10976  0.62268  1
 Li  Li10  1  0.25346  0.64529  0.62269  1
 Li  Li11  1  0.02260  0.63077  0.37731  1
 Li  Li12  1  0.48708  0.09528  0.37732  1
 Li  Li13  1  0.02260  0.14529  0.89182  1
 Li  Li14  1  0.48708  0.60976  0.89181  1
 Li  Li15  1  0.87031  0.87029  0.50002  1
 Li  Li16  1  0.25346  0.13077  0.10818  1
 N  N1  1  0.61085  0.40080  0.27112  1
 N  N2  1  0.12969  0.90080  0.28995  1
 N  N3  1  0.60084  0.35975  0.74109  1
 N  N4  1  0.61866  0.85975  0.25891  1
 N  N5  1  0.12188  0.88080  0.74107  1
 N  N6  1  0.13973  0.38080  0.25893  1
 N  N7  1  0.12969  0.33974  0.72888  1
 N  N8  1  0.61085  0.83974  0.71005  1
