CIF file written using JARVIS-Tools package.
data_ZrMo2O8
_symmetry_space_group_name_H-M  'P-3m1'
_cell_length_a       4.4707
_cell_length_b       6.19618
_cell_length_c       6.19618
_cell_angle_alpha    60.007
_cell_angle_beta     90.031
_cell_angle_gamma    90.0311

_symmetry_Int_Tables_number  164
_chemical_formula_structural  ZrMo2O8
_chemical_formula_sum  ZrMo2O8
_cell_volume  148.6566712185101
_cell_formula_units_Z  1
loop_
  _symmetry_equiv_pos_site_id
 _symmetry_equiv_pos_as_xyz
 1  'x, y, z'
loop_
 _atom_site_type_symbol
 _atom_site_label
 _atom_site_symmetry_multiplicity
 _atom_site_fract_x
 _atom_site_fract_y
 _atom_site_fract_z
 _atom_site_fract_occupancy
 Mo  Mo1  1  0.83834  0.33329  0.33329  1
 Mo  Mo2  1  0.16166  0.66671  0.66671  1
 O  O1  1  0.75280  0.66331  0.16825  1
 O  O2  1  0.24720  0.83175  0.33669  1
 O  O3  1  0.24720  0.33669  0.83175  1
 O  O4  1  0.24729  0.83175  0.83175  1
 O  O5  1  0.75271  0.16825  0.16825  1
 O  O6  1  0.22208  0.33336  0.33336  1
 O  O7  1  0.77792  0.66664  0.66664  1
 O  O8  1  0.75280  0.16825  0.66331  1
 Zr  Zr1  1  0.00000  0.00000  0.00000  1
