CIF file written using JARVIS-Tools package.
data_RbHfF5
_symmetry_space_group_name_H-M  'P2_1/c'
_cell_length_a       7.75318
_cell_length_b       7.75159
_cell_length_c       7.92506
_cell_angle_alpha    90.0002
_cell_angle_beta     89.9999
_cell_angle_gamma    118.473

_symmetry_Int_Tables_number  14
_chemical_formula_structural  RbHfF5
_chemical_formula_sum  Rb4Hf4F20
_cell_volume  418.68022866502855
_cell_formula_units_Z  4
loop_
  _symmetry_equiv_pos_site_id
 _symmetry_equiv_pos_as_xyz
 1  'x, y, z'
loop_
 _atom_site_type_symbol
 _atom_site_label
 _atom_site_symmetry_multiplicity
 _atom_site_fract_x
 _atom_site_fract_y
 _atom_site_fract_z
 _atom_site_fract_occupancy
 F  F1  1  0.42929  0.63994  0.78895  1
 F  F2  1  0.58836  0.91192  0.99961  1
 F  F3  1  0.08836  0.41192  0.50038  1
 F  F4  1  0.41164  0.08808  0.00039  1
 F  F5  1  0.29020  0.79067  0.56407  1
 F  F6  1  0.20980  0.70933  0.06407  1
 F  F7  1  0.70980  0.20933  0.43593  1
 F  F8  1  0.79020  0.29067  0.93593  1
 F  F9  1  0.86000  0.06990  0.21066  1
 F  F10  1  0.64000  0.43010  0.71066  1
 F  F11  1  0.14000  0.93010  0.78934  1
 F  F12  1  0.36000  0.56990  0.28934  1
 F  F13  1  0.91164  0.58808  0.49962  1
 F  F14  1  0.92929  0.13994  0.71105  1
 F  F15  1  0.07071  0.86006  0.28895  1
 F  F16  1  0.43783  0.93707  0.29080  1
 F  F17  1  0.06217  0.56293  0.79080  1
 F  F18  1  0.56217  0.06293  0.70920  1
 F  F19  1  0.93783  0.43707  0.20920  1
 F  F20  1  0.57071  0.36006  0.21105  1
 Hf  Hf1  1  0.33731  0.83758  0.83818  1
 Hf  Hf2  1  0.66269  0.16242  0.16182  1
 Hf  Hf3  1  0.83731  0.33758  0.66182  1
 Hf  Hf4  1  0.16269  0.66242  0.33818  1
 Rb  Rb1  1  0.20384  0.29621  0.99986  1
 Rb  Rb2  1  0.29617  0.20379  0.49986  1
 Rb  Rb3  1  0.79616  0.70379  0.00014  1
 Rb  Rb4  1  0.70383  0.79621  0.50014  1
