CIF file written using JARVIS-Tools package.
data_NaCuO2
_symmetry_space_group_name_H-M  'Cmc2_1'
_cell_length_a       2.78022
_cell_length_b       6.0327
_cell_length_c       5.94043
_cell_angle_alpha    90
_cell_angle_beta     90
_cell_angle_gamma    103.322

_symmetry_Int_Tables_number  36
_chemical_formula_structural  NaCuO2
_chemical_formula_sum  Na2Cu2O4
_cell_volume  96.95321890255347
_cell_formula_units_Z  2
loop_
  _symmetry_equiv_pos_site_id
 _symmetry_equiv_pos_as_xyz
 1  'x, y, z'
loop_
 _atom_site_type_symbol
 _atom_site_label
 _atom_site_symmetry_multiplicity
 _atom_site_fract_x
 _atom_site_fract_y
 _atom_site_fract_z
 _atom_site_fract_occupancy
 Cu  Cu1  1  0.12792  0.25585  0.96230  1
 Cu  Cu2  1  0.87208  0.74415  0.46230  1
 Na  Na1  1  0.63222  0.26445  0.45592  1
 Na  Na2  1  0.36778  0.73555  0.95592  1
 O  O1  1  0.54991  0.09982  0.09905  1
 O  O2  1  0.70986  0.41973  0.82953  1
 O  O3  1  0.29014  0.58027  0.32953  1
 O  O4  1  0.45009  0.90018  0.59905  1
