CIF file written using JARVIS-Tools package.
data_Li2BeSiO4
_symmetry_space_group_name_H-M  'Pc'
_cell_length_a       4.72339
_cell_length_b       4.96961
_cell_length_c       6.09154
_cell_angle_alpha    90
_cell_angle_beta     90.0054
_cell_angle_gamma    90

_symmetry_Int_Tables_number  7
_chemical_formula_structural  Li2BeSiO4
_chemical_formula_sum  Li4Be2Si2O8
_cell_volume  142.98936186370392
_cell_formula_units_Z  2
loop_
  _symmetry_equiv_pos_site_id
 _symmetry_equiv_pos_as_xyz
 1  'x, y, z'
loop_
 _atom_site_type_symbol
 _atom_site_label
 _atom_site_symmetry_multiplicity
 _atom_site_fract_x
 _atom_site_fract_y
 _atom_site_fract_z
 _atom_site_fract_occupancy
 Be  Be1  1  0.50847  0.32188  0.24835  1
 Be  Be2  1  0.00847  0.67812  0.74835  1
 Li  Li1  1  0.99919  0.17592  0.49941  1
 Li  Li2  1  0.49919  0.82408  0.99941  1
 Li  Li3  1  0.49894  0.33566  0.74728  1
 Li  Li4  1  0.99894  0.66434  0.24728  1
 O  O1  1  0.35597  0.19794  0.02664  1
 O  O2  1  0.35608  0.69821  0.71842  1
 O  O3  1  0.91660  0.85929  0.96804  1
 O  O4  1  0.85597  0.80206  0.52664  1
 O  O5  1  0.41660  0.14071  0.46804  1
 O  O6  1  0.91614  0.35697  0.77956  1
 O  O7  1  0.41614  0.64303  0.27956  1
 O  O8  1  0.85608  0.30179  0.21842  1
 Si  Si1  1  0.00861  0.17822  0.99729  1
 Si  Si2  1  0.50861  0.82178  0.49729  1
