CIF file written using JARVIS-Tools package.
data_MnGePd
_symmetry_space_group_name_H-M  'P-62m'
_cell_length_a       6.74719
_cell_length_b       6.74718
_cell_length_c       3.47092
_cell_angle_alpha    90
_cell_angle_beta     90
_cell_angle_gamma    120

_symmetry_Int_Tables_number  189
_chemical_formula_structural  MnGePd
_chemical_formula_sum  Mn3Ge3Pd3
_cell_volume  136.84236487408793
_cell_formula_units_Z  3
loop_
  _symmetry_equiv_pos_site_id
 _symmetry_equiv_pos_as_xyz
 1  'x, y, z'
loop_
 _atom_site_type_symbol
 _atom_site_label
 _atom_site_symmetry_multiplicity
 _atom_site_fract_x
 _atom_site_fract_y
 _atom_site_fract_z
 _atom_site_fract_occupancy
 Ge  Ge1  1  0.00000  0.00000  0.50000  1
 Ge  Ge2  1  0.66667  0.33333  0.00000  1
 Ge  Ge3  1  0.33333  0.66667  0.00000  1
 Mn  Mn1  1  -0.00000  0.60246  0.50000  1
 Mn  Mn2  1  0.39754  0.39754  0.50000  1
 Mn  Mn3  1  0.60246  0.00000  0.50000  1
 Pd  Pd1  1  -0.00000  0.27095  0.00000  1
 Pd  Pd2  1  0.72905  0.72905  0.00000  1
 Pd  Pd3  1  0.27095  0.00000  0.00000  1
