CIF file written using JARVIS-Tools package.
data_Li3MnOF4
_symmetry_space_group_name_H-M  'Cm'
_cell_length_a       3.59719
_cell_length_b       5.37781
_cell_length_c       5.37484
_cell_angle_alpha    85.0377
_cell_angle_beta     70.4502
_cell_angle_gamma    70.4617

_symmetry_Int_Tables_number  8
_chemical_formula_structural  Li3MnOF4
_chemical_formula_sum  Li3MnOF4
_cell_volume  92.30231473646803
_cell_formula_units_Z  1
loop_
  _symmetry_equiv_pos_site_id
 _symmetry_equiv_pos_as_xyz
 1  'x, y, z'
loop_
 _atom_site_type_symbol
 _atom_site_label
 _atom_site_symmetry_multiplicity
 _atom_site_fract_x
 _atom_site_fract_y
 _atom_site_fract_z
 _atom_site_fract_occupancy
 F  F1  1  0.86887  0.89012  0.37216  1
 F  F2  1  0.69840  0.40578  0.19743  1
 F  F3  1  0.33321  0.61013  0.72348  1
 F  F4  1  0.05808  0.20698  0.67688  1
 Li  Li1  1  0.78561  0.57939  0.84941  1
 Li  Li2  1  0.43608  0.74907  0.37880  1
 Li  Li3  1  0.59946  0.25288  0.54823  1
 Mn  Mn1  1  0.98104  0.02590  0.01208  1
 O  O1  1  0.52829  0.94592  -0.00247  1
