CIF file written using JARVIS-Tools package.
data_Sr2BeCo
_symmetry_space_group_name_H-M  'P4mm'
_cell_length_a       3.29903
_cell_length_b       3.29903
_cell_length_c       8.61927
_cell_angle_alpha    90
_cell_angle_beta     90
_cell_angle_gamma    90

_symmetry_Int_Tables_number  99
_chemical_formula_structural  Sr2BeCo
_chemical_formula_sum  Sr2BeCo
_cell_volume  93.80872023674735
_cell_formula_units_Z  1
loop_
  _symmetry_equiv_pos_site_id
 _symmetry_equiv_pos_as_xyz
 1  'x, y, z'
loop_
 _atom_site_type_symbol
 _atom_site_label
 _atom_site_symmetry_multiplicity
 _atom_site_fract_x
 _atom_site_fract_y
 _atom_site_fract_z
 _atom_site_fract_occupancy
 Be  Be1  1  0.00000  0.00000  0.59322  1
 Co  Co1  1  0.50000  0.50000  0.65222  1
 Sr  Sr1  1  0.00000  0.00000  0.91816  1
 Sr  Sr2  1  0.50000  0.50000  0.33641  1
