CIF file written using JARVIS-Tools package.
data_K3SmB2O6
_symmetry_space_group_name_H-M  'Pnma'
_cell_length_a       7.14667
_cell_length_b       9.00995
_cell_length_c       11.15
_cell_angle_alpha    90
_cell_angle_beta     90
_cell_angle_gamma    90

_symmetry_Int_Tables_number  62
_chemical_formula_structural  K3SmB2O6
_chemical_formula_sum  K2Sm4B8O24
_cell_volume  717.9635069823529
_cell_formula_units_Z  4
loop_
  _symmetry_equiv_pos_site_id
 _symmetry_equiv_pos_as_xyz
 1  'x, y, z'
loop_
 _atom_site_type_symbol
 _atom_site_label
 _atom_site_symmetry_multiplicity
 _atom_site_fract_x
 _atom_site_fract_y
 _atom_site_fract_z
 _atom_site_fract_occupancy
 B  B1  1  0.25000  0.40895  0.38378  1
 B  B2  1  0.25000  0.94030  0.62368  1
 B  B3  1  0.75000  0.59105  0.61622  1
 B  B4  1  0.25000  0.44030  0.87632  1
 B  B5  1  0.75000  0.05970  0.37632  1
 B  B6  1  0.25000  0.90895  0.11622  1
 B  B7  1  0.75000  0.55970  0.12368  1
 B  B8  1  0.75000  0.09105  0.88378  1
 K  K1  1  0.49549  0.69727  0.40207  1
 K  K2  1  0.25000  0.06191  0.36640  1
 K  K3  1  0.50451  0.30273  0.59793  1
 K  K4  1  0.75000  0.43809  0.86640  1
 K  K5  1  0.25000  0.56191  0.13360  1
 K  K6  1  0.49549  0.19727  0.09793  1
 K  K7  1  0.50451  0.80273  0.90207  1
 K  K8  1  0.75000  0.93809  0.63360  1
 K  K9  1  0.99549  0.80273  0.90207  1
 K  K10  1  0.00451  0.19727  0.09793  1
 K  K11  1  0.00451  0.69727  0.40207  1
 K  K12  1  0.99549  0.30273  0.59793  1
 O  O1  1  0.25000  0.59220  0.88738  1
 O  O2  1  0.58100  0.63073  0.67002  1
 O  O3  1  0.75000  0.40780  0.11262  1
 O  O4  1  0.75000  0.65947  0.03051  1
 O  O5  1  0.75000  0.15947  0.46949  1
 O  O6  1  0.41900  0.36927  0.32998  1
 O  O7  1  0.75000  0.00951  0.99005  1
 O  O8  1  0.25000  0.49049  0.49005  1
 O  O9  1  0.75000  0.50951  0.50995  1
 O  O10  1  0.08100  0.86927  0.17002  1
 O  O11  1  0.58100  0.13073  0.82998  1
 O  O12  1  0.25000  0.34053  0.96949  1
 O  O13  1  0.41900  0.86927  0.17002  1
 O  O14  1  0.75000  0.90780  0.38738  1
 O  O15  1  0.25000  0.88147  0.74109  1
 O  O16  1  0.25000  0.38147  0.75891  1
 O  O17  1  0.91900  0.63073  0.67002  1
 O  O18  1  0.25000  0.84053  0.53051  1
 O  O19  1  0.75000  0.61853  0.24109  1
 O  O20  1  0.91900  0.13073  0.82998  1
 O  O21  1  0.08100  0.36927  0.32998  1
 O  O22  1  0.25000  0.99049  0.00995  1
 O  O23  1  0.25000  0.09220  0.61262  1
 O  O24  1  0.75000  0.11853  0.25891  1
 Sm  Sm1  1  0.25000  0.62819  0.66942  1
 Sm  Sm2  1  0.75000  0.87181  0.16942  1
 Sm  Sm3  1  0.75000  0.37181  0.33058  1
 Sm  Sm4  1  0.25000  0.12819  0.83058  1
