CIF file written using JARVIS-Tools package.
data_LiMnF3
_symmetry_space_group_name_H-M  'P2_13'
_cell_length_a       6.13457
_cell_length_b       6.13457
_cell_length_c       6.13457
_cell_angle_alpha    90
_cell_angle_beta     90
_cell_angle_gamma    90

_symmetry_Int_Tables_number  198
_chemical_formula_structural  LiMnF3
_chemical_formula_sum  Li4Mn4F2
_cell_volume  230.86184523432874
_cell_formula_units_Z  4
loop_
  _symmetry_equiv_pos_site_id
 _symmetry_equiv_pos_as_xyz
 1  'x, y, z'
loop_
 _atom_site_type_symbol
 _atom_site_label
 _atom_site_symmetry_multiplicity
 _atom_site_fract_x
 _atom_site_fract_y
 _atom_site_fract_z
 _atom_site_fract_occupancy
 F  F1  1  0.73354  0.12930  0.99374  1
 F  F2  1  0.12930  0.99374  0.73354  1
 F  F3  1  0.99374  0.73354  0.12930  1
 F  F4  1  0.23354  0.37070  0.00626  1
 F  F5  1  0.26646  0.62930  0.50626  1
 F  F6  1  0.00626  0.23354  0.37070  1
 F  F7  1  0.37070  0.00626  0.23354  1
 F  F8  1  0.62930  0.50626  0.26646  1
 F  F9  1  0.50626  0.26646  0.62930  1
 F  F10  1  0.87070  0.49374  0.76646  1
 F  F11  1  0.76646  0.87070  0.49374  1
 F  F12  1  0.49374  0.76646  0.87070  1
 Li  Li1  1  0.12499  0.87501  0.37501  1
 Li  Li2  1  0.87501  0.37501  0.12499  1
 Li  Li3  1  0.37501  0.12499  0.87501  1
 Li  Li4  1  0.62499  0.62499  0.62499  1
 Mn  Mn1  1  0.66369  0.83631  0.16369  1
 Mn  Mn2  1  0.83631  0.16369  0.66369  1
 Mn  Mn3  1  0.16369  0.66369  0.83631  1
 Mn  Mn4  1  0.33631  0.33631  0.33631  1
