CIF file written using JARVIS-Tools package.
data_TaCo3
_symmetry_space_group_name_H-M  'P6_3/mmc'
_cell_length_a       4.14398
_cell_length_b       5.16363
_cell_length_c       5.16374
_cell_angle_alpha    120.001
_cell_angle_beta     90
_cell_angle_gamma    90

_symmetry_Int_Tables_number  194
_chemical_formula_structural  TaCo3
_chemical_formula_sum  Ta2Co6
_cell_volume  95.68960759167251
_cell_formula_units_Z  2
loop_
  _symmetry_equiv_pos_site_id
 _symmetry_equiv_pos_as_xyz
 1  'x, y, z'
loop_
 _atom_site_type_symbol
 _atom_site_label
 _atom_site_symmetry_multiplicity
 _atom_site_fract_x
 _atom_site_fract_y
 _atom_site_fract_z
 _atom_site_fract_occupancy
 Co  Co1  1  0.75000  0.15827  0.31650  1
 Co  Co2  1  0.75000  0.15826  0.84177  1
 Co  Co3  1  0.75000  0.68351  0.84176  1
 Co  Co4  1  0.25000  0.84173  0.68350  1
 Co  Co5  1  0.25000  0.84174  0.15823  1
 Co  Co6  1  0.25000  0.31649  0.15824  1
 Ta  Ta1  1  0.75000  0.66669  0.33334  1
 Ta  Ta2  1  0.25000  0.33331  0.66666  1
