CIF file written using JARVIS-Tools package.
data_DyGa2Pd
_symmetry_space_group_name_H-M  'Cmcm'
_cell_length_a       4.44244
_cell_length_b       5.52601
_cell_length_c       6.57292
_cell_angle_alpha    90
_cell_angle_beta     90
_cell_angle_gamma    113.701

_symmetry_Int_Tables_number  63
_chemical_formula_structural  DyGa2Pd
_chemical_formula_sum  Dy2Ga4Pd2
_cell_volume  147.74927464566832
_cell_formula_units_Z  2
loop_
  _symmetry_equiv_pos_site_id
 _symmetry_equiv_pos_as_xyz
 1  'x, y, z'
loop_
 _atom_site_type_symbol
 _atom_site_label
 _atom_site_symmetry_multiplicity
 _atom_site_fract_x
 _atom_site_fract_y
 _atom_site_fract_z
 _atom_site_fract_occupancy
 Dy  Dy1  1  0.40890  0.81780  0.25000  1
 Dy  Dy2  1  0.59110  0.18220  0.75000  1
 Ga  Ga1  1  0.12587  0.25173  0.44731  1
 Ga  Ga2  1  0.87413  0.74827  0.55269  1
 Ga  Ga3  1  0.12587  0.25173  0.05269  1
 Ga  Ga4  1  0.87413  0.74827  0.94731  1
 Pd  Pd1  1  0.69859  0.39719  0.25000  1
 Pd  Pd2  1  0.30141  0.60281  0.75000  1
