CIF file written using JARVIS-Tools package.
data_CoTe2
_symmetry_space_group_name_H-M  'P-3m1'
_cell_length_a       3.78279
_cell_length_b       3.78279
_cell_length_c       5.5938
_cell_angle_alpha    90.0016
_cell_angle_beta     89.9984
_cell_angle_gamma    120.001

_symmetry_Int_Tables_number  164
_chemical_formula_structural  CoTe2
_chemical_formula_sum  CoTe2
_cell_volume  69.3199109680506
_cell_formula_units_Z  1
loop_
  _symmetry_equiv_pos_site_id
 _symmetry_equiv_pos_as_xyz
 1  'x, y, z'
loop_
 _atom_site_type_symbol
 _atom_site_label
 _atom_site_symmetry_multiplicity
 _atom_site_fract_x
 _atom_site_fract_y
 _atom_site_fract_z
 _atom_site_fract_occupancy
 Co  Co1  1  0.00000  0.00000  0.00000  1
 Te  Te1  1  0.33333  0.66667  0.23990  1
 Te  Te2  1  0.66667  0.33333  0.76010  1
