CIF file written using JARVIS-Tools package.
data_CoAsS
_symmetry_space_group_name_H-M  'P2_1/c'
_cell_length_a       5.60236
_cell_length_b       5.63753
_cell_length_c       5.63644
_cell_angle_alpha    90
_cell_angle_beta     92.4914
_cell_angle_gamma    90

_symmetry_Int_Tables_number  14
_chemical_formula_structural  CoAsS
_chemical_formula_sum  Co4As4S4
_cell_volume  177.84966868150806
_cell_formula_units_Z  4
loop_
  _symmetry_equiv_pos_site_id
 _symmetry_equiv_pos_as_xyz
 1  'x, y, z'
loop_
 _atom_site_type_symbol
 _atom_site_label
 _atom_site_symmetry_multiplicity
 _atom_site_fract_x
 _atom_site_fract_y
 _atom_site_fract_z
 _atom_site_fract_occupancy
 As  As1  1  0.37688  0.12370  0.87325  1
 As  As2  1  0.62312  0.87630  0.12675  1
 As  As3  1  0.37688  0.37630  0.37325  1
 As  As4  1  0.62312  0.62370  0.62675  1
 Co  Co1  1  0.50000  0.50000  0.00000  1
 Co  Co2  1  -0.00000  0.50000  0.50000  1
 Co  Co3  1  0.00000  0.00000  0.00000  1
 Co  Co4  1  0.50000  0.00000  0.50000  1
 S  S1  1  0.87298  0.38077  0.11492  1
 S  S2  1  0.12702  0.61923  0.88508  1
 S  S3  1  0.12702  0.88077  0.38508  1
 S  S4  1  0.87298  0.11923  0.61492  1
