CIF file written using JARVIS-Tools package.
data_Fe4O3F5
_symmetry_space_group_name_H-M  'Cm'
_cell_length_a       4.81006
_cell_length_b       5.84827
_cell_length_c       10.0649
_cell_angle_alpha    106.892
_cell_angle_beta     95.6075
_cell_angle_gamma    89.9983

_symmetry_Int_Tables_number  8
_chemical_formula_structural  Fe4O3F5
_chemical_formula_sum  Fe8O6F0
_cell_volume  269.49849703451576
_cell_formula_units_Z  2
loop_
  _symmetry_equiv_pos_site_id
 _symmetry_equiv_pos_as_xyz
 1  'x, y, z'
loop_
 _atom_site_type_symbol
 _atom_site_label
 _atom_site_symmetry_multiplicity
 _atom_site_fract_x
 _atom_site_fract_y
 _atom_site_fract_z
 _atom_site_fract_occupancy
 F  F1  1  0.79988  0.80035  0.09987  1
 F  F2  1  0.79486  0.55072  0.59799  1
 F  F3  1  0.70070  0.67616  0.35230  1
 F  F4  1  0.70273  0.92449  0.84893  1
 F  F5  1  0.20369  0.19985  0.89965  1
 F  F6  1  0.20350  0.69988  0.89974  1
 F  F7  1  0.19382  0.45290  0.39840  1
 F  F8  1  0.19383  0.94549  0.39841  1
 F  F9  1  0.79487  0.04725  0.59798  1
 F  F10  1  0.79970  0.29963  0.09999  1
 Fe  Fe1  1  0.49152  0.88307  0.24613  1
 Fe  Fe2  1  0.02985  0.75819  0.51641  1
 Fe  Fe3  1  0.01078  0.00234  0.00428  1
 Fe  Fe4  1  0.98679  0.24659  0.49320  1
 Fe  Fe5  1  0.00515  0.50106  0.00236  1
 Fe  Fe6  1  0.49143  0.36304  0.24616  1
 Fe  Fe7  1  0.49244  0.14469  0.74585  1
 Fe  Fe8  1  0.49239  0.60119  0.74591  1
 O  O1  1  0.70268  0.42466  0.84938  1
 O  O2  1  0.31221  0.57774  0.15551  1
 O  O3  1  0.29947  0.07476  0.14962  1
 O  O4  1  0.69083  0.17337  0.34676  1
 O  O5  1  0.28595  0.32148  0.64290  1
 O  O6  1  0.32095  0.83112  0.66226  1
