CIF file written using JARVIS-Tools package.
data_V2O3F
_symmetry_space_group_name_H-M  'Cmcm'
_cell_length_a       4.65238
_cell_length_b       4.65238
_cell_length_c       11.6653
_cell_angle_alpha    90
_cell_angle_beta     90
_cell_angle_gamma    93.2455

_symmetry_Int_Tables_number  63
_chemical_formula_structural  V2O3F
_chemical_formula_sum  V8O2F4
_cell_volume  252.08527507422568
_cell_formula_units_Z  4
loop_
  _symmetry_equiv_pos_site_id
 _symmetry_equiv_pos_as_xyz
 1  'x, y, z'
loop_
 _atom_site_type_symbol
 _atom_site_label
 _atom_site_symmetry_multiplicity
 _atom_site_fract_x
 _atom_site_fract_y
 _atom_site_fract_z
 _atom_site_fract_occupancy
 F  F1  1  0.79517  0.20483  0.87475  1
 F  F2  1  0.20483  0.79517  0.12525  1
 F  F3  1  0.79517  0.20483  0.62525  1
 F  F4  1  0.20483  0.79517  0.37475  1
 O  O1  1  0.29242  0.30344  0.75000  1
 O  O2  1  0.19648  0.80352  0.87412  1
 O  O3  1  0.19648  0.80352  0.62588  1
 O  O4  1  0.30102  0.30102  0.00000  1
 O  O5  1  0.30102  0.30102  0.50000  1
 O  O6  1  0.30344  0.29242  0.25000  1
 O  O7  1  0.69898  0.69898  0.00000  1
 O  O8  1  0.70758  0.69656  0.25000  1
 O  O9  1  0.69898  0.69898  0.50000  1
 O  O10  1  0.80352  0.19648  0.12588  1
 O  O11  1  0.80352  0.19648  0.37412  1
 O  O12  1  0.69656  0.70758  0.75000  1
 V  V1  1  0.52838  0.47162  0.37410  1
 V  V2  1  0.47162  0.52838  0.87410  1
 V  V3  1  0.47162  0.52838  0.62590  1
 V  V4  1  0.52838  0.47162  0.12590  1
 V  V5  1  0.02036  0.97964  0.75000  1
 V  V6  1  0.00000  0.00000  0.50000  1
 V  V7  1  0.97964  0.02036  0.25000  1
 V  V8  1  0.00000  0.00000  0.00000  1
