CIF file written using JARVIS-Tools package.
data_Na2BeH4
_symmetry_space_group_name_H-M  'P2_1/m'
_cell_length_a       4.98158
_cell_length_b       5.03538
_cell_length_c       6.69112
_cell_angle_alpha    101.195
_cell_angle_beta     90
_cell_angle_gamma    90

_symmetry_Int_Tables_number  11
_chemical_formula_structural  Na2BeH4
_chemical_formula_sum  Na4Be2H8
_cell_volume  164.64726539499023
_cell_formula_units_Z  2
loop_
  _symmetry_equiv_pos_site_id
 _symmetry_equiv_pos_as_xyz
 1  'x, y, z'
loop_
 _atom_site_type_symbol
 _atom_site_label
 _atom_site_symmetry_multiplicity
 _atom_site_fract_x
 _atom_site_fract_y
 _atom_site_fract_z
 _atom_site_fract_occupancy
 Be  Be1  1  0.25000  0.28015  0.21796  1
 Be  Be2  1  0.75000  0.71985  0.78204  1
 H  H1  1  0.75000  0.93076  0.66090  1
 H  H2  1  0.75000  0.82577  0.99868  1
 H  H3  1  0.52024  0.54593  0.73579  1
 H  H4  1  0.25000  0.06924  0.33910  1
 H  H5  1  0.97976  0.54593  0.73579  1
 H  H6  1  0.02024  0.45407  0.26421  1
 H  H7  1  0.47976  0.45407  0.26421  1
 H  H8  1  0.25000  0.17423  0.00132  1
 Na  Na1  1  0.25000  0.72277  0.02885  1
 Na  Na2  1  0.75000  0.27723  0.97115  1
 Na  Na3  1  0.75000  0.24813  0.46310  1
 Na  Na4  1  0.25000  0.75187  0.53690  1
