CIF file written using JARVIS-Tools package.
data_CaCeMg6
_symmetry_space_group_name_H-M  'P-6m2'
_cell_length_a       6.80883
_cell_length_b       6.80883
_cell_length_c       5.23601
_cell_angle_alpha    90
_cell_angle_beta     90
_cell_angle_gamma    120.031

_symmetry_Int_Tables_number  187
_chemical_formula_structural  CaCeMg6
_chemical_formula_sum  CaCeMg6
_cell_volume  210.1564357424595
_cell_formula_units_Z  1
loop_
  _symmetry_equiv_pos_site_id
 _symmetry_equiv_pos_as_xyz
 1  'x, y, z'
loop_
 _atom_site_type_symbol
 _atom_site_label
 _atom_site_symmetry_multiplicity
 _atom_site_fract_x
 _atom_site_fract_y
 _atom_site_fract_z
 _atom_site_fract_occupancy
 Ca  Ca1  1  0.08312  0.41688  0.25000  1
 Ce  Ce1  1  0.41686  0.08314  0.75000  1
 Mg  Mg1  1  0.07895  0.91474  0.25000  1
 Mg  Mg2  1  0.58526  0.42105  0.25000  1
 Mg  Mg3  1  0.58567  0.91433  0.25000  1
 Mg  Mg4  1  0.43269  0.59109  0.75000  1
 Mg  Mg5  1  0.90891  0.06731  0.75000  1
 Mg  Mg6  1  0.90853  0.59147  0.75000  1
