CIF file written using JARVIS-Tools package.
data_Ag2Se
_symmetry_space_group_name_H-M  'Pmna'
_cell_length_a       4.59802
_cell_length_b       7.29146
_cell_length_c       7.71692
_cell_angle_alpha    90
_cell_angle_beta     90
_cell_angle_gamma    90

_symmetry_Int_Tables_number  53
_chemical_formula_structural  Ag2Se
_chemical_formula_sum  Ag8Se4
_cell_volume  258.7196908662016
_cell_formula_units_Z  4
loop_
  _symmetry_equiv_pos_site_id
 _symmetry_equiv_pos_as_xyz
 1  'x, y, z'
loop_
 _atom_site_type_symbol
 _atom_site_label
 _atom_site_symmetry_multiplicity
 _atom_site_fract_x
 _atom_site_fract_y
 _atom_site_fract_z
 _atom_site_fract_occupancy
 Ag  Ag1  1  0.00513  0.09954  0.24997  1
 Ag  Ag2  1  0.99487  0.09954  0.75003  1
 Ag  Ag3  1  0.50000  0.61093  0.00000  1
 Ag  Ag4  1  0.49487  0.90046  0.24997  1
 Ag  Ag5  1  0.00000  0.38907  0.00000  1
 Ag  Ag6  1  0.00000  0.38904  0.50000  1
 Ag  Ag7  1  0.50513  0.90046  0.75003  1
 Ag  Ag8  1  0.50000  0.61096  0.50000  1
 Se  Se1  1  0.52096  0.29355  0.25000  1
 Se  Se2  1  0.47904  0.29355  0.75000  1
 Se  Se3  1  0.02096  0.70645  0.75000  1
 Se  Se4  1  0.97904  0.70645  0.25000  1
