CIF file written using JARVIS-Tools package.
data_S
_symmetry_space_group_name_H-M  'P3'
_cell_length_a       11.2623
_cell_length_b       11.2623
_cell_length_c       4.17094
_cell_angle_alpha    90
_cell_angle_beta     90
_cell_angle_gamma    120

_symmetry_Int_Tables_number  143
_chemical_formula_structural  S
_chemical_formula_sum  S8
_cell_volume  458.1624176369848
_cell_formula_units_Z  18
loop_
  _symmetry_equiv_pos_site_id
 _symmetry_equiv_pos_as_xyz
 1  'x, y, z'
loop_
 _atom_site_type_symbol
 _atom_site_label
 _atom_site_symmetry_multiplicity
 _atom_site_fract_x
 _atom_site_fract_y
 _atom_site_fract_z
 _atom_site_fract_occupancy
 S  S1  1  0.17851  0.68489  0.64062  1
 S  S2  1  0.17154  0.33684  0.40740  1
 S  S3  1  0.16530  0.82846  0.40740  1
 S  S4  1  0.66316  0.83470  0.40740  1
 S  S5  1  0.03632  0.18580  0.66556  1
 S  S6  1  0.31511  0.49362  0.64062  1
 S  S7  1  0.70007  0.10572  -0.00501  1
 S  S8  1  0.50638  0.82149  0.64062  1
 S  S9  1  0.56889  0.51729  0.01694  1
 S  S10  1  0.89428  0.59435  -0.00501  1
 S  S11  1  0.14947  0.96368  0.66556  1
 S  S12  1  0.48271  0.05160  0.01694  1
 S  S13  1  0.40565  0.29993  -0.00501  1
 S  S14  1  0.94840  0.43111  0.01694  1
 S  S15  1  0.81420  0.85053  0.66556  1
 S  S16  1  0.72764  0.53734  0.28848  1
 S  S17  1  0.46266  0.19029  0.28848  1
 S  S18  1  0.80971  0.27236  0.28848  1
