CIF file written using JARVIS-Tools package.
data_Mo2WSe2S4
_symmetry_space_group_name_H-M  'R3m'
_cell_length_a       3.23496
_cell_length_b       3.23493
_cell_length_c       19.2132
_cell_angle_alpha    94.8457
_cell_angle_beta     90
_cell_angle_gamma    120

_symmetry_Int_Tables_number  160
_chemical_formula_structural  Mo2WSe2S4
_chemical_formula_sum  Mo2WSe2S4
_cell_volume  173.2957975199013
_cell_formula_units_Z  1
loop_
  _symmetry_equiv_pos_site_id
 _symmetry_equiv_pos_as_xyz
 1  'x, y, z'
loop_
 _atom_site_type_symbol
 _atom_site_label
 _atom_site_symmetry_multiplicity
 _atom_site_fract_x
 _atom_site_fract_y
 _atom_site_fract_z
 _atom_site_fract_occupancy
 Mo  Mo1  1  0.22253  0.44507  0.01421  1
 Mo  Mo2  1  0.66784  0.33567  0.35079  1
 S  S1  1  0.36167  0.72335  0.43199  1
 S  S2  1  0.74895  0.49790  0.59433  1
 S  S3  1  0.80359  0.60718  0.75755  1
 S  S4  1  0.30731  0.61462  0.26955  1
 Se  Se1  1  0.52602  0.05204  0.92502  1
 Se  Se2  1  0.58574  0.17149  0.10348  1
 W  W1  1  0.44294  0.88587  0.67593  1
