CIF file written using JARVIS-Tools package.
data_CrH8N2O4
_symmetry_space_group_name_H-M  'C2/m'
_cell_length_a       6.91747
_cell_length_b       6.91747
_cell_length_c       7.69176
_cell_angle_alpha    67.711
_cell_angle_beta     112.289
_cell_angle_gamma    125.32

_symmetry_Int_Tables_number  12
_chemical_formula_structural  CrH8N2O4
_chemical_formula_sum  Cr2H6N4O8
_cell_volume  271.5651375387417
_cell_formula_units_Z  2
loop_
  _symmetry_equiv_pos_site_id
 _symmetry_equiv_pos_as_xyz
 1  'x, y, z'
loop_
 _atom_site_type_symbol
 _atom_site_label
 _atom_site_symmetry_multiplicity
 _atom_site_fract_x
 _atom_site_fract_y
 _atom_site_fract_z
 _atom_site_fract_occupancy
 Cr  Cr1  1  0.82721  0.17279  0.78596  1
 Cr  Cr2  1  0.17279  0.82721  0.21404  1
 H  H1  1  0.65812  0.60682  0.17990  1
 H  H2  1  0.56304  0.43696  0.73524  1
 H  H3  1  0.43696  0.56304  0.26476  1
 H  H4  1  0.58869  0.41131  0.39436  1
 H  H5  1  0.60682  0.65812  0.82010  1
 H  H6  1  0.34188  0.39318  0.82010  1
 H  H7  1  0.39318  0.34188  0.17990  1
 H  H8  1  0.41131  0.58869  0.60564  1
 H  H9  1  0.07990  0.92010  0.75052  1
 H  H10  1  0.92010  0.07990  0.24948  1
 H  H11  1  0.14113  0.85887  0.58967  1
 H  H12  1  0.85887  0.14113  0.41033  1
 H  H13  1  0.08162  0.65635  0.80425  1
 H  H14  1  0.65635  0.08162  0.19575  1
 H  H15  1  0.91838  0.34365  0.19575  1
 H  H16  1  0.34365  0.91838  0.80425  1
 N  N1  1  0.48088  0.51912  0.74612  1
 N  N2  1  0.51912  0.48088  0.25388  1
 N  N3  1  0.16051  0.83949  0.73656  1
 N  N4  1  0.83949  0.16051  0.26344  1
 O  O1  1  0.64496  0.92761  0.92128  1
 O  O2  1  0.92761  0.64496  0.07872  1
 O  O3  1  0.68073  0.31927  0.64106  1
 O  O4  1  0.31927  0.68073  0.35894  1
 O  O5  1  0.90903  0.09097  0.66072  1
 O  O6  1  0.09097  0.90903  0.33928  1
 O  O7  1  0.07239  0.35504  0.92128  1
 O  O8  1  0.35504  0.07239  0.07872  1
