CIF file written using JARVIS-Tools package.
data_P
_symmetry_space_group_name_H-M  'Imma'
_cell_length_a       3.87195
_cell_length_b       3.64472
_cell_length_c       3.64473
_cell_angle_alpha    55.8696
_cell_angle_beta     57.9155
_cell_angle_gamma    57.9154

_symmetry_Int_Tables_number  74
_chemical_formula_structural  P
_chemical_formula_sum  P2
_cell_volume  34.02159609894257
_cell_formula_units_Z  2
loop_
  _symmetry_equiv_pos_site_id
 _symmetry_equiv_pos_as_xyz
 1  'x, y, z'
loop_
 _atom_site_type_symbol
 _atom_site_label
 _atom_site_symmetry_multiplicity
 _atom_site_fract_x
 _atom_site_fract_y
 _atom_site_fract_z
 _atom_site_fract_occupancy
 P  P1  1  0.19244  0.25000  0.75000  1
 P  P2  1  0.80756  0.75000  0.25000  1
