CIF file written using JARVIS-Tools package.
data_PuGaNi
_symmetry_space_group_name_H-M  'Amm2'
_cell_length_a       4.40811
_cell_length_b       6.37273
_cell_length_c       6.13378
_cell_angle_alpha    121.297
_cell_angle_beta     90
_cell_angle_gamma    90

_symmetry_Int_Tables_number  38
_chemical_formula_structural  PuGaNi
_chemical_formula_sum  Pu3Ga3Ni3
_cell_volume  147.2343945148467
_cell_formula_units_Z  3
loop_
  _symmetry_equiv_pos_site_id
 _symmetry_equiv_pos_as_xyz
 1  'x, y, z'
loop_
 _atom_site_type_symbol
 _atom_site_label
 _atom_site_symmetry_multiplicity
 _atom_site_fract_x
 _atom_site_fract_y
 _atom_site_fract_z
 _atom_site_fract_occupancy
 Ga  Ga1  1  0.00000  0.23330  0.00000  1
 Ga  Ga2  1  0.00000  0.75617  0.75489  1
 Ga  Ga3  1  0.00000  0.00128  0.24511  1
 Ni  Ni1  1  0.00000  0.35080  0.65486  1
 Ni  Ni2  1  0.00000  0.69593  0.34514  1
 Ni  Ni3  1  0.50000  0.92070  0.00000  1
 Pu  Pu1  1  0.50000  0.50542  0.00000  1
 Pu  Pu2  1  0.50000  0.44307  0.34984  1
 Pu  Pu3  1  0.50000  0.09324  0.65016  1
