CIF file written using JARVIS-Tools package.
data_Ce2BiN
_symmetry_space_group_name_H-M  'P4/nmm'
_cell_length_a       4.66285
_cell_length_b       4.66285
_cell_length_c       9.15778
_cell_angle_alpha    90
_cell_angle_beta     90
_cell_angle_gamma    90

_symmetry_Int_Tables_number  129
_chemical_formula_structural  Ce2BiN
_chemical_formula_sum  Ce4Bi2N2
_cell_volume  199.10990662084993
_cell_formula_units_Z  2
loop_
  _symmetry_equiv_pos_site_id
 _symmetry_equiv_pos_as_xyz
 1  'x, y, z'
loop_
 _atom_site_type_symbol
 _atom_site_label
 _atom_site_symmetry_multiplicity
 _atom_site_fract_x
 _atom_site_fract_y
 _atom_site_fract_z
 _atom_site_fract_occupancy
 Bi  Bi1  1  0.75000  0.75000  0.30208  1
 Bi  Bi2  1  0.25000  0.25000  0.69792  1
 Ce  Ce1  1  0.75000  0.25000  0.00000  1
 Ce  Ce2  1  0.25000  0.75000  0.00000  1
 Ce  Ce3  1  0.75000  0.75000  0.66933  1
 Ce  Ce4  1  0.25000  0.25000  0.33067  1
 N  N1  1  0.75000  0.75000  0.91079  1
 N  N2  1  0.25000  0.25000  0.08921  1
