CIF file written using JARVIS-Tools package.
data_NaBH4
_symmetry_space_group_name_H-M  'Pnma'
_cell_length_a       4.23933
_cell_length_b       7.05961
_cell_length_c       7.32697
_cell_angle_alpha    90
_cell_angle_beta     90
_cell_angle_gamma    90

_symmetry_Int_Tables_number  62
_chemical_formula_structural  NaBH4
_chemical_formula_sum  Na4B4H6
_cell_volume  219.28147997175367
_cell_formula_units_Z  4
loop_
  _symmetry_equiv_pos_site_id
 _symmetry_equiv_pos_as_xyz
 1  'x, y, z'
loop_
 _atom_site_type_symbol
 _atom_site_label
 _atom_site_symmetry_multiplicity
 _atom_site_fract_x
 _atom_site_fract_y
 _atom_site_fract_z
 _atom_site_fract_occupancy
 B  B1  1  0.25000  0.94064  0.76534  1
 B  B2  1  0.75000  0.05936  0.23466  1
 B  B3  1  0.75000  0.44064  0.73466  1
 B  B4  1  0.25000  0.55936  0.26534  1
 H  H1  1  0.75000  0.21400  0.15991  1
 H  H2  1  0.51287  0.52913  0.69218  1
 H  H3  1  0.01287  0.47087  0.30782  1
 H  H4  1  0.48713  0.02913  0.80782  1
 H  H5  1  0.25000  0.58352  0.09836  1
 H  H6  1  0.48713  0.47087  0.30782  1
 H  H7  1  0.98713  0.52913  0.69218  1
 H  H8  1  0.98713  0.97087  0.19218  1
 H  H9  1  0.01287  0.02913  0.80782  1
 H  H10  1  0.75000  0.41648  0.90164  1
 H  H11  1  0.75000  0.28600  0.65991  1
 H  H12  1  0.51287  0.97087  0.19218  1
 H  H13  1  0.25000  0.78600  0.84009  1
 H  H14  1  0.75000  0.08352  0.40164  1
 H  H15  1  0.25000  0.91648  0.59836  1
 H  H16  1  0.25000  0.71400  0.34009  1
 Na  Na1  1  0.25000  0.24978  0.01741  1
 Na  Na2  1  0.75000  0.75022  0.98259  1
 Na  Na3  1  0.75000  0.74978  0.48259  1
 Na  Na4  1  0.25000  0.25022  0.51741  1
