CIF file written using JARVIS-Tools package.
data_Sr2NCl
_symmetry_space_group_name_H-M  'R-3m'
_cell_length_a       7.37943
_cell_length_b       7.37943
_cell_length_c       7.37942
_cell_angle_alpha    30.5286
_cell_angle_beta     30.5286
_cell_angle_gamma    30.5286

_symmetry_Int_Tables_number  166
_chemical_formula_structural  Sr2NCl
_chemical_formula_sum  Sr2NCl
_cell_volume  91.92014635932154
_cell_formula_units_Z  1
loop_
  _symmetry_equiv_pos_site_id
 _symmetry_equiv_pos_as_xyz
 1  'x, y, z'
loop_
 _atom_site_type_symbol
 _atom_site_label
 _atom_site_symmetry_multiplicity
 _atom_site_fract_x
 _atom_site_fract_y
 _atom_site_fract_z
 _atom_site_fract_occupancy
 Cl  Cl1  1  0.00000  0.00000  0.00000  1
 N  N1  1  0.50000  0.50000  0.50000  1
 Sr  Sr1  1  0.76938  0.76938  0.76938  1
 Sr  Sr2  1  0.23062  0.23062  0.23062  1
