CIF file written using JARVIS-Tools package.
data_K3NbS4
_symmetry_space_group_name_H-M  'Pnma'
_cell_length_a       9.2772
_cell_length_b       9.39587
_cell_length_c       10.6376
_cell_angle_alpha    90
_cell_angle_beta     90
_cell_angle_gamma    90

_symmetry_Int_Tables_number  62
_chemical_formula_structural  K3NbS4
_chemical_formula_sum  K2Nb4S6
_cell_volume  927.2535408515171
_cell_formula_units_Z  4
loop_
  _symmetry_equiv_pos_site_id
 _symmetry_equiv_pos_as_xyz
 1  'x, y, z'
loop_
 _atom_site_type_symbol
 _atom_site_label
 _atom_site_symmetry_multiplicity
 _atom_site_fract_x
 _atom_site_fract_y
 _atom_site_fract_z
 _atom_site_fract_occupancy
 K  K1  1  0.13391  0.08214  0.75000  1
 K  K2  1  0.44308  0.78942  0.95535  1
 K  K3  1  0.55692  0.21058  0.45535  1
 K  K4  1  0.94308  0.71058  0.54465  1
 K  K5  1  0.05692  0.28942  0.45535  1
 K  K6  1  0.55692  0.21058  0.04465  1
 K  K7  1  0.44308  0.78942  0.54465  1
 K  K8  1  0.94308  0.71058  0.95535  1
 K  K9  1  0.86609  0.91786  0.25000  1
 K  K10  1  0.36609  0.58214  0.25000  1
 K  K11  1  0.63391  0.41786  0.75000  1
 K  K12  1  0.05692  0.28942  0.04465  1
 Nb  Nb1  1  0.21335  0.51345  0.75000  1
 Nb  Nb2  1  0.28665  0.01345  0.25000  1
 Nb  Nb3  1  0.78665  0.48655  0.25000  1
 Nb  Nb4  1  0.71335  0.98655  0.75000  1
 S  S1  1  0.16581  0.94802  0.42865  1
 S  S2  1  0.83419  0.05198  0.92865  1
 S  S3  1  0.33419  0.44802  0.57135  1
 S  S4  1  0.33419  0.44802  0.92865  1
 S  S5  1  0.83419  0.05198  0.57135  1
 S  S6  1  0.16581  0.94802  0.07135  1
 S  S7  1  0.66581  0.55198  0.42865  1
 S  S8  1  0.19073  0.75643  0.75000  1
 S  S9  1  0.30927  0.25643  0.25000  1
 S  S10  1  0.80927  0.24357  0.25000  1
 S  S11  1  0.98669  0.41331  0.75000  1
 S  S12  1  0.01331  0.58669  0.25000  1
 S  S13  1  0.66581  0.55198  0.07135  1
 S  S14  1  0.51331  0.91331  0.25000  1
 S  S15  1  0.69073  0.74357  0.75000  1
 S  S16  1  0.48669  0.08669  0.75000  1
