CIF file written using JARVIS-Tools package.
data_RbIO3
_symmetry_space_group_name_H-M  'R3m'
_cell_length_a       4.51415
_cell_length_b       4.51415
_cell_length_c       4.51415
_cell_angle_alpha    89.4176
_cell_angle_beta     89.4176
_cell_angle_gamma    89.4175

_symmetry_Int_Tables_number  160
_chemical_formula_structural  RbIO3
_chemical_formula_sum  RbIO3
_cell_volume  91.97314064505794
_cell_formula_units_Z  1
loop_
  _symmetry_equiv_pos_site_id
 _symmetry_equiv_pos_as_xyz
 1  'x, y, z'
loop_
 _atom_site_type_symbol
 _atom_site_label
 _atom_site_symmetry_multiplicity
 _atom_site_fract_x
 _atom_site_fract_y
 _atom_site_fract_z
 _atom_site_fract_occupancy
 I  I1  1  -0.00241  -0.00241  -0.00241  1
 O  O1  1  0.40297  0.96168  0.96168  1
 O  O2  1  0.96168  0.96168  0.40297  1
 O  O3  1  0.96168  0.40297  0.96168  1
 Rb  Rb1  1  0.48439  0.48439  0.48439  1
