CIF file written using JARVIS-Tools package.
data_CaBeGa
_symmetry_space_group_name_H-M  'I4mm'
_cell_length_a       5.82985
_cell_length_b       5.82985
_cell_length_c       5.82985
_cell_angle_alpha    147.739
_cell_angle_beta     147.739
_cell_angle_gamma    46.2707

_symmetry_Int_Tables_number  107
_chemical_formula_structural  CaBeGa
_chemical_formula_sum  CaBeGa
_cell_volume  56.25574167957136
_cell_formula_units_Z  1
loop_
  _symmetry_equiv_pos_site_id
 _symmetry_equiv_pos_as_xyz
 1  'x, y, z'
loop_
 _atom_site_type_symbol
 _atom_site_label
 _atom_site_symmetry_multiplicity
 _atom_site_fract_x
 _atom_site_fract_y
 _atom_site_fract_z
 _atom_site_fract_occupancy
 Be  Be1  1  0.03107  0.03107  0.00000  1
 Ca  Ca1  1  0.33732  0.33732  0.00000  1
 Ga  Ga1  1  0.63161  0.63161  -0.00000  1
