CIF file written using JARVIS-Tools package.
data_SiIr
_symmetry_space_group_name_H-M  'Pnma'
_cell_length_a       3.41559
_cell_length_b       5.55617
_cell_length_c       6.21563
_cell_angle_alpha    90
_cell_angle_beta     90
_cell_angle_gamma    90

_symmetry_Int_Tables_number  62
_chemical_formula_structural  SiIr
_chemical_formula_sum  Si4Ir4
_cell_volume  117.95776775981722
_cell_formula_units_Z  4
loop_
  _symmetry_equiv_pos_site_id
 _symmetry_equiv_pos_as_xyz
 1  'x, y, z'
loop_
 _atom_site_type_symbol
 _atom_site_label
 _atom_site_symmetry_multiplicity
 _atom_site_fract_x
 _atom_site_fract_y
 _atom_site_fract_z
 _atom_site_fract_occupancy
 Ir  Ir1  1  0.25000  0.49952  0.70616  1
 Ir  Ir2  1  0.75000  0.50048  0.29384  1
 Ir  Ir3  1  0.25000  -0.00048  0.79384  1
 Ir  Ir4  1  0.75000  0.00048  0.20616  1
 Si  Si1  1  0.25000  0.68260  0.07083  1
 Si  Si2  1  0.75000  0.31740  0.92917  1
 Si  Si3  1  0.25000  0.18260  0.42917  1
 Si  Si4  1  0.75000  0.81740  0.57083  1
