CIF file written using JARVIS-Tools package.
data_UGe2
_symmetry_space_group_name_H-M  'Cmmm'
_cell_length_a       4.04625
_cell_length_b       4.18051
_cell_length_c       7.58582
_cell_angle_alpha    90
_cell_angle_beta     105.468
_cell_angle_gamma    90

_symmetry_Int_Tables_number  65
_chemical_formula_structural  UGe2
_chemical_formula_sum  U2Ge4
_cell_volume  123.6695615694391
_cell_formula_units_Z  2
loop_
  _symmetry_equiv_pos_site_id
 _symmetry_equiv_pos_as_xyz
 1  'x, y, z'
loop_
 _atom_site_type_symbol
 _atom_site_label
 _atom_site_symmetry_multiplicity
 _atom_site_fract_x
 _atom_site_fract_y
 _atom_site_fract_z
 _atom_site_fract_occupancy
 Ge  Ge1  1  0.50000  0.50000  -0.00000  1
 Ge  Ge2  1  0.00000  0.00000  0.00000  1
 Ge  Ge3  1  0.68729  0.00000  0.37457  1
 Ge  Ge4  1  0.31271  0.00000  0.62543  1
 U  U1  1  0.14481  0.50000  0.28963  1
 U  U2  1  0.85519  0.50000  0.71037  1
