CIF file written using JARVIS-Tools package.
data_Na2UO4
_symmetry_space_group_name_H-M  'Cmmm'
_cell_length_a       3.49895
_cell_length_b       5.92521
_cell_length_c       5.92521
_cell_angle_alpha    112.192
_cell_angle_beta     90
_cell_angle_gamma    90

_symmetry_Int_Tables_number  65
_chemical_formula_structural  Na2UO4
_chemical_formula_sum  Na2UO4
_cell_volume  113.74234563510035
_cell_formula_units_Z  1
loop_
  _symmetry_equiv_pos_site_id
 _symmetry_equiv_pos_as_xyz
 1  'x, y, z'
loop_
 _atom_site_type_symbol
 _atom_site_label
 _atom_site_symmetry_multiplicity
 _atom_site_fract_x
 _atom_site_fract_y
 _atom_site_fract_z
 _atom_site_fract_occupancy
 Na  Na1  1  0.50000  0.00000  0.50000  1
 Na  Na2  1  0.50000  0.50000  1.00000  1
 O  O1  1  0.50000  0.19696  0.19696  1
 O  O2  1  0.00000  0.80018  0.19982  1
 O  O3  1  0.50000  0.80304  0.80304  1
 O  O4  1  0.00000  0.19982  0.80018  1
 U  U1  1  0.00000  1.00000  0.00000  1
