CIF file written using JARVIS-Tools package.
data_BeNiCl
_symmetry_space_group_name_H-M  'I4mm'
_cell_length_a       5.40436
_cell_length_b       5.40436
_cell_length_c       5.40436
_cell_angle_alpha    148.967
_cell_angle_beta     148.967
_cell_angle_gamma    44.4605

_symmetry_Int_Tables_number  107
_chemical_formula_structural  BeNiCl
_chemical_formula_sum  BeNiCl
_cell_volume  41.82729507478932
_cell_formula_units_Z  1
loop_
  _symmetry_equiv_pos_site_id
 _symmetry_equiv_pos_as_xyz
 1  'x, y, z'
loop_
 _atom_site_type_symbol
 _atom_site_label
 _atom_site_symmetry_multiplicity
 _atom_site_fract_x
 _atom_site_fract_y
 _atom_site_fract_z
 _atom_site_fract_occupancy
 Be  Be1  1  0.01348  0.01348  -0.00000  1
 Cl  Cl1  1  0.37240  0.37240  0.00000  1
 Ni  Ni1  1  0.61412  0.61412  0.00000  1
