CIF file written using JARVIS-Tools package.
data_Li4Ti5Fe3O16
_symmetry_space_group_name_H-M  'Cm'
_cell_length_a       5.79819
_cell_length_b       5.71376
_cell_length_c       9.52167
_cell_angle_alpha    89.4746
_cell_angle_beta     89.9985
_cell_angle_gamma    120.489

_symmetry_Int_Tables_number  8
_chemical_formula_structural  Li4Ti5Fe3O16
_chemical_formula_sum  Li4Ti5Fe3O6
_cell_volume  271.8147323951963
_cell_formula_units_Z  1
loop_
  _symmetry_equiv_pos_site_id
 _symmetry_equiv_pos_as_xyz
 1  'x, y, z'
loop_
 _atom_site_type_symbol
 _atom_site_label
 _atom_site_symmetry_multiplicity
 _atom_site_fract_x
 _atom_site_fract_y
 _atom_site_fract_z
 _atom_site_fract_occupancy
 Fe  Fe1  1  0.82576  0.17263  0.28736  1
 Fe  Fe2  1  0.17970  0.35942  0.78778  1
 Fe  Fe3  1  0.34686  0.17263  0.28736  1
 Li  Li1  1  0.33041  0.66084  0.10840  1
 Li  Li2  1  0.01312  0.02627  0.00693  1
 Li  Li3  1  0.00471  0.00945  0.50528  1
 Li  Li4  1  0.66065  0.32133  0.59991  1
 O  O1  1  0.17052  0.83803  0.40372  1
 O  O2  1  0.51848  0.03697  0.16573  1
 O  O3  1  0.33992  0.67986  0.90667  1
 O  O4  1  0.00452  0.00906  0.69402  1
 O  O5  1  0.00686  0.01373  0.19439  1
 O  O6  1  0.66749  0.83803  0.40372  1
 O  O7  1  0.47927  0.95858  0.66332  1
 O  O8  1  0.48151  0.51041  0.65425  1
 O  O9  1  0.16590  0.33182  0.39484  1
 O  O10  1  0.33676  0.17674  0.90074  1
 O  O11  1  0.96610  0.48263  0.15893  1
 O  O12  1  0.66439  0.32879  0.39921  1
 O  O13  1  0.02887  0.51041  0.65425  1
 O  O14  1  0.83451  0.66904  0.90766  1
 O  O15  1  0.51651  0.48263  0.15894  1
 O  O16  1  0.83995  0.17674  0.90074  1
 Ti  Ti1  1  0.65463  0.30929  0.00651  1
 Ti  Ti2  1  0.64852  0.80765  0.78225  1
 Ti  Ti3  1  0.33072  0.66145  0.49999  1
 Ti  Ti4  1  0.15910  0.80764  0.78226  1
 Ti  Ti5  1  0.82397  0.64795  0.27700  1
