CIF file written using JARVIS-Tools package.
data_YbAlCu
_symmetry_space_group_name_H-M  'P-62m'
_cell_length_a       4.09071
_cell_length_b       6.96158
_cell_length_c       6.96147
_cell_angle_alpha    120.001
_cell_angle_beta     90
_cell_angle_gamma    90

_symmetry_Int_Tables_number  189
_chemical_formula_structural  YbAlCu
_chemical_formula_sum  Yb3Al3Cu3
_cell_volume  171.68638897809043
_cell_formula_units_Z  3
loop_
  _symmetry_equiv_pos_site_id
 _symmetry_equiv_pos_as_xyz
 1  'x, y, z'
loop_
 _atom_site_type_symbol
 _atom_site_label
 _atom_site_symmetry_multiplicity
 _atom_site_fract_x
 _atom_site_fract_y
 _atom_site_fract_z
 _atom_site_fract_occupancy
 Al  Al1  1  0.00000  0.23249  -0.00000  1
 Al  Al2  1  0.00000  0.76748  0.76750  1
 Al  Al3  1  0.00000  0.99999  0.23250  1
 Cu  Cu1  1  0.00000  0.33332  0.66667  1
 Cu  Cu2  1  0.00000  0.66666  0.33333  1
 Cu  Cu3  1  0.50000  -0.00001  -0.00000  1
 Yb  Yb1  1  0.50000  0.58199  -0.00000  1
 Yb  Yb2  1  0.50000  0.41798  0.41799  1
 Yb  Yb3  1  0.50000  0.99999  0.58201  1
