CIF file written using JARVIS-Tools package.
data_CeP5
_symmetry_space_group_name_H-M  'P2_1/m'
_cell_length_a       4.66373
_cell_length_b       5.57326
_cell_length_c       9.61346
_cell_angle_alpha    90
_cell_angle_beta     90
_cell_angle_gamma    107.781

_symmetry_Int_Tables_number  11
_chemical_formula_structural  CeP5
_chemical_formula_sum  Ce2P0
_cell_volume  237.9386140104665
_cell_formula_units_Z  2
loop_
  _symmetry_equiv_pos_site_id
 _symmetry_equiv_pos_as_xyz
 1  'x, y, z'
loop_
 _atom_site_type_symbol
 _atom_site_label
 _atom_site_symmetry_multiplicity
 _atom_site_fract_x
 _atom_site_fract_y
 _atom_site_fract_z
 _atom_site_fract_occupancy
 Ce  Ce1  1  0.41515  0.10394  0.25000  1
 Ce  Ce2  1  0.58485  0.89606  0.75000  1
 P  P1  1  0.23074  0.55936  0.25000  1
 P  P2  1  0.76926  0.44064  0.75000  1
 P  P3  1  0.13388  0.47902  0.90664  1
 P  P4  1  0.86612  0.52098  0.40664  1
 P  P5  1  0.86612  0.52098  0.09336  1
 P  P6  1  0.13388  0.47902  0.59336  1
 P  P7  1  0.21261  0.10969  0.94671  1
 P  P8  1  0.78739  0.89031  0.44671  1
 P  P9  1  0.78739  0.89031  0.05329  1
 P  P10  1  0.21261  0.10969  0.55329  1
