CIF file written using JARVIS-Tools package.
data_BeGaBr
_symmetry_space_group_name_H-M  'I4mm'
_cell_length_a       5.92944
_cell_length_b       5.92944
_cell_length_c       5.92944
_cell_angle_alpha    146.511
_cell_angle_beta     146.511
_cell_angle_gamma    48.0879

_symmetry_Int_Tables_number  107
_chemical_formula_structural  BeGaBr
_chemical_formula_sum  BeGaBr
_cell_volume  63.20850971058086
_cell_formula_units_Z  1
loop_
  _symmetry_equiv_pos_site_id
 _symmetry_equiv_pos_as_xyz
 1  'x, y, z'
loop_
 _atom_site_type_symbol
 _atom_site_label
 _atom_site_symmetry_multiplicity
 _atom_site_fract_x
 _atom_site_fract_y
 _atom_site_fract_z
 _atom_site_fract_occupancy
 Be  Be1  1  0.12121  0.12121  -0.00000  1
 Br  Br1  1  0.31401  0.31401  0.00000  1
 Ga  Ga1  1  0.56478  0.56478  0.00000  1
