CIF file written using JARVIS-Tools package.
data_UCo2P2
_symmetry_space_group_name_H-M  'P4/nmm'
_cell_length_a       4.24882
_cell_length_b       4.24882
_cell_length_c       8.43305
_cell_angle_alpha    90
_cell_angle_beta     90
_cell_angle_gamma    90

_symmetry_Int_Tables_number  129
_chemical_formula_structural  UCo2P2
_chemical_formula_sum  U2Co4P4
_cell_volume  152.2372409861719
_cell_formula_units_Z  2
loop_
  _symmetry_equiv_pos_site_id
 _symmetry_equiv_pos_as_xyz
 1  'x, y, z'
loop_
 _atom_site_type_symbol
 _atom_site_label
 _atom_site_symmetry_multiplicity
 _atom_site_fract_x
 _atom_site_fract_y
 _atom_site_fract_z
 _atom_site_fract_occupancy
 Co  Co1  1  0.50000  0.00000  0.14510  1
 Co  Co2  1  0.00000  0.00000  0.00000  1
 Co  Co3  1  0.50000  0.50000  0.00000  1
 Co  Co4  1  0.00000  0.50000  0.85490  1
 P  P1  1  0.00000  0.00000  0.50000  1
 P  P2  1  0.50000  0.50000  0.50000  1
 P  P3  1  0.00000  0.50000  0.60691  1
 P  P4  1  0.50000  0.00000  0.39309  1
 U  U1  1  0.50000  0.00000  0.78484  1
 U  U2  1  0.00000  0.50000  0.21516  1
