CIF file written using JARVIS-Tools package.
data_Ag3O
_symmetry_space_group_name_H-M  'P-31m'
_cell_length_a       5.34886
_cell_length_b       5.34886
_cell_length_c       5.0036
_cell_angle_alpha    90
_cell_angle_beta     90
_cell_angle_gamma    120

_symmetry_Int_Tables_number  162
_chemical_formula_structural  Ag3O
_chemical_formula_sum  Ag6O2
_cell_volume  123.97530040045415
_cell_formula_units_Z  2
loop_
  _symmetry_equiv_pos_site_id
 _symmetry_equiv_pos_as_xyz
 1  'x, y, z'
loop_
 _atom_site_type_symbol
 _atom_site_label
 _atom_site_symmetry_multiplicity
 _atom_site_fract_x
 _atom_site_fract_y
 _atom_site_fract_z
 _atom_site_fract_occupancy
 Ag  Ag1  1  0.31163  0.31163  0.78027  1
 Ag  Ag2  1  0.31163  -0.00000  0.21973  1
 Ag  Ag3  1  -0.00000  0.31163  0.21973  1
 Ag  Ag4  1  0.68837  0.68837  0.21973  1
 Ag  Ag5  1  0.68837  0.00000  0.78027  1
 Ag  Ag6  1  0.00000  0.68837  0.78027  1
 O  O1  1  0.66667  0.33333  0.50000  1
 O  O2  1  0.33333  0.66667  0.50000  1
