CIF file written using JARVIS-Tools package.
data_Ba4Br6O
_symmetry_space_group_name_H-M  'P6_3mc'
_cell_length_a       10.4126
_cell_length_b       10.4127
_cell_length_c       7.90281
_cell_angle_alpha    90
_cell_angle_beta     90
_cell_angle_gamma    120

_symmetry_Int_Tables_number  186
_chemical_formula_structural  Ba4Br6O
_chemical_formula_sum  Ba8Br2O2
_cell_volume  742.0527840347766
_cell_formula_units_Z  2
loop_
  _symmetry_equiv_pos_site_id
 _symmetry_equiv_pos_as_xyz
 1  'x, y, z'
loop_
 _atom_site_type_symbol
 _atom_site_label
 _atom_site_symmetry_multiplicity
 _atom_site_fract_x
 _atom_site_fract_y
 _atom_site_fract_z
 _atom_site_fract_occupancy
 Ba  Ba1  1  0.19837  0.80163  -0.00092  1
 Ba  Ba2  1  0.33333  0.66667  0.42093  1
 Ba  Ba3  1  0.60327  0.80163  -0.00092  1
 Ba  Ba4  1  0.80163  0.19837  0.49908  1
 Ba  Ba5  1  0.39673  0.19837  0.49908  1
 Ba  Ba6  1  0.80163  0.60327  0.49908  1
 Ba  Ba7  1  0.66667  0.33333  0.92093  1
 Ba  Ba8  1  0.19837  0.39673  -0.00092  1
 Br  Br1  1  0.85835  0.14165  0.89485  1
 Br  Br2  1  0.71670  0.85835  0.39485  1
 Br  Br3  1  0.52981  0.47019  0.20782  1
 Br  Br4  1  0.28330  0.14165  0.89485  1
 Br  Br5  1  0.85835  0.71670  0.89485  1
 Br  Br6  1  0.14165  0.28330  0.39485  1
 Br  Br7  1  0.52981  0.05962  0.20782  1
 Br  Br8  1  0.47019  0.94038  0.70782  1
 Br  Br9  1  0.14165  0.85835  0.39485  1
 Br  Br10  1  0.47019  0.52981  0.70782  1
 Br  Br11  1  0.94038  0.47019  0.20782  1
 Br  Br12  1  0.05962  0.52981  0.70782  1
 O  O1  1  0.33333  0.66667  0.09939  1
 O  O2  1  0.66667  0.33333  0.59939  1
