CIF file written using JARVIS-Tools package.
data_BeGaHg
_symmetry_space_group_name_H-M  'I4mm'
_cell_length_a       6.25288
_cell_length_b       6.25288
_cell_length_c       6.25288
_cell_angle_alpha    152.757
_cell_angle_beta     152.757
_cell_angle_gamma    38.909

_symmetry_Int_Tables_number  107
_chemical_formula_structural  BeGaHg
_chemical_formula_sum  BeGaHg
_cell_volume  51.142143903136486
_cell_formula_units_Z  1
loop_
  _symmetry_equiv_pos_site_id
 _symmetry_equiv_pos_as_xyz
 1  'x, y, z'
loop_
 _atom_site_type_symbol
 _atom_site_label
 _atom_site_symmetry_multiplicity
 _atom_site_fract_x
 _atom_site_fract_y
 _atom_site_fract_z
 _atom_site_fract_occupancy
 Be  Be1  1  0.99122  0.99122  -0.00000  1
 Ga  Ga1  1  0.36333  0.36333  0.00000  1
 Hg  Hg1  1  0.64545  0.64545  0.00000  1
