CIF file written using JARVIS-Tools package.
data_SrBeCl
_symmetry_space_group_name_H-M  'I4mm'
_cell_length_a       6.86659
_cell_length_b       6.86659
_cell_length_c       6.86659
_cell_angle_alpha    148.647
_cell_angle_beta     148.647
_cell_angle_gamma    44.9309

_symmetry_Int_Tables_number  107
_chemical_formula_structural  SrBeCl
_chemical_formula_sum  SrBeCl
_cell_volume  87.37606267836206
_cell_formula_units_Z  1
loop_
  _symmetry_equiv_pos_site_id
 _symmetry_equiv_pos_as_xyz
 1  'x, y, z'
loop_
 _atom_site_type_symbol
 _atom_site_label
 _atom_site_symmetry_multiplicity
 _atom_site_fract_x
 _atom_site_fract_y
 _atom_site_fract_z
 _atom_site_fract_occupancy
 Be  Be1  1  0.02801  0.02801  0.00000  1
 Cl  Cl1  1  0.29372  0.29372  -0.00000  1
 Sr  Sr1  1  0.67827  0.67827  0.00000  1
