CIF file written using JARVIS-Tools package.
data_AsS3N2F6
_symmetry_space_group_name_H-M  'P-1'
_cell_length_a       5.50863
_cell_length_b       7.59711
_cell_length_c       9.43662
_cell_angle_alpha    88.2074
_cell_angle_beta     81.8727
_cell_angle_gamma    74.3435

_symmetry_Int_Tables_number  2
_chemical_formula_structural  AsS3N2F6
_chemical_formula_sum  As2S6N4F2
_cell_volume  376.43841513995693
_cell_formula_units_Z  2
loop_
  _symmetry_equiv_pos_site_id
 _symmetry_equiv_pos_as_xyz
 1  'x, y, z'
loop_
 _atom_site_type_symbol
 _atom_site_label
 _atom_site_symmetry_multiplicity
 _atom_site_fract_x
 _atom_site_fract_y
 _atom_site_fract_z
 _atom_site_fract_occupancy
 As  As1  1  0.92030  0.22406  0.77893  1
 As  As2  1  0.07970  0.77594  0.22107  1
 F  F1  1  0.18328  0.22138  0.86696  1
 F  F2  1  0.34794  0.76596  0.30732  1
 F  F3  1  0.87910  0.92324  0.35778  1
 F  F4  1  0.96399  0.41921  0.67962  1
 F  F5  1  0.86818  0.03368  0.87938  1
 F  F6  1  0.71751  0.37234  0.91708  1
 F  F7  1  0.81672  0.77862  0.13304  1
 F  F8  1  0.13182  0.96632  0.12062  1
 F  F9  1  0.28249  0.62766  0.08292  1
 F  F10  1  0.03601  0.58079  0.32038  1
 F  F11  1  0.65206  0.23404  0.69268  1
 F  F12  1  0.12090  0.07676  0.64222  1
 N  N1  1  0.65273  0.35039  0.37365  1
 N  N2  1  0.34666  0.18113  0.31116  1
 N  N3  1  0.65334  0.81887  0.68884  1
 N  N4  1  0.34727  0.64961  0.62635  1
 S  S1  1  0.73582  0.35508  0.20500  1
 S  S2  1  0.53322  0.79927  0.85048  1
 S  S3  1  0.26418  0.64492  0.79500  1
 S  S4  1  0.43708  0.25925  0.44116  1
 S  S5  1  0.56292  0.74075  0.55884  1
 S  S6  1  0.46678  0.20073  0.14952  1
