CIF file written using JARVIS-Tools package.
data_LiBIr
_symmetry_space_group_name_H-M  'Fddd'
_cell_length_a       5.55592
_cell_length_b       5.55592
_cell_length_c       6.09441
_cell_angle_alpha    106.29
_cell_angle_beta     106.29
_cell_angle_gamma    112.62

_symmetry_Int_Tables_number  70
_chemical_formula_structural  LiBIr
_chemical_formula_sum  Li4B4Ir4
_cell_volume  149.8128544297827
_cell_formula_units_Z  4
loop_
  _symmetry_equiv_pos_site_id
 _symmetry_equiv_pos_as_xyz
 1  'x, y, z'
loop_
 _atom_site_type_symbol
 _atom_site_label
 _atom_site_symmetry_multiplicity
 _atom_site_fract_x
 _atom_site_fract_y
 _atom_site_fract_z
 _atom_site_fract_occupancy
 B  B1  1  0.94843  0.05157  0.75000  1
 B  B2  1  0.69843  0.30157  0.25000  1
 B  B3  1  0.30157  0.69843  0.75000  1
 B  B4  1  0.05157  0.94843  0.25000  1
 Ir  Ir1  1  0.25854  0.00854  0.01708  1
 Ir  Ir2  1  0.74146  0.99146  0.98292  1
 Ir  Ir3  1  0.00854  0.25854  0.51708  1
 Ir  Ir4  1  0.99146  0.74146  0.48292  1
 Li  Li1  1  0.50000  0.50000  -0.00000  1
 Li  Li2  1  0.50000  0.00000  0.50000  1
 Li  Li3  1  0.50000  0.50000  0.50000  1
 Li  Li4  1  -0.00000  0.50000  -0.00000  1
