CIF file written using JARVIS-Tools package.
data_AsPd2
_symmetry_space_group_name_H-M  'Cmc2_1'
_cell_length_a       3.35848
_cell_length_b       6.68118
_cell_length_c       8.73303
_cell_angle_alpha    90
_cell_angle_beta     101.086
_cell_angle_gamma    90

_symmetry_Int_Tables_number  36
_chemical_formula_structural  AsPd2
_chemical_formula_sum  As4Pd8
_cell_volume  192.30019610740078
_cell_formula_units_Z  4
loop_
  _symmetry_equiv_pos_site_id
 _symmetry_equiv_pos_as_xyz
 1  'x, y, z'
loop_
 _atom_site_type_symbol
 _atom_site_label
 _atom_site_symmetry_multiplicity
 _atom_site_fract_x
 _atom_site_fract_y
 _atom_site_fract_z
 _atom_site_fract_occupancy
 As  As1  1  0.20450  0.22938  0.40900  1
 As  As2  1  0.79550  0.72938  0.59100  1
 As  As3  1  0.55843  0.69830  0.11687  1
 As  As4  1  0.44157  0.19830  0.88313  1
 Pd  Pd1  1  0.67305  0.95906  0.34609  1
 Pd  Pd2  1  0.32695  0.45906  0.65391  1
 Pd  Pd3  1  0.41480  0.82718  0.82960  1
 Pd  Pd4  1  0.58520  0.32718  0.17040  1
 Pd  Pd5  1  0.17197  0.60641  0.34393  1
 Pd  Pd6  1  0.82803  0.10641  0.65607  1
 Pd  Pd7  1  0.96277  0.49397  0.92554  1
 Pd  Pd8  1  0.03723  0.99397  0.07446  1
