CIF file written using JARVIS-Tools package.
data_BeGaW
_symmetry_space_group_name_H-M  'I4mm'
_cell_length_a       6.24035
_cell_length_b       6.24035
_cell_length_c       6.24035
_cell_angle_alpha    155.459
_cell_angle_beta     155.459
_cell_angle_gamma    34.9817

_symmetry_Int_Tables_number  107
_chemical_formula_structural  BeGaW
_chemical_formula_sum  BeGaW
_cell_volume  41.87388294106355
_cell_formula_units_Z  1
loop_
  _symmetry_equiv_pos_site_id
 _symmetry_equiv_pos_as_xyz
 1  'x, y, z'
loop_
 _atom_site_type_symbol
 _atom_site_label
 _atom_site_symmetry_multiplicity
 _atom_site_fract_x
 _atom_site_fract_y
 _atom_site_fract_z
 _atom_site_fract_occupancy
 Be  Be1  1  0.00495  0.00495  -0.00000  1
 Ga  Ga1  1  0.34035  0.34035  0.00000  1
 W  W1  1  0.65470  0.65470  0.00000  1
