CIF file written using JARVIS-Tools package.
data_CaBeGe
_symmetry_space_group_name_H-M  'I4mm'
_cell_length_a       5.75146
_cell_length_b       5.75146
_cell_length_c       5.75146
_cell_angle_alpha    146.887
_cell_angle_beta     146.887
_cell_angle_gamma    47.5305

_symmetry_Int_Tables_number  107
_chemical_formula_structural  CaBeGe
_chemical_formula_sum  CaBeGe
_cell_volume  56.5553214028962
_cell_formula_units_Z  1
loop_
  _symmetry_equiv_pos_site_id
 _symmetry_equiv_pos_as_xyz
 1  'x, y, z'
loop_
 _atom_site_type_symbol
 _atom_site_label
 _atom_site_symmetry_multiplicity
 _atom_site_fract_x
 _atom_site_fract_y
 _atom_site_fract_z
 _atom_site_fract_occupancy
 Be  Be1  1  0.03528  0.03528  -0.00000  1
 Ca  Ca1  1  0.33589  0.33589  -0.00000  1
 Ge  Ge1  1  0.62882  0.62882  -0.00000  1
