CIF file written using JARVIS-Tools package.
data_Li2TiCoO4
_symmetry_space_group_name_H-M  'I-4m2'
_cell_length_a       5.1253
_cell_length_b       4.02742
_cell_length_c       4.02742
_cell_angle_alpha    90.0001
_cell_angle_beta     66.8652
_cell_angle_gamma    66.8652

_symmetry_Int_Tables_number  119
_chemical_formula_structural  Li2TiCoO4
_chemical_formula_sum  Li2TiCoO4
_cell_volume  69.118878495189
_cell_formula_units_Z  1
loop_
  _symmetry_equiv_pos_site_id
 _symmetry_equiv_pos_as_xyz
 1  'x, y, z'
loop_
 _atom_site_type_symbol
 _atom_site_label
 _atom_site_symmetry_multiplicity
 _atom_site_fract_x
 _atom_site_fract_y
 _atom_site_fract_z
 _atom_site_fract_occupancy
 Co  Co1  1  0.00000  0.00000  0.00000  1
 Li  Li1  1  0.50000  0.75000  0.25000  1
 Li  Li2  1  -0.00000  0.50000  0.50000  1
 O  O1  1  0.96574  0.01713  0.51713  1
 O  O2  1  0.50306  0.74847  0.74847  1
 O  O3  1  0.49694  0.25153  0.25153  1
 O  O4  1  0.03426  0.48287  0.98287  1
 Ti  Ti1  1  0.50000  0.25000  0.75000  1
