CIF file written using JARVIS-Tools package.
data_Tm3Sb
_symmetry_space_group_name_H-M  'P4_2/n'
_cell_length_a       6.06342
_cell_length_b       12.1499
_cell_length_c       12.1499
_cell_angle_alpha    90
_cell_angle_beta     90
_cell_angle_gamma    90

_symmetry_Int_Tables_number  86
_chemical_formula_structural  Tm3Sb
_chemical_formula_sum  Tm24Sb8
_cell_volume  895.0754885671581
_cell_formula_units_Z  8
loop_
  _symmetry_equiv_pos_site_id
 _symmetry_equiv_pos_as_xyz
 1  'x, y, z'
loop_
 _atom_site_type_symbol
 _atom_site_label
 _atom_site_symmetry_multiplicity
 _atom_site_fract_x
 _atom_site_fract_y
 _atom_site_fract_z
 _atom_site_fract_occupancy
 Sb  Sb1  1  0.03905  0.29139  0.05108  1
 Sb  Sb2  1  0.53905  0.55108  0.70861  1
 Sb  Sb3  1  0.03905  0.20861  0.44892  1
 Sb  Sb4  1  0.96095  0.70861  0.94892  1
 Sb  Sb5  1  0.46095  0.05108  0.20861  1
 Sb  Sb6  1  0.46095  0.44892  0.29139  1
 Sb  Sb7  1  0.96095  0.79139  0.55108  1
 Sb  Sb8  1  0.53905  0.94892  0.79139  1
 Tm  Tm1  1  0.71517  0.64267  0.16670  1
 Tm  Tm2  1  0.26363  0.42573  0.53555  1
 Tm  Tm3  1  0.76363  0.46445  0.92573  1
 Tm  Tm4  1  0.76363  0.03555  0.57427  1
 Tm  Tm5  1  0.26363  0.07427  0.96445  1
 Tm  Tm6  1  0.73637  0.57427  0.46445  1
 Tm  Tm7  1  0.23637  0.53555  0.07427  1
 Tm  Tm8  1  0.23637  0.96445  0.42573  1
 Tm  Tm9  1  0.73637  0.92573  0.03555  1
 Tm  Tm10  1  0.46429  0.72012  0.89666  1
 Tm  Tm11  1  0.46429  0.77988  0.60334  1
 Tm  Tm12  1  0.96429  0.10334  0.22012  1
 Tm  Tm13  1  0.03571  0.60334  0.72012  1
 Tm  Tm14  1  0.53571  0.27988  0.10334  1
 Tm  Tm15  1  0.53571  0.22012  0.39666  1
 Tm  Tm16  1  0.03571  0.89666  0.77988  1
 Tm  Tm17  1  0.78483  0.16670  0.85733  1
 Tm  Tm18  1  0.28483  0.14267  0.66670  1
 Tm  Tm19  1  0.28483  0.35733  0.83330  1
 Tm  Tm20  1  0.78483  0.33330  0.64267  1
 Tm  Tm21  1  0.21517  0.83330  0.14267  1
 Tm  Tm22  1  0.71517  0.85733  0.33330  1
 Tm  Tm23  1  0.96429  0.39666  0.27988  1
 Tm  Tm24  1  0.21517  0.66670  0.35733  1
