CIF file written using JARVIS-Tools package.
data_Li2Ni3TeO8
_symmetry_space_group_name_H-M  'R-3m'
_cell_length_a       5.99841
_cell_length_b       5.99841
_cell_length_c       5.99841
_cell_angle_alpha    58.3135
_cell_angle_beta     58.3135
_cell_angle_gamma    58.3135

_symmetry_Int_Tables_number  166
_chemical_formula_structural  Li2Ni3TeO8
_chemical_formula_sum  Li2Ni3TeO8
_cell_volume  146.71950268801115
_cell_formula_units_Z  1
loop_
  _symmetry_equiv_pos_site_id
 _symmetry_equiv_pos_as_xyz
 1  'x, y, z'
loop_
 _atom_site_type_symbol
 _atom_site_label
 _atom_site_symmetry_multiplicity
 _atom_site_fract_x
 _atom_site_fract_y
 _atom_site_fract_z
 _atom_site_fract_occupancy
 Li  Li1  1  0.13502  0.13502  0.13502  1
 Li  Li2  1  0.86498  0.86498  0.86498  1
 Ni  Ni1  1  -0.00000  0.50000  0.50000  1
 Ni  Ni2  1  0.50000  0.00000  0.50000  1
 Ni  Ni3  1  0.50000  0.50000  0.00000  1
 O  O1  1  0.27264  0.27264  0.27264  1
 O  O2  1  0.26516  0.26516  0.72552  1
 O  O3  1  0.26516  0.72552  0.26516  1
 O  O4  1  0.72552  0.26516  0.26516  1
 O  O5  1  0.27448  0.73484  0.73484  1
 O  O6  1  0.73484  0.27448  0.73484  1
 O  O7  1  0.73484  0.73484  0.27448  1
 O  O8  1  0.72736  0.72736  0.72736  1
 Te  Te1  1  0.50000  0.50000  0.50000  1
