CIF file written using JARVIS-Tools package.
data_BaGe12Pt4
_symmetry_space_group_name_H-M  'Im-3'
_cell_length_a       7.63428
_cell_length_b       7.63429
_cell_length_c       7.63428
_cell_angle_alpha    109.471
_cell_angle_beta     109.471
_cell_angle_gamma    109.471

_symmetry_Int_Tables_number  204
_chemical_formula_structural  BaGe12Pt4
_chemical_formula_sum  BaGe2Pt4
_cell_volume  342.5174546008107
_cell_formula_units_Z  1
loop_
  _symmetry_equiv_pos_site_id
 _symmetry_equiv_pos_as_xyz
 1  'x, y, z'
loop_
 _atom_site_type_symbol
 _atom_site_label
 _atom_site_symmetry_multiplicity
 _atom_site_fract_x
 _atom_site_fract_y
 _atom_site_fract_z
 _atom_site_fract_occupancy
 Ba  Ba1  1  0.00000  0.00000  0.00000  1
 Ge  Ge1  1  0.15164  0.79528  0.64365  1
 Ge  Ge2  1  0.64365  0.84836  0.49201  1
 Ge  Ge3  1  0.79528  0.64365  0.15164  1
 Ge  Ge4  1  0.15164  0.50799  0.35635  1
 Ge  Ge5  1  0.50799  0.35635  0.15164  1
 Ge  Ge6  1  0.64365  0.15164  0.79528  1
 Ge  Ge7  1  0.35635  0.15164  0.50799  1
 Ge  Ge8  1  0.35635  0.84836  0.20472  1
 Ge  Ge9  1  0.20472  0.35635  0.84836  1
 Ge  Ge10  1  0.49201  0.64365  0.84836  1
 Ge  Ge11  1  0.84836  0.49201  0.64365  1
 Ge  Ge12  1  0.84836  0.20472  0.35635  1
 Pt  Pt1  1  0.00000  0.00000  0.50000  1
 Pt  Pt2  1  0.00000  0.50000  0.00000  1
 Pt  Pt3  1  0.50000  0.50000  0.50000  1
 Pt  Pt4  1  0.50000  0.00000  0.00000  1
