CIF file written using JARVIS-Tools package.
data_Li3BN2
_symmetry_space_group_name_H-M  'I4_1/amd'
_cell_length_a       6.92849
_cell_length_b       6.92849
_cell_length_c       6.92849
_cell_angle_alpha    123.407
_cell_angle_beta     123.407
_cell_angle_gamma    84.1942

_symmetry_Int_Tables_number  141
_chemical_formula_structural  Li3BN2
_chemical_formula_sum  Li2B4N8
_cell_volume  221.82474162256955
_cell_formula_units_Z  4
loop_
  _symmetry_equiv_pos_site_id
 _symmetry_equiv_pos_as_xyz
 1  'x, y, z'
loop_
 _atom_site_type_symbol
 _atom_site_label
 _atom_site_symmetry_multiplicity
 _atom_site_fract_x
 _atom_site_fract_y
 _atom_site_fract_z
 _atom_site_fract_occupancy
 B  B1  1  0.10374  0.60374  0.50000  1
 B  B2  1  0.39626  0.89626  0.50000  1
 B  B3  1  0.64626  0.64626  0.00000  1
 B  B4  1  0.35374  0.35374  0.00000  1
 Li  Li1  1  0.47610  0.52390  0.50000  1
 Li  Li2  1  0.02390  0.97610  0.50000  1
 Li  Li3  1  0.72610  0.72610  0.45221  1
 Li  Li4  1  0.27390  0.27390  0.54779  1
 Li  Li5  1  0.47610  0.97610  0.95221  1
 Li  Li6  1  0.62536  0.12536  0.50000  1
 Li  Li7  1  0.87464  0.37464  0.50000  1
 Li  Li8  1  0.12464  0.12464  0.00000  1
 Li  Li9  1  0.02390  0.52390  0.04779  1
 Li  Li10  1  0.72610  0.27390  -0.00000  1
 Li  Li11  1  0.27390  0.72610  0.00000  1
 Li  Li12  1  0.87536  0.87536  -0.00000  1
 N  N1  1  0.65065  0.85505  0.20440  1
 N  N2  1  0.55375  0.34935  0.20440  1
 N  N3  1  0.14495  0.34935  0.79560  1
 N  N4  1  0.09935  0.39495  0.29560  1
 N  N5  1  0.09935  0.80375  0.70440  1
 N  N6  1  0.60505  0.90065  0.70440  1
 N  N7  1  0.19625  0.90065  0.29560  1
 N  N8  1  0.65065  0.44625  0.79560  1
