CIF file written using JARVIS-Tools package.
data_Ba2CoAg2Se2O2
_symmetry_space_group_name_H-M  'I4/mmm'
_cell_length_a       4.10677
_cell_length_b       4.10677
_cell_length_c       11.1172
_cell_angle_alpha    100.644
_cell_angle_beta     100.644
_cell_angle_gamma    90

_symmetry_Int_Tables_number  139
_chemical_formula_structural  Ba2CoAg2Se2O2
_chemical_formula_sum  Ba2CoAg2Se2O2
_cell_volume  180.98770925633377
_cell_formula_units_Z  1
loop_
  _symmetry_equiv_pos_site_id
 _symmetry_equiv_pos_as_xyz
 1  'x, y, z'
loop_
 _atom_site_type_symbol
 _atom_site_label
 _atom_site_symmetry_multiplicity
 _atom_site_fract_x
 _atom_site_fract_y
 _atom_site_fract_z
 _atom_site_fract_occupancy
 Ag  Ag1  1  0.25000  0.75000  0.50000  1
 Ag  Ag2  1  0.75000  0.25000  0.50000  1
 Ba  Ba1  1  0.58770  0.58770  0.17539  1
 Ba  Ba2  1  0.41230  0.41230  0.82461  1
 Co  Co1  1  0.00000  0.00000  0.00000  1
 O  O1  1  0.50000  0.00000  0.00000  1
 O  O2  1  0.00000  0.50000  0.00000  1
 Se  Se1  1  0.83754  0.83754  0.67507  1
 Se  Se2  1  0.16246  0.16246  0.32493  1
