CIF file written using JARVIS-Tools package.
data_Li2CoSiO4
_symmetry_space_group_name_H-M  'C2/m'
_cell_length_a       5.26871
_cell_length_b       5.26871
_cell_length_c       6.2208
_cell_angle_alpha    89.1345
_cell_angle_beta     90.8655
_cell_angle_gamma    87.0343

_symmetry_Int_Tables_number  12
_chemical_formula_structural  Li2CoSiO4
_chemical_formula_sum  Li4Co2Si2O8
_cell_volume  172.41255982354082
_cell_formula_units_Z  2
loop_
  _symmetry_equiv_pos_site_id
 _symmetry_equiv_pos_as_xyz
 1  'x, y, z'
loop_
 _atom_site_type_symbol
 _atom_site_label
 _atom_site_symmetry_multiplicity
 _atom_site_fract_x
 _atom_site_fract_y
 _atom_site_fract_z
 _atom_site_fract_occupancy
 Co  Co1  1  0.81095  0.81095  -0.00000  1
 Co  Co2  1  0.18920  0.18920  1.00000  1
 Li  Li1  1  0.17540  0.17540  0.50000  1
 Li  Li2  1  0.31458  0.68557  0.73854  1
 Li  Li3  1  0.68557  0.31458  0.26146  1
 Li  Li4  1  0.82475  0.82476  0.50000  1
 O  O1  1  0.19431  0.80584  0.02743  1
 O  O2  1  0.19403  0.80612  0.46577  1
 O  O3  1  0.29459  0.36531  0.25142  1
 O  O4  1  0.36532  0.29459  0.74858  1
 O  O5  1  0.63484  0.70556  0.25142  1
 O  O6  1  0.70556  0.63484  0.74858  1
 O  O7  1  0.80612  0.19404  0.53423  1
 O  O8  1  0.80584  0.19431  0.97257  1
 Si  Si1  1  0.32234  0.67781  0.25700  1
 Si  Si2  1  0.67781  0.32234  0.74300  1
