CIF file written using JARVIS-Tools package.
data_Li2VF6
_symmetry_space_group_name_H-M  'P-31m'
_cell_length_a       4.86638
_cell_length_b       4.86639
_cell_length_c       4.41905
_cell_angle_alpha    89.9986
_cell_angle_beta     90.0016
_cell_angle_gamma    59.9973

_symmetry_Int_Tables_number  162
_chemical_formula_structural  Li2VF6
_chemical_formula_sum  Li2VF6
_cell_volume  90.62746826204048
_cell_formula_units_Z  1
loop_
  _symmetry_equiv_pos_site_id
 _symmetry_equiv_pos_as_xyz
 1  'x, y, z'
loop_
 _atom_site_type_symbol
 _atom_site_label
 _atom_site_symmetry_multiplicity
 _atom_site_fract_x
 _atom_site_fract_y
 _atom_site_fract_z
 _atom_site_fract_occupancy
 F  F1  1  0.00008  0.68614  0.24516  1
 F  F2  1  0.31383  0.68617  0.75486  1
 F  F3  1  0.68626  -0.00004  0.75485  1
 F  F4  1  0.31386  0.99992  0.24516  1
 F  F5  1  0.68629  0.31371  0.24516  1
 F  F6  1  0.00004  0.31374  0.75485  1
 Li  Li1  1  0.33338  0.33326  0.50001  1
 Li  Li2  1  0.66674  0.66662  0.50001  1
 V  V1  1  0.00006  0.99994  0.00001  1
