CIF file written using JARVIS-Tools package.
data_NaScBe
_symmetry_space_group_name_H-M  'I4mm'
_cell_length_a       6.91187
_cell_length_b       6.91187
_cell_length_c       6.91187
_cell_angle_alpha    153.786
_cell_angle_beta     153.786
_cell_angle_gamma    37.4101

_symmetry_Int_Tables_number  107
_chemical_formula_structural  NaScBe
_chemical_formula_sum  NaScBe
_cell_volume  64.33379015691064
_cell_formula_units_Z  1
loop_
  _symmetry_equiv_pos_site_id
 _symmetry_equiv_pos_as_xyz
 1  'x, y, z'
loop_
 _atom_site_type_symbol
 _atom_site_label
 _atom_site_symmetry_multiplicity
 _atom_site_fract_x
 _atom_site_fract_y
 _atom_site_fract_z
 _atom_site_fract_occupancy
 Be  Be1  1  0.98284  0.98284  -0.00000  1
 Na  Na1  1  0.64267  0.64267  -0.00000  1
 Sc  Sc1  1  0.37449  0.37449  0.00000  1
