CIF file written using JARVIS-Tools package.
data_BaGe2Ru2
_symmetry_space_group_name_H-M  'Fddd'
_cell_length_a       6.22909
_cell_length_b       6.2291
_cell_length_c       7.1651
_cell_angle_alpha    103.58
_cell_angle_beta     103.58
_cell_angle_gamma    117.376

_symmetry_Int_Tables_number  70
_chemical_formula_structural  BaGe2Ru2
_chemical_formula_sum  Ba2Ge4Ru4
_cell_volume  220.24758697942025
_cell_formula_units_Z  2
loop_
  _symmetry_equiv_pos_site_id
 _symmetry_equiv_pos_as_xyz
 1  'x, y, z'
loop_
 _atom_site_type_symbol
 _atom_site_label
 _atom_site_symmetry_multiplicity
 _atom_site_fract_x
 _atom_site_fract_y
 _atom_site_fract_z
 _atom_site_fract_occupancy
 Ba  Ba1  1  0.87500  0.12500  0.25000  1
 Ba  Ba2  1  0.12500  0.87500  0.75000  1
 Ge  Ge1  1  0.19785  0.80215  0.25000  1
 Ge  Ge2  1  0.55215  0.44785  0.25000  1
 Ge  Ge3  1  0.80215  0.19785  0.75000  1
 Ge  Ge4  1  0.44785  0.55215  0.75000  1
 Ru  Ru1  1  0.25202  0.50202  0.00404  1
 Ru  Ru2  1  0.49798  0.74798  0.49596  1
 Ru  Ru3  1  0.50202  0.25202  0.50404  1
 Ru  Ru4  1  0.74798  0.49798  0.99596  1
