CIF file written using JARVIS-Tools package.
data_MgTi
_symmetry_space_group_name_H-M  'C2/m'
_cell_length_a       12.1638
_cell_length_b       3.03133
_cell_length_c       5.22772
_cell_angle_alpha    90
_cell_angle_beta     127.953
_cell_angle_gamma    90

_symmetry_Int_Tables_number  12
_chemical_formula_structural  MgTi
_chemical_formula_sum  Mg4Ti4
_cell_volume  151.99359778159635
_cell_formula_units_Z  4
loop_
  _symmetry_equiv_pos_site_id
 _symmetry_equiv_pos_as_xyz
 1  'x, y, z'
loop_
 _atom_site_type_symbol
 _atom_site_label
 _atom_site_symmetry_multiplicity
 _atom_site_fract_x
 _atom_site_fract_y
 _atom_site_fract_z
 _atom_site_fract_occupancy
 Mg  Mg1  1  0.87751  0.50000  0.66468  1
 Mg  Mg2  1  0.62249  0.00000  0.33532  1
 Mg  Mg3  1  0.37751  0.00000  0.66468  1
 Mg  Mg4  1  0.12249  0.50000  0.33532  1
 Ti  Ti1  1  0.63269  0.50000  0.83276  1
 Ti  Ti2  1  0.86731  0.00000  0.16724  1
 Ti  Ti3  1  0.13269  0.00000  0.83276  1
 Ti  Ti4  1  0.36731  0.50000  0.16724  1
