CIF file written using JARVIS-Tools package.
data_FeO2F
_symmetry_space_group_name_H-M  'C2/c'
_cell_length_a       4.70433
_cell_length_b       4.67393
_cell_length_c       4.70433
_cell_angle_alpha    114.891
_cell_angle_beta     58.3295
_cell_angle_gamma    114.89

_symmetry_Int_Tables_number  15
_chemical_formula_structural  FeO2F
_chemical_formula_sum  Fe2O4F2
_cell_volume  77.13296795517896
_cell_formula_units_Z  2
loop_
  _symmetry_equiv_pos_site_id
 _symmetry_equiv_pos_as_xyz
 1  'x, y, z'
loop_
 _atom_site_type_symbol
 _atom_site_label
 _atom_site_symmetry_multiplicity
 _atom_site_fract_x
 _atom_site_fract_y
 _atom_site_fract_z
 _atom_site_fract_occupancy
 F  F1  1  0.12659  0.25000  0.37341  1
 F  F2  1  0.87341  0.75000  0.62659  1
 Fe  Fe1  1  0.00000  0.00000  0.00000  1
 Fe  Fe2  1  0.50000  0.50000  0.50000  1
 O  O1  1  0.19926  0.69618  0.90382  1
 O  O2  1  0.59618  0.80382  0.30074  1
 O  O3  1  0.40382  0.19618  0.69926  1
 O  O4  1  0.80074  0.30382  0.09618  1
