CIF file written using JARVIS-Tools package.
data_LiTaF6
_symmetry_space_group_name_H-M  'R-3'
_cell_length_a       5.10996
_cell_length_b       5.10996
_cell_length_c       5.45807
_cell_angle_alpha    62.0882
_cell_angle_beta     62.0882
_cell_angle_gamma    59.9999

_symmetry_Int_Tables_number  148
_chemical_formula_structural  LiTaF6
_chemical_formula_sum  LiTaF6
_cell_volume  103.84116253110132
_cell_formula_units_Z  1
loop_
  _symmetry_equiv_pos_site_id
 _symmetry_equiv_pos_as_xyz
 1  'x, y, z'
loop_
 _atom_site_type_symbol
 _atom_site_label
 _atom_site_symmetry_multiplicity
 _atom_site_fract_x
 _atom_site_fract_y
 _atom_site_fract_z
 _atom_site_fract_occupancy
 F  F1  1  0.87831  0.63383  0.24292  1
 F  F2  1  0.63383  0.24495  0.24292  1
 F  F3  1  0.24495  0.87831  0.24292  1
 F  F4  1  0.12169  0.36617  0.75708  1
 F  F5  1  0.36617  0.75505  0.75708  1
 F  F6  1  0.75505  0.12169  0.75708  1
 Li  Li1  1  0.50000  0.50000  0.50000  1
 Ta  Ta1  1  0.00000  0.00000  0.00000  1
