CIF file written using JARVIS-Tools package.
data_AgGeO3
_symmetry_space_group_name_H-M  'Pmma'
_cell_length_a       2.984
_cell_length_b       5.26876
_cell_length_c       7.1287
_cell_angle_alpha    90
_cell_angle_beta     90
_cell_angle_gamma    90

_symmetry_Int_Tables_number  51
_chemical_formula_structural  AgGeO3
_chemical_formula_sum  Ag2Ge2O6
_cell_volume  112.07730482930573
_cell_formula_units_Z  2
loop_
  _symmetry_equiv_pos_site_id
 _symmetry_equiv_pos_as_xyz
 1  'x, y, z'
loop_
 _atom_site_type_symbol
 _atom_site_label
 _atom_site_symmetry_multiplicity
 _atom_site_fract_x
 _atom_site_fract_y
 _atom_site_fract_z
 _atom_site_fract_occupancy
 Ag  Ag1  1  0.50000  0.01926  0.25000  1
 Ag  Ag2  1  0.50000  0.98074  0.75000  1
 Ge  Ge1  1  0.00000  0.50000  0.50000  1
 Ge  Ge2  1  0.00000  0.50000  0.00000  1
 O  O1  1  0.50000  0.25536  0.52746  1
 O  O2  1  0.50000  0.25536  0.97254  1
 O  O3  1  0.00000  0.41004  0.25000  1
 O  O4  1  0.00000  0.58996  0.75000  1
 O  O5  1  0.50000  0.74464  0.47254  1
 O  O6  1  0.50000  0.74464  0.02746  1
