CIF file written using JARVIS-Tools package.
data_V2NiO6
_symmetry_space_group_name_H-M  'P1'
_cell_length_a       5.35181
_cell_length_b       5.35324
_cell_length_c       5.36405
_cell_angle_alpha    54.9575
_cell_angle_beta     55.0063
_cell_angle_gamma    55.0851

_symmetry_Int_Tables_number  1
_chemical_formula_structural  V2NiO6
_chemical_formula_sum  V2NiO6
_cell_volume  96.06670503377045
_cell_formula_units_Z  1
loop_
  _symmetry_equiv_pos_site_id
 _symmetry_equiv_pos_as_xyz
 1  'x, y, z'
loop_
 _atom_site_type_symbol
 _atom_site_label
 _atom_site_symmetry_multiplicity
 _atom_site_fract_x
 _atom_site_fract_y
 _atom_site_fract_z
 _atom_site_fract_occupancy
 Ni  Ni1  1  0.69557  0.69577  0.69587  1
 O  O1  1  0.12401  0.75384  0.40607  1
 O  O2  1  0.40629  0.12367  0.75365  1
 O  O3  1  0.75358  0.40699  0.12343  1
 O  O4  1  0.27121  0.65118  0.87349  1
 O  O5  1  0.65144  0.87249  0.27290  1
 O  O6  1  0.87266  0.27193  0.65193  1
 V  V1  1  -0.00988  0.98894  0.98857  1
 V  V2  1  0.48593  0.48598  0.48409  1
