CIF file written using JARVIS-Tools package.
data_Na2P2PdO7
_symmetry_space_group_name_H-M  'C2/c'
_cell_length_a       5.92857
_cell_length_b       7.89666
_cell_length_c       7.82288
_cell_angle_alpha    111.285
_cell_angle_beta     90
_cell_angle_gamma    112.048

_symmetry_Int_Tables_number  15
_chemical_formula_structural  Na2P2PdO7
_chemical_formula_sum  Na4P4Pd2O4
_cell_volume  312.33601302618905
_cell_formula_units_Z  2
loop_
  _symmetry_equiv_pos_site_id
 _symmetry_equiv_pos_as_xyz
 1  'x, y, z'
loop_
 _atom_site_type_symbol
 _atom_site_label
 _atom_site_symmetry_multiplicity
 _atom_site_fract_x
 _atom_site_fract_y
 _atom_site_fract_z
 _atom_site_fract_occupancy
 Na  Na1  1  0.35431  0.44884  0.80149  1
 Na  Na2  1  0.90548  0.55116  0.69851  1
 Na  Na3  1  0.64569  0.55116  0.19851  1
 Na  Na4  1  0.09452  0.44884  0.30149  1
 O  O1  1  0.66782  0.78853  0.48662  1
 O  O2  1  0.12071  0.78853  0.98662  1
 O  O3  1  0.33218  0.21147  0.51338  1
 O  O4  1  0.07252  0.77443  0.30919  1
 O  O5  1  0.29809  0.22557  0.19081  1
 O  O6  1  0.92748  0.22557  0.69081  1
 O  O7  1  0.70191  0.77443  0.80919  1
 O  O8  1  0.47883  -0.00000  0.25000  1
 O  O9  1  0.52117  0.00000  0.75000  1
 O  O10  1  0.70955  0.37724  0.39232  1
 O  O11  1  0.29045  0.62276  0.60768  1
 O  O12  1  0.33231  0.62276  0.10768  1
 O  O13  1  0.87929  0.21147  0.01338  1
 O  O14  1  0.66769  0.37724  0.89232  1
 P  P1  1  0.45681  0.21221  0.34016  1
 P  P2  1  0.24460  0.78779  0.15984  1
 P  P3  1  0.54319  0.78779  0.65984  1
 P  P4  1  0.75540  0.21221  0.84016  1
 Pd  Pd1  1  0.00000  0.00000  0.50000  1
 Pd  Pd2  1  0.00000  0.00000  0.00000  1
