CIF file written using JARVIS-Tools package.
data_CdIn2Se4
_symmetry_space_group_name_H-M  'I-4'
_cell_length_a       5.92055
_cell_length_b       5.92055
_cell_length_c       7.19457
_cell_angle_alpha    114.297
_cell_angle_beta     114.297
_cell_angle_gamma    90

_symmetry_Int_Tables_number  82
_chemical_formula_structural  CdIn2Se4
_chemical_formula_sum  CdIn2Se4
_cell_volume  205.09790143890288
_cell_formula_units_Z  1
loop_
  _symmetry_equiv_pos_site_id
 _symmetry_equiv_pos_as_xyz
 1  'x, y, z'
loop_
 _atom_site_type_symbol
 _atom_site_label
 _atom_site_symmetry_multiplicity
 _atom_site_fract_x
 _atom_site_fract_y
 _atom_site_fract_z
 _atom_site_fract_occupancy
 Cd  Cd1  1  0.00000  0.00000  0.00000  1
 In  In1  1  0.50000  0.50000  0.00000  1
 In  In2  1  0.25000  0.75000  0.50000  1
 Se  Se1  1  0.86068  0.90880  0.27713  1
 Se  Se2  1  0.63167  0.13932  0.72287  1
 Se  Se3  1  0.09120  0.58355  0.72287  1
 Se  Se4  1  0.41645  0.36833  0.27713  1
