CIF file written using JARVIS-Tools package.
data_Na2PHO4
_symmetry_space_group_name_H-M  'P2_1/c'
_cell_length_a       5.43122
_cell_length_b       6.84805
_cell_length_c       10.9599
_cell_angle_alpha    90
_cell_angle_beta     116.015
_cell_angle_gamma    90

_symmetry_Int_Tables_number  14
_chemical_formula_structural  Na2PHO4
_chemical_formula_sum  Na8P4H4O6
_cell_volume  366.33075945847264
_cell_formula_units_Z  4
loop_
  _symmetry_equiv_pos_site_id
 _symmetry_equiv_pos_as_xyz
 1  'x, y, z'
loop_
 _atom_site_type_symbol
 _atom_site_label
 _atom_site_symmetry_multiplicity
 _atom_site_fract_x
 _atom_site_fract_y
 _atom_site_fract_z
 _atom_site_fract_occupancy
 H  H1  1  0.96086  0.49495  0.73720  1
 H  H2  1  0.03914  0.99495  0.76280  1
 H  H3  1  0.03914  0.50505  0.26280  1
 H  H4  1  0.96086  0.00505  0.23720  1
 Na  Na1  1  0.39043  0.23565  0.39144  1
 Na  Na2  1  0.60957  0.73565  0.10856  1
 Na  Na3  1  -0.00000  0.50000  0.50000  1
 Na  Na4  1  0.39043  0.26435  0.89144  1
 Na  Na5  1  0.00000  0.50000  0.00000  1
 Na  Na6  1  -0.00000  0.00000  0.50000  1
 Na  Na7  1  0.00000  0.00000  0.00000  1
 Na  Na8  1  0.60957  0.76435  0.60856  1
 O  O1  1  0.21568  0.94486  0.84534  1
 O  O2  1  0.35222  0.25599  0.60513  1
 O  O3  1  0.64778  0.75599  0.89487  1
 O  O4  1  0.64778  0.74401  0.39487  1
 O  O5  1  0.35222  0.24401  0.10513  1
 O  O6  1  0.76013  0.24942  0.84529  1
 O  O7  1  0.23987  0.75058  0.15471  1
 O  O8  1  0.76013  0.25058  0.34529  1
 O  O9  1  0.78882  0.07491  0.64693  1
 O  O10  1  0.21118  0.92509  0.35307  1
 O  O11  1  0.78882  0.42509  0.14693  1
 O  O12  1  0.78432  0.05514  0.15466  1
 O  O13  1  0.21568  0.55514  0.34534  1
 O  O14  1  0.23987  0.74942  0.65471  1
 O  O15  1  0.21118  0.57491  0.85307  1
 O  O16  1  0.78432  0.44486  0.65466  1
 P  P1  1  0.66120  0.25195  0.19138  1
 P  P2  1  0.33880  0.75195  0.30862  1
 P  P3  1  0.33880  0.74805  0.80862  1
 P  P4  1  0.66120  0.24805  0.69138  1
