CIF file written using JARVIS-Tools package.
data_LiFeF3
_symmetry_space_group_name_H-M  'C2/c'
_cell_length_a       7.0721
_cell_length_b       7.0721
_cell_length_c       5.41597
_cell_angle_alpha    74.2494
_cell_angle_beta     105.751
_cell_angle_gamma    101.923

_symmetry_Int_Tables_number  15
_chemical_formula_structural  LiFeF3
_chemical_formula_sum  Li4Fe4F2
_cell_volume  248.32168442573717
_cell_formula_units_Z  4
loop_
  _symmetry_equiv_pos_site_id
 _symmetry_equiv_pos_as_xyz
 1  'x, y, z'
loop_
 _atom_site_type_symbol
 _atom_site_label
 _atom_site_symmetry_multiplicity
 _atom_site_fract_x
 _atom_site_fract_y
 _atom_site_fract_z
 _atom_site_fract_occupancy
 F  F1  1  0.57470  0.28754  0.31669  1
 F  F2  1  0.01845  0.79471  0.67122  1
 F  F3  1  0.79471  0.01845  0.82878  1
 F  F4  1  0.13458  0.34093  0.85679  1
 F  F5  1  0.42530  0.71246  0.68331  1
 F  F6  1  0.20529  0.98155  0.17122  1
 F  F7  1  0.28754  0.57470  0.18331  1
 F  F8  1  0.71246  0.42530  0.81669  1
 F  F9  1  0.34093  0.13458  0.64321  1
 F  F10  1  0.98155  0.20529  0.32878  1
 F  F11  1  0.86542  0.65907  0.14321  1
 F  F12  1  0.65907  0.86542  0.35679  1
 Fe  Fe1  1  0.92077  0.92077  0.25000  1
 Fe  Fe2  1  0.28415  0.28415  0.25000  1
 Fe  Fe3  1  0.71585  0.71585  0.75000  1
 Fe  Fe4  1  0.07923  0.07923  0.75000  1
 Li  Li1  1  0.79285  0.38328  0.18239  1
 Li  Li2  1  0.61672  0.20715  0.68239  1
 Li  Li3  1  0.38328  0.79285  0.31761  1
 Li  Li4  1  0.20715  0.61672  0.81761  1
