CIF file written using JARVIS-Tools package.
data_AlW2C
_symmetry_space_group_name_H-M  'P6_3/mmc'
_cell_length_a       2.98553
_cell_length_b       2.98553
_cell_length_c       13.8711
_cell_angle_alpha    90
_cell_angle_beta     90
_cell_angle_gamma    120.001

_symmetry_Int_Tables_number  194
_chemical_formula_structural  AlW2C
_chemical_formula_sum  Al2W4C2
_cell_volume  107.07282815383084
_cell_formula_units_Z  2
loop_
  _symmetry_equiv_pos_site_id
 _symmetry_equiv_pos_as_xyz
 1  'x, y, z'
loop_
 _atom_site_type_symbol
 _atom_site_label
 _atom_site_symmetry_multiplicity
 _atom_site_fract_x
 _atom_site_fract_y
 _atom_site_fract_z
 _atom_site_fract_occupancy
 Al  Al1  1  0.66667  0.33333  0.25000  1
 Al  Al2  1  0.33333  0.66667  0.75000  1
 C  C1  1  0.00000  0.00000  0.50000  1
 C  C2  1  0.00000  0.00000  0.00000  1
 W  W1  1  0.66667  0.33333  0.59243  1
 W  W2  1  0.33333  0.66667  0.40757  1
 W  W3  1  0.33333  0.66667  0.09243  1
 W  W4  1  0.66667  0.33333  0.90757  1
