CIF file written using JARVIS-Tools package.
data_LiBeSi2
_symmetry_space_group_name_H-M  'P4mm'
_cell_length_a       3.35281
_cell_length_b       3.35281
_cell_length_c       4.74286
_cell_angle_alpha    90
_cell_angle_beta     90
_cell_angle_gamma    90

_symmetry_Int_Tables_number  99
_chemical_formula_structural  LiBeSi2
_chemical_formula_sum  LiBeSi2
_cell_volume  53.31601154042823
_cell_formula_units_Z  1
loop_
  _symmetry_equiv_pos_site_id
 _symmetry_equiv_pos_as_xyz
 1  'x, y, z'
loop_
 _atom_site_type_symbol
 _atom_site_label
 _atom_site_symmetry_multiplicity
 _atom_site_fract_x
 _atom_site_fract_y
 _atom_site_fract_z
 _atom_site_fract_occupancy
 Be  Be1  1  0.00000  0.00000  0.48915  1
 Li  Li1  1  0.50000  0.50000  0.74896  1
 Si  Si1  1  0.00000  0.00000  0.00957  1
 Si  Si2  1  0.50000  0.50000  0.25233  1
