CIF file written using JARVIS-Tools package.
data_Na3AsO4
_symmetry_space_group_name_H-M  'Pmn2_1'
_cell_length_a       5.57646
_cell_length_b       6.0863
_cell_length_c       7.06924
_cell_angle_alpha    90
_cell_angle_beta     90
_cell_angle_gamma    90

_symmetry_Int_Tables_number  31
_chemical_formula_structural  Na3AsO4
_chemical_formula_sum  Na6As2O8
_cell_volume  239.92976405514176
_cell_formula_units_Z  2
loop_
  _symmetry_equiv_pos_site_id
 _symmetry_equiv_pos_as_xyz
 1  'x, y, z'
loop_
 _atom_site_type_symbol
 _atom_site_label
 _atom_site_symmetry_multiplicity
 _atom_site_fract_x
 _atom_site_fract_y
 _atom_site_fract_z
 _atom_site_fract_occupancy
 As  As1  1  0.99727  0.17723  0.00000  1
 As  As2  1  0.49727  0.82277  0.50000  1
 Na  Na1  1  0.50893  0.84558  0.00000  1
 Na  Na2  1  0.00658  0.67545  0.24449  1
 Na  Na3  1  0.50658  0.32455  0.25551  1
 Na  Na4  1  0.00893  0.15442  0.50000  1
 Na  Na5  1  0.50658  0.32455  0.74449  1
 Na  Na6  1  0.00658  0.67545  0.75551  1
 O  O1  1  0.09552  0.90818  0.00000  1
 O  O2  1  0.68871  0.18266  0.00000  1
 O  O3  1  0.59806  0.68920  0.29899  1
 O  O4  1  0.09806  0.31080  0.20101  1
 O  O5  1  0.18871  0.81734  0.50000  1
 O  O6  1  0.59552  0.09182  0.50000  1
 O  O7  1  0.09806  0.31080  0.79899  1
 O  O8  1  0.59806  0.68920  0.70101  1
