CIF file written using JARVIS-Tools package.
data_CeTi2O6
_symmetry_space_group_name_H-M  'C2/m'
_cell_length_a       3.77809
_cell_length_b       5.30926
_cell_length_c       6.94477
_cell_angle_alpha    117.343
_cell_angle_beta     89.9876
_cell_angle_gamma    69.1771

_symmetry_Int_Tables_number  12
_chemical_formula_structural  CeTi2O6
_chemical_formula_sum  CeTi2O6
_cell_volume  113.3932027280264
_cell_formula_units_Z  1
loop_
  _symmetry_equiv_pos_site_id
 _symmetry_equiv_pos_as_xyz
 1  'x, y, z'
loop_
 _atom_site_type_symbol
 _atom_site_label
 _atom_site_symmetry_multiplicity
 _atom_site_fract_x
 _atom_site_fract_y
 _atom_site_fract_z
 _atom_site_fract_occupancy
 Ce  Ce1  1  0.00000  0.00000  0.00000  1
 O  O1  1  0.02336  0.95313  0.30736  1
 O  O2  1  0.97664  0.04687  0.69264  1
 O  O3  1  0.34885  0.30243  0.09823  1
 O  O4  1  0.65115  0.69757  0.90177  1
 O  O5  1  0.72250  0.55509  0.40188  1
 O  O6  1  0.27750  0.44491  0.59812  1
 Ti  Ti1  1  0.17762  0.64487  0.38736  1
 Ti  Ti2  1  0.82238  0.35513  0.61264  1
