CIF file written using JARVIS-Tools package.
data_Mn3OF5
_symmetry_space_group_name_H-M  'Pmn2_1'
_cell_length_a       3.20912
_cell_length_b       4.83955
_cell_length_c       14.485
_cell_angle_alpha    90
_cell_angle_beta     90
_cell_angle_gamma    90

_symmetry_Int_Tables_number  31
_chemical_formula_structural  Mn3OF5
_chemical_formula_sum  Mn6O2F0
_cell_volume  224.96131961852643
_cell_formula_units_Z  2
loop_
  _symmetry_equiv_pos_site_id
 _symmetry_equiv_pos_as_xyz
 1  'x, y, z'
loop_
 _atom_site_type_symbol
 _atom_site_label
 _atom_site_symmetry_multiplicity
 _atom_site_fract_x
 _atom_site_fract_y
 _atom_site_fract_z
 _atom_site_fract_occupancy
 F  F1  1  0.50000  0.56010  0.06529  1
 F  F2  1  0.50000  0.51428  0.40286  1
 F  F3  1  0.50000  0.96753  0.93434  1
 F  F4  1  0.00000  0.07588  0.77046  1
 F  F5  1  0.50000  0.92412  0.27046  1
 F  F6  1  0.00000  0.41643  0.22979  1
 F  F7  1  0.00000  0.43990  0.56529  1
 F  F8  1  0.00000  0.48572  0.90286  1
 F  F9  1  0.50000  0.58357  0.72979  1
 F  F10  1  0.00000  0.03247  0.43434  1
 Mn  Mn1  1  0.50000  0.28091  0.83297  1
 Mn  Mn2  1  0.50000  0.22273  0.50649  1
 Mn  Mn3  1  0.50000  0.21162  0.15694  1
 Mn  Mn4  1  0.00000  0.78838  0.65694  1
 Mn  Mn5  1  0.00000  0.71909  0.33297  1
 Mn  Mn6  1  0.00000  0.77727  0.00649  1
 O  O1  1  0.00000  0.05051  0.10085  1
 O  O2  1  0.50000  0.94949  0.60085  1
