CIF file written using JARVIS-Tools package.
data_Mn3OF5
_symmetry_space_group_name_H-M  'P2/m'
_cell_length_a       4.84561
_cell_length_b       3.20223
_cell_length_c       14.4963
_cell_angle_alpha    90
_cell_angle_beta     92.5299
_cell_angle_gamma    90

_symmetry_Int_Tables_number  10
_chemical_formula_structural  Mn3OF5
_chemical_formula_sum  Mn6O2F0
_cell_volume  224.71705994087557
_cell_formula_units_Z  2
loop_
  _symmetry_equiv_pos_site_id
 _symmetry_equiv_pos_as_xyz
 1  'x, y, z'
loop_
 _atom_site_type_symbol
 _atom_site_label
 _atom_site_symmetry_multiplicity
 _atom_site_fract_x
 _atom_site_fract_y
 _atom_site_fract_z
 _atom_site_fract_occupancy
 F  F1  1  0.20635  0.50000  0.93826  1
 F  F2  1  0.19271  0.50000  0.59768  1
 F  F3  1  0.80729  0.50000  0.40232  1
 F  F4  1  0.79365  0.50000  0.06174  1
 F  F5  1  0.80740  0.50000  0.73096  1
 F  F6  1  0.70560  0.00000  0.57008  1
 F  F7  1  0.29440  0.00000  0.42992  1
 F  F8  1  0.30771  0.00000  0.10663  1
 F  F9  1  0.19260  0.50000  0.26904  1
 F  F10  1  0.69229  0.00000  0.89337  1
 Mn  Mn1  1  0.52711  0.50000  0.17607  1
 Mn  Mn2  1  0.50000  0.50000  0.50000  1
 Mn  Mn3  1  0.47289  0.50000  0.82393  1
 Mn  Mn4  1  0.98302  0.00000  0.32677  1
 Mn  Mn5  1  0.01698  0.00000  0.67323  1
 Mn  Mn6  1  0.00000  0.00000  0.00000  1
 O  O1  1  0.30435  0.00000  0.76726  1
 O  O2  1  0.69565  0.00000  0.23274  1
