CIF file written using JARVIS-Tools package.
data_RbTaO3
_symmetry_space_group_name_H-M  'C2/m'
_cell_length_a       6.46571
_cell_length_b       6.46571
_cell_length_c       8.16948
_cell_angle_alpha    85.9433
_cell_angle_beta     85.9433
_cell_angle_gamma    82.9413

_symmetry_Int_Tables_number  12
_chemical_formula_structural  RbTaO3
_chemical_formula_sum  Rb4Ta4O2
_cell_volume  337.4261210607341
_cell_formula_units_Z  4
loop_
  _symmetry_equiv_pos_site_id
 _symmetry_equiv_pos_as_xyz
 1  'x, y, z'
loop_
 _atom_site_type_symbol
 _atom_site_label
 _atom_site_symmetry_multiplicity
 _atom_site_fract_x
 _atom_site_fract_y
 _atom_site_fract_z
 _atom_site_fract_occupancy
 O  O1  1  0.71116  0.04686  0.21302  1
 O  O2  1  0.87771  0.87771  0.94717  1
 O  O3  1  0.77291  0.45318  0.10376  1
 O  O4  1  0.54682  0.22709  0.89624  1
 O  O5  1  0.22709  0.54682  0.89624  1
 O  O6  1  0.45318  0.77291  0.10376  1
 O  O7  1  0.33306  0.33306  0.58618  1
 O  O8  1  0.66694  0.66694  0.41382  1
 O  O9  1  0.12229  0.12229  0.05283  1
 O  O10  1  0.04686  0.71116  0.21302  1
 O  O11  1  0.95314  0.28884  0.78698  1
 O  O12  1  0.28884  0.95314  0.78698  1
 Rb  Rb1  1  0.66390  0.66390  0.76098  1
 Rb  Rb2  1  0.33610  0.33610  0.23902  1
 Rb  Rb3  1  0.23131  0.76869  0.50000  1
 Rb  Rb4  1  0.76869  0.23131  0.50000  1
 Ta  Ta1  1  0.73852  0.73852  0.19817  1
 Ta  Ta2  1  0.18947  0.81053  0.00000  1
 Ta  Ta3  1  0.81053  0.18947  -0.00000  1
 Ta  Ta4  1  0.26148  0.26148  0.80183  1
