CIF file written using JARVIS-Tools package.
data_SnI2
_symmetry_space_group_name_H-M  'C2/m'
_cell_length_a       4.47376
_cell_length_b       7.48958
_cell_length_c       11.012
_cell_angle_alpha    92.3018
_cell_angle_beta     90
_cell_angle_gamma    107.377

_symmetry_Int_Tables_number  12
_chemical_formula_structural  SnI2
_chemical_formula_sum  Sn3I6
_cell_volume  351.82074797554617
_cell_formula_units_Z  3
loop_
  _symmetry_equiv_pos_site_id
 _symmetry_equiv_pos_as_xyz
 1  'x, y, z'
loop_
 _atom_site_type_symbol
 _atom_site_label
 _atom_site_symmetry_multiplicity
 _atom_site_fract_x
 _atom_site_fract_y
 _atom_site_fract_z
 _atom_site_fract_occupancy
 I  I1  1  0.07835  0.15671  0.73080  1
 I  I2  1  0.92165  0.84329  0.26920  1
 I  I3  1  0.36177  0.72354  0.56160  1
 I  I4  1  0.63823  0.27646  0.43840  1
 I  I5  1  0.35125  0.70250  0.92187  1
 I  I6  1  0.64875  0.29750  0.07813  1
 Sn  Sn1  1  0.00000  0.00000  0.00000  1
 Sn  Sn2  1  0.26554  0.53108  0.30745  1
 Sn  Sn3  1  0.73446  0.46892  0.69255  1
