CIF file written using JARVIS-Tools package.
data_BeSi2Ni
_symmetry_space_group_name_H-M  'P4mm'
_cell_length_a       2.60752
_cell_length_b       2.60752
_cell_length_c       7.01344
_cell_angle_alpha    90
_cell_angle_beta     90
_cell_angle_gamma    90

_symmetry_Int_Tables_number  99
_chemical_formula_structural  BeSi2Ni
_chemical_formula_sum  BeSi2Ni
_cell_volume  47.68567022285722
_cell_formula_units_Z  1
loop_
  _symmetry_equiv_pos_site_id
 _symmetry_equiv_pos_as_xyz
 1  'x, y, z'
loop_
 _atom_site_type_symbol
 _atom_site_label
 _atom_site_symmetry_multiplicity
 _atom_site_fract_x
 _atom_site_fract_y
 _atom_site_fract_z
 _atom_site_fract_occupancy
 Be  Be1  1  0.00000  0.00000  0.53130  1
 Ni  Ni1  1  0.50000  0.50000  0.72610  1
 Si  Si1  1  0.00000  0.00000  0.95245  1
 Si  Si2  1  0.50000  0.50000  0.29015  1
