CIF file written using JARVIS-Tools package.
data_SrMg6Mo
_symmetry_space_group_name_H-M  'P4/mmm'
_cell_length_a       6.61279
_cell_length_b       9.35136
_cell_length_c       4.26899
_cell_angle_alpha    90
_cell_angle_beta     90
_cell_angle_gamma    134.997

_symmetry_Int_Tables_number  123
_chemical_formula_structural  SrMg6Mo
_chemical_formula_sum  SrMg6Mo
_cell_volume  186.67843233436903
_cell_formula_units_Z  1
loop_
  _symmetry_equiv_pos_site_id
 _symmetry_equiv_pos_as_xyz
 1  'x, y, z'
loop_
 _atom_site_type_symbol
 _atom_site_label
 _atom_site_symmetry_multiplicity
 _atom_site_fract_x
 _atom_site_fract_y
 _atom_site_fract_z
 _atom_site_fract_occupancy
 Mg  Mg1  1  0.75008  0.37511  0.25000  1
 Mg  Mg2  1  0.75008  0.87497  0.25000  1
 Mg  Mg3  1  0.25002  0.09149  0.75000  1
 Mg  Mg4  1  0.25002  0.65853  0.75000  1
 Mg  Mg5  1  0.68288  0.09144  0.75000  1
 Mg  Mg6  1  0.81705  0.65852  0.75000  1
 Mo  Mo1  1  0.24993  0.87496  0.25000  1
 Sr  Sr1  1  0.24993  0.37496  0.25000  1
