CIF file written using JARVIS-Tools package.
data_LiZnO2
_symmetry_space_group_name_H-M  'I4_1/amd'
_cell_length_a       5.16512
_cell_length_b       5.16512
_cell_length_c       5.16512
_cell_angle_alpha    132.49
_cell_angle_beta     132.49
_cell_angle_gamma    69.4559

_symmetry_Int_Tables_number  141
_chemical_formula_structural  LiZnO2
_chemical_formula_sum  Li2Zn2O4
_cell_volume  73.508516768354
_cell_formula_units_Z  2
loop_
  _symmetry_equiv_pos_site_id
 _symmetry_equiv_pos_as_xyz
 1  'x, y, z'
loop_
 _atom_site_type_symbol
 _atom_site_label
 _atom_site_symmetry_multiplicity
 _atom_site_fract_x
 _atom_site_fract_y
 _atom_site_fract_z
 _atom_site_fract_occupancy
 Li  Li1  1  0.00000  0.00000  0.00000  1
 Li  Li2  1  0.75000  0.25000  0.50000  1
 O  O1  1  0.48510  0.98510  0.50000  1
 O  O2  1  0.26490  0.26490  0.00000  1
 O  O3  1  0.73510  0.73510  0.00000  1
 O  O4  1  0.01490  0.51490  0.50000  1
 Zn  Zn1  1  0.50000  0.50000  0.00000  1
 Zn  Zn2  1  0.25000  0.75000  0.50000  1
