CIF file written using JARVIS-Tools package.
data_BeGaP
_symmetry_space_group_name_H-M  'I4mm'
_cell_length_a       6.06194
_cell_length_b       6.06194
_cell_length_c       6.06194
_cell_angle_alpha    153.127
_cell_angle_beta     153.127
_cell_angle_gamma    38.3704

_symmetry_Int_Tables_number  107
_chemical_formula_structural  BeGaP
_chemical_formula_sum  BeGaP
_cell_volume  45.44058918653938
_cell_formula_units_Z  1
loop_
  _symmetry_equiv_pos_site_id
 _symmetry_equiv_pos_as_xyz
 1  'x, y, z'
loop_
 _atom_site_type_symbol
 _atom_site_label
 _atom_site_symmetry_multiplicity
 _atom_site_fract_x
 _atom_site_fract_y
 _atom_site_fract_z
 _atom_site_fract_occupancy
 Be  Be1  1  0.01953  0.01953  0.00000  1
 Ga  Ga1  1  0.35708  0.35708  0.00000  1
 P  P1  1  0.62339  0.62339  -0.00000  1
