CIF file written using JARVIS-Tools package.
data_Lu2Si2O7
_symmetry_space_group_name_H-M  'P4_12_12'
_cell_length_a       6.56027
_cell_length_b       6.56027
_cell_length_c       11.972
_cell_angle_alpha    90
_cell_angle_beta     90
_cell_angle_gamma    90

_symmetry_Int_Tables_number  92
_chemical_formula_structural  Lu2Si2O7
_chemical_formula_sum  Lu8Si8O28
_cell_volume  515.2391421629567
_cell_formula_units_Z  4
loop_
  _symmetry_equiv_pos_site_id
 _symmetry_equiv_pos_as_xyz
 1  'x, y, z'
loop_
 _atom_site_type_symbol
 _atom_site_label
 _atom_site_symmetry_multiplicity
 _atom_site_fract_x
 _atom_site_fract_y
 _atom_site_fract_z
 _atom_site_fract_occupancy
 Lu  Lu1  1  0.87457  0.35331  0.13456  1
 Lu  Lu2  1  0.64669  0.12543  0.36544  1
 Lu  Lu3  1  0.35331  0.87457  0.86544  1
 Lu  Lu4  1  0.12543  0.64669  0.63456  1
 Lu  Lu5  1  0.14669  0.37457  0.38456  1
 Lu  Lu6  1  0.37457  0.14669  0.61544  1
 Lu  Lu7  1  0.85331  0.62543  0.88456  1
 Lu  Lu8  1  0.62543  0.85331  0.11544  1
 O  O1  1  0.19115  0.36119  0.20272  1
 O  O2  1  0.63881  0.80885  0.29728  1
 O  O3  1  0.36119  0.19115  0.79728  1
 O  O4  1  0.69115  0.13881  0.54728  1
 O  O5  1  0.66438  0.94475  0.92704  1
 O  O6  1  0.06970  0.96975  0.62482  1
 O  O7  1  0.33562  0.05525  0.42704  1
 O  O8  1  0.16438  0.55525  0.82296  1
 O  O9  1  0.55525  0.16438  0.17704  1
 O  O10  1  0.83562  0.44475  0.32296  1
 O  O11  1  0.80885  0.63881  0.70272  1
 O  O12  1  0.05525  0.33562  0.57296  1
 O  O13  1  0.81363  0.18637  0.75000  1
 O  O14  1  0.31363  0.31363  0.00000  1
 O  O15  1  0.68637  0.68637  0.50000  1
 O  O16  1  0.44475  0.83562  0.67704  1
 O  O17  1  0.30885  0.86119  0.04728  1
 O  O18  1  0.46975  0.43030  0.37482  1
 O  O19  1  0.18637  0.81363  0.25000  1
 O  O20  1  0.13881  0.69115  0.45272  1
 O  O21  1  0.03025  0.93030  0.87518  1
 O  O22  1  0.96975  0.06970  0.37518  1
 O  O23  1  0.93030  0.03025  0.12482  1
 O  O24  1  0.53025  0.56970  0.87482  1
 O  O25  1  0.56970  0.53025  0.12518  1
 O  O26  1  0.94475  0.66438  0.07296  1
 O  O27  1  0.86119  0.30885  0.95272  1
 O  O28  1  0.43030  0.46975  0.62518  1
 Si  Si1  1  0.90050  0.15234  0.62127  1
 Si  Si2  1  0.34766  0.40050  0.87127  1
 Si  Si3  1  0.65234  0.59950  0.37127  1
 Si  Si4  1  0.15234  0.90050  0.37873  1
 Si  Si5  1  0.59950  0.65234  0.62873  1
 Si  Si6  1  0.09950  0.84766  0.12127  1
 Si  Si7  1  0.84766  0.09950  0.87873  1
 Si  Si8  1  0.40050  0.34766  0.12873  1
