CIF file written using JARVIS-Tools package.
data_HfGeRu
_symmetry_space_group_name_H-M  'P-62m'
_cell_length_a       3.74995
_cell_length_b       6.74432
_cell_length_c       6.74429
_cell_angle_alpha    120
_cell_angle_beta     90
_cell_angle_gamma    90

_symmetry_Int_Tables_number  189
_chemical_formula_structural  HfGeRu
_chemical_formula_sum  Hf3Ge3Ru3
_cell_volume  147.71667423402573
_cell_formula_units_Z  3
loop_
  _symmetry_equiv_pos_site_id
 _symmetry_equiv_pos_as_xyz
 1  'x, y, z'
loop_
 _atom_site_type_symbol
 _atom_site_label
 _atom_site_symmetry_multiplicity
 _atom_site_fract_x
 _atom_site_fract_y
 _atom_site_fract_z
 _atom_site_fract_occupancy
 Ge  Ge1  1  0.00000  0.33332  0.66667  1
 Ge  Ge2  1  0.00000  0.66665  0.33333  1
 Ge  Ge3  1  0.50000  -0.00000  -0.00000  1
 Hf  Hf1  1  0.50000  0.58466  -0.00000  1
 Hf  Hf2  1  0.50000  0.41532  0.41534  1
 Hf  Hf3  1  0.50000  -0.00002  0.58466  1
 Ru  Ru1  1  0.00000  0.24679  -0.00000  1
 Ru  Ru2  1  0.00000  0.75319  0.75320  1
 Ru  Ru3  1  0.00000  0.99999  0.24680  1
