CIF file written using JARVIS-Tools package.
data_SrIn
_symmetry_space_group_name_H-M  'Fdd2'
_cell_length_a       6.58598
_cell_length_b       6.58596
_cell_length_c       13.5257
_cell_angle_alpha    101.434
_cell_angle_beta     101.436
_cell_angle_gamma    100.677

_symmetry_Int_Tables_number  43
_chemical_formula_structural  SrIn
_chemical_formula_sum  Sr8In8
_cell_volume  547.9979811139671
_cell_formula_units_Z  8
loop_
  _symmetry_equiv_pos_site_id
 _symmetry_equiv_pos_as_xyz
 1  'x, y, z'
loop_
 _atom_site_type_symbol
 _atom_site_label
 _atom_site_symmetry_multiplicity
 _atom_site_fract_x
 _atom_site_fract_y
 _atom_site_fract_z
 _atom_site_fract_occupancy
 In  In1  1  0.86313  0.62276  0.42352  1
 In  In2  1  0.29072  0.04348  0.92733  1
 In  In3  1  0.11627  0.36453  0.07398  1
 In  In4  1  0.19932  0.44051  0.57774  1
 In  In5  1  0.69035  0.95012  0.07777  1
 In  In6  1  0.87256  0.61385  0.92347  1
 In  In7  1  0.61375  0.86645  0.57401  1
 In  In8  1  0.29261  0.04077  0.42730  1
 Sr  Sr1  1  0.71527  0.42300  0.64151  1
 Sr  Sr2  1  0.20580  0.91736  0.15277  1
 Sr  Sr3  1  0.78165  0.07490  0.35974  1
 Sr  Sr4  1  0.30365  0.51501  0.34851  1
 Sr  Sr5  1  0.32470  0.53243  0.85968  1
 Sr  Sr6  1  0.76484  0.05437  0.84854  1
 Sr  Sr7  1  0.16669  0.95603  0.65282  1
 Sr  Sr8  1  0.67280  0.46604  0.14155  1
