CIF file written using JARVIS-Tools package.
data_EuSb2
_symmetry_space_group_name_H-M  'P2_1/m'
_cell_length_a       4.42967
_cell_length_b       4.40437
_cell_length_c       8.84841
_cell_angle_alpha    104.479
_cell_angle_beta     90
_cell_angle_gamma    90

_symmetry_Int_Tables_number  11
_chemical_formula_structural  EuSb2
_chemical_formula_sum  Eu2Sb4
_cell_volume  167.14847067349876
_cell_formula_units_Z  2
loop_
  _symmetry_equiv_pos_site_id
 _symmetry_equiv_pos_as_xyz
 1  'x, y, z'
loop_
 _atom_site_type_symbol
 _atom_site_label
 _atom_site_symmetry_multiplicity
 _atom_site_fract_x
 _atom_site_fract_y
 _atom_site_fract_z
 _atom_site_fract_occupancy
 Eu  Eu1  1  0.25000  0.39551  0.28901  1
 Eu  Eu2  1  0.75000  0.60449  0.71099  1
 Sb  Sb1  1  0.25000  0.06602  0.63465  1
 Sb  Sb2  1  0.75000  0.93398  0.36535  1
 Sb  Sb3  1  0.75000  0.25008  0.00023  1
 Sb  Sb4  1  0.25000  0.74992  -0.00023  1
