CIF file written using JARVIS-Tools package.
data_NaBeBi
_symmetry_space_group_name_H-M  'I4mm'
_cell_length_a       6.02666
_cell_length_b       6.02666
_cell_length_c       6.02666
_cell_angle_alpha    143.224
_cell_angle_beta     143.224
_cell_angle_gamma    52.9895

_symmetry_Int_Tables_number  107
_chemical_formula_structural  NaBeBi
_chemical_formula_sum  NaBeBi
_cell_volume  77.97668175364765
_cell_formula_units_Z  1
loop_
  _symmetry_equiv_pos_site_id
 _symmetry_equiv_pos_as_xyz
 1  'x, y, z'
loop_
 _atom_site_type_symbol
 _atom_site_label
 _atom_site_symmetry_multiplicity
 _atom_site_fract_x
 _atom_site_fract_y
 _atom_site_fract_z
 _atom_site_fract_occupancy
 Be  Be1  1  0.93726  0.93726  -0.00000  1
 Bi  Bi1  1  0.38854  0.38854  -0.00000  1
 Na  Na1  1  0.67421  0.67421  -0.00000  1
