CIF file written using JARVIS-Tools package.
data_Ni3Sn
_symmetry_space_group_name_H-M  'Pmmn'
_cell_length_a       4.28056
_cell_length_b       4.55054
_cell_length_c       5.3497
_cell_angle_alpha    90
_cell_angle_beta     90
_cell_angle_gamma    90

_symmetry_Int_Tables_number  59
_chemical_formula_structural  Ni3Sn
_chemical_formula_sum  Ni6Sn2
_cell_volume  104.20608422026962
_cell_formula_units_Z  2
loop_
  _symmetry_equiv_pos_site_id
 _symmetry_equiv_pos_as_xyz
 1  'x, y, z'
loop_
 _atom_site_type_symbol
 _atom_site_label
 _atom_site_symmetry_multiplicity
 _atom_site_fract_x
 _atom_site_fract_y
 _atom_site_fract_z
 _atom_site_fract_occupancy
 Ni  Ni1  1  0.75000  0.83070  0.99810  1
 Ni  Ni2  1  0.75000  0.83070  0.50190  1
 Ni  Ni3  1  0.25000  0.16930  0.00190  1
 Ni  Ni4  1  0.25000  0.16930  0.49810  1
 Ni  Ni5  1  0.25000  0.69552  0.75000  1
 Ni  Ni6  1  0.75000  0.30448  0.25000  1
 Sn  Sn1  1  0.75000  0.32899  0.75000  1
 Sn  Sn2  1  0.25000  0.67101  0.25000  1
