CIF file written using JARVIS-Tools package.
data_LuNiGe2
_symmetry_space_group_name_H-M  'Cmcm'
_cell_length_a       4.16451
_cell_length_b       3.94121
_cell_length_c       8.69472
_cell_angle_alpha    103.1
_cell_angle_beta     90
_cell_angle_gamma    90

_symmetry_Int_Tables_number  63
_chemical_formula_structural  LuNiGe2
_chemical_formula_sum  Lu2Ni2Ge4
_cell_volume  138.99439271913187
_cell_formula_units_Z  2
loop_
  _symmetry_equiv_pos_site_id
 _symmetry_equiv_pos_as_xyz
 1  'x, y, z'
loop_
 _atom_site_type_symbol
 _atom_site_label
 _atom_site_symmetry_multiplicity
 _atom_site_fract_x
 _atom_site_fract_y
 _atom_site_fract_z
 _atom_site_fract_occupancy
 Ge  Ge1  1  0.75000  0.46038  0.92075  1
 Ge  Ge2  1  0.25000  0.53962  0.07925  1
 Ge  Ge3  1  0.75000  0.74650  0.49300  1
 Ge  Ge4  1  0.25000  0.25350  0.50700  1
 Lu  Lu1  1  0.75000  0.10733  0.21466  1
 Lu  Lu2  1  0.25000  0.89267  0.78534  1
 Ni  Ni1  1  0.75000  0.32610  0.65219  1
 Ni  Ni2  1  0.25000  0.67390  0.34781  1
