CIF file written using JARVIS-Tools package.
data_BeCoBr
_symmetry_space_group_name_H-M  'I4mm'
_cell_length_a       5.09948
_cell_length_b       5.09948
_cell_length_c       5.09948
_cell_angle_alpha    144.327
_cell_angle_beta     144.327
_cell_angle_gamma    51.3386

_symmetry_Int_Tables_number  107
_chemical_formula_structural  BeCoBr
_chemical_formula_sum  BeCoBr
_cell_volume  44.85506129532941
_cell_formula_units_Z  1
loop_
  _symmetry_equiv_pos_site_id
 _symmetry_equiv_pos_as_xyz
 1  'x, y, z'
loop_
 _atom_site_type_symbol
 _atom_site_label
 _atom_site_symmetry_multiplicity
 _atom_site_fract_x
 _atom_site_fract_y
 _atom_site_fract_z
 _atom_site_fract_occupancy
 Be  Be1  1  0.04860  0.04860  -0.00000  1
 Br  Br1  1  0.34433  0.34433  -0.00000  1
 Co  Co1  1  0.60707  0.60707  -0.00000  1
