CIF file written using JARVIS-Tools package.
data_TbH3
_symmetry_space_group_name_H-M  'P6_3/mmc'
_cell_length_a       3.69469
_cell_length_b       3.69469
_cell_length_c       6.64998
_cell_angle_alpha    90
_cell_angle_beta     90
_cell_angle_gamma    120.004

_symmetry_Int_Tables_number  194
_chemical_formula_structural  TbH3
_chemical_formula_sum  Tb2H6
_cell_volume  78.61198870432273
_cell_formula_units_Z  2
loop_
  _symmetry_equiv_pos_site_id
 _symmetry_equiv_pos_as_xyz
 1  'x, y, z'
loop_
 _atom_site_type_symbol
 _atom_site_label
 _atom_site_symmetry_multiplicity
 _atom_site_fract_x
 _atom_site_fract_y
 _atom_site_fract_z
 _atom_site_fract_occupancy
 H  H1  1  -0.00000  0.00000  0.75000  1
 H  H2  1  0.00000  -0.00000  0.25000  1
 H  H3  1  0.66667  0.33333  0.40773  1
 H  H4  1  0.33333  0.66667  0.59227  1
 H  H5  1  0.33333  0.66667  0.90773  1
 H  H6  1  0.66667  0.33333  0.09227  1
 Tb  Tb1  1  0.66666  0.33334  0.75000  1
 Tb  Tb2  1  0.33334  0.66666  0.25000  1
