CIF file written using JARVIS-Tools package.
data_Na2MgPb
_symmetry_space_group_name_H-M  'P6_3/mmc'
_cell_length_a       5.12105
_cell_length_b       5.12105
_cell_length_c       10.1163
_cell_angle_alpha    90
_cell_angle_beta     90
_cell_angle_gamma    119.998

_symmetry_Int_Tables_number  194
_chemical_formula_structural  Na2MgPb
_chemical_formula_sum  Na4Mg2Pb2
_cell_volume  229.7624825071453
_cell_formula_units_Z  2
loop_
  _symmetry_equiv_pos_site_id
 _symmetry_equiv_pos_as_xyz
 1  'x, y, z'
loop_
 _atom_site_type_symbol
 _atom_site_label
 _atom_site_symmetry_multiplicity
 _atom_site_fract_x
 _atom_site_fract_y
 _atom_site_fract_z
 _atom_site_fract_occupancy
 Mg  Mg1  1  -0.00001  0.00001  0.75000  1
 Mg  Mg2  1  0.00001  -0.00001  0.25000  1
 Na  Na1  1  0.66667  0.33333  0.07890  1
 Na  Na2  1  0.33333  0.66667  0.92110  1
 Na  Na3  1  0.33333  0.66667  0.57890  1
 Na  Na4  1  0.66667  0.33333  0.42110  1
 Pb  Pb1  1  0.66665  0.33335  0.75000  1
 Pb  Pb2  1  0.33335  0.66665  0.25000  1
