CIF file written using JARVIS-Tools package.
data_CaBeSb
_symmetry_space_group_name_H-M  'I4mm'
_cell_length_a       5.85325
_cell_length_b       5.85325
_cell_length_c       5.85325
_cell_angle_alpha    144.148
_cell_angle_beta     144.148
_cell_angle_gamma    51.6063

_symmetry_Int_Tables_number  107
_chemical_formula_structural  CaBeSb
_chemical_formula_sum  CaBeSb
_cell_volume  68.41361701239893
_cell_formula_units_Z  1
loop_
  _symmetry_equiv_pos_site_id
 _symmetry_equiv_pos_as_xyz
 1  'x, y, z'
loop_
 _atom_site_type_symbol
 _atom_site_label
 _atom_site_symmetry_multiplicity
 _atom_site_fract_x
 _atom_site_fract_y
 _atom_site_fract_z
 _atom_site_fract_occupancy
 Be  Be1  1  0.03838  0.03838  0.00000  1
 Ca  Ca1  1  0.33442  0.33442  0.00000  1
 Sb  Sb1  1  0.62720  0.62720  0.00000  1
