CIF file written using JARVIS-Tools package.
data_ErCd2Cu
_symmetry_space_group_name_H-M  'Cmcm'
_cell_length_a       4.59445
_cell_length_b       6.28258
_cell_length_c       6.28257
_cell_angle_alpha    113.012
_cell_angle_beta     90
_cell_angle_gamma    90

_symmetry_Int_Tables_number  63
_chemical_formula_structural  ErCd2Cu
_chemical_formula_sum  Er2Cd4Cu2
_cell_volume  166.91578469007547
_cell_formula_units_Z  2
loop_
  _symmetry_equiv_pos_site_id
 _symmetry_equiv_pos_as_xyz
 1  'x, y, z'
loop_
 _atom_site_type_symbol
 _atom_site_label
 _atom_site_symmetry_multiplicity
 _atom_site_fract_x
 _atom_site_fract_y
 _atom_site_fract_z
 _atom_site_fract_occupancy
 Cd  Cd1  1  0.75000  0.19493  0.38623  1
 Cd  Cd2  1  0.25000  0.80507  0.61377  1
 Cd  Cd3  1  0.75000  0.61377  0.80507  1
 Cd  Cd4  1  0.25000  0.38623  0.19493  1
 Cu  Cu1  1  0.75000  0.67999  0.32001  1
 Cu  Cu2  1  0.25000  0.32001  0.67999  1
 Er  Er1  1  0.25000  0.85932  0.14068  1
 Er  Er2  1  0.75000  0.14068  0.85932  1
