CIF file written using JARVIS-Tools package.
data_Ce2O3
_symmetry_space_group_name_H-M  'C2/m'
_cell_length_a       3.69685
_cell_length_b       7.39206
_cell_length_c       8.9617
_cell_angle_alpha    99.5675
_cell_angle_beta     90
_cell_angle_gamma    104.481

_symmetry_Int_Tables_number  12
_chemical_formula_structural  Ce2O3
_chemical_formula_sum  Ce6O9
_cell_volume  233.5994997278851
_cell_formula_units_Z  3
loop_
  _symmetry_equiv_pos_site_id
 _symmetry_equiv_pos_as_xyz
 1  'x, y, z'
loop_
 _atom_site_type_symbol
 _atom_site_label
 _atom_site_symmetry_multiplicity
 _atom_site_fract_x
 _atom_site_fract_y
 _atom_site_fract_z
 _atom_site_fract_occupancy
 Ce  Ce1  1  0.36641  0.73283  0.51146  1
 Ce  Ce2  1  0.31214  0.62427  0.86107  1
 Ce  Ce3  1  0.63359  0.26717  0.48854  1
 Ce  Ce4  1  0.03435  0.06869  0.81342  1
 Ce  Ce5  1  0.96565  0.93131  0.18658  1
 Ce  Ce6  1  0.68786  0.37573  0.13893  1
 O  O1  1  0.79668  0.59335  0.37299  1
 O  O2  1  0.12802  0.25604  0.28535  1
 O  O3  1  0.52737  0.05475  0.65750  1
 O  O4  1  0.20332  0.40665  0.62701  1
 O  O5  1  0.17671  0.35343  0.97215  1
 O  O6  1  0.82329  0.64657  0.02785  1
 O  O7  1  0.47263  0.94525  0.34250  1
 O  O8  1  0.50000  0.00000  0.00000  1
 O  O9  1  0.87198  0.74396  0.71465  1
