CIF file written using JARVIS-Tools package.
data_Ga2HgTe4
_symmetry_space_group_name_H-M  'I-4'
_cell_length_a       6.19603
_cell_length_b       6.19602
_cell_length_c       7.418
_cell_angle_alpha    114.685
_cell_angle_beta     114.685
_cell_angle_gamma    90

_symmetry_Int_Tables_number  82
_chemical_formula_structural  Ga2HgTe4
_chemical_formula_sum  Ga2HgTe4
_cell_volume  229.80411661057622
_cell_formula_units_Z  1
loop_
  _symmetry_equiv_pos_site_id
 _symmetry_equiv_pos_as_xyz
 1  'x, y, z'
loop_
 _atom_site_type_symbol
 _atom_site_label
 _atom_site_symmetry_multiplicity
 _atom_site_fract_x
 _atom_site_fract_y
 _atom_site_fract_z
 _atom_site_fract_occupancy
 Ga  Ga1  1  0.50000  0.50000  -0.00000  1
 Ga  Ga2  1  0.25000  0.75000  0.50000  1
 Hg  Hg1  1  0.00000  0.00000  0.00000  1
 Te  Te1  1  0.42066  0.38830  0.28023  1
 Te  Te2  1  0.61170  0.14043  0.71977  1
 Te  Te3  1  0.10807  0.57934  0.71977  1
 Te  Te4  1  0.85957  0.89193  0.28023  1
