CIF file written using JARVIS-Tools package.
data_AuN5O14
_symmetry_space_group_name_H-M  'P2_1/c'
_cell_length_a       7.65325
_cell_length_b       8.13029
_cell_length_c       8.69574
_cell_angle_alpha    90
_cell_angle_beta     111.039
_cell_angle_gamma    90

_symmetry_Int_Tables_number  14
_chemical_formula_structural  AuN5O14
_chemical_formula_sum  Au2N0O28
_cell_volume  505.0050758040567
_cell_formula_units_Z  2
loop_
  _symmetry_equiv_pos_site_id
 _symmetry_equiv_pos_as_xyz
 1  'x, y, z'
loop_
 _atom_site_type_symbol
 _atom_site_label
 _atom_site_symmetry_multiplicity
 _atom_site_fract_x
 _atom_site_fract_y
 _atom_site_fract_z
 _atom_site_fract_occupancy
 Au  Au1  1  0.50000  0.50000  0.50000  1
 Au  Au2  1  0.00000  0.00000  0.00000  1
 N  N1  1  0.37142  0.06879  0.23149  1
 N  N2  1  0.62858  0.93121  0.76851  1
 N  N3  1  0.33407  0.25558  0.64568  1
 N  N4  1  0.12858  0.56879  0.26851  1
 N  N5  1  0.16593  0.75558  0.85432  1
 N  N6  1  0.66593  0.74442  0.35432  1
 N  N7  1  0.83407  0.24442  0.14568  1
 N  N8  1  0.00000  0.00000  0.50000  1
 N  N9  1  0.50000  0.50000  0.00000  1
 N  N10  1  0.87142  0.43121  0.73149  1
 O  O1  1  0.74670  0.88942  0.92350  1
 O  O2  1  0.67412  0.82659  0.23858  1
 O  O3  1  0.67172  0.04504  0.69606  1
 O  O4  1  0.75330  0.38942  0.57650  1
 O  O5  1  0.04896  0.88824  0.81013  1
 O  O6  1  0.32828  0.95496  0.30394  1
 O  O7  1  0.09878  0.90162  0.48477  1
 O  O8  1  0.75278  0.76966  0.50219  1
 O  O9  1  0.01455  0.34693  0.78140  1
 O  O10  1  0.24670  0.61058  0.42350  1
 O  O11  1  0.59878  0.59838  0.98477  1
 O  O12  1  0.25330  0.11058  0.07650  1
 O  O13  1  0.74722  0.26966  0.99781  1
 O  O14  1  0.82828  0.54504  0.80394  1
 O  O15  1  0.17172  0.45496  0.19606  1
 O  O16  1  0.98545  0.65307  0.21860  1
 O  O17  1  0.95104  0.11176  0.18987  1
 O  O18  1  0.82588  0.32659  0.26142  1
 O  O19  1  0.45104  0.38824  0.68987  1
 O  O20  1  0.90122  0.09838  0.51523  1
 O  O21  1  0.24722  0.23034  0.49781  1
 O  O22  1  0.54896  0.61176  0.31013  1
 O  O23  1  0.32588  0.17341  0.76142  1
 O  O24  1  0.48545  0.84693  0.71860  1
 O  O25  1  0.17412  0.67341  0.73858  1
 O  O26  1  0.51455  0.15307  0.28140  1
 O  O27  1  0.25278  0.73034  0.00219  1
 O  O28  1  0.40122  0.40162  0.01523  1
