CIF file written using JARVIS-Tools package.
data_LaHO2
_symmetry_space_group_name_H-M  'P2_1/m'
_cell_length_a       4.46387
_cell_length_b       3.93674
_cell_length_c       6.62494
_cell_angle_alpha    90
_cell_angle_beta     112.348
_cell_angle_gamma    90

_symmetry_Int_Tables_number  11
_chemical_formula_structural  LaHO2
_chemical_formula_sum  La2H2O4
_cell_volume  107.67706529872777
_cell_formula_units_Z  2
loop_
  _symmetry_equiv_pos_site_id
 _symmetry_equiv_pos_as_xyz
 1  'x, y, z'
loop_
 _atom_site_type_symbol
 _atom_site_label
 _atom_site_symmetry_multiplicity
 _atom_site_fract_x
 _atom_site_fract_y
 _atom_site_fract_z
 _atom_site_fract_occupancy
 H  H1  1  0.08638  0.75000  0.07045  1
 H  H2  1  0.91362  0.25000  0.92955  1
 La  La1  1  0.63782  0.25000  0.30658  1
 La  La2  1  0.36218  0.75000  0.69342  1
 O  O1  1  0.77863  0.75000  0.53894  1
 O  O2  1  0.22137  0.25000  0.46106  1
 O  O3  1  0.29888  0.75000  0.05998  1
 O  O4  1  0.70112  0.25000  0.94002  1
