CIF file written using JARVIS-Tools package.
data_ErAg2
_symmetry_space_group_name_H-M  'I4/mmm'
_cell_length_a       3.69459
_cell_length_b       3.69459
_cell_length_c       5.25225
_cell_angle_alpha    110.592
_cell_angle_beta     110.592
_cell_angle_gamma    90.0001

_symmetry_Int_Tables_number  139
_chemical_formula_structural  ErAg2
_chemical_formula_sum  ErAg2
_cell_volume  62.19544293462395
_cell_formula_units_Z  1
loop_
  _symmetry_equiv_pos_site_id
 _symmetry_equiv_pos_as_xyz
 1  'x, y, z'
loop_
 _atom_site_type_symbol
 _atom_site_label
 _atom_site_symmetry_multiplicity
 _atom_site_fract_x
 _atom_site_fract_y
 _atom_site_fract_z
 _atom_site_fract_occupancy
 Ag  Ag1  1  0.33163  0.33163  0.66325  1
 Ag  Ag2  1  0.66837  0.66837  0.33675  1
 Er  Er1  1  0.00000  0.00000  0.00000  1
