CIF file written using JARVIS-Tools package.
data_BH5CSN2
_symmetry_space_group_name_H-M  'Pnma'
_cell_length_a       9.09895
_cell_length_b       6.54742
_cell_length_c       7.1236
_cell_angle_alpha    90
_cell_angle_beta     90
_cell_angle_gamma    90

_symmetry_Int_Tables_number  62
_chemical_formula_structural  BH5CSN2
_chemical_formula_sum  B4H20C4S4N8
_cell_volume  424.3858951622945
_cell_formula_units_Z  4
loop_
  _symmetry_equiv_pos_site_id
 _symmetry_equiv_pos_as_xyz
 1  'x, y, z'
loop_
 _atom_site_type_symbol
 _atom_site_label
 _atom_site_symmetry_multiplicity
 _atom_site_fract_x
 _atom_site_fract_y
 _atom_site_fract_z
 _atom_site_fract_occupancy
 B  B1  1  0.73374  0.25000  0.81954  1
 B  B2  1  0.23374  0.25000  0.68046  1
 B  B3  1  0.26626  0.75000  0.18046  1
 B  B4  1  0.76626  0.75000  0.31954  1
 C  C1  1  0.44165  0.25000  0.41209  1
 C  C2  1  0.94165  0.25000  0.08791  1
 C  C3  1  0.05835  0.75000  0.91209  1
 C  C4  1  0.55835  0.75000  0.58791  1
 H  H1  1  0.60924  0.87732  0.11714  1
 H  H2  1  0.75478  0.25000  0.51150  1
 H  H3  1  0.25478  0.25000  0.98850  1
 H  H4  1  0.24522  0.75000  0.48850  1
 H  H5  1  0.89076  0.37732  0.61714  1
 H  H6  1  0.39076  0.12268  0.88286  1
 H  H7  1  0.10924  0.87732  0.38286  1
 H  H8  1  0.74522  0.75000  0.01150  1
 H  H9  1  0.10924  0.62268  0.38286  1
 H  H10  1  0.60924  0.62268  0.11714  1
 H  H11  1  0.65884  0.09604  0.82492  1
 H  H12  1  0.84116  0.90396  0.32492  1
 H  H13  1  0.34116  0.59604  0.17508  1
 H  H14  1  0.34116  0.90396  0.17508  1
 H  H15  1  0.15884  0.40396  0.67508  1
 H  H16  1  0.65884  0.40396  0.82492  1
 H  H17  1  0.39076  0.37732  0.88286  1
 H  H18  1  0.89076  0.12268  0.61714  1
 H  H19  1  0.84116  0.59604  0.32492  1
 H  H20  1  0.15884  0.09604  0.67508  1
 N  N1  1  0.82411  0.25000  0.62714  1
 N  N2  1  0.65396  0.75000  0.47600  1
 N  N3  1  0.15396  0.75000  0.02400  1
 N  N4  1  0.34604  0.25000  0.52400  1
 N  N5  1  0.84604  0.25000  0.97600  1
 N  N6  1  0.67589  0.75000  0.12714  1
 N  N7  1  0.32411  0.25000  0.87286  1
 N  N8  1  0.17589  0.75000  0.37286  1
 S  S1  1  0.92805  0.75000  0.75940  1
 S  S2  1  0.57195  0.25000  0.25940  1
 S  S3  1  0.07195  0.25000  0.24060  1
 S  S4  1  0.42805  0.75000  0.74060  1
