CIF file written using JARVIS-Tools package.
data_CF2
_symmetry_space_group_name_H-M  'P-1'
_cell_length_a       5.88959
_cell_length_b       6.17012
_cell_length_c       6.39174
_cell_angle_alpha    92.9638
_cell_angle_beta     107.066
_cell_angle_gamma    95.3014

_symmetry_Int_Tables_number  2
_chemical_formula_structural  CF2
_chemical_formula_sum  C6F2
_cell_volume  220.33545657155133
_cell_formula_units_Z  6
loop_
  _symmetry_equiv_pos_site_id
 _symmetry_equiv_pos_as_xyz
 1  'x, y, z'
loop_
 _atom_site_type_symbol
 _atom_site_label
 _atom_site_symmetry_multiplicity
 _atom_site_fract_x
 _atom_site_fract_y
 _atom_site_fract_z
 _atom_site_fract_occupancy
 C  C1  1  0.55164  0.82685  0.77134  1
 C  C2  1  0.44836  0.17315  0.22866  1
 C  C3  1  0.34364  0.74082  0.62906  1
 C  C4  1  0.65636  0.25918  0.37094  1
 C  C5  1  0.24897  0.29000  0.09999  1
 C  C6  1  0.75103  0.71000  0.90001  1
 F  F1  1  0.69221  0.49048  0.87678  1
 F  F2  1  0.72474  0.47058  0.42184  1
 F  F3  1  0.81816  0.13711  0.47757  1
 F  F4  1  0.95086  0.75295  0.83482  1
 F  F5  1  0.81507  0.77669  0.11743  1
 F  F6  1  0.59809  0.04743  0.80708  1
 F  F7  1  0.04914  0.24705  0.16518  1
 F  F8  1  0.30779  0.50952  0.12322  1
 F  F9  1  0.18184  0.86289  0.52243  1
 F  F10  1  0.27526  0.52942  0.57816  1
 F  F11  1  0.18493  0.22331  0.88257  1
 F  F12  1  0.40191  0.95257  0.19292  1
