CIF file written using JARVIS-Tools package.
data_MnBeSb
_symmetry_space_group_name_H-M  'I4mm'
_cell_length_a       4.60937
_cell_length_b       4.60937
_cell_length_c       4.60937
_cell_angle_alpha    139.776
_cell_angle_beta     139.776
_cell_angle_gamma    58.1936

_symmetry_Int_Tables_number  107
_chemical_formula_structural  MnBeSb
_chemical_formula_sum  MnBeSb
_cell_volume  40.471628728416306
_cell_formula_units_Z  1
loop_
  _symmetry_equiv_pos_site_id
 _symmetry_equiv_pos_as_xyz
 1  'x, y, z'
loop_
 _atom_site_type_symbol
 _atom_site_label
 _atom_site_symmetry_multiplicity
 _atom_site_fract_x
 _atom_site_fract_y
 _atom_site_fract_z
 _atom_site_fract_occupancy
 Be  Be1  1  0.01868  0.01868  0.00000  1
 Mn  Mn1  1  0.65158  0.65158  0.00000  1
 Sb  Sb1  1  0.32974  0.32974  -0.00000  1
