CIF file written using JARVIS-Tools package.
data_UInRh
_symmetry_space_group_name_H-M  'P-62m'
_cell_length_a       4.06427
_cell_length_b       7.33751
_cell_length_c       7.33857
_cell_angle_alpha    119.995
_cell_angle_beta     90
_cell_angle_gamma    90

_symmetry_Int_Tables_number  189
_chemical_formula_structural  UInRh
_chemical_formula_sum  U3In3Rh3
_cell_volume  189.5372189816183
_cell_formula_units_Z  3
loop_
  _symmetry_equiv_pos_site_id
 _symmetry_equiv_pos_as_xyz
 1  'x, y, z'
loop_
 _atom_site_type_symbol
 _atom_site_label
 _atom_site_symmetry_multiplicity
 _atom_site_fract_x
 _atom_site_fract_y
 _atom_site_fract_z
 _atom_site_fract_occupancy
 In  In1  1  0.00000  0.24976  -0.00000  1
 In  In2  1  0.00000  0.75019  0.75017  1
 In  In3  1  0.00000  0.00002  0.24983  1
 Rh  Rh1  1  0.00000  0.33330  0.66667  1
 Rh  Rh2  1  0.00000  0.66662  0.33333  1
 Rh  Rh3  1  0.50000  0.99991  0.00000  1
 U  U1  1  0.50000  0.58442  -0.00000  1
 U  U2  1  0.50000  0.41561  0.41554  1
 U  U3  1  0.50000  0.00007  0.58446  1
