CIF file written using JARVIS-Tools package.
data_Sc3IrC4
_symmetry_space_group_name_H-M  'Immm'
_cell_length_a       3.44284
_cell_length_b       4.45165
_cell_length_c       6.74053
_cell_angle_alpha    109.282
_cell_angle_beta     104.796
_cell_angle_gamma    90

_symmetry_Int_Tables_number  71
_chemical_formula_structural  Sc3IrC4
_chemical_formula_sum  Sc3IrC4
_cell_volume  93.87557407253168
_cell_formula_units_Z  1
loop_
  _symmetry_equiv_pos_site_id
 _symmetry_equiv_pos_as_xyz
 1  'x, y, z'
loop_
 _atom_site_type_symbol
 _atom_site_label
 _atom_site_symmetry_multiplicity
 _atom_site_fract_x
 _atom_site_fract_y
 _atom_site_fract_z
 _atom_site_fract_occupancy
 C  C1  1  0.87177  0.20966  0.74353  1
 C  C2  1  0.12823  0.79034  0.25647  1
 C  C3  1  0.12823  0.46613  0.25647  1
 C  C4  1  0.87177  0.53387  0.74353  1
 Ir  Ir1  1  0.00000  0.00000  0.00000  1
 Sc  Sc1  1  0.50000  0.50000  0.00000  1
 Sc  Sc2  1  0.30982  0.80982  0.61963  1
 Sc  Sc3  1  0.69018  0.19018  0.38037  1
