CIF file written using JARVIS-Tools package.
data_Mn2O3F
_symmetry_space_group_name_H-M  'C2/m'
_cell_length_a       4.53815
_cell_length_b       5.39985
_cell_length_c       5.39985
_cell_angle_alpha    114.394
_cell_angle_beta     92.5085
_cell_angle_gamma    87.4915

_symmetry_Int_Tables_number  12
_chemical_formula_structural  Mn2O3F
_chemical_formula_sum  Mn4O6F2
_cell_volume  120.34863246976856
_cell_formula_units_Z  2
loop_
  _symmetry_equiv_pos_site_id
 _symmetry_equiv_pos_as_xyz
 1  'x, y, z'
loop_
 _atom_site_type_symbol
 _atom_site_label
 _atom_site_symmetry_multiplicity
 _atom_site_fract_x
 _atom_site_fract_y
 _atom_site_fract_z
 _atom_site_fract_occupancy
 F  F1  1  0.79463  0.64324  0.85676  1
 F  F2  1  0.20537  0.35676  0.14324  1
 Mn  Mn1  1  0.50000  -0.00000  0.50000  1
 Mn  Mn2  1  0.50000  0.50000  -0.00000  1
 Mn  Mn3  1  0.00000  0.50000  0.50000  1
 Mn  Mn4  1  0.00000  0.00000  0.00000  1
 O  O1  1  0.81210  0.15601  0.34399  1
 O  O2  1  0.69195  0.15190  0.84734  1
 O  O3  1  0.69195  0.65266  0.34810  1
 O  O4  1  0.30805  0.34734  0.65190  1
 O  O5  1  0.30805  0.84810  0.15266  1
 O  O6  1  0.18790  0.84399  0.65601  1
