CIF file written using JARVIS-Tools package.
data_NaNi2O3
_symmetry_space_group_name_H-M  'P-3m1'
_cell_length_a       2.9704
_cell_length_b       2.9704
_cell_length_c       7.60923
_cell_angle_alpha    90
_cell_angle_beta     90
_cell_angle_gamma    120

_symmetry_Int_Tables_number  164
_chemical_formula_structural  NaNi2O3
_chemical_formula_sum  NaNi2O3
_cell_volume  58.14330689368194
_cell_formula_units_Z  1
loop_
  _symmetry_equiv_pos_site_id
 _symmetry_equiv_pos_as_xyz
 1  'x, y, z'
loop_
 _atom_site_type_symbol
 _atom_site_label
 _atom_site_symmetry_multiplicity
 _atom_site_fract_x
 _atom_site_fract_y
 _atom_site_fract_z
 _atom_site_fract_occupancy
 Na  Na1  1  0.00000  0.00000  0.50000  1
 Ni  Ni1  1  0.66667  0.33333  0.83708  1
 Ni  Ni2  1  0.33333  0.66667  0.16292  1
 O  O1  1  0.66667  0.33333  0.29110  1
 O  O2  1  0.00000  0.00000  0.00000  1
 O  O3  1  0.33333  0.66667  0.70890  1
