CIF file written using JARVIS-Tools package.
data_Ho2Al3Si2
_symmetry_space_group_name_H-M  'C2/m'
_cell_length_a       4.04465
_cell_length_b       5.47264
_cell_length_c       6.62469
_cell_angle_alpha    100.022
_cell_angle_beta     90
_cell_angle_gamma    111.687

_symmetry_Int_Tables_number  12
_chemical_formula_structural  Ho2Al3Si2
_chemical_formula_sum  Ho2Al3Si2
_cell_volume  133.84639963677515
_cell_formula_units_Z  1
loop_
  _symmetry_equiv_pos_site_id
 _symmetry_equiv_pos_as_xyz
 1  'x, y, z'
loop_
 _atom_site_type_symbol
 _atom_site_label
 _atom_site_symmetry_multiplicity
 _atom_site_fract_x
 _atom_site_fract_y
 _atom_site_fract_z
 _atom_site_fract_occupancy
 Al  Al1  1  0.69495  0.38991  0.86633  1
 Al  Al2  1  0.00000  0.00000  0.00000  1
 Al  Al3  1  0.30505  0.61009  0.13367  1
 Ho  Ho1  1  0.38069  0.76137  0.67843  1
 Ho  Ho2  1  0.61931  0.23863  0.32157  1
 Si  Si1  1  0.90596  0.81192  0.36137  1
 Si  Si2  1  0.09404  0.18808  0.63863  1
