CIF file written using JARVIS-Tools package.
data_B5W2
_symmetry_space_group_name_H-M  'R-3m'
_cell_length_a       7.42209
_cell_length_b       7.42209
_cell_length_c       7.42209
_cell_angle_alpha    24.0498
_cell_angle_beta     24.0497
_cell_angle_gamma    24.0497

_symmetry_Int_Tables_number  166
_chemical_formula_structural  B5W2
_chemical_formula_sum  B5W2
_cell_volume  59.66955029456975
_cell_formula_units_Z  1
loop_
  _symmetry_equiv_pos_site_id
 _symmetry_equiv_pos_as_xyz
 1  'x, y, z'
loop_
 _atom_site_type_symbol
 _atom_site_label
 _atom_site_symmetry_multiplicity
 _atom_site_fract_x
 _atom_site_fract_y
 _atom_site_fract_z
 _atom_site_fract_occupancy
 B  B1  1  0.50000  0.50000  0.50000  1
 B  B2  1  0.81475  0.81475  0.81475  1
 B  B3  1  0.33089  0.33089  0.33089  1
 B  B4  1  0.66911  0.66911  0.66911  1
 B  B5  1  0.18525  0.18525  0.18525  1
 W  W1  1  0.92297  0.92297  0.92297  1
 W  W2  1  0.07703  0.07703  0.07703  1
