CIF file written using JARVIS-Tools package.
data_Ta2CrO6
_symmetry_space_group_name_H-M  'P4_2/mnm'
_cell_length_a       4.74154
_cell_length_b       4.74131
_cell_length_c       9.1837
_cell_angle_alpha    90
_cell_angle_beta     90.0016
_cell_angle_gamma    90

_symmetry_Int_Tables_number  136
_chemical_formula_structural  Ta2CrO6
_chemical_formula_sum  Ta4Cr2O2
_cell_volume  206.45998819793428
_cell_formula_units_Z  2
loop_
  _symmetry_equiv_pos_site_id
 _symmetry_equiv_pos_as_xyz
 1  'x, y, z'
loop_
 _atom_site_type_symbol
 _atom_site_label
 _atom_site_symmetry_multiplicity
 _atom_site_fract_x
 _atom_site_fract_y
 _atom_site_fract_z
 _atom_site_fract_occupancy
 Cr  Cr1  1  0.50000  0.50000  0.50000  1
 Cr  Cr2  1  0.00000  0.00000  0.00000  1
 O  O1  1  0.80089  0.19925  0.16907  1
 O  O2  1  0.69911  0.69925  0.33093  1
 O  O3  1  0.19911  0.80075  0.83094  1
 O  O4  1  0.30089  0.30075  0.66906  1
 O  O5  1  0.30175  0.30162  0.00000  1
 O  O6  1  0.19825  0.80162  0.50000  1
 O  O7  1  0.80088  0.19924  0.83094  1
 O  O8  1  0.30089  0.30076  0.33093  1
 O  O9  1  0.80175  0.19838  0.50000  1
 O  O10  1  0.69911  0.69923  0.66906  1
 O  O11  1  0.69825  0.69838  1.00000  1
 O  O12  1  0.19911  0.80076  0.16906  1
 Ta  Ta1  1  0.50000  0.50001  0.16521  1
 Ta  Ta2  1  0.50000  0.49999  0.83479  1
 Ta  Ta3  1  -0.00000  0.99999  0.66521  1
 Ta  Ta4  1  0.00000  0.00001  0.33479  1
