CIF file written using JARVIS-Tools package.
data_SrCd2
_symmetry_space_group_name_H-M  'Imma'
_cell_length_a       5.07913
_cell_length_b       6.38407
_cell_length_c       6.38407
_cell_angle_alpha    77.3113
_cell_angle_beta     66.5595
_cell_angle_gamma    66.5595

_symmetry_Int_Tables_number  74
_chemical_formula_structural  SrCd2
_chemical_formula_sum  Sr2Cd4
_cell_volume  173.78535029030826
_cell_formula_units_Z  2
loop_
  _symmetry_equiv_pos_site_id
 _symmetry_equiv_pos_as_xyz
 1  'x, y, z'
loop_
 _atom_site_type_symbol
 _atom_site_label
 _atom_site_symmetry_multiplicity
 _atom_site_fract_x
 _atom_site_fract_y
 _atom_site_fract_z
 _atom_site_fract_occupancy
 Cd  Cd1  1  0.83520  0.11375  0.21584  1
 Cd  Cd2  1  0.16480  0.88625  0.78416  1
 Cd  Cd3  1  0.16480  0.28416  0.38625  1
 Cd  Cd4  1  0.83520  0.71584  0.61375  1
 Sr  Sr1  1  0.45755  0.29245  0.79245  1
 Sr  Sr2  1  0.54245  0.70755  0.20755  1
