CIF file written using JARVIS-Tools package.
data_BeMoPd
_symmetry_space_group_name_H-M  'I4mm'
_cell_length_a       5.49127
_cell_length_b       5.49127
_cell_length_c       5.49127
_cell_angle_alpha    151.151
_cell_angle_beta     151.151
_cell_angle_gamma    41.2548

_symmetry_Int_Tables_number  107
_chemical_formula_structural  BeMoPd
_chemical_formula_sum  BeMoPd
_cell_volume  38.46578503792349
_cell_formula_units_Z  1
loop_
  _symmetry_equiv_pos_site_id
 _symmetry_equiv_pos_as_xyz
 1  'x, y, z'
loop_
 _atom_site_type_symbol
 _atom_site_label
 _atom_site_symmetry_multiplicity
 _atom_site_fract_x
 _atom_site_fract_y
 _atom_site_fract_z
 _atom_site_fract_occupancy
 Be  Be1  1  0.00947  0.00947  0.00000  1
 Mo  Mo1  1  0.34661  0.34661  0.00000  1
 Pd  Pd1  1  0.64392  0.64392  0.00000  1
