CIF file written using JARVIS-Tools package.
data_LiMn2O3F
_symmetry_space_group_name_H-M  'R-3m'
_cell_length_a       6.05433
_cell_length_b       5.84017
_cell_length_c       5.84017
_cell_angle_alpha    62.4413
_cell_angle_beta     90
_cell_angle_gamma    121.221

_symmetry_Int_Tables_number  166
_chemical_formula_structural  LiMn2O3F
_chemical_formula_sum  Li2Mn4O6F2
_cell_volume  148.5180988445319
_cell_formula_units_Z  2
loop_
  _symmetry_equiv_pos_site_id
 _symmetry_equiv_pos_as_xyz
 1  'x, y, z'
loop_
 _atom_site_type_symbol
 _atom_site_label
 _atom_site_symmetry_multiplicity
 _atom_site_fract_x
 _atom_site_fract_y
 _atom_site_fract_z
 _atom_site_fract_occupancy
 F  F1  1  0.76452  0.52905  0.76452  1
 F  F2  1  0.23548  0.47095  0.23548  1
 Li  Li1  1  0.10523  0.21047  0.10523  1
 Li  Li2  1  0.89477  0.78953  0.89477  1
 Mn  Mn1  1  0.50000  -0.00000  -0.00000  1
 Mn  Mn2  1  0.50000  -0.00000  0.50000  1
 Mn  Mn3  1  0.50000  0.50000  0.50000  1
 Mn  Mn4  1  0.00000  0.50000  0.50000  1
 O  O1  1  0.73949  0.04428  0.73949  1
 O  O2  1  0.73949  0.47899  0.30479  1
 O  O3  1  0.30479  0.04428  0.73949  1
 O  O4  1  0.69521  0.95572  0.26051  1
 O  O5  1  0.26051  0.95572  0.26051  1
 O  O6  1  0.26051  0.52101  0.69521  1
