CIF file written using JARVIS-Tools package.
data_SbCl3F2
_symmetry_space_group_name_H-M  'I4'
_cell_length_a       7.03597
_cell_length_b       9.75106
_cell_length_c       9.75107
_cell_angle_alpha    82.5211
_cell_angle_beta     68.8519
_cell_angle_gamma    68.8519

_symmetry_Int_Tables_number  79
_chemical_formula_structural  SbCl3F2
_chemical_formula_sum  Sb4Cl2F8
_cell_volume  581.9245306110879
_cell_formula_units_Z  4
loop_
  _symmetry_equiv_pos_site_id
 _symmetry_equiv_pos_as_xyz
 1  'x, y, z'
loop_
 _atom_site_type_symbol
 _atom_site_label
 _atom_site_symmetry_multiplicity
 _atom_site_fract_x
 _atom_site_fract_y
 _atom_site_fract_z
 _atom_site_fract_occupancy
 Cl  Cl1  1  0.91404  0.69511  0.43278  1
 Cl  Cl2  1  0.04194  0.30489  0.56722  1
 Cl  Cl3  1  0.60916  0.43278  0.30489  1
 Cl  Cl4  1  0.34921  0.76914  0.15388  1
 Cl  Cl5  1  0.34683  0.56722  0.69511  1
 Cl  Cl6  1  0.19094  0.48438  0.10004  1
 Cl  Cl7  1  0.29098  0.89996  0.48438  1
 Cl  Cl8  1  0.77536  0.51562  0.89996  1
 Cl  Cl9  1  0.11835  0.15388  0.23086  1
 Cl  Cl10  1  0.50309  0.84612  0.76914  1
 Cl  Cl11  1  0.67532  0.10004  0.51562  1
 Cl  Cl12  1  0.27223  0.23086  0.84612  1
 F  F1  1  0.76059  0.74974  0.16324  1
 F  F2  1  0.51033  0.16324  0.25026  1
 F  F3  1  0.92383  0.83676  0.74974  1
 F  F4  1  0.09022  0.79627  0.95688  1
 F  F5  1  0.88649  0.95688  0.20373  1
 F  F6  1  0.04710  0.04312  0.79627  1
 F  F7  1  0.84337  0.20373  0.04312  1
 F  F8  1  0.67357  0.25026  0.83676  1
 Sb  Sb1  1  0.03333  0.72682  0.17904  1
 Sb  Sb2  1  0.76015  0.17904  0.27318  1
 Sb  Sb3  1  0.93919  0.27318  0.82096  1
 Sb  Sb4  1  0.21237  0.82096  0.72682  1
