CIF file written using JARVIS-Tools package.
data_Rb6Ge2O7
_symmetry_space_group_name_H-M  'P2_1/c'
_cell_length_a       6.83829
_cell_length_b       9.49764
_cell_length_c       9.50774
_cell_angle_alpha    90
_cell_angle_beta     91.6552
_cell_angle_gamma    90

_symmetry_Int_Tables_number  14
_chemical_formula_structural  Rb6Ge2O7
_chemical_formula_sum  Rb2Ge4O4
_cell_volume  617.2478021281439
_cell_formula_units_Z  2
loop_
  _symmetry_equiv_pos_site_id
 _symmetry_equiv_pos_as_xyz
 1  'x, y, z'
loop_
 _atom_site_type_symbol
 _atom_site_label
 _atom_site_symmetry_multiplicity
 _atom_site_fract_x
 _atom_site_fract_y
 _atom_site_fract_z
 _atom_site_fract_occupancy
 Ge  Ge1  1  0.95201  0.13871  0.63113  1
 Ge  Ge2  1  0.04799  0.86129  0.36887  1
 Ge  Ge3  1  0.54799  0.63871  0.86887  1
 Ge  Ge4  1  0.45201  0.36129  0.13113  1
 O  O1  1  0.00000  0.00000  0.50000  1
 O  O2  1  0.50000  0.50000  -0.00000  1
 O  O3  1  0.05588  0.08345  0.79515  1
 O  O4  1  0.42610  0.78945  0.93439  1
 O  O5  1  0.92610  0.71055  0.43439  1
 O  O6  1  0.57390  0.21055  0.06561  1
 O  O7  1  0.19301  0.34065  0.13475  1
 O  O8  1  0.30699  0.84065  0.36525  1
 O  O9  1  0.80699  0.65935  0.86525  1
 O  O10  1  0.69301  0.15935  0.63475  1
 O  O11  1  0.55588  0.41655  0.29515  1
 O  O12  1  0.94412  0.91655  0.20485  1
 O  O13  1  0.07390  0.28945  0.56561  1
 O  O14  1  0.44412  0.58345  0.70485  1
 Rb  Rb1  1  0.25386  0.02444  0.04875  1
 Rb  Rb2  1  0.11846  0.78575  0.71928  1
 Rb  Rb3  1  0.61846  0.71425  0.21928  1
 Rb  Rb4  1  0.88154  0.21425  0.28072  1
 Rb  Rb5  1  0.88406  0.35264  0.91865  1
 Rb  Rb6  1  0.61594  0.85264  0.58135  1
 Rb  Rb7  1  0.11594  0.64736  0.08135  1
 Rb  Rb8  1  0.38406  0.14736  0.41865  1
 Rb  Rb9  1  0.75386  0.47556  0.54875  1
 Rb  Rb10  1  0.74614  0.97556  0.95125  1
 Rb  Rb11  1  0.24614  0.52444  0.45125  1
 Rb  Rb12  1  0.38154  0.28575  0.78072  1
