CIF file written using JARVIS-Tools package.
data_ErAlPd
_symmetry_space_group_name_H-M  'P-62m'
_cell_length_a       3.95696
_cell_length_b       7.16752
_cell_length_c       7.16754
_cell_angle_alpha    120
_cell_angle_beta     90
_cell_angle_gamma    90

_symmetry_Int_Tables_number  189
_chemical_formula_structural  ErAlPd
_chemical_formula_sum  Er3Al3Pd3
_cell_volume  176.04806531479687
_cell_formula_units_Z  3
loop_
  _symmetry_equiv_pos_site_id
 _symmetry_equiv_pos_as_xyz
 1  'x, y, z'
loop_
 _atom_site_type_symbol
 _atom_site_label
 _atom_site_symmetry_multiplicity
 _atom_site_fract_x
 _atom_site_fract_y
 _atom_site_fract_z
 _atom_site_fract_occupancy
 Al  Al1  1  0.00000  0.24235  -0.00000  1
 Al  Al2  1  0.00000  0.75763  0.75764  1
 Al  Al3  1  0.00000  -0.00001  0.24236  1
 Er  Er1  1  0.50000  0.58541  -0.00000  1
 Er  Er2  1  0.50000  0.41456  0.41457  1
 Er  Er3  1  0.50000  -0.00001  0.58543  1
 Pd  Pd1  1  0.00000  0.33333  0.66667  1
 Pd  Pd2  1  0.00000  0.66666  0.33333  1
 Pd  Pd3  1  0.50000  -0.00002  0.00000  1
