CIF file written using JARVIS-Tools package.
data_BeTlSi
_symmetry_space_group_name_H-M  'I4mm'
_cell_length_a       6.02721
_cell_length_b       6.02721
_cell_length_c       6.02721
_cell_angle_alpha    148.043
_cell_angle_beta     148.043
_cell_angle_gamma    45.8216

_symmetry_Int_Tables_number  107
_chemical_formula_structural  BeTlSi
_chemical_formula_sum  BeTlSi
_cell_volume  61.129730930969664
_cell_formula_units_Z  1
loop_
  _symmetry_equiv_pos_site_id
 _symmetry_equiv_pos_as_xyz
 1  'x, y, z'
loop_
 _atom_site_type_symbol
 _atom_site_label
 _atom_site_symmetry_multiplicity
 _atom_site_fract_x
 _atom_site_fract_y
 _atom_site_fract_z
 _atom_site_fract_occupancy
 Be  Be1  1  0.91045  0.91045  0.00000  1
 Si  Si1  1  0.41637  0.41637  0.00000  1
 Tl  Tl1  1  0.67318  0.67318  0.00000  1
