CIF file written using JARVIS-Tools package.
data_Ca2PI
_symmetry_space_group_name_H-M  'R-3m'
_cell_length_a       7.77916
_cell_length_b       7.77917
_cell_length_c       7.77916
_cell_angle_alpha    31.9574
_cell_angle_beta     31.9574
_cell_angle_gamma    31.9574

_symmetry_Int_Tables_number  166
_chemical_formula_structural  Ca2PI
_chemical_formula_sum  Ca2PI
_cell_volume  117.16819455410341
_cell_formula_units_Z  1
loop_
  _symmetry_equiv_pos_site_id
 _symmetry_equiv_pos_as_xyz
 1  'x, y, z'
loop_
 _atom_site_type_symbol
 _atom_site_label
 _atom_site_symmetry_multiplicity
 _atom_site_fract_x
 _atom_site_fract_y
 _atom_site_fract_z
 _atom_site_fract_occupancy
 Ca  Ca1  1  0.76949  0.76949  0.76949  1
 Ca  Ca2  1  0.23051  0.23051  0.23051  1
 I  I1  1  0.00000  0.00000  0.00000  1
 P  P1  1  0.50000  0.50000  0.50000  1
