CIF file written using JARVIS-Tools package.
data_Mg11Mn2O13
_symmetry_space_group_name_H-M  'Immm'
_cell_length_a       3.0182
_cell_length_b       19.8451
_cell_length_c       4.26693
_cell_angle_alpha    96.1716
_cell_angle_beta     90
_cell_angle_gamma    85.6388

_symmetry_Int_Tables_number  71
_chemical_formula_structural  Mg11Mn2O13
_chemical_formula_sum  MgMn2O3
_cell_volume  253.34838855793237
_cell_formula_units_Z  1
loop_
  _symmetry_equiv_pos_site_id
 _symmetry_equiv_pos_as_xyz
 1  'x, y, z'
loop_
 _atom_site_type_symbol
 _atom_site_label
 _atom_site_symmetry_multiplicity
 _atom_site_fract_x
 _atom_site_fract_y
 _atom_site_fract_z
 _atom_site_fract_occupancy
 Mg  Mg1  1  0.92179  0.15642  0.07821  1
 Mg  Mg2  1  0.61477  0.77046  0.38523  1
 Mg  Mg3  1  0.53881  0.92239  0.46119  1
 Mg  Mg4  1  0.77052  0.45897  0.22948  1
 Mg  Mg5  1  0.84615  0.30769  0.15385  1
 Mg  Mg6  1  0.38415  0.23170  0.61585  1
 Mg  Mg7  1  0.46028  0.07943  0.53972  1
 Mg  Mg8  1  0.30816  0.38369  0.69184  1
 Mg  Mg9  1  0.23202  0.53595  0.76798  1
 Mg  Mg10  1  0.15350  0.69300  0.84650  1
 Mg  Mg11  1  0.07754  0.84493  0.92246  1
 Mn  Mn1  1  0.69267  0.61465  0.30733  1
 Mn  Mn2  1  0.99964  0.00073  0.00036  1
 O  O1  1  0.99954  0.00092  0.50046  1
 O  O2  1  0.61566  0.76868  0.88434  1
 O  O3  1  0.45864  0.08271  0.04136  1
 O  O4  1  0.30838  0.38325  0.19162  1
 O  O5  1  0.38393  0.23214  0.11607  1
 O  O6  1  0.23366  0.53267  0.26634  1
 O  O7  1  0.15165  0.69670  0.34835  1
 O  O8  1  0.07665  0.84670  0.42335  1
 O  O9  1  0.76999  0.46002  0.73001  1
 O  O10  1  0.92232  0.15536  0.57768  1
 O  O11  1  0.84615  0.30769  0.65385  1
 O  O12  1  0.69277  0.61446  0.80723  1
 O  O13  1  0.54066  0.91869  0.95934  1
