CIF file written using JARVIS-Tools package.
data_Li4Fe2SiO7
_symmetry_space_group_name_H-M  'P-1'
_cell_length_a       4.82333
_cell_length_b       4.85805
_cell_length_c       4.90877
_cell_angle_alpha    95.7576
_cell_angle_beta     101.439
_cell_angle_gamma    100.673

_symmetry_Int_Tables_number  2
_chemical_formula_structural  Li4Fe2SiO7
_chemical_formula_sum  Li4Fe2SiO7
_cell_volume  109.66003122981112
_cell_formula_units_Z  1
loop_
  _symmetry_equiv_pos_site_id
 _symmetry_equiv_pos_as_xyz
 1  'x, y, z'
loop_
 _atom_site_type_symbol
 _atom_site_label
 _atom_site_symmetry_multiplicity
 _atom_site_fract_x
 _atom_site_fract_y
 _atom_site_fract_z
 _atom_site_fract_occupancy
 Fe  Fe1  1  0.20115  0.92753  0.34779  1
 Fe  Fe2  1  0.79885  0.07247  0.65221  1
 Li  Li1  1  0.07713  0.64663  0.80829  1
 Li  Li2  1  0.35749  0.22332  0.93575  1
 Li  Li3  1  0.64251  0.77668  0.06425  1
 Li  Li4  1  0.92287  0.35337  0.19171  1
 O  O1  1  0.30229  0.58325  0.18634  1
 O  O2  1  0.00000  0.00000  0.00000  1
 O  O3  1  0.16090  0.27559  0.55652  1
 O  O4  1  0.43921  0.82293  0.67762  1
 O  O5  1  0.56079  0.17707  0.32238  1
 O  O6  1  0.83910  0.72441  0.44348  1
 O  O7  1  0.69771  0.41675  0.81366  1
 Si  Si1  1  0.50000  0.50000  0.50000  1
