CIF file written using JARVIS-Tools package.
data_PtN2O6
_symmetry_space_group_name_H-M  'R-3'
_cell_length_a       6.14854
_cell_length_b       6.14854
_cell_length_c       6.14854
_cell_angle_alpha    44.8657
_cell_angle_beta     44.8657
_cell_angle_gamma    44.8657

_symmetry_Int_Tables_number  148
_chemical_formula_structural  PtN2O6
_chemical_formula_sum  PtN2O6
_cell_volume  105.25649859038428
_cell_formula_units_Z  1
loop_
  _symmetry_equiv_pos_site_id
 _symmetry_equiv_pos_as_xyz
 1  'x, y, z'
loop_
 _atom_site_type_symbol
 _atom_site_label
 _atom_site_symmetry_multiplicity
 _atom_site_fract_x
 _atom_site_fract_y
 _atom_site_fract_z
 _atom_site_fract_occupancy
 N  N1  1  0.58863  0.58863  0.58863  1
 N  N2  1  0.41137  0.41137  0.41137  1
 O  O1  1  0.85698  0.30722  0.59815  1
 O  O2  1  0.59815  0.85698  0.30722  1
 O  O3  1  0.30722  0.59815  0.85698  1
 O  O4  1  0.14302  0.69278  0.40185  1
 O  O5  1  0.40185  0.14302  0.69278  1
 O  O6  1  0.69278  0.40185  0.14302  1
 Pt  Pt1  1  0.00000  0.00000  0.00000  1
