CIF file written using JARVIS-Tools package.
data_Os
_symmetry_space_group_name_H-M  'P2_1/c'
_cell_length_a       5.15331
_cell_length_b       4.68202
_cell_length_c       5.16893
_cell_angle_alpha    90
_cell_angle_beta     105.533
_cell_angle_gamma    90

_symmetry_Int_Tables_number  14
_chemical_formula_structural  Os
_chemical_formula_sum  Os8
_cell_volume  120.1605891341656
_cell_formula_units_Z  8
loop_
  _symmetry_equiv_pos_site_id
 _symmetry_equiv_pos_as_xyz
 1  'x, y, z'
loop_
 _atom_site_type_symbol
 _atom_site_label
 _atom_site_symmetry_multiplicity
 _atom_site_fract_x
 _atom_site_fract_y
 _atom_site_fract_z
 _atom_site_fract_occupancy
 Os  Os1  1  0.39280  0.33812  0.79565  1
 Os  Os2  1  0.60720  0.83812  0.70435  1
 Os  Os3  1  0.60720  0.66188  0.20435  1
 Os  Os4  1  0.39280  0.16188  0.29565  1
 Os  Os5  1  0.86218  0.34246  0.63894  1
 Os  Os6  1  0.13782  0.84246  0.86106  1
 Os  Os7  1  0.13782  0.65754  0.36106  1
 Os  Os8  1  0.86218  0.15754  0.13894  1
