CIF file written using JARVIS-Tools package.
data_LuSnPt
_symmetry_space_group_name_H-M  'P-62m'
_cell_length_a       3.93316
_cell_length_b       7.45557
_cell_length_c       7.45553
_cell_angle_alpha    120
_cell_angle_beta     90
_cell_angle_gamma    90

_symmetry_Int_Tables_number  189
_chemical_formula_structural  LuSnPt
_chemical_formula_sum  Lu3Sn3Pt3
_cell_volume  189.33496754917064
_cell_formula_units_Z  3
loop_
  _symmetry_equiv_pos_site_id
 _symmetry_equiv_pos_as_xyz
 1  'x, y, z'
loop_
 _atom_site_type_symbol
 _atom_site_label
 _atom_site_symmetry_multiplicity
 _atom_site_fract_x
 _atom_site_fract_y
 _atom_site_fract_z
 _atom_site_fract_occupancy
 Lu  Lu1  1  0.50000  0.59749  0.00000  1
 Lu  Lu2  1  0.50000  0.40248  0.40250  1
 Lu  Lu3  1  0.50000  -0.00001  0.59750  1
 Pt  Pt1  1  0.00000  0.33332  0.66666  1
 Pt  Pt2  1  0.00000  0.66666  0.33334  1
 Pt  Pt3  1  0.50000  -0.00001  0.00000  1
 Sn  Sn1  1  0.00000  0.26288  -0.00000  1
 Sn  Sn2  1  0.00000  0.73710  0.73711  1
 Sn  Sn3  1  0.00000  -0.00001  0.26289  1
