CIF file written using JARVIS-Tools package.
data_Li2BiF5
_symmetry_space_group_name_H-M  'P1'
_cell_length_a       4.83146
_cell_length_b       5.56329
_cell_length_c       5.5497
_cell_angle_alpha    100.95
_cell_angle_beta     115.703
_cell_angle_gamma    64.0264

_symmetry_Int_Tables_number  1
_chemical_formula_structural  Li2BiF5
_chemical_formula_sum  Li2BiF5
_cell_volume  120.83387280246693
_cell_formula_units_Z  1
loop_
  _symmetry_equiv_pos_site_id
 _symmetry_equiv_pos_as_xyz
 1  'x, y, z'
loop_
 _atom_site_type_symbol
 _atom_site_label
 _atom_site_symmetry_multiplicity
 _atom_site_fract_x
 _atom_site_fract_y
 _atom_site_fract_z
 _atom_site_fract_occupancy
 Bi  Bi1  1  0.02491  -0.00032  -0.00032  1
 F  F1  1  0.92144  0.74679  0.62422  1
 F  F2  1  0.29788  0.62459  0.25309  1
 F  F3  1  0.66842  0.37574  0.74718  1
 F  F4  1  0.04498  0.25270  0.37543  1
 F  F5  1  0.57662  0.00095  0.00064  1
 Li  Li1  1  0.23268  0.49925  0.49897  1
 Li  Li2  1  0.73305  0.50030  0.50079  1
