CIF file written using JARVIS-Tools package.
data_U4Ga12Fe
_symmetry_space_group_name_H-M  'Im-3m'
_cell_length_a       7.40953
_cell_length_b       7.40966
_cell_length_c       7.4095
_cell_angle_alpha    109.472
_cell_angle_beta     109.47
_cell_angle_gamma    109.471

_symmetry_Int_Tables_number  229
_chemical_formula_structural  U4Ga12Fe
_chemical_formula_sum  U4Ga2Fe
_cell_volume  313.155301036754
_cell_formula_units_Z  1
loop_
  _symmetry_equiv_pos_site_id
 _symmetry_equiv_pos_as_xyz
 1  'x, y, z'
loop_
 _atom_site_type_symbol
 _atom_site_label
 _atom_site_symmetry_multiplicity
 _atom_site_fract_x
 _atom_site_fract_y
 _atom_site_fract_z
 _atom_site_fract_occupancy
 Fe  Fe1  1  1.00000  0.99996  -0.00000  1
 Ga  Ga1  1  0.74999  0.24998  0.49999  1
 Ga  Ga2  1  0.00001  0.28298  0.28296  1
 Ga  Ga3  1  0.00001  0.71701  0.71699  1
 Ga  Ga4  1  0.71705  0.00002  0.71706  1
 Ga  Ga5  1  0.71699  0.71701  0.00001  1
 Ga  Ga6  1  0.25001  0.50001  0.74998  1
 Ga  Ga7  1  0.28298  0.00000  0.28299  1
 Ga  Ga8  1  0.49999  0.75001  0.25002  1
 Ga  Ga9  1  0.49999  0.25000  0.75000  1
 Ga  Ga10  1  0.28296  0.28298  1.00000  1
 Ga  Ga11  1  0.75001  0.49999  0.25000  1
 Ga  Ga12  1  0.25002  0.75002  0.50000  1
 U  U1  1  0.49999  0.00000  -0.00000  1
 U  U2  1  0.50002  0.50001  0.50001  1
 U  U3  1  -0.00000  0.50002  0.99999  1
 U  U4  1  0.99999  0.00000  0.49999  1
