CIF file written using JARVIS-Tools package.
data_TbPt
_symmetry_space_group_name_H-M  'Pnma'
_cell_length_a       4.51092
_cell_length_b       5.58513
_cell_length_c       7.06826
_cell_angle_alpha    90
_cell_angle_beta     90
_cell_angle_gamma    90

_symmetry_Int_Tables_number  62
_chemical_formula_structural  TbPt
_chemical_formula_sum  Tb4Pt4
_cell_volume  178.07816947239277
_cell_formula_units_Z  4
loop_
  _symmetry_equiv_pos_site_id
 _symmetry_equiv_pos_as_xyz
 1  'x, y, z'
loop_
 _atom_site_type_symbol
 _atom_site_label
 _atom_site_symmetry_multiplicity
 _atom_site_fract_x
 _atom_site_fract_y
 _atom_site_fract_z
 _atom_site_fract_occupancy
 Pt  Pt1  1  0.25000  0.84116  0.54509  1
 Pt  Pt2  1  0.25000  0.65884  0.04509  1
 Pt  Pt3  1  0.75000  0.15884  0.45491  1
 Pt  Pt4  1  0.75000  0.34116  0.95491  1
 Tb  Tb1  1  0.25000  0.35736  0.68264  1
 Tb  Tb2  1  0.25000  0.14264  0.18264  1
 Tb  Tb3  1  0.75000  0.64264  0.31736  1
 Tb  Tb4  1  0.75000  0.85736  0.81736  1
