CIF file written using JARVIS-Tools package.
data_LiFeSnO4
_symmetry_space_group_name_H-M  'Imma'
_cell_length_a       6.29158
_cell_length_b       6.03121
_cell_length_c       6.03121
_cell_angle_alpha    56.7317
_cell_angle_beta     58.5613
_cell_angle_gamma    58.5614

_symmetry_Int_Tables_number  74
_chemical_formula_structural  LiFeSnO4
_chemical_formula_sum  Li2Fe2Sn2O8
_cell_volume  154.11101199299597
_cell_formula_units_Z  2
loop_
  _symmetry_equiv_pos_site_id
 _symmetry_equiv_pos_as_xyz
 1  'x, y, z'
loop_
 _atom_site_type_symbol
 _atom_site_label
 _atom_site_symmetry_multiplicity
 _atom_site_fract_x
 _atom_site_fract_y
 _atom_site_fract_z
 _atom_site_fract_occupancy
 Fe  Fe1  1  0.50000  0.00000  0.50000  1
 Fe  Fe2  1  0.50000  0.50000  0.00000  1
 Li  Li1  1  0.12648  0.12352  0.12352  1
 Li  Li2  1  0.87352  0.87648  0.87648  1
 O  O1  1  0.28009  0.25652  0.25652  1
 O  O2  1  0.26874  0.23883  0.72370  1
 O  O3  1  0.26874  0.72370  0.23883  1
 O  O4  1  0.70689  0.25652  0.25652  1
 O  O5  1  0.29311  0.74348  0.74348  1
 O  O6  1  0.73126  0.76117  0.27630  1
 O  O7  1  0.73126  0.27630  0.76117  1
 O  O8  1  0.71991  0.74348  0.74348  1
 Sn  Sn1  1  0.00000  0.50000  0.50000  1
 Sn  Sn2  1  0.50000  0.50000  0.50000  1
