CIF file written using JARVIS-Tools package.
data_Li2H2Pt
_symmetry_space_group_name_H-M  'Immm'
_cell_length_a       5.48002
_cell_length_b       5.48002
_cell_length_c       5.48002
_cell_angle_alpha    145.734
_cell_angle_beta     147.377
_cell_angle_gamma    48.0352

_symmetry_Int_Tables_number  71
_chemical_formula_structural  Li2H2Pt
_chemical_formula_sum  Li2H2Pt
_cell_volume  49.748211850273066
_cell_formula_units_Z  1
loop_
  _symmetry_equiv_pos_site_id
 _symmetry_equiv_pos_as_xyz
 1  'x, y, z'
loop_
 _atom_site_type_symbol
 _atom_site_label
 _atom_site_symmetry_multiplicity
 _atom_site_fract_x
 _atom_site_fract_y
 _atom_site_fract_z
 _atom_site_fract_occupancy
 H  H1  1  0.83338  0.83338  -0.00000  1
 H  H2  1  0.16662  0.16662  -0.00000  1
 Li  Li1  1  0.63843  0.63843  -0.00000  1
 Li  Li2  1  0.36157  0.36157  -0.00000  1
 Pt  Pt1  1  0.00000  0.00000  0.00000  1
