CIF file written using JARVIS-Tools package.
data_V2CoO6
_symmetry_space_group_name_H-M  'R3'
_cell_length_a       5.32761
_cell_length_b       5.3282
_cell_length_c       5.3271
_cell_angle_alpha    54.3429
_cell_angle_beta     54.3455
_cell_angle_gamma    54.3362

_symmetry_Int_Tables_number  146
_chemical_formula_structural  V2CoO6
_chemical_formula_sum  V2CoO6
_cell_volume  92.81282723584228
_cell_formula_units_Z  1
loop_
  _symmetry_equiv_pos_site_id
 _symmetry_equiv_pos_as_xyz
 1  'x, y, z'
loop_
 _atom_site_type_symbol
 _atom_site_label
 _atom_site_symmetry_multiplicity
 _atom_site_fract_x
 _atom_site_fract_y
 _atom_site_fract_z
 _atom_site_fract_occupancy
 Co  Co1  1  0.69022  0.69024  0.69010  1
 O  O1  1  0.10677  0.75162  0.42046  1
 O  O2  1  0.42059  0.10676  0.75154  1
 O  O3  1  0.75168  0.42051  0.10670  1
 O  O4  1  0.27951  0.64453  0.87490  1
 O  O5  1  0.64442  0.87512  0.27932  1
 O  O6  1  0.87502  0.27956  0.64434  1
 V  V1  1  0.99473  0.99477  -0.00516  1
 V  V2  1  0.48786  0.48768  0.48781  1
