CIF file written using JARVIS-Tools package.
data_K4UP2O10
_symmetry_space_group_name_H-M  'P4_2/nmc'
_cell_length_a       6.90458
_cell_length_b       6.90458
_cell_length_c       11.9036
_cell_angle_alpha    90
_cell_angle_beta     90
_cell_angle_gamma    90

_symmetry_Int_Tables_number  137
_chemical_formula_structural  K4UP2O10
_chemical_formula_sum  K8U2P4O20
_cell_volume  567.4844631355965
_cell_formula_units_Z  2
loop_
  _symmetry_equiv_pos_site_id
 _symmetry_equiv_pos_as_xyz
 1  'x, y, z'
loop_
 _atom_site_type_symbol
 _atom_site_label
 _atom_site_symmetry_multiplicity
 _atom_site_fract_x
 _atom_site_fract_y
 _atom_site_fract_z
 _atom_site_fract_occupancy
 K  K1  1  0.75000  0.50220  0.92152  1
 K  K2  1  0.25000  0.49780  0.07848  1
 K  K3  1  0.75000  0.99780  0.92152  1
 K  K4  1  0.00220  0.25000  0.57848  1
 K  K5  1  0.25000  0.00220  0.07848  1
 K  K6  1  0.49780  0.25000  0.57848  1
 K  K7  1  0.99780  0.75000  0.42152  1
 K  K8  1  0.50220  0.75000  0.42152  1
 O  O1  1  0.25000  0.43482  0.40171  1
 O  O2  1  0.92575  0.75000  0.75480  1
 O  O3  1  0.25000  0.75000  0.59372  1
 O  O4  1  0.25000  0.07425  0.74520  1
 O  O5  1  0.75000  0.25000  0.40628  1
 O  O6  1  0.75000  0.57425  0.25480  1
 O  O7  1  0.75000  0.92575  0.25480  1
 O  O8  1  0.75000  0.56518  0.59829  1
 O  O9  1  0.93482  0.75000  0.09829  1
 O  O10  1  0.56518  0.75000  0.09829  1
 O  O11  1  0.43482  0.25000  0.90171  1
 O  O12  1  0.42575  0.25000  0.24520  1
 O  O13  1  0.06518  0.25000  0.90171  1
 O  O14  1  0.07425  0.25000  0.24520  1
 O  O15  1  0.25000  0.06518  0.40171  1
 O  O16  1  0.57425  0.75000  0.75480  1
 O  O17  1  0.25000  0.75000  0.90628  1
 O  O18  1  0.75000  0.25000  0.09372  1
 O  O19  1  0.25000  0.42575  0.74520  1
 O  O20  1  0.75000  0.93482  0.59829  1
 P  P1  1  0.75000  0.75000  0.66899  1
 P  P2  1  0.25000  0.25000  0.83101  1
 P  P3  1  0.25000  0.25000  0.33101  1
 P  P4  1  0.75000  0.75000  0.16899  1
 U  U1  1  0.25000  0.75000  0.75000  1
 U  U2  1  0.75000  0.25000  0.25000  1
