CIF file written using JARVIS-Tools package.
data_Bi3O4F
_symmetry_space_group_name_H-M  'Cmcm'
_cell_length_a       4.0537
_cell_length_b       11.3923
_cell_length_c       6.58472
_cell_angle_alpha    90
_cell_angle_beta     72.0726
_cell_angle_gamma    90

_symmetry_Int_Tables_number  63
_chemical_formula_structural  Bi3O4F
_chemical_formula_sum  Bi6O8F2
_cell_volume  289.3239806609756
_cell_formula_units_Z  2
loop_
  _symmetry_equiv_pos_site_id
 _symmetry_equiv_pos_as_xyz
 1  'x, y, z'
loop_
 _atom_site_type_symbol
 _atom_site_label
 _atom_site_symmetry_multiplicity
 _atom_site_fract_x
 _atom_site_fract_y
 _atom_site_fract_z
 _atom_site_fract_occupancy
 Bi  Bi1  1  0.66717  0.75000  0.66567  1
 Bi  Bi2  1  0.63283  0.41056  0.73434  1
 Bi  Bi3  1  0.63283  0.08944  0.73434  1
 Bi  Bi4  1  0.36717  0.91056  0.26566  1
 Bi  Bi5  1  0.36717  0.58944  0.26566  1
 Bi  Bi6  1  0.33283  0.25000  0.33433  1
 F  F1  1  0.00000  0.00000  0.00000  1
 F  F2  1  0.00000  0.50000  0.00000  1
 O  O1  1  0.53722  0.25000  0.92555  1
 O  O2  1  0.24723  0.75000  0.50553  1
 O  O3  1  0.77531  0.59528  0.44938  1
 O  O4  1  0.77531  0.90472  0.44938  1
 O  O5  1  0.22469  0.09528  0.55062  1
 O  O6  1  0.22469  0.40472  0.55062  1
 O  O7  1  0.75277  0.25000  0.49447  1
 O  O8  1  0.46278  0.75000  0.07445  1
