CIF file written using JARVIS-Tools package.
data_Li2BeCl
_symmetry_space_group_name_H-M  'I-4m2'
_cell_length_a       6.68438
_cell_length_b       6.68438
_cell_length_c       6.68438
_cell_angle_alpha    150.291
_cell_angle_beta     150.291
_cell_angle_gamma    42.5151

_symmetry_Int_Tables_number  119
_chemical_formula_structural  Li2BeCl
_chemical_formula_sum  Li2BeCl
_cell_volume  73.17692649980455
_cell_formula_units_Z  1
loop_
  _symmetry_equiv_pos_site_id
 _symmetry_equiv_pos_as_xyz
 1  'x, y, z'
loop_
 _atom_site_type_symbol
 _atom_site_label
 _atom_site_symmetry_multiplicity
 _atom_site_fract_x
 _atom_site_fract_y
 _atom_site_fract_z
 _atom_site_fract_occupancy
 Be  Be1  1  0.50000  0.50000  0.00000  1
 Cl  Cl1  1  0.75000  0.25000  0.50000  1
 Li  Li1  1  0.00000  0.00000  0.00000  1
 Li  Li2  1  0.25000  0.75000  0.50000  1
