CIF file written using JARVIS-Tools package.
data_LiFeF4
_symmetry_space_group_name_H-M  'C2/m'
_cell_length_a       3.88331
_cell_length_b       6.40079
_cell_length_c       6.7783
_cell_angle_alpha    105.488
_cell_angle_beta     89.9986
_cell_angle_gamma    107.645

_symmetry_Int_Tables_number  12
_chemical_formula_structural  LiFeF4
_chemical_formula_sum  Li2Fe2F8
_cell_volume  154.12474460184654
_cell_formula_units_Z  2
loop_
  _symmetry_equiv_pos_site_id
 _symmetry_equiv_pos_as_xyz
 1  'x, y, z'
loop_
 _atom_site_type_symbol
 _atom_site_label
 _atom_site_symmetry_multiplicity
 _atom_site_fract_x
 _atom_site_fract_y
 _atom_site_fract_z
 _atom_site_fract_occupancy
 F  F1  1  0.92637  0.85799  0.12170  1
 F  F2  1  0.86768  0.74054  0.51169  1
 F  F3  1  0.27841  0.56186  0.16594  1
 F  F4  1  0.34855  0.70224  0.79579  1
 F  F5  1  0.64440  0.29362  0.20644  1
 F  F6  1  0.71454  0.43400  0.83628  1
 F  F7  1  0.12531  0.25532  0.49054  1
 F  F8  1  0.06657  0.13787  0.88053  1
 Fe  Fe1  1  0.80291  0.61087  0.23565  1
 Fe  Fe2  1  0.19006  0.38499  0.76660  1
 Li  Li1  1  0.90463  0.81451  0.81056  1
 Li  Li2  1  0.08831  0.18135  0.19168  1
