CIF file written using JARVIS-Tools package.
data_BePPb
_symmetry_space_group_name_H-M  'I4mm'
_cell_length_a       6.22834
_cell_length_b       6.22834
_cell_length_c       6.22834
_cell_angle_alpha    149.942
_cell_angle_beta     149.942
_cell_angle_gamma    43.026

_symmetry_Int_Tables_number  107
_chemical_formula_structural  BePPb
_chemical_formula_sum  BePPb
_cell_volume  60.455797311461644
_cell_formula_units_Z  1
loop_
  _symmetry_equiv_pos_site_id
 _symmetry_equiv_pos_as_xyz
 1  'x, y, z'
loop_
 _atom_site_type_symbol
 _atom_site_label
 _atom_site_symmetry_multiplicity
 _atom_site_fract_x
 _atom_site_fract_y
 _atom_site_fract_z
 _atom_site_fract_occupancy
 Be  Be1  1  0.91600  0.91600  0.00000  1
 P  P1  1  0.42252  0.42252  0.00000  1
 Pb  Pb1  1  0.66147  0.66147  -0.00000  1
