CIF file written using JARVIS-Tools package.
data_HfBeBi
_symmetry_space_group_name_H-M  'I4mm'
_cell_length_a       5.92898
_cell_length_b       5.92898
_cell_length_c       5.92898
_cell_angle_alpha    147.142
_cell_angle_beta     147.142
_cell_angle_gamma    47.1538

_symmetry_Int_Tables_number  107
_chemical_formula_structural  HfBeBi
_chemical_formula_sum  HfBeBi
_cell_volume  61.12093817976894
_cell_formula_units_Z  1
loop_
  _symmetry_equiv_pos_site_id
 _symmetry_equiv_pos_as_xyz
 1  'x, y, z'
loop_
 _atom_site_type_symbol
 _atom_site_label
 _atom_site_symmetry_multiplicity
 _atom_site_fract_x
 _atom_site_fract_y
 _atom_site_fract_z
 _atom_site_fract_occupancy
 Be  Be1  1  0.02292  0.02292  0.00000  1
 Bi  Bi1  1  0.33964  0.33964  0.00000  1
 Hf  Hf1  1  0.63744  0.63744  0.00000  1
