CIF file written using JARVIS-Tools package.
data_MgZn
_symmetry_space_group_name_H-M  'C2/m'
_cell_length_a       10.2714
_cell_length_b       3.0751
_cell_length_c       4.8678
_cell_angle_alpha    90
_cell_angle_beta     109.27
_cell_angle_gamma    90

_symmetry_Int_Tables_number  12
_chemical_formula_structural  MgZn
_chemical_formula_sum  Mg4Zn4
_cell_volume  145.1378858915331
_cell_formula_units_Z  4
loop_
  _symmetry_equiv_pos_site_id
 _symmetry_equiv_pos_as_xyz
 1  'x, y, z'
loop_
 _atom_site_type_symbol
 _atom_site_label
 _atom_site_symmetry_multiplicity
 _atom_site_fract_x
 _atom_site_fract_y
 _atom_site_fract_z
 _atom_site_fract_occupancy
 Mg  Mg1  1  0.60897  0.50000  0.82070  1
 Mg  Mg2  1  0.89103  0.00000  0.17930  1
 Mg  Mg3  1  0.10897  0.00000  0.82070  1
 Mg  Mg4  1  0.39103  0.50000  0.17930  1
 Zn  Zn1  1  0.85640  0.50000  0.66309  1
 Zn  Zn2  1  0.64360  0.00000  0.33691  1
 Zn  Zn3  1  0.35640  0.00000  0.66309  1
 Zn  Zn4  1  0.14360  0.50000  0.33691  1
