CIF file written using JARVIS-Tools package.
data_Ce3SiPt5
_symmetry_space_group_name_H-M  'Imma'
_cell_length_a       7.27414
_cell_length_b       7.52631
_cell_length_c       8.38573
_cell_angle_alpha    116.664
_cell_angle_beta     115.704
_cell_angle_gamma    90

_symmetry_Int_Tables_number  74
_chemical_formula_structural  Ce3SiPt5
_chemical_formula_sum  Ce6Si2Pt0
_cell_volume  358.71364665546304
_cell_formula_units_Z  2
loop_
  _symmetry_equiv_pos_site_id
 _symmetry_equiv_pos_as_xyz
 1  'x, y, z'
loop_
 _atom_site_type_symbol
 _atom_site_label
 _atom_site_symmetry_multiplicity
 _atom_site_fract_x
 _atom_site_fract_y
 _atom_site_fract_z
 _atom_site_fract_occupancy
 Ce  Ce1  1  0.54861  0.27137  0.09722  1
 Ce  Ce2  1  0.25000  0.87990  0.50000  1
 Ce  Ce3  1  0.45139  0.72863  0.90278  1
 Ce  Ce4  1  0.75000  0.12010  0.50000  1
 Ce  Ce5  1  0.95139  0.67415  0.90278  1
 Ce  Ce6  1  0.04861  0.32585  0.09722  1
 Pt  Pt1  1  -0.00000  0.50000  0.50000  1
 Pt  Pt2  1  0.10191  0.95808  0.79143  1
 Pt  Pt3  1  0.18952  0.33335  0.79143  1
 Pt  Pt4  1  0.89809  0.04192  0.20857  1
 Pt  Pt5  1  0.68952  0.95808  0.79143  1
 Pt  Pt6  1  0.31048  0.04192  0.20857  1
 Pt  Pt7  1  0.81048  0.66665  0.20857  1
 Pt  Pt8  1  0.39809  0.66665  0.20857  1
 Pt  Pt9  1  0.60191  0.33335  0.79143  1
 Pt  Pt10  1  0.50000  0.50000  0.50000  1
 Si  Si1  1  0.75000  0.72148  0.50000  1
 Si  Si2  1  0.25000  0.27852  0.50000  1
