CIF file written using JARVIS-Tools package.
data_Mn2Au5
_symmetry_space_group_name_H-M  'C2/m'
_cell_length_a       3.88431
_cell_length_b       5.0186
_cell_length_c       6.65897
_cell_angle_alpha    96.2396
_cell_angle_beta     90
_cell_angle_gamma    112.767

_symmetry_Int_Tables_number  12
_chemical_formula_structural  Mn2Au5
_chemical_formula_sum  Mn2Au5
_cell_volume  118.86004735741582
_cell_formula_units_Z  1
loop_
  _symmetry_equiv_pos_site_id
 _symmetry_equiv_pos_as_xyz
 1  'x, y, z'
loop_
 _atom_site_type_symbol
 _atom_site_label
 _atom_site_symmetry_multiplicity
 _atom_site_fract_x
 _atom_site_fract_y
 _atom_site_fract_z
 _atom_site_fract_occupancy
 Au  Au1  1  0.86329  0.72657  0.56666  1
 Au  Au2  1  0.71414  0.42828  0.14594  1
 Au  Au3  1  0.28586  0.57172  0.85406  1
 Au  Au4  1  0.13671  0.27343  0.43334  1
 Au  Au5  1  0.00000  0.00000  0.00000  1
 Mn  Mn1  1  0.57613  0.15227  0.71855  1
 Mn  Mn2  1  0.42387  0.84773  0.28145  1
