CIF file written using JARVIS-Tools package.
data_TaS3
_symmetry_space_group_name_H-M  'Aea2'
_cell_length_a       5.10653
_cell_length_b       5.10653
_cell_length_c       5.18293
_cell_angle_alpha    90
_cell_angle_beta     90
_cell_angle_gamma    98.4246

_symmetry_Int_Tables_number  41
_chemical_formula_structural  TaS3
_chemical_formula_sum  Ta2S6
_cell_volume  133.69513255509904
_cell_formula_units_Z  2
loop_
  _symmetry_equiv_pos_site_id
 _symmetry_equiv_pos_as_xyz
 1  'x, y, z'
loop_
 _atom_site_type_symbol
 _atom_site_label
 _atom_site_symmetry_multiplicity
 _atom_site_fract_x
 _atom_site_fract_y
 _atom_site_fract_z
 _atom_site_fract_occupancy
 S  S1  1  0.62223  0.62223  0.00000  1
 S  S2  1  0.12223  0.12223  0.50000  1
 S  S3  1  0.51582  0.12355  0.83852  1
 S  S4  1  0.12355  0.51582  0.16148  1
 S  S5  1  0.01582  0.62355  0.66148  1
 S  S6  1  0.62355  0.01582  0.33852  1
 Ta  Ta1  1  0.99450  0.99450  0.00000  1
 Ta  Ta2  1  0.49450  0.49450  0.50000  1
