CIF file written using JARVIS-Tools package.
data_CaGa4
_symmetry_space_group_name_H-M  'C2/m'
_cell_length_a       4.37639
_cell_length_b       4.37639
_cell_length_c       6.1235
_cell_angle_alpha    69.6153
_cell_angle_beta     69.6154
_cell_angle_gamma    89.5398

_symmetry_Int_Tables_number  12
_chemical_formula_structural  CaGa4
_chemical_formula_sum  CaGa4
_cell_volume  102.19264495935224
_cell_formula_units_Z  1
loop_
  _symmetry_equiv_pos_site_id
 _symmetry_equiv_pos_as_xyz
 1  'x, y, z'
loop_
 _atom_site_type_symbol
 _atom_site_label
 _atom_site_symmetry_multiplicity
 _atom_site_fract_x
 _atom_site_fract_y
 _atom_site_fract_z
 _atom_site_fract_occupancy
 Ca  Ca1  1  0.00000  0.00000  0.00000  1
 Ga  Ga1  1  0.40477  0.40477  0.23068  1
 Ga  Ga2  1  0.59523  0.59523  0.76932  1
 Ga  Ga3  1  0.23253  0.76747  0.50000  1
 Ga  Ga4  1  0.76747  0.23253  0.50000  1
