CIF file written using JARVIS-Tools package.
data_KNiAu3C6N6
_symmetry_space_group_name_H-M  'P312'
_cell_length_a       6.68718
_cell_length_b       6.68718
_cell_length_c       7.79318
_cell_angle_alpha    90
_cell_angle_beta     90
_cell_angle_gamma    120

_symmetry_Int_Tables_number  149
_chemical_formula_structural  KNiAu3C6N6
_chemical_formula_sum  KNiAu3C6N6
_cell_volume  301.8083156403822
_cell_formula_units_Z  1
loop_
  _symmetry_equiv_pos_site_id
 _symmetry_equiv_pos_as_xyz
 1  'x, y, z'
loop_
 _atom_site_type_symbol
 _atom_site_label
 _atom_site_symmetry_multiplicity
 _atom_site_fract_x
 _atom_site_fract_y
 _atom_site_fract_z
 _atom_site_fract_occupancy
 Au  Au1  1  0.49662  0.50338  0.00000  1
 Au  Au2  1  0.00676  0.50338  0.00000  1
 Au  Au3  1  0.49662  0.99324  0.00000  1
 C  C1  1  0.33804  0.34529  0.21545  1
 C  C2  1  0.65471  0.99275  0.21545  1
 C  C3  1  0.33804  0.99275  0.78455  1
 C  C4  1  0.00725  0.34529  0.78455  1
 C  C5  1  0.00725  0.66196  0.21545  1
 C  C6  1  0.65471  0.66196  0.78455  1
 K  K1  1  0.66667  0.33333  0.50000  1
 N  N1  1  0.24222  0.24592  0.33990  1
 N  N2  1  0.75408  0.75778  0.66010  1
 N  N3  1  0.24222  0.99631  0.66010  1
 N  N4  1  0.75408  0.99631  0.33990  1
 N  N5  1  0.00369  0.75778  0.33990  1
 N  N6  1  0.00369  0.24592  0.66010  1
 Ni  Ni1  1  0.00000  0.00000  0.50000  1
