CIF file written using JARVIS-Tools package.
data_VSb4O12
_symmetry_space_group_name_H-M  'P1'
_cell_length_a       5.03897
_cell_length_b       5.48234
_cell_length_c       7.64002
_cell_angle_alpha    95.3729
_cell_angle_beta     90.1471
_cell_angle_gamma    91.0471

_symmetry_Int_Tables_number  1
_chemical_formula_structural  VSb4O12
_chemical_formula_sum  VSb4O2
_cell_volume  210.09422711290856
_cell_formula_units_Z  1
loop_
  _symmetry_equiv_pos_site_id
 _symmetry_equiv_pos_as_xyz
 1  'x, y, z'
loop_
 _atom_site_type_symbol
 _atom_site_label
 _atom_site_symmetry_multiplicity
 _atom_site_fract_x
 _atom_site_fract_y
 _atom_site_fract_z
 _atom_site_fract_occupancy
 O  O1  1  0.66655  0.46274  0.75121  1
 O  O2  1  0.28025  0.75488  0.58887  1
 O  O3  1  0.15560  0.98210  0.26950  1
 O  O4  1  0.32262  0.15863  0.93928  1
 O  O5  1  0.89589  0.93022  0.76070  1
 O  O6  1  0.17648  0.30098  0.59869  1
 O  O7  1  0.34073  0.48532  0.25649  1
 O  O8  1  0.83041  0.30692  0.08779  1
 O  O9  1  0.65291  0.13708  0.44517  1
 O  O10  1  0.83101  0.64357  0.47362  1
 O  O11  1  0.68369  0.79265  0.07632  1
 O  O12  1  0.17899  0.65191  0.93310  1
 Sb  Sb1  1  0.50751  0.46799  0.02381  1
 Sb  Sb2  1  0.99011  0.98978  0.49726  1
 Sb  Sb3  1  0.49056  0.46042  0.48455  1
 Sb  Sb4  1  0.00381  0.99635  0.03194  1
 V  V1  1  -0.00714  0.59704  0.72241  1
