CIF file written using JARVIS-Tools package.
data_Ba3Ag2
_symmetry_space_group_name_H-M  'R-3'
_cell_length_a       8.80149
_cell_length_b       8.80149
_cell_length_c       8.80148
_cell_angle_alpha    71.7714
_cell_angle_beta     71.7714
_cell_angle_gamma    71.7714

_symmetry_Int_Tables_number  148
_chemical_formula_structural  Ba3Ag2
_chemical_formula_sum  Ba9Ag6
_cell_volume  597.3849952105433
_cell_formula_units_Z  3
loop_
  _symmetry_equiv_pos_site_id
 _symmetry_equiv_pos_as_xyz
 1  'x, y, z'
loop_
 _atom_site_type_symbol
 _atom_site_label
 _atom_site_symmetry_multiplicity
 _atom_site_fract_x
 _atom_site_fract_y
 _atom_site_fract_z
 _atom_site_fract_occupancy
 Ag  Ag1  1  0.64668  0.45957  0.09004  1
 Ag  Ag2  1  0.09004  0.64668  0.45957  1
 Ag  Ag3  1  0.45957  0.09004  0.64668  1
 Ag  Ag4  1  0.35332  0.54043  0.90996  1
 Ag  Ag5  1  0.90996  0.35332  0.54043  1
 Ag  Ag6  1  0.54043  0.90996  0.35332  1
 Ba  Ba1  1  0.50000  0.50000  0.50000  1
 Ba  Ba2  1  0.29642  0.29642  0.29642  1
 Ba  Ba3  1  0.70358  0.70358  0.70358  1
 Ba  Ba4  1  0.33692  0.83843  0.10372  1
 Ba  Ba5  1  0.10372  0.33692  0.83843  1
 Ba  Ba6  1  0.83843  0.10372  0.33692  1
 Ba  Ba7  1  0.66308  0.16157  0.89628  1
 Ba  Ba8  1  0.89628  0.66308  0.16157  1
 Ba  Ba9  1  0.16157  0.89628  0.66308  1
