CIF file written using JARVIS-Tools package.
data_BaBi4Br2O6
_symmetry_space_group_name_H-M  'I4/mmm'
_cell_length_a       4.02797
_cell_length_b       4.02797
_cell_length_c       16.5641
_cell_angle_alpha    96.9838
_cell_angle_beta     96.9838
_cell_angle_gamma    90

_symmetry_Int_Tables_number  139
_chemical_formula_structural  BaBi4Br2O6
_chemical_formula_sum  BaBi4Br2O6
_cell_volume  264.74263532512794
_cell_formula_units_Z  1
loop_
  _symmetry_equiv_pos_site_id
 _symmetry_equiv_pos_as_xyz
 1  'x, y, z'
loop_
 _atom_site_type_symbol
 _atom_site_label
 _atom_site_symmetry_multiplicity
 _atom_site_fract_x
 _atom_site_fract_y
 _atom_site_fract_z
 _atom_site_fract_occupancy
 Ba  Ba1  1  0.50000  0.50000  0.00000  1
 Bi  Bi1  1  0.08591  0.08591  0.17181  1
 Bi  Bi2  1  0.91409  0.91409  0.82819  1
 Bi  Bi3  1  0.78759  0.78759  0.57518  1
 Bi  Bi4  1  0.21241  0.21241  0.42482  1
 Br  Br1  1  0.33577  0.33577  0.67155  1
 Br  Br2  1  0.66423  0.66423  0.32845  1
 O  O1  1  0.94332  0.44332  0.88664  1
 O  O2  1  0.05668  0.55668  0.11336  1
 O  O3  1  0.55668  0.05668  0.11336  1
 O  O4  1  0.44332  0.94332  0.88664  1
 O  O5  1  0.25000  0.75000  0.50000  1
 O  O6  1  0.75000  0.25000  0.50000  1
