CIF file written using JARVIS-Tools package.
data_KBeHg
_symmetry_space_group_name_H-M  'I4mm'
_cell_length_a       6.5602
_cell_length_b       6.5602
_cell_length_c       6.5602
_cell_angle_alpha    149.102
_cell_angle_beta     149.102
_cell_angle_gamma    44.2606

_symmetry_Int_Tables_number  107
_chemical_formula_structural  KBeHg
_chemical_formula_sum  KBeHg
_cell_volume  74.22842656629945
_cell_formula_units_Z  1
loop_
  _symmetry_equiv_pos_site_id
 _symmetry_equiv_pos_as_xyz
 1  'x, y, z'
loop_
 _atom_site_type_symbol
 _atom_site_label
 _atom_site_symmetry_multiplicity
 _atom_site_fract_x
 _atom_site_fract_y
 _atom_site_fract_z
 _atom_site_fract_occupancy
 Be  Be1  1  0.93498  0.93498  -0.00000  1
 Hg  Hg1  1  0.39548  0.39548  0.00000  1
 K  K1  1  0.66954  0.66954  -0.00000  1
