CIF file written using JARVIS-Tools package.
data_CuN
_symmetry_space_group_name_H-M  'C2/m'
_cell_length_a       2.85732
_cell_length_b       5.89088
_cell_length_c       6.0922
_cell_angle_alpha    78.8479
_cell_angle_beta     89.9902
_cell_angle_gamma    60.9645

_symmetry_Int_Tables_number  12
_chemical_formula_structural  CuN
_chemical_formula_sum  Cu4N4
_cell_volume  87.43744043942571
_cell_formula_units_Z  4
loop_
  _symmetry_equiv_pos_site_id
 _symmetry_equiv_pos_as_xyz
 1  'x, y, z'
loop_
 _atom_site_type_symbol
 _atom_site_label
 _atom_site_symmetry_multiplicity
 _atom_site_fract_x
 _atom_site_fract_y
 _atom_site_fract_z
 _atom_site_fract_occupancy
 Cu  Cu1  1  0.39150  0.62263  0.66122  1
 Cu  Cu2  1  0.63664  0.37736  0.33877  1
 Cu  Cu3  1  0.39151  0.12261  0.66123  1
 Cu  Cu4  1  0.63663  0.87738  0.33876  1
 N  N1  1  0.98807  0.02600  0.90046  1
 N  N2  1  0.04003  0.97401  0.09954  1
 N  N3  1  0.98808  0.52600  0.90047  1
 N  N4  1  0.04002  0.47402  0.09954  1
