CIF file written using JARVIS-Tools package.
data_LaSiNi
_symmetry_space_group_name_H-M  'I4_1md'
_cell_length_a       4.20143
_cell_length_b       4.20143
_cell_length_c       7.61847
_cell_angle_alpha    106.006
_cell_angle_beta     106.006
_cell_angle_gamma    89.9999

_symmetry_Int_Tables_number  109
_chemical_formula_structural  LaSiNi
_chemical_formula_sum  La2Si2Ni2
_cell_volume  123.83464478055421
_cell_formula_units_Z  2
loop_
  _symmetry_equiv_pos_site_id
 _symmetry_equiv_pos_as_xyz
 1  'x, y, z'
loop_
 _atom_site_type_symbol
 _atom_site_label
 _atom_site_symmetry_multiplicity
 _atom_site_fract_x
 _atom_site_fract_y
 _atom_site_fract_z
 _atom_site_fract_occupancy
 La  La1  1  0.74839  0.24839  0.49678  1
 La  La2  1  0.99839  0.99839  0.99678  1
 Ni  Ni1  1  0.58751  0.58751  0.17501  1
 Ni  Ni2  1  0.33751  0.83751  0.67501  1
 Si  Si1  1  0.16810  0.66810  0.33620  1
 Si  Si2  1  0.41810  0.41810  0.83620  1
