CIF file written using JARVIS-Tools package.
data_TiCu3O4
_symmetry_space_group_name_H-M  'Cm'
_cell_length_a       6.0984
_cell_length_b       6.09841
_cell_length_c       17.4008
_cell_angle_alpha    23.8005
_cell_angle_beta     23.8004
_cell_angle_gamma    28.2291

_symmetry_Int_Tables_number  8
_chemical_formula_structural  TiCu3O4
_chemical_formula_sum  TiCu3O4
_cell_volume  101.486056562978
_cell_formula_units_Z  1
loop_
  _symmetry_equiv_pos_site_id
 _symmetry_equiv_pos_as_xyz
 1  'x, y, z'
loop_
 _atom_site_type_symbol
 _atom_site_label
 _atom_site_symmetry_multiplicity
 _atom_site_fract_x
 _atom_site_fract_y
 _atom_site_fract_z
 _atom_site_fract_occupancy
 Cu  Cu1  1  0.92546  0.92546  0.05249  1
 Cu  Cu2  1  0.03874  0.03874  0.63635  1
 Cu  Cu3  1  0.66616  0.66616  0.39874  1
 O  O1  1  0.00126  0.00126  0.10703  1
 O  O2  1  0.11991  0.11991  0.68856  1
 O  O3  1  0.96358  0.96358  0.58078  1
 O  O4  1  0.84720  0.84720  0.99923  1
 Ti  Ti1  1  0.43770  0.43770  0.87016  1
