CIF file written using JARVIS-Tools package.
data_EuIO
_symmetry_space_group_name_H-M  'P4/nmm'
_cell_length_a       3.99426
_cell_length_b       3.99426
_cell_length_c       9.2446
_cell_angle_alpha    90.0012
_cell_angle_beta     90.0014
_cell_angle_gamma    89.9994

_symmetry_Int_Tables_number  129
_chemical_formula_structural  EuIO
_chemical_formula_sum  Eu2I2O2
_cell_volume  147.48942140506514
_cell_formula_units_Z  2
loop_
  _symmetry_equiv_pos_site_id
 _symmetry_equiv_pos_as_xyz
 1  'x, y, z'
loop_
 _atom_site_type_symbol
 _atom_site_label
 _atom_site_symmetry_multiplicity
 _atom_site_fract_x
 _atom_site_fract_y
 _atom_site_fract_z
 _atom_site_fract_occupancy
 Eu  Eu1  1  0.00001  0.50001  0.12273  1
 Eu  Eu2  1  0.49999  -0.00001  0.87727  1
 I  I1  1  -0.00002  0.49999  0.67331  1
 I  I2  1  0.50002  0.00001  0.32670  1
 O  O1  1  0.00000  0.00000  0.00000  1
 O  O2  1  0.50000  0.50000  0.00000  1
