CIF file written using JARVIS-Tools package.
data_ZrBeGa
_symmetry_space_group_name_H-M  'I4mm'
_cell_length_a       5.59458
_cell_length_b       5.59458
_cell_length_c       5.59458
_cell_angle_alpha    148.829
_cell_angle_beta     148.829
_cell_angle_gamma    44.6631

_symmetry_Int_Tables_number  107
_chemical_formula_structural  ZrBeGa
_chemical_formula_sum  ZrBeGa
_cell_volume  46.769235538539334
_cell_formula_units_Z  1
loop_
  _symmetry_equiv_pos_site_id
 _symmetry_equiv_pos_as_xyz
 1  'x, y, z'
loop_
 _atom_site_type_symbol
 _atom_site_label
 _atom_site_symmetry_multiplicity
 _atom_site_fract_x
 _atom_site_fract_y
 _atom_site_fract_z
 _atom_site_fract_occupancy
 Be  Be1  1  0.01770  0.01770  -0.00000  1
 Ga  Ga1  1  0.64018  0.64018  -0.00000  1
 Zr  Zr1  1  0.34212  0.34212  0.00000  1
