CIF file written using JARVIS-Tools package.
data_Li7IN2
_symmetry_space_group_name_H-M  'Fd-3m'
_cell_length_a       7.92264
_cell_length_b       7.92264
_cell_length_c       7.92264
_cell_angle_alpha    60
_cell_angle_beta     60
_cell_angle_gamma    60

_symmetry_Int_Tables_number  227
_chemical_formula_structural  Li7IN2
_chemical_formula_sum  Li4I2N4
_cell_volume  351.6377672237367
_cell_formula_units_Z  2
loop_
  _symmetry_equiv_pos_site_id
 _symmetry_equiv_pos_as_xyz
 1  'x, y, z'
loop_
 _atom_site_type_symbol
 _atom_site_label
 _atom_site_symmetry_multiplicity
 _atom_site_fract_x
 _atom_site_fract_y
 _atom_site_fract_z
 _atom_site_fract_occupancy
 I  I1  1  0.12500  0.12500  0.12500  1
 I  I2  1  0.87500  0.87500  0.87500  1
 Li  Li1  1  0.64290  0.64290  0.10710  1
 Li  Li2  1  0.10710  0.64290  0.64290  1
 Li  Li3  1  0.37500  0.37500  0.37500  1
 Li  Li4  1  0.62500  0.62500  0.62500  1
 Li  Li5  1  0.89290  0.35710  0.35710  1
 Li  Li6  1  0.10710  0.10710  0.64290  1
 Li  Li7  1  0.35710  0.89290  0.89290  1
 Li  Li8  1  0.64290  0.10710  0.64290  1
 Li  Li9  1  0.10710  0.64290  0.10710  1
 Li  Li10  1  0.35710  0.89290  0.35710  1
 Li  Li11  1  0.35710  0.35710  0.89290  1
 Li  Li12  1  0.89290  0.89290  0.35710  1
 Li  Li13  1  0.89290  0.35710  0.89290  1
 Li  Li14  1  0.64290  0.10710  0.10710  1
 N  N1  1  0.00000  0.00000  0.50000  1
 N  N2  1  0.00000  0.50000  -0.00000  1
 N  N3  1  0.50000  0.00000  0.00000  1
 N  N4  1  0.00000  0.00000  0.00000  1
