CIF file written using JARVIS-Tools package.
data_Zr3Co
_symmetry_space_group_name_H-M  'Cmcm'
_cell_length_a       3.3064
_cell_length_b       8.78708
_cell_length_c       8.78708
_cell_angle_alpha    139.454
_cell_angle_beta     90
_cell_angle_gamma    90

_symmetry_Int_Tables_number  63
_chemical_formula_structural  Zr3Co
_chemical_formula_sum  Zr6Co2
_cell_volume  165.9567468726198
_cell_formula_units_Z  2
loop_
  _symmetry_equiv_pos_site_id
 _symmetry_equiv_pos_as_xyz
 1  'x, y, z'
loop_
 _atom_site_type_symbol
 _atom_site_label
 _atom_site_symmetry_multiplicity
 _atom_site_fract_x
 _atom_site_fract_y
 _atom_site_fract_z
 _atom_site_fract_occupancy
 Co  Co1  1  0.75000  0.65393  0.34607  1
 Co  Co2  1  0.25000  0.34607  0.65393  1
 Zr  Zr1  1  0.75000  0.15802  0.32560  1
 Zr  Zr2  1  0.75000  0.22761  0.77239  1
 Zr  Zr3  1  0.75000  0.67440  0.84198  1
 Zr  Zr4  1  0.25000  0.84198  0.67440  1
 Zr  Zr5  1  0.25000  0.77239  0.22761  1
 Zr  Zr6  1  0.25000  0.32560  0.15802  1
