CIF file written using JARVIS-Tools package.
data_Hf2N2O
_symmetry_space_group_name_H-M  'Cm'
_cell_length_a       3.26204
_cell_length_b       7.03433
_cell_length_c       8.17074
_cell_angle_alpha    80.2013
_cell_angle_beta     90
_cell_angle_gamma    76.5931

_symmetry_Int_Tables_number  8
_chemical_formula_structural  Hf2N2O
_chemical_formula_sum  Hf6N6O3
_cell_volume  179.56551634073398
_cell_formula_units_Z  3
loop_
  _symmetry_equiv_pos_site_id
 _symmetry_equiv_pos_as_xyz
 1  'x, y, z'
loop_
 _atom_site_type_symbol
 _atom_site_label
 _atom_site_symmetry_multiplicity
 _atom_site_fract_x
 _atom_site_fract_y
 _atom_site_fract_z
 _atom_site_fract_occupancy
 Hf  Hf1  1  0.03203  0.93593  0.79777  1
 Hf  Hf2  1  0.64056  0.71887  0.47543  1
 Hf  Hf3  1  0.69524  0.60952  0.13310  1
 Hf  Hf4  1  0.30644  0.38712  0.86934  1
 Hf  Hf5  1  0.36414  0.27172  0.51962  1
 Hf  Hf6  1  0.96604  0.06792  0.18357  1
 N  N1  1  0.53592  0.92816  0.64571  1
 N  N2  1  0.17018  0.65964  0.96513  1
 N  N3  1  0.12072  0.75856  0.29273  1
 N  N4  1  0.79164  0.41672  0.38326  1
 N  N5  1  0.87638  0.24725  0.72808  1
 N  N6  1  0.82715  0.34569  0.03874  1
 O  O1  1  0.21494  0.57011  0.62419  1
 O  O2  1  0.45978  0.08043  0.33292  1
 O  O3  1  0.49882  0.00235  0.01040  1
