CIF file written using JARVIS-Tools package.
data_BS2N2OF7
_symmetry_space_group_name_H-M  'P2_1/m'
_cell_length_a       5.76419
_cell_length_b       7.6889
_cell_length_c       8.15836
_cell_angle_alpha    90
_cell_angle_beta     109.343
_cell_angle_gamma    90

_symmetry_Int_Tables_number  11
_chemical_formula_structural  BS2N2OF7
_chemical_formula_sum  B2S4N4O2F4
_cell_volume  341.1719201211564
_cell_formula_units_Z  2
loop_
  _symmetry_equiv_pos_site_id
 _symmetry_equiv_pos_as_xyz
 1  'x, y, z'
loop_
 _atom_site_type_symbol
 _atom_site_label
 _atom_site_symmetry_multiplicity
 _atom_site_fract_x
 _atom_site_fract_y
 _atom_site_fract_z
 _atom_site_fract_occupancy
 B  B1  1  0.63249  0.75000  0.16753  1
 B  B2  1  0.36751  0.25000  0.83247  1
 F  F1  1  0.86549  0.75000  0.15221  1
 F  F2  1  0.98035  0.39927  0.12574  1
 F  F3  1  0.98035  0.10073  0.12574  1
 F  F4  1  0.01965  0.60073  0.87426  1
 F  F5  1  0.23459  0.89924  0.42854  1
 F  F6  1  0.01965  0.89927  0.87426  1
 F  F7  1  0.76541  0.10076  0.57146  1
 F  F8  1  0.59396  0.90049  0.25361  1
 F  F9  1  0.40604  0.40049  0.74639  1
 F  F10  1  0.40604  0.09951  0.74639  1
 F  F11  1  0.59396  0.59951  0.25361  1
 F  F12  1  0.23459  0.60076  0.42854  1
 F  F13  1  0.76541  0.39924  0.57146  1
 F  F14  1  0.13451  0.25000  0.84779  1
 N  N1  1  0.56074  0.25000  0.02265  1
 N  N2  1  0.43926  0.75000  0.97735  1
 N  N3  1  0.13478  0.75000  0.65630  1
 N  N4  1  0.86522  0.25000  0.34370  1
 O  O1  1  0.42405  0.25000  0.36177  1
 O  O2  1  0.57595  0.75000  0.63823  1
 S  S1  1  0.68036  0.25000  0.43908  1
 S  S2  1  0.31964  0.75000  0.56092  1
 S  S3  1  0.80409  0.25000  0.13996  1
 S  S4  1  0.19591  0.75000  0.86004  1
