CIF file written using JARVIS-Tools package.
data_ZrGaPt
_symmetry_space_group_name_H-M  'P-62m'
_cell_length_a       3.61437
_cell_length_b       7.1654
_cell_length_c       7.16559
_cell_angle_alpha    119.999
_cell_angle_beta     90
_cell_angle_gamma    90

_symmetry_Int_Tables_number  189
_chemical_formula_structural  ZrGaPt
_chemical_formula_sum  Zr3Ga3Pt3
_cell_volume  160.71628742838882
_cell_formula_units_Z  3
loop_
  _symmetry_equiv_pos_site_id
 _symmetry_equiv_pos_as_xyz
 1  'x, y, z'
loop_
 _atom_site_type_symbol
 _atom_site_label
 _atom_site_symmetry_multiplicity
 _atom_site_fract_x
 _atom_site_fract_y
 _atom_site_fract_z
 _atom_site_fract_occupancy
 Ga  Ga1  1  0.00000  0.26553  -0.00000  1
 Ga  Ga2  1  0.00000  0.73445  0.73446  1
 Ga  Ga3  1  0.00000  -0.00001  0.26554  1
 Pt  Pt1  1  0.00000  0.33332  0.66666  1
 Pt  Pt2  1  0.00000  0.66666  0.33334  1
 Pt  Pt3  1  0.50000  0.99999  0.00000  1
 Zr  Zr1  1  0.50000  0.60394  -0.00000  1
 Zr  Zr2  1  0.50000  0.39603  0.39604  1
 Zr  Zr3  1  0.50000  0.99999  0.60396  1
