CIF file written using JARVIS-Tools package.
data_Y3Sc2Al3O12
_symmetry_space_group_name_H-M  'Ia-3d'
_cell_length_a       10.7384
_cell_length_b       10.7384
_cell_length_c       10.7384
_cell_angle_alpha    109.471
_cell_angle_beta     109.471
_cell_angle_gamma    109.471

_symmetry_Int_Tables_number  230
_chemical_formula_structural  Y3Sc2Al3O12
_chemical_formula_sum  Y2Sc8Al2O48
_cell_volume  953.234008965862
_cell_formula_units_Z  4
loop_
  _symmetry_equiv_pos_site_id
 _symmetry_equiv_pos_as_xyz
 1  'x, y, z'
loop_
 _atom_site_type_symbol
 _atom_site_label
 _atom_site_symmetry_multiplicity
 _atom_site_fract_x
 _atom_site_fract_y
 _atom_site_fract_z
 _atom_site_fract_occupancy
 Al  Al1  1  0.25000  0.62500  0.37500  1
 Al  Al2  1  0.87500  0.12500  0.75000  1
 Al  Al3  1  0.75000  0.87500  0.12500  1
 Al  Al4  1  0.87500  0.25000  0.12500  1
 Al  Al5  1  0.62500  0.75000  0.37500  1
 Al  Al6  1  0.25000  0.12500  0.87500  1
 Al  Al7  1  0.62500  0.37500  0.25000  1
 Al  Al8  1  0.37500  0.62500  0.75000  1
 Al  Al9  1  0.37500  0.25000  0.62500  1
 Al  Al10  1  0.75000  0.37500  0.62500  1
 Al  Al11  1  0.12500  0.87500  0.25000  1
 Al  Al12  1  0.12500  0.75000  0.87500  1
 O  O1  1  0.12543  0.59945  0.91151  1
 O  O2  1  0.21392  0.58849  0.18793  1
 O  O3  1  0.21392  0.12543  0.02598  1
 O  O4  1  0.58849  0.18793  0.21392  1
 O  O5  1  0.59945  0.18793  0.47402  1
 O  O6  1  0.18793  0.21392  0.58849  1
 O  O7  1  0.31207  0.91151  0.28608  1
 O  O8  1  0.90055  0.02598  0.31207  1
 O  O9  1  0.91151  0.28608  0.31207  1
 O  O10  1  0.02598  0.31207  0.90055  1
 O  O11  1  0.90055  0.37457  0.58849  1
 O  O12  1  0.87457  0.97402  0.78608  1
 O  O13  1  0.09945  0.97402  0.68793  1
 O  O14  1  0.37457  0.28608  0.47402  1
 O  O15  1  0.31207  0.90055  0.02598  1
 O  O16  1  0.28608  0.31207  0.91151  1
 O  O17  1  0.71392  0.52598  0.62543  1
 O  O18  1  0.97402  0.68793  0.09945  1
 O  O19  1  0.87457  0.40055  0.08849  1
 O  O20  1  0.78608  0.41151  0.81207  1
 O  O21  1  0.41151  0.81207  0.78608  1
 O  O22  1  0.02598  0.21392  0.12543  1
 O  O23  1  0.09945  0.62543  0.41151  1
 O  O24  1  0.81207  0.78608  0.41151  1
 O  O25  1  0.71392  0.68793  0.08849  1
 O  O26  1  0.68793  0.09945  0.97402  1
 O  O27  1  0.62543  0.71392  0.52598  1
 O  O28  1  0.52598  0.62543  0.71392  1
 O  O29  1  0.08849  0.87457  0.40055  1
 O  O30  1  0.91151  0.12543  0.59945  1
 O  O31  1  0.59945  0.91151  0.12543  1
 O  O32  1  0.40055  0.81207  0.52598  1
 O  O33  1  0.18793  0.47402  0.59945  1
 O  O34  1  0.62543  0.41151  0.09945  1
 O  O35  1  0.12543  0.02598  0.21392  1
 O  O36  1  0.52598  0.40055  0.81207  1
 O  O37  1  0.47402  0.37457  0.28608  1
 O  O38  1  0.68793  0.08849  0.71392  1
 O  O39  1  0.08849  0.71392  0.68793  1
 O  O40  1  0.81207  0.52598  0.40055  1
 O  O41  1  0.97402  0.78608  0.87457  1
 O  O42  1  0.78608  0.87457  0.97402  1
 O  O43  1  0.28608  0.47402  0.37457  1
 O  O44  1  0.40055  0.08849  0.87457  1
 O  O45  1  0.37457  0.58849  0.90055  1
 O  O46  1  0.47402  0.59945  0.18793  1
 O  O47  1  0.41151  0.09945  0.62543  1
 O  O48  1  0.58849  0.90055  0.37457  1
 Sc  Sc1  1  0.50000  0.00000  -0.00000  1
 Sc  Sc2  1  0.00000  0.50000  0.00000  1
 Sc  Sc3  1  0.00000  0.00000  0.50000  1
 Sc  Sc4  1  0.50000  0.00000  0.50000  1
 Sc  Sc5  1  0.50000  0.50000  -0.00000  1
 Sc  Sc6  1  0.00000  0.00000  0.00000  1
 Sc  Sc7  1  0.50000  0.50000  0.50000  1
 Sc  Sc8  1  0.00000  0.50000  0.50000  1
 Y  Y1  1  0.37500  0.75000  0.12500  1
 Y  Y2  1  0.87500  0.75000  0.62500  1
 Y  Y3  1  0.75000  0.62500  0.87500  1
 Y  Y4  1  0.25000  0.87500  0.62500  1
 Y  Y5  1  0.62500  0.87500  0.75000  1
 Y  Y6  1  0.62500  0.25000  0.87500  1
 Y  Y7  1  0.12500  0.25000  0.37500  1
 Y  Y8  1  0.37500  0.12500  0.25000  1
 Y  Y9  1  0.12500  0.37500  0.75000  1
 Y  Y10  1  0.75000  0.12500  0.37500  1
 Y  Y11  1  0.25000  0.37500  0.12500  1
 Y  Y12  1  0.87500  0.62500  0.25000  1
