CIF file written using JARVIS-Tools package.
data_K2CuCl4O2
_symmetry_space_group_name_H-M  'I4/mmm'
_cell_length_a       6.54827
_cell_length_b       6.54827
_cell_length_c       6.54827
_cell_angle_alpha    108.022
_cell_angle_beta     110.201
_cell_angle_gamma    110.201

_symmetry_Int_Tables_number  139
_chemical_formula_structural  K2CuCl4O2
_chemical_formula_sum  K2CuCl4O2
_cell_volume  216.04827695441335
_cell_formula_units_Z  1
loop_
  _symmetry_equiv_pos_site_id
 _symmetry_equiv_pos_as_xyz
 1  'x, y, z'
loop_
 _atom_site_type_symbol
 _atom_site_label
 _atom_site_symmetry_multiplicity
 _atom_site_fract_x
 _atom_site_fract_y
 _atom_site_fract_z
 _atom_site_fract_occupancy
 Cl  Cl1  1  0.00000  0.21530  0.78470  1
 Cl  Cl2  1  -0.00000  0.78470  0.21530  1
 Cl  Cl3  1  0.56940  0.78470  0.78470  1
 Cl  Cl4  1  0.43060  0.21530  0.21530  1
 Cu  Cu1  1  0.00000  0.00000  0.00000  1
 K  K1  1  0.50000  0.75000  0.25000  1
 K  K2  1  0.50000  0.25000  0.75000  1
 O  O1  1  0.00000  0.41987  0.41987  1
 O  O2  1  0.00000  0.58013  0.58013  1
