CIF file written using JARVIS-Tools package.
data_Li4SnB2O6
_symmetry_space_group_name_H-M  'Pnnm'
_cell_length_a       3.43162
_cell_length_b       8.83128
_cell_length_c       9.24351
_cell_angle_alpha    90
_cell_angle_beta     90
_cell_angle_gamma    90

_symmetry_Int_Tables_number  58
_chemical_formula_structural  Li4SnB2O6
_chemical_formula_sum  Li8Sn2B4O2
_cell_volume  280.1297122616902
_cell_formula_units_Z  2
loop_
  _symmetry_equiv_pos_site_id
 _symmetry_equiv_pos_as_xyz
 1  'x, y, z'
loop_
 _atom_site_type_symbol
 _atom_site_label
 _atom_site_symmetry_multiplicity
 _atom_site_fract_x
 _atom_site_fract_y
 _atom_site_fract_z
 _atom_site_fract_occupancy
 B  B1  1  0.50000  0.23946  0.77008  1
 B  B2  1  0.00000  0.73946  0.72992  1
 B  B3  1  0.00000  0.26054  0.27008  1
 B  B4  1  0.50000  0.76054  0.22992  1
 Li  Li1  1  0.50000  0.19273  0.02069  1
 Li  Li2  1  0.00000  0.00786  0.19185  1
 Li  Li3  1  0.50000  0.80727  0.97931  1
 Li  Li4  1  0.00000  0.69273  0.47931  1
 Li  Li5  1  0.00000  0.30727  0.52069  1
 Li  Li6  1  0.50000  0.49214  0.69185  1
 Li  Li7  1  0.00000  0.99214  0.80815  1
 Li  Li8  1  0.50000  0.50786  0.30815  1
 O  O1  1  0.00000  0.40544  0.32568  1
 O  O2  1  0.50000  0.72546  0.37646  1
 O  O3  1  0.00000  0.13848  0.36762  1
 O  O4  1  0.00000  0.86152  0.63238  1
 O  O5  1  0.50000  0.27454  0.62354  1
 O  O6  1  0.00000  0.59456  0.67432  1
 O  O7  1  0.00000  0.77454  0.87646  1
 O  O8  1  0.50000  0.36152  0.86762  1
 O  O9  1  0.00000  0.22546  0.12354  1
 O  O10  1  0.50000  0.90544  0.17432  1
 O  O11  1  0.50000  0.09456  0.82568  1
 O  O12  1  0.50000  0.63848  0.13238  1
 Sn  Sn1  1  0.50000  0.00000  0.50000  1
 Sn  Sn2  1  0.00000  0.50000  0.00000  1
