CIF file written using JARVIS-Tools package.
data_Ca2Pt3O8
_symmetry_space_group_name_H-M  'R-3m'
_cell_length_a       6.27219
_cell_length_b       6.27219
_cell_length_c       6.27219
_cell_angle_alpha    60.1806
_cell_angle_beta     60.1807
_cell_angle_gamma    60.1807

_symmetry_Int_Tables_number  166
_chemical_formula_structural  Ca2Pt3O8
_chemical_formula_sum  Ca2Pt3O8
_cell_volume  175.19220673184114
_cell_formula_units_Z  1
loop_
  _symmetry_equiv_pos_site_id
 _symmetry_equiv_pos_as_xyz
 1  'x, y, z'
loop_
 _atom_site_type_symbol
 _atom_site_label
 _atom_site_symmetry_multiplicity
 _atom_site_fract_x
 _atom_site_fract_y
 _atom_site_fract_z
 _atom_site_fract_occupancy
 Ca  Ca1  1  0.85536  0.85536  0.85536  1
 Ca  Ca2  1  0.14464  0.14464  0.14464  1
 O  O1  1  0.60380  0.60380  0.60380  1
 O  O2  1  0.39620  0.39620  0.39620  1
 O  O3  1  0.11286  0.11286  0.55970  1
 O  O4  1  0.11286  0.55970  0.11286  1
 O  O5  1  0.55970  0.11286  0.11286  1
 O  O6  1  0.88714  0.44030  0.88714  1
 O  O7  1  0.88714  0.88714  0.44030  1
 O  O8  1  0.44030  0.88714  0.88714  1
 Pt  Pt1  1  0.50000  -0.00000  0.50000  1
 Pt  Pt2  1  0.00000  0.50000  0.50000  1
 Pt  Pt3  1  0.50000  0.50000  -0.00000  1
