CIF file written using JARVIS-Tools package.
data_KNaB2H8
_symmetry_space_group_name_H-M  'R3'
_cell_length_a       7.76789
_cell_length_b       7.76789
_cell_length_c       7.76789
_cell_angle_alpha    33.7313
_cell_angle_beta     33.7313
_cell_angle_gamma    33.7313

_symmetry_Int_Tables_number  146
_chemical_formula_structural  KNaB2H8
_chemical_formula_sum  KNaB2H8
_cell_volume  128.77416221091408
_cell_formula_units_Z  1
loop_
  _symmetry_equiv_pos_site_id
 _symmetry_equiv_pos_as_xyz
 1  'x, y, z'
loop_
 _atom_site_type_symbol
 _atom_site_label
 _atom_site_symmetry_multiplicity
 _atom_site_fract_x
 _atom_site_fract_y
 _atom_site_fract_z
 _atom_site_fract_occupancy
 B  B1  1  0.59295  0.59295  0.59295  1
 B  B2  1  0.10276  0.10276  0.10276  1
 H  H1  1  0.37467  0.85874  0.12812  1
 H  H2  1  0.53719  0.53719  0.53719  1
 H  H3  1  0.85874  0.12812  0.37467  1
 H  H4  1  0.75900  0.31611  0.76115  1
 H  H5  1  0.12812  0.37467  0.85874  1
 H  H6  1  0.04670  0.04670  0.04670  1
 H  H7  1  0.31611  0.76115  0.75900  1
 H  H8  1  0.76115  0.75900  0.31611  1
 K  K1  1  0.35289  0.35289  0.35289  1
 Na  Na1  1  0.85709  0.85709  0.85709  1
