CIF file written using JARVIS-Tools package.
data_Mg7V
_symmetry_space_group_name_H-M  'P-6m2'
_cell_length_a       6.25558
_cell_length_b       6.25558
_cell_length_c       4.92861
_cell_angle_alpha    90
_cell_angle_beta     90
_cell_angle_gamma    120

_symmetry_Int_Tables_number  187
_chemical_formula_structural  Mg7V
_chemical_formula_sum  Mg7V
_cell_volume  167.02833552761513
_cell_formula_units_Z  1
loop_
  _symmetry_equiv_pos_site_id
 _symmetry_equiv_pos_as_xyz
 1  'x, y, z'
loop_
 _atom_site_type_symbol
 _atom_site_label
 _atom_site_symmetry_multiplicity
 _atom_site_fract_x
 _atom_site_fract_y
 _atom_site_fract_z
 _atom_site_fract_occupancy
 Mg  Mg1  1  0.16914  0.83457  0.25000  1
 Mg  Mg2  1  0.66543  0.33086  0.25000  1
 Mg  Mg3  1  0.66543  0.83457  0.25000  1
 Mg  Mg4  1  0.32456  0.17544  0.75000  1
 Mg  Mg5  1  0.32456  0.64913  0.75000  1
 Mg  Mg6  1  0.85087  0.17544  0.75000  1
 Mg  Mg7  1  0.83333  0.66667  0.75000  1
 V  V1  1  0.16667  0.33333  0.25000  1
