CIF file written using JARVIS-Tools package.
data_Pr3UCl3O6
_symmetry_space_group_name_H-M  'P6_3/m'
_cell_length_a       9.46692
_cell_length_b       9.46693
_cell_length_c       5.59837
_cell_angle_alpha    90
_cell_angle_beta     90
_cell_angle_gamma    120

_symmetry_Int_Tables_number  176
_chemical_formula_structural  Pr3UCl3O6
_chemical_formula_sum  Pr6U2Cl6O2
_cell_volume  434.5202691369356
_cell_formula_units_Z  2
loop_
  _symmetry_equiv_pos_site_id
 _symmetry_equiv_pos_as_xyz
 1  'x, y, z'
loop_
 _atom_site_type_symbol
 _atom_site_label
 _atom_site_symmetry_multiplicity
 _atom_site_fract_x
 _atom_site_fract_y
 _atom_site_fract_z
 _atom_site_fract_occupancy
 Cl  Cl1  1  0.81184  0.75339  0.75000  1
 Cl  Cl2  1  0.05845  0.81184  0.25000  1
 Cl  Cl3  1  0.24661  0.05845  0.75000  1
 Cl  Cl4  1  0.94155  0.18816  0.75000  1
 Cl  Cl5  1  0.75339  0.94155  0.25000  1
 Cl  Cl6  1  0.18816  0.24661  0.25000  1
 O  O1  1  0.84857  0.48432  0.99400  1
 O  O2  1  0.36425  0.84857  0.00600  1
 O  O3  1  0.15143  0.51568  0.49400  1
 O  O4  1  0.63575  0.15143  0.50600  1
 O  O5  1  0.63575  0.15143  0.99400  1
 O  O6  1  0.48432  0.63575  0.49400  1
 O  O7  1  0.84857  0.48432  0.50600  1
 O  O8  1  0.51568  0.36425  0.99400  1
 O  O9  1  0.48432  0.63575  0.00600  1
 O  O10  1  0.36425  0.84857  0.49400  1
 O  O11  1  0.51568  0.36425  0.50600  1
 O  O12  1  0.15143  0.51568  0.00600  1
 Pr  Pr1  1  0.59647  0.90800  0.75000  1
 Pr  Pr2  1  0.68847  0.59647  0.25000  1
 Pr  Pr3  1  0.31153  0.40353  0.75000  1
 Pr  Pr4  1  0.40353  0.09200  0.25000  1
 Pr  Pr5  1  0.90800  0.31153  0.25000  1
 Pr  Pr6  1  0.09200  0.68847  0.75000  1
 U  U1  1  0.66667  0.33333  0.75000  1
 U  U2  1  0.33333  0.66667  0.25000  1
