CIF file written using JARVIS-Tools package.
data_FeOF
_symmetry_space_group_name_H-M  'P2_1'
_cell_length_a       4.59638
_cell_length_b       4.57408
_cell_length_c       11.8919
_cell_angle_alpha    90
_cell_angle_beta     89.5696
_cell_angle_gamma    90

_symmetry_Int_Tables_number  4
_chemical_formula_structural  FeOF
_chemical_formula_sum  Fe8O8F8
_cell_volume  250.01050252416402
_cell_formula_units_Z  8
loop_
  _symmetry_equiv_pos_site_id
 _symmetry_equiv_pos_as_xyz
 1  'x, y, z'
loop_
 _atom_site_type_symbol
 _atom_site_label
 _atom_site_symmetry_multiplicity
 _atom_site_fract_x
 _atom_site_fract_y
 _atom_site_fract_z
 _atom_site_fract_occupancy
 F  F1  1  0.02690  0.20733  0.19284  1
 F  F2  1  0.05342  0.22041  0.67689  1
 F  F3  1  0.94658  0.72041  0.32311  1
 F  F4  1  0.95543  0.72004  0.56043  1
 F  F5  1  0.97310  0.70733  0.80716  1
 F  F6  1  0.52634  0.25422  0.06415  1
 F  F7  1  0.47366  0.75422  0.93585  1
 F  F8  1  0.04457  0.22004  0.43957  1
 Fe  Fe1  1  0.29455  0.01058  0.31453  1
 Fe  Fe2  1  0.70545  0.51058  0.68547  1
 Fe  Fe3  1  0.72084  0.51325  0.18844  1
 Fe  Fe4  1  0.71707  0.51610  0.44118  1
 Fe  Fe5  1  0.77968  0.44998  0.93951  1
 Fe  Fe6  1  0.28293  0.01610  0.55882  1
 Fe  Fe7  1  0.27916  0.01325  0.81156  1
 Fe  Fe8  1  0.22032  0.94998  0.06049  1
 O  O1  1  0.93486  0.66869  0.06258  1
 O  O2  1  0.55758  0.33349  0.31947  1
 O  O3  1  0.57275  0.29056  0.81519  1
 O  O4  1  0.45819  0.81536  0.44354  1
 O  O5  1  0.44242  0.83349  0.68053  1
 O  O6  1  0.42725  0.79056  0.18481  1
 O  O7  1  0.06514  0.16869  0.93742  1
 O  O8  1  0.54181  0.31536  0.55646  1
