CIF file written using JARVIS-Tools package.
data_DyGa2Ni
_symmetry_space_group_name_H-M  'Cmcm'
_cell_length_a       4.14323
_cell_length_b       5.42565
_cell_length_c       6.60436
_cell_angle_alpha    90
_cell_angle_beta     90
_cell_angle_gamma    112.447

_symmetry_Int_Tables_number  63
_chemical_formula_structural  DyGa2Ni
_chemical_formula_sum  Dy2Ga4Ni2
_cell_volume  137.2160865035928
_cell_formula_units_Z  2
loop_
  _symmetry_equiv_pos_site_id
 _symmetry_equiv_pos_as_xyz
 1  'x, y, z'
loop_
 _atom_site_type_symbol
 _atom_site_label
 _atom_site_symmetry_multiplicity
 _atom_site_fract_x
 _atom_site_fract_y
 _atom_site_fract_z
 _atom_site_fract_occupancy
 Dy  Dy1  1  0.42566  0.85131  0.25000  1
 Dy  Dy2  1  0.57434  0.14869  0.75000  1
 Ga  Ga1  1  0.14098  0.28196  0.44657  1
 Ga  Ga2  1  0.85902  0.71804  0.55343  1
 Ga  Ga3  1  0.14098  0.28196  0.05343  1
 Ga  Ga4  1  0.85902  0.71804  0.94657  1
 Ni  Ni1  1  0.70849  0.41699  0.25000  1
 Ni  Ni2  1  0.29151  0.58301  0.75000  1
