CIF file written using JARVIS-Tools package.
data_MnPH2CO6
_symmetry_space_group_name_H-M  'C2/m'
_cell_length_a       5.99074
_cell_length_b       8.06523
_cell_length_c       5.5473
_cell_angle_alpha    82.0025
_cell_angle_beta     112.001
_cell_angle_gamma    111.802

_symmetry_Int_Tables_number  12
_chemical_formula_structural  MnPH2CO6
_chemical_formula_sum  Mn2P2H4C2O2
_cell_volume  230.7349071603891
_cell_formula_units_Z  2
loop_
  _symmetry_equiv_pos_site_id
 _symmetry_equiv_pos_as_xyz
 1  'x, y, z'
loop_
 _atom_site_type_symbol
 _atom_site_label
 _atom_site_symmetry_multiplicity
 _atom_site_fract_x
 _atom_site_fract_y
 _atom_site_fract_z
 _atom_site_fract_occupancy
 C  C1  1  0.10252  -0.00000  0.44780  1
 C  C2  1  0.89748  0.00000  0.55220  1
 H  H1  1  0.17918  0.81135  0.18023  1
 H  H2  1  0.63217  0.81135  0.81977  1
 H  H3  1  0.36783  0.18865  0.18023  1
 H  H4  1  0.82082  0.18865  0.81977  1
 Mn  Mn1  1  0.19432  0.38864  0.50000  1
 Mn  Mn2  1  0.80568  0.61136  0.50000  1
 O  O1  1  0.83735  0.44858  0.25016  1
 O  O2  1  0.16265  0.55142  0.74984  1
 O  O3  1  0.18341  0.78374  0.00977  1
 O  O4  1  0.60033  0.78374  -0.00977  1
 O  O5  1  0.10318  0.84915  0.40994  1
 O  O6  1  0.25403  0.15085  0.40994  1
 O  O7  1  0.81659  0.21626  -0.00977  1
 O  O8  1  0.61123  0.44858  0.74984  1
 O  O9  1  0.39967  0.21626  0.00977  1
 O  O10  1  0.38877  0.55142  0.25016  1
 O  O11  1  0.74597  0.84915  0.59006  1
 O  O12  1  0.89682  0.15085  0.59006  1
 P  P1  1  0.66970  0.33941  -0.00000  1
 P  P2  1  0.33030  0.66059  0.00000  1
