CIF file written using JARVIS-Tools package.
data_H4CSN2O2
_symmetry_space_group_name_H-M  'Pnma'
_cell_length_a       10.097
_cell_length_b       10.9401
_cell_length_c       3.62771
_cell_angle_alpha    90
_cell_angle_beta     90
_cell_angle_gamma    90

_symmetry_Int_Tables_number  62
_chemical_formula_structural  H4CSN2O2
_chemical_formula_sum  H6C4S4N8O8
_cell_volume  400.7244115017006
_cell_formula_units_Z  4
loop_
  _symmetry_equiv_pos_site_id
 _symmetry_equiv_pos_as_xyz
 1  'x, y, z'
loop_
 _atom_site_type_symbol
 _atom_site_label
 _atom_site_symmetry_multiplicity
 _atom_site_fract_x
 _atom_site_fract_y
 _atom_site_fract_z
 _atom_site_fract_occupancy
 C  C1  1  0.25000  0.11230  0.11370  1
 C  C2  1  0.25000  0.61230  0.38630  1
 C  C3  1  0.75000  0.88770  0.88630  1
 C  C4  1  0.75000  0.38770  0.61370  1
 H  H1  1  0.12867  0.25240  0.27767  1
 H  H2  1  0.37133  0.25240  0.27767  1
 H  H3  1  0.62867  0.24760  0.77767  1
 H  H4  1  0.87133  0.74760  0.72233  1
 H  H5  1  0.87133  0.24760  0.77767  1
 H  H6  1  0.62867  0.74760  0.72233  1
 H  H7  1  0.12867  0.75240  0.22233  1
 H  H8  1  0.04736  0.61716  0.37498  1
 H  H9  1  0.04736  0.11716  0.12502  1
 H  H10  1  0.45264  0.11716  0.12502  1
 H  H11  1  0.54736  0.38284  0.62502  1
 H  H12  1  0.95264  0.88284  0.87498  1
 H  H13  1  0.95264  0.38284  0.62502  1
 H  H14  1  0.54736  0.88284  0.87498  1
 H  H15  1  0.45264  0.61716  0.37498  1
 H  H16  1  0.37133  0.75240  0.22233  1
 N  N1  1  0.86546  0.83590  0.82673  1
 N  N2  1  0.13454  0.66410  0.32673  1
 N  N3  1  0.36546  0.16410  0.17327  1
 N  N4  1  0.63454  0.33590  0.67327  1
 N  N5  1  0.86546  0.33590  0.67327  1
 N  N6  1  0.63454  0.83590  0.82673  1
 N  N7  1  0.36546  0.66410  0.32673  1
 N  N8  1  0.13454  0.16410  0.17327  1
 O  O1  1  0.62688  0.59707  0.51892  1
 O  O2  1  0.37312  0.90293  0.01892  1
 O  O3  1  0.12688  0.90293  0.01892  1
 O  O4  1  0.37312  0.40293  0.48108  1
 O  O5  1  0.62688  0.09707  0.98108  1
 O  O6  1  0.87312  0.59707  0.51892  1
 O  O7  1  0.87312  0.09707  0.98108  1
 O  O8  1  0.12688  0.40293  0.48108  1
 S  S1  1  0.75000  0.53862  0.36213  1
 S  S2  1  0.75000  0.03862  0.13787  1
 S  S3  1  0.25000  0.46138  0.63787  1
 S  S4  1  0.25000  0.96138  0.86213  1
