CIF file written using JARVIS-Tools package.
data_Mn2OF3
_symmetry_space_group_name_H-M  'Cmmm'
_cell_length_a       6.33247
_cell_length_b       7.02028
_cell_length_c       7.25189
_cell_angle_alpha    90
_cell_angle_beta     115.888
_cell_angle_gamma    90

_symmetry_Int_Tables_number  65
_chemical_formula_structural  Mn2OF3
_chemical_formula_sum  Mn8O4F2
_cell_volume  290.03733416114125
_cell_formula_units_Z  4
loop_
  _symmetry_equiv_pos_site_id
 _symmetry_equiv_pos_as_xyz
 1  'x, y, z'
loop_
 _atom_site_type_symbol
 _atom_site_label
 _atom_site_symmetry_multiplicity
 _atom_site_fract_x
 _atom_site_fract_y
 _atom_site_fract_z
 _atom_site_fract_occupancy
 F  F1  1  0.75000  0.80379  0.50000  1
 F  F2  1  0.65264  -0.00000  0.80529  1
 F  F3  1  0.40078  0.50000  0.30157  1
 F  F4  1  0.75000  0.19621  0.50000  1
 F  F5  1  0.50413  0.69584  -0.00000  1
 F  F6  1  0.99587  0.69584  0.00000  1
 F  F7  1  0.25000  0.19621  0.50000  1
 F  F8  1  0.50413  0.30416  -0.00000  1
 F  F9  1  0.99587  0.30416  0.00000  1
 F  F10  1  0.84736  0.00000  0.19471  1
 F  F11  1  0.25000  0.80379  0.50000  1
 F  F12  1  0.09922  0.50000  0.69843  1
 Mn  Mn1  1  0.01799  -0.00000  0.00000  1
 Mn  Mn2  1  0.25000  0.50000  0.50000  1
 Mn  Mn3  1  0.75000  0.50000  0.50000  1
 Mn  Mn4  1  0.25000  0.50000  0.00000  1
 Mn  Mn5  1  0.00712  0.00000  0.51425  1
 Mn  Mn6  1  0.75000  0.50000  0.00000  1
 Mn  Mn7  1  0.49288  -0.00000  0.48575  1
 Mn  Mn8  1  0.48201  0.00000  -0.00000  1
 O  O1  1  0.59566  0.50000  0.69132  1
 O  O2  1  0.90434  0.50000  0.30868  1
 O  O3  1  0.34706  0.00000  0.19413  1
 O  O4  1  0.15294  -0.00000  0.80587  1
