CIF file written using JARVIS-Tools package.
data_SbI3
_symmetry_space_group_name_H-M  'P2_1/c'
_cell_length_a       7.3425
_cell_length_b       8.62436
_cell_length_c       10.9808
_cell_angle_alpha    90
_cell_angle_beta     90
_cell_angle_gamma    109.364

_symmetry_Int_Tables_number  14
_chemical_formula_structural  SbI3
_chemical_formula_sum  Sb4I2
_cell_volume  656.0190545075827
_cell_formula_units_Z  4
loop_
  _symmetry_equiv_pos_site_id
 _symmetry_equiv_pos_as_xyz
 1  'x, y, z'
loop_
 _atom_site_type_symbol
 _atom_site_label
 _atom_site_symmetry_multiplicity
 _atom_site_fract_x
 _atom_site_fract_y
 _atom_site_fract_z
 _atom_site_fract_occupancy
 I  I1  1  0.22591  0.69924  0.44213  1
 I  I2  1  0.34017  0.45867  0.74209  1
 I  I3  1  0.34017  0.95867  0.75791  1
 I  I4  1  0.77771  0.32527  0.90715  1
 I  I5  1  0.22229  0.67473  0.09285  1
 I  I6  1  0.77771  0.82527  0.59285  1
 I  I7  1  0.77409  0.30076  0.55787  1
 I  I8  1  0.22591  0.19924  0.05787  1
 I  I9  1  0.77409  0.80076  0.94213  1
 I  I10  1  0.22229  0.17473  0.40715  1
 I  I11  1  0.65983  0.04133  0.24209  1
 I  I12  1  0.65983  0.54133  0.25791  1
 Sb  Sb1  1  0.04052  0.66708  0.67387  1
 Sb  Sb2  1  0.04052  0.16708  0.82613  1
 Sb  Sb3  1  0.95948  0.83292  0.17387  1
 Sb  Sb4  1  0.95948  0.33292  0.32613  1
