CIF file written using JARVIS-Tools package.
data_CaSn2Rh
_symmetry_space_group_name_H-M  'Cmcm'
_cell_length_a       4.37087
_cell_length_b       5.88688
_cell_length_c       7.57632
_cell_angle_alpha    90
_cell_angle_beta     90
_cell_angle_gamma    111.792

_symmetry_Int_Tables_number  63
_chemical_formula_structural  CaSn2Rh
_chemical_formula_sum  Ca2Sn4Rh2
_cell_volume  181.0136730087011
_cell_formula_units_Z  2
loop_
  _symmetry_equiv_pos_site_id
 _symmetry_equiv_pos_as_xyz
 1  'x, y, z'
loop_
 _atom_site_type_symbol
 _atom_site_label
 _atom_site_symmetry_multiplicity
 _atom_site_fract_x
 _atom_site_fract_y
 _atom_site_fract_z
 _atom_site_fract_occupancy
 Ca  Ca1  1  0.06749  0.13498  0.75000  1
 Ca  Ca2  1  0.93251  0.86502  0.25000  1
 Rh  Rh1  1  0.79059  0.58118  0.75000  1
 Rh  Rh2  1  0.20941  0.41882  0.25000  1
 Sn  Sn1  1  0.35628  0.71257  0.95405  1
 Sn  Sn2  1  0.64372  0.28743  0.04595  1
 Sn  Sn3  1  0.64372  0.28743  0.45405  1
 Sn  Sn4  1  0.35628  0.71257  0.54595  1
