CIF file written using JARVIS-Tools package.
data_LiAsSe2
_symmetry_space_group_name_H-M  'Cc'
_cell_length_a       5.52432
_cell_length_b       5.587
_cell_length_c       6.80921
_cell_angle_alpha    110.842
_cell_angle_beta     113.932
_cell_angle_gamma    90

_symmetry_Int_Tables_number  9
_chemical_formula_structural  LiAsSe2
_chemical_formula_sum  Li2As2Se4
_cell_volume  176.9433293621407
_cell_formula_units_Z  2
loop_
  _symmetry_equiv_pos_site_id
 _symmetry_equiv_pos_as_xyz
 1  'x, y, z'
loop_
 _atom_site_type_symbol
 _atom_site_label
 _atom_site_symmetry_multiplicity
 _atom_site_fract_x
 _atom_site_fract_y
 _atom_site_fract_z
 _atom_site_fract_occupancy
 As  As1  1  0.01048  0.83159  0.56857  1
 As  As2  1  0.55810  0.33159  0.56857  1
 Li  Li1  1  0.26538  0.50767  0.00601  1
 Li  Li2  1  0.74063  0.00767  0.00601  1
 Se  Se1  1  0.97251  0.23656  0.48282  1
 Se  Se2  1  0.51031  0.73656  0.48282  1
 Se  Se3  1  0.23024  0.98947  0.97976  1
 Se  Se4  1  0.74952  0.48947  0.97976  1
