CIF file written using JARVIS-Tools package.
data_Ga2AsRh5
_symmetry_space_group_name_H-M  'Pbam'
_cell_length_a       4.04957
_cell_length_b       5.51782
_cell_length_c       10.2915
_cell_angle_alpha    90
_cell_angle_beta     90
_cell_angle_gamma    90

_symmetry_Int_Tables_number  55
_chemical_formula_structural  Ga2AsRh5
_chemical_formula_sum  Ga4As2Rh0
_cell_volume  229.96130943321475
_cell_formula_units_Z  2
loop_
  _symmetry_equiv_pos_site_id
 _symmetry_equiv_pos_as_xyz
 1  'x, y, z'
loop_
 _atom_site_type_symbol
 _atom_site_label
 _atom_site_symmetry_multiplicity
 _atom_site_fract_x
 _atom_site_fract_y
 _atom_site_fract_z
 _atom_site_fract_occupancy
 As  As1  1  0.00000  0.00000  0.50000  1
 As  As2  1  0.00000  0.50000  0.00000  1
 Ga  Ga1  1  0.50000  0.38815  0.34998  1
 Ga  Ga2  1  0.50000  0.61185  0.65002  1
 Ga  Ga3  1  0.50000  0.11185  0.84998  1
 Ga  Ga4  1  0.50000  0.88815  0.15002  1
 Rh  Rh1  1  0.50000  0.33213  0.10363  1
 Rh  Rh2  1  0.50000  0.66787  0.89637  1
 Rh  Rh3  1  0.50000  0.83213  0.39637  1
 Rh  Rh4  1  0.50000  0.16787  0.60363  1
 Rh  Rh5  1  0.00000  0.86115  0.72462  1
 Rh  Rh6  1  0.00000  0.13885  0.27538  1
 Rh  Rh7  1  0.00000  0.36115  0.77538  1
 Rh  Rh8  1  0.00000  0.63885  0.22462  1
 Rh  Rh9  1  0.00000  0.50000  0.50000  1
 Rh  Rh10  1  0.00000  0.00000  0.00000  1
