CIF file written using JARVIS-Tools package.
data_CeCuGe2
_symmetry_space_group_name_H-M  'Cmcm'
_cell_length_a       4.34149
_cell_length_b       4.2722
_cell_length_c       8.6887
_cell_angle_alpha    104.232
_cell_angle_beta     90
_cell_angle_gamma    90

_symmetry_Int_Tables_number  63
_chemical_formula_structural  CeCuGe2
_chemical_formula_sum  Ce2Cu2Ge4
_cell_volume  156.20919139626807
_cell_formula_units_Z  2
loop_
  _symmetry_equiv_pos_site_id
 _symmetry_equiv_pos_as_xyz
 1  'x, y, z'
loop_
 _atom_site_type_symbol
 _atom_site_label
 _atom_site_symmetry_multiplicity
 _atom_site_fract_x
 _atom_site_fract_y
 _atom_site_fract_z
 _atom_site_fract_occupancy
 Ce  Ce1  1  0.75000  0.10527  0.21055  1
 Ce  Ce2  1  0.25000  0.89473  0.78945  1
 Cu  Cu1  1  0.75000  0.32251  0.64502  1
 Cu  Cu2  1  0.25000  0.67749  0.35498  1
 Ge  Ge1  1  0.75000  0.46265  0.92530  1
 Ge  Ge2  1  0.25000  0.53735  0.07470  1
 Ge  Ge3  1  0.75000  0.74954  0.49909  1
 Ge  Ge4  1  0.25000  0.25046  0.50091  1
