CIF file written using JARVIS-Tools package.
data_Ta4AlC3
_symmetry_space_group_name_H-M  'P6_3/mmc'
_cell_length_a       3.10645
_cell_length_b       3.10644
_cell_length_c       24.7457
_cell_angle_alpha    90
_cell_angle_beta     90
_cell_angle_gamma    120

_symmetry_Int_Tables_number  194
_chemical_formula_structural  Ta4AlC3
_chemical_formula_sum  Ta8Al2C6
_cell_volume  206.80372369216238
_cell_formula_units_Z  2
loop_
  _symmetry_equiv_pos_site_id
 _symmetry_equiv_pos_as_xyz
 1  'x, y, z'
loop_
 _atom_site_type_symbol
 _atom_site_label
 _atom_site_symmetry_multiplicity
 _atom_site_fract_x
 _atom_site_fract_y
 _atom_site_fract_z
 _atom_site_fract_occupancy
 Al  Al1  1  0.66667  0.33333  0.75000  1
 Al  Al2  1  0.33333  0.66667  0.25000  1
 C  C1  1  0.00000  0.00000  0.38952  1
 C  C2  1  0.00000  0.00000  0.88952  1
 C  C3  1  0.00000  0.00000  0.61048  1
 C  C4  1  0.00000  0.00000  0.00000  1
 C  C5  1  0.00000  0.00000  0.11048  1
 C  C6  1  0.00000  0.00000  0.50000  1
 Ta  Ta1  1  0.66667  0.33333  0.34048  1
 Ta  Ta2  1  0.33333  0.66667  0.84048  1
 Ta  Ta3  1  0.33333  0.66667  0.65952  1
 Ta  Ta4  1  0.66667  0.33333  0.15952  1
 Ta  Ta5  1  0.33333  0.66667  0.44520  1
 Ta  Ta6  1  0.66667  0.33333  0.94520  1
 Ta  Ta7  1  0.66667  0.33333  0.55480  1
 Ta  Ta8  1  0.33333  0.66667  0.05480  1
