CIF file written using JARVIS-Tools package.
data_Ti2N
_symmetry_space_group_name_H-M  'I4_1/amd'
_cell_length_a       4.1507
_cell_length_b       4.15071
_cell_length_c       5.31299
_cell_angle_alpha    112.993
_cell_angle_beta     112.993
_cell_angle_gamma    89.9999

_symmetry_Int_Tables_number  141
_chemical_formula_structural  Ti2N
_chemical_formula_sum  Ti4N2
_cell_volume  76.29981658144618
_cell_formula_units_Z  2
loop_
  _symmetry_equiv_pos_site_id
 _symmetry_equiv_pos_as_xyz
 1  'x, y, z'
loop_
 _atom_site_type_symbol
 _atom_site_label
 _atom_site_symmetry_multiplicity
 _atom_site_fract_x
 _atom_site_fract_y
 _atom_site_fract_z
 _atom_site_fract_occupancy
 N  N1  1  0.62500  0.37500  0.25000  1
 N  N2  1  0.37500  0.62500  0.75000  1
 Ti  Ti1  1  0.85712  0.60712  0.71424  1
 Ti  Ti2  1  0.60712  0.85712  0.21424  1
 Ti  Ti3  1  0.39288  0.14288  0.78576  1
 Ti  Ti4  1  0.14288  0.39288  0.28576  1
