CIF file written using JARVIS-Tools package.
data_Li3CoO2F
_symmetry_space_group_name_H-M  'P-1'
_cell_length_a       5.43365
_cell_length_b       5.1706
_cell_length_c       5.68079
_cell_angle_alpha    63.0097
_cell_angle_beta     86.5644
_cell_angle_gamma    81.1797

_symmetry_Int_Tables_number  2
_chemical_formula_structural  Li3CoO2F
_chemical_formula_sum  Li6Co2O4F2
_cell_volume  140.5290252353116
_cell_formula_units_Z  2
loop_
  _symmetry_equiv_pos_site_id
 _symmetry_equiv_pos_as_xyz
 1  'x, y, z'
loop_
 _atom_site_type_symbol
 _atom_site_label
 _atom_site_symmetry_multiplicity
 _atom_site_fract_x
 _atom_site_fract_y
 _atom_site_fract_z
 _atom_site_fract_occupancy
 Co  Co1  1  0.64213  0.52457  0.65829  1
 Co  Co2  1  0.35787  0.47543  0.34171  1
 F  F1  1  0.81078  0.20139  0.03714  1
 F  F2  1  0.18922  0.79861  -0.03714  1
 Li  Li1  1  0.88370  0.24363  0.36848  1
 Li  Li2  1  0.84101  0.83713  0.97480  1
 Li  Li3  1  0.57965  0.00139  0.28729  1
 Li  Li4  1  0.42035  -0.00139  0.71271  1
 Li  Li5  1  0.15899  0.16287  0.02520  1
 Li  Li6  1  0.11630  0.75637  0.63152  1
 O  O1  1  0.75738  0.86615  0.63943  1
 O  O2  1  0.66896  0.61939  0.28254  1
 O  O3  1  0.33104  0.38061  0.71746  1
 O  O4  1  0.24262  0.13385  0.36057  1
