CIF file written using JARVIS-Tools package.
data_K4SrSi3O9
_symmetry_space_group_name_H-M  'Ama2'
_cell_length_a       7.19196
_cell_length_b       7.19196
_cell_length_c       11.0649
_cell_angle_alpha    90
_cell_angle_beta     90
_cell_angle_gamma    112.557

_symmetry_Int_Tables_number  40
_chemical_formula_structural  K4SrSi3O9
_chemical_formula_sum  K8Sr2Si6O8
_cell_volume  528.5390245725794
_cell_formula_units_Z  2
loop_
  _symmetry_equiv_pos_site_id
 _symmetry_equiv_pos_as_xyz
 1  'x, y, z'
loop_
 _atom_site_type_symbol
 _atom_site_label
 _atom_site_symmetry_multiplicity
 _atom_site_fract_x
 _atom_site_fract_y
 _atom_site_fract_z
 _atom_site_fract_occupancy
 K  K1  1  0.65830  0.23443  0.75000  1
 K  K2  1  0.05447  0.94553  0.00000  1
 K  K3  1  0.49994  0.50006  0.00000  1
 K  K4  1  0.76557  0.34170  0.25000  1
 K  K5  1  0.78176  0.77318  0.75000  1
 K  K6  1  0.49994  0.50006  0.50000  1
 K  K7  1  0.22682  0.21824  0.25000  1
 K  K8  1  0.05447  0.94553  0.50000  1
 O  O1  1  0.39764  0.02604  0.10285  1
 O  O2  1  0.40241  0.45189  0.75000  1
 O  O3  1  0.05233  0.26955  0.87137  1
 O  O4  1  0.55303  0.88595  0.59120  1
 O  O5  1  0.73800  0.26200  0.00000  1
 O  O6  1  0.97396  0.60236  0.60285  1
 O  O7  1  0.73045  0.94767  0.12863  1
 O  O8  1  0.11405  0.44697  0.09120  1
 O  O9  1  0.95875  0.79801  0.25000  1
 O  O10  1  0.39764  0.02604  0.39715  1
 O  O11  1  0.73045  0.94767  0.37137  1
 O  O12  1  0.20199  0.04125  0.75000  1
 O  O13  1  0.73800  0.26200  0.50000  1
 O  O14  1  0.11405  0.44697  0.40880  1
 O  O15  1  0.97396  0.60236  0.89715  1
 O  O16  1  0.55303  0.88595  0.90880  1
 O  O17  1  0.54811  0.59759  0.25000  1
 O  O18  1  0.05233  0.26955  0.62863  1
 Si  Si1  1  0.98013  0.40990  0.53066  1
 Si  Si2  1  0.59010  0.01987  0.03066  1
 Si  Si3  1  0.98013  0.40990  0.96934  1
 Si  Si4  1  0.74049  0.81096  0.25000  1
 Si  Si5  1  0.18904  0.25951  0.75000  1
 Si  Si6  1  0.59010  0.01987  0.46934  1
 Sr  Sr1  1  0.25556  0.72419  0.25000  1
 Sr  Sr2  1  0.27581  0.74444  0.75000  1
