CIF file written using JARVIS-Tools package.
data_HfMg6Cr
_symmetry_space_group_name_H-M  'Amm2'
_cell_length_a       6.34029
_cell_length_b       6.07005
_cell_length_c       5.00223
_cell_angle_alpha    90
_cell_angle_beta     90
_cell_angle_gamma    118.6

_symmetry_Int_Tables_number  38
_chemical_formula_structural  HfMg6Cr
_chemical_formula_sum  HfMg6Cr
_cell_volume  169.0254719618446
_cell_formula_units_Z  1
loop_
  _symmetry_equiv_pos_site_id
 _symmetry_equiv_pos_as_xyz
 1  'x, y, z'
loop_
 _atom_site_type_symbol
 _atom_site_label
 _atom_site_symmetry_multiplicity
 _atom_site_fract_x
 _atom_site_fract_y
 _atom_site_fract_z
 _atom_site_fract_occupancy
 Cr  Cr1  1  0.17012  0.33506  0.25000  1
 Hf  Hf1  1  0.15158  0.82579  0.25000  1
 Mg  Mg1  1  0.65556  0.32900  0.25000  1
 Mg  Mg2  1  0.65556  0.82655  0.25000  1
 Mg  Mg3  1  0.33218  0.16605  0.75000  1
 Mg  Mg4  1  0.33218  0.66613  0.75000  1
 Mg  Mg5  1  0.86312  0.18156  0.75000  1
 Mg  Mg6  1  0.83970  0.66985  0.75000  1
