CIF file written using JARVIS-Tools package.
data_K2MgCl4
_symmetry_space_group_name_H-M  'I4/mmm'
_cell_length_a       4.91432
_cell_length_b       4.91432
_cell_length_c       8.53423
_cell_angle_alpha    106.733
_cell_angle_beta     106.733
_cell_angle_gamma    90

_symmetry_Int_Tables_number  139
_chemical_formula_structural  K2MgCl4
_chemical_formula_sum  K2MgCl4
_cell_volume  188.24672704093118
_cell_formula_units_Z  1
loop_
  _symmetry_equiv_pos_site_id
 _symmetry_equiv_pos_as_xyz
 1  'x, y, z'
loop_
 _atom_site_type_symbol
 _atom_site_label
 _atom_site_symmetry_multiplicity
 _atom_site_fract_x
 _atom_site_fract_y
 _atom_site_fract_z
 _atom_site_fract_occupancy
 Cl  Cl1  1  0.83875  0.83875  0.67751  1
 Cl  Cl2  1  0.16125  0.16125  0.32249  1
 Cl  Cl3  1  -0.00000  0.50000  -0.00000  1
 Cl  Cl4  1  0.50000  0.00000  0.00000  1
 K  K1  1  0.64212  0.64212  0.28424  1
 K  K2  1  0.35788  0.35788  0.71576  1
 Mg  Mg1  1  0.00000  0.00000  0.00000  1
