CIF file written using JARVIS-Tools package.
data_DySn3
_symmetry_space_group_name_H-M  'Amm2'
_cell_length_a       4.4212
_cell_length_b       4.4495
_cell_length_c       11.2871
_cell_angle_alpha    101.368
_cell_angle_beta     90
_cell_angle_gamma    90

_symmetry_Int_Tables_number  38
_chemical_formula_structural  DySn3
_chemical_formula_sum  Dy2Sn6
_cell_volume  217.68564638643477
_cell_formula_units_Z  2
loop_
  _symmetry_equiv_pos_site_id
 _symmetry_equiv_pos_as_xyz
 1  'x, y, z'
loop_
 _atom_site_type_symbol
 _atom_site_label
 _atom_site_symmetry_multiplicity
 _atom_site_fract_x
 _atom_site_fract_y
 _atom_site_fract_z
 _atom_site_fract_occupancy
 Dy  Dy1  1  0.50000  0.48228  0.96455  1
 Dy  Dy2  1  0.00000  0.20953  0.41906  1
 Sn  Sn1  1  0.50000  0.09821  0.19642  1
 Sn  Sn2  1  0.50000  0.73456  0.46912  1
 Sn  Sn3  1  0.50000  0.86888  0.73776  1
 Sn  Sn4  1  0.00000  0.97574  0.95149  1
 Sn  Sn5  1  0.00000  0.35858  0.71716  1
 Sn  Sn6  1  0.00000  0.59822  0.19644  1
