CIF file written using JARVIS-Tools package.
data_Si
_symmetry_space_group_name_H-M  'C2/m'
_cell_length_a       3.88283
_cell_length_b       6.40027
_cell_length_c       7.24108
_cell_angle_alpha    96.517
_cell_angle_beta     105.552
_cell_angle_gamma    90

_symmetry_Int_Tables_number  12
_chemical_formula_structural  Si
_chemical_formula_sum  Si8
_cell_volume  172.15358546041435
_cell_formula_units_Z  8
loop_
  _symmetry_equiv_pos_site_id
 _symmetry_equiv_pos_as_xyz
 1  'x, y, z'
loop_
 _atom_site_type_symbol
 _atom_site_label
 _atom_site_symmetry_multiplicity
 _atom_site_fract_x
 _atom_site_fract_y
 _atom_site_fract_z
 _atom_site_fract_occupancy
 Si  Si1  1  0.05539  0.87392  0.11077  1
 Si  Si2  1  0.94461  0.12608  0.88923  1
 Si  Si3  1  0.55883  0.65344  0.11766  1
 Si  Si4  1  0.44117  0.34656  0.88234  1
 Si  Si5  1  0.21266  0.05744  0.42532  1
 Si  Si6  1  0.78734  0.94256  0.57468  1
 Si  Si7  1  0.72720  0.58551  0.45439  1
 Si  Si8  1  0.27280  0.41449  0.54561  1
