CIF file written using JARVIS-Tools package.
data_VOF
_symmetry_space_group_name_H-M  'P2/m'
_cell_length_a       4.66841
_cell_length_b       3.03684
_cell_length_c       14.0457
_cell_angle_alpha    90
_cell_angle_beta     91.6228
_cell_angle_gamma    90

_symmetry_Int_Tables_number  10
_chemical_formula_structural  VOF
_chemical_formula_sum  V6O6F6
_cell_volume  199.04828074906757
_cell_formula_units_Z  6
loop_
  _symmetry_equiv_pos_site_id
 _symmetry_equiv_pos_as_xyz
 1  'x, y, z'
loop_
 _atom_site_type_symbol
 _atom_site_label
 _atom_site_symmetry_multiplicity
 _atom_site_fract_x
 _atom_site_fract_y
 _atom_site_fract_z
 _atom_site_fract_occupancy
 F  F1  1  0.23202  0.50000  0.26567  1
 F  F2  1  0.31245  0.00000  0.10559  1
 F  F3  1  0.68755  0.00000  0.89441  1
 F  F4  1  0.81425  0.50000  0.39910  1
 F  F5  1  0.76798  0.50000  0.73433  1
 F  F6  1  0.18575  0.50000  0.60090  1
 O  O1  1  0.80830  0.50000  0.06422  1
 O  O2  1  0.73251  0.00000  0.23202  1
 O  O3  1  0.68972  0.00000  0.56668  1
 O  O4  1  0.26749  0.00000  0.76798  1
 O  O5  1  0.19170  0.50000  0.93578  1
 O  O6  1  0.31028  0.00000  0.43332  1
 V  V1  1  0.57393  0.50000  0.16640  1
 V  V2  1  0.50000  0.50000  0.50000  1
 V  V3  1  0.42607  0.50000  0.83360  1
 V  V4  1  0.02726  0.00000  0.33373  1
 V  V5  1  0.97274  0.00000  0.66627  1
 V  V6  1  0.00000  0.00000  0.00000  1
