CIF file written using JARVIS-Tools package.
data_LiBeIn
_symmetry_space_group_name_H-M  'I4mm'
_cell_length_a       4.72495
_cell_length_b       4.72495
_cell_length_c       4.72495
_cell_angle_alpha    137.993
_cell_angle_beta     137.993
_cell_angle_gamma    60.9137

_symmetry_Int_Tables_number  107
_chemical_formula_structural  LiBeIn
_chemical_formula_sum  LiBeIn
_cell_volume  46.72636902245788
_cell_formula_units_Z  1
loop_
  _symmetry_equiv_pos_site_id
 _symmetry_equiv_pos_as_xyz
 1  'x, y, z'
loop_
 _atom_site_type_symbol
 _atom_site_label
 _atom_site_symmetry_multiplicity
 _atom_site_fract_x
 _atom_site_fract_y
 _atom_site_fract_z
 _atom_site_fract_occupancy
 Be  Be1  1  0.00618  0.00618  0.00000  1
 In  In1  1  0.33392  0.33392  -0.00000  1
 Li  Li1  1  0.65990  0.65990  -0.00000  1
