CIF file written using JARVIS-Tools package.
data_BeCdBr
_symmetry_space_group_name_H-M  'I4mm'
_cell_length_a       6.24874
_cell_length_b       6.24874
_cell_length_c       6.24874
_cell_angle_alpha    149.788
_cell_angle_beta     149.788
_cell_angle_gamma    43.2519

_symmetry_Int_Tables_number  107
_chemical_formula_structural  BeCdBr
_chemical_formula_sum  BeCdBr
_cell_volume  61.61591204565716
_cell_formula_units_Z  1
loop_
  _symmetry_equiv_pos_site_id
 _symmetry_equiv_pos_as_xyz
 1  'x, y, z'
loop_
 _atom_site_type_symbol
 _atom_site_label
 _atom_site_symmetry_multiplicity
 _atom_site_fract_x
 _atom_site_fract_y
 _atom_site_fract_z
 _atom_site_fract_occupancy
 Be  Be1  1  0.00828  0.00828  0.00000  1
 Br  Br1  1  0.36421  0.36421  -0.00000  1
 Cd  Cd1  1  0.62751  0.62751  -0.00000  1
