CIF file written using JARVIS-Tools package.
data_Nb5Sb4
_symmetry_space_group_name_H-M  'I4/m'
_cell_length_a       3.6024
_cell_length_b       7.59361
_cell_length_c       7.5936
_cell_angle_alpha    86.7743
_cell_angle_beta     76.278
_cell_angle_gamma    76.2778

_symmetry_Int_Tables_number  87
_chemical_formula_structural  Nb5Sb4
_chemical_formula_sum  Nb5Sb4
_cell_volume  196.03612925452413
_cell_formula_units_Z  1
loop_
  _symmetry_equiv_pos_site_id
 _symmetry_equiv_pos_as_xyz
 1  'x, y, z'
loop_
 _atom_site_type_symbol
 _atom_site_label
 _atom_site_symmetry_multiplicity
 _atom_site_fract_x
 _atom_site_fract_y
 _atom_site_fract_z
 _atom_site_fract_occupancy
 Nb  Nb1  1  0.00000  0.00000  0.00000  1
 Nb  Nb2  1  0.31240  0.06152  0.31363  1
 Nb  Nb3  1  0.62607  0.68637  0.06152  1
 Nb  Nb4  1  0.37393  0.31363  0.93848  1
 Nb  Nb5  1  0.68760  0.93848  0.68637  1
 Sb  Sb1  1  0.05432  0.23867  0.65271  1
 Sb  Sb2  1  0.70699  0.34729  0.23866  1
 Sb  Sb3  1  0.29301  0.65271  0.76134  1
 Sb  Sb4  1  0.94568  0.76133  0.34729  1
