CIF file written using JARVIS-Tools package.
data_GeS
_symmetry_space_group_name_H-M  'Pnma'
_cell_length_a       3.68972
_cell_length_b       4.37876
_cell_length_c       10.7155
_cell_angle_alpha    90
_cell_angle_beta     90
_cell_angle_gamma    90

_symmetry_Int_Tables_number  62
_chemical_formula_structural  GeS
_chemical_formula_sum  Ge4S4
_cell_volume  173.12325835916607
_cell_formula_units_Z  4
loop_
  _symmetry_equiv_pos_site_id
 _symmetry_equiv_pos_as_xyz
 1  'x, y, z'
loop_
 _atom_site_type_symbol
 _atom_site_label
 _atom_site_symmetry_multiplicity
 _atom_site_fract_x
 _atom_site_fract_y
 _atom_site_fract_z
 _atom_site_fract_occupancy
 Ge  Ge1  1  0.25000  0.36518  0.87564  1
 Ge  Ge2  1  0.75000  0.63482  0.12436  1
 Ge  Ge3  1  0.75000  0.86518  0.62436  1
 Ge  Ge4  1  0.25000  0.13482  0.37564  1
 S  S1  1  0.25000  0.49524  0.65106  1
 S  S2  1  0.75000  0.50476  0.34894  1
 S  S3  1  0.75000  -0.00476  0.84894  1
 S  S4  1  0.25000  0.00476  0.15106  1
