CIF file written using JARVIS-Tools package.
data_SiPb2Se4
_symmetry_space_group_name_H-M  'P2_1/c'
_cell_length_a       7.17002
_cell_length_b       8.53814
_cell_length_c       13.9147
_cell_angle_alpha    107.961
_cell_angle_beta     90
_cell_angle_gamma    90

_symmetry_Int_Tables_number  14
_chemical_formula_structural  SiPb2Se4
_chemical_formula_sum  Si4Pb8Se6
_cell_volume  810.3264240063085
_cell_formula_units_Z  4
loop_
  _symmetry_equiv_pos_site_id
 _symmetry_equiv_pos_as_xyz
 1  'x, y, z'
loop_
 _atom_site_type_symbol
 _atom_site_label
 _atom_site_symmetry_multiplicity
 _atom_site_fract_x
 _atom_site_fract_y
 _atom_site_fract_z
 _atom_site_fract_occupancy
 Pb  Pb1  1  0.85624  0.19099  0.63487  1
 Pb  Pb2  1  0.84599  0.68375  0.62650  1
 Pb  Pb3  1  0.34599  0.81625  0.87350  1
 Pb  Pb4  1  0.14376  0.80901  0.36513  1
 Pb  Pb5  1  0.64376  0.69099  0.13487  1
 Pb  Pb6  1  0.15401  0.31625  0.37350  1
 Pb  Pb7  1  0.35624  0.30901  0.86513  1
 Pb  Pb8  1  0.65401  0.18375  0.12650  1
 Se  Se1  1  0.97094  0.50535  0.23763  1
 Se  Se2  1  0.47094  0.99465  0.26237  1
 Se  Se3  1  0.25779  0.12670  0.05244  1
 Se  Se4  1  0.52906  0.00535  0.73763  1
 Se  Se5  1  0.75779  0.37330  0.44756  1
 Se  Se6  1  0.74221  0.87330  0.94756  1
 Se  Se7  1  0.24221  0.62670  0.55244  1
 Se  Se8  1  0.23916  0.17110  0.54311  1
 Se  Se9  1  0.73916  0.32890  0.95689  1
 Se  Se10  1  0.96727  0.98432  0.23568  1
 Se  Se11  1  0.26084  0.67110  0.04311  1
 Se  Se12  1  0.03273  0.01568  0.76432  1
 Se  Se13  1  0.53273  0.48432  0.73568  1
 Se  Se14  1  0.02906  0.49465  0.76237  1
 Se  Se15  1  0.46727  0.51568  0.26432  1
 Se  Se16  1  0.76084  0.82890  0.45689  1
 Si  Si1  1  0.23693  0.94248  0.14271  1
 Si  Si2  1  0.73693  0.55752  0.35729  1
 Si  Si3  1  0.76307  0.05752  0.85729  1
 Si  Si4  1  0.26307  0.44248  0.64271  1
