CIF file written using JARVIS-Tools package.
data_BC7
_symmetry_space_group_name_H-M  'R3m'
_cell_length_a       2.53874
_cell_length_b       2.53874
_cell_length_c       8.63395
_cell_angle_alpha    81.5457
_cell_angle_beta     81.5457
_cell_angle_gamma    60.0001

_symmetry_Int_Tables_number  160
_chemical_formula_structural  BC7
_chemical_formula_sum  BC7
_cell_volume  47.49235769282327
_cell_formula_units_Z  1
loop_
  _symmetry_equiv_pos_site_id
 _symmetry_equiv_pos_as_xyz
 1  'x, y, z'
loop_
 _atom_site_type_symbol
 _atom_site_label
 _atom_site_symmetry_multiplicity
 _atom_site_fract_x
 _atom_site_fract_y
 _atom_site_fract_z
 _atom_site_fract_occupancy
 B  B1  1  0.80242  0.80242  0.59273  1
 C  C1  1  0.91078  0.91078  0.26766  1
 C  C2  1  0.73917  0.73917  0.78248  1
 C  C3  1  0.55627  0.55627  0.33120  1
 C  C4  1  0.49721  0.49721  0.50836  1
 C  C5  1  0.38542  0.38542  0.84374  1
 C  C6  1  0.32474  0.32474  0.02578  1
 C  C7  1  0.97116  0.97116  0.08651  1
