CIF file written using JARVIS-Tools package.
data_Nd2CuGe6
_symmetry_space_group_name_H-M  'Amm2'
_cell_length_a       4.11172
_cell_length_b       4.20269
_cell_length_c       11.1318
_cell_angle_alpha    90
_cell_angle_beta     100.643
_cell_angle_gamma    90

_symmetry_Int_Tables_number  38
_chemical_formula_structural  Nd2CuGe6
_chemical_formula_sum  Nd2CuGe6
_cell_volume  189.05223533126488
_cell_formula_units_Z  1
loop_
  _symmetry_equiv_pos_site_id
 _symmetry_equiv_pos_as_xyz
 1  'x, y, z'
loop_
 _atom_site_type_symbol
 _atom_site_label
 _atom_site_symmetry_multiplicity
 _atom_site_fract_x
 _atom_site_fract_y
 _atom_site_fract_z
 _atom_site_fract_occupancy
 Cu  Cu1  1  0.77391  0.50000  0.54782  1
 Ge  Ge1  1  0.71572  0.00000  0.43144  1
 Ge  Ge2  1  0.60162  0.00000  0.20323  1
 Ge  Ge3  1  0.45262  0.50000  0.90524  1
 Ge  Ge4  1  0.88238  0.50000  0.76477  1
 Ge  Ge5  1  0.10065  0.50000  0.20130  1
 Ge  Ge6  1  0.21499  0.50000  0.42997  1
 Nd  Nd1  1  0.99643  0.00000  0.99286  1
 Nd  Nd2  1  0.33068  0.00000  0.66137  1
