CIF file written using JARVIS-Tools package.
data_Bi2CO5
_symmetry_space_group_name_H-M  'C2'
_cell_length_a       3.92716
_cell_length_b       7.73399
_cell_length_c       3.92716
_cell_angle_alpha    73.3997
_cell_angle_beta     89.5144
_cell_angle_gamma    106.597

_symmetry_Int_Tables_number  5
_chemical_formula_structural  Bi2CO5
_chemical_formula_sum  Bi2CO5
_cell_volume  109.01647283333256
_cell_formula_units_Z  1
loop_
  _symmetry_equiv_pos_site_id
 _symmetry_equiv_pos_as_xyz
 1  'x, y, z'
loop_
 _atom_site_type_symbol
 _atom_site_label
 _atom_site_symmetry_multiplicity
 _atom_site_fract_x
 _atom_site_fract_y
 _atom_site_fract_z
 _atom_site_fract_occupancy
 Bi  Bi1  1  0.85317  0.67831  0.13164  1
 Bi  Bi2  1  0.13726  0.32269  0.84764  1
 C  C1  1  0.45566  0.00047  0.44977  1
 O  O1  1  0.22310  0.00050  0.21709  1
 O  O2  1  0.67223  0.16154  0.45578  1
 O  O3  1  0.24999  0.50050  0.24440  1
 O  O4  1  0.46154  0.83935  0.66631  1
 O  O5  1  0.74556  0.50049  0.73997  1
