CIF file written using JARVIS-Tools package.
data_H4SN2O2
_symmetry_space_group_name_H-M  'Fdd2'
_cell_length_a       9.48773
_cell_length_b       8.66404
_cell_length_c       5.00759
_cell_angle_alpha    83.298
_cell_angle_beta     65.0931
_cell_angle_gamma    31.6121

_symmetry_Int_Tables_number  43
_chemical_formula_structural  H4SN2O2
_chemical_formula_sum  H8S2N4O4
_cell_volume  168.45842461654337
_cell_formula_units_Z  2
loop_
  _symmetry_equiv_pos_site_id
 _symmetry_equiv_pos_as_xyz
 1  'x, y, z'
loop_
 _atom_site_type_symbol
 _atom_site_label
 _atom_site_symmetry_multiplicity
 _atom_site_fract_x
 _atom_site_fract_y
 _atom_site_fract_z
 _atom_site_fract_occupancy
 H  H1  1  0.68620  0.70713  0.09826  1
 H  H2  1  0.51020  0.09950  0.70587  1
 H  H3  1  0.15193  0.74142  0.56405  1
 H  H4  1  0.54435  0.56537  0.74007  1
 H  H5  1  0.40795  0.87986  0.04944  1
 H  H6  1  0.66453  0.05073  0.87857  1
 H  H7  1  0.20078  0.58704  0.84227  1
 H  H8  1  0.37165  0.84361  0.58569  1
 N  N1  1  0.43616  0.91941  0.19231  1
 N  N2  1  0.45392  0.19358  0.91812  1
 N  N3  1  0.05791  0.79768  0.81407  1
 N  N4  1  0.33209  0.81542  0.79632  1
 O  O1  1  0.23481  0.33287  0.51429  1
 O  O2  1  0.91979  0.51567  0.33163  1
 O  O3  1  0.73589  0.33180  0.01546  1
 O  O4  1  0.91862  0.01685  0.33040  1
 S  S1  1  0.23963  0.26193  0.26063  1
 S  S2  1  0.98959  0.01198  0.01060  1
