CIF file written using JARVIS-Tools package.
data_LiP
_symmetry_space_group_name_H-M  'P2_1/c'
_cell_length_a       4.9423
_cell_length_b       5.59669
_cell_length_c       9.07279
_cell_angle_alpha    94.8584
_cell_angle_beta     90
_cell_angle_gamma    90

_symmetry_Int_Tables_number  14
_chemical_formula_structural  LiP
_chemical_formula_sum  Li8P8
_cell_volume  250.05652787753942
_cell_formula_units_Z  8
loop_
  _symmetry_equiv_pos_site_id
 _symmetry_equiv_pos_as_xyz
 1  'x, y, z'
loop_
 _atom_site_type_symbol
 _atom_site_label
 _atom_site_symmetry_multiplicity
 _atom_site_fract_x
 _atom_site_fract_y
 _atom_site_fract_z
 _atom_site_fract_occupancy
 Li  Li1  1  0.38935  0.11230  0.32932  1
 Li  Li2  1  0.88935  0.38770  0.17068  1
 Li  Li3  1  0.61065  0.88770  0.67068  1
 Li  Li4  1  0.11065  0.61230  0.82932  1
 Li  Li5  1  0.65893  0.80603  0.03074  1
 Li  Li6  1  0.15893  0.69397  0.46926  1
 Li  Li7  1  0.34107  0.19397  0.96926  1
 Li  Li8  1  0.84107  0.30603  0.53074  1
 P  P1  1  0.89720  0.97967  0.29376  1
 P  P2  1  0.39720  0.52033  0.20624  1
 P  P3  1  0.10280  0.02033  0.70624  1
 P  P4  1  0.60280  0.47967  0.79376  1
 P  P5  1  0.15728  0.80824  0.10981  1
 P  P6  1  0.65728  0.69176  0.39019  1
 P  P7  1  0.84272  0.19176  0.89019  1
 P  P8  1  0.34272  0.30824  0.60981  1
