CIF file written using JARVIS-Tools package.
data_ZrTlCuSe3
_symmetry_space_group_name_H-M  'Cmcm'
_cell_length_a       3.87673
_cell_length_b       7.55093
_cell_length_c       10.2024
_cell_angle_alpha    90
_cell_angle_beta     90
_cell_angle_gamma    104.875

_symmetry_Int_Tables_number  63
_chemical_formula_structural  ZrTlCuSe3
_chemical_formula_sum  Zr2Tl2Cu2Se6
_cell_volume  288.6455068093109
_cell_formula_units_Z  2
loop_
  _symmetry_equiv_pos_site_id
 _symmetry_equiv_pos_as_xyz
 1  'x, y, z'
loop_
 _atom_site_type_symbol
 _atom_site_label
 _atom_site_symmetry_multiplicity
 _atom_site_fract_x
 _atom_site_fract_y
 _atom_site_fract_z
 _atom_site_fract_occupancy
 Cu  Cu1  1  0.46261  0.92522  0.75000  1
 Cu  Cu2  1  0.53739  0.07478  0.25000  1
 Se  Se1  1  0.62747  0.25493  0.04929  1
 Se  Se2  1  0.37253  0.74507  0.95071  1
 Se  Se3  1  0.37253  0.74507  0.54929  1
 Se  Se4  1  0.62747  0.25493  0.45071  1
 Se  Se5  1  0.06707  0.13415  0.75000  1
 Se  Se6  1  0.93293  0.86585  0.25000  1
 Tl  Tl1  1  0.25028  0.50057  0.25000  1
 Tl  Tl2  1  0.74972  0.49943  0.75000  1
 Zr  Zr1  1  0.00000  0.00000  0.50000  1
 Zr  Zr2  1  0.00000  0.00000  0.00000  1
