CIF file written using JARVIS-Tools package.
data_Be2ZnBr
_symmetry_space_group_name_H-M  'P4mm'
_cell_length_a       3.09214
_cell_length_b       3.09214
_cell_length_c       7.02185
_cell_angle_alpha    90
_cell_angle_beta     90
_cell_angle_gamma    90

_symmetry_Int_Tables_number  99
_chemical_formula_structural  Be2ZnBr
_chemical_formula_sum  Be2ZnBr
_cell_volume  67.13832539594564
_cell_formula_units_Z  1
loop_
  _symmetry_equiv_pos_site_id
 _symmetry_equiv_pos_as_xyz
 1  'x, y, z'
loop_
 _atom_site_type_symbol
 _atom_site_label
 _atom_site_symmetry_multiplicity
 _atom_site_fract_x
 _atom_site_fract_y
 _atom_site_fract_z
 _atom_site_fract_occupancy
 Be  Be1  1  0.00000  0.00000  0.00906  1
 Be  Be2  1  0.50000  0.50000  0.21578  1
 Br  Br1  1  0.00000  0.00000  0.40079  1
 Zn  Zn1  1  0.50000  0.50000  0.87438  1
