CIF file written using JARVIS-Tools package.
data_BeTlTe
_symmetry_space_group_name_H-M  'I4mm'
_cell_length_a       6.74121
_cell_length_b       6.74121
_cell_length_c       6.74121
_cell_angle_alpha    148.886
_cell_angle_beta     148.886
_cell_angle_gamma    44.5791

_symmetry_Int_Tables_number  107
_chemical_formula_structural  BeTlTe
_chemical_formula_sum  BeTlTe
_cell_volume  81.55548773800898
_cell_formula_units_Z  1
loop_
  _symmetry_equiv_pos_site_id
 _symmetry_equiv_pos_as_xyz
 1  'x, y, z'
loop_
 _atom_site_type_symbol
 _atom_site_label
 _atom_site_symmetry_multiplicity
 _atom_site_fract_x
 _atom_site_fract_y
 _atom_site_fract_z
 _atom_site_fract_occupancy
 Be  Be1  1  0.92029  0.92029  -0.00000  1
 Te  Te1  1  0.40903  0.40903  0.00000  1
 Tl  Tl1  1  0.67067  0.67067  -0.00000  1
