CIF file written using JARVIS-Tools package.
data_CuF2
_symmetry_space_group_name_H-M  'P4_2/mnm'
_cell_length_a       3.17067
_cell_length_b       4.65371
_cell_length_c       4.65117
_cell_angle_alpha    90
_cell_angle_beta     90.0318
_cell_angle_gamma    90

_symmetry_Int_Tables_number  136
_chemical_formula_structural  CuF2
_chemical_formula_sum  Cu2F4
_cell_volume  68.6298875464501
_cell_formula_units_Z  2
loop_
  _symmetry_equiv_pos_site_id
 _symmetry_equiv_pos_as_xyz
 1  'x, y, z'
loop_
 _atom_site_type_symbol
 _atom_site_label
 _atom_site_symmetry_multiplicity
 _atom_site_fract_x
 _atom_site_fract_y
 _atom_site_fract_z
 _atom_site_fract_occupancy
 Cu  Cu1  1  0.50000  0.50000  0.50000  1
 Cu  Cu2  1  0.00000  0.00000  0.00000  1
 F  F1  1  0.50007  0.80234  0.19843  1
 F  F2  1  -0.00007  0.30234  0.30157  1
 F  F3  1  0.00007  0.69766  0.69843  1
 F  F4  1  0.49993  0.19766  0.80157  1
