CIF file written using JARVIS-Tools package.
data_HfBeGa
_symmetry_space_group_name_H-M  'I4mm'
_cell_length_a       5.57648
_cell_length_b       5.57648
_cell_length_c       5.57648
_cell_angle_alpha    149.104
_cell_angle_beta     149.104
_cell_angle_gamma    44.2585

_symmetry_Int_Tables_number  107
_chemical_formula_structural  HfBeGa
_chemical_formula_sum  HfBeGa
_cell_volume  45.58930206234871
_cell_formula_units_Z  1
loop_
  _symmetry_equiv_pos_site_id
 _symmetry_equiv_pos_as_xyz
 1  'x, y, z'
loop_
 _atom_site_type_symbol
 _atom_site_label
 _atom_site_symmetry_multiplicity
 _atom_site_fract_x
 _atom_site_fract_y
 _atom_site_fract_z
 _atom_site_fract_occupancy
 Be  Be1  1  0.98521  0.98521  -0.00000  1
 Ga  Ga1  1  0.35826  0.35826  -0.00000  1
 Hf  Hf1  1  0.65653  0.65653  -0.00000  1
