CIF file written using JARVIS-Tools package.
data_NaTl
_symmetry_space_group_name_H-M  'Cmcm'
_cell_length_a       6.19575
_cell_length_b       6.19575
_cell_length_c       6.25867
_cell_angle_alpha    90
_cell_angle_beta     90
_cell_angle_gamma    98.5886

_symmetry_Int_Tables_number  63
_chemical_formula_structural  NaTl
_chemical_formula_sum  Na4Tl4
_cell_volume  237.55917690281817
_cell_formula_units_Z  4
loop_
  _symmetry_equiv_pos_site_id
 _symmetry_equiv_pos_as_xyz
 1  'x, y, z'
loop_
 _atom_site_type_symbol
 _atom_site_label
 _atom_site_symmetry_multiplicity
 _atom_site_fract_x
 _atom_site_fract_y
 _atom_site_fract_z
 _atom_site_fract_occupancy
 Na  Na1  1  0.13264  0.51019  0.25000  1
 Na  Na2  1  0.48981  0.86736  0.75000  1
 Na  Na3  1  0.86736  0.48981  0.75000  1
 Na  Na4  1  0.51019  0.13264  0.25000  1
 Tl  Tl1  1  0.00000  0.00000  0.50000  1
 Tl  Tl2  1  0.00000  0.00000  0.00000  1
 Tl  Tl3  1  0.64258  0.64258  0.25000  1
 Tl  Tl4  1  0.35742  0.35742  0.75000  1
