CIF file written using JARVIS-Tools package.
data_Ho2Ni2Pb
_symmetry_space_group_name_H-M  'Cmmm'
_cell_length_a       3.63464
_cell_length_b       3.96983
_cell_length_c       7.39167
_cell_angle_alpha    105.577
_cell_angle_beta     90
_cell_angle_gamma    90

_symmetry_Int_Tables_number  65
_chemical_formula_structural  Ho2Ni2Pb
_chemical_formula_sum  Ho2Ni2Pb
_cell_volume  102.73623017242441
_cell_formula_units_Z  1
loop_
  _symmetry_equiv_pos_site_id
 _symmetry_equiv_pos_as_xyz
 1  'x, y, z'
loop_
 _atom_site_type_symbol
 _atom_site_label
 _atom_site_symmetry_multiplicity
 _atom_site_fract_x
 _atom_site_fract_y
 _atom_site_fract_z
 _atom_site_fract_occupancy
 Ho  Ho1  1  0.50000  0.64095  0.28190  1
 Ho  Ho2  1  0.50000  0.35905  0.71810  1
 Ni  Ni1  1  0.00000  0.20050  0.40099  1
 Ni  Ni2  1  0.00000  0.79950  0.59901  1
 Pb  Pb1  1  0.00000  0.00000  0.00000  1
