CIF file written using JARVIS-Tools package.
data_LiCuS
_symmetry_space_group_name_H-M  'Pnma'
_cell_length_a       4.92714
_cell_length_b       5.08025
_cell_length_c       8.27164
_cell_angle_alpha    90
_cell_angle_beta     90
_cell_angle_gamma    90

_symmetry_Int_Tables_number  62
_chemical_formula_structural  LiCuS
_chemical_formula_sum  Li4Cu4S4
_cell_volume  207.0483388649467
_cell_formula_units_Z  4
loop_
  _symmetry_equiv_pos_site_id
 _symmetry_equiv_pos_as_xyz
 1  'x, y, z'
loop_
 _atom_site_type_symbol
 _atom_site_label
 _atom_site_symmetry_multiplicity
 _atom_site_fract_x
 _atom_site_fract_y
 _atom_site_fract_z
 _atom_site_fract_occupancy
 Cu  Cu1  1  0.99838  0.99991  0.99985  1
 Cu  Cu2  1  0.49838  0.00009  0.00015  1
 Cu  Cu3  1  0.99838  0.50009  0.49985  1
 Cu  Cu4  1  0.49838  0.49991  0.50015  1
 Li  Li1  1  0.24870  0.51432  0.13285  1
 Li  Li2  1  0.74870  0.01432  0.36715  1
 Li  Li3  1  0.24870  0.98568  0.63285  1
 Li  Li4  1  0.74870  0.48568  0.86715  1
 S  S1  1  0.74852  0.71659  0.13312  1
 S  S2  1  0.24852  0.21659  0.36688  1
 S  S3  1  0.74852  0.78341  0.63312  1
 S  S4  1  0.24852  0.28341  0.86688  1
