CIF file written using JARVIS-Tools package.
data_V2NiO6
_symmetry_space_group_name_H-M  'P-1'
_cell_length_a       4.79187
_cell_length_b       7.13473
_cell_length_c       8.77478
_cell_angle_alpha    102.049
_cell_angle_beta     90.0542
_cell_angle_gamma    95.1627

_symmetry_Int_Tables_number  2
_chemical_formula_structural  V2NiO6
_chemical_formula_sum  V6Ni3O8
_cell_volume  292.1392938579465
_cell_formula_units_Z  3
loop_
  _symmetry_equiv_pos_site_id
 _symmetry_equiv_pos_as_xyz
 1  'x, y, z'
loop_
 _atom_site_type_symbol
 _atom_site_label
 _atom_site_symmetry_multiplicity
 _atom_site_fract_x
 _atom_site_fract_y
 _atom_site_fract_z
 _atom_site_fract_occupancy
 Ni  Ni1  1  -0.00000  0.00000  0.50000  1
 Ni  Ni2  1  0.99812  0.99015  0.83370  1
 Ni  Ni3  1  0.00188  0.00985  0.16630  1
 O  O1  1  0.77610  0.46845  0.24473  1
 O  O2  1  0.22390  0.53155  0.75527  1
 O  O3  1  0.28759  0.52320  0.42234  1
 O  O4  1  0.71241  0.47680  0.57766  1
 O  O5  1  0.28765  0.52012  0.08427  1
 O  O6  1  0.71235  0.47988  0.91573  1
 O  O7  1  0.35773  0.19968  0.19850  1
 O  O8  1  0.64227  0.80032  0.80150  1
 O  O9  1  0.65659  0.83611  0.11326  1
 O  O10  1  0.34050  0.16225  0.49598  1
 O  O11  1  0.65950  0.83775  0.50402  1
 O  O12  1  0.88929  0.17195  0.69828  1
 O  O13  1  0.83302  0.14761  0.35917  1
 O  O14  1  0.11071  0.82805  0.30172  1
 O  O15  1  0.83752  0.15081  0.01916  1
 O  O16  1  0.16248  0.84919  0.98084  1
 O  O17  1  0.34341  0.16389  0.88674  1
 O  O18  1  0.16698  0.85239  0.64083  1
 V  V1  1  0.88938  0.41822  0.73684  1
 V  V2  1  0.11062  0.58178  0.26316  1
 V  V3  1  0.54658  0.28396  0.39183  1
 V  V4  1  0.45342  0.71604  0.60817  1
 V  V5  1  0.54706  0.28526  0.03320  1
 V  V6  1  0.45294  0.71474  0.96680  1
