CIF file written using JARVIS-Tools package.
data_Li2FeO3
_symmetry_space_group_name_H-M  'Pnna'
_cell_length_a       4.81852
_cell_length_b       8.23016
_cell_length_c       4.8229
_cell_angle_alpha    90
_cell_angle_beta     89.9989
_cell_angle_gamma    90

_symmetry_Int_Tables_number  52
_chemical_formula_structural  Li2FeO3
_chemical_formula_sum  Li8Fe4O2
_cell_volume  191.2626623161127
_cell_formula_units_Z  4
loop_
  _symmetry_equiv_pos_site_id
 _symmetry_equiv_pos_as_xyz
 1  'x, y, z'
loop_
 _atom_site_type_symbol
 _atom_site_label
 _atom_site_symmetry_multiplicity
 _atom_site_fract_x
 _atom_site_fract_y
 _atom_site_fract_z
 _atom_site_fract_occupancy
 Fe  Fe1  1  0.50000  0.59859  0.50000  1
 Fe  Fe2  1  0.50000  0.91551  0.00000  1
 Fe  Fe3  1  0.00000  0.09859  0.00000  1
 Fe  Fe4  1  0.00000  0.41551  0.50000  1
 Li  Li1  1  0.00000  0.74667  0.00000  1
 Li  Li2  1  0.00000  0.76743  0.50000  1
 Li  Li3  1  0.50000  0.58121  0.00000  1
 Li  Li4  1  0.00000  0.08120  0.50000  1
 Li  Li5  1  0.50000  0.93290  0.50000  1
 Li  Li6  1  0.50000  0.26743  0.00000  1
 Li  Li7  1  0.50000  0.24667  0.50000  1
 Li  Li8  1  0.00000  0.43290  0.00000  1
 O  O1  1  0.32493  0.08184  0.78461  1
 O  O2  1  0.32493  0.43226  0.71539  1
 O  O3  1  0.35193  0.75705  0.75000  1
 O  O4  1  0.64807  0.75705  0.25000  1
 O  O5  1  0.67507  0.43226  0.28461  1
 O  O6  1  0.82493  0.58184  0.71539  1
 O  O7  1  0.82493  0.93226  0.78461  1
 O  O8  1  0.85193  0.25705  0.75000  1
 O  O9  1  0.17507  0.93226  0.21539  1
 O  O10  1  0.17507  0.58184  0.28461  1
 O  O11  1  0.67507  0.08184  0.21539  1
 O  O12  1  0.14807  0.25705  0.25000  1
