CIF file written using JARVIS-Tools package.
data_FeOF
_symmetry_space_group_name_H-M  'Pm'
_cell_length_a       4.62289
_cell_length_b       3.05863
_cell_length_c       9.29295
_cell_angle_alpha    90
_cell_angle_beta     90.6665
_cell_angle_gamma    90

_symmetry_Int_Tables_number  6
_chemical_formula_structural  FeOF
_chemical_formula_sum  Fe4O4F4
_cell_volume  131.3907514932617
_cell_formula_units_Z  4
loop_
  _symmetry_equiv_pos_site_id
 _symmetry_equiv_pos_as_xyz
 1  'x, y, z'
loop_
 _atom_site_type_symbol
 _atom_site_label
 _atom_site_symmetry_multiplicity
 _atom_site_fract_x
 _atom_site_fract_y
 _atom_site_fract_z
 _atom_site_fract_occupancy
 F  F1  1  0.68517  0.00000  0.84420  1
 F  F2  1  0.31795  0.00000  0.15399  1
 F  F3  1  0.19696  0.50000  0.89764  1
 F  F4  1  0.20631  0.50000  0.39789  1
 Fe  Fe1  1  0.97934  0.00000  0.01021  1
 Fe  Fe2  1  0.97278  0.00000  0.51399  1
 Fe  Fe3  1  0.47970  0.50000  0.71831  1
 Fe  Fe4  1  0.55393  0.50000  0.26529  1
 O  O1  1  0.79414  0.50000  0.59991  1
 O  O2  1  0.81106  0.50000  0.09857  1
 O  O3  1  0.72040  0.00000  0.35873  1
 O  O4  1  0.28226  0.00000  0.64126  1
