CIF file written using JARVIS-Tools package.
data_KBePt2
_symmetry_space_group_name_H-M  'P4mm'
_cell_length_a       3.1318
_cell_length_b       3.1318
_cell_length_c       7.55782
_cell_angle_alpha    90
_cell_angle_beta     90
_cell_angle_gamma    90

_symmetry_Int_Tables_number  99
_chemical_formula_structural  KBePt2
_chemical_formula_sum  KBePt2
_cell_volume  74.12825710088964
_cell_formula_units_Z  1
loop_
  _symmetry_equiv_pos_site_id
 _symmetry_equiv_pos_as_xyz
 1  'x, y, z'
loop_
 _atom_site_type_symbol
 _atom_site_label
 _atom_site_symmetry_multiplicity
 _atom_site_fract_x
 _atom_site_fract_y
 _atom_site_fract_z
 _atom_site_fract_occupancy
 Be  Be1  1  0.00000  0.00000  0.37845  1
 K  K1  1  0.50000  0.50000  0.74832  1
 Pt  Pt1  1  0.00000  0.00000  0.06340  1
 Pt  Pt2  1  0.50000  0.50000  0.30984  1
