CIF file written using JARVIS-Tools package.
data_BeCrGe
_symmetry_space_group_name_H-M  'I4mm'
_cell_length_a       6.51311
_cell_length_b       6.51311
_cell_length_c       6.51311
_cell_angle_alpha    157.45
_cell_angle_beta     157.45
_cell_angle_gamma    32.1041

_symmetry_Int_Tables_number  107
_chemical_formula_structural  BeCrGe
_chemical_formula_sum  BeCrGe
_cell_volume  40.60223126652604
_cell_formula_units_Z  1
loop_
  _symmetry_equiv_pos_site_id
 _symmetry_equiv_pos_as_xyz
 1  'x, y, z'
loop_
 _atom_site_type_symbol
 _atom_site_label
 _atom_site_symmetry_multiplicity
 _atom_site_fract_x
 _atom_site_fract_y
 _atom_site_fract_z
 _atom_site_fract_occupancy
 Be  Be1  1  0.96888  0.96888  0.00000  1
 Cr  Cr1  1  0.34676  0.34676  -0.00000  1
 Ge  Ge1  1  0.68437  0.68437  0.00000  1
