CIF file written using JARVIS-Tools package.
data_CeGa6
_symmetry_space_group_name_H-M  'P4/nbm'
_cell_length_a       6.02972
_cell_length_b       6.02972
_cell_length_c       7.65663
_cell_angle_alpha    90
_cell_angle_beta     90
_cell_angle_gamma    90

_symmetry_Int_Tables_number  125
_chemical_formula_structural  CeGa6
_chemical_formula_sum  Ce2Ga2
_cell_volume  278.3764837449188
_cell_formula_units_Z  2
loop_
  _symmetry_equiv_pos_site_id
 _symmetry_equiv_pos_as_xyz
 1  'x, y, z'
loop_
 _atom_site_type_symbol
 _atom_site_label
 _atom_site_symmetry_multiplicity
 _atom_site_fract_x
 _atom_site_fract_y
 _atom_site_fract_z
 _atom_site_fract_occupancy
 Ce  Ce1  1  0.25000  0.75000  0.00000  1
 Ce  Ce2  1  0.75000  0.25000  0.00000  1
 Ga  Ga1  1  0.93556  0.06444  0.35062  1
 Ga  Ga2  1  0.56444  0.43556  0.35062  1
 Ga  Ga3  1  0.25000  0.25000  0.16140  1
 Ga  Ga4  1  0.25000  0.25000  0.83860  1
 Ga  Ga5  1  0.75000  0.75000  0.83860  1
 Ga  Ga6  1  0.75000  0.75000  0.16140  1
 Ga  Ga7  1  0.43556  0.56444  0.64938  1
 Ga  Ga8  1  0.93556  0.43556  0.64938  1
 Ga  Ga9  1  0.56444  0.06444  0.64938  1
 Ga  Ga10  1  0.43556  0.93556  0.35062  1
 Ga  Ga11  1  0.06444  0.56444  0.35062  1
 Ga  Ga12  1  0.06444  0.93556  0.64938  1
