CIF file written using JARVIS-Tools package.
data_Mg2CoH5
_symmetry_space_group_name_H-M  'P4/nmm'
_cell_length_a       4.43697
_cell_length_b       4.43697
_cell_length_c       6.5522
_cell_angle_alpha    90
_cell_angle_beta     90
_cell_angle_gamma    90

_symmetry_Int_Tables_number  129
_chemical_formula_structural  Mg2CoH5
_chemical_formula_sum  Mg4Co2H0
_cell_volume  128.9911440944049
_cell_formula_units_Z  2
loop_
  _symmetry_equiv_pos_site_id
 _symmetry_equiv_pos_as_xyz
 1  'x, y, z'
loop_
 _atom_site_type_symbol
 _atom_site_label
 _atom_site_symmetry_multiplicity
 _atom_site_fract_x
 _atom_site_fract_y
 _atom_site_fract_z
 _atom_site_fract_occupancy
 Co  Co1  1  0.50000  0.00000  0.74425  1
 Co  Co2  1  0.00000  0.50000  0.25575  1
 H  H1  1  0.50000  0.00000  0.50383  1
 H  H2  1  0.00000  0.50000  0.49617  1
 H  H3  1  0.74308  0.24308  0.77427  1
 H  H4  1  0.25692  0.24308  0.77427  1
 H  H5  1  0.74308  0.75692  0.77427  1
 H  H6  1  0.25692  0.75692  0.77427  1
 H  H7  1  0.75692  0.25692  0.22573  1
 H  H8  1  0.24308  0.25692  0.22573  1
 H  H9  1  0.75692  0.74308  0.22573  1
 H  H10  1  0.24308  0.74308  0.22573  1
 Mg  Mg1  1  0.50000  0.50000  0.00000  1
 Mg  Mg2  1  0.00000  0.00000  0.00000  1
 Mg  Mg3  1  0.50000  0.50000  0.50000  1
 Mg  Mg4  1  0.00000  0.00000  0.50000  1
