CIF file written using JARVIS-Tools package.
data_NaNiPO4
_symmetry_space_group_name_H-M  'Cmcm'
_cell_length_a       4.95474
_cell_length_b       4.95474
_cell_length_c       6.70277
_cell_angle_alpha    90
_cell_angle_beta     90
_cell_angle_gamma    64.8195

_symmetry_Int_Tables_number  63
_chemical_formula_structural  NaNiPO4
_chemical_formula_sum  Na2Ni2P2O8
_cell_volume  148.91194179008852
_cell_formula_units_Z  2
loop_
  _symmetry_equiv_pos_site_id
 _symmetry_equiv_pos_as_xyz
 1  'x, y, z'
loop_
 _atom_site_type_symbol
 _atom_site_label
 _atom_site_symmetry_multiplicity
 _atom_site_fract_x
 _atom_site_fract_y
 _atom_site_fract_z
 _atom_site_fract_occupancy
 Na  Na1  1  0.31259  0.31259  0.75000  1
 Na  Na2  1  0.68741  0.68741  0.25000  1
 Ni  Ni1  1  0.00000  0.00000  0.00000  1
 Ni  Ni2  1  0.00000  0.00000  0.50000  1
 O  O1  1  0.20965  0.68933  0.25000  1
 O  O2  1  0.31067  0.79035  0.75000  1
 O  O3  1  0.23276  0.23276  0.43652  1
 O  O4  1  0.76724  0.76724  0.56348  1
 O  O5  1  0.23276  0.23276  0.06348  1
 O  O6  1  0.76724  0.76724  0.93652  1
 O  O7  1  0.79035  0.31067  0.75000  1
 O  O8  1  0.68933  0.20965  0.25000  1
 P  P1  1  0.33751  0.33751  0.25000  1
 P  P2  1  0.66249  0.66249  0.75000  1
