CIF file written using JARVIS-Tools package.
data_Sr2CuClO2
_symmetry_space_group_name_H-M  'R-3m'
_cell_length_a       4.0166
_cell_length_b       4.0166
_cell_length_c       27.6349
_cell_angle_alpha    90
_cell_angle_beta     90
_cell_angle_gamma    120

_symmetry_Int_Tables_number  166
_chemical_formula_structural  Sr2CuClO2
_chemical_formula_sum  Sr6Cu3Cl3O6
_cell_volume  386.10632457733834
_cell_formula_units_Z  3
loop_
  _symmetry_equiv_pos_site_id
 _symmetry_equiv_pos_as_xyz
 1  'x, y, z'
loop_
 _atom_site_type_symbol
 _atom_site_label
 _atom_site_symmetry_multiplicity
 _atom_site_fract_x
 _atom_site_fract_y
 _atom_site_fract_z
 _atom_site_fract_occupancy
 Cl  Cl1  1  0.33365  0.00000  0.83333  1
 Cl  Cl2  1  0.66635  0.66635  0.50000  1
 Cl  Cl3  1  -0.00000  0.33365  0.16667  1
 Cu  Cu1  1  0.00000  0.33313  0.66667  1
 Cu  Cu2  1  0.66687  0.66687  0.00000  1
 Cu  Cu3  1  0.33313  -0.00000  0.33333  1
 O  O1  1  0.33298  0.99975  0.39915  1
 O  O2  1  0.66702  0.66678  0.93418  1
 O  O3  1  0.99975  0.33298  0.60085  1
 O  O4  1  0.66678  0.66702  0.06582  1
 O  O5  1  0.33322  0.00025  0.26751  1
 O  O6  1  0.00025  0.33322  0.73249  1
 Sr  Sr1  1  0.00038  0.33346  0.90994  1
 Sr  Sr2  1  0.99962  0.33308  0.42339  1
 Sr  Sr3  1  0.66692  0.66654  0.75673  1
 Sr  Sr4  1  0.33346  0.00038  0.09006  1
 Sr  Sr5  1  0.66654  0.66692  0.24327  1
 Sr  Sr6  1  0.33308  0.99962  0.57661  1
