CIF file written using JARVIS-Tools package.
data_P2Ru
_symmetry_space_group_name_H-M  'Pnnm'
_cell_length_a       2.92264
_cell_length_b       5.15606
_cell_length_c       5.94714
_cell_angle_alpha    90
_cell_angle_beta     90
_cell_angle_gamma    90

_symmetry_Int_Tables_number  58
_chemical_formula_structural  P2Ru
_chemical_formula_sum  P4Ru2
_cell_volume  89.61946638825532
_cell_formula_units_Z  2
loop_
  _symmetry_equiv_pos_site_id
 _symmetry_equiv_pos_as_xyz
 1  'x, y, z'
loop_
 _atom_site_type_symbol
 _atom_site_label
 _atom_site_symmetry_multiplicity
 _atom_site_fract_x
 _atom_site_fract_y
 _atom_site_fract_z
 _atom_site_fract_occupancy
 P  P1  1  0.50000  0.33738  0.87294  1
 P  P2  1  0.50000  0.66262  0.12706  1
 P  P3  1  0.00000  0.16262  0.37294  1
 P  P4  1  0.00000  0.83738  0.62706  1
 Ru  Ru1  1  0.50000  0.50000  0.50000  1
 Ru  Ru2  1  0.00000  0.00000  0.00000  1
