CIF file written using JARVIS-Tools package.
data_BeCdSb2
_symmetry_space_group_name_H-M  'I-4m2'
_cell_length_a       6.32988
_cell_length_b       6.32988
_cell_length_c       6.32988
_cell_angle_alpha    142.401
_cell_angle_beta     142.401
_cell_angle_gamma    54.2258

_symmetry_Int_Tables_number  119
_chemical_formula_structural  BeCdSb2
_chemical_formula_sum  BeCdSb2
_cell_volume  93.77899597173378
_cell_formula_units_Z  1
loop_
  _symmetry_equiv_pos_site_id
 _symmetry_equiv_pos_as_xyz
 1  'x, y, z'
loop_
 _atom_site_type_symbol
 _atom_site_label
 _atom_site_symmetry_multiplicity
 _atom_site_fract_x
 _atom_site_fract_y
 _atom_site_fract_z
 _atom_site_fract_occupancy
 Be  Be1  1  0.50000  0.50000  0.00000  1
 Cd  Cd1  1  0.75000  0.25000  0.50000  1
 Sb  Sb1  1  0.00000  0.00000  0.00000  1
 Sb  Sb2  1  0.25000  0.75000  0.50000  1
