CIF file written using JARVIS-Tools package.
data_SrMg6V
_symmetry_space_group_name_H-M  'P-6m2'
_cell_length_a       6.51035
_cell_length_b       6.51035
_cell_length_c       5.1071
_cell_angle_alpha    90
_cell_angle_beta     90
_cell_angle_gamma    119.972

_symmetry_Int_Tables_number  187
_chemical_formula_structural  SrMg6V
_chemical_formula_sum  SrMg6V
_cell_volume  187.51453621875982
_cell_formula_units_Z  1
loop_
  _symmetry_equiv_pos_site_id
 _symmetry_equiv_pos_as_xyz
 1  'x, y, z'
loop_
 _atom_site_type_symbol
 _atom_site_label
 _atom_site_symmetry_multiplicity
 _atom_site_fract_x
 _atom_site_fract_y
 _atom_site_fract_z
 _atom_site_fract_occupancy
 Mg  Mg1  1  0.06709  0.90845  0.25000  1
 Mg  Mg2  1  0.59155  0.43291  0.25000  1
 Mg  Mg3  1  0.59154  0.90846  0.25000  1
 Mg  Mg4  1  0.39264  0.57134  0.75000  1
 Mg  Mg5  1  0.92866  0.10736  0.75000  1
 Mg  Mg6  1  0.92854  0.57146  0.75000  1
 Sr  Sr1  1  0.41665  0.08335  0.75000  1
 V  V1  1  0.08332  0.41668  0.25000  1
