CIF file written using JARVIS-Tools package.
data_Li12Mg3Si4
_symmetry_space_group_name_H-M  'I-43d'
_cell_length_a       9.23263
_cell_length_b       9.23263
_cell_length_c       9.23263
_cell_angle_alpha    109.471
_cell_angle_beta     109.471
_cell_angle_gamma    109.471

_symmetry_Int_Tables_number  220
_chemical_formula_structural  Li12Mg3Si4
_chemical_formula_sum  Li24Mg6Si8
_cell_volume  605.835762665179
_cell_formula_units_Z  2
loop_
  _symmetry_equiv_pos_site_id
 _symmetry_equiv_pos_as_xyz
 1  'x, y, z'
loop_
 _atom_site_type_symbol
 _atom_site_label
 _atom_site_symmetry_multiplicity
 _atom_site_fract_x
 _atom_site_fract_y
 _atom_site_fract_z
 _atom_site_fract_occupancy
 Li  Li1  1  0.11277  0.08283  0.26971  1
 Li  Li2  1  0.41717  0.52994  0.18688  1
 Li  Li3  1  0.91717  0.68688  0.02994  1
 Li  Li4  1  0.15694  0.88723  0.47006  1
 Li  Li5  1  0.47006  0.15694  0.88723  1
 Li  Li6  1  0.73029  0.34306  0.81312  1
 Li  Li7  1  0.68688  0.02994  0.91717  1
 Li  Li8  1  0.84306  0.23029  0.31312  1
 Li  Li9  1  0.52994  0.18688  0.41717  1
 Li  Li10  1  0.65694  0.97006  0.38723  1
 Li  Li11  1  0.23029  0.31312  0.84306  1
 Li  Li12  1  0.58283  0.61277  0.76971  1
 Li  Li13  1  0.81312  0.73029  0.34306  1
 Li  Li14  1  0.26971  0.11277  0.08283  1
 Li  Li15  1  0.08283  0.26971  0.11277  1
 Li  Li16  1  0.31312  0.84306  0.23029  1
 Li  Li17  1  0.18688  0.41717  0.52994  1
 Li  Li18  1  0.38723  0.65694  0.97006  1
 Li  Li19  1  0.76971  0.58283  0.61277  1
 Li  Li20  1  0.61277  0.76971  0.58283  1
 Li  Li21  1  0.34306  0.81312  0.73029  1
 Li  Li22  1  0.02994  0.91717  0.68688  1
 Li  Li23  1  0.88723  0.47006  0.15694  1
 Li  Li24  1  0.97006  0.38723  0.65694  1
 Mg  Mg1  1  0.12500  0.75000  0.87500  1
 Mg  Mg2  1  0.25000  0.62500  0.37500  1
 Mg  Mg3  1  0.37500  0.25000  0.62500  1
 Mg  Mg4  1  0.62500  0.37500  0.25000  1
 Mg  Mg5  1  0.75000  0.87500  0.12500  1
 Mg  Mg6  1  0.87500  0.12500  0.75000  1
 Si  Si1  1  0.50000  -0.00000  0.09303  1
 Si  Si2  1  0.09303  0.50000  -0.00000  1
 Si  Si3  1  0.40697  0.40697  0.40697  1
 Si  Si4  1  0.59303  0.50000  -0.00000  1
 Si  Si5  1  0.00000  0.59303  0.50000  1
 Si  Si6  1  0.50000  -0.00000  0.59303  1
 Si  Si7  1  0.00000  0.09303  0.50000  1
 Si  Si8  1  0.90697  0.90697  0.90697  1
