CIF file written using JARVIS-Tools package.
data_Mg6NbSi
_symmetry_space_group_name_H-M  'Amm2'
_cell_length_a       6.17048
_cell_length_b       6.17047
_cell_length_c       4.82432
_cell_angle_alpha    90
_cell_angle_beta     90
_cell_angle_gamma    119.362

_symmetry_Int_Tables_number  38
_chemical_formula_structural  Mg6NbSi
_chemical_formula_sum  Mg6NbSi
_cell_volume  160.08844266612425
_cell_formula_units_Z  1
loop_
  _symmetry_equiv_pos_site_id
 _symmetry_equiv_pos_as_xyz
 1  'x, y, z'
loop_
 _atom_site_type_symbol
 _atom_site_label
 _atom_site_symmetry_multiplicity
 _atom_site_fract_x
 _atom_site_fract_y
 _atom_site_fract_z
 _atom_site_fract_occupancy
 Mg  Mg1  1  0.16841  0.84037  0.25000  1
 Mg  Mg2  1  0.65963  0.33159  0.25000  1
 Mg  Mg3  1  0.66714  0.83286  0.25000  1
 Mg  Mg4  1  0.32828  0.66940  0.75000  1
 Mg  Mg5  1  0.83060  0.17172  0.75000  1
 Mg  Mg6  1  0.83140  0.66860  0.75000  1
 Nb  Nb1  1  0.32037  0.17963  0.75000  1
 Si  Si1  1  0.19416  0.30584  0.25000  1
