CIF file written using JARVIS-Tools package.
data_SrBeRe
_symmetry_space_group_name_H-M  'I4mm'
_cell_length_a       5.90357
_cell_length_b       5.90357
_cell_length_c       5.90357
_cell_angle_alpha    148.102
_cell_angle_beta     148.102
_cell_angle_gamma    45.7345

_symmetry_Int_Tables_number  107
_chemical_formula_structural  SrBeRe
_chemical_formula_sum  SrBeRe
_cell_volume  57.25607068330398
_cell_formula_units_Z  1
loop_
  _symmetry_equiv_pos_site_id
 _symmetry_equiv_pos_as_xyz
 1  'x, y, z'
loop_
 _atom_site_type_symbol
 _atom_site_label
 _atom_site_symmetry_multiplicity
 _atom_site_fract_x
 _atom_site_fract_y
 _atom_site_fract_z
 _atom_site_fract_occupancy
 Be  Be1  1  0.93463  0.93463  0.00000  1
 Re  Re1  1  0.39232  0.39232  0.00000  1
 Sr  Sr1  1  0.67305  0.67305  0.00000  1
