CIF file written using JARVIS-Tools package.
data_Li2Ti3V3O12
_symmetry_space_group_name_H-M  'P-1'
_cell_length_a       5.10642
_cell_length_b       5.97911
_cell_length_c       7.76851
_cell_angle_alpha    78.5033
_cell_angle_beta     76.9096
_cell_angle_gamma    73.0269

_symmetry_Int_Tables_number  2
_chemical_formula_structural  Li2Ti3V3O12
_chemical_formula_sum  Li2Ti3V3O2
_cell_volume  218.69069597564916
_cell_formula_units_Z  1
loop_
  _symmetry_equiv_pos_site_id
 _symmetry_equiv_pos_as_xyz
 1  'x, y, z'
loop_
 _atom_site_type_symbol
 _atom_site_label
 _atom_site_symmetry_multiplicity
 _atom_site_fract_x
 _atom_site_fract_y
 _atom_site_fract_z
 _atom_site_fract_occupancy
 Li  Li1  1  0.50000  0.50000  0.50000  1
 Li  Li2  1  0.00000  0.00000  0.00000  1
 O  O1  1  0.76935  0.80678  0.90444  1
 O  O2  1  0.74016  0.02971  0.25760  1
 O  O3  1  0.72854  0.69353  0.59341  1
 O  O4  1  0.73909  0.35623  0.93141  1
 O  O5  1  0.25984  0.97029  0.74240  1
 O  O6  1  0.23887  0.53539  0.75938  1
 O  O7  1  0.76113  0.46461  0.24062  1
 O  O8  1  0.75414  0.14666  0.56986  1
 O  O9  1  0.26091  0.64377  0.06859  1
 O  O10  1  0.27146  0.30647  0.40659  1
 O  O11  1  0.24586  0.85334  0.43014  1
 O  O12  1  0.23065  0.19322  0.09556  1
 Ti  Ti1  1  0.50000  -0.00000  0.50000  1
 Ti  Ti2  1  0.49122  0.33282  0.16478  1
 Ti  Ti3  1  0.50878  0.66718  0.83522  1
 V  V1  1  0.00262  0.16093  0.33840  1
 V  V2  1  -0.00000  0.50000  0.00000  1
 V  V3  1  0.99738  0.83907  0.66160  1
