CIF file written using JARVIS-Tools package.
data_TeW2Se2S
_symmetry_space_group_name_H-M  'P3m1'
_cell_length_a       3.34781
_cell_length_b       3.34781
_cell_length_c       38.0335
_cell_angle_alpha    90.0003
_cell_angle_beta     90
_cell_angle_gamma    120

_symmetry_Int_Tables_number  156
_chemical_formula_structural  TeW2Se2S
_chemical_formula_sum  Te2W4Se4S2
_cell_volume  369.1620347926721
_cell_formula_units_Z  2
loop_
  _symmetry_equiv_pos_site_id
 _symmetry_equiv_pos_as_xyz
 1  'x, y, z'
loop_
 _atom_site_type_symbol
 _atom_site_label
 _atom_site_symmetry_multiplicity
 _atom_site_fract_x
 _atom_site_fract_y
 _atom_site_fract_z
 _atom_site_fract_occupancy
 S  S1  1  0.33336  0.66672  0.32188  1
 S  S2  1  0.33336  0.66672  0.24167  1
 Se  Se1  1  0.33335  0.66671  0.70156  1
 Se  Se2  1  0.66664  0.33327  0.04999  1
 Se  Se3  1  0.66664  0.33328  0.13801  1
 Se  Se4  1  0.33335  0.66671  0.61357  1
 Te  Te1  1  0.66665  0.33330  0.41934  1
 Te  Te2  1  0.66665  0.33330  0.51984  1
 W  W1  1  0.33330  0.66660  0.09396  1
 W  W2  1  0.33332  0.66663  0.46961  1
 W  W3  1  0.66669  0.33338  0.28173  1
 W  W4  1  0.66669  0.33338  0.65759  1
