CIF file written using JARVIS-Tools package.
data_CeTlSe2
_symmetry_space_group_name_H-M  'I4/mcm'
_cell_length_a       6.59816
_cell_length_b       6.59816
_cell_length_c       6.59816
_cell_angle_alpha    110.347
_cell_angle_beta     110.347
_cell_angle_gamma    107.733

_symmetry_Int_Tables_number  140
_chemical_formula_structural  CeTlSe2
_chemical_formula_sum  Ce2Tl2Se4
_cell_volume  220.97691232926388
_cell_formula_units_Z  2
loop_
  _symmetry_equiv_pos_site_id
 _symmetry_equiv_pos_as_xyz
 1  'x, y, z'
loop_
 _atom_site_type_symbol
 _atom_site_label
 _atom_site_symmetry_multiplicity
 _atom_site_fract_x
 _atom_site_fract_y
 _atom_site_fract_z
 _atom_site_fract_occupancy
 Ce  Ce1  1  0.25000  0.75000  0.50000  1
 Ce  Ce2  1  0.75000  0.25000  0.50000  1
 Se  Se1  1  0.79477  0.29477  0.08953  1
 Se  Se2  1  0.20523  0.70523  0.91047  1
 Se  Se3  1  0.70523  0.79477  0.50000  1
 Se  Se4  1  0.29477  0.20523  0.50000  1
 Tl  Tl1  1  0.75000  0.75000  0.00000  1
 Tl  Tl2  1  0.25000  0.25000  0.00000  1
