CIF file written using JARVIS-Tools package.
data_SrIF
_symmetry_space_group_name_H-M  'P4/nmm'
_cell_length_a       4.2624
_cell_length_b       4.2624
_cell_length_c       8.79815
_cell_angle_alpha    90
_cell_angle_beta     90
_cell_angle_gamma    90

_symmetry_Int_Tables_number  129
_chemical_formula_structural  SrIF
_chemical_formula_sum  Sr2I2F2
_cell_volume  159.84484562988638
_cell_formula_units_Z  2
loop_
  _symmetry_equiv_pos_site_id
 _symmetry_equiv_pos_as_xyz
 1  'x, y, z'
loop_
 _atom_site_type_symbol
 _atom_site_label
 _atom_site_symmetry_multiplicity
 _atom_site_fract_x
 _atom_site_fract_y
 _atom_site_fract_z
 _atom_site_fract_occupancy
 F  F1  1  0.50000  0.50000  0.00000  1
 F  F2  1  0.00000  0.00000  0.00000  1
 I  I1  1  0.50000  0.00000  0.66584  1
 I  I2  1  0.00000  0.50000  0.33416  1
 Sr  Sr1  1  0.50000  0.00000  0.15336  1
 Sr  Sr2  1  0.00000  0.50000  0.84664  1
