CIF file written using JARVIS-Tools package.
data_KMo3S3
_symmetry_space_group_name_H-M  'P6_3/m'
_cell_length_a       8.75759
_cell_length_b       8.7576
_cell_length_c       4.44343
_cell_angle_alpha    90
_cell_angle_beta     90
_cell_angle_gamma    120

_symmetry_Int_Tables_number  176
_chemical_formula_structural  KMo3S3
_chemical_formula_sum  K2Mo6S6
_cell_volume  295.1335159105432
_cell_formula_units_Z  2
loop_
  _symmetry_equiv_pos_site_id
 _symmetry_equiv_pos_as_xyz
 1  'x, y, z'
loop_
 _atom_site_type_symbol
 _atom_site_label
 _atom_site_symmetry_multiplicity
 _atom_site_fract_x
 _atom_site_fract_y
 _atom_site_fract_z
 _atom_site_fract_occupancy
 K  K1  1  0.33333  0.66667  0.75000  1
 K  K2  1  0.66667  0.33333  0.25000  1
 Mo  Mo1  1  0.96676  0.81051  0.25000  1
 Mo  Mo2  1  0.84375  0.03324  0.25000  1
 Mo  Mo3  1  0.15625  0.96676  0.75000  1
 Mo  Mo4  1  0.03324  0.18949  0.75000  1
 Mo  Mo5  1  0.18949  0.15625  0.25000  1
 Mo  Mo6  1  0.81051  0.84375  0.75000  1
 S  S1  1  0.93498  0.64157  0.75000  1
 S  S2  1  0.06502  0.35843  0.25000  1
 S  S3  1  0.29341  0.93498  0.25000  1
 S  S4  1  0.64157  0.70659  0.25000  1
 S  S5  1  0.35843  0.29341  0.75000  1
 S  S6  1  0.70659  0.06502  0.75000  1
