CIF file written using JARVIS-Tools package.
data_LiNiS2
_symmetry_space_group_name_H-M  'P-3m1'
_cell_length_a       3.43043
_cell_length_b       6.86108
_cell_length_c       5.72631
_cell_angle_alpha    90.0003
_cell_angle_beta     89.9912
_cell_angle_gamma    120.004

_symmetry_Int_Tables_number  164
_chemical_formula_structural  LiNiS2
_chemical_formula_sum  Li2Ni2S4
_cell_volume  116.7154902464097
_cell_formula_units_Z  2
loop_
  _symmetry_equiv_pos_site_id
 _symmetry_equiv_pos_as_xyz
 1  'x, y, z'
loop_
 _atom_site_type_symbol
 _atom_site_label
 _atom_site_symmetry_multiplicity
 _atom_site_fract_x
 _atom_site_fract_y
 _atom_site_fract_z
 _atom_site_fract_occupancy
 Li  Li1  1  -0.00440  0.74716  0.00041  1
 Li  Li2  1  0.99552  0.24724  0.00044  1
 Ni  Ni1  1  0.99541  0.24716  0.50046  1
 Ni  Ni2  1  0.99550  0.74721  0.50039  1
 S  S1  1  0.32876  0.08049  0.71597  1
 S  S2  1  0.32883  0.58052  0.71590  1
 S  S3  1  0.66220  0.91389  0.28488  1
 S  S4  1  0.66211  0.41385  0.28492  1
