data_image0
_chemical_formula_structural       Hg3Pd3Sm3
_chemical_formula_sum              "Hg3 Pd3 Sm3"
_cell_length_a       7.78313
_cell_length_b       7.78312
_cell_length_c       3.87564
_cell_angle_alpha    90
_cell_angle_beta     90
_cell_angle_gamma    120

_space_group_name_H-M_alt    "P 1"
_space_group_IT_number       1

loop_
  _space_group_symop_operation_xyz
  'x, y, z'

loop_
  _atom_site_type_symbol
  _atom_site_label
  _atom_site_symmetry_multiplicity
  _atom_site_fract_x
  _atom_site_fract_y
  _atom_site_fract_z
  _atom_site_occupancy
  Hg  Hg1       1.0  0.26600  0.00001  0.00000  1.0000
  Hg  Hg2       1.0  0.00001  0.26600  0.00000  1.0000
  Hg  Hg3       1.0  0.73400  0.73400  0.00000  1.0000
  Pd  Pd1       1.0  0.66700  0.33300  0.00000  1.0000
  Pd  Pd2       1.0  0.33300  0.66700  0.00000  1.0000
  Pd  Pd3       1.0  0.00002  0.00001  0.50000  1.0000
  Sm  Sm1       1.0  0.60100  0.00002  0.50000  1.0000
  Sm  Sm2       1.0  0.39900  0.39900  0.50000  1.0000
  Sm  Sm3       1.0  0.00002  0.60100  0.50000  1.0000
