CIF file written using JARVIS-Tools package.
data_MnOF
_symmetry_space_group_name_H-M  'Pnma'
_cell_length_a       3.66041
_cell_length_b       5.34184
_cell_length_c       8.75972
_cell_angle_alpha    90
_cell_angle_beta     90
_cell_angle_gamma    90

_symmetry_Int_Tables_number  62
_chemical_formula_structural  MnOF
_chemical_formula_sum  Mn4O4F4
_cell_volume  171.28166388577026
_cell_formula_units_Z  4
loop_
  _symmetry_equiv_pos_site_id
 _symmetry_equiv_pos_as_xyz
 1  'x, y, z'
loop_
 _atom_site_type_symbol
 _atom_site_label
 _atom_site_symmetry_multiplicity
 _atom_site_fract_x
 _atom_site_fract_y
 _atom_site_fract_z
 _atom_site_fract_occupancy
 F  F1  1  0.25000  0.94291  0.29583  1
 F  F2  1  0.75000  0.55709  0.79583  1
 F  F3  1  0.25000  0.44291  0.20417  1
 F  F4  1  0.75000  0.05709  0.70417  1
 Mn  Mn1  1  0.75000  0.85928  0.90664  1
 Mn  Mn2  1  0.25000  0.64072  0.40664  1
 Mn  Mn3  1  0.75000  0.35928  0.59336  1
 Mn  Mn4  1  0.25000  0.14072  0.09336  1
 O  O1  1  0.25000  0.85283  0.96106  1
 O  O2  1  0.75000  0.64717  0.46106  1
 O  O3  1  0.25000  0.35283  0.53894  1
 O  O4  1  0.75000  0.14717  0.03894  1
