CIF file written using JARVIS-Tools package.
data_Ba3NaSi23
_symmetry_space_group_name_H-M  'Pm-3n'
_cell_length_a       10.3853
_cell_length_b       10.3853
_cell_length_c       10.3853
_cell_angle_alpha    90
_cell_angle_beta     90
_cell_angle_gamma    90

_symmetry_Int_Tables_number  223
_chemical_formula_structural  Ba3NaSi23
_chemical_formula_sum  Ba6Na2Si46
_cell_volume  1120.1068643358221
_cell_formula_units_Z  2
loop_
  _symmetry_equiv_pos_site_id
 _symmetry_equiv_pos_as_xyz
 1  'x, y, z'
loop_
 _atom_site_type_symbol
 _atom_site_label
 _atom_site_symmetry_multiplicity
 _atom_site_fract_x
 _atom_site_fract_y
 _atom_site_fract_z
 _atom_site_fract_occupancy
 Ba  Ba1  1  0.75000  0.50000  0.00000  1
 Ba  Ba2  1  0.50000  0.00000  0.75000  1
 Ba  Ba3  1  0.00000  0.75000  0.50000  1
 Ba  Ba4  1  0.00000  0.25000  0.50000  1
 Ba  Ba5  1  0.25000  0.50000  0.00000  1
 Ba  Ba6  1  0.50000  0.00000  0.25000  1
 Na  Na1  1  0.00000  0.00000  0.00000  1
 Na  Na2  1  0.50000  0.50000  0.50000  1
 Si  Si1  1  0.68410  0.31590  0.68410  1
 Si  Si2  1  0.18410  0.18410  0.18410  1
 Si  Si3  1  0.50000  0.25000  0.00000  1
 Si  Si4  1  0.50000  0.75000  0.00000  1
 Si  Si5  1  0.25000  0.00000  0.50000  1
 Si  Si6  1  0.00000  0.50000  0.25000  1
 Si  Si7  1  0.75000  0.00000  0.50000  1
 Si  Si8  1  0.68410  0.68410  0.31590  1
 Si  Si9  1  0.00000  0.50000  0.75000  1
 Si  Si10  1  0.68410  0.68410  0.68410  1
 Si  Si11  1  0.31590  0.31590  0.31590  1
 Si  Si12  1  0.18410  0.81590  0.81590  1
 Si  Si13  1  0.81590  0.18410  0.81590  1
 Si  Si14  1  0.00000  0.69541  0.12061  1
 Si  Si15  1  0.81590  0.81590  0.81590  1
 Si  Si16  1  0.81590  0.18410  0.18410  1
 Si  Si17  1  0.31590  0.31590  0.68410  1
 Si  Si18  1  0.68410  0.31590  0.31590  1
 Si  Si19  1  0.37939  0.19541  0.50000  1
 Si  Si20  1  0.18410  0.81590  0.18410  1
 Si  Si21  1  0.31590  0.68410  0.68410  1
 Si  Si22  1  0.00000  0.30459  0.12061  1
 Si  Si23  1  0.50000  0.37939  0.19541  1
 Si  Si24  1  0.50000  0.37939  0.80459  1
 Si  Si25  1  0.19541  0.50000  0.37939  1
 Si  Si26  1  0.50000  0.62061  0.19541  1
 Si  Si27  1  0.62061  0.80459  0.50000  1
 Si  Si28  1  0.37939  0.80459  0.50000  1
 Si  Si29  1  0.19541  0.50000  0.62061  1
 Si  Si30  1  0.80459  0.50000  0.62061  1
 Si  Si31  1  0.12061  0.00000  0.30459  1
 Si  Si32  1  0.30459  0.12061  0.00000  1
 Si  Si33  1  0.69541  0.87939  0.00000  1
 Si  Si34  1  0.62061  0.19541  0.50000  1
 Si  Si35  1  0.12061  0.00000  0.69541  1
 Si  Si36  1  0.87939  0.00000  0.30459  1
 Si  Si37  1  0.87939  0.00000  0.69541  1
 Si  Si38  1  0.30459  0.87939  0.00000  1
 Si  Si39  1  0.00000  0.69541  0.87939  1
 Si  Si40  1  0.00000  0.30459  0.87939  1
 Si  Si41  1  0.80459  0.50000  0.37939  1
 Si  Si42  1  0.50000  0.62061  0.80459  1
 Si  Si43  1  0.81590  0.81590  0.18410  1
 Si  Si44  1  0.31590  0.68410  0.31590  1
 Si  Si45  1  0.69541  0.12061  0.00000  1
 Si  Si46  1  0.18410  0.18410  0.81590  1
