CIF file written using JARVIS-Tools package.
data_MnFeAs
_symmetry_space_group_name_H-M  'P-62m'
_cell_length_a       6.29724
_cell_length_b       6.29724
_cell_length_c       3.41968
_cell_angle_alpha    90
_cell_angle_beta     90
_cell_angle_gamma    120

_symmetry_Int_Tables_number  189
_chemical_formula_structural  MnFeAs
_chemical_formula_sum  Mn3Fe3As3
_cell_volume  117.43978350052313
_cell_formula_units_Z  3
loop_
  _symmetry_equiv_pos_site_id
 _symmetry_equiv_pos_as_xyz
 1  'x, y, z'
loop_
 _atom_site_type_symbol
 _atom_site_label
 _atom_site_symmetry_multiplicity
 _atom_site_fract_x
 _atom_site_fract_y
 _atom_site_fract_z
 _atom_site_fract_occupancy
 As  As1  1  0.33333  0.66667  0.00000  1
 As  As2  1  0.66667  0.33333  0.00000  1
 As  As3  1  0.00000  0.00000  0.50000  1
 Fe  Fe1  1  0.25688  -0.00000  0.00000  1
 Fe  Fe2  1  -0.00000  0.25688  0.00000  1
 Fe  Fe3  1  0.74312  0.74312  0.00000  1
 Mn  Mn1  1  0.59621  -0.00000  0.50000  1
 Mn  Mn2  1  -0.00000  0.59621  0.50000  1
 Mn  Mn3  1  0.40379  0.40379  0.50000  1
