CIF file written using JARVIS-Tools package.
data_BeNiMo
_symmetry_space_group_name_H-M  'I4mm'
_cell_length_a       5.21092
_cell_length_b       5.21092
_cell_length_c       5.21092
_cell_angle_alpha    150.583
_cell_angle_beta     150.583
_cell_angle_gamma    42.0866

_symmetry_Int_Tables_number  107
_chemical_formula_structural  BeNiMo
_chemical_formula_sum  BeNiMo
_cell_volume  34.05384308121437
_cell_formula_units_Z  1
loop_
  _symmetry_equiv_pos_site_id
 _symmetry_equiv_pos_as_xyz
 1  'x, y, z'
loop_
 _atom_site_type_symbol
 _atom_site_label
 _atom_site_symmetry_multiplicity
 _atom_site_fract_x
 _atom_site_fract_y
 _atom_site_fract_z
 _atom_site_fract_occupancy
 Be  Be1  1  0.01828  0.01828  0.00000  1
 Mo  Mo1  1  0.33878  0.33878  -0.00000  1
 Ni  Ni1  1  0.64295  0.64295  -0.00000  1
