CIF file written using JARVIS-Tools package.
data_Zn2As2O7
_symmetry_space_group_name_H-M  'C2/m'
_cell_length_a       4.85614
_cell_length_b       5.43977
_cell_length_c       5.43977
_cell_angle_alpha    103.506
_cell_angle_beta     98.8735
_cell_angle_gamma    98.8735

_symmetry_Int_Tables_number  12
_chemical_formula_structural  Zn2As2O7
_chemical_formula_sum  Zn2As2O7
_cell_volume  135.31772363399415
_cell_formula_units_Z  1
loop_
  _symmetry_equiv_pos_site_id
 _symmetry_equiv_pos_as_xyz
 1  'x, y, z'
loop_
 _atom_site_type_symbol
 _atom_site_label
 _atom_site_symmetry_multiplicity
 _atom_site_fract_x
 _atom_site_fract_y
 _atom_site_fract_z
 _atom_site_fract_occupancy
 As  As1  1  0.40385  0.23247  0.23247  1
 As  As2  1  0.59615  0.76753  0.76753  1
 O  O1  1  0.27166  0.59289  0.59289  1
 O  O2  1  0.21279  0.06541  0.40048  1
 O  O3  1  0.21279  0.40048  0.06541  1
 O  O4  1  0.50000  0.00000  0.00000  1
 O  O5  1  0.78721  0.59952  0.93459  1
 O  O6  1  0.78721  0.93459  0.59952  1
 O  O7  1  0.72834  0.40711  0.40711  1
 Zn  Zn1  1  0.00000  0.30648  0.69352  1
 Zn  Zn2  1  0.00000  0.69352  0.30648  1
