CIF file written using JARVIS-Tools package.
data_KBeTe2
_symmetry_space_group_name_H-M  'I-4m2'
_cell_length_a       6.45346
_cell_length_b       6.45346
_cell_length_c       6.45346
_cell_angle_alpha    140.054
_cell_angle_beta     140.054
_cell_angle_gamma    57.7715

_symmetry_Int_Tables_number  119
_chemical_formula_structural  KBeTe2
_chemical_formula_sum  KBeTe2
_cell_volume  109.82878050821049
_cell_formula_units_Z  1
loop_
  _symmetry_equiv_pos_site_id
 _symmetry_equiv_pos_as_xyz
 1  'x, y, z'
loop_
 _atom_site_type_symbol
 _atom_site_label
 _atom_site_symmetry_multiplicity
 _atom_site_fract_x
 _atom_site_fract_y
 _atom_site_fract_z
 _atom_site_fract_occupancy
 Be  Be1  1  0.50000  0.50000  0.00000  1
 K  K1  1  0.75000  0.25000  0.50000  1
 Te  Te1  1  0.00000  0.00000  0.00000  1
 Te  Te2  1  0.25000  0.75000  0.50000  1
