CIF file written using JARVIS-Tools package.
data_SiTc
_symmetry_space_group_name_H-M  'P2_13'
_cell_length_a       4.79522
_cell_length_b       4.79522
_cell_length_c       4.79522
_cell_angle_alpha    90
_cell_angle_beta     90
_cell_angle_gamma    90

_symmetry_Int_Tables_number  198
_chemical_formula_structural  SiTc
_chemical_formula_sum  Si4Tc4
_cell_volume  110.26166432121931
_cell_formula_units_Z  4
loop_
  _symmetry_equiv_pos_site_id
 _symmetry_equiv_pos_as_xyz
 1  'x, y, z'
loop_
 _atom_site_type_symbol
 _atom_site_label
 _atom_site_symmetry_multiplicity
 _atom_site_fract_x
 _atom_site_fract_y
 _atom_site_fract_z
 _atom_site_fract_occupancy
 Si  Si1  1  0.65579  0.15579  0.34421  1
 Si  Si2  1  0.15579  0.34421  0.65579  1
 Si  Si3  1  0.34421  0.65579  0.15579  1
 Si  Si4  1  0.84421  0.84421  0.84421  1
 Tc  Tc1  1  0.36644  0.86644  0.63356  1
 Tc  Tc2  1  0.86644  0.63356  0.36644  1
 Tc  Tc3  1  0.63356  0.36644  0.86644  1
 Tc  Tc4  1  0.13356  0.13356  0.13356  1
