CIF file written using JARVIS-Tools package.
data_Li2TeO3
_symmetry_space_group_name_H-M  'C2/m'
_cell_length_a       5.19405
_cell_length_b       5.39444
_cell_length_c       7.45952
_cell_angle_alpha    87.7276
_cell_angle_beta     85.2759
_cell_angle_gamma    61.2213

_symmetry_Int_Tables_number  12
_chemical_formula_structural  Li2TeO3
_chemical_formula_sum  Li4Te2O6
_cell_volume  182.57029277939222
_cell_formula_units_Z  2
loop_
  _symmetry_equiv_pos_site_id
 _symmetry_equiv_pos_as_xyz
 1  'x, y, z'
loop_
 _atom_site_type_symbol
 _atom_site_label
 _atom_site_symmetry_multiplicity
 _atom_site_fract_x
 _atom_site_fract_y
 _atom_site_fract_z
 _atom_site_fract_occupancy
 Li  Li1  1  0.64402  0.31553  0.12254  1
 Li  Li2  1  0.95955  0.68447  0.12254  1
 Li  Li3  1  0.04045  0.31553  0.87746  1
 Li  Li4  1  0.35598  0.68447  0.87746  1
 O  O1  1  0.36695  0.00000  0.75754  1
 O  O2  1  0.63305  0.00000  0.24246  1
 O  O3  1  0.02513  0.30221  0.14752  1
 O  O4  1  0.67266  0.30221  0.85248  1
 O  O5  1  0.32734  0.69779  0.14752  1
 O  O6  1  0.97487  0.69779  0.85248  1
 Te  Te1  1  0.27201  0.00000  0.29365  1
 Te  Te2  1  0.72799  0.00000  0.70635  1
