CIF file written using JARVIS-Tools package.
data_CeAl4Ge2Au
_symmetry_space_group_name_H-M  'R-3m'
_cell_length_a       10.7495
_cell_length_b       10.7495
_cell_length_c       10.7495
_cell_angle_alpha    22.8747
_cell_angle_beta     22.8746
_cell_angle_gamma    22.8747

_symmetry_Int_Tables_number  166
_chemical_formula_structural  CeAl4Ge2Au
_chemical_formula_sum  CeAl4Ge2Au
_cell_volume  164.69998995583217
_cell_formula_units_Z  1
loop_
  _symmetry_equiv_pos_site_id
 _symmetry_equiv_pos_as_xyz
 1  'x, y, z'
loop_
 _atom_site_type_symbol
 _atom_site_label
 _atom_site_symmetry_multiplicity
 _atom_site_fract_x
 _atom_site_fract_y
 _atom_site_fract_z
 _atom_site_fract_occupancy
 Al  Al1  1  0.91671  0.91671  0.91671  1
 Al  Al2  1  0.69204  0.69204  0.69204  1
 Al  Al3  1  0.08329  0.08329  0.08329  1
 Al  Al4  1  0.30796  0.30796  0.30796  1
 Au  Au1  1  0.00000  0.00000  0.00000  1
 Ce  Ce1  1  0.50000  0.50000  0.50000  1
 Ge  Ge1  1  0.77653  0.77653  0.77653  1
 Ge  Ge2  1  0.22347  0.22347  0.22347  1
