CIF file written using JARVIS-Tools package.
data_BaLuFeCuO5
_symmetry_space_group_name_H-M  'P4mm'
_cell_length_a       3.86186
_cell_length_b       3.86186
_cell_length_c       7.64009
_cell_angle_alpha    90
_cell_angle_beta     90
_cell_angle_gamma    90

_symmetry_Int_Tables_number  99
_chemical_formula_structural  BaLuFeCuO5
_chemical_formula_sum  BaLuFeCuO5
_cell_volume  113.94424028744723
_cell_formula_units_Z  1
loop_
  _symmetry_equiv_pos_site_id
 _symmetry_equiv_pos_as_xyz
 1  'x, y, z'
loop_
 _atom_site_type_symbol
 _atom_site_label
 _atom_site_symmetry_multiplicity
 _atom_site_fract_x
 _atom_site_fract_y
 _atom_site_fract_z
 _atom_site_fract_occupancy
 Ba  Ba1  1  0.00000  0.00000  0.99304  1
 Cu  Cu1  1  0.50000  0.50000  0.72034  1
 Fe  Fe1  1  0.50000  0.50000  0.28535  1
 Lu  Lu1  1  0.00000  0.00000  0.52104  1
 O  O1  1  0.50000  0.50000  0.04238  1
 O  O2  1  0.50000  0.00000  0.69770  1
 O  O3  1  0.50000  0.00000  0.34123  1
 O  O4  1  0.00000  0.50000  0.69770  1
 O  O5  1  0.00000  0.50000  0.34123  1
