CIF file written using JARVIS-Tools package.
data_Ni21Sn2P6
_symmetry_space_group_name_H-M  'Fm-3m'
_cell_length_a       7.89286
_cell_length_b       7.89286
_cell_length_c       7.89286
_cell_angle_alpha    60
_cell_angle_beta     60
_cell_angle_gamma    60

_symmetry_Int_Tables_number  225
_chemical_formula_structural  Ni21Sn2P6
_chemical_formula_sum  Ni2Sn2P6
_cell_volume  347.68713461891514
_cell_formula_units_Z  1
loop_
  _symmetry_equiv_pos_site_id
 _symmetry_equiv_pos_as_xyz
 1  'x, y, z'
loop_
 _atom_site_type_symbol
 _atom_site_label
 _atom_site_symmetry_multiplicity
 _atom_site_fract_x
 _atom_site_fract_y
 _atom_site_fract_z
 _atom_site_fract_occupancy
 Ni  Ni1  1  0.00000  0.65207  0.00000  1
 Ni  Ni2  1  0.65207  0.34793  -0.00000  1
 Ni  Ni3  1  0.38354  0.84937  0.38354  1
 Ni  Ni4  1  -0.00000  -0.00000  0.65207  1
 Ni  Ni5  1  0.15063  0.61646  0.61646  1
 Ni  Ni6  1  0.00000  0.65207  0.34793  1
 Ni  Ni7  1  0.34793  0.00000  0.65207  1
 Ni  Ni8  1  0.34793  0.00000  0.00000  1
 Ni  Ni9  1  0.84937  0.38354  0.38354  1
 Ni  Ni10  1  0.61646  0.61646  0.61646  1
 Ni  Ni11  1  -0.00000  0.34793  0.65207  1
 Ni  Ni12  1  0.00000  0.00000  0.34793  1
 Ni  Ni13  1  0.00000  0.00000  0.00000  1
 Ni  Ni14  1  0.61646  0.15063  0.61646  1
 Ni  Ni15  1  0.61646  0.61646  0.15063  1
 Ni  Ni16  1  0.38354  0.38354  0.84937  1
 Ni  Ni17  1  0.38354  0.38354  0.38354  1
 Ni  Ni18  1  0.34793  0.65207  0.00000  1
 Ni  Ni19  1  0.65207  -0.00000  0.34793  1
 Ni  Ni20  1  0.65207  -0.00000  -0.00000  1
 Ni  Ni21  1  -0.00000  0.34793  -0.00000  1
 P  P1  1  0.73777  0.73777  0.26223  1
 P  P2  1  0.73777  0.26223  0.26223  1
 P  P3  1  0.73777  0.26223  0.73777  1
 P  P4  1  0.26223  0.73777  0.73777  1
 P  P5  1  0.26223  0.26223  0.73777  1
 P  P6  1  0.26223  0.73777  0.26223  1
 Sn  Sn1  1  0.25000  0.25000  0.25000  1
 Sn  Sn2  1  0.75000  0.75000  0.75000  1
