CIF file written using JARVIS-Tools package.
data_Li4MnP2O8
_symmetry_space_group_name_H-M  'P-1'
_cell_length_a       4.99112
_cell_length_b       5.14941
_cell_length_c       6.15637
_cell_angle_alpha    93.3528
_cell_angle_beta     94.443
_cell_angle_gamma    98.1892

_symmetry_Int_Tables_number  2
_chemical_formula_structural  Li4MnP2O8
_chemical_formula_sum  Li4MnP2O8
_cell_volume  155.75481611186572
_cell_formula_units_Z  1
loop_
  _symmetry_equiv_pos_site_id
 _symmetry_equiv_pos_as_xyz
 1  'x, y, z'
loop_
 _atom_site_type_symbol
 _atom_site_label
 _atom_site_symmetry_multiplicity
 _atom_site_fract_x
 _atom_site_fract_y
 _atom_site_fract_z
 _atom_site_fract_occupancy
 Li  Li1  1  0.15285  0.29548  0.51336  1
 Li  Li2  1  0.35440  0.61766  0.20885  1
 Li  Li3  1  0.64560  0.38234  0.79115  1
 Li  Li4  1  0.84715  0.70452  0.48664  1
 Mn  Mn1  1  0.00000  0.00000  0.00000  1
 O  O1  1  0.22678  0.69095  0.92140  1
 O  O2  1  0.23887  0.67727  0.50969  1
 O  O3  1  0.32382  0.20124  0.24628  1
 O  O4  1  0.30606  0.11002  0.74210  1
 O  O5  1  0.69394  0.88998  0.25790  1
 O  O6  1  0.67618  0.79876  0.75372  1
 O  O7  1  0.76113  0.32273  0.49031  1
 O  O8  1  0.77322  0.30905  0.07860  1
 P  P1  1  0.36760  0.82072  0.72871  1
 P  P2  1  0.63240  0.17928  0.27129  1
