CIF file written using JARVIS-Tools package.
data_V5SiB2
_symmetry_space_group_name_H-M  'I4/mcm'
_cell_length_a       6.77077
_cell_length_b       6.77077
_cell_length_c       6.77077
_cell_angle_alpha    129.391
_cell_angle_beta     129.391
_cell_angle_gamma    74.3821

_symmetry_Int_Tables_number  140
_chemical_formula_structural  V5SiB2
_chemical_formula_sum  V0Si2B4
_cell_volume  180.69789372997533
_cell_formula_units_Z  2
loop_
  _symmetry_equiv_pos_site_id
 _symmetry_equiv_pos_as_xyz
 1  'x, y, z'
loop_
 _atom_site_type_symbol
 _atom_site_label
 _atom_site_symmetry_multiplicity
 _atom_site_fract_x
 _atom_site_fract_y
 _atom_site_fract_z
 _atom_site_fract_occupancy
 B  B1  1  0.38581  0.88581  0.27163  1
 B  B2  1  0.61419  0.11419  0.72837  1
 B  B3  1  0.11419  0.38581  0.50000  1
 B  B4  1  0.88581  0.61419  0.50000  1
 Si  Si1  1  0.75000  0.75000  0.00000  1
 Si  Si2  1  0.25000  0.25000  0.00000  1
 V  V1  1  0.00000  0.00000  0.00000  1
 V  V2  1  0.50000  0.50000  0.00000  1
 V  V3  1  0.03352  0.53352  0.84023  1
 V  V4  1  0.69329  0.19329  0.15977  1
 V  V5  1  0.19329  0.03352  0.50000  1
 V  V6  1  0.53352  0.69329  0.50000  1
 V  V7  1  0.46648  0.30671  0.50000  1
 V  V8  1  0.80671  0.96648  0.50000  1
 V  V9  1  0.30671  0.80671  0.84023  1
 V  V10  1  0.96648  0.46648  0.15977  1
