CIF file written using JARVIS-Tools package.
data_SiN2F6
_symmetry_space_group_name_H-M  'C2/m'
_cell_length_a       4.8636
_cell_length_b       5.28159
_cell_length_c       5.15491
_cell_angle_alpha    119.21
_cell_angle_beta     90
_cell_angle_gamma    94.5204

_symmetry_Int_Tables_number  12
_chemical_formula_structural  SiN2F6
_chemical_formula_sum  SiN2F6
_cell_volume  115.10635396221446
_cell_formula_units_Z  1
loop_
  _symmetry_equiv_pos_site_id
 _symmetry_equiv_pos_as_xyz
 1  'x, y, z'
loop_
 _atom_site_type_symbol
 _atom_site_label
 _atom_site_symmetry_multiplicity
 _atom_site_fract_x
 _atom_site_fract_y
 _atom_site_fract_z
 _atom_site_fract_occupancy
 F  F1  1  0.25902  0.79043  0.89521  1
 F  F2  1  0.17237  0.23027  0.88475  1
 F  F3  1  0.17237  0.23027  0.34552  1
 F  F4  1  0.74098  0.20957  0.10479  1
 F  F5  1  0.82763  0.76973  0.11525  1
 F  F6  1  0.82763  0.76973  0.65448  1
 N  N1  1  0.68910  0.46566  0.73283  1
 N  N2  1  0.31090  0.53434  0.26717  1
 Si  Si1  1  0.00000  0.00000  0.00000  1
