CIF file written using JARVIS-Tools package.
data_BaLi2Si
_symmetry_space_group_name_H-M  'Pmmn'
_cell_length_a       4.62889
_cell_length_b       6.31656
_cell_length_c       6.69438
_cell_angle_alpha    90
_cell_angle_beta     90
_cell_angle_gamma    90

_symmetry_Int_Tables_number  59
_chemical_formula_structural  BaLi2Si
_chemical_formula_sum  Ba2Li4Si2
_cell_volume  195.73461638929675
_cell_formula_units_Z  2
loop_
  _symmetry_equiv_pos_site_id
 _symmetry_equiv_pos_as_xyz
 1  'x, y, z'
loop_
 _atom_site_type_symbol
 _atom_site_label
 _atom_site_symmetry_multiplicity
 _atom_site_fract_x
 _atom_site_fract_y
 _atom_site_fract_z
 _atom_site_fract_occupancy
 Ba  Ba1  1  0.00000  0.90316  0.00000  1
 Ba  Ba2  1  0.50000  0.09684  0.50000  1
 Li  Li1  1  0.00000  0.41042  0.79876  1
 Li  Li2  1  0.50000  0.58958  0.70124  1
 Li  Li3  1  0.50000  0.58958  0.29876  1
 Li  Li4  1  0.00000  0.41042  0.20124  1
 Si  Si1  1  0.50000  0.31061  0.00000  1
 Si  Si2  1  0.00000  0.68939  0.50000  1
