CIF file written using JARVIS-Tools package.
data_YBeZn
_symmetry_space_group_name_H-M  'I4mm'
_cell_length_a       5.78741
_cell_length_b       5.78741
_cell_length_c       5.78741
_cell_angle_alpha    148.585
_cell_angle_beta     148.585
_cell_angle_gamma    45.0227

_symmetry_Int_Tables_number  107
_chemical_formula_structural  YBeZn
_chemical_formula_sum  YBeZn
_cell_volume  52.49977683868145
_cell_formula_units_Z  1
loop_
  _symmetry_equiv_pos_site_id
 _symmetry_equiv_pos_as_xyz
 1  'x, y, z'
loop_
 _atom_site_type_symbol
 _atom_site_label
 _atom_site_symmetry_multiplicity
 _atom_site_fract_x
 _atom_site_fract_y
 _atom_site_fract_z
 _atom_site_fract_occupancy
 Be  Be1  1  0.02706  0.02706  0.00000  1
 Y  Y1  1  0.33859  0.33859  -0.00000  1
 Zn  Zn1  1  0.63435  0.63435  0.00000  1
