CIF file written using JARVIS-Tools package.
data_Mg6WC
_symmetry_space_group_name_H-M  'Amm2'
_cell_length_a       6.29105
_cell_length_b       5.59042
_cell_length_c       4.54082
_cell_angle_alpha    90
_cell_angle_beta     90
_cell_angle_gamma    116.38

_symmetry_Int_Tables_number  38
_chemical_formula_structural  Mg6WC
_chemical_formula_sum  Mg6WC
_cell_volume  143.06919859411065
_cell_formula_units_Z  1
loop_
  _symmetry_equiv_pos_site_id
 _symmetry_equiv_pos_as_xyz
 1  'x, y, z'
loop_
 _atom_site_type_symbol
 _atom_site_label
 _atom_site_symmetry_multiplicity
 _atom_site_fract_x
 _atom_site_fract_y
 _atom_site_fract_z
 _atom_site_fract_occupancy
 C  C1  1  0.28965  0.89482  0.25000  1
 Mg  Mg1  1  0.61736  0.30257  0.25000  1
 Mg  Mg2  1  0.61736  0.81479  0.25000  1
 Mg  Mg3  1  0.31664  0.15823  0.75000  1
 Mg  Mg4  1  0.31664  0.65841  0.75000  1
 Mg  Mg5  1  0.84523  0.17261  0.75000  1
 Mg  Mg6  1  0.87207  0.68604  0.75000  1
 W  W1  1  0.12506  0.31253  0.25000  1
