CIF file written using JARVIS-Tools package.
data_BaCaI4
_symmetry_space_group_name_H-M  'Cmc2_1'
_cell_length_a       6.07129
_cell_length_b       11.2773
_cell_length_c       8.07111
_cell_angle_alpha    90
_cell_angle_beta     90
_cell_angle_gamma    105.615

_symmetry_Int_Tables_number  36
_chemical_formula_structural  BaCaI4
_chemical_formula_sum  Ba2Ca2I8
_cell_volume  532.215012802616
_cell_formula_units_Z  2
loop_
  _symmetry_equiv_pos_site_id
 _symmetry_equiv_pos_as_xyz
 1  'x, y, z'
loop_
 _atom_site_type_symbol
 _atom_site_label
 _atom_site_symmetry_multiplicity
 _atom_site_fract_x
 _atom_site_fract_y
 _atom_site_fract_z
 _atom_site_fract_occupancy
 Ba  Ba1  1  0.16784  0.33569  0.91878  1
 Ba  Ba2  1  0.83216  0.66431  0.41878  1
 Ca  Ca1  1  0.40911  0.81822  0.00244  1
 Ca  Ca2  1  0.59089  0.18178  0.50244  1
 I  I1  1  0.09877  0.19754  0.51446  1
 I  I2  1  0.45928  0.91857  0.36545  1
 I  I3  1  0.32486  0.64971  0.69548  1
 I  I4  1  0.28741  0.57481  0.21310  1
 I  I5  1  0.90123  0.80246  0.01446  1
 I  I6  1  0.71259  0.42519  0.71310  1
 I  I7  1  0.54072  0.08143  0.86545  1
 I  I8  1  0.67514  0.35029  0.19548  1
