CIF file written using JARVIS-Tools package.
data_BaCaC2O6
_symmetry_space_group_name_H-M  'P321'
_cell_length_a       8.74725
_cell_length_b       8.74725
_cell_length_c       6.1154
_cell_angle_alpha    90
_cell_angle_beta     90
_cell_angle_gamma    120

_symmetry_Int_Tables_number  150
_chemical_formula_structural  BaCaC2O6
_chemical_formula_sum  Ba3Ca3C6O8
_cell_volume  405.22742444821364
_cell_formula_units_Z  3
loop_
  _symmetry_equiv_pos_site_id
 _symmetry_equiv_pos_as_xyz
 1  'x, y, z'
loop_
 _atom_site_type_symbol
 _atom_site_label
 _atom_site_symmetry_multiplicity
 _atom_site_fract_x
 _atom_site_fract_y
 _atom_site_fract_z
 _atom_site_fract_occupancy
 Ba  Ba1  1  0.00000  0.68759  0.00000  1
 Ba  Ba2  1  0.68759  0.00000  0.00000  1
 Ba  Ba3  1  0.31241  0.31241  0.00000  1
 C  C1  1  0.00000  0.00000  0.73333  1
 C  C2  1  0.66667  0.33333  0.64339  1
 C  C3  1  0.66667  0.33333  0.18177  1
 C  C4  1  0.33333  0.66667  0.81823  1
 C  C5  1  0.00000  0.00000  0.26667  1
 C  C6  1  0.33333  0.66667  0.35661  1
 Ca  Ca1  1  0.00000  0.36117  0.50000  1
 Ca  Ca2  1  0.63883  0.63883  0.50000  1
 Ca  Ca3  1  0.36117  0.00000  0.50000  1
 O  O1  1  0.80996  0.48640  0.63923  1
 O  O2  1  0.00480  0.15044  0.74001  1
 O  O3  1  0.99520  0.14565  0.25999  1
 O  O4  1  0.52485  0.17885  0.17922  1
 O  O5  1  0.19004  0.67644  0.36077  1
 O  O6  1  0.84956  0.85435  0.74001  1
 O  O7  1  0.15044  0.00480  0.25999  1
 O  O8  1  0.82115  0.34601  0.17922  1
 O  O9  1  0.14565  0.99520  0.74001  1
 O  O10  1  0.32356  0.51360  0.36077  1
 O  O11  1  0.67644  0.19004  0.63923  1
 O  O12  1  0.34601  0.82115  0.82078  1
 O  O13  1  0.17885  0.52485  0.82078  1
 O  O14  1  0.47515  0.65399  0.82078  1
 O  O15  1  0.51360  0.32356  0.63923  1
 O  O16  1  0.65399  0.47515  0.17922  1
 O  O17  1  0.85435  0.84956  0.25999  1
 O  O18  1  0.48640  0.80996  0.36077  1
