CIF file written using JARVIS-Tools package.
data_NaInSe2
_symmetry_space_group_name_H-M  'R-3m'
_cell_length_a       7.34103
_cell_length_b       7.34102
_cell_length_c       7.34103
_cell_angle_alpha    31.818
_cell_angle_beta     31.818
_cell_angle_gamma    31.8179

_symmetry_Int_Tables_number  166
_chemical_formula_structural  NaInSe2
_chemical_formula_sum  NaInSe2
_cell_volume  97.67584362890103
_cell_formula_units_Z  1
loop_
  _symmetry_equiv_pos_site_id
 _symmetry_equiv_pos_as_xyz
 1  'x, y, z'
loop_
 _atom_site_type_symbol
 _atom_site_label
 _atom_site_symmetry_multiplicity
 _atom_site_fract_x
 _atom_site_fract_y
 _atom_site_fract_z
 _atom_site_fract_occupancy
 In  In1  1  0.00000  0.00000  0.00000  1
 Na  Na1  1  0.50000  0.50000  0.50000  1
 Se  Se1  1  0.74154  0.74154  0.74154  1
 Se  Se2  1  0.25846  0.25846  0.25846  1
