CIF file written using JARVIS-Tools package.
data_MoW3Se2S6
_symmetry_space_group_name_H-M  'P3m1'
_cell_length_a       3.2237
_cell_length_b       3.22371
_cell_length_c       33.7112
_cell_angle_alpha    90.0029
_cell_angle_beta     89.9975
_cell_angle_gamma    120

_symmetry_Int_Tables_number  156
_chemical_formula_structural  MoW3Se2S6
_chemical_formula_sum  MoW3Se2S6
_cell_volume  303.40050099482784
_cell_formula_units_Z  1
loop_
  _symmetry_equiv_pos_site_id
 _symmetry_equiv_pos_as_xyz
 1  'x, y, z'
loop_
 _atom_site_type_symbol
 _atom_site_label
 _atom_site_symmetry_multiplicity
 _atom_site_fract_x
 _atom_site_fract_y
 _atom_site_fract_z
 _atom_site_fract_occupancy
 Mo  Mo1  1  0.66668  0.33347  0.28149  1
 S  S1  1  0.33337  0.66687  0.70479  1
 S  S2  1  0.66674  0.33323  0.04337  1
 S  S3  1  0.66655  0.33307  0.42684  1
 S  S4  1  0.66673  0.33329  0.13618  1
 S  S5  1  0.66653  0.33311  0.51968  1
 S  S6  1  0.33339  0.66683  0.61199  1
 Se  Se1  1  0.33333  0.66682  0.33223  1
 Se  Se2  1  0.33335  0.66677  0.23075  1
 W  W1  1  0.33340  0.66660  0.08975  1
 W  W2  1  0.33321  0.66643  0.47327  1
 W  W3  1  0.66671  0.33351  0.65841  1
