CIF file written using JARVIS-Tools package.
data_LiMg6B
_symmetry_space_group_name_H-M  'Amm2'
_cell_length_a       6.24161
_cell_length_b       6.42952
_cell_length_c       4.56505
_cell_angle_alpha    90
_cell_angle_beta     90
_cell_angle_gamma    121.001

_symmetry_Int_Tables_number  38
_chemical_formula_structural  LiMg6B
_chemical_formula_sum  LiMg6B
_cell_volume  157.02996225470105
_cell_formula_units_Z  1
loop_
  _symmetry_equiv_pos_site_id
 _symmetry_equiv_pos_as_xyz
 1  'x, y, z'
loop_
 _atom_site_type_symbol
 _atom_site_label
 _atom_site_symmetry_multiplicity
 _atom_site_fract_x
 _atom_site_fract_y
 _atom_site_fract_z
 _atom_site_fract_occupancy
 B  B1  1  0.08672  0.79336  0.25000  1
 Li  Li1  1  0.17853  0.33926  0.25000  1
 Mg  Mg1  1  0.70219  0.35594  0.25000  1
 Mg  Mg2  1  0.70219  0.84624  0.25000  1
 Mg  Mg3  1  0.31893  0.14514  0.75000  1
 Mg  Mg4  1  0.31893  0.67379  0.75000  1
 Mg  Mg5  1  0.83970  0.16985  0.75000  1
 Mg  Mg6  1  0.85281  0.67641  0.75000  1
