CIF file written using JARVIS-Tools package.
data_NaTh2F9
_symmetry_space_group_name_H-M  'I-42m'
_cell_length_a       7.592
_cell_length_b       7.592
_cell_length_c       7.592
_cell_angle_alpha    108.946
_cell_angle_beta     108.946
_cell_angle_gamma    110.527

_symmetry_Int_Tables_number  121
_chemical_formula_structural  NaTh2F9
_chemical_formula_sum  Na2Th4F8
_cell_volume  336.7722530196939
_cell_formula_units_Z  2
loop_
  _symmetry_equiv_pos_site_id
 _symmetry_equiv_pos_as_xyz
 1  'x, y, z'
loop_
 _atom_site_type_symbol
 _atom_site_label
 _atom_site_symmetry_multiplicity
 _atom_site_fract_x
 _atom_site_fract_y
 _atom_site_fract_z
 _atom_site_fract_occupancy
 F  F1  1  0.99883  0.25471  0.64931  1
 F  F2  1  0.66640  0.24408  0.00000  1
 F  F3  1  0.24408  0.66640  0.00000  1
 F  F4  1  0.75592  0.75592  0.42231  1
 F  F5  1  0.34952  0.60541  0.35069  1
 F  F6  1  0.25471  0.99883  0.64931  1
 F  F7  1  -0.00000  0.23911  0.23911  1
 F  F8  1  0.76089  -0.00000  0.76089  1
 F  F9  1  0.23911  0.00000  0.23911  1
 F  F10  1  0.00000  0.76089  0.76089  1
 F  F11  1  0.33360  0.33360  0.57769  1
 F  F12  1  0.77388  0.77388  -0.00000  1
 F  F13  1  0.74529  0.39459  0.74411  1
 F  F14  1  0.65048  0.00117  0.25589  1
 F  F15  1  0.60541  0.34952  0.35069  1
 F  F16  1  0.39459  0.74529  0.74411  1
 F  F17  1  0.00117  0.65048  0.25589  1
 F  F18  1  0.22612  0.22612  0.00000  1
 Na  Na1  1  -0.00000  0.50000  0.50000  1
 Na  Na2  1  0.50000  -0.00000  0.50000  1
 Th  Th1  1  0.00909  0.38043  -0.00000  1
 Th  Th2  1  0.61957  0.61957  0.62866  1
 Th  Th3  1  0.38043  0.00909  -0.00000  1
 Th  Th4  1  0.99091  0.99091  0.37134  1
