CIF file written using JARVIS-Tools package.
data_Li3MnO2F2
_symmetry_space_group_name_H-M  'Cmmm'
_cell_length_a       2.8127
_cell_length_b       5.94898
_cell_length_c       5.94898
_cell_angle_alpha    57.3353
_cell_angle_beta     118.216
_cell_angle_gamma    118.216

_symmetry_Int_Tables_number  65
_chemical_formula_structural  Li3MnO2F2
_chemical_formula_sum  Li3MnO2F2
_cell_volume  70.59222782809697
_cell_formula_units_Z  1
loop_
  _symmetry_equiv_pos_site_id
 _symmetry_equiv_pos_as_xyz
 1  'x, y, z'
loop_
 _atom_site_type_symbol
 _atom_site_label
 _atom_site_symmetry_multiplicity
 _atom_site_fract_x
 _atom_site_fract_y
 _atom_site_fract_z
 _atom_site_fract_occupancy
 F  F1  1  0.52590  0.26346  0.26346  1
 F  F2  1  0.47467  0.73785  0.73785  1
 Li  Li1  1  0.00013  0.50060  0.00054  1
 Li  Li2  1  0.00015  0.50056  0.50056  1
 Li  Li3  1  0.00013  0.00054  0.50060  1
 Mn  Mn1  1  0.00027  0.00064  0.00064  1
 O  O1  1  0.50034  0.77249  0.22885  1
 O  O2  1  0.50034  0.22885  0.77249  1
