CIF file written using JARVIS-Tools package.
data_Sr2DySbO6
_symmetry_space_group_name_H-M  'P2_1/c'
_cell_length_a       5.84647
_cell_length_b       5.90848
_cell_length_c       8.2972
_cell_angle_alpha    90
_cell_angle_beta     90.2158
_cell_angle_gamma    90

_symmetry_Int_Tables_number  14
_chemical_formula_structural  Sr2DySbO6
_chemical_formula_sum  Sr4Dy2Sb2O2
_cell_volume  286.6140860176291
_cell_formula_units_Z  2
loop_
  _symmetry_equiv_pos_site_id
 _symmetry_equiv_pos_as_xyz
 1  'x, y, z'
loop_
 _atom_site_type_symbol
 _atom_site_label
 _atom_site_symmetry_multiplicity
 _atom_site_fract_x
 _atom_site_fract_y
 _atom_site_fract_z
 _atom_site_fract_occupancy
 Dy  Dy1  1  -0.00000  0.50000  0.50000  1
 Dy  Dy2  1  0.50000  0.00000  0.00000  1
 O  O1  1  0.19653  0.77474  0.04300  1
 O  O2  1  0.92111  0.47808  0.23584  1
 O  O3  1  0.42111  0.02192  0.73584  1
 O  O4  1  0.27362  0.30014  0.04069  1
 O  O5  1  0.69653  0.72526  0.54300  1
 O  O6  1  0.80347  0.22526  0.95700  1
 O  O7  1  0.07889  0.52192  0.76416  1
 O  O8  1  0.77362  0.19986  0.54069  1
 O  O9  1  0.22638  0.80014  0.45931  1
 O  O10  1  0.72638  0.69986  0.95931  1
 O  O11  1  0.57889  0.97808  0.26416  1
 O  O12  1  0.30347  0.27474  0.45700  1
 Sb  Sb1  1  0.00000  0.50000  0.00000  1
 Sb  Sb2  1  0.50000  0.00000  0.50000  1
 Sr  Sr1  1  0.99167  0.96467  0.75040  1
 Sr  Sr2  1  0.49167  0.53533  0.25040  1
 Sr  Sr3  1  0.00833  0.03533  0.24960  1
 Sr  Sr4  1  0.50833  0.46467  0.74960  1
