CIF file written using JARVIS-Tools package.
data_TiNiO3
_symmetry_space_group_name_H-M  'R3c'
_cell_length_a       5.02489
_cell_length_b       5.46903
_cell_length_c       5.0249
_cell_angle_alpha    117.348
_cell_angle_beta     60
_cell_angle_gamma    117.348

_symmetry_Int_Tables_number  161
_chemical_formula_structural  TiNiO3
_chemical_formula_sum  Ti2Ni2O6
_cell_volume  101.37718360117523
_cell_formula_units_Z  2
loop_
  _symmetry_equiv_pos_site_id
 _symmetry_equiv_pos_as_xyz
 1  'x, y, z'
loop_
 _atom_site_type_symbol
 _atom_site_label
 _atom_site_symmetry_multiplicity
 _atom_site_fract_x
 _atom_site_fract_y
 _atom_site_fract_z
 _atom_site_fract_occupancy
 Ni  Ni1  1  0.35334  0.06003  0.35334  1
 Ni  Ni2  1  0.85334  0.56003  0.85334  1
 O  O1  1  0.05434  0.25917  0.43279  1
 O  O2  1  0.55434  0.75917  0.27203  1
 O  O3  1  0.27203  0.75917  0.93280  1
 O  O4  1  0.77203  0.25917  0.05434  1
 O  O5  1  0.43279  0.25917  0.77203  1
 O  O6  1  0.93280  0.75917  0.55434  1
 Ti  Ti1  1  0.14879  0.44636  0.14879  1
 Ti  Ti2  1  0.64879  0.94636  0.64879  1
