CIF file written using JARVIS-Tools package.
data_Re3P4
_symmetry_space_group_name_H-M  'C2/m'
_cell_length_a       3.05923
_cell_length_b       6.09425
_cell_length_c       6.36072
_cell_angle_alpha    113.19
_cell_angle_beta     103.915
_cell_angle_gamma    90

_symmetry_Int_Tables_number  12
_chemical_formula_structural  Re3P4
_chemical_formula_sum  Re3P4
_cell_volume  105.20996840352763
_cell_formula_units_Z  1
loop_
  _symmetry_equiv_pos_site_id
 _symmetry_equiv_pos_as_xyz
 1  'x, y, z'
loop_
 _atom_site_type_symbol
 _atom_site_label
 _atom_site_symmetry_multiplicity
 _atom_site_fract_x
 _atom_site_fract_y
 _atom_site_fract_z
 _atom_site_fract_occupancy
 P  P1  1  0.08631  0.43613  0.17263  1
 P  P2  1  0.91369  0.56387  0.82737  1
 P  P3  1  0.35202  0.02492  0.70404  1
 P  P4  1  0.64798  0.97508  0.29596  1
 Re  Re1  1  0.26382  0.31876  0.52764  1
 Re  Re2  1  0.73618  0.68124  0.47236  1
 Re  Re3  1  0.00000  0.00000  0.00000  1
