CIF file written using JARVIS-Tools package.
data_MgSb3
_symmetry_space_group_name_H-M  'Imm2'
_cell_length_a       3.28324
_cell_length_b       10.552
_cell_length_c       6.33616
_cell_angle_alpha    90
_cell_angle_beta     90
_cell_angle_gamma    90

_symmetry_Int_Tables_number  44
_chemical_formula_structural  MgSb3
_chemical_formula_sum  Mg2Sb6
_cell_volume  219.5142149603534
_cell_formula_units_Z  2
loop_
  _symmetry_equiv_pos_site_id
 _symmetry_equiv_pos_as_xyz
 1  'x, y, z'
loop_
 _atom_site_type_symbol
 _atom_site_label
 _atom_site_symmetry_multiplicity
 _atom_site_fract_x
 _atom_site_fract_y
 _atom_site_fract_z
 _atom_site_fract_occupancy
 Mg  Mg1  1  0.00000  0.00000  0.26548  1
 Mg  Mg2  1  0.50000  0.50000  0.76548  1
 Sb  Sb1  1  0.50000  0.00000  0.85390  1
 Sb  Sb2  1  0.00000  0.30785  0.02364  1
 Sb  Sb3  1  0.50000  0.19215  0.52364  1
 Sb  Sb4  1  0.00000  0.50000  0.35390  1
 Sb  Sb5  1  0.50000  0.80785  0.52364  1
 Sb  Sb6  1  0.00000  0.69215  0.02364  1
