CIF file written using JARVIS-Tools package.
data_LiBH4
_symmetry_space_group_name_H-M  'P6_3mc'
_cell_length_a       4.18605
_cell_length_b       4.18567
_cell_length_c       7.18174
_cell_angle_alpha    90
_cell_angle_beta     90
_cell_angle_gamma    120.003

_symmetry_Int_Tables_number  186
_chemical_formula_structural  LiBH4
_chemical_formula_sum  Li2B2H8
_cell_volume  108.9724470038882
_cell_formula_units_Z  2
loop_
  _symmetry_equiv_pos_site_id
 _symmetry_equiv_pos_as_xyz
 1  'x, y, z'
loop_
 _atom_site_type_symbol
 _atom_site_label
 _atom_site_symmetry_multiplicity
 _atom_site_fract_x
 _atom_site_fract_y
 _atom_site_fract_z
 _atom_site_fract_occupancy
 B  B1  1  0.66663  0.33327  0.03635  1
 B  B2  1  0.33337  0.66673  0.53635  1
 H  H1  1  0.66706  0.33411  0.86671  1
 H  H2  1  0.33294  0.66589  0.36671  1
 H  H3  1  0.82520  0.17436  0.09362  1
 H  H4  1  0.82519  0.65038  0.09415  1
 H  H5  1  0.34916  0.17436  0.09362  1
 H  H6  1  0.17480  0.82564  0.59362  1
 H  H7  1  0.17481  0.34962  0.59415  1
 H  H8  1  0.65084  0.82564  0.59362  1
 Li  Li1  1  0.66674  0.33348  0.61055  1
 Li  Li2  1  0.33326  0.66652  0.11055  1
