CIF file written using JARVIS-Tools package.
data_PrCoGe2
_symmetry_space_group_name_H-M  'Cmcm'
_cell_length_a       4.26372
_cell_length_b       4.28886
_cell_length_c       8.60683
_cell_angle_alpha    104.427
_cell_angle_beta     90
_cell_angle_gamma    90

_symmetry_Int_Tables_number  63
_chemical_formula_structural  PrCoGe2
_chemical_formula_sum  Pr2Co2Ge4
_cell_volume  152.4254918682072
_cell_formula_units_Z  2
loop_
  _symmetry_equiv_pos_site_id
 _symmetry_equiv_pos_as_xyz
 1  'x, y, z'
loop_
 _atom_site_type_symbol
 _atom_site_label
 _atom_site_symmetry_multiplicity
 _atom_site_fract_x
 _atom_site_fract_y
 _atom_site_fract_z
 _atom_site_fract_occupancy
 Co  Co1  1  0.75000  0.31610  0.63220  1
 Co  Co2  1  0.25000  0.68390  0.36780  1
 Ge  Ge1  1  0.75000  0.45391  0.90781  1
 Ge  Ge2  1  0.25000  0.54609  0.09219  1
 Ge  Ge3  1  0.75000  0.74986  0.49972  1
 Ge  Ge4  1  0.25000  0.25014  0.50028  1
 Pr  Pr1  1  0.75000  0.10796  0.21593  1
 Pr  Pr2  1  0.25000  0.89204  0.78407  1
