CIF file written using JARVIS-Tools package.
data_Nd2Fe2Se2O3
_symmetry_space_group_name_H-M  'I4/mmm'
_cell_length_a       4.01882
_cell_length_b       4.01882
_cell_length_c       9.77437
_cell_angle_alpha    101.863
_cell_angle_beta     101.863
_cell_angle_gamma    90

_symmetry_Int_Tables_number  139
_chemical_formula_structural  Nd2Fe2Se2O3
_chemical_formula_sum  Nd2Fe2Se2O3
_cell_volume  151.04626096773666
_cell_formula_units_Z  1
loop_
  _symmetry_equiv_pos_site_id
 _symmetry_equiv_pos_as_xyz
 1  'x, y, z'
loop_
 _atom_site_type_symbol
 _atom_site_label
 _atom_site_symmetry_multiplicity
 _atom_site_fract_x
 _atom_site_fract_y
 _atom_site_fract_z
 _atom_site_fract_occupancy
 Fe  Fe1  1  0.00000  0.50000  0.00000  1
 Fe  Fe2  1  0.50000  0.00000  0.00000  1
 Nd  Nd1  1  0.31444  0.31444  0.62889  1
 Nd  Nd2  1  0.68556  0.68556  0.37111  1
 O  O1  1  0.75000  0.25000  0.50000  1
 O  O2  1  0.25000  0.75000  0.50000  1
 O  O3  1  0.50000  0.50000  0.00000  1
 Se  Se1  1  0.90211  0.90211  0.80422  1
 Se  Se2  1  0.09789  0.09789  0.19578  1
