CIF file written using JARVIS-Tools package.
data_LaH3C3O6
_symmetry_space_group_name_H-M  'R3m'
_cell_length_a       6.37655
_cell_length_b       6.37655
_cell_length_c       6.37655
_cell_angle_alpha    115.436
_cell_angle_beta     115.436
_cell_angle_gamma    115.436

_symmetry_Int_Tables_number  160
_chemical_formula_structural  LaH3C3O6
_chemical_formula_sum  LaH3C3O6
_cell_volume  139.16741135658407
_cell_formula_units_Z  1
loop_
  _symmetry_equiv_pos_site_id
 _symmetry_equiv_pos_as_xyz
 1  'x, y, z'
loop_
 _atom_site_type_symbol
 _atom_site_label
 _atom_site_symmetry_multiplicity
 _atom_site_fract_x
 _atom_site_fract_y
 _atom_site_fract_z
 _atom_site_fract_occupancy
 C  C1  1  0.15644  0.61577  0.61577  1
 C  C2  1  0.61577  0.61577  0.15644  1
 C  C3  1  0.61577  0.15644  0.61577  1
 H  H1  1  0.86549  0.38127  0.38127  1
 H  H2  1  0.38127  0.38127  0.86549  1
 H  H3  1  0.38127  0.86549  0.38127  1
 La  La1  1  0.00417  0.00417  0.00417  1
 O  O1  1  0.28942  0.88571  0.88571  1
 O  O2  1  0.88571  0.88571  0.28942  1
 O  O3  1  0.88571  0.28942  0.88571  1
 O  O4  1  0.33676  0.59311  0.59311  1
 O  O5  1  0.59311  0.59311  0.33676  1
 O  O6  1  0.59311  0.33676  0.59311  1
