CIF file written using JARVIS-Tools package.
data_ThSe3
_symmetry_space_group_name_H-M  'P2_1/m'
_cell_length_a       4.24483
_cell_length_b       5.77657
_cell_length_c       9.67719
_cell_angle_alpha    82.9007
_cell_angle_beta     90
_cell_angle_gamma    90

_symmetry_Int_Tables_number  11
_chemical_formula_structural  ThSe3
_chemical_formula_sum  Th2Se6
_cell_volume  235.47079545582287
_cell_formula_units_Z  2
loop_
  _symmetry_equiv_pos_site_id
 _symmetry_equiv_pos_as_xyz
 1  'x, y, z'
loop_
 _atom_site_type_symbol
 _atom_site_label
 _atom_site_symmetry_multiplicity
 _atom_site_fract_x
 _atom_site_fract_y
 _atom_site_fract_z
 _atom_site_fract_occupancy
 Se  Se1  1  0.75000  0.76377  0.43851  1
 Se  Se2  1  0.25000  0.23623  0.56149  1
 Se  Se3  1  0.75000  0.46377  0.83260  1
 Se  Se4  1  0.25000  0.53623  0.16740  1
 Se  Se5  1  0.75000  0.87770  0.84427  1
 Se  Se6  1  0.25000  0.12230  0.15573  1
 Th  Th1  1  0.75000  0.28289  0.34119  1
 Th  Th2  1  0.25000  0.71711  0.65881  1
