CIF file written using JARVIS-Tools package.
data_LiMnCo3O8
_symmetry_space_group_name_H-M  'C2/m'
_cell_length_a       5.72747
_cell_length_b       5.65398
_cell_length_c       5.65398
_cell_angle_alpha    59.8264
_cell_angle_beta     61.8549
_cell_angle_gamma    91.1053

_symmetry_Int_Tables_number  12
_chemical_formula_structural  LiMnCo3O8
_chemical_formula_sum  LiMnCo3O8
_cell_volume  131.4382209469236
_cell_formula_units_Z  1
loop_
  _symmetry_equiv_pos_site_id
 _symmetry_equiv_pos_as_xyz
 1  'x, y, z'
loop_
 _atom_site_type_symbol
 _atom_site_label
 _atom_site_symmetry_multiplicity
 _atom_site_fract_x
 _atom_site_fract_y
 _atom_site_fract_z
 _atom_site_fract_occupancy
 Co  Co1  1  -0.00000  0.50000  0.00000  1
 Co  Co2  1  0.00000  0.50000  0.50000  1
 Co  Co3  1  0.00000  -0.00000  0.50000  1
 Li  Li1  1  0.50000  0.00000  0.50000  1
 Mn  Mn1  1  0.00000  0.00000  0.00000  1
 O  O1  1  0.20620  0.73792  0.02947  1
 O  O2  1  0.20011  0.23725  0.03714  1
 O  O3  1  0.20002  0.73699  0.53698  1
 O  O4  1  0.20620  0.23567  0.53173  1
 O  O5  1  0.79380  0.76433  0.46827  1
 O  O6  1  0.79998  0.26301  0.46302  1
 O  O7  1  0.79989  0.76275  0.96286  1
 O  O8  1  0.79380  0.26208  0.97053  1
