CIF file written using JARVIS-Tools package.
data_HfMg6Cr
_symmetry_space_group_name_H-M  'Amm2'
_cell_length_a       6.37142
_cell_length_b       6.37142
_cell_length_c       4.80437
_cell_angle_alpha    90
_cell_angle_beta     90
_cell_angle_gamma    123.199

_symmetry_Int_Tables_number  38
_chemical_formula_structural  HfMg6Cr
_chemical_formula_sum  HfMg6Cr
_cell_volume  163.1983573235175
_cell_formula_units_Z  1
loop_
  _symmetry_equiv_pos_site_id
 _symmetry_equiv_pos_as_xyz
 1  'x, y, z'
loop_
 _atom_site_type_symbol
 _atom_site_label
 _atom_site_symmetry_multiplicity
 _atom_site_fract_x
 _atom_site_fract_y
 _atom_site_fract_z
 _atom_site_fract_occupancy
 Cr  Cr1  1  0.20553  0.29447  0.25000  1
 Hf  Hf1  1  0.29957  0.20043  0.75000  1
 Mg  Mg1  1  0.17947  0.83480  0.25000  1
 Mg  Mg2  1  0.66520  0.32053  0.25000  1
 Mg  Mg3  1  0.67490  0.82510  0.25000  1
 Mg  Mg4  1  0.31552  0.67073  0.75000  1
 Mg  Mg5  1  0.82927  0.18448  0.75000  1
 Mg  Mg6  1  0.83054  0.66946  0.75000  1
