CIF file written using JARVIS-Tools package.
data_LiSmSn2
_symmetry_space_group_name_H-M  'Cmcm'
_cell_length_a       4.46588
_cell_length_b       4.49915
_cell_length_c       9.74608
_cell_angle_alpha    90
_cell_angle_beta     103.245
_cell_angle_gamma    90

_symmetry_Int_Tables_number  63
_chemical_formula_structural  LiSmSn2
_chemical_formula_sum  Li2Sm2Sn4
_cell_volume  190.61604019351265
_cell_formula_units_Z  2
loop_
  _symmetry_equiv_pos_site_id
 _symmetry_equiv_pos_as_xyz
 1  'x, y, z'
loop_
 _atom_site_type_symbol
 _atom_site_label
 _atom_site_symmetry_multiplicity
 _atom_site_fract_x
 _atom_site_fract_y
 _atom_site_fract_z
 _atom_site_fract_occupancy
 Li  Li1  1  0.67536  0.75000  0.35072  1
 Li  Li2  1  0.32464  0.25000  0.64928  1
 Sm  Sm1  1  0.89310  0.75000  0.78619  1
 Sm  Sm2  1  0.10690  0.25000  0.21381  1
 Sn  Sn1  1  0.54517  0.75000  0.09034  1
 Sn  Sn2  1  0.45483  0.25000  0.90966  1
 Sn  Sn3  1  0.25059  0.75000  0.50119  1
 Sn  Sn4  1  0.74941  0.25000  0.49881  1
