CIF file written using JARVIS-Tools package.
data_CaAlSi
_symmetry_space_group_name_H-M  'P6_3mc'
_cell_length_a       4.2135
_cell_length_b       4.2135
_cell_length_c       26.1724
_cell_angle_alpha    90
_cell_angle_beta     90
_cell_angle_gamma    120

_symmetry_Int_Tables_number  186
_chemical_formula_structural  CaAlSi
_chemical_formula_sum  Ca6Al6Si6
_cell_volume  402.40323215396074
_cell_formula_units_Z  6
loop_
  _symmetry_equiv_pos_site_id
 _symmetry_equiv_pos_as_xyz
 1  'x, y, z'
loop_
 _atom_site_type_symbol
 _atom_site_label
 _atom_site_symmetry_multiplicity
 _atom_site_fract_x
 _atom_site_fract_y
 _atom_site_fract_z
 _atom_site_fract_occupancy
 Al  Al1  1  0.66667  0.33333  0.90885  1
 Al  Al2  1  0.33333  0.66667  0.40885  1
 Al  Al3  1  0.33333  0.66667  0.25155  1
 Al  Al4  1  0.33333  0.66667  0.09223  1
 Al  Al5  1  0.66667  0.33333  0.75155  1
 Al  Al6  1  0.66667  0.33333  0.59223  1
 Ca  Ca1  1  0.00000  0.00000  0.33282  1
 Ca  Ca2  1  0.00000  0.00000  0.66876  1
 Ca  Ca3  1  0.00000  0.00000  0.00061  1
 Ca  Ca4  1  0.00000  0.00000  0.16876  1
 Ca  Ca5  1  0.00000  0.00000  0.83282  1
 Ca  Ca6  1  0.00000  0.00000  0.50061  1
 Si  Si1  1  0.66667  0.33333  0.07787  1
 Si  Si2  1  0.33333  0.66667  0.57787  1
 Si  Si3  1  0.33333  0.66667  0.92343  1
 Si  Si4  1  0.33333  0.66667  0.75024  1
 Si  Si5  1  0.66667  0.33333  0.25024  1
 Si  Si6  1  0.66667  0.33333  0.42343  1
