CIF file written using JARVIS-Tools package.
data_LiMnO2
_symmetry_space_group_name_H-M  'Pmm2'
_cell_length_a       5.76033
_cell_length_b       4.13667
_cell_length_c       8.5477
_cell_angle_alpha    90
_cell_angle_beta     89.9984
_cell_angle_gamma    90

_symmetry_Int_Tables_number  25
_chemical_formula_structural  LiMnO2
_chemical_formula_sum  Li6Mn6O2
_cell_volume  203.67957807515089
_cell_formula_units_Z  6
loop_
  _symmetry_equiv_pos_site_id
 _symmetry_equiv_pos_as_xyz
 1  'x, y, z'
loop_
 _atom_site_type_symbol
 _atom_site_label
 _atom_site_symmetry_multiplicity
 _atom_site_fract_x
 _atom_site_fract_y
 _atom_site_fract_z
 _atom_site_fract_occupancy
 Li  Li1  1  0.86711  0.00000  0.91083  1
 Li  Li2  1  0.86713  0.00000  0.58917  1
 Li  Li3  1  0.38023  0.00000  0.25000  1
 Li  Li4  1  0.62169  0.50000  0.74999  1
 Li  Li5  1  0.13341  0.50000  0.41354  1
 Li  Li6  1  0.13342  0.50000  0.08649  1
 Mn  Mn1  1  0.36353  0.00000  0.91992  1
 Mn  Mn2  1  0.90462  0.00000  0.25001  1
 Mn  Mn3  1  0.36352  0.00000  0.58009  1
 Mn  Mn4  1  0.63503  0.50000  0.42607  1
 Mn  Mn5  1  0.63502  0.50000  0.07389  1
 Mn  Mn6  1  0.09760  0.50000  0.75003  1
 O  O1  1  0.42519  0.50000  0.25000  1
 O  O2  1  0.36056  0.50000  0.91465  1
 O  O3  1  0.58204  0.00000  0.75001  1
 O  O4  1  0.62997  0.00000  0.42240  1
 O  O5  1  0.62993  0.00000  0.07759  1
 O  O6  1  0.12160  0.00000  0.74999  1
 O  O7  1  0.13584  0.00000  0.41843  1
 O  O8  1  0.13581  0.00000  0.08156  1
 O  O9  1  0.86794  0.50000  0.91285  1
 O  O10  1  0.88015  0.50000  0.25003  1
 O  O11  1  0.86798  0.50000  0.58717  1
 O  O12  1  0.36067  0.50000  0.58530  1
