CIF file written using JARVIS-Tools package.
data_FeCl3
_symmetry_space_group_name_H-M  'Cm'
_cell_length_a       10.5244
_cell_length_b       3.68452
_cell_length_c       9.13481
_cell_angle_alpha    101.687
_cell_angle_beta     139.167
_cell_angle_gamma    69.4923

_symmetry_Int_Tables_number  8
_chemical_formula_structural  FeCl3
_chemical_formula_sum  Fe2Cl6
_cell_volume  215.80286749579182
_cell_formula_units_Z  2
loop_
  _symmetry_equiv_pos_site_id
 _symmetry_equiv_pos_as_xyz
 1  'x, y, z'
loop_
 _atom_site_type_symbol
 _atom_site_label
 _atom_site_symmetry_multiplicity
 _atom_site_fract_x
 _atom_site_fract_y
 _atom_site_fract_z
 _atom_site_fract_occupancy
 Cl  Cl1  1  0.16098  0.82945  -0.02551  1
 Cl  Cl2  1  0.03934  0.22893  0.53123  1
 Cl  Cl3  1  0.64461  0.06919  0.42066  1
 Cl  Cl4  1  0.41013  -0.14110  0.53133  1
 Cl  Cl5  1  0.92289  0.62463  0.09055  1
 Cl  Cl6  1  0.53185  0.45719  0.97283  1
 Fe  Fe1  1  0.44847  0.71749  0.32512  1
 Fe  Fe2  1  0.85050  0.24225  0.18049  1
