CIF file written using JARVIS-Tools package.
data_HfAlPt2
_symmetry_space_group_name_H-M  'P6_3/mmc'
_cell_length_a       4.51676
_cell_length_b       4.51676
_cell_length_c       8.19284
_cell_angle_alpha    90
_cell_angle_beta     90
_cell_angle_gamma    120.01

_symmetry_Int_Tables_number  194
_chemical_formula_structural  HfAlPt2
_chemical_formula_sum  Hf2Al2Pt4
_cell_volume  144.73601179219114
_cell_formula_units_Z  2
loop_
  _symmetry_equiv_pos_site_id
 _symmetry_equiv_pos_as_xyz
 1  'x, y, z'
loop_
 _atom_site_type_symbol
 _atom_site_label
 _atom_site_symmetry_multiplicity
 _atom_site_fract_x
 _atom_site_fract_y
 _atom_site_fract_z
 _atom_site_fract_occupancy
 Al  Al1  1  0.99998  0.00002  0.75000  1
 Al  Al2  1  0.00002  0.99998  0.25000  1
 Hf  Hf1  1  0.66667  0.33333  0.75000  1
 Hf  Hf2  1  0.33333  0.66667  0.25000  1
 Pt  Pt1  1  0.66666  0.33334  0.08294  1
 Pt  Pt2  1  0.33334  0.66666  0.91706  1
 Pt  Pt3  1  0.33334  0.66666  0.58294  1
 Pt  Pt4  1  0.66666  0.33334  0.41706  1
