CIF file written using JARVIS-Tools package.
data_Ca4TiN4
_symmetry_space_group_name_H-M  'P-1'
_cell_length_a       5.98503
_cell_length_b       6.01811
_cell_length_c       8.97617
_cell_angle_alpha    71.607
_cell_angle_beta     79.3501
_cell_angle_gamma    67.9589

_symmetry_Int_Tables_number  2
_chemical_formula_structural  Ca4TiN4
_chemical_formula_sum  Ca8Ti2N8
_cell_volume  283.55924494023697
_cell_formula_units_Z  2
loop_
  _symmetry_equiv_pos_site_id
 _symmetry_equiv_pos_as_xyz
 1  'x, y, z'
loop_
 _atom_site_type_symbol
 _atom_site_label
 _atom_site_symmetry_multiplicity
 _atom_site_fract_x
 _atom_site_fract_y
 _atom_site_fract_z
 _atom_site_fract_occupancy
 Ca  Ca1  1  0.23441  0.95511  0.60757  1
 Ca  Ca2  1  0.77297  0.57940  0.17681  1
 Ca  Ca3  1  0.73837  0.22975  0.98050  1
 Ca  Ca4  1  0.27106  0.51976  0.42693  1
 Ca  Ca5  1  0.76559  0.04489  0.39243  1
 Ca  Ca6  1  0.22703  0.42060  0.82319  1
 Ca  Ca7  1  0.72894  0.48024  0.57307  1
 Ca  Ca8  1  0.26163  0.77025  0.01950  1
 N  N1  1  0.48901  0.82274  0.36426  1
 N  N2  1  0.11642  0.16787  0.07224  1
 N  N3  1  0.51684  0.63417  0.80418  1
 N  N4  1  0.02936  0.29158  0.39056  1
 N  N5  1  0.88358  0.83213  0.92776  1
 N  N6  1  0.97064  0.70842  0.60944  1
 N  N7  1  0.48316  0.36583  0.19582  1
 N  N8  1  0.51099  0.17726  0.63574  1
 Ti  Ti1  1  0.71513  0.84829  0.75644  1
 Ti  Ti2  1  0.28487  0.15171  0.24356  1
