CIF file written using JARVIS-Tools package.
data_Rb2MnS2
_symmetry_space_group_name_H-M  'Ibam'
_cell_length_a       6.35826
_cell_length_b       7.02211
_cell_length_c       8.10845
_cell_angle_alpha    115.659
_cell_angle_beta     113.084
_cell_angle_gamma    90

_symmetry_Int_Tables_number  72
_chemical_formula_structural  Rb2MnS2
_chemical_formula_sum  Rb4Mn2S4
_cell_volume  293.84196578882216
_cell_formula_units_Z  2
loop_
  _symmetry_equiv_pos_site_id
 _symmetry_equiv_pos_as_xyz
 1  'x, y, z'
loop_
 _atom_site_type_symbol
 _atom_site_label
 _atom_site_symmetry_multiplicity
 _atom_site_fract_x
 _atom_site_fract_y
 _atom_site_fract_z
 _atom_site_fract_occupancy
 Mn  Mn1  1  0.25000  0.00000  0.00000  1
 Mn  Mn2  1  0.75000  0.00000  0.00000  1
 Rb  Rb1  1  0.64858  0.80737  0.29716  1
 Rb  Rb2  1  0.35142  0.19263  0.70284  1
 Rb  Rb3  1  0.85142  0.51021  0.70284  1
 Rb  Rb4  1  0.14858  0.48979  0.29716  1
 S  S1  1  0.40021  0.71455  0.80041  1
 S  S2  1  0.59979  0.28545  0.19959  1
 S  S3  1  0.09979  0.91414  0.19959  1
 S  S4  1  0.90021  0.08586  0.80041  1
