CIF file written using JARVIS-Tools package.
data_InSe2N
_symmetry_space_group_name_H-M  'I4/mcm'
_cell_length_a       6.15046
_cell_length_b       6.15046
_cell_length_c       6.15046
_cell_angle_alpha    109.166
_cell_angle_beta     109.166
_cell_angle_gamma    110.084

_symmetry_Int_Tables_number  140
_chemical_formula_structural  InSe2N
_chemical_formula_sum  In2Se4N2
_cell_volume  179.08723909738512
_cell_formula_units_Z  2
loop_
  _symmetry_equiv_pos_site_id
 _symmetry_equiv_pos_as_xyz
 1  'x, y, z'
loop_
 _atom_site_type_symbol
 _atom_site_label
 _atom_site_symmetry_multiplicity
 _atom_site_fract_x
 _atom_site_fract_y
 _atom_site_fract_z
 _atom_site_fract_occupancy
 In  In1  1  0.75000  0.25000  0.50000  1
 In  In2  1  0.25000  0.75000  0.50000  1
 N  N1  1  0.25000  0.25000  0.00000  1
 N  N2  1  0.75000  0.75000  0.00000  1
 Se  Se1  1  0.80394  0.30394  0.10788  1
 Se  Se2  1  0.19606  0.69606  0.89212  1
 Se  Se3  1  0.69606  0.80394  0.50000  1
 Se  Se4  1  0.30394  0.19606  0.50000  1
