CIF file written using JARVIS-Tools package.
data_CeGaNi
_symmetry_space_group_name_H-M  'Pnma'
_cell_length_a       4.47672
_cell_length_b       6.70264
_cell_length_c       7.31945
_cell_angle_alpha    90.0103
_cell_angle_beta     90.0001
_cell_angle_gamma    90

_symmetry_Int_Tables_number  62
_chemical_formula_structural  CeGaNi
_chemical_formula_sum  Ce4Ga4Ni4
_cell_volume  219.62647744066106
_cell_formula_units_Z  4
loop_
  _symmetry_equiv_pos_site_id
 _symmetry_equiv_pos_as_xyz
 1  'x, y, z'
loop_
 _atom_site_type_symbol
 _atom_site_label
 _atom_site_symmetry_multiplicity
 _atom_site_fract_x
 _atom_site_fract_y
 _atom_site_fract_z
 _atom_site_fract_occupancy
 Ce  Ce1  1  0.75000  0.18006  0.53193  1
 Ce  Ce2  1  0.25000  0.68007  0.96806  1
 Ce  Ce3  1  0.25000  0.81994  0.46807  1
 Ce  Ce4  1  0.75000  0.31993  0.03194  1
 Ga  Ga1  1  0.25000  0.40052  0.32189  1
 Ga  Ga2  1  0.25000  0.09948  0.82189  1
 Ga  Ga3  1  0.75000  0.59948  0.67811  1
 Ga  Ga4  1  0.75000  0.90052  0.17811  1
 Ni  Ni1  1  0.75000  0.92384  0.82625  1
 Ni  Ni2  1  0.75000  0.57619  0.32624  1
 Ni  Ni3  1  0.25000  0.42381  0.67376  1
 Ni  Ni4  1  0.25000  0.07616  0.17375  1
