CIF file written using JARVIS-Tools package.
data_LiMg6Co
_symmetry_space_group_name_H-M  'P4/mmm'
_cell_length_a       7.04829
_cell_length_b       9.96534
_cell_length_c       3.22876
_cell_angle_alpha    90
_cell_angle_beta     90
_cell_angle_gamma    135.023

_symmetry_Int_Tables_number  123
_chemical_formula_structural  LiMg6Co
_chemical_formula_sum  LiMg6Co
_cell_volume  160.2961993084737
_cell_formula_units_Z  1
loop_
  _symmetry_equiv_pos_site_id
 _symmetry_equiv_pos_as_xyz
 1  'x, y, z'
loop_
 _atom_site_type_symbol
 _atom_site_label
 _atom_site_symmetry_multiplicity
 _atom_site_fract_x
 _atom_site_fract_y
 _atom_site_fract_z
 _atom_site_fract_occupancy
 Co  Co1  1  0.24993  0.37496  0.25000  1
 Li  Li1  1  0.24992  0.87496  0.25000  1
 Mg  Mg1  1  0.75008  0.37504  0.25000  1
 Mg  Mg2  1  0.75008  0.87504  0.25000  1
 Mg  Mg3  1  0.25002  0.16085  0.75000  1
 Mg  Mg4  1  0.25007  0.58919  0.75000  1
 Mg  Mg5  1  0.82161  0.16079  0.75000  1
 Mg  Mg6  1  0.67830  0.58916  0.75000  1
