CIF file written using JARVIS-Tools package.
data_LiVP4H4O14
_symmetry_space_group_name_H-M  'P-1'
_cell_length_a       5.30663
_cell_length_b       7.02106
_cell_length_c       7.61958
_cell_angle_alpha    87.0467
_cell_angle_beta     81.0916
_cell_angle_gamma    66.6081

_symmetry_Int_Tables_number  2
_chemical_formula_structural  LiVP4H4O14
_chemical_formula_sum  LiVP4H4O4
_cell_volume  257.4005202232863
_cell_formula_units_Z  1
loop_
  _symmetry_equiv_pos_site_id
 _symmetry_equiv_pos_as_xyz
 1  'x, y, z'
loop_
 _atom_site_type_symbol
 _atom_site_label
 _atom_site_symmetry_multiplicity
 _atom_site_fract_x
 _atom_site_fract_y
 _atom_site_fract_z
 _atom_site_fract_occupancy
 H  H1  1  0.05512  0.81148  0.44614  1
 H  H2  1  0.67360  0.94078  0.33821  1
 H  H3  1  0.32640  0.05922  0.66179  1
 H  H4  1  0.94488  0.18852  0.55386  1
 Li  Li1  1  0.00000  0.00000  0.00000  1
 O  O1  1  0.13345  0.27985  0.17977  1
 O  O2  1  0.78343  0.79119  0.49822  1
 O  O3  1  0.17667  0.69190  0.08835  1
 O  O4  1  0.34636  0.34792  0.84329  1
 O  O5  1  0.42060  0.43199  0.31671  1
 O  O6  1  0.21657  0.20881  0.50178  1
 O  O7  1  0.61790  0.05619  0.24678  1
 O  O8  1  0.38210  0.94381  0.75322  1
 O  O9  1  0.65364  0.65208  0.15671  1
 O  O10  1  0.57940  0.56801  0.68329  1
 O  O11  1  0.24020  0.81383  0.38075  1
 O  O12  1  0.82333  0.30810  0.91165  1
 O  O13  1  0.75980  0.18617  0.61925  1
 O  O14  1  0.86655  0.72015  0.82023  1
 P  P1  1  0.66702  0.76139  0.68582  1
 P  P2  1  0.62718  0.34883  0.77311  1
 P  P3  1  0.37282  0.65117  0.22689  1
 P  P4  1  0.33298  0.23861  0.31418  1
 V  V1  1  0.00000  0.50000  0.00000  1
