CIF file written using JARVIS-Tools package.
data_LiCeSn2
_symmetry_space_group_name_H-M  'Cmcm'
_cell_length_a       4.50699
_cell_length_b       4.54572
_cell_length_c       9.70514
_cell_angle_alpha    90
_cell_angle_beta     103.426
_cell_angle_gamma    90

_symmetry_Int_Tables_number  63
_chemical_formula_structural  LiCeSn2
_chemical_formula_sum  Li2Ce2Sn4
_cell_volume  193.40017486090943
_cell_formula_units_Z  2
loop_
  _symmetry_equiv_pos_site_id
 _symmetry_equiv_pos_as_xyz
 1  'x, y, z'
loop_
 _atom_site_type_symbol
 _atom_site_label
 _atom_site_symmetry_multiplicity
 _atom_site_fract_x
 _atom_site_fract_y
 _atom_site_fract_z
 _atom_site_fract_occupancy
 Ce  Ce1  1  0.10630  0.75000  0.21259  1
 Ce  Ce2  1  0.89370  0.25000  0.78741  1
 Li  Li1  1  0.67678  0.25000  0.35355  1
 Li  Li2  1  0.32322  0.75000  0.64645  1
 Sn  Sn1  1  0.74960  0.75000  0.49921  1
 Sn  Sn2  1  0.25040  0.25000  0.50079  1
 Sn  Sn3  1  0.54500  0.25000  0.09001  1
 Sn  Sn4  1  0.45500  0.75000  0.90999  1
