CIF file written using JARVIS-Tools package.
data_Yb2Ge6Pt
_symmetry_space_group_name_H-M  'Amm2'
_cell_length_a       4.18293
_cell_length_b       3.97396
_cell_length_c       11.457
_cell_angle_alpha    99.9873
_cell_angle_beta     90
_cell_angle_gamma    90

_symmetry_Int_Tables_number  38
_chemical_formula_structural  Yb2Ge6Pt
_chemical_formula_sum  Yb2Ge6Pt
_cell_volume  187.56085556398563
_cell_formula_units_Z  1
loop_
  _symmetry_equiv_pos_site_id
 _symmetry_equiv_pos_as_xyz
 1  'x, y, z'
loop_
 _atom_site_type_symbol
 _atom_site_label
 _atom_site_symmetry_multiplicity
 _atom_site_fract_x
 _atom_site_fract_y
 _atom_site_fract_z
 _atom_site_fract_occupancy
 Ge  Ge1  1  0.00000  0.28436  0.56872  1
 Ge  Ge2  1  0.00000  0.39606  0.79213  1
 Ge  Ge3  1  0.50000  0.54372  0.08744  1
 Ge  Ge4  1  0.50000  0.11027  0.22054  1
 Ge  Ge5  1  0.50000  0.89988  0.79977  1
 Ge  Ge6  1  0.50000  0.78823  0.57647  1
 Pt  Pt1  1  0.50000  0.21854  0.43708  1
 Yb  Yb1  1  0.00000  0.00134  0.00268  1
 Yb  Yb2  1  0.00000  0.66559  0.33118  1
