CIF file written using JARVIS-Tools package.
data_Li2Ti2V3O10
_symmetry_space_group_name_H-M  'P-1'
_cell_length_a       4.98761
_cell_length_b       5.09847
_cell_length_c       7.71297
_cell_angle_alpha    75.5294
_cell_angle_beta     76.6499
_cell_angle_gamma    78.7796

_symmetry_Int_Tables_number  2
_chemical_formula_structural  Li2Ti2V3O10
_chemical_formula_sum  Li2Ti2V3O0
_cell_volume  182.81985795804496
_cell_formula_units_Z  1
loop_
  _symmetry_equiv_pos_site_id
 _symmetry_equiv_pos_as_xyz
 1  'x, y, z'
loop_
 _atom_site_type_symbol
 _atom_site_label
 _atom_site_symmetry_multiplicity
 _atom_site_fract_x
 _atom_site_fract_y
 _atom_site_fract_z
 _atom_site_fract_occupancy
 Li  Li1  1  0.53425  0.77259  0.39992  1
 Li  Li2  1  0.46575  0.22741  0.60008  1
 O  O1  1  0.21548  0.95409  0.86655  1
 O  O2  1  0.23111  0.07602  0.48593  1
 O  O3  1  0.77313  0.67556  0.93985  1
 O  O4  1  0.76889  0.92398  0.51407  1
 O  O5  1  0.18124  0.51974  0.68625  1
 O  O6  1  0.81876  0.48026  0.31375  1
 O  O7  1  0.72558  0.19976  0.77868  1
 O  O8  1  0.22687  0.32444  0.06015  1
 O  O9  1  0.27442  0.80024  0.22132  1
 O  O10  1  0.78452  0.04591  0.13345  1
 Ti  Ti1  1  0.99409  0.12660  0.31517  1
 Ti  Ti2  1  0.00591  0.87340  0.68483  1
 V  V1  1  0.04022  0.68494  0.10397  1
 V  V2  1  0.95978  0.31506  0.89603  1
 V  V3  1  0.50000  0.00000  -0.00000  1
