CIF file written using JARVIS-Tools package.
data_TbErO3
_symmetry_space_group_name_H-M  'Pnma'
_cell_length_a       5.64511
_cell_length_b       5.92649
_cell_length_c       8.35359
_cell_angle_alpha    90
_cell_angle_beta     90
_cell_angle_gamma    90

_symmetry_Int_Tables_number  62
_chemical_formula_structural  TbErO3
_chemical_formula_sum  Tb4Er4O2
_cell_volume  279.47508852426813
_cell_formula_units_Z  4
loop_
  _symmetry_equiv_pos_site_id
 _symmetry_equiv_pos_as_xyz
 1  'x, y, z'
loop_
 _atom_site_type_symbol
 _atom_site_label
 _atom_site_symmetry_multiplicity
 _atom_site_fract_x
 _atom_site_fract_y
 _atom_site_fract_z
 _atom_site_fract_occupancy
 Er  Er1  1  0.00000  0.50000  0.00000  1
 Er  Er2  1  0.00000  0.50000  0.50000  1
 Er  Er3  1  0.50000  0.00000  0.00000  1
 Er  Er4  1  0.50000  0.00000  0.50000  1
 O  O1  1  0.68556  0.31062  0.42150  1
 O  O2  1  0.14796  0.42409  0.25000  1
 O  O3  1  0.81444  0.81062  0.42150  1
 O  O4  1  0.18556  0.18938  0.92150  1
 O  O5  1  0.31444  0.68938  0.92150  1
 O  O6  1  0.18556  0.18938  0.57850  1
 O  O7  1  0.35204  0.92409  0.25000  1
 O  O8  1  0.85204  0.57591  0.75000  1
 O  O9  1  0.68556  0.31062  0.07850  1
 O  O10  1  0.31444  0.68938  0.57850  1
 O  O11  1  0.81444  0.81062  0.07850  1
 O  O12  1  0.64796  0.07591  0.75000  1
 Tb  Tb1  1  0.97955  0.05600  0.25000  1
 Tb  Tb2  1  0.52045  0.55600  0.25000  1
 Tb  Tb3  1  0.47955  0.44400  0.75000  1
 Tb  Tb4  1  0.02045  0.94400  0.75000  1
