CIF file written using JARVIS-Tools package.
data_Be2TeRh2
_symmetry_space_group_name_H-M  'I4/mmm'
_cell_length_a       5.3404
_cell_length_b       5.3404
_cell_length_c       5.3404
_cell_angle_alpha    134.601
_cell_angle_beta     134.601
_cell_angle_gamma    66.1516

_symmetry_Int_Tables_number  139
_chemical_formula_structural  Be2TeRh2
_chemical_formula_sum  Be2TeRh2
_cell_volume  76.02408862398057
_cell_formula_units_Z  1
loop_
  _symmetry_equiv_pos_site_id
 _symmetry_equiv_pos_as_xyz
 1  'x, y, z'
loop_
 _atom_site_type_symbol
 _atom_site_label
 _atom_site_symmetry_multiplicity
 _atom_site_fract_x
 _atom_site_fract_y
 _atom_site_fract_z
 _atom_site_fract_occupancy
 Be  Be1  1  0.65414  0.65414  -0.00000  1
 Be  Be2  1  0.34586  0.34586  0.00000  1
 Rh  Rh1  1  0.75000  0.25000  0.50000  1
 Rh  Rh2  1  0.25000  0.75000  0.50000  1
 Te  Te1  1  0.00000  0.00000  0.00000  1
