CIF file written using JARVIS-Tools package.
data_CrP2S7
_symmetry_space_group_name_H-M  'C2'
_cell_length_a       6.33398
_cell_length_b       6.33398
_cell_length_c       6.15612
_cell_angle_alpha    85.0617
_cell_angle_beta     94.9383
_cell_angle_gamma    85.1103

_symmetry_Int_Tables_number  5
_chemical_formula_structural  CrP2S7
_chemical_formula_sum  CrP2S7
_cell_volume  244.0792633343195
_cell_formula_units_Z  1
loop_
  _symmetry_equiv_pos_site_id
 _symmetry_equiv_pos_as_xyz
 1  'x, y, z'
loop_
 _atom_site_type_symbol
 _atom_site_label
 _atom_site_symmetry_multiplicity
 _atom_site_fract_x
 _atom_site_fract_y
 _atom_site_fract_z
 _atom_site_fract_occupancy
 Cr  Cr1  1  0.49186  0.49186  0.00000  1
 P  P1  1  0.04404  0.65527  0.07968  1
 P  P2  1  0.65527  0.04404  0.92032  1
 S  S1  1  0.14058  0.50615  0.81889  1
 S  S2  1  0.53117  0.80710  0.76425  1
 S  S3  1  0.31783  0.63341  0.28486  1
 S  S4  1  0.99209  0.99209  0.00000  1
 S  S5  1  0.63341  0.31783  0.71514  1
 S  S6  1  0.80710  0.53117  0.23575  1
 S  S7  1  0.50615  0.14058  0.18111  1
