CIF file written using JARVIS-Tools package.
data_Mg6CdGa
_symmetry_space_group_name_H-M  'Amm2'
_cell_length_a       6.21816
_cell_length_b       6.21816
_cell_length_c       5.16018
_cell_angle_alpha    90
_cell_angle_beta     90
_cell_angle_gamma    120.364

_symmetry_Int_Tables_number  38
_chemical_formula_structural  Mg6CdGa
_chemical_formula_sum  Mg6CdGa
_cell_volume  172.153400182389
_cell_formula_units_Z  1
loop_
  _symmetry_equiv_pos_site_id
 _symmetry_equiv_pos_as_xyz
 1  'x, y, z'
loop_
 _atom_site_type_symbol
 _atom_site_label
 _atom_site_symmetry_multiplicity
 _atom_site_fract_x
 _atom_site_fract_y
 _atom_site_fract_z
 _atom_site_fract_occupancy
 Cd  Cd1  1  0.15403  0.34597  0.25000  1
 Ga  Ga1  1  0.34790  0.15210  0.75000  1
 Mg  Mg1  1  0.16371  0.84675  0.25000  1
 Mg  Mg2  1  0.65325  0.33629  0.25000  1
 Mg  Mg3  1  0.66426  0.83574  0.25000  1
 Mg  Mg4  1  0.33814  0.65742  0.75000  1
 Mg  Mg5  1  0.84258  0.16186  0.75000  1
 Mg  Mg6  1  0.83614  0.66386  0.75000  1
