CIF file written using JARVIS-Tools package.
data_BeSiBr
_symmetry_space_group_name_H-M  'I4mm'
_cell_length_a       5.71357
_cell_length_b       5.71357
_cell_length_c       5.71357
_cell_angle_alpha    145.516
_cell_angle_beta     145.516
_cell_angle_gamma    49.5663

_symmetry_Int_Tables_number  107
_chemical_formula_structural  BeSiBr
_chemical_formula_sum  BeSiBr
_cell_volume  59.51180169343611
_cell_formula_units_Z  1
loop_
  _symmetry_equiv_pos_site_id
 _symmetry_equiv_pos_as_xyz
 1  'x, y, z'
loop_
 _atom_site_type_symbol
 _atom_site_label
 _atom_site_symmetry_multiplicity
 _atom_site_fract_x
 _atom_site_fract_y
 _atom_site_fract_z
 _atom_site_fract_occupancy
 Be  Be1  1  0.11052  0.11052  0.00000  1
 Br  Br1  1  0.32519  0.32519  0.00000  1
 Si  Si1  1  0.56430  0.56430  0.00000  1
