CIF file written using JARVIS-Tools package.
data_CeMg6Nb
_symmetry_space_group_name_H-M  'Amm2'
_cell_length_a       6.63119
_cell_length_b       6.63119
_cell_length_c       4.89501
_cell_angle_alpha    90
_cell_angle_beta     90
_cell_angle_gamma    122.204

_symmetry_Int_Tables_number  38
_chemical_formula_structural  CeMg6Nb
_chemical_formula_sum  CeMg6Nb
_cell_volume  182.13224996101613
_cell_formula_units_Z  1
loop_
  _symmetry_equiv_pos_site_id
 _symmetry_equiv_pos_as_xyz
 1  'x, y, z'
loop_
 _atom_site_type_symbol
 _atom_site_label
 _atom_site_symmetry_multiplicity
 _atom_site_fract_x
 _atom_site_fract_y
 _atom_site_fract_z
 _atom_site_fract_occupancy
 Ce  Ce1  1  0.20253  0.29747  0.25000  1
 Mg  Mg1  1  0.18364  0.82412  0.25000  1
 Mg  Mg2  1  0.67588  0.31636  0.25000  1
 Mg  Mg3  1  0.66398  0.83602  0.25000  1
 Mg  Mg4  1  0.32505  0.67996  0.75000  1
 Mg  Mg5  1  0.82004  0.17495  0.75000  1
 Mg  Mg6  1  0.82350  0.67650  0.75000  1
 Nb  Nb1  1  0.30538  0.19462  0.75000  1
