CIF file written using JARVIS-Tools package.
data_LiMn2F5
_symmetry_space_group_name_H-M  'Cmcm'
_cell_length_a       4.06134
_cell_length_b       5.57724
_cell_length_c       10.305
_cell_angle_alpha    90
_cell_angle_beta     90
_cell_angle_gamma    111.352

_symmetry_Int_Tables_number  63
_chemical_formula_structural  LiMn2F5
_chemical_formula_sum  Li2Mn4F0
_cell_volume  217.39704654485882
_cell_formula_units_Z  2
loop_
  _symmetry_equiv_pos_site_id
 _symmetry_equiv_pos_as_xyz
 1  'x, y, z'
loop_
 _atom_site_type_symbol
 _atom_site_label
 _atom_site_symmetry_multiplicity
 _atom_site_fract_x
 _atom_site_fract_y
 _atom_site_fract_z
 _atom_site_fract_occupancy
 F  F1  1  0.30967  0.61935  0.42988  1
 F  F2  1  0.05365  0.10729  0.11664  1
 F  F3  1  0.05365  0.10729  0.38336  1
 F  F4  1  0.30967  0.61935  0.07012  1
 F  F5  1  0.24127  0.48253  0.75000  1
 F  F6  1  0.75873  0.51747  0.25000  1
 F  F7  1  0.94635  0.89271  0.61664  1
 F  F8  1  0.69033  0.38065  0.57012  1
 F  F9  1  0.69033  0.38065  0.92988  1
 F  F10  1  0.94635  0.89271  0.88336  1
 Li  Li1  1  0.17771  0.35542  0.25000  1
 Li  Li2  1  0.82229  0.64458  0.75000  1
 Mn  Mn1  1  0.13878  0.27757  0.57107  1
 Mn  Mn2  1  0.13878  0.27757  0.92893  1
 Mn  Mn3  1  0.86122  0.72243  0.07107  1
 Mn  Mn4  1  0.86122  0.72243  0.42893  1
