CIF file written using JARVIS-Tools package.
data_VOF2
_symmetry_space_group_name_H-M  'P2/c'
_cell_length_a       5.18995
_cell_length_b       4.89538
_cell_length_c       7.40204
_cell_angle_alpha    90
_cell_angle_beta     93.815
_cell_angle_gamma    90

_symmetry_Int_Tables_number  13
_chemical_formula_structural  VOF2
_chemical_formula_sum  V4O4F8
_cell_volume  187.64486179722985
_cell_formula_units_Z  4
loop_
  _symmetry_equiv_pos_site_id
 _symmetry_equiv_pos_as_xyz
 1  'x, y, z'
loop_
 _atom_site_type_symbol
 _atom_site_label
 _atom_site_symmetry_multiplicity
 _atom_site_fract_x
 _atom_site_fract_y
 _atom_site_fract_z
 _atom_site_fract_occupancy
 F  F1  1  -0.00000  0.12804  0.25000  1
 F  F2  1  0.19177  0.30733  0.92528  1
 F  F3  1  0.80823  0.30733  0.57472  1
 F  F4  1  0.50000  0.37548  0.25000  1
 F  F5  1  0.50000  0.62452  0.75000  1
 F  F6  1  0.19177  0.69267  0.42528  1
 F  F7  1  0.80823  0.69267  0.07472  1
 F  F8  1  -0.00000  0.87196  0.75000  1
 O  O1  1  0.29428  0.20472  0.54386  1
 O  O2  1  0.70572  0.20472  0.95614  1
 O  O3  1  0.29428  0.79528  0.04386  1
 O  O4  1  0.70572  0.79528  0.45614  1
 V  V1  1  0.50000  0.50000  0.50000  1
 V  V2  1  0.50000  0.50000  0.00000  1
 V  V3  1  -0.00000  0.00000  0.50000  1
 V  V4  1  0.00000  0.00000  0.00000  1
