CIF file written using JARVIS-Tools package.
data_Ce2Fe2Se2O3
_symmetry_space_group_name_H-M  'I4/mmm'
_cell_length_a       3.99741
_cell_length_b       3.99741
_cell_length_c       9.4032
_cell_angle_alpha    102.272
_cell_angle_beta     102.272
_cell_angle_gamma    90

_symmetry_Int_Tables_number  139
_chemical_formula_structural  Ce2Fe2Se2O3
_chemical_formula_sum  Ce2Fe2Se2O3
_cell_volume  143.30747338245402
_cell_formula_units_Z  1
loop_
  _symmetry_equiv_pos_site_id
 _symmetry_equiv_pos_as_xyz
 1  'x, y, z'
loop_
 _atom_site_type_symbol
 _atom_site_label
 _atom_site_symmetry_multiplicity
 _atom_site_fract_x
 _atom_site_fract_y
 _atom_site_fract_z
 _atom_site_fract_occupancy
 Ce  Ce1  1  0.31897  0.31897  0.63795  1
 Ce  Ce2  1  0.68103  0.68103  0.36205  1
 Fe  Fe1  1  0.00000  0.50000  0.00000  1
 Fe  Fe2  1  0.50000  0.00000  0.00000  1
 O  O1  1  0.75000  0.25000  0.50000  1
 O  O2  1  0.25000  0.75000  0.50000  1
 O  O3  1  0.50000  0.50000  0.00000  1
 Se  Se1  1  0.89889  0.89889  0.79779  1
 Se  Se2  1  0.10111  0.10111  0.20221  1
