CIF file written using JARVIS-Tools package.
data_Mg6VCr
_symmetry_space_group_name_H-M  'Amm2'
_cell_length_a       6.1963
_cell_length_b       6.22058
_cell_length_c       4.93369
_cell_angle_alpha    90
_cell_angle_beta     90
_cell_angle_gamma    120.13

_symmetry_Int_Tables_number  38
_chemical_formula_structural  Mg6VCr
_chemical_formula_sum  Mg6VCr
_cell_volume  164.47368564551846
_cell_formula_units_Z  1
loop_
  _symmetry_equiv_pos_site_id
 _symmetry_equiv_pos_as_xyz
 1  'x, y, z'
loop_
 _atom_site_type_symbol
 _atom_site_label
 _atom_site_symmetry_multiplicity
 _atom_site_fract_x
 _atom_site_fract_y
 _atom_site_fract_z
 _atom_site_fract_occupancy
 Cr  Cr1  1  0.16666  0.83333  0.25000  1
 Mg  Mg1  1  0.66230  0.33052  0.25000  1
 Mg  Mg2  1  0.66230  0.83178  0.25000  1
 Mg  Mg3  1  0.32647  0.16481  0.75000  1
 Mg  Mg4  1  0.32647  0.66166  0.75000  1
 Mg  Mg5  1  0.84598  0.17299  0.75000  1
 Mg  Mg6  1  0.84549  0.67275  0.75000  1
 V  V1  1  0.16431  0.33216  0.25000  1
