CIF file written using JARVIS-Tools package.
data_Be2ReBr
_symmetry_space_group_name_H-M  'P4/mmm'
_cell_length_a       3.11698
_cell_length_b       3.11698
_cell_length_c       5.87089
_cell_angle_alpha    90
_cell_angle_beta     90
_cell_angle_gamma    90

_symmetry_Int_Tables_number  123
_chemical_formula_structural  Be2ReBr
_chemical_formula_sum  Be2ReBr
_cell_volume  57.03888539131596
_cell_formula_units_Z  1
loop_
  _symmetry_equiv_pos_site_id
 _symmetry_equiv_pos_as_xyz
 1  'x, y, z'
loop_
 _atom_site_type_symbol
 _atom_site_label
 _atom_site_symmetry_multiplicity
 _atom_site_fract_x
 _atom_site_fract_y
 _atom_site_fract_z
 _atom_site_fract_occupancy
 Be  Be1  1  0.00000  0.00000  0.67132  1
 Be  Be2  1  0.00000  0.00000  0.32868  1
 Br  Br1  1  0.50000  0.50000  0.00000  1
 Re  Re1  1  0.50000  0.50000  0.50000  1
