CIF file written using JARVIS-Tools package.
data_Er2Mo2C3
_symmetry_space_group_name_H-M  'C2/m'
_cell_length_a       3.32222
_cell_length_b       5.67253
_cell_length_c       6.03388
_cell_angle_alpha    110.714
_cell_angle_beta     105.98
_cell_angle_gamma    90

_symmetry_Int_Tables_number  12
_chemical_formula_structural  Er2Mo2C3
_chemical_formula_sum  Er2Mo2C3
_cell_volume  101.64940109038686
_cell_formula_units_Z  1
loop_
  _symmetry_equiv_pos_site_id
 _symmetry_equiv_pos_as_xyz
 1  'x, y, z'
loop_
 _atom_site_type_symbol
 _atom_site_label
 _atom_site_symmetry_multiplicity
 _atom_site_fract_x
 _atom_site_fract_y
 _atom_site_fract_z
 _atom_site_fract_occupancy
 C  C1  1  0.75163  0.26376  0.50326  1
 C  C2  1  0.24837  0.73624  0.49674  1
 C  C3  1  0.00000  0.00000  0.00000  1
 Er  Er1  1  0.38955  0.17404  0.77911  1
 Er  Er2  1  0.61045  0.82596  0.22089  1
 Mo  Mo1  1  0.15577  0.32728  0.31153  1
 Mo  Mo2  1  0.84423  0.67272  0.68847  1
