CIF file written using JARVIS-Tools package.
data_MoWS4
_symmetry_space_group_name_H-M  'P3m1'
_cell_length_a       3.19204
_cell_length_b       3.19201
_cell_length_c       32.9581
_cell_angle_alpha    89.9985
_cell_angle_beta     90
_cell_angle_gamma    120

_symmetry_Int_Tables_number  156
_chemical_formula_structural  MoWS4
_chemical_formula_sum  Mo2W2S8
_cell_volume  290.81967800664415
_cell_formula_units_Z  2
loop_
  _symmetry_equiv_pos_site_id
 _symmetry_equiv_pos_as_xyz
 1  'x, y, z'
loop_
 _atom_site_type_symbol
 _atom_site_label
 _atom_site_symmetry_multiplicity
 _atom_site_fract_x
 _atom_site_fract_y
 _atom_site_fract_z
 _atom_site_fract_occupancy
 Mo  Mo1  1  0.33337  0.66673  0.09137  1
 Mo  Mo2  1  0.66663  0.33327  0.28070  1
 S  S1  1  0.33332  0.66664  0.32822  1
 S  S2  1  0.33326  0.66651  0.70829  1
 S  S3  1  0.66672  0.33345  0.04388  1
 S  S4  1  0.66672  0.33344  0.42251  1
 S  S5  1  0.66668  0.33337  0.13890  1
 S  S6  1  0.66670  0.33341  0.51812  1
 S  S7  1  0.33333  0.66665  0.23318  1
 S  S8  1  0.33329  0.66658  0.61272  1
 W  W1  1  0.33336  0.66673  0.47032  1
 W  W2  1  0.66661  0.33323  0.66053  1
