CIF file written using JARVIS-Tools package.
data_CaTa2O6
_symmetry_space_group_name_H-M  'Pnma'
_cell_length_a       5.38515
_cell_length_b       7.54982
_cell_length_c       11.1713
_cell_angle_alpha    90
_cell_angle_beta     90
_cell_angle_gamma    90

_symmetry_Int_Tables_number  62
_chemical_formula_structural  CaTa2O6
_chemical_formula_sum  Ca4Ta8O24
_cell_volume  454.1920959054387
_cell_formula_units_Z  4
loop_
  _symmetry_equiv_pos_site_id
 _symmetry_equiv_pos_as_xyz
 1  'x, y, z'
loop_
 _atom_site_type_symbol
 _atom_site_label
 _atom_site_symmetry_multiplicity
 _atom_site_fract_x
 _atom_site_fract_y
 _atom_site_fract_z
 _atom_site_fract_occupancy
 Ca  Ca1  1  0.54158  0.25000  0.04201  1
 Ca  Ca2  1  0.45842  0.75000  0.95799  1
 Ca  Ca3  1  0.95842  0.25000  0.54201  1
 Ca  Ca4  1  0.04158  0.75000  0.45799  1
 O  O1  1  0.33294  0.75000  0.62164  1
 O  O2  1  0.83294  0.25000  0.87836  1
 O  O3  1  0.44682  0.75000  0.35482  1
 O  O4  1  0.94682  0.25000  0.14518  1
 O  O5  1  0.55318  0.25000  0.64518  1
 O  O6  1  0.22965  0.04195  0.97558  1
 O  O7  1  0.62742  0.56228  0.78823  1
 O  O8  1  0.16706  0.75000  0.12164  1
 O  O9  1  0.87258  0.93772  0.28823  1
 O  O10  1  0.37258  0.06228  0.21177  1
 O  O11  1  0.77035  0.95805  0.02442  1
 O  O12  1  0.27035  0.04195  0.47558  1
 O  O13  1  0.22965  0.45805  0.97558  1
 O  O14  1  0.05318  0.75000  0.85482  1
 O  O15  1  0.72965  0.54195  0.52442  1
 O  O16  1  0.27035  0.45805  0.47558  1
 O  O17  1  0.12742  0.43772  0.71177  1
 O  O18  1  0.62742  0.93772  0.78823  1
 O  O19  1  0.12742  0.06228  0.71177  1
 O  O20  1  0.37258  0.43772  0.21177  1
 O  O21  1  0.87258  0.56228  0.28823  1
 O  O22  1  0.77035  0.54195  0.02442  1
 O  O23  1  0.66706  0.25000  0.37836  1
 O  O24  1  0.72965  0.95805  0.52442  1
 Ta  Ta1  1  0.96105  0.49426  0.85884  1
 Ta  Ta2  1  0.03895  0.50574  0.14116  1
 Ta  Ta3  1  0.53895  0.00574  0.35884  1
 Ta  Ta4  1  0.03895  0.99426  0.14116  1
 Ta  Ta5  1  0.96105  0.00574  0.85884  1
 Ta  Ta6  1  0.46105  0.99426  0.64116  1
 Ta  Ta7  1  0.46105  0.50574  0.64116  1
 Ta  Ta8  1  0.53895  0.49426  0.35884  1
