CIF file written using JARVIS-Tools package.
data_V6O7F5
_symmetry_space_group_name_H-M  'P1'
_cell_length_a       4.60313
_cell_length_b       5.51383
_cell_length_c       7.68189
_cell_angle_alpha    84.717
_cell_angle_beta     89.4881
_cell_angle_gamma    88.975

_symmetry_Int_Tables_number  1
_chemical_formula_structural  V6O7F5
_chemical_formula_sum  V6O7F5
_cell_volume  194.10914309351048
_cell_formula_units_Z  1
loop_
  _symmetry_equiv_pos_site_id
 _symmetry_equiv_pos_as_xyz
 1  'x, y, z'
loop_
 _atom_site_type_symbol
 _atom_site_label
 _atom_site_symmetry_multiplicity
 _atom_site_fract_x
 _atom_site_fract_y
 _atom_site_fract_z
 _atom_site_fract_occupancy
 F  F1  1  0.20382  0.63910  0.55701  1
 F  F2  1  0.69897  0.19490  0.11311  1
 F  F3  1  0.79339  0.03676  0.77221  1
 F  F4  1  0.21575  0.96033  0.23534  1
 F  F5  1  0.29545  0.79924  0.88653  1
 O  O1  1  0.71195  0.87080  0.42561  1
 O  O2  1  0.79985  0.37487  0.43918  1
 O  O3  1  0.79683  0.69618  0.09335  1
 O  O4  1  0.69202  0.54422  0.76503  1
 O  O5  1  0.29908  0.13593  0.57512  1
 O  O6  1  0.19262  0.29230  0.90527  1
 O  O7  1  0.30075  0.45463  0.23540  1
 V  V1  1  0.00739  0.00017  0.00637  1
 V  V2  1  0.97352  0.64424  0.31143  1
 V  V3  1  -0.00062  0.34478  0.67428  1
 V  V4  1  0.50286  0.18504  0.36546  1
 V  V5  1  0.49170  0.49326  0.99708  1
 V  V6  1  0.52468  0.83324  0.64221  1
