CIF file written using JARVIS-Tools package.
data_Mn3OF5
_symmetry_space_group_name_H-M  'P-1'
_cell_length_a       4.79197
_cell_length_b       5.72496
_cell_length_c       8.09891
_cell_angle_alpha    87.3822
_cell_angle_beta     88.6652
_cell_angle_gamma    87.3566

_symmetry_Int_Tables_number  2
_chemical_formula_structural  Mn3OF5
_chemical_formula_sum  Mn6O2F0
_cell_volume  221.66583755054043
_cell_formula_units_Z  2
loop_
  _symmetry_equiv_pos_site_id
 _symmetry_equiv_pos_as_xyz
 1  'x, y, z'
loop_
 _atom_site_type_symbol
 _atom_site_label
 _atom_site_symmetry_multiplicity
 _atom_site_fract_x
 _atom_site_fract_y
 _atom_site_fract_z
 _atom_site_fract_occupancy
 F  F1  1  0.18823  0.47304  0.73595  1
 F  F2  1  0.21096  0.78235  0.39118  1
 F  F3  1  0.80681  0.86047  0.93068  1
 F  F4  1  0.81177  0.52696  0.26405  1
 F  F5  1  0.78904  0.21765  0.60882  1
 F  F6  1  0.68376  0.35507  0.95231  1
 F  F7  1  0.30573  0.96973  0.72821  1
 F  F8  1  0.31624  0.64493  0.04769  1
 F  F9  1  0.19319  0.13953  0.06932  1
 F  F10  1  0.69427  0.03027  0.27179  1
 Mn  Mn1  1  0.00239  0.83191  0.16266  1
 Mn  Mn2  1  -0.00000  0.50000  0.50000  1
 Mn  Mn3  1  0.99761  0.16809  0.83734  1
 Mn  Mn4  1  0.50000  -0.00000  0.50000  1
 Mn  Mn5  1  0.53728  0.65209  0.80750  1
 Mn  Mn6  1  0.46272  0.34791  0.19250  1
 O  O1  1  0.29264  0.28401  0.41445  1
 O  O2  1  0.70736  0.71599  0.58555  1
