CIF file written using JARVIS-Tools package.
data_HfSb
_symmetry_space_group_name_H-M  'P2_13'
_cell_length_a       5.63328
_cell_length_b       5.63328
_cell_length_c       5.63328
_cell_angle_alpha    90
_cell_angle_beta     90
_cell_angle_gamma    90

_symmetry_Int_Tables_number  198
_chemical_formula_structural  HfSb
_chemical_formula_sum  Hf4Sb4
_cell_volume  178.76535314430586
_cell_formula_units_Z  4
loop_
  _symmetry_equiv_pos_site_id
 _symmetry_equiv_pos_as_xyz
 1  'x, y, z'
loop_
 _atom_site_type_symbol
 _atom_site_label
 _atom_site_symmetry_multiplicity
 _atom_site_fract_x
 _atom_site_fract_y
 _atom_site_fract_z
 _atom_site_fract_occupancy
 Hf  Hf1  1  0.35552  0.85552  0.64448  1
 Hf  Hf2  1  0.85552  0.64448  0.35552  1
 Hf  Hf3  1  0.64448  0.35552  0.85552  1
 Hf  Hf4  1  0.14448  0.14448  0.14448  1
 Sb  Sb1  1  0.65719  0.15719  0.34281  1
 Sb  Sb2  1  0.15719  0.34281  0.65719  1
 Sb  Sb3  1  0.34281  0.65719  0.15719  1
 Sb  Sb4  1  0.84281  0.84281  0.84281  1
