CIF file written using JARVIS-Tools package.
data_NaSn2O4
_symmetry_space_group_name_H-M  'Fd-3m'
_cell_length_a       6.65993
_cell_length_b       6.66
_cell_length_c       6.65993
_cell_angle_alpha    60.0003
_cell_angle_beta     90
_cell_angle_gamma    120

_symmetry_Int_Tables_number  227
_chemical_formula_structural  NaSn2O4
_chemical_formula_sum  Na2Sn4O8
_cell_volume  208.88307923360966
_cell_formula_units_Z  2
loop_
  _symmetry_equiv_pos_site_id
 _symmetry_equiv_pos_as_xyz
 1  'x, y, z'
loop_
 _atom_site_type_symbol
 _atom_site_label
 _atom_site_symmetry_multiplicity
 _atom_site_fract_x
 _atom_site_fract_y
 _atom_site_fract_z
 _atom_site_fract_occupancy
 Na  Na1  1  0.00000  0.00000  0.00000  1
 Na  Na2  1  0.75000  0.50000  0.75000  1
 O  O1  1  0.14331  0.28662  0.14330  1
 O  O2  1  0.60669  0.21338  0.17992  1
 O  O3  1  0.57008  0.71338  0.14331  1
 O  O4  1  0.14330  0.71338  0.14331  1
 O  O5  1  0.60669  0.21338  0.60670  1
 O  O6  1  0.14331  0.28662  0.57008  1
 O  O7  1  0.60670  0.78662  0.60669  1
 O  O8  1  0.17992  0.78662  0.60669  1
 Sn  Sn1  1  0.37500  0.25000  0.37500  1
 Sn  Sn2  1  0.87500  0.25000  0.37500  1
 Sn  Sn3  1  0.37500  0.75000  0.37500  1
 Sn  Sn4  1  0.37500  0.75000  0.87500  1
