CIF file written using JARVIS-Tools package.
data_Li2FeCoO4
_symmetry_space_group_name_H-M  'P2/m'
_cell_length_a       4.93728
_cell_length_b       2.82229
_cell_length_c       4.96352
_cell_angle_alpha    90
_cell_angle_beta     70.4776
_cell_angle_gamma    90

_symmetry_Int_Tables_number  10
_chemical_formula_structural  Li2FeCoO4
_chemical_formula_sum  Li2FeCoO4
_cell_volume  65.18774480337058
_cell_formula_units_Z  1
loop_
  _symmetry_equiv_pos_site_id
 _symmetry_equiv_pos_as_xyz
 1  'x, y, z'
loop_
 _atom_site_type_symbol
 _atom_site_label
 _atom_site_symmetry_multiplicity
 _atom_site_fract_x
 _atom_site_fract_y
 _atom_site_fract_z
 _atom_site_fract_occupancy
 Co  Co1  1  0.50000  0.50000  -0.00000  1
 Fe  Fe1  1  0.50000  0.00000  0.50000  1
 Li  Li1  1  0.00000  0.50000  0.50000  1
 Li  Li2  1  0.00000  0.00000  0.00000  1
 O  O1  1  0.72052  0.00000  0.75827  1
 O  O2  1  0.72246  0.50000  0.25676  1
 O  O3  1  0.27754  0.50000  0.74324  1
 O  O4  1  0.27948  -0.00000  0.24173  1
