CIF file written using JARVIS-Tools package.
data_LiCuS2
_symmetry_space_group_name_H-M  'Pnnm'
_cell_length_a       5.92706
_cell_length_b       6.5811
_cell_length_c       3.3857
_cell_angle_alpha    90
_cell_angle_beta     90
_cell_angle_gamma    90

_symmetry_Int_Tables_number  58
_chemical_formula_structural  LiCuS2
_chemical_formula_sum  Li2Cu2S4
_cell_volume  132.0645003653177
_cell_formula_units_Z  2
loop_
  _symmetry_equiv_pos_site_id
 _symmetry_equiv_pos_as_xyz
 1  'x, y, z'
loop_
 _atom_site_type_symbol
 _atom_site_label
 _atom_site_symmetry_multiplicity
 _atom_site_fract_x
 _atom_site_fract_y
 _atom_site_fract_z
 _atom_site_fract_occupancy
 Cu  Cu1  1  0.00000  0.00000  0.00000  1
 Cu  Cu2  1  0.50000  0.50000  0.50000  1
 Li  Li1  1  0.00000  0.50000  0.50000  1
 Li  Li2  1  0.50000  0.00000  0.00000  1
 S  S1  1  0.18810  0.85172  0.50000  1
 S  S2  1  0.31190  0.35172  0.00000  1
 S  S3  1  0.68810  0.64828  0.00000  1
 S  S4  1  0.81190  0.14828  0.50000  1
