CIF file written using JARVIS-Tools package.
data_SrLiMg6
_symmetry_space_group_name_H-M  'Amm2'
_cell_length_a       7.11257
_cell_length_b       7.11257
_cell_length_c       5.11935
_cell_angle_alpha    90
_cell_angle_beta     90
_cell_angle_gamma    125.547

_symmetry_Int_Tables_number  38
_chemical_formula_structural  SrLiMg6
_chemical_formula_sum  SrLiMg6
_cell_volume  210.7168879077384
_cell_formula_units_Z  1
loop_
  _symmetry_equiv_pos_site_id
 _symmetry_equiv_pos_as_xyz
 1  'x, y, z'
loop_
 _atom_site_type_symbol
 _atom_site_label
 _atom_site_symmetry_multiplicity
 _atom_site_fract_x
 _atom_site_fract_y
 _atom_site_fract_z
 _atom_site_fract_occupancy
 Li  Li1  1  0.13603  0.36397  0.25000  1
 Mg  Mg1  1  0.18412  0.81817  0.25000  1
 Mg  Mg2  1  0.68183  0.31588  0.25000  1
 Mg  Mg3  1  0.69351  0.80649  0.25000  1
 Mg  Mg4  1  0.32831  0.68801  0.75000  1
 Mg  Mg5  1  0.81199  0.17169  0.75000  1
 Mg  Mg6  1  0.85901  0.64099  0.75000  1
 Sr  Sr1  1  0.30521  0.19479  0.75000  1
