CIF file written using JARVIS-Tools package.
data_LiLaBi2
_symmetry_space_group_name_H-M  'P4/nmm'
_cell_length_a       4.57832
_cell_length_b       4.57832
_cell_length_c       10.8614
_cell_angle_alpha    90
_cell_angle_beta     90
_cell_angle_gamma    90

_symmetry_Int_Tables_number  129
_chemical_formula_structural  LiLaBi2
_chemical_formula_sum  Li2La2Bi4
_cell_volume  227.66585970028893
_cell_formula_units_Z  2
loop_
  _symmetry_equiv_pos_site_id
 _symmetry_equiv_pos_as_xyz
 1  'x, y, z'
loop_
 _atom_site_type_symbol
 _atom_site_label
 _atom_site_symmetry_multiplicity
 _atom_site_fract_x
 _atom_site_fract_y
 _atom_site_fract_z
 _atom_site_fract_occupancy
 Bi  Bi1  1  0.75000  0.75000  0.84191  1
 Bi  Bi2  1  0.25000  0.25000  0.15809  1
 Bi  Bi3  1  0.75000  0.25000  0.50000  1
 Bi  Bi4  1  0.25000  0.75000  0.50000  1
 La  La1  1  0.75000  0.75000  0.25620  1
 La  La2  1  0.25000  0.25000  0.74380  1
 Li  Li1  1  0.75000  0.25000  0.00000  1
 Li  Li2  1  0.25000  0.75000  0.00000  1
