CIF file written using JARVIS-Tools package.
data_SiO2
_symmetry_space_group_name_H-M  'P6_422'
_cell_length_a       6.85927
_cell_length_b       6.85928
_cell_length_c       13.5744
_cell_angle_alpha    90
_cell_angle_beta     90
_cell_angle_gamma    120

_symmetry_Int_Tables_number  181
_chemical_formula_structural  SiO2
_chemical_formula_sum  Si2O24
_cell_volume  553.1063551750804
_cell_formula_units_Z  12
loop_
  _symmetry_equiv_pos_site_id
 _symmetry_equiv_pos_as_xyz
 1  'x, y, z'
loop_
 _atom_site_type_symbol
 _atom_site_label
 _atom_site_symmetry_multiplicity
 _atom_site_fract_x
 _atom_site_fract_y
 _atom_site_fract_z
 _atom_site_fract_occupancy
 O  O1  1  0.18714  0.81286  0.16667  1
 O  O2  1  0.50000  0.00000  0.30395  1
 O  O3  1  -0.00000  0.50000  0.02938  1
 O  O4  1  0.39435  0.60565  0.66667  1
 O  O5  1  0.39435  0.78869  0.00000  1
 O  O6  1  0.18714  0.37428  0.50000  1
 O  O7  1  0.18258  0.18258  0.66667  1
 O  O8  1  0.50000  0.50000  0.36271  1
 O  O9  1  0.50000  0.00000  0.69605  1
 O  O10  1  0.62572  0.81286  0.83333  1
 O  O11  1  0.78869  0.39435  0.33333  1
 O  O12  1  0.00000  0.81742  0.33333  1
 O  O13  1  -0.00000  0.50000  0.63729  1
 O  O14  1  -0.00000  0.18258  0.33333  1
 O  O15  1  0.81286  0.62572  0.50000  1
 O  O16  1  0.50000  0.50000  0.97062  1
 O  O17  1  0.60565  0.21131  0.00000  1
 O  O18  1  0.37428  0.18714  0.83333  1
 O  O19  1  0.81286  0.18714  0.16667  1
 O  O20  1  0.21131  0.60565  0.33333  1
 O  O21  1  0.18258  0.00000  0.00000  1
 O  O22  1  0.60565  0.39435  0.66667  1
 O  O23  1  0.81742  0.81742  0.66667  1
 O  O24  1  0.81742  -0.00000  0.00000  1
 Si  Si1  1  0.22754  0.82346  0.28462  1
 Si  Si2  1  0.40408  0.22754  0.95128  1
 Si  Si3  1  0.59592  0.77246  0.95128  1
 Si  Si4  1  0.82346  0.59592  0.61795  1
 Si  Si5  1  0.17654  0.40408  0.61795  1
 Si  Si6  1  0.22754  0.40408  0.38205  1
 Si  Si7  1  0.77246  0.17654  0.28462  1
 Si  Si8  1  0.59592  0.82346  0.71538  1
 Si  Si9  1  0.77246  0.59592  0.38205  1
 Si  Si10  1  0.40408  0.17654  0.71538  1
 Si  Si11  1  0.82346  0.22754  0.04872  1
 Si  Si12  1  0.17654  0.77246  0.04872  1
