CIF file written using JARVIS-Tools package.
data_Li4SbS4
_symmetry_space_group_name_H-M  'Cmcm'
_cell_length_a       6.84917
_cell_length_b       6.84917
_cell_length_c       7.87784
_cell_angle_alpha    90
_cell_angle_beta     90
_cell_angle_gamma    100.197

_symmetry_Int_Tables_number  63
_chemical_formula_structural  Li4SbS4
_chemical_formula_sum  Li8Sb2S8
_cell_volume  363.7214320302478
_cell_formula_units_Z  2
loop_
  _symmetry_equiv_pos_site_id
 _symmetry_equiv_pos_as_xyz
 1  'x, y, z'
loop_
 _atom_site_type_symbol
 _atom_site_label
 _atom_site_symmetry_multiplicity
 _atom_site_fract_x
 _atom_site_fract_y
 _atom_site_fract_z
 _atom_site_fract_occupancy
 Li  Li1  1  0.15163  0.84837  0.50000  1
 Li  Li2  1  0.15163  0.84837  0.00000  1
 Li  Li3  1  0.11512  0.42312  0.75000  1
 Li  Li4  1  0.57688  0.88488  0.25000  1
 Li  Li5  1  0.88488  0.57688  0.25000  1
 Li  Li6  1  0.42312  0.11512  0.75000  1
 Li  Li7  1  0.84837  0.15163  0.00000  1
 Li  Li8  1  0.84837  0.15163  0.50000  1
 S  S1  1  0.21293  0.21293  0.98945  1
 S  S2  1  0.78707  0.78707  0.48945  1
 S  S3  1  0.21293  0.21293  0.51055  1
 S  S4  1  0.78707  0.78707  0.01055  1
 S  S5  1  0.70126  0.24286  0.25000  1
 S  S6  1  0.24286  0.70126  0.25000  1
 S  S7  1  0.75714  0.29874  0.75000  1
 S  S8  1  0.29874  0.75714  0.75000  1
 Sb  Sb1  1  0.63056  0.63056  0.75000  1
 Sb  Sb2  1  0.36944  0.36944  0.25000  1
