CIF file written using JARVIS-Tools package.
data_LiScGeO4
_symmetry_space_group_name_H-M  'Pnma'
_cell_length_a       5.00524
_cell_length_b       6.01577
_cell_length_c       10.7161
_cell_angle_alpha    90
_cell_angle_beta     90
_cell_angle_gamma    90

_symmetry_Int_Tables_number  62
_chemical_formula_structural  LiScGeO4
_chemical_formula_sum  Li4Sc4Ge4O6
_cell_volume  322.6669029271773
_cell_formula_units_Z  4
loop_
  _symmetry_equiv_pos_site_id
 _symmetry_equiv_pos_as_xyz
 1  'x, y, z'
loop_
 _atom_site_type_symbol
 _atom_site_label
 _atom_site_symmetry_multiplicity
 _atom_site_fract_x
 _atom_site_fract_y
 _atom_site_fract_z
 _atom_site_fract_occupancy
 Ge  Ge1  1  0.94986  0.75000  0.41124  1
 Ge  Ge2  1  0.55014  0.75000  0.91124  1
 Ge  Ge3  1  0.05014  0.25000  0.58876  1
 Ge  Ge4  1  0.44986  0.25000  0.08876  1
 Li  Li1  1  0.00000  0.00000  0.00000  1
 Li  Li2  1  0.50000  0.50000  0.50000  1
 Li  Li3  1  0.00000  0.50000  0.00000  1
 Li  Li4  1  0.50000  0.00000  0.50000  1
 O  O1  1  0.71640  0.52799  0.82742  1
 O  O2  1  0.79921  0.25000  0.09491  1
 O  O3  1  0.29921  0.75000  0.40509  1
 O  O4  1  0.70468  0.75000  0.05970  1
 O  O5  1  0.79532  0.75000  0.55970  1
 O  O6  1  0.29532  0.25000  0.94030  1
 O  O7  1  0.70079  0.25000  0.59491  1
 O  O8  1  0.20079  0.75000  0.90509  1
 O  O9  1  0.71640  0.97201  0.82742  1
 O  O10  1  0.28360  0.02799  0.17258  1
 O  O11  1  0.28360  0.47201  0.17258  1
 O  O12  1  0.78360  0.52799  0.32742  1
 O  O13  1  0.20468  0.25000  0.44030  1
 O  O14  1  0.78360  0.97201  0.32742  1
 O  O15  1  0.21640  0.02799  0.67258  1
 O  O16  1  0.21640  0.47201  0.67258  1
 Sc  Sc1  1  0.50416  0.75000  0.22897  1
 Sc  Sc2  1  0.00416  0.25000  0.27103  1
 Sc  Sc3  1  0.49584  0.25000  0.77103  1
 Sc  Sc4  1  0.99584  0.75000  0.72897  1
