CIF file written using JARVIS-Tools package.
data_NdAl4Ge2Au
_symmetry_space_group_name_H-M  'R-3m'
_cell_length_a       10.8076
_cell_length_b       10.8076
_cell_length_c       10.8076
_cell_angle_alpha    22.754
_cell_angle_beta     22.754
_cell_angle_gamma    22.7541

_symmetry_Int_Tables_number  166
_chemical_formula_structural  NdAl4Ge2Au
_chemical_formula_sum  NdAl4Ge2Au
_cell_volume  165.69422229187563
_cell_formula_units_Z  1
loop_
  _symmetry_equiv_pos_site_id
 _symmetry_equiv_pos_as_xyz
 1  'x, y, z'
loop_
 _atom_site_type_symbol
 _atom_site_label
 _atom_site_symmetry_multiplicity
 _atom_site_fract_x
 _atom_site_fract_y
 _atom_site_fract_z
 _atom_site_fract_occupancy
 Al  Al1  1  0.91727  0.91727  0.91727  1
 Al  Al2  1  0.69193  0.69193  0.69193  1
 Al  Al3  1  0.08273  0.08273  0.08273  1
 Al  Al4  1  0.30807  0.30807  0.30807  1
 Au  Au1  1  0.00000  0.00000  0.00000  1
 Ge  Ge1  1  0.77561  0.77561  0.77561  1
 Ge  Ge2  1  0.22439  0.22439  0.22439  1
 Nd  Nd1  1  0.50000  0.50000  0.50000  1
