CIF file written using JARVIS-Tools package.
data_BaCu2P4
_symmetry_space_group_name_H-M  'Fddd'
_cell_length_a       5.50968
_cell_length_b       5.85543
_cell_length_c       9.94735
_cell_angle_alpha    82.5134
_cell_angle_beta     73.9222
_cell_angle_gamma    61.9348

_symmetry_Int_Tables_number  70
_chemical_formula_structural  BaCu2P4
_chemical_formula_sum  Ba2Cu4P8
_cell_volume  272.105173705308
_cell_formula_units_Z  2
loop_
  _symmetry_equiv_pos_site_id
 _symmetry_equiv_pos_as_xyz
 1  'x, y, z'
loop_
 _atom_site_type_symbol
 _atom_site_label
 _atom_site_symmetry_multiplicity
 _atom_site_fract_x
 _atom_site_fract_y
 _atom_site_fract_z
 _atom_site_fract_occupancy
 Ba  Ba1  1  0.12500  0.75000  0.75000  1
 Ba  Ba2  1  0.87500  0.25000  0.25000  1
 Cu  Cu1  1  0.25308  0.25000  0.49384  1
 Cu  Cu2  1  0.74692  0.75000  0.50616  1
 Cu  Cu3  1  0.49692  0.25000  0.00616  1
 Cu  Cu4  1  0.50308  0.75000  0.99384  1
 P  P1  1  0.82832  0.37014  0.85854  1
 P  P2  1  0.31314  0.12986  0.85854  1
 P  P3  1  0.44299  0.87014  0.35854  1
 P  P4  1  0.55701  0.12986  0.64146  1
 P  P5  1  0.19846  0.62986  0.35854  1
 P  P6  1  0.68686  0.87014  0.14146  1
 P  P7  1  0.80154  0.37014  0.64146  1
 P  P8  1  0.17168  0.62986  0.14146  1
