CIF file written using JARVIS-Tools package.
data_BeGeTe
_symmetry_space_group_name_H-M  'I4mm'
_cell_length_a       6.13078
_cell_length_b       6.13078
_cell_length_c       6.13078
_cell_angle_alpha    148.036
_cell_angle_beta     148.036
_cell_angle_gamma    45.8316

_symmetry_Int_Tables_number  107
_chemical_formula_structural  BeGeTe
_chemical_formula_sum  BeGeTe
_cell_volume  64.36008134381494
_cell_formula_units_Z  1
loop_
  _symmetry_equiv_pos_site_id
 _symmetry_equiv_pos_as_xyz
 1  'x, y, z'
loop_
 _atom_site_type_symbol
 _atom_site_label
 _atom_site_symmetry_multiplicity
 _atom_site_fract_x
 _atom_site_fract_y
 _atom_site_fract_z
 _atom_site_fract_occupancy
 Be  Be1  1  0.99534  0.99534  0.00000  1
 Ge  Ge1  1  0.38304  0.38304  -0.00000  1
 Te  Te1  1  0.62162  0.62162  0.00000  1
