CIF file written using JARVIS-Tools package.
data_KV5Se8
_symmetry_space_group_name_H-M  'C2/m'
_cell_length_a       3.67245
_cell_length_b       8.91293
_cell_length_c       9.48123
_cell_angle_alpha    103.909
_cell_angle_beta     101.168
_cell_angle_gamma    89.9979

_symmetry_Int_Tables_number  12
_chemical_formula_structural  KV5Se8
_chemical_formula_sum  KV5Se8
_cell_volume  295.1848675947965
_cell_formula_units_Z  1
loop_
  _symmetry_equiv_pos_site_id
 _symmetry_equiv_pos_as_xyz
 1  'x, y, z'
loop_
 _atom_site_type_symbol
 _atom_site_label
 _atom_site_symmetry_multiplicity
 _atom_site_fract_x
 _atom_site_fract_y
 _atom_site_fract_z
 _atom_site_fract_occupancy
 K  K1  1  0.50000  0.50000  0.00000  1
 Se  Se1  1  0.57276  0.17169  0.14555  1
 Se  Se2  1  0.08587  0.81565  0.17170  1
 Se  Se3  1  0.16154  0.49194  0.32315  1
 Se  Se4  1  0.23934  0.15718  0.47870  1
 Se  Se5  1  0.76066  0.84282  0.52130  1
 Se  Se6  1  0.83846  0.50806  0.67685  1
 Se  Se7  1  0.91413  0.18435  0.82830  1
 Se  Se8  1  0.42724  0.82831  0.85445  1
 V  V1  1  0.00000  0.00000  0.00000  1
 V  V2  1  0.65114  0.98544  0.30227  1
 V  V3  1  0.71115  0.34863  0.42238  1
 V  V4  1  0.28885  0.65137  0.57762  1
 V  V5  1  0.34886  0.01456  0.69773  1
