CIF file written using JARVIS-Tools package.
data_PH4NO2F2
_symmetry_space_group_name_H-M  'Pnma'
_cell_length_a       7.79515
_cell_length_b       6.52115
_cell_length_c       7.83091
_cell_angle_alpha    90
_cell_angle_beta     90
_cell_angle_gamma    90

_symmetry_Int_Tables_number  62
_chemical_formula_structural  PH4NO2F2
_chemical_formula_sum  P4H6N4O8F8
_cell_volume  398.07151555629235
_cell_formula_units_Z  4
loop_
  _symmetry_equiv_pos_site_id
 _symmetry_equiv_pos_as_xyz
 1  'x, y, z'
loop_
 _atom_site_type_symbol
 _atom_site_label
 _atom_site_symmetry_multiplicity
 _atom_site_fract_x
 _atom_site_fract_y
 _atom_site_fract_z
 _atom_site_fract_occupancy
 F  F1  1  0.03158  0.75000  0.46369  1
 F  F2  1  0.46842  0.25000  0.96369  1
 F  F3  1  0.72549  0.75000  0.45753  1
 F  F4  1  0.22549  0.75000  0.04247  1
 F  F5  1  0.27451  0.25000  0.54247  1
 F  F6  1  0.77451  0.25000  0.95753  1
 F  F7  1  0.53158  0.75000  0.03631  1
 F  F8  1  0.96842  0.25000  0.53631  1
 H  H1  1  0.63952  0.25000  0.48739  1
 H  H2  1  0.13952  0.25000  0.01261  1
 H  H3  1  0.36048  0.75000  0.51261  1
 H  H4  1  0.86048  0.75000  0.98739  1
 H  H5  1  0.73000  0.25000  0.29275  1
 H  H6  1  0.77000  0.75000  0.79275  1
 H  H7  1  0.27000  0.75000  0.70725  1
 H  H8  1  0.04308  0.12019  0.17450  1
 H  H9  1  0.54308  0.12019  0.32550  1
 H  H10  1  0.04308  0.37981  0.17450  1
 H  H11  1  0.45692  0.62019  0.67450  1
 H  H12  1  0.95692  0.87981  0.82550  1
 H  H13  1  0.54308  0.37981  0.32550  1
 H  H14  1  0.95692  0.62019  0.82550  1
 H  H15  1  0.23000  0.25000  0.20725  1
 H  H16  1  0.45692  0.87981  0.67450  1
 N  N1  1  0.61539  0.25000  0.35786  1
 N  N2  1  0.11539  0.25000  0.14214  1
 N  N3  1  0.38461  0.75000  0.64214  1
 N  N4  1  0.88461  0.75000  0.85786  1
 O  O1  1  0.88122  0.94801  0.23272  1
 O  O2  1  0.61878  0.05199  0.73272  1
 O  O3  1  0.88122  0.55199  0.23272  1
 O  O4  1  0.11878  0.44801  0.76728  1
 O  O5  1  0.38122  0.94801  0.26728  1
 O  O6  1  0.61878  0.44801  0.73272  1
 O  O7  1  0.11878  0.05199  0.76728  1
 O  O8  1  0.38122  0.55199  0.26728  1
 P  P1  1  0.88125  0.75000  0.32682  1
 P  P2  1  0.38125  0.75000  0.17318  1
 P  P3  1  0.11875  0.25000  0.67318  1
 P  P4  1  0.61875  0.25000  0.82682  1
