CIF file written using JARVIS-Tools package.
data_Li2FeP2O7
_symmetry_space_group_name_H-M  'Imma'
_cell_length_a       7.09576
_cell_length_b       8.07028
_cell_length_c       8.07028
_cell_angle_alpha    72.0235
_cell_angle_beta     116.08
_cell_angle_gamma    63.9202

_symmetry_Int_Tables_number  74
_chemical_formula_structural  Li2FeP2O7
_chemical_formula_sum  Li4Fe2P4O4
_cell_volume  291.8885938360183
_cell_formula_units_Z  2
loop_
  _symmetry_equiv_pos_site_id
 _symmetry_equiv_pos_as_xyz
 1  'x, y, z'
loop_
 _atom_site_type_symbol
 _atom_site_label
 _atom_site_symmetry_multiplicity
 _atom_site_fract_x
 _atom_site_fract_y
 _atom_site_fract_z
 _atom_site_fract_occupancy
 Fe  Fe1  1  0.00000  0.00000  0.00000  1
 Fe  Fe2  1  0.50000  0.50000  0.50000  1
 Li  Li1  1  0.00000  0.22549  0.22549  1
 Li  Li2  1  0.50000  0.27451  0.27451  1
 Li  Li3  1  -0.00000  0.77451  0.77451  1
 Li  Li4  1  0.50000  0.72549  0.72549  1
 O  O1  1  0.23684  0.06222  0.16120  1
 O  O2  1  0.23684  0.83880  0.93778  1
 O  O3  1  0.28834  0.05706  0.55706  1
 O  O4  1  0.71166  0.55706  0.05706  1
 O  O5  1  0.63786  0.43778  0.33880  1
 O  O6  1  0.76316  0.16120  0.06222  1
 O  O7  1  0.67009  0.75000  0.25000  1
 O  O8  1  0.32991  0.25000  0.75000  1
 O  O9  1  0.28834  0.44294  0.94294  1
 O  O10  1  0.63786  0.66120  0.56222  1
 O  O11  1  0.36214  0.33880  0.43778  1
 O  O12  1  0.71166  0.94294  0.44294  1
 O  O13  1  0.36214  0.56222  0.66120  1
 O  O14  1  0.76316  0.93778  0.83880  1
 P  P1  1  0.43598  0.36026  0.86026  1
 P  P2  1  0.56402  0.86026  0.36026  1
 P  P3  1  0.43598  0.13974  0.63974  1
 P  P4  1  0.56402  0.63974  0.13974  1
