CIF file written using JARVIS-Tools package.
data_Mn6O7F5
_symmetry_space_group_name_H-M  'P1'
_cell_length_a       4.51111
_cell_length_b       5.53758
_cell_length_c       7.6231
_cell_angle_alpha    85.8396
_cell_angle_beta     89.0376
_cell_angle_gamma    89.4363

_symmetry_Int_Tables_number  1
_chemical_formula_structural  Mn6O7F5
_chemical_formula_sum  Mn6O7F5
_cell_volume  189.89400016123457
_cell_formula_units_Z  1
loop_
  _symmetry_equiv_pos_site_id
 _symmetry_equiv_pos_as_xyz
 1  'x, y, z'
loop_
 _atom_site_type_symbol
 _atom_site_label
 _atom_site_symmetry_multiplicity
 _atom_site_fract_x
 _atom_site_fract_y
 _atom_site_fract_z
 _atom_site_fract_occupancy
 F  F1  1  0.22993  0.95744  0.23501  1
 F  F2  1  0.72054  0.19564  0.12738  1
 F  F3  1  0.76908  0.03692  0.78090  1
 F  F4  1  0.20591  0.63516  0.54431  1
 F  F5  1  0.27172  0.80283  0.86978  1
 Mn  Mn1  1  0.49561  0.49863  0.99856  1
 Mn  Mn2  1  0.97365  0.64678  0.31578  1
 Mn  Mn3  1  0.00082  0.33749  0.67544  1
 Mn  Mn4  1  0.50565  0.18286  0.35722  1
 Mn  Mn5  1  0.51474  0.82655  0.64871  1
 Mn  Mn6  1  0.00805  0.00325  0.00422  1
 O  O1  1  0.19570  0.28872  0.90300  1
 O  O2  1  0.30380  0.45312  0.22896  1
 O  O3  1  0.68866  0.54480  0.76893  1
 O  O4  1  0.80115  0.71128  0.09490  1
 O  O5  1  0.79827  0.37529  0.44581  1
 O  O6  1  0.71491  0.87908  0.43359  1
 O  O7  1  0.30180  0.12418  0.56750  1
