CIF file written using JARVIS-Tools package.
data_Li2Mn3CoO8
_symmetry_space_group_name_H-M  'R-3m'
_cell_length_a       5.73828
_cell_length_b       5.73828
_cell_length_c       5.73828
_cell_angle_alpha    59.8234
_cell_angle_beta     59.8234
_cell_angle_gamma    59.8234

_symmetry_Int_Tables_number  166
_chemical_formula_structural  Li2Mn3CoO8
_chemical_formula_sum  Li2Mn3CoO8
_cell_volume  133.07185577227014
_cell_formula_units_Z  1
loop_
  _symmetry_equiv_pos_site_id
 _symmetry_equiv_pos_as_xyz
 1  'x, y, z'
loop_
 _atom_site_type_symbol
 _atom_site_label
 _atom_site_symmetry_multiplicity
 _atom_site_fract_x
 _atom_site_fract_y
 _atom_site_fract_z
 _atom_site_fract_occupancy
 Co  Co1  1  0.50000  0.50000  0.50000  1
 Li  Li1  1  0.12477  0.12477  0.12477  1
 Li  Li2  1  0.87523  0.87523  0.87523  1
 Mn  Mn1  1  0.50000  0.00000  0.50000  1
 Mn  Mn2  1  0.50000  0.50000  0.00000  1
 Mn  Mn3  1  -0.00000  0.50000  0.50000  1
 O  O1  1  0.26166  0.26166  0.26166  1
 O  O2  1  0.71087  0.26224  0.26224  1
 O  O3  1  0.26224  0.71087  0.26224  1
 O  O4  1  0.26224  0.26224  0.71087  1
 O  O5  1  0.73776  0.73776  0.28913  1
 O  O6  1  0.73776  0.28913  0.73776  1
 O  O7  1  0.28913  0.73776  0.73776  1
 O  O8  1  0.73834  0.73834  0.73834  1
