CIF file written using JARVIS-Tools package.
data_BaNi9P5
_symmetry_space_group_name_H-M  'P6_3/mmc'
_cell_length_a       6.55614
_cell_length_b       6.55614
_cell_length_c       10.9452
_cell_angle_alpha    90
_cell_angle_beta     90
_cell_angle_gamma    120

_symmetry_Int_Tables_number  194
_chemical_formula_structural  BaNi9P5
_chemical_formula_sum  Ba2Ni8P0
_cell_volume  407.42968371618264
_cell_formula_units_Z  2
loop_
  _symmetry_equiv_pos_site_id
 _symmetry_equiv_pos_as_xyz
 1  'x, y, z'
loop_
 _atom_site_type_symbol
 _atom_site_label
 _atom_site_symmetry_multiplicity
 _atom_site_fract_x
 _atom_site_fract_y
 _atom_site_fract_z
 _atom_site_fract_occupancy
 Ba  Ba1  1  0.00000  0.00000  0.00000  1
 Ba  Ba2  1  0.00000  0.00000  0.50000  1
 Ni  Ni1  1  0.07107  0.53554  0.60728  1
 Ni  Ni2  1  0.46446  0.92893  0.89272  1
 Ni  Ni3  1  0.92893  0.46446  0.10728  1
 Ni  Ni4  1  0.53554  0.07107  0.10728  1
 Ni  Ni5  1  0.20270  0.40539  0.25000  1
 Ni  Ni6  1  0.40539  0.20270  0.75000  1
 Ni  Ni7  1  0.59461  0.79730  0.25000  1
 Ni  Ni8  1  0.20270  0.79730  0.25000  1
 Ni  Ni9  1  0.79730  0.20270  0.75000  1
 Ni  Ni10  1  0.46446  0.92893  0.60728  1
 Ni  Ni11  1  0.53554  0.46446  0.39272  1
 Ni  Ni12  1  0.92893  0.46446  0.39272  1
 Ni  Ni13  1  0.07107  0.53554  0.89272  1
 Ni  Ni14  1  0.46446  0.53554  0.89272  1
 Ni  Ni15  1  0.53554  0.07107  0.39272  1
 Ni  Ni16  1  0.53554  0.46446  0.10728  1
 Ni  Ni17  1  0.46446  0.53554  0.60728  1
 Ni  Ni18  1  0.79730  0.59461  0.75000  1
 P  P1  1  0.17515  0.82485  0.75000  1
 P  P2  1  0.82485  0.64971  0.25000  1
 P  P3  1  0.33333  0.66667  0.43905  1
 P  P4  1  0.66667  0.33333  0.93905  1
 P  P5  1  0.64971  0.82485  0.75000  1
 P  P6  1  0.33333  0.66667  0.06095  1
 P  P7  1  0.35029  0.17515  0.25000  1
 P  P8  1  0.82485  0.17515  0.25000  1
 P  P9  1  0.66667  0.33333  0.56095  1
 P  P10  1  0.17515  0.35029  0.75000  1
