CIF file written using JARVIS-Tools package.
data_BeCo2O4
_symmetry_space_group_name_H-M  'Pnma'
_cell_length_a       2.89062
_cell_length_b       8.98643
_cell_length_c       9.26989
_cell_angle_alpha    90
_cell_angle_beta     90
_cell_angle_gamma    90

_symmetry_Int_Tables_number  62
_chemical_formula_structural  BeCo2O4
_chemical_formula_sum  Be4Co8O6
_cell_volume  240.79815292977204
_cell_formula_units_Z  4
loop_
  _symmetry_equiv_pos_site_id
 _symmetry_equiv_pos_as_xyz
 1  'x, y, z'
loop_
 _atom_site_type_symbol
 _atom_site_label
 _atom_site_symmetry_multiplicity
 _atom_site_fract_x
 _atom_site_fract_y
 _atom_site_fract_z
 _atom_site_fract_occupancy
 Be  Be1  1  0.75000  0.14489  0.60684  1
 Be  Be2  1  0.25000  0.35511  0.10684  1
 Be  Be3  1  0.75000  0.64489  0.89316  1
 Be  Be4  1  0.25000  0.85511  0.39316  1
 Co  Co1  1  0.25000  0.37059  0.79515  1
 Co  Co2  1  0.75000  0.12941  0.29515  1
 Co  Co3  1  0.25000  0.38189  0.42809  1
 Co  Co4  1  0.75000  0.11811  0.92809  1
 Co  Co5  1  0.75000  0.62941  0.20485  1
 Co  Co6  1  0.25000  0.88189  0.07191  1
 Co  Co7  1  0.25000  0.87059  0.70485  1
 Co  Co8  1  0.75000  0.61811  0.57191  1
 O  O1  1  0.75000  0.23405  0.74886  1
 O  O2  1  0.75000  0.01736  0.11459  1
 O  O3  1  0.25000  0.02329  0.37456  1
 O  O4  1  0.25000  0.26595  0.24886  1
 O  O5  1  0.75000  0.24601  0.46988  1
 O  O6  1  0.25000  0.25399  0.96988  1
 O  O7  1  0.75000  0.97671  0.62544  1
 O  O8  1  0.75000  0.73405  0.75114  1
 O  O9  1  0.75000  0.47671  0.87456  1
 O  O10  1  0.25000  0.76595  0.25114  1
 O  O11  1  0.75000  0.74601  0.03012  1
 O  O12  1  0.25000  0.75399  0.53012  1
 O  O13  1  0.25000  0.52329  0.12544  1
 O  O14  1  0.75000  0.51736  0.38541  1
 O  O15  1  0.25000  0.48264  0.61459  1
 O  O16  1  0.25000  0.98264  0.88541  1
