CIF file written using JARVIS-Tools package.
data_ReC
_symmetry_space_group_name_H-M  'P6_3/mmc'
_cell_length_a       2.9014
_cell_length_b       2.9014
_cell_length_c       11.3524
_cell_angle_alpha    90
_cell_angle_beta     90
_cell_angle_gamma    120

_symmetry_Int_Tables_number  194
_chemical_formula_structural  ReC
_chemical_formula_sum  Re4C4
_cell_volume  82.76171486025584
_cell_formula_units_Z  4
loop_
  _symmetry_equiv_pos_site_id
 _symmetry_equiv_pos_as_xyz
 1  'x, y, z'
loop_
 _atom_site_type_symbol
 _atom_site_label
 _atom_site_symmetry_multiplicity
 _atom_site_fract_x
 _atom_site_fract_y
 _atom_site_fract_z
 _atom_site_fract_occupancy
 C  C1  1  0.00000  0.00000  0.50000  1
 C  C2  1  0.00000  0.00000  0.00000  1
 C  C3  1  0.66660  0.33340  0.75000  1
 C  C4  1  0.33340  0.66660  0.25000  1
 Re  Re1  1  0.66683  0.33317  0.12661  1
 Re  Re2  1  0.33317  0.66683  0.87339  1
 Re  Re3  1  0.33317  0.66683  0.62661  1
 Re  Re4  1  0.66683  0.33317  0.37339  1
