CIF file written using JARVIS-Tools package.
data_LiBeCo
_symmetry_space_group_name_H-M  'I4mm'
_cell_length_a       4.75506
_cell_length_b       4.75506
_cell_length_c       4.75506
_cell_angle_alpha    146.779
_cell_angle_beta     146.779
_cell_angle_gamma    47.6915

_symmetry_Int_Tables_number  107
_chemical_formula_structural  LiBeCo
_chemical_formula_sum  LiBeCo
_cell_volume  32.14421771086509
_cell_formula_units_Z  1
loop_
  _symmetry_equiv_pos_site_id
 _symmetry_equiv_pos_as_xyz
 1  'x, y, z'
loop_
 _atom_site_type_symbol
 _atom_site_label
 _atom_site_symmetry_multiplicity
 _atom_site_fract_x
 _atom_site_fract_y
 _atom_site_fract_z
 _atom_site_fract_occupancy
 Be  Be1  1  0.96801  0.96801  0.00000  1
 Co  Co1  1  0.36449  0.36449  0.00000  1
 Li  Li1  1  0.66750  0.66750  -0.00000  1
