CIF file written using JARVIS-Tools package.
data_KCoAu3C6N6
_symmetry_space_group_name_H-M  'P312'
_cell_length_a       6.71701
_cell_length_b       6.71701
_cell_length_c       7.59759
_cell_angle_alpha    90
_cell_angle_beta     90
_cell_angle_gamma    120

_symmetry_Int_Tables_number  149
_chemical_formula_structural  KCoAu3C6N6
_chemical_formula_sum  KCoAu3C6N6
_cell_volume  296.86448098428343
_cell_formula_units_Z  1
loop_
  _symmetry_equiv_pos_site_id
 _symmetry_equiv_pos_as_xyz
 1  'x, y, z'
loop_
 _atom_site_type_symbol
 _atom_site_label
 _atom_site_symmetry_multiplicity
 _atom_site_fract_x
 _atom_site_fract_y
 _atom_site_fract_z
 _atom_site_fract_occupancy
 Au  Au1  1  0.50371  0.00743  0.00000  1
 Au  Au2  1  0.99257  0.49629  0.00000  1
 Au  Au3  1  0.50371  0.49629  0.00000  1
 C  C1  1  0.34007  0.00757  0.78262  1
 C  C2  1  0.66749  0.65993  0.78262  1
 C  C3  1  0.99243  0.33251  0.78262  1
 C  C4  1  0.34007  0.33251  0.21738  1
 C  C5  1  0.99243  0.65993  0.21738  1
 C  C6  1  0.66749  0.00757  0.21738  1
 Co  Co1  1  0.00000  0.00000  0.50000  1
 K  K1  1  0.33333  0.66667  0.50000  1
 N  N1  1  0.23570  0.00341  0.65799  1
 N  N2  1  0.99659  0.76430  0.34201  1
 N  N3  1  0.76770  0.00341  0.34201  1
 N  N4  1  0.23570  0.23230  0.34201  1
 N  N5  1  0.76770  0.76430  0.65799  1
 N  N6  1  0.99659  0.23230  0.65799  1
