CIF file written using JARVIS-Tools package.
data_ErAgS2
_symmetry_space_group_name_H-M  'I4_1md'
_cell_length_a       5.37829
_cell_length_b       5.37829
_cell_length_c       7.06631
_cell_angle_alpha    112.368
_cell_angle_beta     112.368
_cell_angle_gamma    90

_symmetry_Int_Tables_number  109
_chemical_formula_structural  ErAgS2
_chemical_formula_sum  Er2Ag2S4
_cell_volume  172.27309743044765
_cell_formula_units_Z  2
loop_
  _symmetry_equiv_pos_site_id
 _symmetry_equiv_pos_as_xyz
 1  'x, y, z'
loop_
 _atom_site_type_symbol
 _atom_site_label
 _atom_site_symmetry_multiplicity
 _atom_site_fract_x
 _atom_site_fract_y
 _atom_site_fract_z
 _atom_site_fract_occupancy
 Ag  Ag1  1  0.71496  0.21496  0.42991  1
 Ag  Ag2  1  0.46496  0.46496  0.92991  1
 Er  Er1  1  0.25315  0.75315  0.50631  1
 Er  Er2  1  0.00315  0.00315  0.00631  1
 S  S1  1  0.48336  0.98336  0.96671  1
 S  S2  1  0.23336  0.23336  0.46671  1
 S  S3  1  0.02714  0.52714  0.05429  1
 S  S4  1  0.77714  0.77714  0.55429  1
