CIF file written using JARVIS-Tools package.
data_RbMo3S3
_symmetry_space_group_name_H-M  'P6_3/m'
_cell_length_a       8.99081
_cell_length_b       8.99081
_cell_length_c       4.44661
_cell_angle_alpha    90
_cell_angle_beta     90
_cell_angle_gamma    120

_symmetry_Int_Tables_number  176
_chemical_formula_structural  RbMo3S3
_chemical_formula_sum  Rb2Mo6S6
_cell_volume  311.2845691129946
_cell_formula_units_Z  2
loop_
  _symmetry_equiv_pos_site_id
 _symmetry_equiv_pos_as_xyz
 1  'x, y, z'
loop_
 _atom_site_type_symbol
 _atom_site_label
 _atom_site_symmetry_multiplicity
 _atom_site_fract_x
 _atom_site_fract_y
 _atom_site_fract_z
 _atom_site_fract_occupancy
 Mo  Mo1  1  0.97073  0.81649  0.25000  1
 Mo  Mo2  1  0.84576  0.02927  0.25000  1
 Mo  Mo3  1  0.15424  0.97073  0.75000  1
 Mo  Mo4  1  0.02927  0.18351  0.75000  1
 Mo  Mo5  1  0.18351  0.15424  0.25000  1
 Mo  Mo6  1  0.81649  0.84576  0.75000  1
 Rb  Rb1  1  0.33333  0.66667  0.75000  1
 Rb  Rb2  1  0.66667  0.33333  0.25000  1
 S  S1  1  0.94238  0.65296  0.75000  1
 S  S2  1  0.05762  0.34704  0.25000  1
 S  S3  1  0.28941  0.94238  0.25000  1
 S  S4  1  0.65296  0.71059  0.25000  1
 S  S5  1  0.34704  0.28941  0.75000  1
 S  S6  1  0.71059  0.05762  0.75000  1
