CIF file written using JARVIS-Tools package.
data_UCo2P2
_symmetry_space_group_name_H-M  'P4mm'
_cell_length_a       3.97106
_cell_length_b       3.97096
_cell_length_c       8.90561
_cell_angle_alpha    90.0006
_cell_angle_beta     89.9999
_cell_angle_gamma    89.9994

_symmetry_Int_Tables_number  99
_chemical_formula_structural  UCo2P2
_chemical_formula_sum  U2Co4P4
_cell_volume  140.4321254472561
_cell_formula_units_Z  2
loop_
  _symmetry_equiv_pos_site_id
 _symmetry_equiv_pos_as_xyz
 1  'x, y, z'
loop_
 _atom_site_type_symbol
 _atom_site_label
 _atom_site_symmetry_multiplicity
 _atom_site_fract_x
 _atom_site_fract_y
 _atom_site_fract_z
 _atom_site_fract_occupancy
 Co  Co1  1  0.25000  0.25000  0.11240  1
 Co  Co2  1  0.75000  0.75000  0.88718  1
 Co  Co3  1  0.25000  0.75000  0.50162  1
 Co  Co4  1  0.75000  0.25000  0.50162  1
 P  P1  1  0.25000  0.25000  0.36500  1
 P  P2  1  0.75000  0.25000  0.99919  1
 P  P3  1  0.75000  0.75000  0.63464  1
 P  P4  1  0.25000  0.75000  0.99919  1
 U  U1  1  0.75000  0.75000  0.24878  1
 U  U2  1  0.25000  0.25000  0.75038  1
