CIF file written using JARVIS-Tools package.
data_Mg6CoMo
_symmetry_space_group_name_H-M  'Amm2'
_cell_length_a       6.19936
_cell_length_b       6.19937
_cell_length_c       4.63807
_cell_angle_alpha    90
_cell_angle_beta     90
_cell_angle_gamma    123.891

_symmetry_Int_Tables_number  38
_chemical_formula_structural  Mg6CoMo
_chemical_formula_sum  Mg6CoMo
_cell_volume  147.9650488322573
_cell_formula_units_Z  1
loop_
  _symmetry_equiv_pos_site_id
 _symmetry_equiv_pos_as_xyz
 1  'x, y, z'
loop_
 _atom_site_type_symbol
 _atom_site_label
 _atom_site_symmetry_multiplicity
 _atom_site_fract_x
 _atom_site_fract_y
 _atom_site_fract_z
 _atom_site_fract_occupancy
 Co  Co1  1  0.20264  0.29736  0.25000  1
 Mg  Mg1  1  0.17904  0.84560  0.25000  1
 Mg  Mg2  1  0.65440  0.32096  0.25000  1
 Mg  Mg3  1  0.67429  0.82571  0.25000  1
 Mg  Mg4  1  0.32085  0.66539  0.75000  1
 Mg  Mg5  1  0.83461  0.17915  0.75000  1
 Mg  Mg6  1  0.82942  0.67058  0.75000  1
 Mo  Mo1  1  0.30474  0.19526  0.75000  1
