CIF file written using JARVIS-Tools package.
data_K2UO4
_symmetry_space_group_name_H-M  'I4/mmm'
_cell_length_a       4.33719
_cell_length_b       4.3372
_cell_length_c       7.33681
_cell_angle_alpha    107.192
_cell_angle_beta     107.192
_cell_angle_gamma    90

_symmetry_Int_Tables_number  139
_chemical_formula_structural  K2UO4
_chemical_formula_sum  K2UO4
_cell_volume  125.37840611223697
_cell_formula_units_Z  1
loop_
  _symmetry_equiv_pos_site_id
 _symmetry_equiv_pos_as_xyz
 1  'x, y, z'
loop_
 _atom_site_type_symbol
 _atom_site_label
 _atom_site_symmetry_multiplicity
 _atom_site_fract_x
 _atom_site_fract_y
 _atom_site_fract_z
 _atom_site_fract_occupancy
 K  K1  1  0.34711  0.34711  0.69421  1
 K  K2  1  0.65289  0.65289  0.30579  1
 O  O1  1  0.50000  -0.00000  -0.00000  1
 O  O2  1  0.00000  0.50000  0.00000  1
 O  O3  1  0.85285  0.85285  0.70570  1
 O  O4  1  0.14715  0.14715  0.29430  1
 U  U1  1  0.00000  0.00000  0.00000  1
