CIF file written using JARVIS-Tools package.
data_HgCSO3F3
_symmetry_space_group_name_H-M  'P-1'
_cell_length_a       5.10614
_cell_length_b       5.24789
_cell_length_c       9.89197
_cell_angle_alpha    92.3773
_cell_angle_beta     97.7644
_cell_angle_gamma    94.0641

_symmetry_Int_Tables_number  2
_chemical_formula_structural  HgCSO3F3
_chemical_formula_sum  Hg2C2S2O6F6
_cell_volume  261.6288168608076
_cell_formula_units_Z  2
loop_
  _symmetry_equiv_pos_site_id
 _symmetry_equiv_pos_as_xyz
 1  'x, y, z'
loop_
 _atom_site_type_symbol
 _atom_site_label
 _atom_site_symmetry_multiplicity
 _atom_site_fract_x
 _atom_site_fract_y
 _atom_site_fract_z
 _atom_site_fract_occupancy
 C  C1  1  0.33544  0.23877  0.12690  1
 C  C2  1  0.66456  0.76123  0.87310  1
 F  F1  1  0.42071  0.83279  0.88773  1
 F  F2  1  0.83072  -0.02868  0.86719  1
 F  F3  1  0.24343  0.37096  0.01943  1
 F  F4  1  0.57929  0.16721  0.11227  1
 F  F5  1  0.16928  0.02868  0.13281  1
 F  F6  1  0.75657  0.62904  0.98057  1
 Hg  Hg1  1  0.16809  0.13311  0.58722  1
 Hg  Hg2  1  0.83191  0.86689  0.41278  1
 O  O1  1  0.51561  0.66903  0.26231  1
 O  O2  1  0.48439  0.33097  0.73769  1
 O  O3  1  0.49224  0.28016  0.39233  1
 O  O4  1  0.08320  0.47641  0.30475  1
 O  O5  1  0.91680  0.52359  0.69525  1
 O  O6  1  0.50776  0.71984  0.60767  1
 S  S1  1  0.64467  0.56571  0.70977  1
 S  S2  1  0.35533  0.43429  0.29023  1
