CIF file written using JARVIS-Tools package.
data_Mg6MoW
_symmetry_space_group_name_H-M  'Amm2'
_cell_length_a       6.12237
_cell_length_b       5.66406
_cell_length_c       4.89966
_cell_angle_alpha    90
_cell_angle_beta     90
_cell_angle_gamma    117.553

_symmetry_Int_Tables_number  38
_chemical_formula_structural  Mg6MoW
_chemical_formula_sum  Mg6MoW
_cell_volume  150.6372776445846
_cell_formula_units_Z  1
loop_
  _symmetry_equiv_pos_site_id
 _symmetry_equiv_pos_as_xyz
 1  'x, y, z'
loop_
 _atom_site_type_symbol
 _atom_site_label
 _atom_site_symmetry_multiplicity
 _atom_site_fract_x
 _atom_site_fract_y
 _atom_site_fract_z
 _atom_site_fract_occupancy
 Mg  Mg1  1  0.65084  0.32548  0.25000  1
 Mg  Mg2  1  0.65084  0.82536  0.25000  1
 Mg  Mg3  1  0.32976  0.16453  0.75000  1
 Mg  Mg4  1  0.32976  0.66523  0.75000  1
 Mg  Mg5  1  0.86788  0.18394  0.75000  1
 Mg  Mg6  1  0.86817  0.68409  0.75000  1
 Mo  Mo1  1  0.15030  0.32515  0.25000  1
 W  W1  1  0.15244  0.82622  0.25000  1
