data_image0
_chemical_formula_structural       Cl6Cs2Th
_chemical_formula_sum              "Cl6 Cs2 Th1"
_cell_length_a       7.67324
_cell_length_b       7.67299
_cell_length_c       6.06735
_cell_angle_alpha    90
_cell_angle_beta     89.9993
_cell_angle_gamma    119.999

_space_group_name_H-M_alt    "P 1"
_space_group_IT_number       1

loop_
  _space_group_symop_operation_xyz
  'x, y, z'

loop_
  _atom_site_type_symbol
  _atom_site_label
  _atom_site_symmetry_multiplicity
  _atom_site_fract_x
  _atom_site_fract_y
  _atom_site_fract_z
  _atom_site_occupancy
  Cl  Cl1       1.0  0.16900  0.83100  0.24300  1.0000
  Cl  Cl2       1.0  0.16900  0.33800  0.24300  1.0000
  Cl  Cl3       1.0  0.66200  0.83100  0.24300  1.0000
  Cl  Cl4       1.0  0.33800  0.16900  0.75700  1.0000
  Cl  Cl5       1.0  0.83100  0.66200  0.75700  1.0000
  Cl  Cl6       1.0  0.83100  0.16900  0.75700  1.0000
  Cs  Cs1       1.0  0.66700  0.33300  0.25300  1.0000
  Cs  Cs2       1.0  0.33300  0.66700  0.74700  1.0000
  Th  Th1       1.0  0.00000  0.00000  0.00000  1.0000
