CIF file written using JARVIS-Tools package.
data_CaPt2O4
_symmetry_space_group_name_H-M  'P4_2/mmc'
_cell_length_a       5.72625
_cell_length_b       5.72551
_cell_length_c       5.72551
_cell_angle_alpha    90
_cell_angle_beta     90
_cell_angle_gamma    90

_symmetry_Int_Tables_number  131
_chemical_formula_structural  CaPt2O4
_chemical_formula_sum  Ca2Pt4O8
_cell_volume  187.7151296199861
_cell_formula_units_Z  2
loop_
  _symmetry_equiv_pos_site_id
 _symmetry_equiv_pos_as_xyz
 1  'x, y, z'
loop_
 _atom_site_type_symbol
 _atom_site_label
 _atom_site_symmetry_multiplicity
 _atom_site_fract_x
 _atom_site_fract_y
 _atom_site_fract_z
 _atom_site_fract_occupancy
 Ca  Ca1  1  0.00000  0.00000  0.50000  1
 Ca  Ca2  1  0.50000  0.50000  0.00000  1
 O  O1  1  0.25000  0.24423  0.24423  1
 O  O2  1  0.75000  0.24423  0.24423  1
 O  O3  1  0.25000  0.75577  0.24423  1
 O  O4  1  0.75000  0.75577  0.24423  1
 O  O5  1  0.25000  0.75577  0.75577  1
 O  O6  1  0.75000  0.24423  0.75577  1
 O  O7  1  0.75000  0.75577  0.75577  1
 O  O8  1  0.25000  0.24423  0.75577  1
 Pt  Pt1  1  0.00000  0.75710  0.00000  1
 Pt  Pt2  1  0.00000  0.24290  0.00000  1
 Pt  Pt3  1  0.50000  0.00000  0.24290  1
 Pt  Pt4  1  0.50000  0.00000  0.75710  1
