CIF file written using JARVIS-Tools package.
data_ErTe3
_symmetry_space_group_name_H-M  'Cmcm'
_cell_length_a       4.33479
_cell_length_b       4.33642
_cell_length_c       13.0162
_cell_angle_alpha    90
_cell_angle_beta     99.5853
_cell_angle_gamma    90

_symmetry_Int_Tables_number  63
_chemical_formula_structural  ErTe3
_chemical_formula_sum  Er2Te6
_cell_volume  241.25512568319087
_cell_formula_units_Z  2
loop_
  _symmetry_equiv_pos_site_id
 _symmetry_equiv_pos_as_xyz
 1  'x, y, z'
loop_
 _atom_site_type_symbol
 _atom_site_label
 _atom_site_symmetry_multiplicity
 _atom_site_fract_x
 _atom_site_fract_y
 _atom_site_fract_z
 _atom_site_fract_occupancy
 Er  Er1  1  0.17078  0.75000  0.34155  1
 Er  Er2  1  0.82922  0.25000  0.65845  1
 Te  Te1  1  0.92614  0.75000  0.85227  1
 Te  Te2  1  0.07386  0.25000  0.14773  1
 Te  Te3  1  0.57390  0.75000  0.14780  1
 Te  Te4  1  0.42610  0.25000  0.85220  1
 Te  Te5  1  0.29380  0.75000  0.58760  1
 Te  Te6  1  0.70620  0.25000  0.41240  1
