CIF file written using JARVIS-Tools package.
data_NaBeGe
_symmetry_space_group_name_H-M  'I4mm'
_cell_length_a       5.71371
_cell_length_b       5.71371
_cell_length_c       5.71371
_cell_angle_alpha    146.256
_cell_angle_beta     146.256
_cell_angle_gamma    48.4659

_symmetry_Int_Tables_number  107
_chemical_formula_structural  NaBeGe
_chemical_formula_sum  NaBeGe
_cell_volume  57.31082416310231
_cell_formula_units_Z  1
loop_
  _symmetry_equiv_pos_site_id
 _symmetry_equiv_pos_as_xyz
 1  'x, y, z'
loop_
 _atom_site_type_symbol
 _atom_site_label
 _atom_site_symmetry_multiplicity
 _atom_site_fract_x
 _atom_site_fract_y
 _atom_site_fract_z
 _atom_site_fract_occupancy
 Be  Be1  1  0.94566  0.94566  0.00000  1
 Ge  Ge1  1  0.38487  0.38487  0.00000  1
 Na  Na1  1  0.66947  0.66947  0.00000  1
