CIF file written using JARVIS-Tools package.
data_NaNi2O3
_symmetry_space_group_name_H-M  'C2/m'
_cell_length_a       5.25281
_cell_length_b       5.16081
_cell_length_c       5.16081
_cell_angle_alpha    116.707
_cell_angle_beta     78.8495
_cell_angle_gamma    78.8495

_symmetry_Int_Tables_number  12
_chemical_formula_structural  NaNi2O3
_chemical_formula_sum  Na2Ni4O6
_cell_volume  116.17851876141921
_cell_formula_units_Z  2
loop_
  _symmetry_equiv_pos_site_id
 _symmetry_equiv_pos_as_xyz
 1  'x, y, z'
loop_
 _atom_site_type_symbol
 _atom_site_label
 _atom_site_symmetry_multiplicity
 _atom_site_fract_x
 _atom_site_fract_y
 _atom_site_fract_z
 _atom_site_fract_occupancy
 Na  Na1  1  0.50000  0.16840  0.83160  1
 Na  Na2  1  0.50000  0.83160  0.16840  1
 Ni  Ni1  1  0.00000  0.00000  0.00000  1
 Ni  Ni2  1  -0.00000  0.66501  0.33499  1
 Ni  Ni3  1  0.00000  0.33499  0.66501  1
 Ni  Ni4  1  0.50000  0.50000  0.50000  1
 O  O1  1  0.25803  0.31626  0.31626  1
 O  O2  1  0.19748  0.61045  0.91494  1
 O  O3  1  0.19748  0.91494  0.61045  1
 O  O4  1  0.80252  0.38955  0.08506  1
 O  O5  1  0.80252  0.08506  0.38955  1
 O  O6  1  0.74197  0.68374  0.68374  1
