CIF file written using JARVIS-Tools package.
data_Li2V3CrO8
_symmetry_space_group_name_H-M  'R-3m'
_cell_length_a       5.8862
_cell_length_b       5.88621
_cell_length_c       5.88621
_cell_angle_alpha    58.9892
_cell_angle_beta     58.9892
_cell_angle_gamma    58.9892

_symmetry_Int_Tables_number  166
_chemical_formula_structural  Li2V3CrO8
_chemical_formula_sum  Li2V3CrO8
_cell_volume  140.88309252339047
_cell_formula_units_Z  1
loop_
  _symmetry_equiv_pos_site_id
 _symmetry_equiv_pos_as_xyz
 1  'x, y, z'
loop_
 _atom_site_type_symbol
 _atom_site_label
 _atom_site_symmetry_multiplicity
 _atom_site_fract_x
 _atom_site_fract_y
 _atom_site_fract_z
 _atom_site_fract_occupancy
 Cr  Cr1  1  0.50000  0.50000  0.50000  1
 Li  Li1  1  0.12562  0.12562  0.12562  1
 Li  Li2  1  0.87438  0.87438  0.87438  1
 O  O1  1  0.26037  0.26037  0.26037  1
 O  O2  1  0.26012  0.26012  0.71651  1
 O  O3  1  0.26012  0.71651  0.26012  1
 O  O4  1  0.71651  0.26012  0.26012  1
 O  O5  1  0.28349  0.73988  0.73988  1
 O  O6  1  0.73988  0.28349  0.73988  1
 O  O7  1  0.73988  0.73988  0.28349  1
 O  O8  1  0.73963  0.73963  0.73963  1
 V  V1  1  -0.00000  0.50000  0.50000  1
 V  V2  1  0.50000  0.00000  0.50000  1
 V  V3  1  0.50000  0.50000  -0.00000  1
