CIF file written using JARVIS-Tools package.
data_NdCoSi2
_symmetry_space_group_name_H-M  'Cmcm'
_cell_length_a       4.08393
_cell_length_b       4.17875
_cell_length_c       8.46287
_cell_angle_alpha    104.293
_cell_angle_beta     90
_cell_angle_gamma    90

_symmetry_Int_Tables_number  63
_chemical_formula_structural  NdCoSi2
_chemical_formula_sum  Nd2Co2Si4
_cell_volume  139.95396451931308
_cell_formula_units_Z  2
loop_
  _symmetry_equiv_pos_site_id
 _symmetry_equiv_pos_as_xyz
 1  'x, y, z'
loop_
 _atom_site_type_symbol
 _atom_site_label
 _atom_site_symmetry_multiplicity
 _atom_site_fract_x
 _atom_site_fract_y
 _atom_site_fract_z
 _atom_site_fract_occupancy
 Co  Co1  1  0.75000  0.31799  0.63597  1
 Co  Co2  1  0.25000  0.68201  0.36403  1
 Nd  Nd1  1  0.25000  0.89314  0.78628  1
 Nd  Nd2  1  0.75000  0.10686  0.21372  1
 Si  Si1  1  0.25000  0.24982  0.49965  1
 Si  Si2  1  0.75000  0.75018  0.50035  1
 Si  Si3  1  0.75000  0.45606  0.91211  1
 Si  Si4  1  0.25000  0.54394  0.08789  1
