CIF file written using JARVIS-Tools package.
data_KV2CrO7
_symmetry_space_group_name_H-M  'P2/c'
_cell_length_a       4.84946
_cell_length_b       6.90386
_cell_length_c       8.11859
_cell_angle_alpha    101.604
_cell_angle_beta     90
_cell_angle_gamma    90

_symmetry_Int_Tables_number  13
_chemical_formula_structural  KV2CrO7
_chemical_formula_sum  K2V4Cr2O4
_cell_volume  266.25429382141385
_cell_formula_units_Z  2
loop_
  _symmetry_equiv_pos_site_id
 _symmetry_equiv_pos_as_xyz
 1  'x, y, z'
loop_
 _atom_site_type_symbol
 _atom_site_label
 _atom_site_symmetry_multiplicity
 _atom_site_fract_x
 _atom_site_fract_y
 _atom_site_fract_z
 _atom_site_fract_occupancy
 Cr  Cr1  1  0.50000  0.50000  0.00000  1
 Cr  Cr2  1  0.50000  0.00000  0.00000  1
 K  K1  1  0.60384  0.75000  0.50000  1
 K  K2  1  0.39616  0.25000  0.50000  1
 O  O1  1  0.67308  0.98375  0.21164  1
 O  O2  1  0.86744  0.11859  0.63831  1
 O  O3  1  0.13256  0.61859  0.63831  1
 O  O4  1  0.86744  0.38141  0.36169  1
 O  O5  1  0.13256  0.88141  0.36169  1
 O  O6  1  0.83891  0.88601  0.88426  1
 O  O7  1  0.16109  0.11399  0.11574  1
 O  O8  1  0.83891  0.61399  0.11574  1
 O  O9  1  0.29050  0.75000  0.00000  1
 O  O10  1  0.32692  0.48375  0.21164  1
 O  O11  1  0.67308  0.51625  0.78836  1
 O  O12  1  0.32692  0.01625  0.78836  1
 O  O13  1  0.70950  0.25000  0.00000  1
 O  O14  1  0.16109  0.38601  0.88426  1
 V  V1  1  0.99831  0.62254  0.82330  1
 V  V2  1  0.00169  0.37746  0.17670  1
 V  V3  1  0.00169  0.12254  0.82330  1
 V  V4  1  0.99831  0.87746  0.17670  1
