CIF file written using JARVIS-Tools package.
data_EuAgO2
_symmetry_space_group_name_H-M  'P6_3/mmc'
_cell_length_a       3.60726
_cell_length_b       3.60723
_cell_length_c       12.4339
_cell_angle_alpha    90.0088
_cell_angle_beta     90.0054
_cell_angle_gamma    119.999

_symmetry_Int_Tables_number  194
_chemical_formula_structural  EuAgO2
_chemical_formula_sum  Eu2Ag2O4
_cell_volume  140.1169142131745
_cell_formula_units_Z  2
loop_
  _symmetry_equiv_pos_site_id
 _symmetry_equiv_pos_as_xyz
 1  'x, y, z'
loop_
 _atom_site_type_symbol
 _atom_site_label
 _atom_site_symmetry_multiplicity
 _atom_site_fract_x
 _atom_site_fract_y
 _atom_site_fract_z
 _atom_site_fract_occupancy
 Ag  Ag1  1  0.33335  0.66676  0.25000  1
 Ag  Ag2  1  0.66663  0.33325  0.75000  1
 Eu  Eu1  1  0.99998  0.00005  0.00000  1
 Eu  Eu2  1  0.00003  0.00001  0.50000  1
 O  O1  1  0.33338  0.66680  0.08473  1
 O  O2  1  0.33333  0.66660  0.41528  1
 O  O3  1  0.66674  0.33343  0.58472  1
 O  O4  1  0.66657  0.33330  0.91527  1
