CIF file written using JARVIS-Tools package.
data_K2MnSe2
_symmetry_space_group_name_H-M  'Ibam'
_cell_length_a       6.48617
_cell_length_b       7.02468
_cell_length_c       8.14348
_cell_angle_alpha    115.551
_cell_angle_beta     113.468
_cell_angle_gamma    90

_symmetry_Int_Tables_number  72
_chemical_formula_structural  K2MnSe2
_chemical_formula_sum  K4Mn2Se4
_cell_volume  300.37954170450587
_cell_formula_units_Z  2
loop_
  _symmetry_equiv_pos_site_id
 _symmetry_equiv_pos_as_xyz
 1  'x, y, z'
loop_
 _atom_site_type_symbol
 _atom_site_label
 _atom_site_symmetry_multiplicity
 _atom_site_fract_x
 _atom_site_fract_y
 _atom_site_fract_z
 _atom_site_fract_occupancy
 K  K1  1  0.14586  0.47998  0.29173  1
 K  K2  1  0.85414  0.52002  0.70827  1
 K  K3  1  0.35414  0.18825  0.70827  1
 K  K4  1  0.64586  0.81175  0.29173  1
 Mn  Mn1  1  0.25000  0.00000  -0.00000  1
 Mn  Mn2  1  0.75000  0.00000  -0.00000  1
 Se  Se1  1  0.89383  0.09221  0.78766  1
 Se  Se2  1  0.10617  0.90779  0.21234  1
 Se  Se3  1  0.60617  0.30455  0.21234  1
 Se  Se4  1  0.39383  0.69545  0.78766  1
