CIF file written using JARVIS-Tools package.
data_Mg6CuSi
_symmetry_space_group_name_H-M  'Amm2'
_cell_length_a       6.04072
_cell_length_b       6.32796
_cell_length_c       4.78758
_cell_angle_alpha    90
_cell_angle_beta     90
_cell_angle_gamma    121.586

_symmetry_Int_Tables_number  38
_chemical_formula_structural  Mg6CuSi
_chemical_formula_sum  Mg6CuSi
_cell_volume  155.89586946325997
_cell_formula_units_Z  1
loop_
  _symmetry_equiv_pos_site_id
 _symmetry_equiv_pos_as_xyz
 1  'x, y, z'
loop_
 _atom_site_type_symbol
 _atom_site_label
 _atom_site_symmetry_multiplicity
 _atom_site_fract_x
 _atom_site_fract_y
 _atom_site_fract_z
 _atom_site_fract_occupancy
 Cu  Cu1  1  0.16200  0.33100  0.25000  1
 Mg  Mg1  1  0.67548  0.33662  0.25000  1
 Mg  Mg2  1  0.67548  0.83886  0.25000  1
 Mg  Mg3  1  0.32058  0.16711  0.75000  1
 Mg  Mg4  1  0.32058  0.65347  0.75000  1
 Mg  Mg5  1  0.83899  0.16950  0.75000  1
 Mg  Mg6  1  0.83656  0.66828  0.75000  1
 Si  Si1  1  0.17033  0.83516  0.25000  1
