CIF file written using JARVIS-Tools package.
data_ErNiO3
_symmetry_space_group_name_H-M  'Pnma'
_cell_length_a       5.13971
_cell_length_b       5.56581
_cell_length_c       7.32004
_cell_angle_alpha    90
_cell_angle_beta     90.0015
_cell_angle_gamma    90

_symmetry_Int_Tables_number  62
_chemical_formula_structural  ErNiO3
_chemical_formula_sum  Er4Ni4O2
_cell_volume  209.40201858389057
_cell_formula_units_Z  4
loop_
  _symmetry_equiv_pos_site_id
 _symmetry_equiv_pos_as_xyz
 1  'x, y, z'
loop_
 _atom_site_type_symbol
 _atom_site_label
 _atom_site_symmetry_multiplicity
 _atom_site_fract_x
 _atom_site_fract_y
 _atom_site_fract_z
 _atom_site_fract_occupancy
 Er  Er1  1  0.97752  0.08051  0.25000  1
 Er  Er2  1  0.02248  0.91949  0.75000  1
 Er  Er3  1  0.47752  0.41949  0.75000  1
 Er  Er4  1  0.52248  0.58051  0.25000  1
 Ni  Ni1  1  0.50000  0.00000  -0.00000  1
 Ni  Ni2  1  -0.00000  0.50000  0.50000  1
 Ni  Ni3  1  0.50000  0.00000  0.50000  1
 Ni  Ni4  1  0.00000  0.50000  0.00000  1
 O  O1  1  0.80985  0.80526  0.05210  1
 O  O2  1  0.30985  0.69474  0.55210  1
 O  O3  1  0.19015  0.19474  0.94790  1
 O  O4  1  0.19015  0.19475  0.55210  1
 O  O5  1  0.30985  0.69475  0.94790  1
 O  O6  1  0.89221  0.53273  0.75000  1
 O  O7  1  0.69015  0.30525  0.05210  1
 O  O8  1  0.69015  0.30526  0.44790  1
 O  O9  1  0.10779  0.46727  0.25000  1
 O  O10  1  0.60779  0.03273  0.75000  1
 O  O11  1  0.80985  0.80525  0.44790  1
 O  O12  1  0.39221  0.96727  0.25000  1
