CIF file written using JARVIS-Tools package.
data_BePCl
_symmetry_space_group_name_H-M  'I4mm'
_cell_length_a       6.66542
_cell_length_b       6.66542
_cell_length_c       6.66542
_cell_angle_alpha    155.528
_cell_angle_beta     155.528
_cell_angle_gamma    34.8831

_symmetry_Int_Tables_number  107
_chemical_formula_structural  BePCl
_chemical_formula_sum  BePCl
_cell_volume  50.762459895416185
_cell_formula_units_Z  1
loop_
  _symmetry_equiv_pos_site_id
 _symmetry_equiv_pos_as_xyz
 1  'x, y, z'
loop_
 _atom_site_type_symbol
 _atom_site_label
 _atom_site_symmetry_multiplicity
 _atom_site_fract_x
 _atom_site_fract_y
 _atom_site_fract_z
 _atom_site_fract_occupancy
 Be  Be1  1  0.99097  0.99097  -0.00000  1
 Cl  Cl1  1  0.38491  0.38491  -0.00000  1
 P  P1  1  0.62412  0.62412  0.00000  1
