CIF file written using JARVIS-Tools package.
data_Mn3GaN
_symmetry_space_group_name_H-M  'Pm-3m'
_cell_length_a       3.77485
_cell_length_b       3.77489
_cell_length_c       3.77497
_cell_angle_alpha    89.9995
_cell_angle_beta     90
_cell_angle_gamma    89.9989

_symmetry_Int_Tables_number  221
_chemical_formula_structural  Mn3GaN
_chemical_formula_sum  Mn3GaN
_cell_volume  53.79199107713236
_cell_formula_units_Z  1
loop_
  _symmetry_equiv_pos_site_id
 _symmetry_equiv_pos_as_xyz
 1  'x, y, z'
loop_
 _atom_site_type_symbol
 _atom_site_label
 _atom_site_symmetry_multiplicity
 _atom_site_fract_x
 _atom_site_fract_y
 _atom_site_fract_z
 _atom_site_fract_occupancy
 Ga  Ga1  1  -0.00001  0.00001  1.00000  1
 Mn  Mn1  1  0.50000  0.49998  0.00000  1
 Mn  Mn2  1  0.49998  -0.00000  0.50000  1
 Mn  Mn3  1  0.00002  0.50002  0.50000  1
 N  N1  1  0.50001  0.49999  0.50000  1
