CIF file written using JARVIS-Tools package.
data_S
_symmetry_space_group_name_H-M  'P3_221'
_cell_length_a       7.54281
_cell_length_b       7.54282
_cell_length_c       4.39674
_cell_angle_alpha    90
_cell_angle_beta     90
_cell_angle_gamma    120

_symmetry_Int_Tables_number  154
_chemical_formula_structural  S
_chemical_formula_sum  S9
_cell_volume  216.6346660358501
_cell_formula_units_Z  9
loop_
  _symmetry_equiv_pos_site_id
 _symmetry_equiv_pos_as_xyz
 1  'x, y, z'
loop_
 _atom_site_type_symbol
 _atom_site_label
 _atom_site_symmetry_multiplicity
 _atom_site_fract_x
 _atom_site_fract_y
 _atom_site_fract_z
 _atom_site_fract_occupancy
 S  S1  1  0.88601  0.88601  0.50000  1
 S  S2  1  0.31323  0.54521  0.26279  1
 S  S3  1  0.54521  0.31323  0.73721  1
 S  S4  1  -0.00000  0.11399  0.83333  1
 S  S5  1  0.45479  0.76802  0.92946  1
 S  S6  1  0.23198  0.68677  0.59613  1
 S  S7  1  0.76802  0.45479  0.07054  1
 S  S8  1  0.68677  0.23198  0.40387  1
 S  S9  1  0.11399  0.00000  0.16667  1
