CIF file written using JARVIS-Tools package.
data_Mg6FeSb
_symmetry_space_group_name_H-M  'Amm2'
_cell_length_a       6.1844
_cell_length_b       6.28681
_cell_length_c       4.96016
_cell_angle_alpha    90
_cell_angle_beta     90
_cell_angle_gamma    120.549

_symmetry_Int_Tables_number  38
_chemical_formula_structural  Mg6FeSb
_chemical_formula_sum  Mg6FeSb
_cell_volume  166.0825684619636
_cell_formula_units_Z  1
loop_
  _symmetry_equiv_pos_site_id
 _symmetry_equiv_pos_as_xyz
 1  'x, y, z'
loop_
 _atom_site_type_symbol
 _atom_site_label
 _atom_site_symmetry_multiplicity
 _atom_site_fract_x
 _atom_site_fract_y
 _atom_site_fract_z
 _atom_site_fract_occupancy
 Fe  Fe1  1  0.17081  0.33541  0.25000  1
 Mg  Mg1  1  0.67041  0.33195  0.25000  1
 Mg  Mg2  1  0.67041  0.83845  0.25000  1
 Mg  Mg3  1  0.32738  0.18052  0.75000  1
 Mg  Mg4  1  0.32738  0.64686  0.75000  1
 Mg  Mg5  1  0.84503  0.17251  0.75000  1
 Mg  Mg6  1  0.82309  0.66155  0.75000  1
 Sb  Sb1  1  0.16549  0.83275  0.25000  1
