CIF file written using JARVIS-Tools package.
data_CaMg6Mn
_symmetry_space_group_name_H-M  'Amm2'
_cell_length_a       6.56736
_cell_length_b       6.56735
_cell_length_c       5.06039
_cell_angle_alpha    90
_cell_angle_beta     90
_cell_angle_gamma    121.145

_symmetry_Int_Tables_number  38
_chemical_formula_structural  CaMg6Mn
_chemical_formula_sum  CaMg6Mn
_cell_volume  186.79586524067648
_cell_formula_units_Z  1
loop_
  _symmetry_equiv_pos_site_id
 _symmetry_equiv_pos_as_xyz
 1  'x, y, z'
loop_
 _atom_site_type_symbol
 _atom_site_label
 _atom_site_symmetry_multiplicity
 _atom_site_fract_x
 _atom_site_fract_y
 _atom_site_fract_z
 _atom_site_fract_occupancy
 Ca  Ca1  1  0.17679  0.32321  0.25000  1
 Mg  Mg1  1  0.17790  0.84050  0.25000  1
 Mg  Mg2  1  0.65950  0.32210  0.25000  1
 Mg  Mg3  1  0.66287  0.83713  0.25000  1
 Mg  Mg4  1  0.33061  0.68239  0.75000  1
 Mg  Mg5  1  0.81761  0.16939  0.75000  1
 Mg  Mg6  1  0.82838  0.67162  0.75000  1
 Mn  Mn1  1  0.34633  0.15367  0.75000  1
