CIF file written using JARVIS-Tools package.
data_EuGe
_symmetry_space_group_name_H-M  'Cmcm'
_cell_length_a       4.02432
_cell_length_b       4.34447
_cell_length_c       5.85552
_cell_angle_alpha    111.776
_cell_angle_beta     90
_cell_angle_gamma    90

_symmetry_Int_Tables_number  63
_chemical_formula_structural  EuGe
_chemical_formula_sum  Eu2Ge2
_cell_volume  95.07014821571595
_cell_formula_units_Z  2
loop_
  _symmetry_equiv_pos_site_id
 _symmetry_equiv_pos_as_xyz
 1  'x, y, z'
loop_
 _atom_site_type_symbol
 _atom_site_label
 _atom_site_symmetry_multiplicity
 _atom_site_fract_x
 _atom_site_fract_y
 _atom_site_fract_z
 _atom_site_fract_occupancy
 Eu  Eu1  1  0.25000  0.86222  0.72445  1
 Eu  Eu2  1  0.75000  0.13778  0.27555  1
 Ge  Ge1  1  0.25000  0.58553  0.17106  1
 Ge  Ge2  1  0.75000  0.41447  0.82894  1
