CIF file written using JARVIS-Tools package.
data_As3Rh
_symmetry_space_group_name_H-M  'Im-3'
_cell_length_a       7.43839
_cell_length_b       7.43839
_cell_length_c       7.43838
_cell_angle_alpha    109.471
_cell_angle_beta     109.471
_cell_angle_gamma    109.471

_symmetry_Int_Tables_number  204
_chemical_formula_structural  As3Rh
_chemical_formula_sum  As2Rh4
_cell_volume  316.8209798353673
_cell_formula_units_Z  4
loop_
  _symmetry_equiv_pos_site_id
 _symmetry_equiv_pos_as_xyz
 1  'x, y, z'
loop_
 _atom_site_type_symbol
 _atom_site_label
 _atom_site_symmetry_multiplicity
 _atom_site_fract_x
 _atom_site_fract_y
 _atom_site_fract_z
 _atom_site_fract_occupancy
 As  As1  1  0.50599  0.85362  0.65237  1
 As  As2  1  0.20124  0.85362  0.34763  1
 As  As3  1  0.79876  0.14638  0.65237  1
 As  As4  1  0.14638  0.34763  0.49401  1
 As  As5  1  0.49401  0.14638  0.34763  1
 As  As6  1  0.14638  0.65237  0.79876  1
 As  As7  1  0.34763  0.20124  0.85362  1
 As  As8  1  0.85362  0.65237  0.50599  1
 As  As9  1  0.65237  0.79876  0.14638  1
 As  As10  1  0.85362  0.34763  0.20124  1
 As  As11  1  0.65237  0.50599  0.85362  1
 As  As12  1  0.34763  0.49401  0.14638  1
 Rh  Rh1  1  0.50000  0.00000  -0.00000  1
 Rh  Rh2  1  0.00000  0.00000  0.50000  1
 Rh  Rh3  1  -0.00000  0.50000  -0.00000  1
 Rh  Rh4  1  0.50000  0.50000  0.50000  1
