CIF file written using JARVIS-Tools package.
data_CeMg6Cr
_symmetry_space_group_name_H-M  'Amm2'
_cell_length_a       6.64272
_cell_length_b       6.64272
_cell_length_c       5.03733
_cell_angle_alpha    90
_cell_angle_beta     90
_cell_angle_gamma    121.755

_symmetry_Int_Tables_number  38
_chemical_formula_structural  CeMg6Cr
_chemical_formula_sum  CeMg6Cr
_cell_volume  189.00247907574692
_cell_formula_units_Z  1
loop_
  _symmetry_equiv_pos_site_id
 _symmetry_equiv_pos_as_xyz
 1  'x, y, z'
loop_
 _atom_site_type_symbol
 _atom_site_label
 _atom_site_symmetry_multiplicity
 _atom_site_fract_x
 _atom_site_fract_y
 _atom_site_fract_z
 _atom_site_fract_occupancy
 Ce  Ce1  1  0.18297  0.31703  0.25000  1
 Cr  Cr1  1  0.33216  0.16784  0.75000  1
 Mg  Mg1  1  0.17945  0.83138  0.25000  1
 Mg  Mg2  1  0.66862  0.32055  0.25000  1
 Mg  Mg3  1  0.66330  0.83670  0.25000  1
 Mg  Mg4  1  0.32653  0.67998  0.75000  1
 Mg  Mg5  1  0.82002  0.17347  0.75000  1
 Mg  Mg6  1  0.82695  0.67305  0.75000  1
