CIF file written using JARVIS-Tools package.
data_UGa6Fe6
_symmetry_space_group_name_H-M  'Immm'
_cell_length_a       4.99782
_cell_length_b       6.52145
_cell_length_c       6.52134
_cell_angle_alpha    82.886
_cell_angle_beta     67.4685
_cell_angle_gamma    67.4676

_symmetry_Int_Tables_number  71
_chemical_formula_structural  UGa6Fe6
_chemical_formula_sum  UGa6Fe6
_cell_volume  181.27330601414772
_cell_formula_units_Z  1
loop_
  _symmetry_equiv_pos_site_id
 _symmetry_equiv_pos_as_xyz
 1  'x, y, z'
loop_
 _atom_site_type_symbol
 _atom_site_label
 _atom_site_symmetry_multiplicity
 _atom_site_fract_x
 _atom_site_fract_y
 _atom_site_fract_z
 _atom_site_fract_occupancy
 Fe  Fe1  1  0.50093  0.50038  0.99818  1
 Fe  Fe2  1  0.73934  0.76200  0.75980  1
 Fe  Fe3  1  0.26258  0.23875  0.23655  1
 Fe  Fe4  1  0.00095  0.00035  0.49822  1
 Fe  Fe5  1  0.50091  0.00036  0.49821  1
 Fe  Fe6  1  0.00094  0.50038  0.99817  1
 Ga  Ga1  1  0.00095  0.65456  0.34399  1
 Ga  Ga2  1  0.50094  0.81373  0.18484  1
 Ga  Ga3  1  0.34232  0.65900  0.65683  1
 Ga  Ga4  1  0.50091  0.18705  0.81152  1
 Ga  Ga5  1  0.00089  0.34621  0.65234  1
 Ga  Ga6  1  0.65978  0.34154  0.33937  1
 U  U1  1  0.00103  0.00029  0.99807  1
