CIF file written using JARVIS-Tools package.
data_NaMnO4
_symmetry_space_group_name_H-M  'Cmcm'
_cell_length_a       5.2467
_cell_length_b       5.2467
_cell_length_c       7.10215
_cell_angle_alpha    90
_cell_angle_beta     90
_cell_angle_gamma    67.26

_symmetry_Int_Tables_number  63
_chemical_formula_structural  NaMnO4
_chemical_formula_sum  Na2Mn2O8
_cell_volume  180.31014938573728
_cell_formula_units_Z  2
loop_
  _symmetry_equiv_pos_site_id
 _symmetry_equiv_pos_as_xyz
 1  'x, y, z'
loop_
 _atom_site_type_symbol
 _atom_site_label
 _atom_site_symmetry_multiplicity
 _atom_site_fract_x
 _atom_site_fract_y
 _atom_site_fract_z
 _atom_site_fract_occupancy
 Mn  Mn1  1  0.62950  0.62950  0.75000  1
 Mn  Mn2  1  0.37050  0.37050  0.25000  1
 Na  Na1  1  0.00000  0.00000  0.00000  1
 Na  Na2  1  0.00000  0.00000  0.50000  1
 O  O1  1  0.24893  0.70711  0.25000  1
 O  O2  1  0.29289  0.75107  0.75000  1
 O  O3  1  0.73440  0.73440  0.56362  1
 O  O4  1  0.26560  0.26560  0.06362  1
 O  O5  1  0.26560  0.26560  0.43638  1
 O  O6  1  0.73440  0.73440  0.93638  1
 O  O7  1  0.70711  0.24893  0.25000  1
 O  O8  1  0.75107  0.29289  0.75000  1
