CIF file written using JARVIS-Tools package.
data_Li2MnCo3O8
_symmetry_space_group_name_H-M  'C2/m'
_cell_length_a       5.70191
_cell_length_b       5.67694
_cell_length_c       5.62969
_cell_angle_alpha    59.722
_cell_angle_beta     61.8512
_cell_angle_gamma    90

_symmetry_Int_Tables_number  12
_chemical_formula_structural  Li2MnCo3O8
_chemical_formula_sum  Li2MnCo3O8
_cell_volume  131.8145170210417
_cell_formula_units_Z  1
loop_
  _symmetry_equiv_pos_site_id
 _symmetry_equiv_pos_as_xyz
 1  'x, y, z'
loop_
 _atom_site_type_symbol
 _atom_site_label
 _atom_site_symmetry_multiplicity
 _atom_site_fract_x
 _atom_site_fract_y
 _atom_site_fract_z
 _atom_site_fract_occupancy
 Co  Co1  1  0.00000  0.50000  0.00000  1
 Co  Co2  1  -0.00000  0.50000  0.50000  1
 Co  Co3  1  -0.00000  -0.00000  0.50000  1
 Li  Li1  1  0.50000  0.50000  0.50000  1
 Li  Li2  1  0.50000  -0.00000  0.50000  1
 Mn  Mn1  1  0.00000  0.00000  0.00000  1
 O  O1  1  0.20602  0.73358  0.03061  1
 O  O2  1  0.20602  0.23581  0.03061  1
 O  O3  1  0.20691  0.73202  0.53596  1
 O  O4  1  0.21315  0.23412  0.53177  1
 O  O5  1  0.78685  0.76588  0.46823  1
 O  O6  1  0.79309  0.26798  0.46404  1
 O  O7  1  0.79398  0.76419  0.96939  1
 O  O8  1  0.79398  0.26642  0.96939  1
