CIF file written using JARVIS-Tools package.
data_ScBeZn
_symmetry_space_group_name_H-M  'P-6m2'
_cell_length_a       4.09903
_cell_length_b       4.09903
_cell_length_c       3.19155
_cell_angle_alpha    90
_cell_angle_beta     90
_cell_angle_gamma    120

_symmetry_Int_Tables_number  187
_chemical_formula_structural  ScBeZn
_chemical_formula_sum  ScBeZn
_cell_volume  46.44022412614092
_cell_formula_units_Z  1
loop_
  _symmetry_equiv_pos_site_id
 _symmetry_equiv_pos_as_xyz
 1  'x, y, z'
loop_
 _atom_site_type_symbol
 _atom_site_label
 _atom_site_symmetry_multiplicity
 _atom_site_fract_x
 _atom_site_fract_y
 _atom_site_fract_z
 _atom_site_fract_occupancy
 Be  Be1  1  0.00000  0.00000  0.16658  1
 Sc  Sc1  1  0.66667  0.33333  0.66670  1
 Zn  Zn1  1  0.33333  0.66667  0.16671  1
