CIF file written using JARVIS-Tools package.
data_BaCrF6
_symmetry_space_group_name_H-M  'R-3m'
_cell_length_a       4.88735
_cell_length_b       4.88736
_cell_length_c       4.88735
_cell_angle_alpha    98.2403
_cell_angle_beta     98.2402
_cell_angle_gamma    98.2403

_symmetry_Int_Tables_number  166
_chemical_formula_structural  BaCrF6
_chemical_formula_sum  BaCrF6
_cell_volume  112.7307277112894
_cell_formula_units_Z  1
loop_
  _symmetry_equiv_pos_site_id
 _symmetry_equiv_pos_as_xyz
 1  'x, y, z'
loop_
 _atom_site_type_symbol
 _atom_site_label
 _atom_site_symmetry_multiplicity
 _atom_site_fract_x
 _atom_site_fract_y
 _atom_site_fract_z
 _atom_site_fract_occupancy
 Ba  Ba1  1  0.50000  0.50000  0.50000  1
 Cr  Cr1  1  0.00000  0.00000  0.00000  1
 F  F1  1  0.73033  0.73033  0.07685  1
 F  F2  1  0.73033  0.07685  0.73033  1
 F  F3  1  0.26967  0.92315  0.26967  1
 F  F4  1  0.26967  0.26967  0.92315  1
 F  F5  1  0.92315  0.26967  0.26967  1
 F  F6  1  0.07685  0.73033  0.73033  1
