CIF file written using JARVIS-Tools package.
data_Ba3SrI8
_symmetry_space_group_name_H-M  'I4/mmm'
_cell_length_a       8.20317
_cell_length_b       10.0446
_cell_length_c       8.20317
_cell_angle_alpha    65.8996
_cell_angle_beta     90
_cell_angle_gamma    114.1

_symmetry_Int_Tables_number  139
_chemical_formula_structural  Ba3SrI8
_chemical_formula_sum  Ba3SrI8
_cell_volume  551.8277073040817
_cell_formula_units_Z  1
loop_
  _symmetry_equiv_pos_site_id
 _symmetry_equiv_pos_as_xyz
 1  'x, y, z'
loop_
 _atom_site_type_symbol
 _atom_site_label
 _atom_site_symmetry_multiplicity
 _atom_site_fract_x
 _atom_site_fract_y
 _atom_site_fract_z
 _atom_site_fract_occupancy
 Ba  Ba1  1  0.25000  0.50000  0.25000  1
 Ba  Ba2  1  0.50000  0.00000  0.50000  1
 Ba  Ba3  1  0.75000  0.50000  0.75000  1
 I  I1  1  0.87738  0.24584  0.12262  1
 I  I2  1  0.36846  0.24584  0.12262  1
 I  I3  1  0.63154  0.75417  0.36846  1
 I  I4  1  0.12262  0.75417  0.36846  1
 I  I5  1  0.87738  0.24584  0.63154  1
 I  I6  1  0.36846  0.24584  0.63154  1
 I  I7  1  0.12262  0.75417  0.87738  1
 I  I8  1  0.63154  0.75417  0.87738  1
 Sr  Sr1  1  0.00000  0.00000  0.00000  1
