CIF file written using JARVIS-Tools package.
data_CeSi2Au2
_symmetry_space_group_name_H-M  'I4/mmm'
_cell_length_a       4.35817
_cell_length_b       4.35817
_cell_length_c       5.945
_cell_angle_alpha    111.502
_cell_angle_beta     111.502
_cell_angle_gamma    89.9999

_symmetry_Int_Tables_number  139
_chemical_formula_structural  CeSi2Au2
_chemical_formula_sum  CeSi2Au2
_cell_volume  96.56188991481692
_cell_formula_units_Z  1
loop_
  _symmetry_equiv_pos_site_id
 _symmetry_equiv_pos_as_xyz
 1  'x, y, z'
loop_
 _atom_site_type_symbol
 _atom_site_label
 _atom_site_symmetry_multiplicity
 _atom_site_fract_x
 _atom_site_fract_y
 _atom_site_fract_z
 _atom_site_fract_occupancy
 Au  Au1  1  0.75000  0.25000  0.50000  1
 Au  Au2  1  0.25000  0.75000  0.50000  1
 Ce  Ce1  1  0.00000  0.00000  0.00000  1
 Si  Si1  1  0.61454  0.61454  0.22908  1
 Si  Si2  1  0.38546  0.38546  0.77092  1
