CIF file written using JARVIS-Tools package.
data_Sr2BrN
_symmetry_space_group_name_H-M  'R-3m'
_cell_length_a       7.66138
_cell_length_b       7.66139
_cell_length_c       7.66138
_cell_angle_alpha    29.7022
_cell_angle_beta     29.7022
_cell_angle_gamma    29.7022

_symmetry_Int_Tables_number  166
_chemical_formula_structural  Sr2BrN
_chemical_formula_sum  Sr2BrN
_cell_volume  97.75352601196681
_cell_formula_units_Z  1
loop_
  _symmetry_equiv_pos_site_id
 _symmetry_equiv_pos_as_xyz
 1  'x, y, z'
loop_
 _atom_site_type_symbol
 _atom_site_label
 _atom_site_symmetry_multiplicity
 _atom_site_fract_x
 _atom_site_fract_y
 _atom_site_fract_z
 _atom_site_fract_occupancy
 Br  Br1  1  0.00000  0.00000  0.00000  1
 N  N1  1  0.50000  0.50000  0.50000  1
 Sr  Sr1  1  0.77232  0.77232  0.77232  1
 Sr  Sr2  1  0.22768  0.22768  0.22768  1
