CIF file written using JARVIS-Tools package.
data_Sm2Fe17
_symmetry_space_group_name_H-M  'R-3m'
_cell_length_a       6.29142
_cell_length_b       6.29142
_cell_length_c       6.29142
_cell_angle_alpha    82.3995
_cell_angle_beta     82.3995
_cell_angle_gamma    82.3996

_symmetry_Int_Tables_number  166
_chemical_formula_structural  Sm2Fe17
_chemical_formula_sum  Sm2Fe7
_cell_volume  242.99538629439922
_cell_formula_units_Z  1
loop_
  _symmetry_equiv_pos_site_id
 _symmetry_equiv_pos_as_xyz
 1  'x, y, z'
loop_
 _atom_site_type_symbol
 _atom_site_label
 _atom_site_symmetry_multiplicity
 _atom_site_fract_x
 _atom_site_fract_y
 _atom_site_fract_z
 _atom_site_fract_occupancy
 Fe  Fe1  1  0.33569  0.33569  0.84753  1
 Fe  Fe2  1  0.33569  0.84753  0.33569  1
 Fe  Fe3  1  0.09082  0.09082  0.09082  1
 Fe  Fe4  1  0.90918  0.90918  0.90918  1
 Fe  Fe5  1  -0.00000  0.00000  0.50000  1
 Fe  Fe6  1  0.50000  -0.00000  -0.00000  1
 Fe  Fe7  1  -0.00000  0.50000  -0.00000  1
 Fe  Fe8  1  0.29073  0.70927  -0.00000  1
 Fe  Fe9  1  0.00000  0.29073  0.70927  1
 Fe  Fe10  1  0.70927  -0.00000  0.29073  1
 Fe  Fe11  1  -0.00000  0.70927  0.29073  1
 Fe  Fe12  1  0.29073  0.00000  0.70927  1
 Fe  Fe13  1  0.66431  0.15247  0.66431  1
 Fe  Fe14  1  0.66431  0.66431  0.15247  1
 Fe  Fe15  1  0.15247  0.66431  0.66431  1
 Fe  Fe16  1  0.84753  0.33569  0.33569  1
 Fe  Fe17  1  0.70927  0.29073  0.00000  1
 Sm  Sm1  1  0.65545  0.65545  0.65545  1
 Sm  Sm2  1  0.34455  0.34455  0.34455  1
