CIF file written using JARVIS-Tools package.
data_CaU2P2O4
_symmetry_space_group_name_H-M  'I4/mmm'
_cell_length_a       5.62722
_cell_length_b       5.62722
_cell_length_c       8.40963
_cell_angle_alpha    109.546
_cell_angle_beta     109.546
_cell_angle_gamma    90

_symmetry_Int_Tables_number  139
_chemical_formula_structural  CaU2P2O4
_chemical_formula_sum  CaU2P2O4
_cell_volume  234.6010717075914
_cell_formula_units_Z  1
loop_
  _symmetry_equiv_pos_site_id
 _symmetry_equiv_pos_as_xyz
 1  'x, y, z'
loop_
 _atom_site_type_symbol
 _atom_site_label
 _atom_site_symmetry_multiplicity
 _atom_site_fract_x
 _atom_site_fract_y
 _atom_site_fract_z
 _atom_site_fract_occupancy
 Ca  Ca1  1  0.00000  0.00000  0.00000  1
 O  O1  1  0.60330  0.60330  0.20660  1
 O  O2  1  0.39670  0.39670  0.79340  1
 O  O3  1  0.85643  0.85643  0.71286  1
 O  O4  1  0.14357  0.14357  0.28714  1
 P  P1  1  0.25000  0.75000  0.50000  1
 P  P2  1  0.75000  0.25000  0.50000  1
 U  U1  1  0.72747  0.72747  0.45494  1
 U  U2  1  0.27253  0.27253  0.54506  1
