CIF file written using JARVIS-Tools package.
data_Li5Nb2V3O10
_symmetry_space_group_name_H-M  'P-1'
_cell_length_a       5.20444
_cell_length_b       5.14682
_cell_length_c       7.79662
_cell_angle_alpha    70.6321
_cell_angle_beta     71.1338
_cell_angle_gamma    79.0979

_symmetry_Int_Tables_number  2
_chemical_formula_structural  Li5Nb2V3O10
_chemical_formula_sum  Li5Nb2V3O0
_cell_volume  185.65340704489546
_cell_formula_units_Z  1
loop_
  _symmetry_equiv_pos_site_id
 _symmetry_equiv_pos_as_xyz
 1  'x, y, z'
loop_
 _atom_site_type_symbol
 _atom_site_label
 _atom_site_symmetry_multiplicity
 _atom_site_fract_x
 _atom_site_fract_y
 _atom_site_fract_z
 _atom_site_fract_occupancy
 Li  Li1  1  0.51739  0.77148  0.41190  1
 Li  Li2  1  0.50976  0.59365  0.78316  1
 Li  Li3  1  -0.00000  0.50000  0.50000  1
 Li  Li4  1  0.49024  0.40635  0.21684  1
 Li  Li5  1  0.48261  0.22852  0.58810  1
 Nb  Nb1  1  -0.00126  0.90202  0.68447  1
 Nb  Nb2  1  0.00126  0.09798  0.31553  1
 O  O1  1  0.75828  0.24791  0.75511  1
 O  O2  1  0.75842  0.44428  0.34705  1
 O  O3  1  0.24158  0.55572  0.65295  1
 O  O4  1  0.24172  0.75209  0.24489  1
 O  O5  1  0.73699  0.84270  0.55304  1
 O  O6  1  0.76711  0.03989  0.14164  1
 O  O7  1  0.23289  0.96011  0.85836  1
 O  O8  1  0.26032  0.35281  0.04381  1
 O  O9  1  0.26301  0.15730  0.44696  1
 O  O10  1  0.73968  0.64719  0.95619  1
 V  V1  1  0.50000  -0.00000  0.00000  1
 V  V2  1  0.00437  0.68217  0.09979  1
 V  V3  1  0.99563  0.31783  0.90021  1
