CIF file written using JARVIS-Tools package.
data_Mg6BW
_symmetry_space_group_name_H-M  'Amm2'
_cell_length_a       6.42208
_cell_length_b       6.42207
_cell_length_c       4.52999
_cell_angle_alpha    90
_cell_angle_beta     90
_cell_angle_gamma    125.543

_symmetry_Int_Tables_number  38
_chemical_formula_structural  Mg6BW
_chemical_formula_sum  Mg6BW
_cell_volume  152.019857191206
_cell_formula_units_Z  1
loop_
  _symmetry_equiv_pos_site_id
 _symmetry_equiv_pos_as_xyz
 1  'x, y, z'
loop_
 _atom_site_type_symbol
 _atom_site_label
 _atom_site_symmetry_multiplicity
 _atom_site_fract_x
 _atom_site_fract_y
 _atom_site_fract_z
 _atom_site_fract_occupancy
 B  B1  1  0.25814  0.24186  0.75000  1
 Mg  Mg1  1  0.18268  0.83050  0.25000  1
 Mg  Mg2  1  0.66950  0.31732  0.25000  1
 Mg  Mg3  1  0.67269  0.82731  0.25000  1
 Mg  Mg4  1  0.32651  0.64577  0.75000  1
 Mg  Mg5  1  0.85423  0.17349  0.75000  1
 Mg  Mg6  1  0.82373  0.67627  0.75000  1
 W  W1  1  0.21252  0.28748  0.25000  1
