CIF file written using JARVIS-Tools package.
data_USnPd
_symmetry_space_group_name_H-M  'P6_3/mmc'
_cell_length_a       4.98575
_cell_length_b       4.98562
_cell_length_c       5.80572
_cell_angle_alpha    90
_cell_angle_beta     90
_cell_angle_gamma    120.001

_symmetry_Int_Tables_number  194
_chemical_formula_structural  USnPd
_chemical_formula_sum  U2Sn2Pd2
_cell_volume  124.97767663284047
_cell_formula_units_Z  2
loop_
  _symmetry_equiv_pos_site_id
 _symmetry_equiv_pos_as_xyz
 1  'x, y, z'
loop_
 _atom_site_type_symbol
 _atom_site_label
 _atom_site_symmetry_multiplicity
 _atom_site_fract_x
 _atom_site_fract_y
 _atom_site_fract_z
 _atom_site_fract_occupancy
 Pd  Pd1  1  0.33331  0.66662  0.51883  1
 Pd  Pd2  1  0.66669  0.33338  0.01883  1
 Sn  Sn1  1  0.66666  0.33332  0.51882  1
 Sn  Sn2  1  0.33334  0.66668  0.01882  1
 U  U1  1  0.00000  -0.00000  0.76884  1
 U  U2  1  -0.00000  0.00000  0.26884  1
