CIF file written using JARVIS-Tools package.
data_BeIr2Br
_symmetry_space_group_name_H-M  'P4mm'
_cell_length_a       2.85928
_cell_length_b       2.85928
_cell_length_c       8.09931
_cell_angle_alpha    90
_cell_angle_beta     90
_cell_angle_gamma    90

_symmetry_Int_Tables_number  99
_chemical_formula_structural  BeIr2Br
_chemical_formula_sum  BeIr2Br
_cell_volume  66.21573035533234
_cell_formula_units_Z  1
loop_
  _symmetry_equiv_pos_site_id
 _symmetry_equiv_pos_as_xyz
 1  'x, y, z'
loop_
 _atom_site_type_symbol
 _atom_site_label
 _atom_site_symmetry_multiplicity
 _atom_site_fract_x
 _atom_site_fract_y
 _atom_site_fract_z
 _atom_site_fract_occupancy
 Be  Be1  1  0.00000  0.00000  0.41397  1
 Br  Br1  1  0.50000  0.50000  0.77574  1
 Ir  Ir1  1  0.00000  0.00000  0.03795  1
 Ir  Ir2  1  0.50000  0.50000  0.27234  1
