CIF file written using JARVIS-Tools package.
data_LiMg6Si
_symmetry_space_group_name_H-M  'Amm2'
_cell_length_a       6.18717
_cell_length_b       6.18717
_cell_length_c       4.96116
_cell_angle_alpha    90
_cell_angle_beta     90
_cell_angle_gamma    119.483

_symmetry_Int_Tables_number  38
_chemical_formula_structural  LiMg6Si
_chemical_formula_sum  LiMg6Si
_cell_volume  165.32418533311255
_cell_formula_units_Z  1
loop_
  _symmetry_equiv_pos_site_id
 _symmetry_equiv_pos_as_xyz
 1  'x, y, z'
loop_
 _atom_site_type_symbol
 _atom_site_label
 _atom_site_symmetry_multiplicity
 _atom_site_fract_x
 _atom_site_fract_y
 _atom_site_fract_z
 _atom_site_fract_occupancy
 Li  Li1  1  0.16923  0.33077  0.25000  1
 Mg  Mg1  1  0.16927  0.84334  0.25000  1
 Mg  Mg2  1  0.65666  0.33073  0.25000  1
 Mg  Mg3  1  0.66399  0.83601  0.25000  1
 Mg  Mg4  1  0.33383  0.65744  0.75000  1
 Mg  Mg5  1  0.84256  0.16617  0.75000  1
 Mg  Mg6  1  0.83413  0.66587  0.75000  1
 Si  Si1  1  0.33033  0.16967  0.75000  1
