CIF file written using JARVIS-Tools package.
data_BeV2Sn2
_symmetry_space_group_name_H-M  'I4/mmm'
_cell_length_a       7.60818
_cell_length_b       7.60818
_cell_length_c       7.60818
_cell_angle_alpha    152.931
_cell_angle_beta     152.931
_cell_angle_gamma    38.6558

_symmetry_Int_Tables_number  139
_chemical_formula_structural  BeV2Sn2
_chemical_formula_sum  BeV2Sn2
_cell_volume  91.04732542977335
_cell_formula_units_Z  1
loop_
  _symmetry_equiv_pos_site_id
 _symmetry_equiv_pos_as_xyz
 1  'x, y, z'
loop_
 _atom_site_type_symbol
 _atom_site_label
 _atom_site_symmetry_multiplicity
 _atom_site_fract_x
 _atom_site_fract_y
 _atom_site_fract_z
 _atom_site_fract_occupancy
 Be  Be1  1  0.00000  0.00000  0.00000  1
 Sn  Sn1  1  0.59918  0.59918  0.00000  1
 Sn  Sn2  1  0.40082  0.40082  0.00000  1
 V  V1  1  0.75000  0.25000  0.50000  1
 V  V2  1  0.25000  0.75000  0.50000  1
