CIF file written using JARVIS-Tools package.
data_Eu2GeSe4
_symmetry_space_group_name_H-M  'P2_1'
_cell_length_a       7.18442
_cell_length_b       6.96869
_cell_length_c       7.72483
_cell_angle_alpha    90.0029
_cell_angle_beta     108.549
_cell_angle_gamma    90.0041

_symmetry_Int_Tables_number  4
_chemical_formula_structural  Eu2GeSe4
_chemical_formula_sum  Eu4Ge2Se8
_cell_volume  366.6594740812611
_cell_formula_units_Z  2
loop_
  _symmetry_equiv_pos_site_id
 _symmetry_equiv_pos_as_xyz
 1  'x, y, z'
loop_
 _atom_site_type_symbol
 _atom_site_label
 _atom_site_symmetry_multiplicity
 _atom_site_fract_x
 _atom_site_fract_y
 _atom_site_fract_z
 _atom_site_fract_occupancy
 Eu  Eu1  1  0.31569  0.72704  0.95006  1
 Eu  Eu2  1  0.26542  0.71468  0.43273  1
 Eu  Eu3  1  0.68429  0.22711  0.04994  1
 Eu  Eu4  1  0.73456  0.21469  0.56726  1
 Ge  Ge1  1  0.19437  0.18076  0.23738  1
 Ge  Ge2  1  0.80563  0.68075  0.76259  1
 Se  Se1  1  0.44570  0.43664  0.74434  1
 Se  Se2  1  -0.03055  0.39236  0.37304  1
 Se  Se3  1  0.55427  0.93668  0.25564  1
 Se  Se4  1  0.01549  0.32508  0.91452  1
 Se  Se5  1  0.46218  0.44470  0.26002  1
 Se  Se6  1  0.03058  0.89238  0.62698  1
 Se  Se7  1  -0.01548  0.82507  0.08549  1
 Se  Se8  1  0.53786  -0.05534  0.74001  1
