CIF file written using JARVIS-Tools package.
data_K2BiAu
_symmetry_space_group_name_H-M  'Cmcm'
_cell_length_a       6.74025
_cell_length_b       6.61009
_cell_length_c       6.61009
_cell_angle_alpha    107.222
_cell_angle_beta     90
_cell_angle_gamma    90

_symmetry_Int_Tables_number  63
_chemical_formula_structural  K2BiAu
_chemical_formula_sum  K4Bi2Au2
_cell_volume  281.30006149218804
_cell_formula_units_Z  2
loop_
  _symmetry_equiv_pos_site_id
 _symmetry_equiv_pos_as_xyz
 1  'x, y, z'
loop_
 _atom_site_type_symbol
 _atom_site_label
 _atom_site_symmetry_multiplicity
 _atom_site_fract_x
 _atom_site_fract_y
 _atom_site_fract_z
 _atom_site_fract_occupancy
 Au  Au1  1  0.50000  0.00000  0.00000  1
 Au  Au2  1  0.00000  0.00000  0.00000  1
 Bi  Bi1  1  0.25000  0.28323  0.28323  1
 Bi  Bi2  1  0.75000  0.71677  0.71677  1
 K  K1  1  0.25000  0.85522  0.51250  1
 K  K2  1  0.75000  0.48750  0.14478  1
 K  K3  1  0.75000  0.14478  0.48750  1
 K  K4  1  0.25000  0.51250  0.85522  1
