CIF file written using JARVIS-Tools package.
data_Mg6TiV
_symmetry_space_group_name_H-M  'Amm2'
_cell_length_a       6.24998
_cell_length_b       6.02893
_cell_length_c       4.98125
_cell_angle_alpha    90
_cell_angle_beta     90
_cell_angle_gamma    118.837

_symmetry_Int_Tables_number  38
_chemical_formula_structural  Mg6TiV
_chemical_formula_sum  Mg6TiV
_cell_volume  164.42217721497386
_cell_formula_units_Z  1
loop_
  _symmetry_equiv_pos_site_id
 _symmetry_equiv_pos_as_xyz
 1  'x, y, z'
loop_
 _atom_site_type_symbol
 _atom_site_label
 _atom_site_symmetry_multiplicity
 _atom_site_fract_x
 _atom_site_fract_y
 _atom_site_fract_z
 _atom_site_fract_occupancy
 Mg  Mg1  1  0.65704  0.32941  0.25000  1
 Mg  Mg2  1  0.65704  0.82762  0.25000  1
 Mg  Mg3  1  0.32923  0.16495  0.75000  1
 Mg  Mg4  1  0.32923  0.66429  0.75000  1
 Mg  Mg5  1  0.85824  0.17912  0.75000  1
 Mg  Mg6  1  0.85120  0.67560  0.75000  1
 Ti  Ti1  1  0.15651  0.82825  0.25000  1
 V  V1  1  0.16152  0.33076  0.25000  1
