CIF file written using JARVIS-Tools package.
data_BeInCl
_symmetry_space_group_name_H-M  'I4mm'
_cell_length_a       7.22261
_cell_length_b       7.22261
_cell_length_c       7.22261
_cell_angle_alpha    155.722
_cell_angle_beta     155.722
_cell_angle_gamma    34.6019

_symmetry_Int_Tables_number  107
_chemical_formula_structural  BeInCl
_chemical_formula_sum  BeInCl
_cell_volume  63.6294705401968
_cell_formula_units_Z  1
loop_
  _symmetry_equiv_pos_site_id
 _symmetry_equiv_pos_as_xyz
 1  'x, y, z'
loop_
 _atom_site_type_symbol
 _atom_site_label
 _atom_site_symmetry_multiplicity
 _atom_site_fract_x
 _atom_site_fract_y
 _atom_site_fract_z
 _atom_site_fract_occupancy
 Be  Be1  1  0.97344  0.97344  0.00000  1
 Cl  Cl1  1  0.39347  0.39347  -0.00000  1
 In  In1  1  0.63308  0.63308  0.00000  1
