CIF file written using JARVIS-Tools package.
data_Li2TiNiO4
_symmetry_space_group_name_H-M  'Imma'
_cell_length_a       5.93498
_cell_length_b       5.86529
_cell_length_c       5.86525
_cell_angle_alpha    91.0267
_cell_angle_beta     59.6084
_cell_angle_gamma    120.392

_symmetry_Int_Tables_number  74
_chemical_formula_structural  Li2TiNiO4
_chemical_formula_sum  Li4Ti2Ni2O8
_cell_volume  143.93071182305658
_cell_formula_units_Z  2
loop_
  _symmetry_equiv_pos_site_id
 _symmetry_equiv_pos_as_xyz
 1  'x, y, z'
loop_
 _atom_site_type_symbol
 _atom_site_label
 _atom_site_symmetry_multiplicity
 _atom_site_fract_x
 _atom_site_fract_y
 _atom_site_fract_z
 _atom_site_fract_occupancy
 Li  Li1  1  0.50000  0.50000  0.00000  1
 Li  Li2  1  1.00000  0.50000  0.50000  1
 Li  Li3  1  0.99999  0.50000  1.00000  1
 Li  Li4  1  0.49999  0.99999  0.00000  1
 Ni  Ni1  1  0.50000  1.00000  0.50000  1
 Ni  Ni2  1  -0.00000  -0.00000  0.50000  1
 O  O1  1  0.50720  0.74596  0.73157  1
 O  O2  1  0.97926  0.74644  0.24647  1
 O  O3  1  0.52074  0.74647  0.24643  1
 O  O4  1  0.00721  0.76844  0.75404  1
 O  O5  1  0.99278  0.23156  0.24596  1
 O  O6  1  0.47926  0.25353  0.75357  1
 O  O7  1  0.02074  0.25356  0.75353  1
 O  O8  1  0.49279  0.25404  0.26844  1
 Ti  Ti1  1  0.50001  0.50001  0.49999  1
 Ti  Ti2  1  0.00001  0.00001  0.99999  1
