CIF file written using JARVIS-Tools package.
data_NaAsF6
_symmetry_space_group_name_H-M  'R-3'
_cell_length_a       5.09224
_cell_length_b       5.09224
_cell_length_c       5.59902
_cell_angle_alpha    62.9515
_cell_angle_beta     62.9515
_cell_angle_gamma    60

_symmetry_Int_Tables_number  148
_chemical_formula_structural  NaAsF6
_chemical_formula_sum  NaAsF6
_cell_volume  107.00700243061314
_cell_formula_units_Z  1
loop_
  _symmetry_equiv_pos_site_id
 _symmetry_equiv_pos_as_xyz
 1  'x, y, z'
loop_
 _atom_site_type_symbol
 _atom_site_label
 _atom_site_symmetry_multiplicity
 _atom_site_fract_x
 _atom_site_fract_y
 _atom_site_fract_z
 _atom_site_fract_occupancy
 As  As1  1  0.00000  0.00000  0.00000  1
 F  F1  1  0.35980  0.79232  0.78451  1
 F  F2  1  0.79232  0.06338  0.78451  1
 F  F3  1  0.06338  0.35980  0.78451  1
 F  F4  1  0.64020  0.20768  0.21549  1
 F  F5  1  0.20768  0.93662  0.21549  1
 F  F6  1  0.93662  0.64020  0.21549  1
 Na  Na1  1  0.50000  0.50000  0.50000  1
