CIF file written using JARVIS-Tools package.
data_Na2LiB5P2O14
_symmetry_space_group_name_H-M  'P2_1/m'
_cell_length_a       8.24776
_cell_length_b       9.21572
_cell_length_c       8.38957
_cell_angle_alpha    90
_cell_angle_beta     115.77
_cell_angle_gamma    90

_symmetry_Int_Tables_number  11
_chemical_formula_structural  Na2LiB5P2O14
_chemical_formula_sum  Na4Li2B0P4O28
_cell_volume  574.264138286029
_cell_formula_units_Z  2
loop_
  _symmetry_equiv_pos_site_id
 _symmetry_equiv_pos_as_xyz
 1  'x, y, z'
loop_
 _atom_site_type_symbol
 _atom_site_label
 _atom_site_symmetry_multiplicity
 _atom_site_fract_x
 _atom_site_fract_y
 _atom_site_fract_z
 _atom_site_fract_occupancy
 B  B1  1  0.94664  0.25000  0.35092  1
 B  B2  1  0.26646  0.25000  0.54524  1
 B  B3  1  0.73354  0.75000  0.45476  1
 B  B4  1  0.72290  0.75000  0.90450  1
 B  B5  1  0.39110  0.75000  0.79963  1
 B  B6  1  0.60890  0.25000  0.20037  1
 B  B7  1  0.58426  0.75000  0.11622  1
 B  B8  1  0.41574  0.25000  0.88378  1
 B  B9  1  0.05336  0.75000  0.64908  1
 B  B10  1  0.27710  0.25000  0.09550  1
 Li  Li1  1  0.01621  0.25000  0.71673  1
 Li  Li2  1  0.98379  0.75000  0.28327  1
 Na  Na1  1  0.60329  0.25000  0.53719  1
 Na  Na2  1  0.83780  0.25000  0.96155  1
 Na  Na3  1  0.39671  0.75000  0.46281  1
 Na  Na4  1  0.16220  0.75000  0.03845  1
 O  O1  1  0.29785  0.11783  0.45086  1
 O  O2  1  0.18145  0.11758  0.11266  1
 O  O3  1  0.81855  0.61758  0.88734  1
 O  O4  1  0.81855  0.88242  0.88734  1
 O  O5  1  0.18145  0.38242  0.11266  1
 O  O6  1  0.03491  0.61782  0.75048  1
 O  O7  1  0.96509  0.38218  0.24952  1
 O  O8  1  0.03491  0.88218  0.75048  1
 O  O9  1  0.58856  0.25000  0.02613  1
 O  O10  1  0.70215  0.61783  0.54914  1
 O  O11  1  0.70215  0.88217  0.54914  1
 O  O12  1  0.29785  0.38217  0.45086  1
 O  O13  1  0.84620  0.39387  0.73302  1
 O  O14  1  0.96509  0.11782  0.24952  1
 O  O15  1  0.15380  0.60613  0.26698  1
 O  O16  1  0.53983  0.75000  0.76857  1
 O  O17  1  0.58826  0.75000  0.27964  1
 O  O18  1  0.08669  0.25000  0.52890  1
 O  O19  1  0.91331  0.75000  0.47110  1
 O  O20  1  0.26585  0.25000  0.91560  1
 O  O21  1  0.73415  0.75000  0.08440  1
 O  O22  1  0.46017  0.25000  0.23143  1
 O  O23  1  0.15380  0.89387  0.26698  1
 O  O24  1  0.77092  0.25000  0.34444  1
 O  O25  1  0.22908  0.75000  0.65556  1
 O  O26  1  0.84620  0.10613  0.73302  1
 O  O27  1  0.41174  0.25000  0.72036  1
 O  O28  1  0.41144  0.75000  0.97387  1
 P  P1  1  0.84872  0.94355  0.72782  1
 P  P2  1  0.15128  0.44355  0.27218  1
 P  P3  1  0.84872  0.55645  0.72782  1
 P  P4  1  0.15128  0.05645  0.27218  1
