CIF file written using JARVIS-Tools package.
data_K2H4Pd
_symmetry_space_group_name_H-M  'I4/mmm'
_cell_length_a       5.59534
_cell_length_b       5.59534
_cell_length_c       5.59534
_cell_angle_alpha    117.578
_cell_angle_beta     117.578
_cell_angle_gamma    94.2487

_symmetry_Int_Tables_number  139
_chemical_formula_structural  K2H4Pd
_chemical_formula_sum  K2H4Pd
_cell_volume  128.0225033058036
_cell_formula_units_Z  1
loop_
  _symmetry_equiv_pos_site_id
 _symmetry_equiv_pos_as_xyz
 1  'x, y, z'
loop_
 _atom_site_type_symbol
 _atom_site_label
 _atom_site_symmetry_multiplicity
 _atom_site_fract_x
 _atom_site_fract_y
 _atom_site_fract_z
 _atom_site_fract_occupancy
 H  H1  1  0.20327  0.20327  0.40653  1
 H  H2  1  0.79673  0.79673  0.59347  1
 H  H3  1  0.20327  0.79673  -0.00000  1
 H  H4  1  0.79673  0.20327  -0.00000  1
 K  K1  1  0.25000  0.75000  0.50000  1
 K  K2  1  0.75000  0.25000  0.50000  1
 Pd  Pd1  1  0.00000  0.00000  0.00000  1
