CIF file written using JARVIS-Tools package.
data_Fe3S4
_symmetry_space_group_name_H-M  'R-3m'
_cell_length_a       10.9405
_cell_length_b       10.9405
_cell_length_c       10.9405
_cell_angle_alpha    17.3858
_cell_angle_beta     17.3858
_cell_angle_gamma    17.3858

_symmetry_Int_Tables_number  166
_chemical_formula_structural  Fe3S4
_chemical_formula_sum  Fe3S4
_cell_volume  102.03207600635223
_cell_formula_units_Z  1
loop_
  _symmetry_equiv_pos_site_id
 _symmetry_equiv_pos_as_xyz
 1  'x, y, z'
loop_
 _atom_site_type_symbol
 _atom_site_label
 _atom_site_symmetry_multiplicity
 _atom_site_fract_x
 _atom_site_fract_y
 _atom_site_fract_z
 _atom_site_fract_occupancy
 Fe  Fe1  1  0.58411  0.58411  0.58411  1
 Fe  Fe2  1  0.41589  0.41589  0.41589  1
 Fe  Fe3  1  0.50000  0.50000  0.50000  1
 S  S1  1  0.87210  0.87210  0.87210  1
 S  S2  1  0.12790  0.12790  0.12790  1
 S  S3  1  0.71363  0.71363  0.71363  1
 S  S4  1  0.28637  0.28637  0.28637  1
