CIF file written using JARVIS-Tools package.
data_TaCuO3
_symmetry_space_group_name_H-M  'C2/m'
_cell_length_a       6.43071
_cell_length_b       6.43071
_cell_length_c       6.82067
_cell_angle_alpha    89.6131
_cell_angle_beta     90.3869
_cell_angle_gamma    96.1568

_symmetry_Int_Tables_number  12
_chemical_formula_structural  TaCuO3
_chemical_formula_sum  Ta4Cu4O2
_cell_volume  280.4235817414094
_cell_formula_units_Z  4
loop_
  _symmetry_equiv_pos_site_id
 _symmetry_equiv_pos_as_xyz
 1  'x, y, z'
loop_
 _atom_site_type_symbol
 _atom_site_label
 _atom_site_symmetry_multiplicity
 _atom_site_fract_x
 _atom_site_fract_y
 _atom_site_fract_z
 _atom_site_fract_occupancy
 Cu  Cu1  1  0.22486  0.77515  0.70907  1
 Cu  Cu2  1  0.15928  0.15928  0.50000  1
 Cu  Cu3  1  0.84072  0.84072  0.50000  1
 Cu  Cu4  1  0.77515  0.22486  0.29093  1
 O  O1  1  0.79201  0.53056  0.89079  1
 O  O2  1  0.12932  0.87068  0.94458  1
 O  O3  1  0.67943  0.32057  0.51855  1
 O  O4  1  0.20799  0.46944  0.10921  1
 O  O5  1  0.53056  0.79201  0.10921  1
 O  O6  1  0.32057  0.67943  0.48145  1
 O  O7  1  0.74032  0.93301  0.74018  1
 O  O8  1  0.87068  0.12932  0.05542  1
 O  O9  1  0.25968  0.06699  0.25982  1
 O  O10  1  0.06699  0.25968  0.74018  1
 O  O11  1  0.46944  0.20799  0.89079  1
 O  O12  1  0.93301  0.74032  0.25982  1
 Ta  Ta1  1  0.74711  0.25289  0.76927  1
 Ta  Ta2  1  0.79987  0.79987  -0.00000  1
 Ta  Ta3  1  0.20013  0.20013  -0.00000  1
 Ta  Ta4  1  0.25289  0.74711  0.23073  1
