CIF file written using JARVIS-Tools package.
data_Be2GaPd
_symmetry_space_group_name_H-M  'I-4m2'
_cell_length_a       4.48859
_cell_length_b       4.48859
_cell_length_c       4.48859
_cell_angle_alpha    133.448
_cell_angle_beta     133.448
_cell_angle_gamma    67.9508

_symmetry_Int_Tables_number  119
_chemical_formula_structural  Be2GaPd
_chemical_formula_sum  Be2GaPd
_cell_volume  46.84164231032227
_cell_formula_units_Z  1
loop_
  _symmetry_equiv_pos_site_id
 _symmetry_equiv_pos_as_xyz
 1  'x, y, z'
loop_
 _atom_site_type_symbol
 _atom_site_label
 _atom_site_symmetry_multiplicity
 _atom_site_fract_x
 _atom_site_fract_y
 _atom_site_fract_z
 _atom_site_fract_occupancy
 Be  Be1  1  0.00000  0.00000  0.00000  1
 Be  Be2  1  0.25000  0.75000  0.50000  1
 Ga  Ga1  1  0.50000  0.50000  0.00000  1
 Pd  Pd1  1  0.75000  0.25000  0.50000  1
