CIF file written using JARVIS-Tools package.
data_Li2CoSiO4
_symmetry_space_group_name_H-M  'I-42m'
_cell_length_a       4.34192
_cell_length_b       4.34195
_cell_length_c       5.30293
_cell_angle_alpha    114.166
_cell_angle_beta     114.166
_cell_angle_gamma    90.0001

_symmetry_Int_Tables_number  121
_chemical_formula_structural  Li2CoSiO4
_chemical_formula_sum  Li2CoSiO4
_cell_volume  81.51351559365261
_cell_formula_units_Z  1
loop_
  _symmetry_equiv_pos_site_id
 _symmetry_equiv_pos_as_xyz
 1  'x, y, z'
loop_
 _atom_site_type_symbol
 _atom_site_label
 _atom_site_symmetry_multiplicity
 _atom_site_fract_x
 _atom_site_fract_y
 _atom_site_fract_z
 _atom_site_fract_occupancy
 Co  Co1  1  0.49829  0.49962  0.99597  1
 Li  Li1  1  0.74832  0.24961  0.49597  1
 Li  Li2  1  0.24832  0.74961  0.49597  1
 O  O1  1  0.66709  0.10473  0.76988  1
 O  O2  1  0.32951  0.33082  0.22208  1
 O  O3  1  0.10340  0.66841  0.76986  1
 O  O4  1  0.89319  0.89450  0.22207  1
 Si  Si1  1  0.99830  -0.00039  0.99597  1
