CIF file written using JARVIS-Tools package.
data_ZrBeW
_symmetry_space_group_name_H-M  'I4mm'
_cell_length_a       6.35719
_cell_length_b       6.35719
_cell_length_c       6.35719
_cell_angle_alpha    154.786
_cell_angle_beta     154.786
_cell_angle_gamma    35.9577

_symmetry_Int_Tables_number  107
_chemical_formula_structural  ZrBeW
_chemical_formula_sum  ZrBeW
_cell_volume  46.56540972149135
_cell_formula_units_Z  1
loop_
  _symmetry_equiv_pos_site_id
 _symmetry_equiv_pos_as_xyz
 1  'x, y, z'
loop_
 _atom_site_type_symbol
 _atom_site_label
 _atom_site_symmetry_multiplicity
 _atom_site_fract_x
 _atom_site_fract_y
 _atom_site_fract_z
 _atom_site_fract_occupancy
 Be  Be1  1  0.99156  0.99156  -0.00000  1
 W  W1  1  0.35738  0.35738  -0.00000  1
 Zr  Zr1  1  0.65106  0.65106  0.00000  1
