CIF file written using JARVIS-Tools package.
data_TlBO2
_symmetry_space_group_name_H-M  'P4_1'
_cell_length_a       7.40939
_cell_length_b       7.40939
_cell_length_c       9.44019
_cell_angle_alpha    90
_cell_angle_beta     90
_cell_angle_gamma    90

_symmetry_Int_Tables_number  76
_chemical_formula_structural  TlBO2
_chemical_formula_sum  Tl8B8O6
_cell_volume  518.2579047691768
_cell_formula_units_Z  8
loop_
  _symmetry_equiv_pos_site_id
 _symmetry_equiv_pos_as_xyz
 1  'x, y, z'
loop_
 _atom_site_type_symbol
 _atom_site_label
 _atom_site_symmetry_multiplicity
 _atom_site_fract_x
 _atom_site_fract_y
 _atom_site_fract_z
 _atom_site_fract_occupancy
 B  B1  1  0.54220  0.13480  0.66951  1
 B  B2  1  0.13480  0.45780  0.41951  1
 B  B3  1  0.45780  0.86520  0.16951  1
 B  B4  1  0.86520  0.54220  0.91951  1
 B  B5  1  0.45375  0.40538  0.52004  1
 B  B6  1  0.59462  0.45375  0.77004  1
 B  B7  1  0.54625  0.59462  0.02004  1
 B  B8  1  0.40538  0.54625  0.27004  1
 O  O1  1  0.25306  0.42501  0.53256  1
 O  O2  1  0.95502  0.44255  0.44052  1
 O  O3  1  0.46111  0.48530  0.12986  1
 O  O4  1  0.53889  0.51470  0.62986  1
 O  O5  1  0.51470  0.46111  0.37986  1
 O  O6  1  0.79026  0.49996  0.78843  1
 O  O7  1  0.50004  0.79026  0.03843  1
 O  O8  1  0.42501  0.74694  0.28256  1
 O  O9  1  0.74694  0.57499  0.03256  1
 O  O10  1  0.57499  0.25306  0.78256  1
 O  O11  1  0.55745  0.95502  0.69052  1
 O  O12  1  0.48530  0.53889  0.87986  1
 O  O13  1  0.04498  0.55745  0.94052  1
 O  O14  1  0.49996  0.20974  0.53843  1
 O  O15  1  0.20974  0.50004  0.28843  1
 O  O16  1  0.44255  0.04498  0.19052  1
 Tl  Tl1  1  0.73633  0.26499  0.24599  1
 Tl  Tl2  1  0.74309  0.97728  0.90859  1
 Tl  Tl3  1  0.02272  0.74309  0.15859  1
 Tl  Tl4  1  0.97728  0.25691  0.65859  1
 Tl  Tl5  1  0.25691  0.02272  0.40859  1
 Tl  Tl6  1  0.73501  0.73633  0.49599  1
 Tl  Tl7  1  0.26367  0.73501  0.74599  1
 Tl  Tl8  1  0.26499  0.26367  0.99599  1
