CIF file written using JARVIS-Tools package.
data_NaBeMo
_symmetry_space_group_name_H-M  'I4mm'
_cell_length_a       7.2802
_cell_length_b       7.2802
_cell_length_c       7.2802
_cell_angle_alpha    159.207
_cell_angle_beta     159.207
_cell_angle_gamma    29.5714

_symmetry_Int_Tables_number  107
_chemical_formula_structural  NaBeMo
_chemical_formula_sum  NaBeMo
_cell_volume  48.59688051418918
_cell_formula_units_Z  1
loop_
  _symmetry_equiv_pos_site_id
 _symmetry_equiv_pos_as_xyz
 1  'x, y, z'
loop_
 _atom_site_type_symbol
 _atom_site_label
 _atom_site_symmetry_multiplicity
 _atom_site_fract_x
 _atom_site_fract_y
 _atom_site_fract_z
 _atom_site_fract_occupancy
 Be  Be1  1  0.98140  0.98140  0.00000  1
 Mo  Mo1  1  0.35816  0.35816  -0.00000  1
 Na  Na1  1  0.66043  0.66043  -0.00000  1
