CIF file written using JARVIS-Tools package.
data_LuGeAu
_symmetry_space_group_name_H-M  'P6_3mc'
_cell_length_a       4.42124
_cell_length_b       4.42124
_cell_length_c       7.1529
_cell_angle_alpha    90
_cell_angle_beta     90
_cell_angle_gamma    120

_symmetry_Int_Tables_number  186
_chemical_formula_structural  LuGeAu
_chemical_formula_sum  Lu2Ge2Au2
_cell_volume  121.0881854534522
_cell_formula_units_Z  2
loop_
  _symmetry_equiv_pos_site_id
 _symmetry_equiv_pos_as_xyz
 1  'x, y, z'
loop_
 _atom_site_type_symbol
 _atom_site_label
 _atom_site_symmetry_multiplicity
 _atom_site_fract_x
 _atom_site_fract_y
 _atom_site_fract_z
 _atom_site_fract_occupancy
 Au  Au1  1  0.33333  0.66667  0.69511  1
 Au  Au2  1  0.66667  0.33333  0.19511  1
 Ge  Ge1  1  0.66667  0.33333  0.79084  1
 Ge  Ge2  1  0.33333  0.66667  0.29084  1
 Lu  Lu1  1  0.00000  0.00000  0.49674  1
 Lu  Lu2  1  0.00000  0.00000  0.99674  1
