CIF file written using JARVIS-Tools package.
data_Li2MnSiO4
_symmetry_space_group_name_H-M  'C222_1'
_cell_length_a       5.33974
_cell_length_b       5.33974
_cell_length_c       6.25413
_cell_angle_alpha    90
_cell_angle_beta     90
_cell_angle_gamma    92.7683

_symmetry_Int_Tables_number  20
_chemical_formula_structural  Li2MnSiO4
_chemical_formula_sum  Li4Mn2Si2O8
_cell_volume  178.11484915649137
_cell_formula_units_Z  2
loop_
  _symmetry_equiv_pos_site_id
 _symmetry_equiv_pos_as_xyz
 1  'x, y, z'
loop_
 _atom_site_type_symbol
 _atom_site_label
 _atom_site_symmetry_multiplicity
 _atom_site_fract_x
 _atom_site_fract_y
 _atom_site_fract_z
 _atom_site_fract_occupancy
 Li  Li1  1  0.31181  0.68819  0.50000  1
 Li  Li2  1  0.18063  0.18063  0.75000  1
 Li  Li3  1  0.81937  0.81937  0.25000  1
 Li  Li4  1  0.68819  0.31181  0.00000  1
 Mn  Mn1  1  0.32262  0.67738  0.00000  1
 Mn  Mn2  1  0.67738  0.32262  0.50000  1
 O  O1  1  0.20354  0.86634  0.25589  1
 O  O2  1  0.13366  0.79646  0.74411  1
 O  O3  1  0.30866  0.29311  0.03242  1
 O  O4  1  0.70689  0.69134  0.96758  1
 O  O5  1  0.29311  0.30866  0.46758  1
 O  O6  1  0.69134  0.70689  0.53242  1
 O  O7  1  0.79646  0.13366  0.75589  1
 O  O8  1  0.86634  0.20354  0.24411  1
 Si  Si1  1  0.17338  0.17338  0.25000  1
 Si  Si2  1  0.82662  0.82662  0.75000  1
