CIF file written using JARVIS-Tools package.
data_LiFe3O6
_symmetry_space_group_name_H-M  'C2/m'
_cell_length_a       5.11938
_cell_length_b       4.82956
_cell_length_c       4.82933
_cell_angle_alpha    60.0015
_cell_angle_beta     72.0308
_cell_angle_gamma    81.1269

_symmetry_Int_Tables_number  12
_chemical_formula_structural  LiFe3O6
_chemical_formula_sum  LiFe3O6
_cell_volume  98.36306478847713
_cell_formula_units_Z  1
loop_
  _symmetry_equiv_pos_site_id
 _symmetry_equiv_pos_as_xyz
 1  'x, y, z'
loop_
 _atom_site_type_symbol
 _atom_site_label
 _atom_site_symmetry_multiplicity
 _atom_site_fract_x
 _atom_site_fract_y
 _atom_site_fract_z
 _atom_site_fract_occupancy
 Fe  Fe1  1  0.50000  0.33333  0.83333  1
 Fe  Fe2  1  0.50000  -0.00777  0.50389  1
 Fe  Fe3  1  0.50000  0.67444  0.16278  1
 Li  Li1  1  0.00000  0.33333  0.33333  1
 O  O1  1  0.70962  0.00572  0.75904  1
 O  O2  1  0.70962  0.66095  0.43143  1
 O  O3  1  0.70385  0.33333  0.10591  1
 O  O4  1  0.29038  0.66095  0.90763  1
 O  O5  1  0.29615  0.33333  0.56076  1
 O  O6  1  0.29038  0.00572  0.23524  1
