CIF file written using JARVIS-Tools package.
data_K2CoH2Se2O10
_symmetry_space_group_name_H-M  'P-1'
_cell_length_a       5.24614
_cell_length_b       6.77623
_cell_length_c       7.40114
_cell_angle_alpha    105.483
_cell_angle_beta     99.3977
_cell_angle_gamma    107.351

_symmetry_Int_Tables_number  2
_chemical_formula_structural  K2CoH2Se2O10
_chemical_formula_sum  K2CoH2Se2O0
_cell_volume  233.42839857877647
_cell_formula_units_Z  1
loop_
  _symmetry_equiv_pos_site_id
 _symmetry_equiv_pos_as_xyz
 1  'x, y, z'
loop_
 _atom_site_type_symbol
 _atom_site_label
 _atom_site_symmetry_multiplicity
 _atom_site_fract_x
 _atom_site_fract_y
 _atom_site_fract_z
 _atom_site_fract_occupancy
 Co  Co1  1  0.00000  0.00000  0.00000  1
 H  H1  1  0.94975  0.02104  0.31074  1
 H  H2  1  0.05025  0.97896  0.68926  1
 K  K1  1  0.32493  0.68624  0.26669  1
 K  K2  1  0.67507  0.31376  0.73331  1
 O  O1  1  0.33178  0.88808  0.63856  1
 O  O2  1  0.08099  0.97844  0.24022  1
 O  O3  1  0.26087  0.47361  0.65471  1
 O  O4  1  0.66822  0.11192  0.36144  1
 O  O5  1  0.62291  0.81834  0.96945  1
 O  O6  1  0.07991  0.73535  0.90009  1
 O  O7  1  0.73913  0.52639  0.34529  1
 O  O8  1  0.92009  0.26465  0.09991  1
 O  O9  1  0.37709  0.18166  0.03055  1
 O  O10  1  0.91901  0.02156  0.75978  1
 Se  Se1  1  0.66627  0.26653  0.22299  1
 Se  Se2  1  0.33373  0.73347  0.77701  1
