CIF file written using JARVIS-Tools package.
data_BaMo6S8
_symmetry_space_group_name_H-M  'R-3'
_cell_length_a       6.69313
_cell_length_b       6.69312
_cell_length_c       6.69313
_cell_angle_alpha    88.4703
_cell_angle_beta     88.4702
_cell_angle_gamma    88.4703

_symmetry_Int_Tables_number  148
_chemical_formula_structural  BaMo6S8
_chemical_formula_sum  BaMo6S8
_cell_volume  299.52303721045973
_cell_formula_units_Z  1
loop_
  _symmetry_equiv_pos_site_id
 _symmetry_equiv_pos_as_xyz
 1  'x, y, z'
loop_
 _atom_site_type_symbol
 _atom_site_label
 _atom_site_symmetry_multiplicity
 _atom_site_fract_x
 _atom_site_fract_y
 _atom_site_fract_z
 _atom_site_fract_occupancy
 Ba  Ba1  1  0.00000  0.00000  0.00000  1
 Mo  Mo1  1  0.43415  0.76423  0.58306  1
 Mo  Mo2  1  0.76423  0.58306  0.43415  1
 Mo  Mo3  1  0.58306  0.43415  0.76423  1
 Mo  Mo4  1  0.56585  0.23577  0.41694  1
 Mo  Mo5  1  0.23577  0.41694  0.56585  1
 Mo  Mo6  1  0.41694  0.56585  0.23577  1
 S  S1  1  0.74809  0.74809  0.74809  1
 S  S2  1  0.25191  0.25191  0.25191  1
 S  S3  1  0.60841  0.87735  0.26360  1
 S  S4  1  0.87735  0.26360  0.60841  1
 S  S5  1  0.26360  0.60841  0.87735  1
 S  S6  1  0.39159  0.12265  0.73640  1
 S  S7  1  0.12265  0.73640  0.39159  1
 S  S8  1  0.73640  0.39159  0.12265  1
