CIF file written using JARVIS-Tools package.
data_CoTeO4
_symmetry_space_group_name_H-M  'P2/m'
_cell_length_a       4.75978
_cell_length_b       9.51226
_cell_length_c       8.98898
_cell_angle_alpha    19.0917
_cell_angle_beta     34.0292
_cell_angle_gamma    38.449

_symmetry_Int_Tables_number  10
_chemical_formula_structural  CoTeO4
_chemical_formula_sum  CoTeO4
_cell_volume  74.49479748608404
_cell_formula_units_Z  1
loop_
  _symmetry_equiv_pos_site_id
 _symmetry_equiv_pos_as_xyz
 1  'x, y, z'
loop_
 _atom_site_type_symbol
 _atom_site_label
 _atom_site_symmetry_multiplicity
 _atom_site_fract_x
 _atom_site_fract_y
 _atom_site_fract_z
 _atom_site_fract_occupancy
 Co  Co1  1  0.50000  0.50000  0.50000  1
 O  O1  1  0.20254  -0.00000  0.25005  1
 O  O2  1  0.28604  0.49999  0.22827  1
 O  O3  1  0.79746  0.00000  0.74995  1
 O  O4  1  0.71396  0.50001  0.77173  1
 Te  Te1  1  0.50000  -0.00000  0.50000  1
