CIF file written using JARVIS-Tools package.
data_Be12Nb
_symmetry_space_group_name_H-M  'I4/mmm'
_cell_length_a       4.20259
_cell_length_b       5.59838
_cell_length_c       5.59838
_cell_angle_alpha    81.9012
_cell_angle_beta     67.9547
_cell_angle_gamma    67.9547

_symmetry_Int_Tables_number  139
_chemical_formula_structural  Be12Nb
_chemical_formula_sum  Be2Nb
_cell_volume  113.16071260224632
_cell_formula_units_Z  1
loop_
  _symmetry_equiv_pos_site_id
 _symmetry_equiv_pos_as_xyz
 1  'x, y, z'
loop_
 _atom_site_type_symbol
 _atom_site_label
 _atom_site_symmetry_multiplicity
 _atom_site_fract_x
 _atom_site_fract_y
 _atom_site_fract_z
 _atom_site_fract_occupancy
 Be  Be1  1  0.50000  0.78212  0.21788  1
 Be  Be2  1  0.35216  0.64784  0.64784  1
 Be  Be3  1  0.00000  0.35216  0.64784  1
 Be  Be4  1  -0.00000  0.64784  0.35216  1
 Be  Be5  1  0.71788  0.78212  0.78212  1
 Be  Be6  1  0.50000  0.00000  0.50000  1
 Be  Be7  1  0.50000  0.21788  0.78212  1
 Be  Be8  1  0.64784  0.35216  0.35216  1
 Be  Be9  1  0.28212  0.21788  0.21788  1
 Be  Be10  1  0.50000  0.50000  0.00000  1
 Be  Be11  1  -0.00000  0.50000  0.00000  1
 Be  Be12  1  -0.00000  0.00000  0.50000  1
 Nb  Nb1  1  0.00000  0.00000  0.00000  1
