CIF file written using JARVIS-Tools package.
data_Fe2O3F
_symmetry_space_group_name_H-M  'Imma'
_cell_length_a       5.3191
_cell_length_b       5.3191
_cell_length_c       5.3191
_cell_angle_alpha    70.5822
_cell_angle_beta     104.648
_cell_angle_gamma    65.5016

_symmetry_Int_Tables_number  74
_chemical_formula_structural  Fe2O3F
_chemical_formula_sum  Fe4O6F2
_cell_volume  114.99183150561618
_cell_formula_units_Z  2
loop_
  _symmetry_equiv_pos_site_id
 _symmetry_equiv_pos_as_xyz
 1  'x, y, z'
loop_
 _atom_site_type_symbol
 _atom_site_label
 _atom_site_symmetry_multiplicity
 _atom_site_fract_x
 _atom_site_fract_y
 _atom_site_fract_z
 _atom_site_fract_occupancy
 F  F1  1  0.52404  0.25000  0.77404  1
 F  F2  1  0.47596  0.75000  0.22596  1
 Fe  Fe1  1  0.77787  0.75000  0.52787  1
 Fe  Fe2  1  0.22213  0.25000  0.47213  1
 Fe  Fe3  1  0.50000  0.50000  -0.00000  1
 Fe  Fe4  1  0.00000  0.00000  0.00000  1
 O  O1  1  0.06046  0.75000  0.81046  1
 O  O2  1  0.50000  0.80379  0.69621  1
 O  O3  1  0.00000  0.30379  0.69621  1
 O  O4  1  0.50000  0.19621  0.30379  1
 O  O5  1  0.00000  0.69621  0.30379  1
 O  O6  1  0.93954  0.25000  0.18954  1
