CIF file written using JARVIS-Tools package.
data_HPbIO
_symmetry_space_group_name_H-M  'Pnma'
_cell_length_a       4.229
_cell_length_b       7.82737
_cell_length_c       10.5589
_cell_angle_alpha    90
_cell_angle_beta     90
_cell_angle_gamma    90

_symmetry_Int_Tables_number  62
_chemical_formula_structural  HPbIO
_chemical_formula_sum  H4Pb4I4O4
_cell_volume  349.52094288258445
_cell_formula_units_Z  4
loop_
  _symmetry_equiv_pos_site_id
 _symmetry_equiv_pos_as_xyz
 1  'x, y, z'
loop_
 _atom_site_type_symbol
 _atom_site_label
 _atom_site_symmetry_multiplicity
 _atom_site_fract_x
 _atom_site_fract_y
 _atom_site_fract_z
 _atom_site_fract_occupancy
 H  H1  1  0.75000  0.19421  0.10979  1
 H  H2  1  0.75000  0.69421  0.39021  1
 H  H3  1  0.25000  0.80579  0.89021  1
 H  H4  1  0.25000  0.30579  0.60979  1
 I  I1  1  0.25000  0.45217  0.17931  1
 I  I2  1  0.25000  0.95217  0.32069  1
 I  I3  1  0.75000  0.54783  0.82069  1
 I  I4  1  0.75000  0.04783  0.67931  1
 O  O1  1  0.75000  0.11887  0.03544  1
 O  O2  1  0.75000  0.61887  0.46456  1
 O  O3  1  0.25000  0.88113  0.96456  1
 O  O4  1  0.25000  0.38113  0.53544  1
 Pb  Pb1  1  0.75000  0.31638  0.41852  1
 Pb  Pb2  1  0.75000  0.81638  0.08148  1
 Pb  Pb3  1  0.25000  0.68362  0.58148  1
 Pb  Pb4  1  0.25000  0.18362  0.91852  1
