CIF file written using JARVIS-Tools package.
data_Li5InO4
_symmetry_space_group_name_H-M  'Pmmn'
_cell_length_a       4.73487
_cell_length_b       6.50659
_cell_length_c       6.97521
_cell_angle_alpha    90
_cell_angle_beta     90
_cell_angle_gamma    90

_symmetry_Int_Tables_number  59
_chemical_formula_structural  Li5InO4
_chemical_formula_sum  Li0In2O8
_cell_volume  214.8915001759034
_cell_formula_units_Z  2
loop_
  _symmetry_equiv_pos_site_id
 _symmetry_equiv_pos_as_xyz
 1  'x, y, z'
loop_
 _atom_site_type_symbol
 _atom_site_label
 _atom_site_symmetry_multiplicity
 _atom_site_fract_x
 _atom_site_fract_y
 _atom_site_fract_z
 _atom_site_fract_occupancy
 In  In1  1  0.23303  0.00000  0.00000  1
 In  In2  1  0.76697  0.50000  0.50000  1
 Li  Li1  1  0.24418  0.74320  0.68961  1
 Li  Li2  1  0.24418  0.25680  0.68961  1
 Li  Li3  1  0.75890  0.00000  0.50000  1
 Li  Li4  1  0.24418  0.74320  0.31039  1
 Li  Li5  1  0.24418  0.25680  0.31039  1
 Li  Li6  1  0.75582  0.75680  0.18961  1
 Li  Li7  1  0.75582  0.24320  0.18961  1
 Li  Li8  1  0.24110  0.50000  0.00000  1
 Li  Li9  1  0.75582  0.24320  0.81039  1
 Li  Li10  1  0.75582  0.75680  0.81039  1
 O  O1  1  0.47426  0.73852  0.00000  1
 O  O2  1  0.47426  0.26148  0.00000  1
 O  O3  1  0.00733  0.50000  0.75179  1
 O  O4  1  0.52574  0.76148  0.50000  1
 O  O5  1  0.52574  0.23852  0.50000  1
 O  O6  1  0.00733  0.50000  0.24821  1
 O  O7  1  0.99267  0.00000  0.25179  1
 O  O8  1  0.99267  0.00000  0.74821  1
