CIF file written using JARVIS-Tools package.
data_VBiO3
_symmetry_space_group_name_H-M  'Pnma'
_cell_length_a       5.4549
_cell_length_b       5.66023
_cell_length_c       9.54845
_cell_angle_alpha    90
_cell_angle_beta     124.839
_cell_angle_gamma    90

_symmetry_Int_Tables_number  62
_chemical_formula_structural  VBiO3
_chemical_formula_sum  V4Bi4O2
_cell_volume  241.97439613784678
_cell_formula_units_Z  4
loop_
  _symmetry_equiv_pos_site_id
 _symmetry_equiv_pos_as_xyz
 1  'x, y, z'
loop_
 _atom_site_type_symbol
 _atom_site_label
 _atom_site_symmetry_multiplicity
 _atom_site_fract_x
 _atom_site_fract_y
 _atom_site_fract_z
 _atom_site_fract_occupancy
 Bi  Bi1  1  0.73944  0.95147  0.74998  1
 Bi  Bi2  1  0.26056  0.45147  0.75002  1
 Bi  Bi3  1  0.73944  0.54853  0.24998  1
 Bi  Bi4  1  0.26056  0.04853  0.25002  1
 O  O1  1  0.34591  0.29730  0.04441  1
 O  O2  1  0.15864  0.47432  0.25000  1
 O  O3  1  0.24298  0.79728  0.04444  1
 O  O4  1  0.34591  0.20270  0.54441  1
 O  O5  1  0.65409  0.70270  0.95559  1
 O  O6  1  0.75702  0.20272  0.95556  1
 O  O7  1  0.84136  0.97432  0.25000  1
 O  O8  1  0.84136  0.52568  0.75000  1
 O  O9  1  0.75702  0.29728  0.45556  1
 O  O10  1  0.24298  0.70272  0.54444  1
 O  O11  1  0.65409  0.79730  0.45559  1
 O  O12  1  0.15864  0.02568  0.75000  1
 V  V1  1  0.50000  0.00000  -0.00000  1
 V  V2  1  -0.00000  0.00000  0.50000  1
 V  V3  1  0.00000  0.50000  0.00000  1
 V  V4  1  0.50000  0.50000  0.50000  1
