CIF file written using JARVIS-Tools package.
data_Li2MnSi2O6
_symmetry_space_group_name_H-M  'Fdd2'
_cell_length_a       5.14678
_cell_length_b       5.14673
_cell_length_c       10.3199
_cell_angle_alpha    75.4245
_cell_angle_beta     75.4251
_cell_angle_gamma    89.1299

_symmetry_Int_Tables_number  43
_chemical_formula_structural  Li2MnSi2O6
_chemical_formula_sum  Li4Mn2Si4O2
_cell_volume  255.71324996972808
_cell_formula_units_Z  2
loop_
  _symmetry_equiv_pos_site_id
 _symmetry_equiv_pos_as_xyz
 1  'x, y, z'
loop_
 _atom_site_type_symbol
 _atom_site_label
 _atom_site_symmetry_multiplicity
 _atom_site_fract_x
 _atom_site_fract_y
 _atom_site_fract_z
 _atom_site_fract_occupancy
 Li  Li1  1  0.93160  0.36590  0.16633  1
 Li  Li2  1  0.84755  0.78151  0.33482  1
 Li  Li3  1  0.21725  0.15121  0.66613  1
 Li  Li4  1  0.63286  0.06717  0.83462  1
 Mn  Mn1  1  0.78870  0.21006  0.50047  1
 Mn  Mn2  1  0.03835  -0.03959  0.00047  1
 O  O1  1  -0.02407  0.23565  0.82794  1
 O  O2  1  0.76311  0.02283  0.17302  1
 O  O3  1  0.27114  0.75627  0.27899  1
 O  O4  1  0.29953  0.28463  0.22183  1
 O  O5  1  0.40849  0.04333  0.01404  1
 O  O6  1  0.17204  0.30803  0.48668  1
 O  O7  1  0.69073  0.82671  0.51427  1
 O  O8  1  0.24248  0.72763  0.72197  1
 O  O9  1  0.71412  0.69923  0.77913  1
 O  O10  1  0.68543  0.44538  0.32818  1
 O  O11  1  0.55338  0.31333  0.67278  1
 O  O12  1  0.95542  0.59027  -0.01308  1
 Si  Si1  1  -0.02909  0.54923  0.83490  1
 Si  Si2  1  0.55494  0.63372  0.66606  1
 Si  Si3  1  0.36504  0.44382  0.33489  1
 Si  Si4  1  0.44953  0.02785  0.16605  1
