CIF file written using JARVIS-Tools package.
data_SrAl2H2
_symmetry_space_group_name_H-M  'P-3m1'
_cell_length_a       4.53423
_cell_length_b       4.53436
_cell_length_c       4.74568
_cell_angle_alpha    90
_cell_angle_beta     90.0012
_cell_angle_gamma    120.001

_symmetry_Int_Tables_number  164
_chemical_formula_structural  SrAl2H2
_chemical_formula_sum  SrAl2H2
_cell_volume  84.49760657359174
_cell_formula_units_Z  1
loop_
  _symmetry_equiv_pos_site_id
 _symmetry_equiv_pos_as_xyz
 1  'x, y, z'
loop_
 _atom_site_type_symbol
 _atom_site_label
 _atom_site_symmetry_multiplicity
 _atom_site_fract_x
 _atom_site_fract_y
 _atom_site_fract_z
 _atom_site_fract_occupancy
 Al  Al1  1  0.66667  0.33333  0.53966  1
 Al  Al2  1  0.33333  0.66667  0.46034  1
 H  H1  1  0.66666  0.33333  0.90207  1
 H  H2  1  0.33334  0.66667  0.09793  1
 Sr  Sr1  1  0.00000  0.00000  0.00000  1
