CIF file written using JARVIS-Tools package.
data_LiNiPO4
_symmetry_space_group_name_H-M  'R-3'
_cell_length_a       4.89868
_cell_length_b       8.18325
_cell_length_c       4.89868
_cell_angle_alpha    72.5838
_cell_angle_beta     60
_cell_angle_gamma    90

_symmetry_Int_Tables_number  148
_chemical_formula_structural  LiNiPO4
_chemical_formula_sum  Li2Ni2P2O8
_cell_volume  159.58491882800143
_cell_formula_units_Z  2
loop_
  _symmetry_equiv_pos_site_id
 _symmetry_equiv_pos_as_xyz
 1  'x, y, z'
loop_
 _atom_site_type_symbol
 _atom_site_label
 _atom_site_symmetry_multiplicity
 _atom_site_fract_x
 _atom_site_fract_y
 _atom_site_fract_z
 _atom_site_fract_occupancy
 Li  Li1  1  0.43757  0.31271  0.12486  1
 Li  Li2  1  0.13794  0.41381  0.72412  1
 Ni  Ni1  1  0.01362  0.04086  0.97276  1
 Ni  Ni2  1  0.56189  0.68566  0.87623  1
 O  O1  1  0.15885  0.53177  0.02740  1
 O  O2  1  0.01634  0.19474  0.56700  1
 O  O3  1  0.55916  0.53177  0.28199  1
 O  O4  1  0.41665  0.19474  0.82160  1
 O  O5  1  0.76174  0.19474  0.22191  1
 O  O6  1  0.93255  0.79765  0.13490  1
 O  O7  1  0.64295  0.92886  0.71409  1
 O  O8  1  0.81375  0.53177  0.62708  1
 P  P1  1  0.86594  0.59782  0.26812  1
 P  P2  1  0.70956  0.12869  0.58087  1
