CIF file written using JARVIS-Tools package.
data_HoCoGe2
_symmetry_space_group_name_H-M  'Cmcm'
_cell_length_a       4.16096
_cell_length_b       4.10449
_cell_length_c       8.52274
_cell_angle_alpha    103.934
_cell_angle_beta     90
_cell_angle_gamma    90

_symmetry_Int_Tables_number  63
_chemical_formula_structural  HoCoGe2
_chemical_formula_sum  Ho2Co2Ge4
_cell_volume  141.27363577549136
_cell_formula_units_Z  2
loop_
  _symmetry_equiv_pos_site_id
 _symmetry_equiv_pos_as_xyz
 1  'x, y, z'
loop_
 _atom_site_type_symbol
 _atom_site_label
 _atom_site_symmetry_multiplicity
 _atom_site_fract_x
 _atom_site_fract_y
 _atom_site_fract_z
 _atom_site_fract_occupancy
 Co  Co1  1  0.75000  0.31975  0.63950  1
 Co  Co2  1  0.25000  0.68025  0.36050  1
 Ge  Ge1  1  0.75000  0.45580  0.91160  1
 Ge  Ge2  1  0.25000  0.54420  0.08840  1
 Ge  Ge3  1  0.75000  0.74890  0.49780  1
 Ge  Ge4  1  0.25000  0.25110  0.50220  1
 Ho  Ho1  1  0.75000  0.10963  0.21926  1
 Ho  Ho2  1  0.25000  0.89037  0.78074  1
