CIF file written using JARVIS-Tools package.
data_Mg6CdMo
_symmetry_space_group_name_H-M  'Amm2'
_cell_length_a       6.03839
_cell_length_b       6.0384
_cell_length_c       4.55324
_cell_angle_alpha    90
_cell_angle_beta     90
_cell_angle_gamma    103.883

_symmetry_Int_Tables_number  38
_chemical_formula_structural  Mg6CdMo
_chemical_formula_sum  Mg6CdMo
_cell_volume  161.17116393838504
_cell_formula_units_Z  1
loop_
  _symmetry_equiv_pos_site_id
 _symmetry_equiv_pos_as_xyz
 1  'x, y, z'
loop_
 _atom_site_type_symbol
 _atom_site_label
 _atom_site_symmetry_multiplicity
 _atom_site_fract_x
 _atom_site_fract_y
 _atom_site_fract_z
 _atom_site_fract_occupancy
 Cd  Cd1  1  0.33076  0.16924  0.75000  1
 Mg  Mg1  1  0.15916  0.88829  0.25000  1
 Mg  Mg2  1  0.61171  0.34084  0.25000  1
 Mg  Mg3  1  0.66025  0.83975  0.25000  1
 Mg  Mg4  1  0.37719  0.64711  0.75000  1
 Mg  Mg5  1  0.85289  0.12281  0.75000  1
 Mg  Mg6  1  0.89432  0.60568  0.75000  1
 Mo  Mo1  1  0.11373  0.38627  0.25000  1
