CIF file written using JARVIS-Tools package.
data_HfMg6Co
_symmetry_space_group_name_H-M  'Amm2'
_cell_length_a       6.34513
_cell_length_b       5.73658
_cell_length_c       4.86763
_cell_angle_alpha    90
_cell_angle_beta     90
_cell_angle_gamma    116.875

_symmetry_Int_Tables_number  38
_chemical_formula_structural  HfMg6Co
_chemical_formula_sum  HfMg6Co
_cell_volume  158.04233632643312
_cell_formula_units_Z  1
loop_
  _symmetry_equiv_pos_site_id
 _symmetry_equiv_pos_as_xyz
 1  'x, y, z'
loop_
 _atom_site_type_symbol
 _atom_site_label
 _atom_site_symmetry_multiplicity
 _atom_site_fract_x
 _atom_site_fract_y
 _atom_site_fract_z
 _atom_site_fract_occupancy
 Co  Co1  1  0.18585  0.34292  0.25000  1
 Hf  Hf1  1  0.13622  0.81811  0.25000  1
 Mg  Mg1  1  0.63878  0.32208  0.25000  1
 Mg  Mg2  1  0.63878  0.81670  0.25000  1
 Mg  Mg3  1  0.33555  0.17058  0.75000  1
 Mg  Mg4  1  0.33555  0.66497  0.75000  1
 Mg  Mg5  1  0.89478  0.19739  0.75000  1
 Mg  Mg6  1  0.83450  0.66725  0.75000  1
