CIF file written using JARVIS-Tools package.
data_NaBe2Mo
_symmetry_space_group_name_H-M  'P4mm'
_cell_length_a       2.69962
_cell_length_b       2.69962
_cell_length_c       7.65768
_cell_angle_alpha    90
_cell_angle_beta     90
_cell_angle_gamma    90

_symmetry_Int_Tables_number  99
_chemical_formula_structural  NaBe2Mo
_chemical_formula_sum  NaBe2Mo
_cell_volume  55.808891074685064
_cell_formula_units_Z  1
loop_
  _symmetry_equiv_pos_site_id
 _symmetry_equiv_pos_as_xyz
 1  'x, y, z'
loop_
 _atom_site_type_symbol
 _atom_site_label
 _atom_site_symmetry_multiplicity
 _atom_site_fract_x
 _atom_site_fract_y
 _atom_site_fract_z
 _atom_site_fract_occupancy
 Be  Be1  1  0.00000  0.00000  0.08442  1
 Be  Be2  1  0.50000  0.50000  0.21127  1
 Mo  Mo1  1  0.00000  0.00000  0.42710  1
 Na  Na1  1  0.50000  0.50000  0.77721  1
