CIF file written using JARVIS-Tools package.
data_YbPrO2
_symmetry_space_group_name_H-M  'I4_1/amd'
_cell_length_a       6.02011
_cell_length_b       6.02011
_cell_length_c       6.02011
_cell_angle_alpha    131.771
_cell_angle_beta     131.771
_cell_angle_gamma    70.5904

_symmetry_Int_Tables_number  141
_chemical_formula_structural  YbPrO2
_chemical_formula_sum  Yb2Pr2O4
_cell_volume  118.89752932147832
_cell_formula_units_Z  2
loop_
  _symmetry_equiv_pos_site_id
 _symmetry_equiv_pos_as_xyz
 1  'x, y, z'
loop_
 _atom_site_type_symbol
 _atom_site_label
 _atom_site_symmetry_multiplicity
 _atom_site_fract_x
 _atom_site_fract_y
 _atom_site_fract_z
 _atom_site_fract_occupancy
 O  O1  1  0.48947  0.98947  0.50000  1
 O  O2  1  0.26053  0.26053  0.00000  1
 O  O3  1  0.73947  0.73947  -0.00000  1
 O  O4  1  0.01053  0.51053  0.50000  1
 Pr  Pr1  1  0.75000  0.25000  0.50000  1
 Pr  Pr2  1  0.00000  0.00000  0.00000  1
 Yb  Yb1  1  0.50000  0.50000  0.00000  1
 Yb  Yb2  1  0.25000  0.75000  0.50000  1
