CIF file written using JARVIS-Tools package.
data_SrMnO3
_symmetry_space_group_name_H-M  'C222_1'
_cell_length_a       5.4714
_cell_length_b       5.4714
_cell_length_c       9.1601
_cell_angle_alpha    90
_cell_angle_beta     90
_cell_angle_gamma    119.796

_symmetry_Int_Tables_number  20
_chemical_formula_structural  SrMnO3
_chemical_formula_sum  Sr4Mn4O2
_cell_volume  237.96746203456004
_cell_formula_units_Z  4
loop_
  _symmetry_equiv_pos_site_id
 _symmetry_equiv_pos_as_xyz
 1  'x, y, z'
loop_
 _atom_site_type_symbol
 _atom_site_label
 _atom_site_symmetry_multiplicity
 _atom_site_fract_x
 _atom_site_fract_y
 _atom_site_fract_z
 _atom_site_fract_occupancy
 Mn  Mn1  1  0.68271  0.34712  0.88757  1
 Mn  Mn2  1  0.65288  0.31729  0.61243  1
 Mn  Mn3  1  0.31729  0.65288  0.38757  1
 Mn  Mn4  1  0.34712  0.68271  0.11243  1
 O  O1  1  0.55092  0.55092  0.00000  1
 O  O2  1  0.63612  0.81897  0.26752  1
 O  O3  1  0.44817  0.95049  0.51971  1
 O  O4  1  0.18103  0.36388  0.23248  1
 O  O5  1  0.17899  0.82101  0.25000  1
 O  O6  1  0.82101  0.17899  0.75000  1
 O  O7  1  0.95049  0.44817  0.48029  1
 O  O8  1  0.55183  0.04951  0.01971  1
 O  O9  1  0.44908  0.44908  0.50000  1
 O  O10  1  0.36388  0.18103  0.76752  1
 O  O11  1  0.81897  0.63612  0.73248  1
 O  O12  1  0.04951  0.55183  0.98029  1
 Sr  Sr1  1  0.97968  0.97968  0.50000  1
 Sr  Sr2  1  0.33871  0.66129  0.75000  1
 Sr  Sr3  1  0.02032  0.02032  0.00000  1
 Sr  Sr4  1  0.66129  0.33871  0.25000  1
