CIF file written using JARVIS-Tools package.
data_Li2MnOF3
_symmetry_space_group_name_H-M  'Pmc2_1'
_cell_length_a       3.03915
_cell_length_b       5.07693
_cell_length_c       9.34717
_cell_angle_alpha    90
_cell_angle_beta     90.0975
_cell_angle_gamma    90

_symmetry_Int_Tables_number  26
_chemical_formula_structural  Li2MnOF3
_chemical_formula_sum  Li4Mn2O2F6
_cell_volume  144.2220804373877
_cell_formula_units_Z  2
loop_
  _symmetry_equiv_pos_site_id
 _symmetry_equiv_pos_as_xyz
 1  'x, y, z'
loop_
 _atom_site_type_symbol
 _atom_site_label
 _atom_site_symmetry_multiplicity
 _atom_site_fract_x
 _atom_site_fract_y
 _atom_site_fract_z
 _atom_site_fract_occupancy
 F  F1  1  -0.00035  0.39772  0.38484  1
 F  F2  1  -0.00035  0.60228  0.88484  1
 F  F3  1  0.00024  0.96801  0.13366  1
 F  F4  1  0.49897  0.41866  0.12261  1
 F  F5  1  0.00024  0.03199  0.63366  1
 F  F6  1  0.49897  0.58134  0.62261  1
 Li  Li1  1  0.50046  0.77169  0.17841  1
 Li  Li2  1  0.50046  0.22831  0.67841  1
 Li  Li3  1  0.49929  0.23563  0.31207  1
 Li  Li4  1  0.49929  0.76437  0.81207  1
 Mn  Mn1  1  0.00056  0.74694  0.48322  1
 Mn  Mn2  1  0.00056  0.25306  0.98322  1
 O  O1  1  0.50084  0.86728  0.38520  1
 O  O2  1  0.50084  0.13272  0.88520  1
