CIF file written using JARVIS-Tools package.
data_NbB
_symmetry_space_group_name_H-M  'Cmcm'
_cell_length_a       3.17869
_cell_length_b       3.32702
_cell_length_c       4.70658
_cell_angle_alpha    110.698
_cell_angle_beta     90
_cell_angle_gamma    90

_symmetry_Int_Tables_number  63
_chemical_formula_structural  NbB
_chemical_formula_sum  Nb2B2
_cell_volume  46.562190237542445
_cell_formula_units_Z  2
loop_
  _symmetry_equiv_pos_site_id
 _symmetry_equiv_pos_as_xyz
 1  'x, y, z'
loop_
 _atom_site_type_symbol
 _atom_site_label
 _atom_site_symmetry_multiplicity
 _atom_site_fract_x
 _atom_site_fract_y
 _atom_site_fract_z
 _atom_site_fract_occupancy
 B  B1  1  0.75000  0.44280  0.88560  1
 B  B2  1  0.25000  0.55720  0.11440  1
 Nb  Nb1  1  0.75000  0.14591  0.29182  1
 Nb  Nb2  1  0.25000  0.85409  0.70818  1
