CIF file written using JARVIS-Tools package.
data_Sm2C3N6
_symmetry_space_group_name_H-M  'C2/m'
_cell_length_a       3.87433
_cell_length_b       5.32313
_cell_length_c       7.55525
_cell_angle_alpha    95.6894
_cell_angle_beta     104.857
_cell_angle_gamma    90

_symmetry_Int_Tables_number  12
_chemical_formula_structural  Sm2C3N6
_chemical_formula_sum  Sm2C3N6
_cell_volume  149.81321475906282
_cell_formula_units_Z  1
loop_
  _symmetry_equiv_pos_site_id
 _symmetry_equiv_pos_as_xyz
 1  'x, y, z'
loop_
 _atom_site_type_symbol
 _atom_site_label
 _atom_site_symmetry_multiplicity
 _atom_site_fract_x
 _atom_site_fract_y
 _atom_site_fract_z
 _atom_site_fract_occupancy
 C  C1  1  0.32812  0.40537  0.65623  1
 C  C2  1  0.67188  0.59463  0.34377  1
 C  C3  1  0.00000  0.50000  0.00000  1
 N  N1  1  0.98828  0.26782  0.97656  1
 N  N2  1  0.68974  0.82877  0.37949  1
 N  N3  1  0.65722  0.36555  0.31444  1
 N  N4  1  0.01172  0.73218  0.02344  1
 N  N5  1  0.31026  0.17123  0.62051  1
 N  N6  1  0.34278  0.63445  0.68556  1
 Sm  Sm1  1  0.86568  0.92891  0.73137  1
 Sm  Sm2  1  0.13432  0.07109  0.26863  1
