CIF file written using JARVIS-Tools package.
data_BeGaCu
_symmetry_space_group_name_H-M  'I4mm'
_cell_length_a       5.68928
_cell_length_b       5.68928
_cell_length_c       5.68928
_cell_angle_alpha    153.417
_cell_angle_beta     153.417
_cell_angle_gamma    37.9474

_symmetry_Int_Tables_number  107
_chemical_formula_structural  BeGaCu
_chemical_formula_sum  BeGaCu
_cell_volume  36.81860400180324
_cell_formula_units_Z  1
loop_
  _symmetry_equiv_pos_site_id
 _symmetry_equiv_pos_as_xyz
 1  'x, y, z'
loop_
 _atom_site_type_symbol
 _atom_site_label
 _atom_site_symmetry_multiplicity
 _atom_site_fract_x
 _atom_site_fract_y
 _atom_site_fract_z
 _atom_site_fract_occupancy
 Be  Be1  1  0.98898  0.98898  0.00000  1
 Cu  Cu1  1  0.35280  0.35280  0.00000  1
 Ga  Ga1  1  0.65822  0.65822  0.00000  1
