CIF file written using JARVIS-Tools package.
data_ErAgTe2
_symmetry_space_group_name_H-M  'P-42_1m'
_cell_length_a       7.05858
_cell_length_b       7.05858
_cell_length_c       4.65304
_cell_angle_alpha    90
_cell_angle_beta     90
_cell_angle_gamma    90

_symmetry_Int_Tables_number  113
_chemical_formula_structural  ErAgTe2
_chemical_formula_sum  Er2Ag2Te4
_cell_volume  231.8309290281407
_cell_formula_units_Z  2
loop_
  _symmetry_equiv_pos_site_id
 _symmetry_equiv_pos_as_xyz
 1  'x, y, z'
loop_
 _atom_site_type_symbol
 _atom_site_label
 _atom_site_symmetry_multiplicity
 _atom_site_fract_x
 _atom_site_fract_y
 _atom_site_fract_z
 _atom_site_fract_occupancy
 Ag  Ag1  1  0.00000  0.00000  0.00000  1
 Ag  Ag2  1  0.50000  0.50000  0.00000  1
 Er  Er1  1  0.50000  0.00000  0.18934  1
 Er  Er2  1  0.00000  0.50000  0.81066  1
 Te  Te1  1  0.20231  0.29769  0.29489  1
 Te  Te2  1  0.70231  0.20231  0.70511  1
 Te  Te3  1  0.79769  0.70231  0.29489  1
 Te  Te4  1  0.29769  0.79769  0.70511  1
