CIF file written using JARVIS-Tools package.
data_UGaCo
_symmetry_space_group_name_H-M  'P-62m'
_cell_length_a       3.96098
_cell_length_b       6.60021
_cell_length_c       6.59979
_cell_angle_alpha    120.002
_cell_angle_beta     90
_cell_angle_gamma    90

_symmetry_Int_Tables_number  189
_chemical_formula_structural  UGaCo
_chemical_formula_sum  U3Ga3Co3
_cell_volume  149.4208648659581
_cell_formula_units_Z  3
loop_
  _symmetry_equiv_pos_site_id
 _symmetry_equiv_pos_as_xyz
 1  'x, y, z'
loop_
 _atom_site_type_symbol
 _atom_site_label
 _atom_site_symmetry_multiplicity
 _atom_site_fract_x
 _atom_site_fract_y
 _atom_site_fract_z
 _atom_site_fract_occupancy
 Co  Co1  1  0.00000  0.33333  0.66669  1
 Co  Co2  1  0.00000  0.66664  0.33331  1
 Co  Co3  1  0.50000  0.99997  0.00000  1
 Ga  Ga1  1  0.00000  0.23806  0.00000  1
 Ga  Ga2  1  0.00000  0.76192  0.76191  1
 Ga  Ga3  1  0.00000  0.00001  0.23809  1
 U  U1  1  0.50000  0.57717  -0.00000  1
 U  U2  1  0.50000  0.42282  0.42283  1
 U  U3  1  0.50000  -0.00002  0.57717  1
