CIF file written using JARVIS-Tools package.
data_LiVF6
_symmetry_space_group_name_H-M  'P-1'
_cell_length_a       5.26443
_cell_length_b       4.94731
_cell_length_c       4.93439
_cell_angle_alpha    119.55
_cell_angle_beta     117.508
_cell_angle_gamma    62.374

_symmetry_Int_Tables_number  2
_chemical_formula_structural  LiVF6
_chemical_formula_sum  LiVF6
_cell_volume  94.41064661476618
_cell_formula_units_Z  1
loop_
  _symmetry_equiv_pos_site_id
 _symmetry_equiv_pos_as_xyz
 1  'x, y, z'
loop_
 _atom_site_type_symbol
 _atom_site_label
 _atom_site_symmetry_multiplicity
 _atom_site_fract_x
 _atom_site_fract_y
 _atom_site_fract_z
 _atom_site_fract_occupancy
 F  F1  1  0.25388  0.25526  0.38197  1
 F  F2  1  0.25547  0.66460  0.14035  1
 F  F3  1  0.25699  0.90890  0.79147  1
 F  F4  1  0.78384  0.13193  0.26074  1
 F  F5  1  0.78534  0.37615  0.91180  1
 F  F6  1  0.78694  0.78550  0.67023  1
 Li  Li1  1  0.52040  0.52040  0.52609  1
 V  V1  1  0.02041  0.02039  0.02609  1
