CIF file written using JARVIS-Tools package.
data_Na2ZrNiP4O14
_symmetry_space_group_name_H-M  'P1'
_cell_length_a       6.52608
_cell_length_b       6.88148
_cell_length_c       6.56062
_cell_angle_alpha    65.8222
_cell_angle_beta     81.53
_cell_angle_gamma    85.2215

_symmetry_Int_Tables_number  1
_chemical_formula_structural  Na2ZrNiP4O14
_chemical_formula_sum  Na2ZrNiP4O4
_cell_volume  265.76831296766204
_cell_formula_units_Z  1
loop_
  _symmetry_equiv_pos_site_id
 _symmetry_equiv_pos_as_xyz
 1  'x, y, z'
loop_
 _atom_site_type_symbol
 _atom_site_label
 _atom_site_symmetry_multiplicity
 _atom_site_fract_x
 _atom_site_fract_y
 _atom_site_fract_z
 _atom_site_fract_occupancy
 Na  Na1  1  0.46665  0.92512  0.41553  1
 Na  Na2  1  0.74516  0.59145  0.82053  1
 Ni  Ni1  1  0.29853  0.55063  0.20519  1
 O  O1  1  0.24326  0.59420  0.50582  1
 O  O2  1  0.61619  0.50520  0.19110  1
 O  O3  1  0.69545  0.64866  0.47510  1
 O  O4  1  0.23960  0.23579  0.35376  1
 O  O5  1  0.86150  0.30759  0.48204  1
 O  O6  1  0.96941  0.65119  0.15736  1
 O  O7  1  0.43750  0.26843  0.73699  1
 O  O8  1  0.31587  0.91854  0.04951  1
 O  O9  1  0.06308  0.31511  0.86998  1
 O  O10  1  0.67262  0.04383  0.02019  1
 O  O11  1  0.58957  0.92842  0.71986  1
 O  O12  1  0.33396  0.55422  0.88696  1
 O  O13  1  0.95433  0.02156  0.33385  1
 O  O14  1  0.03992  0.97946  0.71280  1
 P  P1  1  0.77219  0.53765  0.32501  1
 P  P2  1  0.03235  0.13390  0.46644  1
 P  P3  1  0.50796  0.02920  0.87716  1
 P  P4  1  0.26293  0.44796  0.74982  1
 Zr  Zr1  1  0.98947  0.99238  0.03140  1
