CIF file written using JARVIS-Tools package.
data_NbSeOF7
_symmetry_space_group_name_H-M  'Pnma'
_cell_length_a       7.046
_cell_length_b       7.79347
_cell_length_c       11.0957
_cell_angle_alpha    90
_cell_angle_beta     90
_cell_angle_gamma    90

_symmetry_Int_Tables_number  62
_chemical_formula_structural  NbSeOF7
_chemical_formula_sum  Nb4Se4O4F28
_cell_volume  609.2959327570383
_cell_formula_units_Z  4
loop_
  _symmetry_equiv_pos_site_id
 _symmetry_equiv_pos_as_xyz
 1  'x, y, z'
loop_
 _atom_site_type_symbol
 _atom_site_label
 _atom_site_symmetry_multiplicity
 _atom_site_fract_x
 _atom_site_fract_y
 _atom_site_fract_z
 _atom_site_fract_occupancy
 F  F1  1  0.30655  0.49873  0.14102  1
 F  F2  1  0.19345  0.49873  0.64102  1
 F  F3  1  0.30628  0.91461  0.39664  1
 F  F4  1  0.69345  0.50127  0.85898  1
 F  F5  1  0.50497  0.25000  0.26703  1
 F  F6  1  0.99503  0.25000  0.76703  1
 F  F7  1  0.49503  0.75000  0.73297  1
 F  F8  1  0.19372  0.91461  0.89664  1
 F  F9  1  0.30655  0.00127  0.14102  1
 F  F10  1  0.10579  0.25000  0.27090  1
 F  F11  1  0.89421  0.75000  0.72910  1
 F  F12  1  0.63086  0.75000  0.48362  1
 F  F13  1  0.13086  0.25000  0.01638  1
 F  F14  1  0.36914  0.25000  0.51638  1
 F  F15  1  0.86914  0.75000  0.98362  1
 F  F16  1  0.19372  0.58539  0.89664  1
 F  F17  1  0.69372  0.41461  0.60336  1
 F  F18  1  0.39421  0.25000  0.77090  1
 F  F19  1  0.80655  0.99873  0.35898  1
 F  F20  1  0.60579  0.75000  0.22910  1
 F  F21  1  0.80655  0.50127  0.35898  1
 F  F22  1  0.69345  0.99873  0.85898  1
 F  F23  1  0.19345  0.00127  0.64102  1
 F  F24  1  0.30628  0.58539  0.39664  1
 F  F25  1  0.80628  0.41461  0.10336  1
 F  F26  1  0.69372  0.08539  0.60336  1
 F  F27  1  0.80628  0.08539  0.10336  1
 F  F28  1  0.00497  0.75000  0.23297  1
 Nb  Nb1  1  0.20042  0.25000  0.65442  1
 Nb  Nb2  1  0.70042  0.75000  0.84558  1
 Nb  Nb3  1  0.29958  0.25000  0.15442  1
 Nb  Nb4  1  0.79958  0.75000  0.34558  1
 O  O1  1  0.48506  0.75000  0.98040  1
 O  O2  1  0.51494  0.25000  0.01960  1
 O  O3  1  0.98506  0.25000  0.51960  1
 O  O4  1  0.01494  0.75000  0.48040  1
 Se  Se1  1  0.75235  0.25000  0.50036  1
 Se  Se2  1  0.74765  0.25000  0.00036  1
 Se  Se3  1  0.24765  0.75000  0.49964  1
 Se  Se4  1  0.25235  0.75000  0.99964  1
