CIF file written using JARVIS-Tools package.
data_CeMg6Sb
_symmetry_space_group_name_H-M  'Amm2'
_cell_length_a       6.77187
_cell_length_b       6.29122
_cell_length_c       5.24247
_cell_angle_alpha    90
_cell_angle_beta     90
_cell_angle_gamma    117.679

_symmetry_Int_Tables_number  38
_chemical_formula_structural  CeMg6Sb
_chemical_formula_sum  CeMg6Sb
_cell_volume  197.7881687876542
_cell_formula_units_Z  1
loop_
  _symmetry_equiv_pos_site_id
 _symmetry_equiv_pos_as_xyz
 1  'x, y, z'
loop_
 _atom_site_type_symbol
 _atom_site_label
 _atom_site_symmetry_multiplicity
 _atom_site_fract_x
 _atom_site_fract_y
 _atom_site_fract_z
 _atom_site_fract_occupancy
 Ce  Ce1  1  0.14431  0.32215  0.25000  1
 Mg  Mg1  1  0.65185  0.32559  0.25000  1
 Mg  Mg2  1  0.65185  0.82626  0.25000  1
 Mg  Mg3  1  0.36001  0.18586  0.75000  1
 Mg  Mg4  1  0.36001  0.67415  0.75000  1
 Mg  Mg5  1  0.81657  0.15829  0.75000  1
 Mg  Mg6  1  0.85387  0.67694  0.75000  1
 Sb  Sb1  1  0.16154  0.83077  0.25000  1
