CIF file written using JARVIS-Tools package.
data_K3Ag3As2
_symmetry_space_group_name_H-M  'R-3m'
_cell_length_a       7.88609
_cell_length_b       7.88609
_cell_length_c       7.88609
_cell_angle_alpha    44.6059
_cell_angle_beta     44.6059
_cell_angle_gamma    44.6059

_symmetry_Int_Tables_number  166
_chemical_formula_structural  K3Ag3As2
_chemical_formula_sum  K3Ag3As2
_cell_volume  219.94110386523596
_cell_formula_units_Z  1
loop_
  _symmetry_equiv_pos_site_id
 _symmetry_equiv_pos_as_xyz
 1  'x, y, z'
loop_
 _atom_site_type_symbol
 _atom_site_label
 _atom_site_symmetry_multiplicity
 _atom_site_fract_x
 _atom_site_fract_y
 _atom_site_fract_z
 _atom_site_fract_occupancy
 Ag  Ag1  1  0.50000  0.00000  0.50000  1
 Ag  Ag2  1  0.50000  0.50000  -0.00000  1
 Ag  Ag3  1  -0.00000  0.50000  0.50000  1
 As  As1  1  0.75663  0.75663  0.75663  1
 As  As2  1  0.24337  0.24337  0.24337  1
 K  K1  1  0.08994  0.08994  0.08994  1
 K  K2  1  0.91006  0.91006  0.91006  1
 K  K3  1  0.50000  0.50000  0.50000  1
