CIF file written using JARVIS-Tools package.
data_Li2MnP2O7
_symmetry_space_group_name_H-M  'P-42_1m'
_cell_length_a       7.74429
_cell_length_b       7.74429
_cell_length_c       4.97986
_cell_angle_alpha    90
_cell_angle_beta     90
_cell_angle_gamma    90

_symmetry_Int_Tables_number  113
_chemical_formula_structural  Li2MnP2O7
_chemical_formula_sum  Li4Mn2P4O4
_cell_volume  298.6623908281351
_cell_formula_units_Z  2
loop_
  _symmetry_equiv_pos_site_id
 _symmetry_equiv_pos_as_xyz
 1  'x, y, z'
loop_
 _atom_site_type_symbol
 _atom_site_label
 _atom_site_symmetry_multiplicity
 _atom_site_fract_x
 _atom_site_fract_y
 _atom_site_fract_z
 _atom_site_fract_occupancy
 Li  Li1  1  0.22116  0.27884  0.54872  1
 Li  Li2  1  0.27884  0.77884  0.45128  1
 Li  Li3  1  0.72116  0.22116  0.45128  1
 Li  Li4  1  0.77884  0.72116  0.54872  1
 Mn  Mn1  1  0.00000  0.00000  0.00000  1
 Mn  Mn2  1  0.50000  0.50000  0.00000  1
 O  O1  1  0.00000  0.50000  0.79666  1
 O  O2  1  0.84480  0.34480  0.18642  1
 O  O3  1  0.15520  0.65520  0.18642  1
 O  O4  1  0.19255  0.07950  0.25628  1
 O  O5  1  0.30745  0.57950  0.74372  1
 O  O6  1  0.07950  0.80745  0.74372  1
 O  O7  1  0.42050  0.30745  0.25628  1
 O  O8  1  0.50000  0.00000  0.20334  1
 O  O9  1  0.69255  0.42050  0.74372  1
 O  O10  1  0.65520  0.84480  0.81358  1
 O  O11  1  0.34480  0.15520  0.81358  1
 O  O12  1  0.80745  0.92050  0.25628  1
 O  O13  1  0.57950  0.69255  0.25628  1
 O  O14  1  0.92050  0.19255  0.74372  1
 P  P1  1  0.85846  0.35846  0.88631  1
 P  P2  1  0.64154  0.85846  0.11369  1
 P  P3  1  0.35846  0.14154  0.11369  1
 P  P4  1  0.14154  0.64154  0.88631  1
