CIF file written using JARVIS-Tools package.
data_CaFeO2
_symmetry_space_group_name_H-M  'P4/mmm'
_cell_length_a       3.18534
_cell_length_b       5.41556
_cell_length_c       5.41556
_cell_angle_alpha    90
_cell_angle_beta     90
_cell_angle_gamma    90

_symmetry_Int_Tables_number  123
_chemical_formula_structural  CaFeO2
_chemical_formula_sum  Ca2Fe2O4
_cell_volume  93.42046747612599
_cell_formula_units_Z  2
loop_
  _symmetry_equiv_pos_site_id
 _symmetry_equiv_pos_as_xyz
 1  'x, y, z'
loop_
 _atom_site_type_symbol
 _atom_site_label
 _atom_site_symmetry_multiplicity
 _atom_site_fract_x
 _atom_site_fract_y
 _atom_site_fract_z
 _atom_site_fract_occupancy
 Ca  Ca1  1  0.50001  0.50000  0.00000  1
 Ca  Ca2  1  0.49999  0.00000  0.50000  1
 Fe  Fe1  1  0.00000  0.50000  0.50000  1
 Fe  Fe2  1  0.00000  0.00000  0.00000  1
 O  O1  1  -0.00005  0.74997  0.24997  1
 O  O2  1  0.00005  0.75003  0.74997  1
 O  O3  1  -0.00005  0.25003  0.75003  1
 O  O4  1  0.00005  0.24997  0.25003  1
