CIF file written using JARVIS-Tools package.
data_BaCdAsF
_symmetry_space_group_name_H-M  'P4/nmm'
_cell_length_a       4.45259
_cell_length_b       4.45259
_cell_length_c       9.55597
_cell_angle_alpha    90
_cell_angle_beta     90
_cell_angle_gamma    90

_symmetry_Int_Tables_number  129
_chemical_formula_structural  BaCdAsF
_chemical_formula_sum  Ba2Cd2As2F2
_cell_volume  189.45212563513306
_cell_formula_units_Z  2
loop_
  _symmetry_equiv_pos_site_id
 _symmetry_equiv_pos_as_xyz
 1  'x, y, z'
loop_
 _atom_site_type_symbol
 _atom_site_label
 _atom_site_symmetry_multiplicity
 _atom_site_fract_x
 _atom_site_fract_y
 _atom_site_fract_z
 _atom_site_fract_occupancy
 As  As1  1  0.75000  0.75000  0.32012  1
 As  As2  1  0.25000  0.25000  0.67988  1
 Ba  Ba1  1  0.75000  0.75000  0.84477  1
 Ba  Ba2  1  0.25000  0.25000  0.15523  1
 Cd  Cd1  1  0.25000  0.75000  0.50000  1
 Cd  Cd2  1  0.75000  0.25000  0.50000  1
 F  F1  1  0.25000  0.75000  0.00000  1
 F  F2  1  0.75000  0.25000  0.00000  1
