CIF file written using JARVIS-Tools package.
data_Rb2MnSe2
_symmetry_space_group_name_H-M  'Ibam'
_cell_length_a       6.62187
_cell_length_b       7.23253
_cell_length_c       8.43137
_cell_angle_alpha    115.398
_cell_angle_beta     113.122
_cell_angle_gamma    90

_symmetry_Int_Tables_number  72
_chemical_formula_structural  Rb2MnSe2
_chemical_formula_sum  Rb4Mn2Se4
_cell_volume  328.5063100053969
_cell_formula_units_Z  2
loop_
  _symmetry_equiv_pos_site_id
 _symmetry_equiv_pos_as_xyz
 1  'x, y, z'
loop_
 _atom_site_type_symbol
 _atom_site_label
 _atom_site_symmetry_multiplicity
 _atom_site_fract_x
 _atom_site_fract_y
 _atom_site_fract_z
 _atom_site_fract_occupancy
 Mn  Mn1  1  0.75000  0.00000  0.00000  1
 Mn  Mn2  1  0.25000  0.00000  0.00000  1
 Rb  Rb1  1  0.64699  0.81196  0.29398  1
 Rb  Rb2  1  0.35301  0.18804  0.70602  1
 Rb  Rb3  1  0.85301  0.51797  0.70602  1
 Rb  Rb4  1  0.14699  0.48203  0.29398  1
 Se  Se1  1  0.60228  0.29110  0.20457  1
 Se  Se2  1  0.89772  0.08653  0.79543  1
 Se  Se3  1  0.10228  0.91347  0.20457  1
 Se  Se4  1  0.39772  0.70890  0.79543  1
