CIF file written using JARVIS-Tools package.
data_K2Si2Pb2O
_symmetry_space_group_name_H-M  'P6/mmm'
_cell_length_a       5.51821
_cell_length_b       5.52431
_cell_length_c       6.74489
_cell_angle_alpha    90
_cell_angle_beta     90
_cell_angle_gamma    120.037

_symmetry_Int_Tables_number  191
_chemical_formula_structural  K2Si2Pb2O
_chemical_formula_sum  K2Si2Pb2O
_cell_volume  178.0006335243007
_cell_formula_units_Z  1
loop_
  _symmetry_equiv_pos_site_id
 _symmetry_equiv_pos_as_xyz
 1  'x, y, z'
loop_
 _atom_site_type_symbol
 _atom_site_label
 _atom_site_symmetry_multiplicity
 _atom_site_fract_x
 _atom_site_fract_y
 _atom_site_fract_z
 _atom_site_fract_occupancy
 K  K1  1  0.66648  0.33324  0.50000  1
 K  K2  1  0.33352  0.66676  0.50000  1
 O  O1  1  0.00000  0.00000  0.50000  1
 Pb  Pb1  1  0.66635  0.33318  0.00000  1
 Pb  Pb2  1  0.33365  0.66682  0.00000  1
 Si  Si1  1  0.00000  0.00000  0.76467  1
 Si  Si2  1  0.00000  0.00000  0.23533  1
