CIF file written using JARVIS-Tools package.
data_Na2CaV4O12
_symmetry_space_group_name_H-M  'P4/nbm'
_cell_length_a       4.96261
_cell_length_b       10.4236
_cell_length_c       10.4236
_cell_angle_alpha    90
_cell_angle_beta     90
_cell_angle_gamma    90

_symmetry_Int_Tables_number  125
_chemical_formula_structural  Na2CaV4O12
_chemical_formula_sum  Na4Ca2V8O24
_cell_volume  539.1899908441123
_cell_formula_units_Z  2
loop_
  _symmetry_equiv_pos_site_id
 _symmetry_equiv_pos_as_xyz
 1  'x, y, z'
loop_
 _atom_site_type_symbol
 _atom_site_label
 _atom_site_symmetry_multiplicity
 _atom_site_fract_x
 _atom_site_fract_y
 _atom_site_fract_z
 _atom_site_fract_occupancy
 Ca  Ca1  1  0.50000  0.25000  0.25000  1
 Ca  Ca2  1  0.50000  0.75000  0.75000  1
 Na  Na1  1  0.50000  0.50000  0.50000  1
 Na  Na2  1  0.50000  0.00000  0.00000  1
 Na  Na3  1  0.50000  0.50000  0.00000  1
 Na  Na4  1  0.50000  0.00000  0.50000  1
 O  O1  1  0.24213  0.81799  0.56119  1
 O  O2  1  0.75787  0.68201  0.56119  1
 O  O3  1  0.75787  0.93881  0.68201  1
 O  O4  1  0.75787  0.56119  0.81799  1
 O  O5  1  0.75787  0.81799  0.93881  1
 O  O6  1  0.75787  0.43881  0.31799  1
 O  O7  1  0.75787  0.18201  0.43881  1
 O  O8  1  0.75787  0.31799  0.06119  1
 O  O9  1  0.24213  0.68201  0.93881  1
 O  O10  1  0.24213  0.31799  0.43881  1
 O  O11  1  0.24213  0.06119  0.31799  1
 O  O12  1  0.15373  0.62931  0.37069  1
 O  O13  1  0.15373  0.12931  0.62931  1
 O  O14  1  0.75787  0.06119  0.18201  1
 O  O15  1  0.24213  0.93881  0.81799  1
 O  O16  1  0.84627  0.37069  0.62931  1
 O  O17  1  0.24213  0.56119  0.68201  1
 O  O18  1  0.15373  0.87069  0.12931  1
 O  O19  1  0.84627  0.12931  0.87069  1
 O  O20  1  0.24213  0.18201  0.06119  1
 O  O21  1  0.24213  0.43881  0.18201  1
 O  O22  1  0.84627  0.87069  0.37069  1
 O  O23  1  0.15373  0.37069  0.87069  1
 O  O24  1  0.84627  0.62931  0.12931  1
 V  V1  1  0.00000  0.75000  0.02717  1
 V  V2  1  0.00000  0.25000  0.52717  1
 V  V3  1  0.00000  0.75000  0.47283  1
 V  V4  1  0.00000  0.47283  0.75000  1
 V  V5  1  0.00000  0.97283  0.25000  1
 V  V6  1  0.00000  0.25000  0.97283  1
 V  V7  1  0.00000  0.52717  0.25000  1
 V  V8  1  0.00000  0.02717  0.75000  1
