CIF file written using JARVIS-Tools package.
data_Mg6VCu
_symmetry_space_group_name_H-M  'Amm2'
_cell_length_a       6.13549
_cell_length_b       6.13549
_cell_length_c       4.77939
_cell_angle_alpha    90
_cell_angle_beta     90
_cell_angle_gamma    121.197

_symmetry_Int_Tables_number  38
_chemical_formula_structural  Mg6VCu
_chemical_formula_sum  Mg6VCu
_cell_volume  153.89870314658094
_cell_formula_units_Z  1
loop_
  _symmetry_equiv_pos_site_id
 _symmetry_equiv_pos_as_xyz
 1  'x, y, z'
loop_
 _atom_site_type_symbol
 _atom_site_label
 _atom_site_symmetry_multiplicity
 _atom_site_fract_x
 _atom_site_fract_y
 _atom_site_fract_z
 _atom_site_fract_occupancy
 Cu  Cu1  1  0.18853  0.31147  0.25000  1
 Mg  Mg1  1  0.17328  0.85052  0.25000  1
 Mg  Mg2  1  0.64948  0.32672  0.25000  1
 Mg  Mg3  1  0.66869  0.83131  0.25000  1
 Mg  Mg4  1  0.32393  0.65806  0.75000  1
 Mg  Mg5  1  0.84194  0.17607  0.75000  1
 Mg  Mg6  1  0.83275  0.66725  0.75000  1
 V  V1  1  0.32140  0.17860  0.75000  1
