CIF file written using JARVIS-Tools package.
data_B2Se2O7
_symmetry_space_group_name_H-M  'P2_12_12_1'
_cell_length_a       7.39432
_cell_length_b       7.94273
_cell_length_c       9.08265
_cell_angle_alpha    90
_cell_angle_beta     90
_cell_angle_gamma    90

_symmetry_Int_Tables_number  19
_chemical_formula_structural  B2Se2O7
_chemical_formula_sum  B8Se8O28
_cell_volume  533.4334374657504
_cell_formula_units_Z  4
loop_
  _symmetry_equiv_pos_site_id
 _symmetry_equiv_pos_as_xyz
 1  'x, y, z'
loop_
 _atom_site_type_symbol
 _atom_site_label
 _atom_site_symmetry_multiplicity
 _atom_site_fract_x
 _atom_site_fract_y
 _atom_site_fract_z
 _atom_site_fract_occupancy
 B  B1  1  0.08649  0.94613  0.84734  1
 B  B2  1  0.07393  0.97956  0.34892  1
 B  B3  1  0.91351  0.44613  0.65266  1
 B  B4  1  0.58649  0.55387  0.15266  1
 B  B5  1  0.42607  0.02044  0.84892  1
 B  B6  1  0.92607  0.47956  0.15108  1
 B  B7  1  0.57393  0.52044  0.65108  1
 B  B8  1  0.41351  0.05387  0.34734  1
 O  O1  1  0.27241  0.92200  0.88251  1
 O  O2  1  0.06649  0.97456  0.68467  1
 O  O3  1  0.22759  0.07800  0.38251  1
 O  O4  1  0.49541  0.40777  0.07893  1
 O  O5  1  0.48119  0.70754  0.10853  1
 O  O6  1  -0.00459  0.09223  0.92107  1
 O  O7  1  0.40814  0.46544  0.56616  1
 O  O8  1  0.93351  0.47456  0.81533  1
 O  O9  1  0.09186  0.53456  0.06616  1
 O  O10  1  0.60932  0.70400  0.62179  1
 O  O11  1  0.01881  0.29246  0.60853  1
 O  O12  1  0.43351  0.02544  0.18467  1
 O  O13  1  0.90814  0.03456  0.43384  1
 O  O14  1  0.51881  0.20754  0.39147  1
 O  O15  1  0.98827  0.48960  0.30853  1
 O  O16  1  0.98119  0.79246  0.89147  1
 O  O17  1  0.48827  0.01040  0.69147  1
 O  O18  1  0.89068  0.29600  0.12179  1
 O  O19  1  0.51173  0.51040  0.80853  1
 O  O20  1  0.77241  0.57800  0.11749  1
 O  O21  1  0.10932  0.79600  0.37821  1
 O  O22  1  0.59186  0.96544  0.93384  1
 O  O23  1  0.50459  0.90777  0.42107  1
 O  O24  1  0.39068  0.20400  0.87821  1
 O  O25  1  0.01173  0.98960  0.19147  1
 O  O26  1  0.00459  0.59223  0.57893  1
 O  O27  1  0.72759  0.42200  0.61749  1
 O  O28  1  0.56649  0.52544  0.31533  1
 Se  Se1  1  0.60351  0.89527  0.11389  1
 Se  Se2  1  0.07674  0.16481  0.08923  1
 Se  Se3  1  0.92326  0.66481  0.41077  1
 Se  Se4  1  0.57674  0.33519  0.91077  1
 Se  Se5  1  0.39649  0.39527  0.38611  1
 Se  Se6  1  0.89649  0.10473  0.61389  1
 Se  Se7  1  0.10351  0.60473  0.88611  1
 Se  Se8  1  0.42326  0.83519  0.58923  1
