CIF file written using JARVIS-Tools package.
data_DyIn2Ni
_symmetry_space_group_name_H-M  'Cmcm'
_cell_length_a       4.32496
_cell_length_b       5.64149
_cell_length_c       7.35999
_cell_angle_alpha    90
_cell_angle_beta     90
_cell_angle_gamma    112.539

_symmetry_Int_Tables_number  63
_chemical_formula_structural  DyIn2Ni
_chemical_formula_sum  Dy2In4Ni2
_cell_volume  165.86124469598073
_cell_formula_units_Z  2
loop_
  _symmetry_equiv_pos_site_id
 _symmetry_equiv_pos_as_xyz
 1  'x, y, z'
loop_
 _atom_site_type_symbol
 _atom_site_label
 _atom_site_symmetry_multiplicity
 _atom_site_fract_x
 _atom_site_fract_y
 _atom_site_fract_z
 _atom_site_fract_occupancy
 Dy  Dy1  1  0.43172  0.86344  0.25000  1
 Dy  Dy2  1  0.56828  0.13656  0.75000  1
 In  In1  1  0.14231  0.28463  0.45151  1
 In  In2  1  0.85769  0.71537  0.54849  1
 In  In3  1  0.14231  0.28463  0.04849  1
 In  In4  1  0.85769  0.71537  0.95151  1
 Ni  Ni1  1  0.71213  0.42427  0.25000  1
 Ni  Ni2  1  0.28787  0.57573  0.75000  1
