CIF file written using JARVIS-Tools package.
data_Fe2O2F3
_symmetry_space_group_name_H-M  'Cc'
_cell_length_a       4.91971
_cell_length_b       5.34181
_cell_length_c       6.82831
_cell_angle_alpha    107.662
_cell_angle_beta     89.9996
_cell_angle_gamma    117.419

_symmetry_Int_Tables_number  9
_chemical_formula_structural  Fe2O2F3
_chemical_formula_sum  Fe4O4F6
_cell_volume  149.6959218410844
_cell_formula_units_Z  2
loop_
  _symmetry_equiv_pos_site_id
 _symmetry_equiv_pos_as_xyz
 1  'x, y, z'
loop_
 _atom_site_type_symbol
 _atom_site_label
 _atom_site_symmetry_multiplicity
 _atom_site_fract_x
 _atom_site_fract_y
 _atom_site_fract_z
 _atom_site_fract_occupancy
 F  F1  1  0.05177  0.26213  0.03560  1
 F  F2  1  0.71134  0.26215  0.53561  1
 F  F3  1  0.64807  0.51957  0.25378  1
 F  F4  1  0.37243  0.51955  0.75378  1
 F  F5  1  0.30792  0.73203  0.45077  1
 F  F6  1  0.92504  0.73203  0.95077  1
 Fe  Fe1  1  0.31370  0.10229  0.12031  1
 Fe  Fe2  1  0.71188  0.90344  0.38615  1
 Fe  Fe3  1  0.28954  0.10229  0.62031  1
 Fe  Fe4  1  0.69250  0.90343  0.88615  1
 O  O1  1  0.54632  0.91534  0.14594  1
 O  O2  1  0.86996  0.91533  0.64594  1
 O  O3  1  0.12345  0.08449  0.35735  1
 O  O4  1  0.46199  0.08449  0.85735  1
