CIF file written using JARVIS-Tools package.
data_Co3O2F4
_symmetry_space_group_name_H-M  'C2'
_cell_length_a       4.52933
_cell_length_b       4.52933
_cell_length_c       9.02944
_cell_angle_alpha    89.3226
_cell_angle_beta     89.3226
_cell_angle_gamma    89.5721

_symmetry_Int_Tables_number  5
_chemical_formula_structural  Co3O2F4
_chemical_formula_sum  Co6O4F8
_cell_volume  185.2069776721248
_cell_formula_units_Z  2
loop_
  _symmetry_equiv_pos_site_id
 _symmetry_equiv_pos_as_xyz
 1  'x, y, z'
loop_
 _atom_site_type_symbol
 _atom_site_label
 _atom_site_symmetry_multiplicity
 _atom_site_fract_x
 _atom_site_fract_y
 _atom_site_fract_z
 _atom_site_fract_occupancy
 Co  Co1  1  0.97316  0.94520  0.99017  1
 Co  Co2  1  0.05480  0.02684  0.34316  1
 Co  Co3  1  0.02974  0.97026  0.66667  1
 Co  Co4  1  0.50876  0.49124  0.16667  1
 Co  Co5  1  0.47889  0.51612  0.84050  1
 Co  Co6  1  0.48388  0.52111  0.49283  1
 F  F1  1  0.72036  0.72124  0.34092  1
 F  F2  1  0.67670  0.70410  0.67095  1
 F  F3  1  0.29590  0.32330  0.66239  1
 F  F4  1  0.27876  0.27964  0.99241  1
 F  F5  1  0.20791  0.79209  0.16667  1
 F  F6  1  0.79786  0.21941  0.50755  1
 F  F7  1  0.81260  0.18740  0.16667  1
 F  F8  1  0.78059  0.20214  0.82578  1
 O  O1  1  0.21194  0.81401  0.50162  1
 O  O2  1  0.32725  0.32508  0.33298  1
 O  O3  1  0.67492  0.67275  0.00035  1
 O  O4  1  0.18599  0.78806  0.83172  1
