CIF file written using JARVIS-Tools package.
data_EuCuSn2
_symmetry_space_group_name_H-M  'Cmcm'
_cell_length_a       4.24504
_cell_length_b       4.71661
_cell_length_c       9.60604
_cell_angle_alpha    90
_cell_angle_beta     102.765
_cell_angle_gamma    90

_symmetry_Int_Tables_number  63
_chemical_formula_structural  EuCuSn2
_chemical_formula_sum  Eu2Cu2Sn4
_cell_volume  187.58023453336187
_cell_formula_units_Z  2
loop_
  _symmetry_equiv_pos_site_id
 _symmetry_equiv_pos_as_xyz
 1  'x, y, z'
loop_
 _atom_site_type_symbol
 _atom_site_label
 _atom_site_symmetry_multiplicity
 _atom_site_fract_x
 _atom_site_fract_y
 _atom_site_fract_z
 _atom_site_fract_occupancy
 Cu  Cu1  1  0.82674  0.25000  0.65349  1
 Cu  Cu2  1  0.17326  0.75000  0.34651  1
 Eu  Eu1  1  0.39621  0.75000  0.79242  1
 Eu  Eu2  1  0.60379  0.25000  0.20758  1
 Sn  Sn1  1  0.75616  0.75000  0.51232  1
 Sn  Sn2  1  0.24384  0.25000  0.48768  1
 Sn  Sn3  1  0.95928  0.25000  0.91855  1
 Sn  Sn4  1  0.04072  0.75000  0.08145  1
