CIF file written using JARVIS-Tools package.
data_Mg6BW
_symmetry_space_group_name_H-M  'Amm2'
_cell_length_a       6.03826
_cell_length_b       5.51703
_cell_length_c       4.76403
_cell_angle_alpha    90
_cell_angle_beta     90
_cell_angle_gamma    117.183

_symmetry_Int_Tables_number  38
_chemical_formula_structural  Mg6BW
_chemical_formula_sum  Mg6BW
_cell_volume  141.176267675056
_cell_formula_units_Z  1
loop_
  _symmetry_equiv_pos_site_id
 _symmetry_equiv_pos_as_xyz
 1  'x, y, z'
loop_
 _atom_site_type_symbol
 _atom_site_label
 _atom_site_symmetry_multiplicity
 _atom_site_fract_x
 _atom_site_fract_y
 _atom_site_fract_z
 _atom_site_fract_occupancy
 B  B1  1  0.16293  0.83146  0.25000  1
 Mg  Mg1  1  0.64304  0.32111  0.25000  1
 Mg  Mg2  1  0.64304  0.82193  0.25000  1
 Mg  Mg3  1  0.33941  0.17646  0.75000  1
 Mg  Mg4  1  0.33941  0.66295  0.75000  1
 Mg  Mg5  1  0.85066  0.17533  0.75000  1
 Mg  Mg6  1  0.88210  0.69105  0.75000  1
 W  W1  1  0.13941  0.31971  0.25000  1
