CIF file written using JARVIS-Tools package.
data_Li4VTe3O12
_symmetry_space_group_name_H-M  'P2'
_cell_length_a       4.94942
_cell_length_b       8.81852
_cell_length_c       5.16961
_cell_angle_alpha    90
_cell_angle_beta     93.801
_cell_angle_gamma    90

_symmetry_Int_Tables_number  3
_chemical_formula_structural  Li4VTe3O12
_chemical_formula_sum  Li4VTe3O2
_cell_volume  225.1394716103638
_cell_formula_units_Z  1
loop_
  _symmetry_equiv_pos_site_id
 _symmetry_equiv_pos_as_xyz
 1  'x, y, z'
loop_
 _atom_site_type_symbol
 _atom_site_label
 _atom_site_symmetry_multiplicity
 _atom_site_fract_x
 _atom_site_fract_y
 _atom_site_fract_z
 _atom_site_fract_occupancy
 Li  Li1  1  0.00000  0.30744  0.00000  1
 Li  Li2  1  0.50000  0.13244  -0.00000  1
 Li  Li3  1  -0.00000  0.70178  0.50000  1
 Li  Li4  1  0.50000  0.82618  0.50000  1
 O  O1  1  0.26027  0.75134  0.14856  1
 O  O2  1  0.72171  0.44229  0.85394  1
 O  O3  1  0.21200  0.05464  0.19239  1
 O  O4  1  0.70818  0.58042  0.33460  1
 O  O5  1  0.27829  0.44229  0.14606  1
 O  O6  1  0.78151  0.22459  0.30718  1
 O  O7  1  0.21849  0.22459  0.69282  1
 O  O8  1  0.29182  0.58042  0.66540  1
 O  O9  1  0.80103  0.90590  0.31301  1
 O  O10  1  0.78800  0.05464  0.80761  1
 O  O11  1  0.19897  0.90590  0.68699  1
 O  O12  1  0.73973  0.75134  0.85144  1
 Te  Te1  1  0.50000  0.39828  0.50000  1
 Te  Te2  1  -0.00000  0.07611  0.50000  1
 Te  Te3  1  0.50000  0.60259  -0.00000  1
 V  V1  1  0.00000  0.89574  0.00000  1
