CIF file written using JARVIS-Tools package.
data_Mg6AlCd
_symmetry_space_group_name_H-M  'Amm2'
_cell_length_a       6.23984
_cell_length_b       6.23983
_cell_length_c       5.15161
_cell_angle_alpha    90
_cell_angle_beta     90
_cell_angle_gamma    120.405

_symmetry_Int_Tables_number  38
_chemical_formula_structural  Mg6AlCd
_chemical_formula_sum  Mg6AlCd
_cell_volume  172.99541397083453
_cell_formula_units_Z  1
loop_
  _symmetry_equiv_pos_site_id
 _symmetry_equiv_pos_as_xyz
 1  'x, y, z'
loop_
 _atom_site_type_symbol
 _atom_site_label
 _atom_site_symmetry_multiplicity
 _atom_site_fract_x
 _atom_site_fract_y
 _atom_site_fract_z
 _atom_site_fract_occupancy
 Al  Al1  1  0.15844  0.34156  0.25000  1
 Cd  Cd1  1  0.34028  0.15972  0.75000  1
 Mg  Mg1  1  0.16386  0.83857  0.25000  1
 Mg  Mg2  1  0.66143  0.33614  0.25000  1
 Mg  Mg3  1  0.66558  0.83442  0.25000  1
 Mg  Mg4  1  0.33475  0.65839  0.75000  1
 Mg  Mg5  1  0.84161  0.16525  0.75000  1
 Mg  Mg6  1  0.83406  0.66594  0.75000  1
