CIF file written using JARVIS-Tools package.
data_KCBrN2O4
_symmetry_space_group_name_H-M  'P-1'
_cell_length_a       6.17192
_cell_length_b       7.0499
_cell_length_c       7.37561
_cell_angle_alpha    116.549
_cell_angle_beta     103.682
_cell_angle_gamma    95.0093

_symmetry_Int_Tables_number  2
_chemical_formula_structural  KCBrN2O4
_chemical_formula_sum  K2C2Br2N4O8
_cell_volume  271.96951977248693
_cell_formula_units_Z  2
loop_
  _symmetry_equiv_pos_site_id
 _symmetry_equiv_pos_as_xyz
 1  'x, y, z'
loop_
 _atom_site_type_symbol
 _atom_site_label
 _atom_site_symmetry_multiplicity
 _atom_site_fract_x
 _atom_site_fract_y
 _atom_site_fract_z
 _atom_site_fract_occupancy
 Br  Br1  1  0.79673  0.20349  0.71127  1
 Br  Br2  1  0.20327  0.79651  0.28873  1
 C  C1  1  0.95254  0.24307  0.53787  1
 C  C2  1  0.04746  0.75693  0.46213  1
 K  K1  1  0.32797  0.27891  0.12738  1
 K  K2  1  0.67203  0.72109  0.87262  1
 N  N1  1  0.16586  0.84115  0.67622  1
 N  N2  1  0.83414  0.15885  0.32378  1
 N  N3  1  0.82249  0.63832  0.36939  1
 N  N4  1  0.17751  0.36168  0.63061  1
 O  O1  1  0.92464  0.17900  0.19429  1
 O  O2  1  0.27286  0.42152  0.82550  1
 O  O3  1  0.71494  0.58782  0.47339  1
 O  O4  1  0.72714  0.57848  0.17450  1
 O  O5  1  0.37187  0.94561  0.74179  1
 O  O6  1  0.62813  0.05439  0.25821  1
 O  O7  1  0.28506  0.41218  0.52661  1
 O  O8  1  0.07536  0.82100  0.80571  1
