CIF file written using JARVIS-Tools package.
data_CaTiF6
_symmetry_space_group_name_H-M  'Fm-3m'
_cell_length_a       5.86799
_cell_length_b       5.868
_cell_length_c       5.868
_cell_angle_alpha    59.9823
_cell_angle_beta     59.9823
_cell_angle_gamma    59.9823

_symmetry_Int_Tables_number  225
_chemical_formula_structural  CaTiF6
_chemical_formula_sum  CaTiF6
_cell_volume  142.81718654338258
_cell_formula_units_Z  1
loop_
  _symmetry_equiv_pos_site_id
 _symmetry_equiv_pos_as_xyz
 1  'x, y, z'
loop_
 _atom_site_type_symbol
 _atom_site_label
 _atom_site_symmetry_multiplicity
 _atom_site_fract_x
 _atom_site_fract_y
 _atom_site_fract_z
 _atom_site_fract_occupancy
 Ca  Ca1  1  0.50000  0.50000  0.50000  1
 F  F1  1  0.77245  0.77245  0.22759  1
 F  F2  1  0.77245  0.22759  0.77245  1
 F  F3  1  0.22755  0.77241  0.22755  1
 F  F4  1  0.22755  0.22755  0.77241  1
 F  F5  1  0.77241  0.22755  0.22755  1
 F  F6  1  0.22759  0.77245  0.77245  1
 Ti  Ti1  1  0.00000  0.00000  0.00000  1
