CIF file written using JARVIS-Tools package.
data_BeSi2Ru2
_symmetry_space_group_name_H-M  'I4/mmm'
_cell_length_a       5.32549
_cell_length_b       5.32549
_cell_length_c       5.32549
_cell_angle_alpha    134.218
_cell_angle_beta     134.218
_cell_angle_gamma    66.7471

_symmetry_Int_Tables_number  139
_chemical_formula_structural  BeSi2Ru2
_chemical_formula_sum  BeSi2Ru2
_cell_volume  76.33530889972566
_cell_formula_units_Z  1
loop_
  _symmetry_equiv_pos_site_id
 _symmetry_equiv_pos_as_xyz
 1  'x, y, z'
loop_
 _atom_site_type_symbol
 _atom_site_label
 _atom_site_symmetry_multiplicity
 _atom_site_fract_x
 _atom_site_fract_y
 _atom_site_fract_z
 _atom_site_fract_occupancy
 Be  Be1  1  0.00000  0.00000  0.00000  1
 Ru  Ru1  1  0.75000  0.25000  0.50000  1
 Ru  Ru2  1  0.25000  0.75000  0.50000  1
 Si  Si1  1  0.62713  0.62713  0.00000  1
 Si  Si2  1  0.37287  0.37287  0.00000  1
