CIF file written using JARVIS-Tools package.
data_MnGa2Co
_symmetry_space_group_name_H-M  'Fm-3m'
_cell_length_a       4.133
_cell_length_b       4.13413
_cell_length_c       4.13351
_cell_angle_alpha    59.9903
_cell_angle_beta     60.0092
_cell_angle_gamma    59.9997

_symmetry_Int_Tables_number  225
_chemical_formula_structural  MnGa2Co
_chemical_formula_sum  MnGa2Co
_cell_volume  49.940247863531866
_cell_formula_units_Z  1
loop_
  _symmetry_equiv_pos_site_id
 _symmetry_equiv_pos_as_xyz
 1  'x, y, z'
loop_
 _atom_site_type_symbol
 _atom_site_label
 _atom_site_symmetry_multiplicity
 _atom_site_fract_x
 _atom_site_fract_y
 _atom_site_fract_z
 _atom_site_fract_occupancy
 Co  Co1  1  0.99999  0.99998  0.99999  1
 Ga  Ga1  1  0.75000  0.75001  0.75001  1
 Ga  Ga2  1  0.25000  0.24999  0.25000  1
 Mn  Mn1  1  0.50000  0.50002  0.50000  1
