CIF file written using JARVIS-Tools package.
data_LiOsF6
_symmetry_space_group_name_H-M  'R-3'
_cell_length_a       5.01536
_cell_length_b       5.01536
_cell_length_c       5.41391
_cell_angle_alpha    62.4067
_cell_angle_beta     62.4067
_cell_angle_gamma    60

_symmetry_Int_Tables_number  148
_chemical_formula_structural  LiOsF6
_chemical_formula_sum  LiOsF6
_cell_volume  99.64962953137979
_cell_formula_units_Z  1
loop_
  _symmetry_equiv_pos_site_id
 _symmetry_equiv_pos_as_xyz
 1  'x, y, z'
loop_
 _atom_site_type_symbol
 _atom_site_label
 _atom_site_symmetry_multiplicity
 _atom_site_fract_x
 _atom_site_fract_y
 _atom_site_fract_z
 _atom_site_fract_occupancy
 F  F1  1  0.89291  0.62151  0.24280  1
 F  F2  1  0.62151  0.24278  0.24280  1
 F  F3  1  0.24278  0.89291  0.24280  1
 F  F4  1  0.10709  0.37849  0.75720  1
 F  F5  1  0.37849  0.75722  0.75720  1
 F  F6  1  0.75722  0.10709  0.75720  1
 Li  Li1  1  0.50000  0.50000  0.50000  1
 Os  Os1  1  0.00000  0.00000  0.00000  1
