CIF file written using JARVIS-Tools package.
data_Li2VO2F
_symmetry_space_group_name_H-M  'C2/m'
_cell_length_a       2.88122
_cell_length_b       5.90953
_cell_length_c       6.50124
_cell_angle_alpha    77.0785
_cell_angle_beta     77.1972
_cell_angle_gamma    89.9996

_symmetry_Int_Tables_number  12
_chemical_formula_structural  Li2VO2F
_chemical_formula_sum  Li4V2O4F2
_cell_volume  105.06591882526146
_cell_formula_units_Z  2
loop_
  _symmetry_equiv_pos_site_id
 _symmetry_equiv_pos_as_xyz
 1  'x, y, z'
loop_
 _atom_site_type_symbol
 _atom_site_label
 _atom_site_symmetry_multiplicity
 _atom_site_fract_x
 _atom_site_fract_y
 _atom_site_fract_z
 _atom_site_fract_occupancy
 F  F1  1  0.16667  0.08333  0.66667  1
 F  F2  1  0.16667  0.58333  0.66667  1
 Li  Li1  1  0.00090  0.51634  -0.00178  1
 Li  Li2  1  0.33243  0.65033  0.33512  1
 Li  Li3  1  0.66547  0.35654  0.66909  1
 Li  Li4  1  0.66786  0.81013  0.66424  1
 O  O1  1  0.50016  0.23929  -0.00035  1
 O  O2  1  0.50430  0.76712  0.99133  1
 O  O3  1  0.82903  0.39954  0.34201  1
 O  O4  1  0.83317  0.92738  0.33368  1
 V  V1  1  0.99263  0.98688  0.01469  1
 V  V2  1  0.34071  0.17978  0.31865  1
