CIF file written using JARVIS-Tools package.
data_Li5FeO3F
_symmetry_space_group_name_H-M  'C2/m'
_cell_length_a       6.65568
_cell_length_b       6.65568
_cell_length_c       4.69115
_cell_angle_alpha    78.9335
_cell_angle_beta     78.9335
_cell_angle_gamma    89.7301

_symmetry_Int_Tables_number  12
_chemical_formula_structural  Li5FeO3F
_chemical_formula_sum  Li0Fe2O6F2
_cell_volume  200.0410372198368
_cell_formula_units_Z  2
loop_
  _symmetry_equiv_pos_site_id
 _symmetry_equiv_pos_as_xyz
 1  'x, y, z'
loop_
 _atom_site_type_symbol
 _atom_site_label
 _atom_site_symmetry_multiplicity
 _atom_site_fract_x
 _atom_site_fract_y
 _atom_site_fract_z
 _atom_site_fract_occupancy
 F  F1  1  0.27060  0.97940  0.12500  1
 F  F2  1  0.97940  0.27060  0.12500  1
 Fe  Fe1  1  0.75564  0.75564  0.75647  1
 Fe  Fe2  1  0.49436  0.49436  0.49353  1
 Li  Li1  1  0.70357  0.28648  0.99552  1
 Li  Li2  1  0.54643  0.96352  0.25448  1
 Li  Li3  1  0.96352  0.54643  0.25448  1
 Li  Li4  1  0.03788  0.46796  0.74367  1
 Li  Li5  1  0.98139  0.98139  0.00829  1
 Li  Li6  1  0.26861  0.26861  0.24171  1
 Li  Li7  1  0.21212  0.78204  0.50633  1
 Li  Li8  1  0.46796  0.03788  0.74367  1
 Li  Li9  1  0.28648  0.70357  0.99552  1
 Li  Li10  1  0.78204  0.21212  0.50633  1
 O  O1  1  0.22811  0.52560  0.37422  1
 O  O2  1  0.52560  0.22811  0.37422  1
 O  O3  1  0.77056  0.47944  0.62500  1
 O  O4  1  0.47944  0.77056  0.62500  1
 O  O5  1  0.72440  0.02189  0.87578  1
 O  O6  1  0.02189  0.72440  0.87578  1
