CIF file written using JARVIS-Tools package.
data_Li5SbS
_symmetry_space_group_name_H-M  'C2/c'
_cell_length_a       4.8172
_cell_length_b       8.64112
_cell_length_c       6.1521
_cell_angle_alpha    89.508
_cell_angle_beta     91.7654
_cell_angle_gamma    106.185

_symmetry_Int_Tables_number  15
_chemical_formula_structural  Li5SbS
_chemical_formula_sum  Li0Sb2S2
_cell_volume  245.8209612135365
_cell_formula_units_Z  2
loop_
  _symmetry_equiv_pos_site_id
 _symmetry_equiv_pos_as_xyz
 1  'x, y, z'
loop_
 _atom_site_type_symbol
 _atom_site_label
 _atom_site_symmetry_multiplicity
 _atom_site_fract_x
 _atom_site_fract_y
 _atom_site_fract_z
 _atom_site_fract_occupancy
 Li  Li1  1  0.17950  0.92417  0.09041  1
 Li  Li2  1  0.19780  0.38179  0.99452  1
 Li  Li3  1  0.36402  0.72804  0.75000  1
 Li  Li4  1  0.18399  0.38179  0.50548  1
 Li  Li5  1  0.25533  0.07583  0.59041  1
 Li  Li6  1  0.74467  0.92417  0.40959  1
 Li  Li7  1  0.81601  0.61821  0.49452  1
 Li  Li8  1  0.63598  0.27196  0.25000  1
 Li  Li9  1  0.80220  0.61821  0.00548  1
 Li  Li10  1  0.82050  0.07583  0.90959  1
 S  S1  1  0.07435  0.14871  0.25000  1
 S  S2  1  0.92565  0.85129  0.75000  1
 Sb  Sb1  1  0.33283  0.66566  0.25000  1
 Sb  Sb2  1  0.66717  0.33434  0.75000  1
