CIF file written using JARVIS-Tools package.
data_Er5Ni2Te2
_symmetry_space_group_name_H-M  'Cmcm'
_cell_length_a       3.95004
_cell_length_b       7.6792
_cell_length_c       14.7941
_cell_angle_alpha    90
_cell_angle_beta     90
_cell_angle_gamma    104.903

_symmetry_Int_Tables_number  63
_chemical_formula_structural  Er5Ni2Te2
_chemical_formula_sum  Er0Ni4Te4
_cell_volume  433.65568771482657
_cell_formula_units_Z  2
loop_
  _symmetry_equiv_pos_site_id
 _symmetry_equiv_pos_as_xyz
 1  'x, y, z'
loop_
 _atom_site_type_symbol
 _atom_site_label
 _atom_site_symmetry_multiplicity
 _atom_site_fract_x
 _atom_site_fract_y
 _atom_site_fract_z
 _atom_site_fract_occupancy
 Er  Er1  1  0.96103  0.92207  0.87334  1
 Er  Er2  1  0.60786  0.21573  0.75000  1
 Er  Er3  1  0.26062  0.52124  0.63060  1
 Er  Er4  1  0.03897  0.07793  0.37334  1
 Er  Er5  1  0.39214  0.78427  0.25000  1
 Er  Er6  1  0.03897  0.07793  0.12666  1
 Er  Er7  1  0.73938  0.47876  0.13060  1
 Er  Er8  1  0.26062  0.52124  0.86940  1
 Er  Er9  1  0.96103  0.92207  0.62666  1
 Er  Er10  1  0.73938  0.47876  0.36940  1
 Ni  Ni1  1  0.58282  0.16564  0.25000  1
 Ni  Ni2  1  0.81229  0.62457  0.75000  1
 Ni  Ni3  1  0.41718  0.83436  0.75000  1
 Ni  Ni4  1  0.18771  0.37543  0.25000  1
 Te  Te1  1  0.38287  0.76573  0.46077  1
 Te  Te2  1  0.61713  0.23427  0.96077  1
 Te  Te3  1  0.61713  0.23427  0.53923  1
 Te  Te4  1  0.38287  0.76573  0.03923  1
