CIF file written using JARVIS-Tools package.
data_MgBePb
_symmetry_space_group_name_H-M  'I4mm'
_cell_length_a       6.49274
_cell_length_b       6.49274
_cell_length_c       6.49274
_cell_angle_alpha    151.257
_cell_angle_beta     151.257
_cell_angle_gamma    41.0991

_symmetry_Int_Tables_number  107
_chemical_formula_structural  MgBePb
_chemical_formula_sum  MgBePb
_cell_volume  63.15650615304911
_cell_formula_units_Z  1
loop_
  _symmetry_equiv_pos_site_id
 _symmetry_equiv_pos_as_xyz
 1  'x, y, z'
loop_
 _atom_site_type_symbol
 _atom_site_label
 _atom_site_symmetry_multiplicity
 _atom_site_fract_x
 _atom_site_fract_y
 _atom_site_fract_z
 _atom_site_fract_occupancy
 Be  Be1  1  0.98830  0.98830  -0.00000  1
 Mg  Mg1  1  0.36556  0.36556  0.00000  1
 Pb  Pb1  1  0.64614  0.64614  0.00000  1
