CIF file written using JARVIS-Tools package.
data_BH2OF3
_symmetry_space_group_name_H-M  'P2_1/c'
_cell_length_a       7.4601
_cell_length_b       7.84134
_cell_length_c       4.64809
_cell_angle_alpha    90
_cell_angle_beta     96.8954
_cell_angle_gamma    90

_symmetry_Int_Tables_number  14
_chemical_formula_structural  BH2OF3
_chemical_formula_sum  B4H8O4F2
_cell_volume  269.93335797635507
_cell_formula_units_Z  4
loop_
  _symmetry_equiv_pos_site_id
 _symmetry_equiv_pos_as_xyz
 1  'x, y, z'
loop_
 _atom_site_type_symbol
 _atom_site_label
 _atom_site_symmetry_multiplicity
 _atom_site_fract_x
 _atom_site_fract_y
 _atom_site_fract_z
 _atom_site_fract_occupancy
 B  B1  1  0.12891  0.79752  0.02110  1
 B  B2  1  0.62891  0.70248  0.52110  1
 B  B3  1  0.87109  0.20248  0.97890  1
 B  B4  1  0.37109  0.29752  0.47890  1
 F  F1  1  0.49444  0.75966  0.68516  1
 F  F2  1  0.99444  0.74034  0.18516  1
 F  F3  1  0.23893  0.39448  0.30535  1
 F  F4  1  0.73893  0.10552  0.80535  1
 F  F5  1  0.76107  0.60552  0.69465  1
 F  F6  1  0.26107  0.89448  0.19465  1
 F  F7  1  0.43903  0.38904  0.72287  1
 F  F8  1  0.93903  0.11096  0.22287  1
 F  F9  1  0.56097  0.61096  0.27713  1
 F  F10  1  0.06097  0.88904  0.77713  1
 F  F11  1  0.50556  0.24034  0.31484  1
 F  F12  1  0.00556  0.25966  0.81484  1
 H  H1  1  0.16921  0.15887  0.67141  1
 H  H2  1  0.66921  0.34113  0.17141  1
 H  H3  1  0.83079  0.84113  0.32859  1
 H  H4  1  0.33079  0.65887  0.82859  1
 H  H5  1  0.26324  0.04148  0.43705  1
 H  H6  1  0.76324  0.45852  0.93705  1
 H  H7  1  0.73676  0.95852  0.56295  1
 H  H8  1  0.23676  0.54148  0.06295  1
 O  O1  1  0.21819  0.63765  0.91999  1
 O  O2  1  0.28181  0.13765  0.58001  1
 O  O3  1  0.71819  0.86235  0.41999  1
 O  O4  1  0.78181  0.36235  0.08001  1
