CIF file written using JARVIS-Tools package.
data_Mn2SbTe
_symmetry_space_group_name_H-M  'Pnnm'
_cell_length_a       3.81616
_cell_length_b       6.58222
_cell_length_c       7.23288
_cell_angle_alpha    90.0005
_cell_angle_beta     89.9999
_cell_angle_gamma    90.0046

_symmetry_Int_Tables_number  58
_chemical_formula_structural  Mn2SbTe
_chemical_formula_sum  Mn4Sb2Te2
_cell_volume  181.68153683855414
_cell_formula_units_Z  2
loop_
  _symmetry_equiv_pos_site_id
 _symmetry_equiv_pos_as_xyz
 1  'x, y, z'
loop_
 _atom_site_type_symbol
 _atom_site_label
 _atom_site_symmetry_multiplicity
 _atom_site_fract_x
 _atom_site_fract_y
 _atom_site_fract_z
 _atom_site_fract_occupancy
 Mn  Mn1  1  0.49867  0.16678  0.75606  1
 Mn  Mn2  1  -0.00147  0.66678  0.74934  1
 Mn  Mn3  1  0.99847  0.33554  0.25606  1
 Mn  Mn4  1  0.49857  0.83552  0.24935  1
 Sb  Sb1  1  0.99858  0.00118  0.00272  1
 Sb  Sb2  1  0.49855  0.50116  0.50272  1
 Te  Te1  1  -0.00137  0.00117  0.50273  1
 Te  Te2  1  0.49842  0.50118  0.00270  1
