CIF file written using JARVIS-Tools package.
data_Ni3OF5
_symmetry_space_group_name_H-M  'P-1'
_cell_length_a       4.57146
_cell_length_b       5.60688
_cell_length_c       7.66369
_cell_angle_alpha    85.7993
_cell_angle_beta     88.3737
_cell_angle_gamma    88.5163

_symmetry_Int_Tables_number  2
_chemical_formula_structural  Ni3OF5
_chemical_formula_sum  Ni6O2F0
_cell_volume  195.77055298893805
_cell_formula_units_Z  2
loop_
  _symmetry_equiv_pos_site_id
 _symmetry_equiv_pos_as_xyz
 1  'x, y, z'
loop_
 _atom_site_type_symbol
 _atom_site_label
 _atom_site_symmetry_multiplicity
 _atom_site_fract_x
 _atom_site_fract_y
 _atom_site_fract_z
 _atom_site_fract_occupancy
 F  F1  1  0.21695  0.95726  0.22579  1
 F  F2  1  0.21541  0.28440  0.89391  1
 F  F3  1  0.78305  0.04274  0.77421  1
 F  F4  1  0.78459  0.71560  0.10609  1
 F  F5  1  0.79220  0.37769  0.43914  1
 F  F6  1  0.71589  0.87661  0.43292  1
 F  F7  1  0.28411  0.12339  0.56708  1
 F  F8  1  0.27659  0.78012  0.89486  1
 F  F9  1  0.20780  0.62231  0.56086  1
 F  F10  1  0.72341  0.21988  0.10514  1
 Ni  Ni1  1  0.00000  0.00000  0.00000  1
 Ni  Ni2  1  0.02406  0.65306  0.32335  1
 Ni  Ni3  1  0.97594  0.34694  0.67665  1
 Ni  Ni4  1  0.48357  0.18420  0.33314  1
 Ni  Ni5  1  0.51643  0.81580  0.66686  1
 Ni  Ni6  1  0.50000  0.50000  -0.00000  1
 O  O1  1  0.30274  0.45966  0.21670  1
 O  O2  1  0.69726  0.54034  0.78330  1
