CIF file written using JARVIS-Tools package.
data_LiScVO4
_symmetry_space_group_name_H-M  'Imma'
_cell_length_a       6.03367
_cell_length_b       6.03367
_cell_length_c       6.03367
_cell_angle_alpha    62.3984
_cell_angle_beta     89.9841
_cell_angle_gamma    122.439

_symmetry_Int_Tables_number  74
_chemical_formula_structural  LiScVO4
_chemical_formula_sum  Li2Sc2V2O8
_cell_volume  154.92706825017092
_cell_formula_units_Z  2
loop_
  _symmetry_equiv_pos_site_id
 _symmetry_equiv_pos_as_xyz
 1  'x, y, z'
loop_
 _atom_site_type_symbol
 _atom_site_label
 _atom_site_symmetry_multiplicity
 _atom_site_fract_x
 _atom_site_fract_y
 _atom_site_fract_z
 _atom_site_fract_occupancy
 Li  Li1  1  0.11789  0.25000  0.13211  1
 Li  Li2  1  0.88211  0.75000  0.86789  1
 O  O1  1  0.28604  0.01232  0.72628  1
 O  O2  1  0.23860  0.51232  0.27372  1
 O  O3  1  0.25392  0.53458  0.71150  1
 O  O4  1  0.25392  0.96542  0.28066  1
 O  O5  1  0.74608  0.03458  0.71934  1
 O  O6  1  0.74608  0.46542  0.28850  1
 O  O7  1  0.76140  0.48768  0.72628  1
 O  O8  1  0.71396  0.98768  0.27372  1
 Sc  Sc1  1  0.50000  -0.00000  -0.00000  1
 Sc  Sc2  1  0.50000  0.50000  0.50000  1
 V  V1  1  0.50000  -0.00000  0.50000  1
 V  V2  1  -0.00000  0.50000  0.50000  1
