CIF file written using JARVIS-Tools package.
data_RePCl9
_symmetry_space_group_name_H-M  'P-1'
_cell_length_a       6.7935
_cell_length_b       8.91764
_cell_length_c       9.3465
_cell_angle_alpha    100.348
_cell_angle_beta     95.5768
_cell_angle_gamma    96.1639

_symmetry_Int_Tables_number  2
_chemical_formula_structural  RePCl9
_chemical_formula_sum  Re2P2Cl8
_cell_volume  549.8601374544711
_cell_formula_units_Z  2
loop_
  _symmetry_equiv_pos_site_id
 _symmetry_equiv_pos_as_xyz
 1  'x, y, z'
loop_
 _atom_site_type_symbol
 _atom_site_label
 _atom_site_symmetry_multiplicity
 _atom_site_fract_x
 _atom_site_fract_y
 _atom_site_fract_z
 _atom_site_fract_occupancy
 Cl  Cl1  1  0.94007  0.19571  0.57903  1
 Cl  Cl2  1  0.41514  0.15970  0.44204  1
 Cl  Cl3  1  0.58486  0.84030  0.55796  1
 Cl  Cl4  1  0.05318  0.28467  0.23914  1
 Cl  Cl5  1  0.94682  0.71533  0.76086  1
 Cl  Cl6  1  0.51434  0.24053  0.12368  1
 Cl  Cl7  1  0.48566  0.75947  0.87632  1
 Cl  Cl8  1  0.72034  0.48469  0.44899  1
 Cl  Cl9  1  0.84447  0.60966  0.11056  1
 Cl  Cl10  1  0.15553  0.39034  0.88944  1
 Cl  Cl11  1  0.27966  0.51531  0.55101  1
 Cl  Cl12  1  0.05993  0.80429  0.42097  1
 Cl  Cl13  1  0.26459  0.05370  0.76862  1
 Cl  Cl14  1  0.73541  0.94630  0.23138  1
 Cl  Cl15  1  0.83766  0.09414  0.87753  1
 Cl  Cl16  1  0.16234  0.90586  0.12247  1
 Cl  Cl17  1  0.62865  0.41261  0.78551  1
 Cl  Cl18  1  0.37135  0.58739  0.21449  1
 P  P1  1  0.95055  0.81437  0.22158  1
 P  P2  1  0.04945  0.18563  0.77842  1
 Re  Re1  1  0.61483  0.62942  0.67407  1
 Re  Re2  1  0.38517  0.37058  0.32593  1
