CIF file written using JARVIS-Tools package.
data_HfMg6Fe
_symmetry_space_group_name_H-M  'Amm2'
_cell_length_a       6.33737
_cell_length_b       6.33737
_cell_length_c       4.76283
_cell_angle_alpha    90
_cell_angle_beta     90
_cell_angle_gamma    122.831

_symmetry_Int_Tables_number  38
_chemical_formula_structural  HfMg6Fe
_chemical_formula_sum  HfMg6Fe
_cell_volume  160.73235860730844
_cell_formula_units_Z  1
loop_
  _symmetry_equiv_pos_site_id
 _symmetry_equiv_pos_as_xyz
 1  'x, y, z'
loop_
 _atom_site_type_symbol
 _atom_site_label
 _atom_site_symmetry_multiplicity
 _atom_site_fract_x
 _atom_site_fract_y
 _atom_site_fract_z
 _atom_site_fract_occupancy
 Fe  Fe1  1  0.20402  0.29598  0.25000  1
 Hf  Hf1  1  0.30420  0.19580  0.75000  1
 Mg  Mg1  1  0.17645  0.83842  0.25000  1
 Mg  Mg2  1  0.66158  0.32355  0.25000  1
 Mg  Mg3  1  0.67379  0.82621  0.25000  1
 Mg  Mg4  1  0.31727  0.66995  0.75000  1
 Mg  Mg5  1  0.83005  0.18273  0.75000  1
 Mg  Mg6  1  0.83265  0.66735  0.75000  1
