CIF file written using JARVIS-Tools package.
data_Mg6TiV
_symmetry_space_group_name_H-M  'Amm2'
_cell_length_a       6.29745
_cell_length_b       6.29746
_cell_length_c       4.83574
_cell_angle_alpha    90
_cell_angle_beta     90
_cell_angle_gamma    121.897

_symmetry_Int_Tables_number  38
_chemical_formula_structural  Mg6TiV
_chemical_formula_sum  Mg6TiV
_cell_volume  162.8169330864351
_cell_formula_units_Z  1
loop_
  _symmetry_equiv_pos_site_id
 _symmetry_equiv_pos_as_xyz
 1  'x, y, z'
loop_
 _atom_site_type_symbol
 _atom_site_label
 _atom_site_symmetry_multiplicity
 _atom_site_fract_x
 _atom_site_fract_y
 _atom_site_fract_z
 _atom_site_fract_occupancy
 Mg  Mg1  1  0.17844  0.83837  0.25000  1
 Mg  Mg2  1  0.66163  0.32156  0.25000  1
 Mg  Mg3  1  0.67104  0.82896  0.25000  1
 Mg  Mg4  1  0.31997  0.66224  0.75000  1
 Mg  Mg5  1  0.83776  0.18003  0.75000  1
 Mg  Mg6  1  0.83163  0.66837  0.75000  1
 Ti  Ti1  1  0.31250  0.18750  0.75000  1
 V  V1  1  0.18702  0.31298  0.25000  1
