CIF file written using JARVIS-Tools package.
data_Er3CoSi3
_symmetry_space_group_name_H-M  'C2/m'
_cell_length_a       4.14137
_cell_length_b       5.57637
_cell_length_c       12.6616
_cell_angle_alpha    84.8559
_cell_angle_beta     80.5875
_cell_angle_gamma    68.2021

_symmetry_Int_Tables_number  12
_chemical_formula_structural  Er3CoSi3
_chemical_formula_sum  Er6Co2Si6
_cell_volume  267.7087812928174
_cell_formula_units_Z  2
loop_
  _symmetry_equiv_pos_site_id
 _symmetry_equiv_pos_as_xyz
 1  'x, y, z'
loop_
 _atom_site_type_symbol
 _atom_site_label
 _atom_site_symmetry_multiplicity
 _atom_site_fract_x
 _atom_site_fract_y
 _atom_site_fract_z
 _atom_site_fract_occupancy
 Co  Co1  1  0.75259  0.07841  0.41641  1
 Co  Co2  1  0.24741  0.92159  0.58359  1
 Er  Er1  1  0.74738  0.73409  0.77116  1
 Er  Er2  1  0.39996  0.28091  0.91917  1
 Er  Er3  1  0.60004  0.71909  0.08083  1
 Er  Er4  1  0.47552  0.66936  0.37961  1
 Er  Er5  1  0.25262  0.26591  0.22884  1
 Er  Er6  1  0.52448  0.33064  0.62039  1
 Si  Si1  1  0.05136  0.13902  0.75825  1
 Si  Si2  1  0.13964  0.26504  0.45569  1
 Si  Si3  1  0.86036  0.73496  0.54431  1
 Si  Si4  1  0.94864  0.86098  0.24175  1
 Si  Si5  1  0.88267  0.15884  0.07583  1
 Si  Si6  1  0.11733  0.84116  0.92417  1
