CIF file written using JARVIS-Tools package.
data_Li2EuGeS4
_symmetry_space_group_name_H-M  'Fmm2'
_cell_length_a       5.57507
_cell_length_b       6.44311
_cell_length_c       6.44254
_cell_angle_alpha    104.547
_cell_angle_beta     115.635
_cell_angle_gamma    115.64

_symmetry_Int_Tables_number  42
_chemical_formula_structural  Li2EuGeS4
_chemical_formula_sum  Li2EuGeS4
_cell_volume  158.39035504989846
_cell_formula_units_Z  1
loop_
  _symmetry_equiv_pos_site_id
 _symmetry_equiv_pos_as_xyz
 1  'x, y, z'
loop_
 _atom_site_type_symbol
 _atom_site_label
 _atom_site_symmetry_multiplicity
 _atom_site_fract_x
 _atom_site_fract_y
 _atom_site_fract_z
 _atom_site_fract_occupancy
 Eu  Eu1  1  0.00003  -0.05909  -0.05909  1
 Ge  Ge1  1  0.00001  0.47706  0.47706  1
 Li  Li1  1  0.49999  0.20170  0.70168  1
 Li  Li2  1  0.49999  0.70170  0.20169  1
 S  S1  1  -0.00002  0.65413  0.17991  1
 S  S2  1  -0.00002  0.17992  0.65413  1
 S  S3  1  0.46410  0.90433  0.90435  1
 S  S4  1  0.53592  0.44025  0.44028  1
