CIF file written using JARVIS-Tools package.
data_CaFeClO2
_symmetry_space_group_name_H-M  'Cm'
_cell_length_a       4.88274
_cell_length_b       3.42693
_cell_length_c       12.8312
_cell_angle_alpha    95.2963
_cell_angle_beta     91.8173
_cell_angle_gamma    134.561

_symmetry_Int_Tables_number  8
_chemical_formula_structural  CaFeClO2
_chemical_formula_sum  Ca2Fe2Cl2O4
_cell_volume  150.9080672909321
_cell_formula_units_Z  2
loop_
  _symmetry_equiv_pos_site_id
 _symmetry_equiv_pos_as_xyz
 1  'x, y, z'
loop_
 _atom_site_type_symbol
 _atom_site_label
 _atom_site_symmetry_multiplicity
 _atom_site_fract_x
 _atom_site_fract_y
 _atom_site_fract_z
 _atom_site_fract_occupancy
 Ca  Ca1  1  0.42102  0.74396  0.82767  1
 Ca  Ca2  1  0.74262  0.42507  0.47119  1
 Cl  Cl1  1  0.63601  0.25095  0.25788  1
 Cl  Cl2  1  0.32878  0.07505  0.64351  1
 Fe  Fe1  1  0.14233  0.24878  0.27060  1
 Fe  Fe2  1  0.00919  0.81139  0.00410  1
 O  O1  1  0.07245  0.14999  0.13071  1
 O  O2  1  0.50695  0.15375  -0.00042  1
 O  O3  1  -0.06347  -0.21709  0.85869  1
 O  O4  1  0.21728  0.38304  0.42054  1
