CIF file written using JARVIS-Tools package.
data_LiFeSi2O6
_symmetry_space_group_name_H-M  'C2/c'
_cell_length_a       5.2847
_cell_length_b       6.37686
_cell_length_c       6.37686
_cell_angle_alpha    83.1637
_cell_angle_beta     74.7836
_cell_angle_gamma    74.7835

_symmetry_Int_Tables_number  15
_chemical_formula_structural  LiFeSi2O6
_chemical_formula_sum  Li2Fe2Si4O2
_cell_volume  199.8043408816542
_cell_formula_units_Z  2
loop_
  _symmetry_equiv_pos_site_id
 _symmetry_equiv_pos_as_xyz
 1  'x, y, z'
loop_
 _atom_site_type_symbol
 _atom_site_label
 _atom_site_symmetry_multiplicity
 _atom_site_fract_x
 _atom_site_fract_y
 _atom_site_fract_z
 _atom_site_fract_occupancy
 Fe  Fe1  1  0.75000  0.91534  0.08466  1
 Fe  Fe2  1  0.25000  0.08466  0.91534  1
 Li  Li1  1  0.75000  0.26134  0.73866  1
 Li  Li2  1  0.25000  0.73866  0.26134  1
 O  O1  1  0.32245  0.36230  0.90074  1
 O  O2  1  0.67755  0.63770  0.09926  1
 O  O3  1  0.82245  0.90074  0.36230  1
 O  O4  1  0.35659  0.02487  0.19886  1
 O  O5  1  0.94801  0.35456  0.36378  1
 O  O6  1  0.85659  0.19886  0.02487  1
 O  O7  1  0.17755  0.09926  0.63770  1
 O  O8  1  0.55199  0.63622  0.64544  1
 O  O9  1  0.44801  0.36378  0.35456  1
 O  O10  1  0.05199  0.64544  0.63622  1
 O  O11  1  0.14341  0.80114  0.97513  1
 O  O12  1  0.64341  0.97513  0.80114  1
 Si  Si1  1  0.74197  0.39242  0.20412  1
 Si  Si2  1  0.25803  0.60758  0.79588  1
 Si  Si3  1  0.24197  0.20412  0.39242  1
 Si  Si4  1  0.75803  0.79588  0.60758  1
