CIF file written using JARVIS-Tools package.
data_RbNbO3
_symmetry_space_group_name_H-M  'C2/m'
_cell_length_a       6.51338
_cell_length_b       6.51338
_cell_length_c       8.16463
_cell_angle_alpha    85.6792
_cell_angle_beta     94.3208
_cell_angle_gamma    97.187

_symmetry_Int_Tables_number  12
_chemical_formula_structural  RbNbO3
_chemical_formula_sum  Rb4Nb4O2
_cell_volume  341.91802079332035
_cell_formula_units_Z  4
loop_
  _symmetry_equiv_pos_site_id
 _symmetry_equiv_pos_as_xyz
 1  'x, y, z'
loop_
 _atom_site_type_symbol
 _atom_site_label
 _atom_site_symmetry_multiplicity
 _atom_site_fract_x
 _atom_site_fract_y
 _atom_site_fract_z
 _atom_site_fract_occupancy
 Nb  Nb1  1  0.26160  0.73840  0.20307  1
 Nb  Nb2  1  0.18933  0.18933  0.00000  1
 Nb  Nb3  1  0.81067  0.81067  0.00000  1
 Nb  Nb4  1  0.73840  0.26160  0.79693  1
 O  O1  1  0.95442  0.70859  0.21633  1
 O  O2  1  0.12185  0.87815  0.94701  1
 O  O3  1  0.66556  0.33444  0.58099  1
 O  O4  1  0.04558  0.29141  0.78367  1
 O  O5  1  0.70859  0.95442  0.78367  1
 O  O6  1  0.33444  0.66556  0.41901  1
 O  O7  1  0.22831  0.45112  0.10623  1
 O  O8  1  0.87815  0.12185  0.05299  1
 O  O9  1  0.77169  0.54888  0.89377  1
 O  O10  1  0.54888  0.77169  0.10623  1
 O  O11  1  0.29141  0.04558  0.21633  1
 O  O12  1  0.45112  0.22831  0.89377  1
 Rb  Rb1  1  0.66328  0.33672  0.23273  1
 Rb  Rb2  1  0.76851  0.76851  0.50000  1
 Rb  Rb3  1  0.23149  0.23149  0.50000  1
 Rb  Rb4  1  0.33672  0.66328  0.76727  1
