CIF file written using JARVIS-Tools package.
data_RbCrO2
_symmetry_space_group_name_H-M  'R-3m'
_cell_length_a       6.47884
_cell_length_b       6.47884
_cell_length_c       6.47884
_cell_angle_alpha    27.2389
_cell_angle_beta     27.2389
_cell_angle_gamma    27.2388

_symmetry_Int_Tables_number  166
_chemical_formula_structural  RbCrO2
_chemical_formula_sum  RbCrO2
_cell_volume  50.26673448872664
_cell_formula_units_Z  1
loop_
  _symmetry_equiv_pos_site_id
 _symmetry_equiv_pos_as_xyz
 1  'x, y, z'
loop_
 _atom_site_type_symbol
 _atom_site_label
 _atom_site_symmetry_multiplicity
 _atom_site_fract_x
 _atom_site_fract_y
 _atom_site_fract_z
 _atom_site_fract_occupancy
 Cr  Cr1  1  0.50000  0.50000  0.50000  1
 O  O1  1  0.22095  0.22095  0.22095  1
 O  O2  1  0.77905  0.77905  0.77905  1
 Rb  Rb1  1  0.00000  0.00000  0.00000  1
