CIF file written using JARVIS-Tools package.
data_EuTl3
_symmetry_space_group_name_H-M  'P6_3/mmc'
_cell_length_a       5.42028
_cell_length_b       6.83478
_cell_length_c       6.83478
_cell_angle_alpha    120.006
_cell_angle_beta     90
_cell_angle_gamma    90

_symmetry_Int_Tables_number  194
_chemical_formula_structural  EuTl3
_chemical_formula_sum  Eu2Tl6
_cell_volume  219.26842981182924
_cell_formula_units_Z  2
loop_
  _symmetry_equiv_pos_site_id
 _symmetry_equiv_pos_as_xyz
 1  'x, y, z'
loop_
 _atom_site_type_symbol
 _atom_site_label
 _atom_site_symmetry_multiplicity
 _atom_site_fract_x
 _atom_site_fract_y
 _atom_site_fract_z
 _atom_site_fract_occupancy
 Eu  Eu1  1  0.75000  0.66673  0.33327  1
 Eu  Eu2  1  0.25000  0.33327  0.66673  1
 Tl  Tl1  1  0.75000  0.16589  0.33160  1
 Tl  Tl2  1  0.75000  0.16586  0.83414  1
 Tl  Tl3  1  0.75000  0.66840  0.83411  1
 Tl  Tl4  1  0.25000  0.83411  0.66840  1
 Tl  Tl5  1  0.25000  0.83414  0.16586  1
 Tl  Tl6  1  0.25000  0.33160  0.16589  1
