CIF file written using JARVIS-Tools package.
data_RbYMg6
_symmetry_space_group_name_H-M  'P-6m2'
_cell_length_a       7.01934
_cell_length_b       7.01934
_cell_length_c       5.33997
_cell_angle_alpha    90
_cell_angle_beta     90
_cell_angle_gamma    120.004

_symmetry_Int_Tables_number  187
_chemical_formula_structural  RbYMg6
_chemical_formula_sum  RbYMg6
_cell_volume  227.84723458971186
_cell_formula_units_Z  1
loop_
  _symmetry_equiv_pos_site_id
 _symmetry_equiv_pos_as_xyz
 1  'x, y, z'
loop_
 _atom_site_type_symbol
 _atom_site_label
 _atom_site_symmetry_multiplicity
 _atom_site_fract_x
 _atom_site_fract_y
 _atom_site_fract_z
 _atom_site_fract_occupancy
 Mg  Mg1  1  0.04973  0.89987  0.25000  1
 Mg  Mg2  1  0.60013  0.45027  0.25000  1
 Mg  Mg3  1  0.60017  0.89983  0.25000  1
 Mg  Mg4  1  0.41421  0.58216  0.75000  1
 Mg  Mg5  1  0.91784  0.08579  0.75000  1
 Mg  Mg6  1  0.91793  0.58207  0.75000  1
 Rb  Rb1  1  0.41665  0.08335  0.75000  1
 Y  Y1  1  0.08333  0.41667  0.25000  1
