CIF file written using JARVIS-Tools package.
data_KN3
_symmetry_space_group_name_H-M  'I4/mcm'
_cell_length_a       5.54175
_cell_length_b       5.54175
_cell_length_c       5.54175
_cell_angle_alpha    102.328
_cell_angle_beta     113.157
_cell_angle_gamma    113.157

_symmetry_Int_Tables_number  140
_chemical_formula_structural  KN3
_chemical_formula_sum  K2N6
_cell_volume  129.51336037893668
_cell_formula_units_Z  2
loop_
  _symmetry_equiv_pos_site_id
 _symmetry_equiv_pos_as_xyz
 1  'x, y, z'
loop_
 _atom_site_type_symbol
 _atom_site_label
 _atom_site_symmetry_multiplicity
 _atom_site_fract_x
 _atom_site_fract_y
 _atom_site_fract_z
 _atom_site_fract_occupancy
 K  K1  1  0.00000  0.75000  0.75000  1
 K  K2  1  0.00000  0.25000  0.25000  1
 N  N1  1  0.50000  0.00000  0.50000  1
 N  N2  1  0.50000  0.50000  0.00000  1
 N  N3  1  0.22515  0.86257  0.36257  1
 N  N4  1  0.77485  0.13743  0.63743  1
 N  N5  1  0.50000  0.63743  0.86257  1
 N  N6  1  0.50000  0.36257  0.13743  1
