CIF file written using JARVIS-Tools package.
data_Mg6CoW
_symmetry_space_group_name_H-M  'Amm2'
_cell_length_a       6.05275
_cell_length_b       5.67079
_cell_length_c       4.76016
_cell_angle_alpha    90
_cell_angle_beta     90
_cell_angle_gamma    117.934

_symmetry_Int_Tables_number  38
_chemical_formula_structural  Mg6CoW
_chemical_formula_sum  Mg6CoW
_cell_volume  144.35092241365734
_cell_formula_units_Z  1
loop_
  _symmetry_equiv_pos_site_id
 _symmetry_equiv_pos_as_xyz
 1  'x, y, z'
loop_
 _atom_site_type_symbol
 _atom_site_label
 _atom_site_symmetry_multiplicity
 _atom_site_fract_x
 _atom_site_fract_y
 _atom_site_fract_z
 _atom_site_fract_occupancy
 Co  Co1  1  0.15921  0.32960  0.25000  1
 Mg  Mg1  1  0.64847  0.32475  0.25000  1
 Mg  Mg2  1  0.64847  0.82371  0.25000  1
 Mg  Mg3  1  0.33194  0.16254  0.75000  1
 Mg  Mg4  1  0.33194  0.66941  0.75000  1
 Mg  Mg5  1  0.87887  0.18944  0.75000  1
 Mg  Mg6  1  0.85607  0.67804  0.75000  1
 W  W1  1  0.14503  0.82251  0.25000  1
