CIF file written using JARVIS-Tools package.
data_NbOF3
_symmetry_space_group_name_H-M  'P-42_1m'
_cell_length_a       8.46337
_cell_length_b       8.46337
_cell_length_c       3.92387
_cell_angle_alpha    90
_cell_angle_beta     90
_cell_angle_gamma    90

_symmetry_Int_Tables_number  113
_chemical_formula_structural  NbOF3
_chemical_formula_sum  Nb4O4F2
_cell_volume  281.0619526737469
_cell_formula_units_Z  4
loop_
  _symmetry_equiv_pos_site_id
 _symmetry_equiv_pos_as_xyz
 1  'x, y, z'
loop_
 _atom_site_type_symbol
 _atom_site_label
 _atom_site_symmetry_multiplicity
 _atom_site_fract_x
 _atom_site_fract_y
 _atom_site_fract_z
 _atom_site_fract_occupancy
 F  F1  1  0.37758  0.63422  0.75089  1
 F  F2  1  0.39692  0.10308  0.75284  1
 F  F3  1  0.13422  0.87758  0.75089  1
 F  F4  1  0.12242  0.13422  0.24911  1
 F  F5  1  0.62242  0.36578  0.75089  1
 F  F6  1  0.86578  0.12242  0.75089  1
 F  F7  1  0.89692  0.39692  0.24716  1
 F  F8  1  0.10308  0.60308  0.24716  1
 F  F9  1  0.63422  0.62242  0.24911  1
 F  F10  1  0.60308  0.89692  0.75284  1
 F  F11  1  0.87758  0.86578  0.24911  1
 F  F12  1  0.36578  0.37758  0.24911  1
 Nb  Nb1  1  0.35431  0.85431  0.79400  1
 Nb  Nb2  1  0.85431  0.64569  0.20600  1
 Nb  Nb3  1  0.14569  0.35431  0.20600  1
 Nb  Nb4  1  0.64569  0.14569  0.79400  1
 O  O1  1  0.37097  0.87097  0.25692  1
 O  O2  1  0.87097  0.62903  0.74308  1
 O  O3  1  0.12903  0.37097  0.74308  1
 O  O4  1  0.62903  0.12903  0.25692  1
