CIF file written using JARVIS-Tools package.
data_BeZn2Pd2
_symmetry_space_group_name_H-M  'I4/mmm'
_cell_length_a       7.14304
_cell_length_b       7.14304
_cell_length_c       7.14304
_cell_angle_alpha    153.165
_cell_angle_beta     153.165
_cell_angle_gamma    38.3145

_symmetry_Int_Tables_number  139
_chemical_formula_structural  BeZn2Pd2
_chemical_formula_sum  BeZn2Pd2
_cell_volume  74.15004425266822
_cell_formula_units_Z  1
loop_
  _symmetry_equiv_pos_site_id
 _symmetry_equiv_pos_as_xyz
 1  'x, y, z'
loop_
 _atom_site_type_symbol
 _atom_site_label
 _atom_site_symmetry_multiplicity
 _atom_site_fract_x
 _atom_site_fract_y
 _atom_site_fract_z
 _atom_site_fract_occupancy
 Be  Be1  1  0.00000  0.00000  0.00000  1
 Pd  Pd1  1  0.59551  0.59551  -0.00000  1
 Pd  Pd2  1  0.40449  0.40449  -0.00000  1
 Zn  Zn1  1  0.75000  0.25000  0.50000  1
 Zn  Zn2  1  0.25000  0.75000  0.50000  1
