CIF file written using JARVIS-Tools package.
data_Sm2Cr2Fe15
_symmetry_space_group_name_H-M  'R-3m'
_cell_length_a       6.31471
_cell_length_b       6.31471
_cell_length_c       6.31471
_cell_angle_alpha    82.4146
_cell_angle_beta     82.4146
_cell_angle_gamma    82.4146

_symmetry_Int_Tables_number  166
_chemical_formula_structural  Sm2Cr2Fe15
_chemical_formula_sum  Sm2Cr2Fe5
_cell_volume  245.72659833914292
_cell_formula_units_Z  1
loop_
  _symmetry_equiv_pos_site_id
 _symmetry_equiv_pos_as_xyz
 1  'x, y, z'
loop_
 _atom_site_type_symbol
 _atom_site_label
 _atom_site_symmetry_multiplicity
 _atom_site_fract_x
 _atom_site_fract_y
 _atom_site_fract_z
 _atom_site_fract_occupancy
 Cr  Cr1  1  0.08889  0.08889  0.08889  1
 Cr  Cr2  1  0.91111  0.91111  0.91111  1
 Fe  Fe1  1  -0.00000  0.29411  0.70589  1
 Fe  Fe2  1  0.84577  0.33668  0.33668  1
 Fe  Fe3  1  0.15423  0.66332  0.66332  1
 Fe  Fe4  1  0.66332  0.66332  0.15423  1
 Fe  Fe5  1  0.66332  0.15423  0.66332  1
 Fe  Fe6  1  0.29411  -0.00000  0.70589  1
 Fe  Fe7  1  0.00000  0.70589  0.29411  1
 Fe  Fe8  1  0.70589  0.29411  -0.00000  1
 Fe  Fe9  1  0.70589  0.00000  0.29411  1
 Fe  Fe10  1  0.29411  0.70589  0.00000  1
 Fe  Fe11  1  -0.00000  0.50000  -0.00000  1
 Fe  Fe12  1  0.50000  -0.00000  -0.00000  1
 Fe  Fe13  1  0.00000  -0.00000  0.50000  1
 Fe  Fe14  1  0.33668  0.84577  0.33668  1
 Fe  Fe15  1  0.33668  0.33668  0.84577  1
 Sm  Sm1  1  0.65559  0.65559  0.65559  1
 Sm  Sm2  1  0.34441  0.34441  0.34441  1
