CIF file written using JARVIS-Tools package.
data_RbLiMg6
_symmetry_space_group_name_H-M  'Amm2'
_cell_length_a       8.85641
_cell_length_b       8.85641
_cell_length_c       5.01343
_cell_angle_alpha    90
_cell_angle_beta     90
_cell_angle_gamma    138.387

_symmetry_Int_Tables_number  38
_chemical_formula_structural  RbLiMg6
_chemical_formula_sum  RbLiMg6
_cell_volume  261.14697741885635
_cell_formula_units_Z  1
loop_
  _symmetry_equiv_pos_site_id
 _symmetry_equiv_pos_as_xyz
 1  'x, y, z'
loop_
 _atom_site_type_symbol
 _atom_site_label
 _atom_site_symmetry_multiplicity
 _atom_site_fract_x
 _atom_site_fract_y
 _atom_site_fract_z
 _atom_site_fract_occupancy
 Li  Li1  1  0.10914  0.39086  0.25000  1
 Mg  Mg1  1  0.21357  0.80083  0.25000  1
 Mg  Mg2  1  0.69917  0.28643  0.25000  1
 Mg  Mg3  1  0.63437  0.86563  0.25000  1
 Mg  Mg4  1  0.32667  0.68205  0.75000  1
 Mg  Mg5  1  0.81795  0.17333  0.75000  1
 Mg  Mg6  1  0.91285  0.58715  0.75000  1
 Rb  Rb1  1  0.28627  0.21373  0.75000  1
