CIF file written using JARVIS-Tools package.
data_TiMnP2O8
_symmetry_space_group_name_H-M  'P2_1/m'
_cell_length_a       4.91935
_cell_length_b       5.91457
_cell_length_c       9.9508
_cell_angle_alpha    90
_cell_angle_beta     90.2841
_cell_angle_gamma    90

_symmetry_Int_Tables_number  11
_chemical_formula_structural  TiMnP2O8
_chemical_formula_sum  Ti2Mn2P4O6
_cell_volume  289.5229101691916
_cell_formula_units_Z  2
loop_
  _symmetry_equiv_pos_site_id
 _symmetry_equiv_pos_as_xyz
 1  'x, y, z'
loop_
 _atom_site_type_symbol
 _atom_site_label
 _atom_site_symmetry_multiplicity
 _atom_site_fract_x
 _atom_site_fract_y
 _atom_site_fract_z
 _atom_site_fract_occupancy
 Mn  Mn1  1  0.05807  0.75000  0.27403  1
 Mn  Mn2  1  0.94193  0.25000  0.72597  1
 O  O1  1  0.71201  0.94940  0.66819  1
 O  O2  1  0.34218  0.25000  0.06049  1
 O  O3  1  0.27672  0.75000  0.10548  1
 O  O4  1  0.72010  0.95798  0.16278  1
 O  O5  1  0.72328  0.25000  0.89452  1
 O  O6  1  0.28799  0.05060  0.33181  1
 O  O7  1  0.28799  0.44940  0.33181  1
 O  O8  1  0.72010  0.54202  0.16278  1
 O  O9  1  0.84244  0.75000  0.44609  1
 O  O10  1  0.15756  0.25000  0.55391  1
 O  O11  1  0.65782  0.75000  0.93951  1
 O  O12  1  0.83225  0.25000  0.35853  1
 O  O13  1  0.71201  0.55060  0.66819  1
 O  O14  1  0.27990  0.45798  0.83722  1
 O  O15  1  0.27990  0.04202  0.83722  1
 O  O16  1  0.16775  0.75000  0.64147  1
 P  P1  1  0.41822  0.25000  0.90943  1
 P  P2  1  0.86721  0.75000  0.59645  1
 P  P3  1  0.13279  0.25000  0.40355  1
 P  P4  1  0.58178  0.75000  0.09057  1
 Ti  Ti1  1  0.44580  0.75000  0.77574  1
 Ti  Ti2  1  0.55420  0.25000  0.22426  1
