CIF file written using JARVIS-Tools package.
data_Li2FeB2O6
_symmetry_space_group_name_H-M  'P2_1/c'
_cell_length_a       5.35633
_cell_length_b       7.69136
_cell_length_c       5.79665
_cell_angle_alpha    90
_cell_angle_beta     119.256
_cell_angle_gamma    90

_symmetry_Int_Tables_number  14
_chemical_formula_structural  Li2FeB2O6
_chemical_formula_sum  Li4Fe2B4O2
_cell_volume  208.34661025600332
_cell_formula_units_Z  2
loop_
  _symmetry_equiv_pos_site_id
 _symmetry_equiv_pos_as_xyz
 1  'x, y, z'
loop_
 _atom_site_type_symbol
 _atom_site_label
 _atom_site_symmetry_multiplicity
 _atom_site_fract_x
 _atom_site_fract_y
 _atom_site_fract_z
 _atom_site_fract_occupancy
 B  B1  1  0.12089  0.25860  0.86918  1
 B  B2  1  0.87911  0.75860  0.63082  1
 B  B3  1  0.12089  0.24140  0.36918  1
 B  B4  1  0.87911  0.74140  0.13082  1
 Fe  Fe1  1  0.00000  0.00000  0.00000  1
 Fe  Fe2  1  -0.00000  0.50000  0.50000  1
 Li  Li1  1  0.60901  0.43587  0.80005  1
 Li  Li2  1  0.39099  0.93587  0.69995  1
 Li  Li3  1  0.60901  0.06413  0.30005  1
 Li  Li4  1  0.39099  0.56413  0.19995  1
 O  O1  1  0.77590  0.58120  0.15352  1
 O  O2  1  0.22410  0.41880  0.84648  1
 O  O3  1  0.12173  0.73521  0.60468  1
 O  O4  1  0.87827  0.23521  0.89532  1
 O  O5  1  0.27276  0.10510  0.91490  1
 O  O6  1  0.87827  0.26479  0.39532  1
 O  O7  1  0.27276  0.39490  0.41490  1
 O  O8  1  0.22410  0.08120  0.34648  1
 O  O9  1  0.12173  0.76479  0.10468  1
 O  O10  1  0.77590  0.91880  0.65352  1
 O  O11  1  0.72724  0.60510  0.58510  1
 O  O12  1  0.72724  0.89490  0.08510  1
