CIF file written using JARVIS-Tools package.
data_LiMnOF2
_symmetry_space_group_name_H-M  'Pnn2'
_cell_length_a       4.88088
_cell_length_b       5.15953
_cell_length_c       8.42419
_cell_angle_alpha    90
_cell_angle_beta     90
_cell_angle_gamma    90

_symmetry_Int_Tables_number  34
_chemical_formula_structural  LiMnOF2
_chemical_formula_sum  Li4Mn4O4F8
_cell_volume  212.14666728202587
_cell_formula_units_Z  4
loop_
  _symmetry_equiv_pos_site_id
 _symmetry_equiv_pos_as_xyz
 1  'x, y, z'
loop_
 _atom_site_type_symbol
 _atom_site_label
 _atom_site_symmetry_multiplicity
 _atom_site_fract_x
 _atom_site_fract_y
 _atom_site_fract_z
 _atom_site_fract_occupancy
 F  F1  1  0.23571  0.34972  0.41391  1
 F  F2  1  0.27273  0.33219  0.75561  1
 F  F3  1  0.26429  0.84972  0.91391  1
 F  F4  1  0.73571  0.15028  0.91391  1
 F  F5  1  0.72727  0.66781  0.75561  1
 F  F6  1  0.77273  0.16781  0.25561  1
 F  F7  1  0.76429  0.65028  0.41391  1
 F  F8  1  0.22727  0.83219  0.25561  1
 Li  Li1  1  0.00000  0.00000  0.78610  1
 Li  Li2  1  0.50000  0.00000  0.68015  1
 Li  Li3  1  0.50000  0.50000  0.28610  1
 Li  Li4  1  0.00000  0.50000  0.18015  1
 Mn  Mn1  1  0.50000  0.00000  0.09394  1
 Mn  Mn2  1  0.50000  0.50000  0.92850  1
 Mn  Mn3  1  0.00000  0.50000  0.59394  1
 Mn  Mn4  1  0.00000  0.00000  0.42850  1
 O  O1  1  0.68302  0.68285  0.08613  1
 O  O2  1  0.81698  0.18285  0.58613  1
 O  O3  1  0.18302  0.81715  0.58613  1
 O  O4  1  0.31698  0.31715  0.08613  1
