CIF file written using JARVIS-Tools package.
data_PrTaO4
_symmetry_space_group_name_H-M  'P2_1/c'
_cell_length_a       5.55683
_cell_length_b       7.66051
_cell_length_c       7.79572
_cell_angle_alpha    100.249
_cell_angle_beta     90
_cell_angle_gamma    90

_symmetry_Int_Tables_number  14
_chemical_formula_structural  PrTaO4
_chemical_formula_sum  Pr4Ta4O6
_cell_volume  326.5541146983689
_cell_formula_units_Z  4
loop_
  _symmetry_equiv_pos_site_id
 _symmetry_equiv_pos_as_xyz
 1  'x, y, z'
loop_
 _atom_site_type_symbol
 _atom_site_label
 _atom_site_symmetry_multiplicity
 _atom_site_fract_x
 _atom_site_fract_y
 _atom_site_fract_z
 _atom_site_fract_occupancy
 O  O1  1  0.40850  0.94144  0.79742  1
 O  O2  1  0.01029  0.33239  0.36897  1
 O  O3  1  0.48971  0.33239  0.86897  1
 O  O4  1  0.98971  0.66761  0.63103  1
 O  O5  1  0.98527  0.61652  0.16966  1
 O  O6  1  0.48527  0.38348  0.33034  1
 O  O7  1  0.01473  0.38348  0.83034  1
 O  O8  1  0.51473  0.61652  0.66966  1
 O  O9  1  0.84683  0.83399  0.94492  1
 O  O10  1  0.34683  0.16601  0.55508  1
 O  O11  1  0.51029  0.66761  0.13103  1
 O  O12  1  0.65317  0.83399  0.44492  1
 O  O13  1  0.90850  0.05856  0.70258  1
 O  O14  1  0.59150  0.05856  0.20258  1
 O  O15  1  0.09150  0.94144  0.29742  1
 O  O16  1  0.15317  0.16601  0.05508  1
 Pr  Pr1  1  0.22398  0.65399  0.90063  1
 Pr  Pr2  1  0.72398  0.34601  0.59937  1
 Pr  Pr3  1  0.77602  0.34601  0.09937  1
 Pr  Pr4  1  0.27602  0.65399  0.40063  1
 Ta  Ta1  1  0.26827  0.16599  0.30386  1
 Ta  Ta2  1  0.73173  0.83401  0.69614  1
 Ta  Ta3  1  0.23173  0.16599  0.80386  1
 Ta  Ta4  1  0.76827  0.83401  0.19614  1
