CIF file written using JARVIS-Tools package.
data_Li2FeF4
_symmetry_space_group_name_H-M  'C2/c'
_cell_length_a       5.74469
_cell_length_b       5.74469
_cell_length_c       5.03092
_cell_angle_alpha    90.7724
_cell_angle_beta     89.2276
_cell_angle_gamma    119.864

_symmetry_Int_Tables_number  15
_chemical_formula_structural  Li2FeF4
_chemical_formula_sum  Li4Fe2F8
_cell_volume  143.96336226786934
_cell_formula_units_Z  2
loop_
  _symmetry_equiv_pos_site_id
 _symmetry_equiv_pos_as_xyz
 1  'x, y, z'
loop_
 _atom_site_type_symbol
 _atom_site_label
 _atom_site_symmetry_multiplicity
 _atom_site_fract_x
 _atom_site_fract_y
 _atom_site_fract_z
 _atom_site_fract_occupancy
 F  F1  1  0.71953  -0.00827  0.88879  1
 F  F2  1  0.00827  0.28047  0.38879  1
 F  F3  1  0.24938  0.51544  0.91348  1
 F  F4  1  0.48456  0.75062  0.41348  1
 F  F5  1  0.51544  0.24938  0.58652  1
 F  F6  1  0.75062  0.48456  0.08652  1
 F  F7  1  -0.00827  0.71953  0.61121  1
 F  F8  1  0.28047  0.00827  0.11121  1
 Fe  Fe1  1  0.62407  0.62407  0.75000  1
 Fe  Fe2  1  0.37593  0.37593  0.25000  1
 Li  Li1  1  0.33356  0.91745  0.76696  1
 Li  Li2  1  0.08255  0.66644  0.26696  1
 Li  Li3  1  0.91745  0.33356  0.73304  1
 Li  Li4  1  0.66644  0.08255  0.23304  1
