CIF file written using JARVIS-Tools package.
data_TbTe3
_symmetry_space_group_name_H-M  'Cmcm'
_cell_length_a       4.35262
_cell_length_b       4.35404
_cell_length_c       13.119
_cell_angle_alpha    90
_cell_angle_beta     99.5489
_cell_angle_gamma    90

_symmetry_Int_Tables_number  63
_chemical_formula_structural  TbTe3
_chemical_formula_sum  Tb2Te6
_cell_volume  245.18030820356813
_cell_formula_units_Z  2
loop_
  _symmetry_equiv_pos_site_id
 _symmetry_equiv_pos_as_xyz
 1  'x, y, z'
loop_
 _atom_site_type_symbol
 _atom_site_label
 _atom_site_symmetry_multiplicity
 _atom_site_fract_x
 _atom_site_fract_y
 _atom_site_fract_z
 _atom_site_fract_occupancy
 Tb  Tb1  1  0.17026  0.75000  0.34053  1
 Tb  Tb2  1  0.82974  0.25000  0.65947  1
 Te  Te1  1  0.92671  0.75000  0.85342  1
 Te  Te2  1  0.07329  0.25000  0.14658  1
 Te  Te3  1  0.57335  0.75000  0.14670  1
 Te  Te4  1  0.42665  0.25000  0.85330  1
 Te  Te5  1  0.29408  0.75000  0.58816  1
 Te  Te6  1  0.70592  0.25000  0.41184  1
