CIF file written using JARVIS-Tools package.
data_SrCeN2
_symmetry_space_group_name_H-M  'Cc'
_cell_length_a       7.35616
_cell_length_b       9.77996
_cell_length_c       6.31818
_cell_angle_alpha    29.3815
_cell_angle_beta     54.4011
_cell_angle_gamma    40.25

_symmetry_Int_Tables_number  9
_chemical_formula_structural  SrCeN2
_chemical_formula_sum  Sr2Ce2N4
_cell_volume  139.07221940085591
_cell_formula_units_Z  2
loop_
  _symmetry_equiv_pos_site_id
 _symmetry_equiv_pos_as_xyz
 1  'x, y, z'
loop_
 _atom_site_type_symbol
 _atom_site_label
 _atom_site_symmetry_multiplicity
 _atom_site_fract_x
 _atom_site_fract_y
 _atom_site_fract_z
 _atom_site_fract_occupancy
 Ce  Ce1  1  0.24830  0.48252  0.01632  1
 Ce  Ce2  1  0.49830  0.98255  0.01620  1
 N  N1  1  0.27783  0.03803  0.40744  1
 N  N2  1  0.03467  0.48848  0.45720  1
 N  N3  1  0.73144  0.98860  0.56332  1
 N  N4  1  0.47452  0.53800  0.51413  1
 Sr  Sr1  1  0.00072  0.98967  0.00799  1
 Sr  Sr2  1  0.74958  0.48966  0.01026  1
