CIF file written using JARVIS-Tools package.
data_Li8Co5O10
_symmetry_space_group_name_H-M  'P-1'
_cell_length_a       5.13917
_cell_length_b       6.42499
_cell_length_c       8.02648
_cell_angle_alpha    91.5486
_cell_angle_beta     103.961
_cell_angle_gamma    112.464

_symmetry_Int_Tables_number  2
_chemical_formula_structural  Li8Co5O10
_chemical_formula_sum  Li8Co5O0
_cell_volume  235.57220611026278
_cell_formula_units_Z  1
loop_
  _symmetry_equiv_pos_site_id
 _symmetry_equiv_pos_as_xyz
 1  'x, y, z'
loop_
 _atom_site_type_symbol
 _atom_site_label
 _atom_site_symmetry_multiplicity
 _atom_site_fract_x
 _atom_site_fract_y
 _atom_site_fract_z
 _atom_site_fract_occupancy
 Co  Co1  1  0.70112  0.69672  0.09690  1
 Co  Co2  1  0.29888  0.30328  0.90310  1
 Co  Co3  1  0.09908  0.10151  0.30514  1
 Co  Co4  1  0.50000  0.50000  0.50000  1
 Co  Co5  1  0.90092  0.89849  0.69486  1
 Li  Li1  1  0.91997  0.49694  0.83281  1
 Li  Li2  1  0.71088  0.13065  0.96462  1
 Li  Li3  1  0.09994  0.67978  0.44407  1
 Li  Li4  1  0.08003  0.50306  0.16719  1
 Li  Li5  1  0.47206  0.03925  0.65425  1
 Li  Li6  1  0.28912  0.86935  0.03538  1
 Li  Li7  1  0.52794  0.96075  0.34575  1
 Li  Li8  1  0.90006  0.32022  0.55593  1
 O  O1  1  0.10420  0.37979  0.38277  1
 O  O2  1  0.90090  0.17972  0.77536  1
 O  O3  1  0.71435  0.97960  0.16474  1
 O  O4  1  0.69924  0.42726  0.00561  1
 O  O5  1  0.47152  0.20565  0.45862  1
 O  O6  1  0.09910  0.82028  0.22464  1
 O  O7  1  0.30076  0.57274  -0.00561  1
 O  O8  1  0.28565  0.02040  0.83526  1
 O  O9  1  0.52848  0.79435  0.54138  1
 O  O10  1  0.89580  0.62021  0.61723  1
