CIF file written using JARVIS-Tools package.
data_Sr2CdWO6
_symmetry_space_group_name_H-M  'P2_1/c'
_cell_length_a       5.76639
_cell_length_b       5.9134
_cell_length_c       8.18435
_cell_angle_alpha    90
_cell_angle_beta     89.9494
_cell_angle_gamma    90

_symmetry_Int_Tables_number  14
_chemical_formula_structural  Sr2CdWO6
_chemical_formula_sum  Sr4Cd2W2O2
_cell_volume  279.0778574507949
_cell_formula_units_Z  2
loop_
  _symmetry_equiv_pos_site_id
 _symmetry_equiv_pos_as_xyz
 1  'x, y, z'
loop_
 _atom_site_type_symbol
 _atom_site_label
 _atom_site_symmetry_multiplicity
 _atom_site_fract_x
 _atom_site_fract_y
 _atom_site_fract_z
 _atom_site_fract_occupancy
 Cd  Cd1  1  0.50000  0.50000  -0.00000  1
 Cd  Cd2  1  -0.00000  0.00000  0.50000  1
 O  O1  1  0.91357  0.97056  0.22846  1
 O  O2  1  0.81989  0.72995  0.95024  1
 O  O3  1  0.31989  0.77005  0.45024  1
 O  O4  1  0.18011  0.27005  0.04976  1
 O  O5  1  0.77271  0.68487  0.54082  1
 O  O6  1  0.72729  0.18487  0.95918  1
 O  O7  1  0.22729  0.31513  0.45918  1
 O  O8  1  0.27271  0.81513  0.04082  1
 O  O9  1  0.41357  0.52944  0.72846  1
 O  O10  1  0.08643  0.02944  0.77154  1
 O  O11  1  0.58643  0.47056  0.27154  1
 O  O12  1  0.68011  0.22995  0.54976  1
 Sr  Sr1  1  0.51017  0.95299  0.75160  1
 Sr  Sr2  1  0.98983  0.45299  0.74840  1
 Sr  Sr3  1  0.48983  0.04701  0.24840  1
 Sr  Sr4  1  0.01017  0.54701  0.25160  1
 W  W1  1  0.50000  0.50000  0.50000  1
 W  W2  1  0.00000  0.00000  0.00000  1
