CIF file written using JARVIS-Tools package.
data_NaBeGa
_symmetry_space_group_name_H-M  'I4mm'
_cell_length_a       5.84822
_cell_length_b       5.84822
_cell_length_c       5.84822
_cell_angle_alpha    148.544
_cell_angle_beta     148.544
_cell_angle_gamma    45.0826

_symmetry_Int_Tables_number  107
_chemical_formula_structural  NaBeGa
_chemical_formula_sum  NaBeGa
_cell_volume  54.29681021970687
_cell_formula_units_Z  1
loop_
  _symmetry_equiv_pos_site_id
 _symmetry_equiv_pos_as_xyz
 1  'x, y, z'
loop_
 _atom_site_type_symbol
 _atom_site_label
 _atom_site_symmetry_multiplicity
 _atom_site_fract_x
 _atom_site_fract_y
 _atom_site_fract_z
 _atom_site_fract_occupancy
 Be  Be1  1  0.96063  0.96063  0.00000  1
 Ga  Ga1  1  0.37410  0.37410  -0.00000  1
 Na  Na1  1  0.66527  0.66527  0.00000  1
