CIF file written using JARVIS-Tools package.
data_Mg6NbC
_symmetry_space_group_name_H-M  'Amm2'
_cell_length_a       6.65235
_cell_length_b       5.53055
_cell_length_c       4.44913
_cell_angle_alpha    90
_cell_angle_beta     90
_cell_angle_gamma    114.56

_symmetry_Int_Tables_number  38
_chemical_formula_structural  Mg6NbC
_chemical_formula_sum  Mg6NbC
_cell_volume  148.87834859784914
_cell_formula_units_Z  1
loop_
  _symmetry_equiv_pos_site_id
 _symmetry_equiv_pos_as_xyz
 1  'x, y, z'
loop_
 _atom_site_type_symbol
 _atom_site_label
 _atom_site_symmetry_multiplicity
 _atom_site_fract_x
 _atom_site_fract_y
 _atom_site_fract_z
 _atom_site_fract_occupancy
 C  C1  1  0.29560  0.89782  0.25000  1
 Mg  Mg1  1  0.60792  0.30132  0.25000  1
 Mg  Mg2  1  0.60789  0.80661  0.25000  1
 Mg  Mg3  1  0.32193  0.15613  0.75000  1
 Mg  Mg4  1  0.32194  0.66579  0.75000  1
 Mg  Mg5  1  0.82986  0.16491  0.75000  1
 Mg  Mg6  1  0.89420  0.69708  0.75000  1
 Nb  Nb1  1  0.12065  0.31034  0.25000  1
