CIF file written using JARVIS-Tools package.
data_Be2NiIr
_symmetry_space_group_name_H-M  'I-4m2'
_cell_length_a       4.54551
_cell_length_b       4.54551
_cell_length_c       4.54551
_cell_angle_alpha    137.667
_cell_angle_beta     137.667
_cell_angle_gamma    61.4138

_symmetry_Int_Tables_number  119
_chemical_formula_structural  Be2NiIr
_chemical_formula_sum  Be2NiIr
_cell_volume  42.112422721356616
_cell_formula_units_Z  1
loop_
  _symmetry_equiv_pos_site_id
 _symmetry_equiv_pos_as_xyz
 1  'x, y, z'
loop_
 _atom_site_type_symbol
 _atom_site_label
 _atom_site_symmetry_multiplicity
 _atom_site_fract_x
 _atom_site_fract_y
 _atom_site_fract_z
 _atom_site_fract_occupancy
 Be  Be1  1  0.00000  0.00000  0.00000  1
 Be  Be2  1  0.25000  0.75000  0.50000  1
 Ir  Ir1  1  0.50000  0.50000  0.00000  1
 Ni  Ni1  1  0.75000  0.25000  0.50000  1
