CIF file written using JARVIS-Tools package.
data_NdAsSe
_symmetry_space_group_name_H-M  'Pnma'
_cell_length_a       4.01314
_cell_length_b       4.0827
_cell_length_c       17.9863
_cell_angle_alpha    90
_cell_angle_beta     90
_cell_angle_gamma    90.0016

_symmetry_Int_Tables_number  62
_chemical_formula_structural  NdAsSe
_chemical_formula_sum  Nd4As4Se4
_cell_volume  294.6951367904892
_cell_formula_units_Z  4
loop_
  _symmetry_equiv_pos_site_id
 _symmetry_equiv_pos_as_xyz
 1  'x, y, z'
loop_
 _atom_site_type_symbol
 _atom_site_label
 _atom_site_symmetry_multiplicity
 _atom_site_fract_x
 _atom_site_fract_y
 _atom_site_fract_z
 _atom_site_fract_occupancy
 As  As1  1  0.74999  0.79610  0.50237  1
 As  As2  1  0.75001  0.70390  0.00237  1
 As  As3  1  0.25001  0.20390  0.49763  1
 As  As4  1  0.24999  0.29610  0.99763  1
 Nd  Nd1  1  0.75002  0.22915  0.14000  1
 Nd  Nd2  1  0.74998  0.27085  0.64000  1
 Nd  Nd3  1  0.24998  0.77085  0.86000  1
 Nd  Nd4  1  0.25002  0.72915  0.36000  1
 Se  Se1  1  0.75002  0.23181  0.31277  1
 Se  Se2  1  0.74998  0.26819  0.81277  1
 Se  Se3  1  0.24998  0.76819  0.68723  1
 Se  Se4  1  0.25002  0.73181  0.18723  1
