CIF file written using JARVIS-Tools package.
data_Mg6WC
_symmetry_space_group_name_H-M  'Amm2'
_cell_length_a       7.57837
_cell_length_b       7.57838
_cell_length_c       3.04103
_cell_angle_alpha    90
_cell_angle_beta     90
_cell_angle_gamma    114.267

_symmetry_Int_Tables_number  38
_chemical_formula_structural  Mg6WC
_chemical_formula_sum  Mg6WC
_cell_volume  159.22015663399344
_cell_formula_units_Z  1
loop_
  _symmetry_equiv_pos_site_id
 _symmetry_equiv_pos_as_xyz
 1  'x, y, z'
loop_
 _atom_site_type_symbol
 _atom_site_label
 _atom_site_symmetry_multiplicity
 _atom_site_fract_x
 _atom_site_fract_y
 _atom_site_fract_z
 _atom_site_fract_occupancy
 C  C1  1  0.26436  0.23564  0.75000  1
 Mg  Mg1  1  0.17535  0.96805  0.25000  1
 Mg  Mg2  1  0.53195  0.32465  0.25000  1
 Mg  Mg3  1  0.74344  0.75656  0.25000  1
 Mg  Mg4  1  0.37784  0.70625  0.75000  1
 Mg  Mg5  1  0.79375  0.12216  0.75000  1
 Mg  Mg6  1  0.95247  0.54753  0.75000  1
 W  W1  1  0.16085  0.33915  0.25000  1
