CIF file written using JARVIS-Tools package.
data_NiCl2
_symmetry_space_group_name_H-M  'R-3m'
_cell_length_a       5.9678
_cell_length_b       5.9678
_cell_length_c       5.9678
_cell_angle_alpha    33.7439
_cell_angle_beta     33.7439
_cell_angle_gamma    33.7438

_symmetry_Int_Tables_number  166
_chemical_formula_structural  NiCl2
_chemical_formula_sum  NiCl2
_cell_volume  58.433152984764384
_cell_formula_units_Z  1
loop_
  _symmetry_equiv_pos_site_id
 _symmetry_equiv_pos_as_xyz
 1  'x, y, z'
loop_
 _atom_site_type_symbol
 _atom_site_label
 _atom_site_symmetry_multiplicity
 _atom_site_fract_x
 _atom_site_fract_y
 _atom_site_fract_z
 _atom_site_fract_occupancy
 Cl  Cl1  1  0.25544  0.25544  0.25544  1
 Cl  Cl2  1  0.74456  0.74456  0.74456  1
 Ni  Ni1  1  0.00000  0.00000  0.00000  1
