CIF file written using JARVIS-Tools package.
data_YNiO3
_symmetry_space_group_name_H-M  'Pnma'
_cell_length_a       5.19229
_cell_length_b       5.56714
_cell_length_c       7.38406
_cell_angle_alpha    90
_cell_angle_beta     90.0011
_cell_angle_gamma    90

_symmetry_Int_Tables_number  62
_chemical_formula_structural  YNiO3
_chemical_formula_sum  Y4Ni4O2
_cell_volume  213.4451572915527
_cell_formula_units_Z  4
loop_
  _symmetry_equiv_pos_site_id
 _symmetry_equiv_pos_as_xyz
 1  'x, y, z'
loop_
 _atom_site_type_symbol
 _atom_site_label
 _atom_site_symmetry_multiplicity
 _atom_site_fract_x
 _atom_site_fract_y
 _atom_site_fract_z
 _atom_site_fract_occupancy
 Ni  Ni1  1  0.50000  0.00000  -0.00000  1
 Ni  Ni2  1  0.00000  0.50000  0.50000  1
 Ni  Ni3  1  0.50000  0.00000  0.50000  1
 Ni  Ni4  1  0.00000  0.50000  0.00000  1
 O  O1  1  0.89908  0.52937  0.75000  1
 O  O2  1  0.80678  0.80262  0.04977  1
 O  O3  1  0.30678  0.69738  0.54977  1
 O  O4  1  0.19322  0.19738  0.95023  1
 O  O5  1  0.19323  0.19736  0.54977  1
 O  O6  1  0.30677  0.69736  0.95023  1
 O  O7  1  0.80677  0.80264  0.45023  1
 O  O8  1  0.39908  0.97063  0.25000  1
 O  O9  1  0.69322  0.30262  0.45023  1
 O  O10  1  0.10092  0.47063  0.25000  1
 O  O11  1  0.60092  0.02937  0.75000  1
 O  O12  1  0.69323  0.30264  0.04977  1
 Y  Y1  1  0.52015  0.57605  0.24999  1
 Y  Y2  1  0.47985  0.42395  0.75001  1
 Y  Y3  1  0.02015  0.92395  0.74999  1
 Y  Y4  1  0.97985  0.07605  0.25001  1
