CIF file written using JARVIS-Tools package.
data_KSbF6
_symmetry_space_group_name_H-M  'Ia-3'
_cell_length_a       8.79425
_cell_length_b       8.79426
_cell_length_c       8.79425
_cell_angle_alpha    109.471
_cell_angle_beta     109.471
_cell_angle_gamma    109.471

_symmetry_Int_Tables_number  206
_chemical_formula_structural  KSbF6
_chemical_formula_sum  K4Sb4F24
_cell_volume  523.5703047946273
_cell_formula_units_Z  4
loop_
  _symmetry_equiv_pos_site_id
 _symmetry_equiv_pos_as_xyz
 1  'x, y, z'
loop_
 _atom_site_type_symbol
 _atom_site_label
 _atom_site_symmetry_multiplicity
 _atom_site_fract_x
 _atom_site_fract_y
 _atom_site_fract_z
 _atom_site_fract_occupancy
 F  F1  1  0.91483  0.95048  0.74818  1
 F  F2  1  0.08517  0.04952  0.25182  1
 F  F3  1  0.83336  0.24818  0.29771  1
 F  F4  1  0.53565  0.20229  0.45048  1
 F  F5  1  0.66664  0.96435  0.41483  1
 F  F6  1  0.24818  0.29771  0.83336  1
 F  F7  1  0.45048  0.53565  0.20229  1
 F  F8  1  0.96435  0.41483  0.66664  1
 F  F9  1  0.79771  0.54952  0.46435  1
 F  F10  1  0.04952  0.25182  0.08517  1
 F  F11  1  0.29771  0.83336  0.24818  1
 F  F12  1  0.25182  0.08517  0.04952  1
 F  F13  1  0.41483  0.66664  0.96435  1
 F  F14  1  0.54952  0.46435  0.79771  1
 F  F15  1  0.70229  0.16664  0.75182  1
 F  F16  1  0.58517  0.33336  0.03565  1
 F  F17  1  0.74818  0.91483  0.95048  1
 F  F18  1  0.03565  0.58517  0.33336  1
 F  F19  1  0.95048  0.74818  0.91483  1
 F  F20  1  0.75182  0.70229  0.16664  1
 F  F21  1  0.33336  0.03565  0.58517  1
 F  F22  1  0.46435  0.79771  0.54952  1
 F  F23  1  0.16664  0.75182  0.70229  1
 F  F24  1  0.20229  0.45048  0.53565  1
 K  K1  1  0.00000  0.50000  0.00000  1
 K  K2  1  0.50000  0.00000  0.00000  1
 K  K3  1  0.00000  0.00000  0.50000  1
 K  K4  1  0.50000  0.50000  0.50000  1
 Sb  Sb1  1  0.50000  0.50000  0.00000  1
 Sb  Sb2  1  0.50000  0.00000  0.50000  1
 Sb  Sb3  1  0.00000  0.50000  0.50000  1
 Sb  Sb4  1  0.00000  0.00000  0.00000  1
