CIF file written using JARVIS-Tools package.
data_Pt3O4
_symmetry_space_group_name_H-M  'Im-3m'
_cell_length_a       4.73759
_cell_length_b       4.73777
_cell_length_c       4.73755
_cell_angle_alpha    109.464
_cell_angle_beta     109.474
_cell_angle_gamma    109.476

_symmetry_Int_Tables_number  229
_chemical_formula_structural  Pt3O4
_chemical_formula_sum  Pt3O4
_cell_volume  81.85868301896807
_cell_formula_units_Z  1
loop_
  _symmetry_equiv_pos_site_id
 _symmetry_equiv_pos_as_xyz
 1  'x, y, z'
loop_
 _atom_site_type_symbol
 _atom_site_label
 _atom_site_symmetry_multiplicity
 _atom_site_fract_x
 _atom_site_fract_y
 _atom_site_fract_z
 _atom_site_fract_occupancy
 O  O1  1  0.00000  0.00000  0.50000  1
 O  O2  1  0.50000  -0.00000  0.00000  1
 O  O3  1  0.50000  0.50000  0.50000  1
 O  O4  1  -0.00000  0.50000  -0.00000  1
 Pt  Pt1  1  0.50000  0.50000  -0.00000  1
 Pt  Pt2  1  -0.00000  0.50000  0.50000  1
 Pt  Pt3  1  0.50000  -0.00000  0.50000  1
