CIF file written using JARVIS-Tools package.
data_SmMnGe2
_symmetry_space_group_name_H-M  'Cmcm'
_cell_length_a       4.47108
_cell_length_b       4.35745
_cell_length_c       8.36629
_cell_angle_alpha    105.095
_cell_angle_beta     90
_cell_angle_gamma    90

_symmetry_Int_Tables_number  63
_chemical_formula_structural  SmMnGe2
_chemical_formula_sum  Sm2Mn2Ge4
_cell_volume  157.3721477772632
_cell_formula_units_Z  2
loop_
  _symmetry_equiv_pos_site_id
 _symmetry_equiv_pos_as_xyz
 1  'x, y, z'
loop_
 _atom_site_type_symbol
 _atom_site_label
 _atom_site_symmetry_multiplicity
 _atom_site_fract_x
 _atom_site_fract_y
 _atom_site_fract_z
 _atom_site_fract_occupancy
 Ge  Ge1  1  0.75000  0.45498  0.90996  1
 Ge  Ge2  1  0.25000  0.54502  0.09004  1
 Ge  Ge3  1  0.75000  0.74539  0.49078  1
 Ge  Ge4  1  0.25000  0.25461  0.50922  1
 Mn  Mn1  1  0.75000  0.30911  0.61821  1
 Mn  Mn2  1  0.25000  0.69089  0.38179  1
 Sm  Sm1  1  0.75000  0.10499  0.20998  1
 Sm  Sm2  1  0.25000  0.89501  0.79002  1
