CIF file written using JARVIS-Tools package.
data_H2O
_symmetry_space_group_name_H-M  'I4_1/amd'
_cell_length_a       4.74619
_cell_length_b       4.74619
_cell_length_c       4.74619
_cell_angle_alpha    120.665
_cell_angle_beta     120.665
_cell_angle_gamma    88.8523

_symmetry_Int_Tables_number  141
_chemical_formula_structural  H2O
_chemical_formula_sum  H8O4
_cell_volume  74.82383864245911
_cell_formula_units_Z  4
loop_
  _symmetry_equiv_pos_site_id
 _symmetry_equiv_pos_as_xyz
 1  'x, y, z'
loop_
 _atom_site_type_symbol
 _atom_site_label
 _atom_site_symmetry_multiplicity
 _atom_site_fract_x
 _atom_site_fract_y
 _atom_site_fract_z
 _atom_site_fract_occupancy
 H  H1  1  0.80208  0.72151  0.41943  1
 H  H2  1  0.72151  0.80208  0.91943  1
 H  H3  1  0.38265  0.80208  0.58057  1
 H  H4  1  0.80208  0.38265  0.08057  1
 H  H5  1  0.19792  0.27849  0.58057  1
 H  H6  1  0.27849  0.19792  0.08057  1
 H  H7  1  0.61735  0.19792  0.41943  1
 H  H8  1  0.19792  0.61735  0.91943  1
 O  O1  1  0.88990  0.63990  0.25000  1
 O  O2  1  0.63990  0.88990  0.75000  1
 O  O3  1  0.11010  0.36010  0.75000  1
 O  O4  1  0.36010  0.11010  0.25000  1
