CIF file written using JARVIS-Tools package.
data_Ce2CuGe6
_symmetry_space_group_name_H-M  'Amm2'
_cell_length_a       4.192
_cell_length_b       4.11407
_cell_length_c       10.9824
_cell_angle_alpha    100.795
_cell_angle_beta     90
_cell_angle_gamma    90

_symmetry_Int_Tables_number  38
_chemical_formula_structural  Ce2CuGe6
_chemical_formula_sum  Ce2CuGe6
_cell_volume  186.051714400147
_cell_formula_units_Z  1
loop_
  _symmetry_equiv_pos_site_id
 _symmetry_equiv_pos_as_xyz
 1  'x, y, z'
loop_
 _atom_site_type_symbol
 _atom_site_label
 _atom_site_symmetry_multiplicity
 _atom_site_fract_x
 _atom_site_fract_y
 _atom_site_fract_z
 _atom_site_fract_occupancy
 Ce  Ce1  1  0.00000  0.66961  0.33922  1
 Ce  Ce2  1  0.00000  0.00342  0.00684  1
 Cu  Cu1  1  0.50000  0.22585  0.45170  1
 Ge  Ge1  1  0.00000  0.28435  0.56870  1
 Ge  Ge2  1  0.50000  0.78520  0.57040  1
 Ge  Ge3  1  0.50000  0.90100  0.80199  1
 Ge  Ge4  1  0.00000  0.39998  0.79997  1
 Ge  Ge5  1  0.50000  0.54498  0.08996  1
 Ge  Ge6  1  0.50000  0.11660  0.23321  1
