CIF file written using JARVIS-Tools package.
data_HfMg6Al
_symmetry_space_group_name_H-M  'Amm2'
_cell_length_a       6.35965
_cell_length_b       6.35965
_cell_length_c       4.91085
_cell_angle_alpha    90
_cell_angle_beta     90
_cell_angle_gamma    120.3

_symmetry_Int_Tables_number  38
_chemical_formula_structural  HfMg6Al
_chemical_formula_sum  HfMg6Al
_cell_volume  171.48678646026374
_cell_formula_units_Z  1
loop_
  _symmetry_equiv_pos_site_id
 _symmetry_equiv_pos_as_xyz
 1  'x, y, z'
loop_
 _atom_site_type_symbol
 _atom_site_label
 _atom_site_symmetry_multiplicity
 _atom_site_fract_x
 _atom_site_fract_y
 _atom_site_fract_z
 _atom_site_fract_occupancy
 Al  Al1  1  0.17850  0.32150  0.25000  1
 Hf  Hf1  1  0.32406  0.17594  0.75000  1
 Mg  Mg1  1  0.17045  0.83593  0.25000  1
 Mg  Mg2  1  0.66407  0.32955  0.25000  1
 Mg  Mg3  1  0.67008  0.82992  0.25000  1
 Mg  Mg4  1  0.32812  0.66812  0.75000  1
 Mg  Mg5  1  0.83188  0.17188  0.75000  1
 Mg  Mg6  1  0.83284  0.66716  0.75000  1
