CIF file written using JARVIS-Tools package.
data_LiMg6Cr
_symmetry_space_group_name_H-M  'Amm2'
_cell_length_a       6.22629
_cell_length_b       6.33868
_cell_length_c       4.98601
_cell_angle_alpha    90
_cell_angle_beta     90
_cell_angle_gamma    120.599

_symmetry_Int_Tables_number  38
_chemical_formula_structural  LiMg6Cr
_chemical_formula_sum  LiMg6Cr
_cell_volume  169.37878304822064
_cell_formula_units_Z  1
loop_
  _symmetry_equiv_pos_site_id
 _symmetry_equiv_pos_as_xyz
 1  'x, y, z'
loop_
 _atom_site_type_symbol
 _atom_site_label
 _atom_site_symmetry_multiplicity
 _atom_site_fract_x
 _atom_site_fract_y
 _atom_site_fract_z
 _atom_site_fract_occupancy
 Cr  Cr1  1  0.16985  0.83492  0.25000  1
 Li  Li1  1  0.17088  0.33544  0.25000  1
 Mg  Mg1  1  0.66837  0.33502  0.25000  1
 Mg  Mg2  1  0.66837  0.83335  0.25000  1
 Mg  Mg3  1  0.32353  0.15765  0.75000  1
 Mg  Mg4  1  0.32353  0.66588  0.75000  1
 Mg  Mg5  1  0.83527  0.16764  0.75000  1
 Mg  Mg6  1  0.84020  0.67010  0.75000  1
