CIF file written using JARVIS-Tools package.
data_ZrAu3
_symmetry_space_group_name_H-M  'Pmmn'
_cell_length_a       4.86173
_cell_length_b       4.94483
_cell_length_c       6.18823
_cell_angle_alpha    90
_cell_angle_beta     90
_cell_angle_gamma    90

_symmetry_Int_Tables_number  59
_chemical_formula_structural  ZrAu3
_chemical_formula_sum  Zr2Au6
_cell_volume  148.76767784400042
_cell_formula_units_Z  2
loop_
  _symmetry_equiv_pos_site_id
 _symmetry_equiv_pos_as_xyz
 1  'x, y, z'
loop_
 _atom_site_type_symbol
 _atom_site_label
 _atom_site_symmetry_multiplicity
 _atom_site_fract_x
 _atom_site_fract_y
 _atom_site_fract_z
 _atom_site_fract_occupancy
 Au  Au1  1  0.75000  0.83326  0.00292  1
 Au  Au2  1  0.75000  0.83326  0.49708  1
 Au  Au3  1  0.25000  0.16674  0.99708  1
 Au  Au4  1  0.25000  0.16674  0.50292  1
 Au  Au5  1  0.25000  0.66034  0.75000  1
 Au  Au6  1  0.75000  0.33966  0.25000  1
 Zr  Zr1  1  0.75000  0.33683  0.75000  1
 Zr  Zr2  1  0.25000  0.66317  0.25000  1
