CIF file written using JARVIS-Tools package.
data_TiSi2
_symmetry_space_group_name_H-M  'Fddd'
_cell_length_a       4.82425
_cell_length_b       4.82425
_cell_length_c       4.93181
_cell_angle_alpha    104.269
_cell_angle_beta     104.269
_cell_angle_gamma    119.74

_symmetry_Int_Tables_number  70
_chemical_formula_structural  TiSi2
_chemical_formula_sum  Ti2Si4
_cell_volume  86.82023052863049
_cell_formula_units_Z  2
loop_
  _symmetry_equiv_pos_site_id
 _symmetry_equiv_pos_as_xyz
 1  'x, y, z'
loop_
 _atom_site_type_symbol
 _atom_site_label
 _atom_site_symmetry_multiplicity
 _atom_site_fract_x
 _atom_site_fract_y
 _atom_site_fract_z
 _atom_site_fract_occupancy
 Si  Si1  1  0.53897  0.46103  0.25000  1
 Si  Si2  1  0.21103  0.78897  0.25000  1
 Si  Si3  1  0.78897  0.21103  0.75000  1
 Si  Si4  1  0.46103  0.53897  0.75000  1
 Ti  Ti1  1  0.87500  0.12500  0.25000  1
 Ti  Ti2  1  0.12500  0.87500  0.75000  1
