CIF file written using JARVIS-Tools package.
data_NaMn2O4
_symmetry_space_group_name_H-M  'Fd-3m'
_cell_length_a       5.95796
_cell_length_b       5.95938
_cell_length_c       5.95796
_cell_angle_alpha    60.0079
_cell_angle_beta     90
_cell_angle_gamma    119.992

_symmetry_Int_Tables_number  227
_chemical_formula_structural  NaMn2O4
_chemical_formula_sum  Na2Mn4O8
_cell_volume  149.6185974964525
_cell_formula_units_Z  2
loop_
  _symmetry_equiv_pos_site_id
 _symmetry_equiv_pos_as_xyz
 1  'x, y, z'
loop_
 _atom_site_type_symbol
 _atom_site_label
 _atom_site_symmetry_multiplicity
 _atom_site_fract_x
 _atom_site_fract_y
 _atom_site_fract_z
 _atom_site_fract_occupancy
 Mn  Mn1  1  0.37500  0.25000  0.37500  1
 Mn  Mn2  1  0.87500  0.25000  0.37500  1
 Mn  Mn3  1  0.37500  0.75000  0.37500  1
 Mn  Mn4  1  0.37500  0.75000  0.87500  1
 Na  Na1  1  0.00000  0.00000  0.00000  1
 Na  Na2  1  0.75000  0.50000  0.75000  1
 O  O1  1  0.14492  0.28984  0.14475  1
 O  O2  1  0.60508  0.21016  0.18459  1
 O  O3  1  0.56541  0.71016  0.14492  1
 O  O4  1  0.14475  0.71016  0.14492  1
 O  O5  1  0.60508  0.21016  0.60525  1
 O  O6  1  0.14492  0.28984  0.56541  1
 O  O7  1  0.60525  0.78984  0.60508  1
 O  O8  1  0.18459  0.78984  0.60508  1
