CIF file written using JARVIS-Tools package.
data_MgH2
_symmetry_space_group_name_H-M  'Pa-3'
_cell_length_a       4.81084
_cell_length_b       4.81033
_cell_length_c       4.81015
_cell_angle_alpha    90
_cell_angle_beta     90
_cell_angle_gamma    90

_symmetry_Int_Tables_number  205
_chemical_formula_structural  MgH2
_chemical_formula_sum  Mg4H8
_cell_volume  111.31519446695722
_cell_formula_units_Z  4
loop_
  _symmetry_equiv_pos_site_id
 _symmetry_equiv_pos_as_xyz
 1  'x, y, z'
loop_
 _atom_site_type_symbol
 _atom_site_label
 _atom_site_symmetry_multiplicity
 _atom_site_fract_x
 _atom_site_fract_y
 _atom_site_fract_z
 _atom_site_fract_occupancy
 H  H1  1  0.59561  0.05838  0.15431  1
 H  H2  1  0.09555  0.36727  0.34551  1
 H  H3  1  0.59561  0.55838  0.34569  1
 H  H4  1  0.90445  0.86727  0.65449  1
 H  H5  1  0.09555  0.86727  0.15449  1
 H  H6  1  0.40439  0.55838  0.84569  1
 H  H7  1  0.40439  0.05838  0.65431  1
 H  H8  1  0.90445  0.36727  0.84551  1
 Mg  Mg1  1  0.75003  0.71274  0.00005  1
 Mg  Mg2  1  0.24997  0.71274  0.50005  1
 Mg  Mg3  1  0.75003  0.21274  0.49995  1
 Mg  Mg4  1  0.24997  0.21274  0.99995  1
