CIF file written using JARVIS-Tools package.
data_CuBi2O4
_symmetry_space_group_name_H-M  'I4cm'
_cell_length_a       5.55313
_cell_length_b       6.83827
_cell_length_c       6.83826
_cell_angle_alpha    80.5107
_cell_angle_beta     66.0441
_cell_angle_gamma    66.0441

_symmetry_Int_Tables_number  108
_chemical_formula_structural  CuBi2O4
_chemical_formula_sum  Cu2Bi4O8
_cell_volume  216.8641892720706
_cell_formula_units_Z  2
loop_
  _symmetry_equiv_pos_site_id
 _symmetry_equiv_pos_as_xyz
 1  'x, y, z'
loop_
 _atom_site_type_symbol
 _atom_site_label
 _atom_site_symmetry_multiplicity
 _atom_site_fract_x
 _atom_site_fract_y
 _atom_site_fract_z
 _atom_site_fract_occupancy
 Bi  Bi1  1  0.65629  0.50001  0.16424  1
 Bi  Bi2  1  0.82053  0.83576  0.50001  1
 Bi  Bi3  1  0.15630  0.16424  0.49999  1
 Bi  Bi4  1  0.32053  0.49999  0.83576  1
 Cu  Cu1  1  0.68004  -0.00000  0.00000  1
 Cu  Cu2  1  0.18004  -0.00000  0.00000  1
 O  O1  1  0.76377  0.09157  0.70428  1
 O  O2  1  0.35534  0.90844  0.70427  1
 O  O3  1  0.55963  0.90843  0.29572  1
 O  O4  1  0.46805  0.29572  0.09157  1
 O  O5  1  0.05961  0.29573  0.90844  1
 O  O6  1  0.96805  0.09156  0.29573  1
 O  O7  1  0.85534  0.70428  0.90843  1
 O  O8  1  0.26378  0.70427  0.09156  1
