CIF file written using JARVIS-Tools package.
data_Be2BO5
_symmetry_space_group_name_H-M  'C2'
_cell_length_a       4.47968
_cell_length_b       4.44027
_cell_length_c       4.83888
_cell_angle_alpha    90
_cell_angle_beta     84.3175
_cell_angle_gamma    119.71

_symmetry_Int_Tables_number  5
_chemical_formula_structural  Be2BO5
_chemical_formula_sum  Be2BO5
_cell_volume  83.05289654911846
_cell_formula_units_Z  1
loop_
  _symmetry_equiv_pos_site_id
 _symmetry_equiv_pos_as_xyz
 1  'x, y, z'
loop_
 _atom_site_type_symbol
 _atom_site_label
 _atom_site_symmetry_multiplicity
 _atom_site_fract_x
 _atom_site_fract_y
 _atom_site_fract_z
 _atom_site_fract_occupancy
 B  B1  1  -0.00000  -0.00009  -0.00000  1
 Be  Be1  1  0.34869  0.67516  0.89832  1
 Be  Be2  1  0.65131  0.32648  0.10168  1
 O  O1  1  0.38846  0.69290  0.55444  1
 O  O2  1  0.61154  0.30444  0.44556  1
 O  O3  1  0.69571  0.69350  0.99001  1
 O  O4  1  0.30429  -0.00221  0.00999  1
 O  O5  1  0.00000  0.30982  -0.00000  1
