CIF file written using JARVIS-Tools package.
data_YBeNb
_symmetry_space_group_name_H-M  'I4mm'
_cell_length_a       6.4325
_cell_length_b       6.4325
_cell_length_c       6.4325
_cell_angle_alpha    152.752
_cell_angle_beta     152.752
_cell_angle_gamma    38.9164

_symmetry_Int_Tables_number  107
_chemical_formula_structural  YBeNb
_chemical_formula_sum  YBeNb
_cell_volume  55.69633398931111
_cell_formula_units_Z  1
loop_
  _symmetry_equiv_pos_site_id
 _symmetry_equiv_pos_as_xyz
 1  'x, y, z'
loop_
 _atom_site_type_symbol
 _atom_site_label
 _atom_site_symmetry_multiplicity
 _atom_site_fract_x
 _atom_site_fract_y
 _atom_site_fract_z
 _atom_site_fract_occupancy
 Be  Be1  1  0.98484  0.98484  0.00000  1
 Nb  Nb1  1  0.35993  0.35993  0.00000  1
 Y  Y1  1  0.65523  0.65523  0.00000  1
