CIF file written using JARVIS-Tools package.
data_ZnP2PbO7
_symmetry_space_group_name_H-M  'P2_1/c'
_cell_length_a       5.35975
_cell_length_b       8.3275
_cell_length_c       12.9127
_cell_angle_alpha    90
_cell_angle_beta     89.8468
_cell_angle_gamma    90

_symmetry_Int_Tables_number  14
_chemical_formula_structural  ZnP2PbO7
_chemical_formula_sum  Zn4P8Pb4O28
_cell_volume  576.334760598822
_cell_formula_units_Z  4
loop_
  _symmetry_equiv_pos_site_id
 _symmetry_equiv_pos_as_xyz
 1  'x, y, z'
loop_
 _atom_site_type_symbol
 _atom_site_label
 _atom_site_symmetry_multiplicity
 _atom_site_fract_x
 _atom_site_fract_y
 _atom_site_fract_z
 _atom_site_fract_occupancy
 O  O1  1  0.77975  0.11407  0.45103  1
 O  O2  1  0.47826  0.05695  0.30473  1
 O  O3  1  0.97826  0.44305  0.80473  1
 O  O4  1  0.52174  0.94305  0.69527  1
 O  O5  1  0.67299  0.35878  0.15150  1
 O  O6  1  0.82701  0.85878  0.34850  1
 O  O7  1  0.32701  0.64122  0.84850  1
 O  O8  1  0.17299  0.14122  0.65150  1
 O  O9  1  0.56676  0.62036  0.23555  1
 O  O10  1  0.79700  0.81666  0.91077  1
 O  O11  1  0.22025  0.88593  0.54897  1
 O  O12  1  0.06676  0.87964  0.73555  1
 O  O13  1  0.81722  0.90115  0.10063  1
 O  O14  1  0.68278  0.40115  0.39937  1
 O  O15  1  0.18278  0.09885  0.89937  1
 O  O16  1  0.31722  0.59885  0.60063  1
 O  O17  1  0.29700  0.68334  0.41077  1
 O  O18  1  0.20300  0.18334  0.08923  1
 O  O19  1  0.70300  0.31666  0.58923  1
 O  O20  1  0.93324  0.12036  0.26445  1
 O  O21  1  0.02174  0.55695  0.19527  1
 O  O22  1  0.27975  0.38593  0.95103  1
 O  O23  1  0.72025  0.61407  0.04897  1
 O  O24  1  0.89641  0.66686  0.52205  1
 O  O25  1  0.60359  0.16686  0.97795  1
 O  O26  1  0.10359  0.33314  0.47795  1
 O  O27  1  0.39641  0.83314  0.02205  1
 O  O28  1  0.43324  0.37964  0.76445  1
 P  P1  1  0.75063  0.53431  0.16229  1
 P  P2  1  0.67803  0.80109  0.01852  1
 P  P3  1  0.17803  0.69891  0.51852  1
 P  P4  1  0.74937  0.03431  0.33771  1
 P  P5  1  0.24937  0.46569  0.83771  1
 P  P6  1  0.32197  0.19891  0.98148  1
 P  P7  1  0.82197  0.30109  0.48148  1
 P  P8  1  0.25063  0.96569  0.66229  1
 Pb  Pb1  1  0.79063  0.17156  0.77999  1
 Pb  Pb2  1  0.29063  0.32844  0.27999  1
 Pb  Pb3  1  0.20937  0.82844  0.22001  1
 Pb  Pb4  1  0.70937  0.67156  0.72001  1
 Zn  Zn1  1  0.33069  0.35062  0.60586  1
 Zn  Zn2  1  0.66931  0.64938  0.39414  1
 Zn  Zn3  1  0.83069  0.14938  0.10586  1
 Zn  Zn4  1  0.16931  0.85062  0.89414  1
