CIF file written using JARVIS-Tools package.
data_RbV3Se2O12
_symmetry_space_group_name_H-M  'P6_3'
_cell_length_a       7.14601
_cell_length_b       7.14602
_cell_length_c       11.3956
_cell_angle_alpha    90
_cell_angle_beta     90
_cell_angle_gamma    120

_symmetry_Int_Tables_number  173
_chemical_formula_structural  RbV3Se2O12
_chemical_formula_sum  Rb2V6Se4O24
_cell_volume  503.95889656083256
_cell_formula_units_Z  2
loop_
  _symmetry_equiv_pos_site_id
 _symmetry_equiv_pos_as_xyz
 1  'x, y, z'
loop_
 _atom_site_type_symbol
 _atom_site_label
 _atom_site_symmetry_multiplicity
 _atom_site_fract_x
 _atom_site_fract_y
 _atom_site_fract_z
 _atom_site_fract_occupancy
 O  O1  1  0.25315  0.11921  0.86899  1
 O  O2  1  0.87267  0.74818  0.17638  1
 O  O3  1  0.87551  0.12733  0.17638  1
 O  O4  1  0.12449  0.87267  0.67638  1
 O  O5  1  0.12733  0.25182  0.67638  1
 O  O6  1  0.25182  0.12449  0.17638  1
 O  O7  1  0.54015  0.08111  0.73595  1
 O  O8  1  0.21605  0.41476  0.04348  1
 O  O9  1  0.58524  0.80129  0.04348  1
 O  O10  1  0.91889  0.45904  0.73595  1
 O  O11  1  0.54096  0.45985  0.73595  1
 O  O12  1  0.45985  0.91889  0.23595  1
 O  O13  1  0.19871  0.78395  0.04348  1
 O  O14  1  0.41476  0.19871  0.54348  1
 O  O15  1  0.78395  0.58524  0.54348  1
 O  O16  1  0.45904  0.54015  0.23595  1
 O  O17  1  0.74818  0.87551  0.67638  1
 O  O18  1  0.80129  0.21605  0.54348  1
 O  O19  1  0.86606  0.74685  0.86899  1
 O  O20  1  0.13394  0.25315  0.36899  1
 O  O21  1  0.74685  0.88079  0.36899  1
 O  O22  1  0.88079  0.13394  0.86899  1
 O  O23  1  0.11921  0.86606  0.36899  1
 O  O24  1  0.08111  0.54096  0.23595  1
 Rb  Rb1  1  0.33333  0.66667  0.53116  1
 Rb  Rb2  1  0.66667  0.33333  0.03116  1
 Se  Se1  1  0.00000  0.00000  0.43585  1
 Se  Se2  1  0.00000  0.00000  0.93585  1
 Se  Se3  1  0.33333  0.66667  0.97753  1
 Se  Se4  1  0.66667  0.33333  0.47753  1
 V  V1  1  0.33372  0.21010  0.70927  1
 V  V2  1  0.12362  0.33372  0.20927  1
 V  V3  1  0.21010  0.87638  0.20927  1
 V  V4  1  0.87638  0.66628  0.70927  1
 V  V5  1  0.66628  0.78990  0.20927  1
 V  V6  1  0.78990  0.12362  0.70927  1
