CIF file written using JARVIS-Tools package.
data_PAuClF3
_symmetry_space_group_name_H-M  'Pnma'
_cell_length_a       4.61358
_cell_length_b       5.39668
_cell_length_c       18.0615
_cell_angle_alpha    90
_cell_angle_beta     90
_cell_angle_gamma    90

_symmetry_Int_Tables_number  62
_chemical_formula_structural  PAuClF3
_chemical_formula_sum  P4Au4Cl4F2
_cell_volume  449.69429918539845
_cell_formula_units_Z  4
loop_
  _symmetry_equiv_pos_site_id
 _symmetry_equiv_pos_as_xyz
 1  'x, y, z'
loop_
 _atom_site_type_symbol
 _atom_site_label
 _atom_site_symmetry_multiplicity
 _atom_site_fract_x
 _atom_site_fract_y
 _atom_site_fract_z
 _atom_site_fract_occupancy
 Au  Au1  1  0.15093  0.25000  0.03141  1
 Au  Au2  1  0.65093  0.75000  0.46859  1
 Au  Au3  1  0.84907  0.75000  0.96859  1
 Au  Au4  1  0.34907  0.25000  0.53141  1
 Cl  Cl1  1  0.87282  0.75000  0.58278  1
 Cl  Cl2  1  0.37282  0.25000  0.91722  1
 Cl  Cl3  1  0.62718  0.75000  0.08278  1
 Cl  Cl4  1  0.12718  0.25000  0.41722  1
 F  F1  1  0.88398  0.52896  0.80390  1
 F  F2  1  0.32015  0.75000  0.82948  1
 F  F3  1  0.82015  0.25000  0.67052  1
 F  F4  1  0.61602  0.97104  0.30390  1
 F  F5  1  0.61602  0.52896  0.30390  1
 F  F6  1  0.38398  0.47104  0.69610  1
 F  F7  1  0.38398  0.02896  0.69610  1
 F  F8  1  0.11602  0.02896  0.19610  1
 F  F9  1  0.11602  0.47104  0.19610  1
 F  F10  1  0.17985  0.75000  0.32948  1
 F  F11  1  0.88398  0.97104  0.80390  1
 F  F12  1  0.67985  0.25000  0.17052  1
 P  P1  1  0.49375  0.25000  0.64759  1
 P  P2  1  0.99375  0.75000  0.85241  1
 P  P3  1  0.00625  0.25000  0.14759  1
 P  P4  1  0.50625  0.75000  0.35241  1
