CIF file written using JARVIS-Tools package.
data_BeCdSe2
_symmetry_space_group_name_H-M  'P4mm'
_cell_length_a       3.63054
_cell_length_b       3.63054
_cell_length_c       6.37716
_cell_angle_alpha    90
_cell_angle_beta     90
_cell_angle_gamma    90

_symmetry_Int_Tables_number  99
_chemical_formula_structural  BeCdSe2
_chemical_formula_sum  BeCdSe2
_cell_volume  84.0559605771529
_cell_formula_units_Z  1
loop_
  _symmetry_equiv_pos_site_id
 _symmetry_equiv_pos_as_xyz
 1  'x, y, z'
loop_
 _atom_site_type_symbol
 _atom_site_label
 _atom_site_symmetry_multiplicity
 _atom_site_fract_x
 _atom_site_fract_y
 _atom_site_fract_z
 _atom_site_fract_occupancy
 Be  Be1  1  0.00000  0.00000  0.31106  1
 Cd  Cd1  1  0.50000  0.50000  0.81537  1
 Se  Se1  1  0.00000  0.00000  0.97083  1
 Se  Se2  1  0.50000  0.50000  0.40274  1
