CIF file written using JARVIS-Tools package.
data_LaHfMg6
_symmetry_space_group_name_H-M  'Amm2'
_cell_length_a       6.65034
_cell_length_b       6.65034
_cell_length_c       5.15081
_cell_angle_alpha    90
_cell_angle_beta     90
_cell_angle_gamma    120.239

_symmetry_Int_Tables_number  38
_chemical_formula_structural  LaHfMg6
_chemical_formula_sum  LaHfMg6
_cell_volume  196.80764247331948
_cell_formula_units_Z  1
loop_
  _symmetry_equiv_pos_site_id
 _symmetry_equiv_pos_as_xyz
 1  'x, y, z'
loop_
 _atom_site_type_symbol
 _atom_site_label
 _atom_site_symmetry_multiplicity
 _atom_site_fract_x
 _atom_site_fract_y
 _atom_site_fract_z
 _atom_site_fract_occupancy
 Hf  Hf1  1  0.32624  0.17376  0.75000  1
 La  La1  1  0.17657  0.32343  0.25000  1
 Mg  Mg1  1  0.18419  0.84271  0.25000  1
 Mg  Mg2  1  0.65729  0.31581  0.25000  1
 Mg  Mg3  1  0.66877  0.83123  0.25000  1
 Mg  Mg4  1  0.33678  0.68455  0.75000  1
 Mg  Mg5  1  0.81545  0.16322  0.75000  1
 Mg  Mg6  1  0.83470  0.66530  0.75000  1
