CIF file written using JARVIS-Tools package.
data_Mn6O7F5
_symmetry_space_group_name_H-M  'P1'
_cell_length_a       4.63403
_cell_length_b       5.46305
_cell_length_c       7.47854
_cell_angle_alpha    86.9572
_cell_angle_beta     89.0662
_cell_angle_gamma    88.2296

_symmetry_Int_Tables_number  1
_chemical_formula_structural  Mn6O7F5
_chemical_formula_sum  Mn6O7F5
_cell_volume  188.94897524721705
_cell_formula_units_Z  1
loop_
  _symmetry_equiv_pos_site_id
 _symmetry_equiv_pos_as_xyz
 1  'x, y, z'
loop_
 _atom_site_type_symbol
 _atom_site_label
 _atom_site_symmetry_multiplicity
 _atom_site_fract_x
 _atom_site_fract_y
 _atom_site_fract_z
 _atom_site_fract_occupancy
 F  F1  1  0.18410  0.97170  0.23192  1
 F  F2  1  0.67231  0.50606  0.77813  1
 F  F3  1  0.80709  0.69232  0.10474  1
 F  F4  1  0.19522  0.64874  0.56905  1
 F  F5  1  0.32517  0.15962  0.55129  1
 Mn  Mn1  1  0.44708  0.48813  0.00735  1
 Mn  Mn2  1  0.98487  0.65631  0.33996  1
 Mn  Mn3  1  0.99009  0.31944  0.66654  1
 Mn  Mn4  1  0.54442  0.18010  0.32345  1
 Mn  Mn5  1  0.52225  0.84388  0.67274  1
 Mn  Mn6  1  -0.00104  0.00200  0.98704  1
 O  O1  1  0.17930  0.29134  0.89680  1
 O  O2  1  0.30789  0.79388  0.90489  1
 O  O3  1  0.68479  0.19977  0.09256  1
 O  O4  1  0.82354  0.01472  0.76726  1
 O  O5  1  0.81642  0.38026  0.43311  1
 O  O6  1  0.71213  0.86981  0.43273  1
 O  O7  1  0.30440  0.48192  0.24044  1
