CIF file written using JARVIS-Tools package.
data_NdMg2Ni9
_symmetry_space_group_name_H-M  'R-3m'
_cell_length_a       8.37363
_cell_length_b       8.37363
_cell_length_c       8.37363
_cell_angle_alpha    33.9032
_cell_angle_beta     33.9032
_cell_angle_gamma    33.9032

_symmetry_Int_Tables_number  166
_chemical_formula_structural  NdMg2Ni9
_chemical_formula_sum  NdMg2Ni9
_cell_volume  162.8084795428078
_cell_formula_units_Z  1
loop_
  _symmetry_equiv_pos_site_id
 _symmetry_equiv_pos_as_xyz
 1  'x, y, z'
loop_
 _atom_site_type_symbol
 _atom_site_label
 _atom_site_symmetry_multiplicity
 _atom_site_fract_x
 _atom_site_fract_y
 _atom_site_fract_z
 _atom_site_fract_occupancy
 Mg  Mg1  1  0.85566  0.85566  0.85566  1
 Mg  Mg2  1  0.14434  0.14434  0.14434  1
 Nd  Nd1  1  0.00000  0.00000  0.00000  1
 Ni  Ni1  1  0.91754  0.41298  0.41298  1
 Ni  Ni2  1  0.58702  0.58702  0.08246  1
 Ni  Ni3  1  0.66649  0.66649  0.66649  1
 Ni  Ni4  1  0.41298  0.91754  0.41298  1
 Ni  Ni5  1  0.58702  0.08246  0.58702  1
 Ni  Ni6  1  0.33351  0.33351  0.33351  1
 Ni  Ni7  1  0.50000  0.50000  0.50000  1
 Ni  Ni8  1  0.41298  0.41298  0.91754  1
 Ni  Ni9  1  0.08246  0.58702  0.58702  1
