CIF file written using JARVIS-Tools package.
data_SmCoGe2
_symmetry_space_group_name_H-M  'Cmcm'
_cell_length_a       4.21342
_cell_length_b       4.20744
_cell_length_c       8.55012
_cell_angle_alpha    104.244
_cell_angle_beta     90
_cell_angle_gamma    90

_symmetry_Int_Tables_number  63
_chemical_formula_structural  SmCoGe2
_chemical_formula_sum  Sm2Co2Ge4
_cell_volume  146.9141295850289
_cell_formula_units_Z  2
loop_
  _symmetry_equiv_pos_site_id
 _symmetry_equiv_pos_as_xyz
 1  'x, y, z'
loop_
 _atom_site_type_symbol
 _atom_site_label
 _atom_site_symmetry_multiplicity
 _atom_site_fract_x
 _atom_site_fract_y
 _atom_site_fract_z
 _atom_site_fract_occupancy
 Co  Co1  1  0.75000  0.31754  0.63509  1
 Co  Co2  1  0.25000  0.68246  0.36491  1
 Ge  Ge1  1  0.75000  0.45471  0.90942  1
 Ge  Ge2  1  0.25000  0.54529  0.09058  1
 Ge  Ge3  1  0.75000  0.74958  0.49917  1
 Ge  Ge4  1  0.25000  0.25042  0.50083  1
 Sm  Sm1  1  0.75000  0.10856  0.21713  1
 Sm  Sm2  1  0.25000  0.89144  0.78287  1
