CIF file written using JARVIS-Tools package.
data_PrTlMo2O8
_symmetry_space_group_name_H-M  'P4/nnc'
_cell_length_a       6.31494
_cell_length_b       6.31494
_cell_length_c       9.67513
_cell_angle_alpha    90
_cell_angle_beta     90
_cell_angle_gamma    90

_symmetry_Int_Tables_number  126
_chemical_formula_structural  PrTlMo2O8
_chemical_formula_sum  Pr2Tl2Mo4O6
_cell_volume  385.82907723823763
_cell_formula_units_Z  2
loop_
  _symmetry_equiv_pos_site_id
 _symmetry_equiv_pos_as_xyz
 1  'x, y, z'
loop_
 _atom_site_type_symbol
 _atom_site_label
 _atom_site_symmetry_multiplicity
 _atom_site_fract_x
 _atom_site_fract_y
 _atom_site_fract_z
 _atom_site_fract_occupancy
 Mo  Mo1  1  0.25000  0.75000  0.00000  1
 Mo  Mo2  1  0.75000  0.25000  0.00000  1
 Mo  Mo3  1  0.25000  0.75000  0.50000  1
 Mo  Mo4  1  0.75000  0.25000  0.50000  1
 O  O1  1  0.36886  0.55822  0.61062  1
 O  O2  1  0.44178  0.86886  0.38938  1
 O  O3  1  0.63114  0.05822  0.11062  1
 O  O4  1  0.63114  0.44178  0.38938  1
 O  O5  1  0.86886  0.05822  0.38938  1
 O  O6  1  0.44178  0.63114  0.11062  1
 O  O7  1  0.05822  0.86886  0.11062  1
 O  O8  1  0.86886  0.44178  0.11062  1
 O  O9  1  0.13114  0.55822  0.88938  1
 O  O10  1  0.13114  0.94178  0.61062  1
 O  O11  1  0.05822  0.63114  0.38938  1
 O  O12  1  0.55822  0.36886  0.88938  1
 O  O13  1  0.36886  0.94178  0.88938  1
 O  O14  1  0.55822  0.13114  0.61062  1
 O  O15  1  0.94178  0.36886  0.61062  1
 O  O16  1  0.94178  0.13114  0.88938  1
 Pr  Pr1  1  0.75000  0.75000  0.25000  1
 Pr  Pr2  1  0.25000  0.25000  0.75000  1
 Tl  Tl1  1  0.75000  0.75000  0.75000  1
 Tl  Tl2  1  0.25000  0.25000  0.25000  1
