CIF file written using JARVIS-Tools package.
data_Li2CrS3
_symmetry_space_group_name_H-M  'C2/m'
_cell_length_a       6.08164
_cell_length_b       6.08164
_cell_length_c       6.21697
_cell_angle_alpha    80.4936
_cell_angle_beta     99.5064
_cell_angle_gamma    59.9279

_symmetry_Int_Tables_number  12
_chemical_formula_structural  Li2CrS3
_chemical_formula_sum  Li4Cr2S6
_cell_volume  187.79714944443216
_cell_formula_units_Z  2
loop_
  _symmetry_equiv_pos_site_id
 _symmetry_equiv_pos_as_xyz
 1  'x, y, z'
loop_
 _atom_site_type_symbol
 _atom_site_label
 _atom_site_symmetry_multiplicity
 _atom_site_fract_x
 _atom_site_fract_y
 _atom_site_fract_z
 _atom_site_fract_occupancy
 Cr  Cr1  1  0.33186  0.33186  -0.00000  1
 Cr  Cr2  1  0.66814  0.66814  0.00000  1
 Li  Li1  1  0.84264  0.84264  0.50000  1
 Li  Li2  1  0.15736  0.15736  0.50000  1
 Li  Li3  1  0.50000  0.50000  0.50000  1
 Li  Li4  1  0.00000  0.00000  0.00000  1
 S  S1  1  0.28064  0.71936  0.76978  1
 S  S2  1  0.43696  0.92262  0.22981  1
 S  S3  1  0.07738  0.56304  0.22981  1
 S  S4  1  0.56304  0.07738  0.77019  1
 S  S5  1  0.92262  0.43696  0.77019  1
 S  S6  1  0.71936  0.28064  0.23022  1
