CIF file written using JARVIS-Tools package.
data_K3MnH5
_symmetry_space_group_name_H-M  'I4/mcm'
_cell_length_a       7.84143
_cell_length_b       7.84143
_cell_length_c       7.84143
_cell_angle_alpha    122.929
_cell_angle_beta     122.929
_cell_angle_gamma    84.9976

_symmetry_Int_Tables_number  140
_chemical_formula_structural  K3MnH5
_chemical_formula_sum  K6Mn2H0
_cell_volume  324.49019265716515
_cell_formula_units_Z  2
loop_
  _symmetry_equiv_pos_site_id
 _symmetry_equiv_pos_as_xyz
 1  'x, y, z'
loop_
 _atom_site_type_symbol
 _atom_site_label
 _atom_site_symmetry_multiplicity
 _atom_site_fract_x
 _atom_site_fract_y
 _atom_site_fract_z
 _atom_site_fract_occupancy
 H  H1  1  0.28708  0.52609  0.50000  1
 H  H2  1  0.50000  0.50000  0.00000  1
 H  H3  1  0.21292  0.71292  0.23901  1
 H  H4  1  0.97391  0.21292  0.50000  1
 H  H5  1  0.47391  0.97391  0.76099  1
 H  H6  1  0.52609  0.02609  0.23901  1
 H  H7  1  0.78708  0.28708  0.76099  1
 H  H8  1  0.02609  0.78708  0.50000  1
 H  H9  1  0.00000  0.00000  0.00000  1
 H  H10  1  0.71292  0.47391  0.50000  1
 K  K1  1  0.75000  0.75000  0.00000  1
 K  K2  1  0.25000  0.25000  0.00000  1
 K  K3  1  0.31836  0.18164  0.50000  1
 K  K4  1  0.68164  0.81836  0.50000  1
 K  K5  1  0.81836  0.31836  0.13672  1
 K  K6  1  0.18164  0.68164  0.86328  1
 Mn  Mn1  1  0.75000  0.25000  0.50000  1
 Mn  Mn2  1  0.25000  0.75000  0.50000  1
