CIF file written using JARVIS-Tools package.
data_BaZrF6
_symmetry_space_group_name_H-M  'Cmme'
_cell_length_a       5.43022
_cell_length_b       6.98728
_cell_length_c       6.98728
_cell_angle_alpha    113.337
_cell_angle_beta     90
_cell_angle_gamma    90

_symmetry_Int_Tables_number  67
_chemical_formula_structural  BaZrF6
_chemical_formula_sum  Ba2Zr2F2
_cell_volume  243.42569583288238
_cell_formula_units_Z  2
loop_
  _symmetry_equiv_pos_site_id
 _symmetry_equiv_pos_as_xyz
 1  'x, y, z'
loop_
 _atom_site_type_symbol
 _atom_site_label
 _atom_site_symmetry_multiplicity
 _atom_site_fract_x
 _atom_site_fract_y
 _atom_site_fract_z
 _atom_site_fract_occupancy
 Ba  Ba1  1  0.43284  0.75000  0.25000  1
 Ba  Ba2  1  0.56716  0.25000  0.75000  1
 F  F1  1  0.75290  0.43532  0.18001  1
 F  F2  1  0.75290  0.06468  0.31999  1
 F  F3  1  0.24710  0.18001  0.43532  1
 F  F4  1  0.24710  0.31999  0.06468  1
 F  F5  1  0.83417  0.43748  0.56252  1
 F  F6  1  0.83417  0.06252  0.93748  1
 F  F7  1  0.16583  0.56252  0.43748  1
 F  F8  1  0.16583  0.93748  0.06252  1
 F  F9  1  0.75290  0.68001  0.93532  1
 F  F10  1  0.75290  0.81999  0.56468  1
 F  F11  1  0.24710  0.93532  0.68001  1
 F  F12  1  0.24710  0.56468  0.81999  1
 Zr  Zr1  1  0.00000  0.75000  0.75000  1
 Zr  Zr2  1  0.00000  0.25000  0.25000  1
