CIF file written using JARVIS-Tools package.
data_Sr2BeCo2
_symmetry_space_group_name_H-M  'I4/mmm'
_cell_length_a       9.74387
_cell_length_b       9.74387
_cell_length_c       9.74387
_cell_angle_alpha    160.115
_cell_angle_beta     160.115
_cell_angle_gamma    28.2671

_symmetry_Int_Tables_number  139
_chemical_formula_structural  Sr2BeCo2
_chemical_formula_sum  Sr2BeCo2
_cell_volume  106.9807111524179
_cell_formula_units_Z  1
loop_
  _symmetry_equiv_pos_site_id
 _symmetry_equiv_pos_as_xyz
 1  'x, y, z'
loop_
 _atom_site_type_symbol
 _atom_site_label
 _atom_site_symmetry_multiplicity
 _atom_site_fract_x
 _atom_site_fract_y
 _atom_site_fract_z
 _atom_site_fract_occupancy
 Be  Be1  1  0.00000  0.00000  0.00000  1
 Co  Co1  1  0.75000  0.25000  0.50000  1
 Co  Co2  1  0.25000  0.75000  0.50000  1
 Sr  Sr1  1  0.61237  0.61237  -0.00000  1
 Sr  Sr2  1  0.38763  0.38763  0.00000  1
