CIF file written using JARVIS-Tools package.
data_SrCu3Ru4O12
_symmetry_space_group_name_H-M  'Im-3'
_cell_length_a       6.48095
_cell_length_b       6.48099
_cell_length_c       6.48104
_cell_angle_alpha    109.472
_cell_angle_beta     109.472
_cell_angle_gamma    109.471

_symmetry_Int_Tables_number  204
_chemical_formula_structural  SrCu3Ru4O12
_chemical_formula_sum  SrCu3Ru4O2
_cell_volume  209.5546079819253
_cell_formula_units_Z  1
loop_
  _symmetry_equiv_pos_site_id
 _symmetry_equiv_pos_as_xyz
 1  'x, y, z'
loop_
 _atom_site_type_symbol
 _atom_site_label
 _atom_site_symmetry_multiplicity
 _atom_site_fract_x
 _atom_site_fract_y
 _atom_site_fract_z
 _atom_site_fract_occupancy
 Cu  Cu1  1  0.50000  0.00000  0.50000  1
 Cu  Cu2  1  0.50000  0.50000  -0.00000  1
 Cu  Cu3  1  0.00000  0.50000  0.50000  1
 O  O1  1  0.48545  0.30963  0.17582  1
 O  O2  1  0.69037  0.82418  0.51454  1
 O  O3  1  0.82417  0.51454  0.69036  1
 O  O4  1  0.30963  0.82417  0.13380  1
 O  O5  1  0.30963  0.17582  0.48546  1
 O  O6  1  0.82417  0.13381  0.30963  1
 O  O7  1  0.17583  0.86619  0.69037  1
 O  O8  1  0.17583  0.48546  0.30964  1
 O  O9  1  0.51455  0.69037  0.82418  1
 O  O10  1  0.13381  0.30963  0.82418  1
 O  O11  1  0.69037  0.17583  0.86620  1
 O  O12  1  0.86619  0.69037  0.17582  1
 Ru  Ru1  1  0.00000  0.50000  0.00000  1
 Ru  Ru2  1  0.50000  0.50000  0.50000  1
 Ru  Ru3  1  0.50000  -0.00000  -0.00000  1
 Ru  Ru4  1  0.00000  0.00000  0.50000  1
 Sr  Sr1  1  0.00000  0.00000  0.00000  1
