CIF file written using JARVIS-Tools package.
data_S
_symmetry_space_group_name_H-M  'P2_1'
_cell_length_a       10.6797
_cell_length_b       10.7283
_cell_length_c       10.8687
_cell_angle_alpha    90
_cell_angle_beta     95.4114
_cell_angle_gamma    90

_symmetry_Int_Tables_number  4
_chemical_formula_structural  S
_chemical_formula_sum  S48
_cell_volume  1239.7303114973424
_cell_formula_units_Z  48
loop_
  _symmetry_equiv_pos_site_id
 _symmetry_equiv_pos_as_xyz
 1  'x, y, z'
loop_
 _atom_site_type_symbol
 _atom_site_label
 _atom_site_symmetry_multiplicity
 _atom_site_fract_x
 _atom_site_fract_y
 _atom_site_fract_z
 _atom_site_fract_occupancy
 S  S1  1  0.78032  0.69240  0.72256  1
 S  S2  1  0.21968  0.19240  0.27744  1
 S  S3  1  0.35371  0.91009  0.25440  1
 S  S4  1  0.53944  0.84477  0.93693  1
 S  S5  1  0.26866  0.13645  0.73837  1
 S  S6  1  0.14015  0.42124  0.76757  1
 S  S7  1  0.23651  0.80198  0.13482  1
 S  S8  1  0.24130  0.01805  0.35801  1
 S  S9  1  0.15928  0.54866  0.32206  1
 S  S10  1  0.70921  0.94138  0.94643  1
 S  S11  1  0.04397  0.98174  0.94726  1
 S  S12  1  0.24777  0.31202  0.66037  1
 S  S13  1  0.26273  0.52829  0.88289  1
 S  S14  1  0.85985  0.92124  0.23243  1
 S  S15  1  0.95339  0.69423  0.82656  1
 S  S16  1  0.07438  0.16775  -0.01088  1
 S  S17  1  0.84072  0.04866  0.67794  1
 S  S18  1  0.05331  0.77557  0.49835  1
 S  S19  1  0.45679  0.61377  0.44418  1
 S  S20  1  0.64629  0.41009  0.74560  1
 S  S21  1  0.35156  0.83970  0.61824  1
 S  S22  1  0.95603  0.48174  0.05274  1
 S  S23  1  0.94669  0.27557  0.50165  1
 S  S24  1  0.55421  0.63293  0.16415  1
 S  S25  1  0.03724  0.58781  0.45418  1
 S  S26  1  0.78432  0.38897  0.03599  1
 S  S27  1  0.04661  0.19423  0.17344  1
 S  S28  1  0.29079  0.44138  0.05357  1
 S  S29  1  0.96276  0.08781  0.54582  1
 S  S30  1  0.32432  0.47482  0.40912  1
 S  S31  1  0.45413  0.67570  0.62430  1
 S  S32  1  0.57446  0.65933  0.97841  1
 S  S33  1  0.75223  0.81202  0.33963  1
 S  S34  1  0.42554  0.15933  0.02159  1
 S  S35  1  0.73134  0.63645  0.26163  1
 S  S36  1  0.75870  0.51805  0.64199  1
 S  S37  1  0.73727  0.02829  0.11711  1
 S  S38  1  0.17165  0.79603  0.65983  1
 S  S39  1  0.76349  0.30198  0.86518  1
 S  S40  1  0.92562  0.66775  0.01088  1
 S  S41  1  0.44579  0.13293  0.83585  1
 S  S42  1  0.46056  0.34477  0.06307  1
 S  S43  1  0.67568  0.97482  0.59088  1
 S  S44  1  0.54321  0.11377  0.55582  1
 S  S45  1  0.82835  0.29603  0.34017  1
 S  S46  1  0.64844  0.33970  0.38176  1
 S  S47  1  0.54587  0.17570  0.37570  1
 S  S48  1  0.21568  0.88897  0.96401  1
