CIF file written using JARVIS-Tools package.
data_LiV3O8
_symmetry_space_group_name_H-M  'Cm'
_cell_length_a       6.44887
_cell_length_b       3.42263
_cell_length_c       7.26434
_cell_angle_alpha    90
_cell_angle_beta     109.229
_cell_angle_gamma    74.6112

_symmetry_Int_Tables_number  8
_chemical_formula_structural  LiV3O8
_chemical_formula_sum  LiV3O8
_cell_volume  145.2922046499917
_cell_formula_units_Z  1
loop_
  _symmetry_equiv_pos_site_id
 _symmetry_equiv_pos_as_xyz
 1  'x, y, z'
loop_
 _atom_site_type_symbol
 _atom_site_label
 _atom_site_symmetry_multiplicity
 _atom_site_fract_x
 _atom_site_fract_y
 _atom_site_fract_z
 _atom_site_fract_occupancy
 Li  Li1  1  0.37409  0.31296  0.27770  1
 O  O1  1  0.09234  0.45383  0.33836  1
 O  O2  1  0.26694  0.36653  0.99196  1
 O  O3  1  0.24875  0.87562  0.69139  1
 O  O4  1  0.53444  0.23278  0.72458  1
 O  O5  1  0.48246  0.75877  0.43012  1
 O  O6  1  0.71704  0.14148  0.27078  1
 O  O7  1  0.89462  0.55269  0.66788  1
 O  O8  1  0.76236  0.61882  0.98386  1
 V  V1  1  0.20130  0.39935  0.75598  1
 V  V2  1  0.60799  0.69600  0.67199  1
 V  V3  1  0.81169  0.59416  0.22572  1
