CIF file written using JARVIS-Tools package.
data_Mn3OF5
_symmetry_space_group_name_H-M  'P1'
_cell_length_a       4.7793
_cell_length_b       5.79731
_cell_length_c       8.06129
_cell_angle_alpha    92.0206
_cell_angle_beta     90.2896
_cell_angle_gamma    90.3687

_symmetry_Int_Tables_number  1
_chemical_formula_structural  Mn3OF5
_chemical_formula_sum  Mn6O2F0
_cell_volume  223.2084381685198
_cell_formula_units_Z  2
loop_
  _symmetry_equiv_pos_site_id
 _symmetry_equiv_pos_as_xyz
 1  'x, y, z'
loop_
 _atom_site_type_symbol
 _atom_site_label
 _atom_site_symmetry_multiplicity
 _atom_site_fract_x
 _atom_site_fract_y
 _atom_site_fract_z
 _atom_site_fract_occupancy
 F  F1  1  0.80768  0.36771  0.57053  1
 F  F2  1  0.78606  0.03880  0.24627  1
 F  F3  1  0.20563  0.28002  0.10001  1
 F  F4  1  0.30365  0.46806  0.76949  1
 F  F5  1  0.19006  0.97194  0.77037  1
 F  F6  1  0.67875  0.86103  0.55066  1
 F  F7  1  0.71701  0.53015  0.22272  1
 F  F8  1  0.70290  0.20628  0.91505  1
 F  F9  1  0.80285  0.70285  0.87956  1
 F  F10  1  0.29619  0.13974  0.43977  1
 Mn  Mn1  1  0.00594  0.97652  0.01558  1
 Mn  Mn2  1  0.01823  0.35289  0.33447  1
 Mn  Mn3  1  0.01841  0.67632  0.64663  1
 Mn  Mn4  1  0.46055  0.82705  0.32536  1
 Mn  Mn5  1  0.51225  0.16370  0.67470  1
 Mn  Mn6  1  0.49060  0.51498  0.00255  1
 O  O1  1  0.30504  0.78493  0.10712  1
 O  O2  1  0.19821  0.63703  0.42919  1
