CIF file written using JARVIS-Tools package.
data_Cr2GeC
_symmetry_space_group_name_H-M  'P6_3/mmc'
_cell_length_a       2.9476
_cell_length_b       2.9476
_cell_length_c       11.953
_cell_angle_alpha    90
_cell_angle_beta     90
_cell_angle_gamma    120

_symmetry_Int_Tables_number  194
_chemical_formula_structural  Cr2GeC
_chemical_formula_sum  Cr4Ge2C2
_cell_volume  89.93832840868758
_cell_formula_units_Z  2
loop_
  _symmetry_equiv_pos_site_id
 _symmetry_equiv_pos_as_xyz
 1  'x, y, z'
loop_
 _atom_site_type_symbol
 _atom_site_label
 _atom_site_symmetry_multiplicity
 _atom_site_fract_x
 _atom_site_fract_y
 _atom_site_fract_z
 _atom_site_fract_occupancy
 C  C1  1  0.00000  0.00000  0.50000  1
 C  C2  1  0.00000  0.00000  0.00000  1
 Cr  Cr1  1  0.66667  0.33333  0.58552  1
 Cr  Cr2  1  0.33333  0.66667  0.41448  1
 Cr  Cr3  1  0.33333  0.66667  0.08552  1
 Cr  Cr4  1  0.66667  0.33333  0.91448  1
 Ge  Ge1  1  0.66668  0.33332  0.25000  1
 Ge  Ge2  1  0.33332  0.66668  0.75000  1
