CIF file written using JARVIS-Tools package.
data_Li4Co2OF7
_symmetry_space_group_name_H-M  'Cm'
_cell_length_a       5.89529
_cell_length_b       5.89199
_cell_length_c       5.76716
_cell_angle_alpha    60.6984
_cell_angle_beta     90
_cell_angle_gamma    119.734

_symmetry_Int_Tables_number  8
_chemical_formula_structural  Li4Co2OF7
_chemical_formula_sum  Li4Co2OF7
_cell_volume  143.68640749183163
_cell_formula_units_Z  1
loop_
  _symmetry_equiv_pos_site_id
 _symmetry_equiv_pos_as_xyz
 1  'x, y, z'
loop_
 _atom_site_type_symbol
 _atom_site_label
 _atom_site_symmetry_multiplicity
 _atom_site_fract_x
 _atom_site_fract_y
 _atom_site_fract_z
 _atom_site_fract_occupancy
 Co  Co1  1  0.63755  0.25009  0.15388  1
 Co  Co2  1  0.63755  0.25009  0.59603  1
 F  F1  1  0.35556  0.23253  0.38374  1
 F  F2  1  0.85449  0.72166  0.39794  1
 F  F3  1  0.87287  0.26301  0.86849  1
 F  F4  1  0.41255  0.25625  0.87188  1
 F  F5  1  0.85449  0.72166  0.88040  1
 F  F6  1  0.38059  0.77636  0.37820  1
 F  F7  1  0.38059  0.77636  0.84544  1
 Li  Li1  1  0.00688  -0.00050  0.00025  1
 Li  Li2  1  0.25514  0.52320  0.23840  1
 Li  Li3  1  0.62593  0.74474  0.62763  1
 Li  Li4  1  0.11326  0.74244  0.62878  1
 O  O1  1  0.86256  0.24211  0.37894  1
