CIF file written using JARVIS-Tools package.
data_Ba3AlHO4
_symmetry_space_group_name_H-M  'Pnma'
_cell_length_a       10.5639
_cell_length_b       8.23689
_cell_length_c       7.29209
_cell_angle_alpha    90
_cell_angle_beta     90
_cell_angle_gamma    90

_symmetry_Int_Tables_number  62
_chemical_formula_structural  Ba3AlHO4
_chemical_formula_sum  Ba2Al4H4O6
_cell_volume  634.5103149302399
_cell_formula_units_Z  4
loop_
  _symmetry_equiv_pos_site_id
 _symmetry_equiv_pos_as_xyz
 1  'x, y, z'
loop_
 _atom_site_type_symbol
 _atom_site_label
 _atom_site_symmetry_multiplicity
 _atom_site_fract_x
 _atom_site_fract_y
 _atom_site_fract_z
 _atom_site_fract_occupancy
 Al  Al1  1  0.89658  0.75000  0.68910  1
 Al  Al2  1  0.39658  0.75000  0.81090  1
 Al  Al3  1  0.10342  0.25000  0.31090  1
 Al  Al4  1  0.60342  0.25000  0.18910  1
 Ba  Ba1  1  0.83414  0.02530  0.39910  1
 Ba  Ba2  1  0.66586  0.52530  0.89910  1
 Ba  Ba3  1  0.33414  0.47470  0.10090  1
 Ba  Ba4  1  0.16586  0.52530  0.60090  1
 Ba  Ba5  1  0.66586  0.97470  0.89910  1
 Ba  Ba6  1  0.16586  0.97470  0.60090  1
 Ba  Ba7  1  0.96424  0.25000  0.90114  1
 Ba  Ba8  1  0.83414  0.47470  0.39910  1
 Ba  Ba9  1  0.33414  0.02530  0.10090  1
 Ba  Ba10  1  0.46424  0.25000  0.59886  1
 Ba  Ba11  1  0.03576  0.75000  0.09886  1
 Ba  Ba12  1  0.53576  0.75000  0.40114  1
 H  H1  1  0.73001  0.25000  0.66052  1
 H  H2  1  0.23001  0.25000  0.83948  1
 H  H3  1  0.26999  0.75000  0.33948  1
 H  H4  1  0.76999  0.75000  0.16052  1
 O  O1  1  0.57233  0.06530  0.30528  1
 O  O2  1  0.07233  0.43470  0.19472  1
 O  O3  1  0.42767  0.56530  0.69472  1
 O  O4  1  0.92767  0.93470  0.80528  1
 O  O5  1  0.42767  0.93470  0.69472  1
 O  O6  1  0.92767  0.56530  0.80528  1
 O  O7  1  0.57233  0.43470  0.30528  1
 O  O8  1  0.07233  0.06530  0.19472  1
 O  O9  1  0.51150  0.25000  0.98240  1
 O  O10  1  0.01150  0.25000  0.51760  1
 O  O11  1  0.48850  0.75000  0.01760  1
 O  O12  1  0.98850  0.75000  0.48240  1
 O  O13  1  0.76796  0.25000  0.12839  1
 O  O14  1  0.26796  0.25000  0.37161  1
 O  O15  1  0.23204  0.75000  0.87161  1
 O  O16  1  0.73204  0.75000  0.62839  1
