CIF file written using JARVIS-Tools package.
data_Fe3Pb4ClO8
_symmetry_space_group_name_H-M  'P4/mmm'
_cell_length_a       3.92569
_cell_length_b       3.92576
_cell_length_c       15.1087
_cell_angle_alpha    90.0021
_cell_angle_beta     90.0003
_cell_angle_gamma    89.9993

_symmetry_Int_Tables_number  123
_chemical_formula_structural  Fe3Pb4ClO8
_chemical_formula_sum  Fe3Pb4ClO8
_cell_volume  232.84504018137642
_cell_formula_units_Z  1
loop_
  _symmetry_equiv_pos_site_id
 _symmetry_equiv_pos_as_xyz
 1  'x, y, z'
loop_
 _atom_site_type_symbol
 _atom_site_label
 _atom_site_symmetry_multiplicity
 _atom_site_fract_x
 _atom_site_fract_y
 _atom_site_fract_z
 _atom_site_fract_occupancy
 Cl  Cl1  1  0.49997  0.50003  0.11899  1
 Fe  Fe1  1  0.50006  0.50001  0.87174  1
 Fe  Fe2  1  0.49997  0.49993  0.36612  1
 Fe  Fe3  1  0.49998  0.50003  0.61893  1
 O  O1  1  0.49987  0.00008  0.61893  1
 O  O2  1  0.49991  0.50016  0.74706  1
 O  O3  1  0.00004  0.50007  0.90023  1
 O  O4  1  0.49990  0.50014  0.49081  1
 O  O5  1  0.49994  0.99996  0.33767  1
 O  O6  1  -0.00005  0.50020  0.61893  1
 O  O7  1  0.99995  0.49998  0.33767  1
 O  O8  1  0.50003  0.00005  0.90023  1
 Pb  Pb1  1  0.00028  0.99970  0.73616  1
 Pb  Pb2  1  0.99994  0.99995  0.24272  1
 Pb  Pb3  1  0.00017  0.99964  0.50167  1
 Pb  Pb4  1  0.00004  0.00006  -0.00485  1
