CIF file written using JARVIS-Tools package.
data_CuSnF6
_symmetry_space_group_name_H-M  'R-3'
_cell_length_a       5.52721
_cell_length_b       5.52721
_cell_length_c       5.52721
_cell_angle_alpha    54.453
_cell_angle_beta     54.453
_cell_angle_gamma    54.453

_symmetry_Int_Tables_number  148
_chemical_formula_structural  CuSnF6
_chemical_formula_sum  CuSnF6
_cell_volume  103.95609220488934
_cell_formula_units_Z  1
loop_
  _symmetry_equiv_pos_site_id
 _symmetry_equiv_pos_as_xyz
 1  'x, y, z'
loop_
 _atom_site_type_symbol
 _atom_site_label
 _atom_site_symmetry_multiplicity
 _atom_site_fract_x
 _atom_site_fract_y
 _atom_site_fract_z
 _atom_site_fract_occupancy
 Cu  Cu1  1  0.50000  0.50000  0.50000  1
 F  F1  1  0.24990  0.89849  0.60381  1
 F  F2  1  0.89849  0.60381  0.24990  1
 F  F3  1  0.39619  0.75010  0.10151  1
 F  F4  1  0.10151  0.39619  0.75010  1
 F  F5  1  0.75010  0.10151  0.39619  1
 F  F6  1  0.60381  0.24990  0.89849  1
 Sn  Sn1  1  0.00000  0.00000  0.00000  1
