CIF file written using JARVIS-Tools package.
data_TlPAuSe3
_symmetry_space_group_name_H-M  'C2/m'
_cell_length_a       7.12256
_cell_length_b       7.12257
_cell_length_c       8.34851
_cell_angle_alpha    91.1356
_cell_angle_beta     114.87
_cell_angle_gamma    118.936

_symmetry_Int_Tables_number  12
_chemical_formula_structural  TlPAuSe3
_chemical_formula_sum  Tl2P2Au2Se6
_cell_volume  322.71181145600593
_cell_formula_units_Z  2
loop_
  _symmetry_equiv_pos_site_id
 _symmetry_equiv_pos_as_xyz
 1  'x, y, z'
loop_
 _atom_site_type_symbol
 _atom_site_label
 _atom_site_symmetry_multiplicity
 _atom_site_fract_x
 _atom_site_fract_y
 _atom_site_fract_z
 _atom_site_fract_occupancy
 Au  Au1  1  0.76028  0.76028  -0.00000  1
 Au  Au2  1  0.23972  0.23972  0.00000  1
 P  P1  1  0.62168  0.03083  0.65250  1
 P  P2  1  0.37832  0.96917  0.34750  1
 Se  Se1  1  0.42283  0.76426  0.18709  1
 Se  Se2  1  0.51846  0.32260  0.32732  1
 Se  Se3  1  0.57717  0.23574  0.81291  1
 Se  Se4  1  0.48154  0.67740  0.67268  1
 Se  Se5  1  0.00472  0.80886  0.32732  1
 Se  Se6  1  0.99528  0.19114  0.67268  1
 Tl  Tl1  1  0.94320  0.28559  0.22879  1
 Tl  Tl2  1  0.05680  0.71441  0.77121  1
