CIF file written using JARVIS-Tools package.
data_BeNiP2
_symmetry_space_group_name_H-M  'P4mm'
_cell_length_a       2.81386
_cell_length_b       2.81386
_cell_length_c       6.82355
_cell_angle_alpha    90
_cell_angle_beta     90
_cell_angle_gamma    90

_symmetry_Int_Tables_number  99
_chemical_formula_structural  BeNiP2
_chemical_formula_sum  BeNiP2
_cell_volume  54.027616009748904
_cell_formula_units_Z  1
loop_
  _symmetry_equiv_pos_site_id
 _symmetry_equiv_pos_as_xyz
 1  'x, y, z'
loop_
 _atom_site_type_symbol
 _atom_site_label
 _atom_site_symmetry_multiplicity
 _atom_site_fract_x
 _atom_site_fract_y
 _atom_site_fract_z
 _atom_site_fract_occupancy
 Be  Be1  1  0.00000  0.00000  0.53828  1
 Ni  Ni1  1  0.50000  0.50000  0.71194  1
 P  P1  1  0.00000  0.00000  0.90151  1
 P  P2  1  0.50000  0.50000  0.34827  1
