CIF file written using JARVIS-Tools package.
data_LiFeF3
_symmetry_space_group_name_H-M  'P1'
_cell_length_a       5.00235
_cell_length_b       5.15289
_cell_length_c       10.1976
_cell_angle_alpha    95.507
_cell_angle_beta     97.7342
_cell_angle_gamma    119.29

_symmetry_Int_Tables_number  1
_chemical_formula_structural  LiFeF3
_chemical_formula_sum  Li4Fe4F2
_cell_volume  223.14910805799644
_cell_formula_units_Z  4
loop_
  _symmetry_equiv_pos_site_id
 _symmetry_equiv_pos_as_xyz
 1  'x, y, z'
loop_
 _atom_site_type_symbol
 _atom_site_label
 _atom_site_symmetry_multiplicity
 _atom_site_fract_x
 _atom_site_fract_y
 _atom_site_fract_z
 _atom_site_fract_occupancy
 F  F1  1  0.47257  0.21880  0.13667  1
 F  F2  1  0.06005  0.96953  0.62136  1
 F  F3  1  0.25262  0.99125  0.35562  1
 F  F4  1  0.54759  0.44472  0.87532  1
 F  F5  1  0.38594  0.65365  0.62156  1
 F  F6  1  0.89305  0.14193  0.88054  1
 F  F7  1  0.93085  0.33782  0.39167  1
 F  F8  1  0.19331  0.79040  0.86322  1
 F  F9  1  0.15956  0.55314  0.12382  1
 F  F10  1  0.79427  0.87015  0.11315  1
 F  F11  1  0.57311  0.65511  0.35474  1
 F  F12  1  0.73235  0.34772  0.64422  1
 Fe  Fe1  1  0.49235  0.03420  0.75060  1
 Fe  Fe2  1  0.77931  0.75189  0.75503  1
 Fe  Fe3  1  0.15194  0.25087  0.24637  1
 Fe  Fe4  1  0.57785  0.96598  0.24834  1
 Li  Li1  1  0.76854  0.50342  0.05674  1
 Li  Li2  1  -0.04002  0.71759  0.44338  1
 Li  Li3  1  0.02207  0.28959  0.57009  1
 Li  Li4  1  0.25267  0.51205  0.94757  1
