CIF file written using JARVIS-Tools package.
data_LaGa2Ni
_symmetry_space_group_name_H-M  'Cmmm'
_cell_length_a       4.25562
_cell_length_b       4.25775
_cell_length_c       9.0626
_cell_angle_alpha    103.586
_cell_angle_beta     90
_cell_angle_gamma    90

_symmetry_Int_Tables_number  65
_chemical_formula_structural  LaGa2Ni
_chemical_formula_sum  La2Ga4Ni2
_cell_volume  159.61368450137033
_cell_formula_units_Z  2
loop_
  _symmetry_equiv_pos_site_id
 _symmetry_equiv_pos_as_xyz
 1  'x, y, z'
loop_
 _atom_site_type_symbol
 _atom_site_label
 _atom_site_symmetry_multiplicity
 _atom_site_fract_x
 _atom_site_fract_y
 _atom_site_fract_z
 _atom_site_fract_occupancy
 Ga  Ga1  1  0.00000  0.50000  0.00000  1
 Ga  Ga2  1  0.50000  0.00000  0.00000  1
 Ga  Ga3  1  0.50000  0.70932  0.41863  1
 Ga  Ga4  1  0.50000  0.29068  0.58137  1
 La  La1  1  0.00000  0.85848  0.71696  1
 La  La2  1  0.00000  0.14152  0.28304  1
 Ni  Ni1  1  0.50000  0.57209  0.14417  1
 Ni  Ni2  1  0.50000  0.42791  0.85583  1
