CIF file written using JARVIS-Tools package.
data_CuO2
_symmetry_space_group_name_H-M  'Cm'
_cell_length_a       3.01147
_cell_length_b       3.41585
_cell_length_c       7.48268
_cell_angle_alpha    107.124
_cell_angle_beta     66.2812
_cell_angle_gamma    116.191

_symmetry_Int_Tables_number  8
_chemical_formula_structural  CuO2
_chemical_formula_sum  Cu2O4
_cell_volume  62.591665403273446
_cell_formula_units_Z  2
loop_
  _symmetry_equiv_pos_site_id
 _symmetry_equiv_pos_as_xyz
 1  'x, y, z'
loop_
 _atom_site_type_symbol
 _atom_site_label
 _atom_site_symmetry_multiplicity
 _atom_site_fract_x
 _atom_site_fract_y
 _atom_site_fract_z
 _atom_site_fract_occupancy
 Cu  Cu1  1  0.06289  0.13323  0.83739  1
 Cu  Cu2  1  0.06428  0.91178  0.22547  1
 O  O1  1  0.36162  0.74790  0.84546  1
 O  O2  1  0.32671  0.81424  0.41434  1
 O  O3  1  0.82470  0.23223  0.12541  1
 O  O4  1  0.35870  0.16250  0.55667  1
