CIF file written using JARVIS-Tools package.
data_Mg3Mn
_symmetry_space_group_name_H-M  'P2_1/m'
_cell_length_a       4.6802
_cell_length_b       4.72262
_cell_length_c       8.64824
_cell_angle_alpha    106.295
_cell_angle_beta     90
_cell_angle_gamma    90

_symmetry_Int_Tables_number  11
_chemical_formula_structural  Mg3Mn
_chemical_formula_sum  Mg6Mn2
_cell_volume  183.47141035211743
_cell_formula_units_Z  2
loop_
  _symmetry_equiv_pos_site_id
 _symmetry_equiv_pos_as_xyz
 1  'x, y, z'
loop_
 _atom_site_type_symbol
 _atom_site_label
 _atom_site_symmetry_multiplicity
 _atom_site_fract_x
 _atom_site_fract_y
 _atom_site_fract_z
 _atom_site_fract_occupancy
 Mg  Mg1  1  0.75000  0.43313  0.36698  1
 Mg  Mg2  1  0.25000  0.56687  0.63302  1
 Mg  Mg3  1  0.75000  0.06012  0.61566  1
 Mg  Mg4  1  0.25000  0.93988  0.38434  1
 Mg  Mg5  1  0.75000  0.24449  0.99488  1
 Mg  Mg6  1  0.25000  0.75551  0.00512  1
 Mn  Mn1  1  0.75000  0.84702  0.19752  1
 Mn  Mn2  1  0.25000  0.15298  0.80248  1
