CIF file written using JARVIS-Tools package.
data_K2MnTe2
_symmetry_space_group_name_H-M  'Ibam'
_cell_length_a       6.92037
_cell_length_b       7.36496
_cell_length_c       8.68915
_cell_angle_alpha    115.075
_cell_angle_beta     113.467
_cell_angle_gamma    90

_symmetry_Int_Tables_number  72
_chemical_formula_structural  K2MnTe2
_chemical_formula_sum  K4Mn2Te4
_cell_volume  360.2839957443803
_cell_formula_units_Z  2
loop_
  _symmetry_equiv_pos_site_id
 _symmetry_equiv_pos_as_xyz
 1  'x, y, z'
loop_
 _atom_site_type_symbol
 _atom_site_label
 _atom_site_symmetry_multiplicity
 _atom_site_fract_x
 _atom_site_fract_y
 _atom_site_fract_z
 _atom_site_fract_occupancy
 K  K1  1  0.14319  0.46552  0.28638  1
 K  K2  1  0.85681  0.53448  0.71362  1
 K  K3  1  0.35681  0.17914  0.71362  1
 K  K4  1  0.64319  0.82086  0.28638  1
 Mn  Mn1  1  0.25000  -0.00000  0.00000  1
 Mn  Mn2  1  0.75000  -0.00000  -0.00000  1
 Te  Te1  1  0.89098  0.09232  0.78196  1
 Te  Te2  1  0.10902  0.90768  0.21804  1
 Te  Te3  1  0.60902  0.31036  0.21804  1
 Te  Te4  1  0.39098  0.68964  0.78196  1
