CIF file written using JARVIS-Tools package.
data_MnBeSi
_symmetry_space_group_name_H-M  'P3m1'
_cell_length_a       2.59995
_cell_length_b       2.59995
_cell_length_c       5.75119
_cell_angle_alpha    90
_cell_angle_beta     90
_cell_angle_gamma    120

_symmetry_Int_Tables_number  156
_chemical_formula_structural  MnBeSi
_chemical_formula_sum  MnBeSi
_cell_volume  33.668145688063575
_cell_formula_units_Z  1
loop_
  _symmetry_equiv_pos_site_id
 _symmetry_equiv_pos_as_xyz
 1  'x, y, z'
loop_
 _atom_site_type_symbol
 _atom_site_label
 _atom_site_symmetry_multiplicity
 _atom_site_fract_x
 _atom_site_fract_y
 _atom_site_fract_z
 _atom_site_fract_occupancy
 Be  Be1  1  0.00000  0.00000  0.99215  1
 Mn  Mn1  1  0.33333  0.66667  0.67268  1
 Si  Si1  1  0.66667  0.33333  0.33517  1
