CIF file written using JARVIS-Tools package.
data_Mg6NbCr
_symmetry_space_group_name_H-M  'Amm2'
_cell_length_a       6.27905
_cell_length_b       6.27905
_cell_length_c       4.73242
_cell_angle_alpha    90
_cell_angle_beta     90
_cell_angle_gamma    123.285

_symmetry_Int_Tables_number  38
_chemical_formula_structural  Mg6NbCr
_chemical_formula_sum  Mg6NbCr
_cell_volume  155.97330770821483
_cell_formula_units_Z  1
loop_
  _symmetry_equiv_pos_site_id
 _symmetry_equiv_pos_as_xyz
 1  'x, y, z'
loop_
 _atom_site_type_symbol
 _atom_site_label
 _atom_site_symmetry_multiplicity
 _atom_site_fract_x
 _atom_site_fract_y
 _atom_site_fract_z
 _atom_site_fract_occupancy
 Cr  Cr1  1  0.29883  0.20117  0.75000  1
 Mg  Mg1  1  0.18410  0.83282  0.25000  1
 Mg  Mg2  1  0.66718  0.31590  0.25000  1
 Mg  Mg3  1  0.67053  0.82947  0.25000  1
 Mg  Mg4  1  0.31880  0.66332  0.75000  1
 Mg  Mg5  1  0.83668  0.18120  0.75000  1
 Mg  Mg6  1  0.82640  0.67360  0.75000  1
 Nb  Nb1  1  0.19748  0.30252  0.25000  1
