CIF file written using JARVIS-Tools package.
data_TbPd
_symmetry_space_group_name_H-M  'Pnma'
_cell_length_a       4.58039
_cell_length_b       5.568
_cell_length_c       6.99742
_cell_angle_alpha    90
_cell_angle_beta     90
_cell_angle_gamma    90

_symmetry_Int_Tables_number  62
_chemical_formula_structural  TbPd
_chemical_formula_sum  Tb4Pd4
_cell_volume  178.45940329591414
_cell_formula_units_Z  4
loop_
  _symmetry_equiv_pos_site_id
 _symmetry_equiv_pos_as_xyz
 1  'x, y, z'
loop_
 _atom_site_type_symbol
 _atom_site_label
 _atom_site_symmetry_multiplicity
 _atom_site_fract_x
 _atom_site_fract_y
 _atom_site_fract_z
 _atom_site_fract_occupancy
 Pd  Pd1  1  0.25000  0.84375  0.54285  1
 Pd  Pd2  1  0.25000  0.65625  0.04285  1
 Pd  Pd3  1  0.75000  0.15625  0.45715  1
 Pd  Pd4  1  0.75000  0.34375  0.95715  1
 Tb  Tb1  1  0.25000  0.35567  0.68315  1
 Tb  Tb2  1  0.25000  0.14433  0.18315  1
 Tb  Tb3  1  0.75000  0.64433  0.31685  1
 Tb  Tb4  1  0.75000  0.85567  0.81685  1
