CIF file written using JARVIS-Tools package.
data_Mg6VSn
_symmetry_space_group_name_H-M  'Amm2'
_cell_length_a       6.2941
_cell_length_b       6.09248
_cell_length_c       5.09326
_cell_angle_alpha    90
_cell_angle_beta     90
_cell_angle_gamma    118.946

_symmetry_Int_Tables_number  38
_chemical_formula_structural  Mg6VSn
_chemical_formula_sum  Mg6VSn
_cell_volume  170.91055890248614
_cell_formula_units_Z  1
loop_
  _symmetry_equiv_pos_site_id
 _symmetry_equiv_pos_as_xyz
 1  'x, y, z'
loop_
 _atom_site_type_symbol
 _atom_site_label
 _atom_site_symmetry_multiplicity
 _atom_site_fract_x
 _atom_site_fract_y
 _atom_site_fract_z
 _atom_site_fract_occupancy
 Mg  Mg1  1  0.66410  0.33037  0.25000  1
 Mg  Mg2  1  0.66410  0.83374  0.25000  1
 Mg  Mg3  1  0.33538  0.17753  0.75000  1
 Mg  Mg4  1  0.33538  0.65785  0.75000  1
 Mg  Mg5  1  0.84641  0.17320  0.75000  1
 Mg  Mg6  1  0.82943  0.66472  0.75000  1
 Sn  Sn1  1  0.16260  0.83130  0.25000  1
 V  V1  1  0.16259  0.33129  0.25000  1
