CIF file written using JARVIS-Tools package.
data_Nb6Fe16Si7
_symmetry_space_group_name_H-M  'Fm-3m'
_cell_length_a       7.95072
_cell_length_b       7.95071
_cell_length_c       7.95072
_cell_angle_alpha    60
_cell_angle_beta     60
_cell_angle_gamma    60

_symmetry_Int_Tables_number  225
_chemical_formula_structural  Nb6Fe16Si7
_chemical_formula_sum  Nb6Fe6Si7
_cell_volume  355.38921054214535
_cell_formula_units_Z  1
loop_
  _symmetry_equiv_pos_site_id
 _symmetry_equiv_pos_as_xyz
 1  'x, y, z'
loop_
 _atom_site_type_symbol
 _atom_site_label
 _atom_site_symmetry_multiplicity
 _atom_site_fract_x
 _atom_site_fract_y
 _atom_site_fract_z
 _atom_site_fract_occupancy
 Fe  Fe1  1  0.38001  0.85997  0.38001  1
 Fe  Fe2  1  0.82648  0.52058  0.82648  1
 Fe  Fe3  1  0.17352  0.17352  0.17352  1
 Fe  Fe4  1  0.38001  0.38001  0.85997  1
 Fe  Fe5  1  0.52058  0.82648  0.82648  1
 Fe  Fe6  1  0.61999  0.61999  0.61999  1
 Fe  Fe7  1  0.17352  0.17352  0.47942  1
 Fe  Fe8  1  0.82648  0.82648  0.82648  1
 Fe  Fe9  1  0.82648  0.82648  0.52058  1
 Fe  Fe10  1  0.38001  0.38001  0.38001  1
 Fe  Fe11  1  0.61999  0.61999  0.14003  1
 Fe  Fe12  1  0.14003  0.61999  0.61999  1
 Fe  Fe13  1  0.61999  0.14003  0.61999  1
 Fe  Fe14  1  0.85997  0.38001  0.38001  1
 Fe  Fe15  1  0.47942  0.17352  0.17352  1
 Fe  Fe16  1  0.17352  0.47942  0.17352  1
 Nb  Nb1  1  0.79557  0.79557  0.20443  1
 Nb  Nb2  1  0.79557  0.20443  0.20443  1
 Nb  Nb3  1  0.20443  0.20443  0.79557  1
 Nb  Nb4  1  0.79557  0.20443  0.79557  1
 Nb  Nb5  1  0.20443  0.79557  0.20443  1
 Nb  Nb6  1  0.20443  0.79557  0.79557  1
 Si  Si1  1  0.50000  0.00000  0.50000  1
 Si  Si2  1  -0.00000  0.50000  0.00000  1
 Si  Si3  1  -0.00000  0.50000  0.50000  1
 Si  Si4  1  0.50000  0.50000  0.00000  1
 Si  Si5  1  0.00000  0.00000  0.50000  1
 Si  Si6  1  0.50000  0.00000  0.00000  1
 Si  Si7  1  0.50000  0.50000  0.50000  1
