CIF file written using JARVIS-Tools package.
data_EuTl2Pd
_symmetry_space_group_name_H-M  'Cmcm'
_cell_length_a       3.93271
_cell_length_b       6.00097
_cell_length_c       8.64913
_cell_angle_alpha    90
_cell_angle_beta     90
_cell_angle_gamma    109.128

_symmetry_Int_Tables_number  63
_chemical_formula_structural  EuTl2Pd
_chemical_formula_sum  Eu2Tl4Pd2
_cell_volume  192.85109077180854
_cell_formula_units_Z  2
loop_
  _symmetry_equiv_pos_site_id
 _symmetry_equiv_pos_as_xyz
 1  'x, y, z'
loop_
 _atom_site_type_symbol
 _atom_site_label
 _atom_site_symmetry_multiplicity
 _atom_site_fract_x
 _atom_site_fract_y
 _atom_site_fract_z
 _atom_site_fract_occupancy
 Eu  Eu1  1  0.44053  0.88105  0.25000  1
 Eu  Eu2  1  0.55947  0.11895  0.75000  1
 Pd  Pd1  1  0.74166  0.48332  0.25000  1
 Pd  Pd2  1  0.25834  0.51668  0.75000  1
 Tl  Tl1  1  0.86287  0.72574  0.54673  1
 Tl  Tl2  1  0.13713  0.27426  0.04673  1
 Tl  Tl3  1  0.13713  0.27426  0.45327  1
 Tl  Tl4  1  0.86287  0.72574  0.95327  1
