CIF file written using JARVIS-Tools package.
data_KInTe2
_symmetry_space_group_name_H-M  'I4/mcm'
_cell_length_a       7.14134
_cell_length_b       7.14134
_cell_length_c       7.14134
_cell_angle_alpha    105.559
_cell_angle_beta     105.559
_cell_angle_gamma    117.616

_symmetry_Int_Tables_number  140
_chemical_formula_structural  KInTe2
_chemical_formula_sum  K2In2Te4
_cell_volume  276.0553982954629
_cell_formula_units_Z  2
loop_
  _symmetry_equiv_pos_site_id
 _symmetry_equiv_pos_as_xyz
 1  'x, y, z'
loop_
 _atom_site_type_symbol
 _atom_site_label
 _atom_site_symmetry_multiplicity
 _atom_site_fract_x
 _atom_site_fract_y
 _atom_site_fract_z
 _atom_site_fract_occupancy
 In  In1  1  0.75000  0.25000  0.50000  1
 In  In2  1  0.25000  0.75000  0.50000  1
 K  K1  1  0.25000  0.25000  0.00000  1
 K  K2  1  0.75000  0.75000  0.00000  1
 Te  Te1  1  0.17870  0.32130  0.50000  1
 Te  Te2  1  0.32130  0.82130  0.14260  1
 Te  Te3  1  0.67870  0.17870  0.85740  1
 Te  Te4  1  0.82130  0.67870  0.50000  1
