CIF file written using JARVIS-Tools package.
data_RbHo2Cu3S5
_symmetry_space_group_name_H-M  'Cmcm'
_cell_length_a       3.94033
_cell_length_b       7.2225
_cell_length_c       16.4454
_cell_angle_alpha    90
_cell_angle_beta     90
_cell_angle_gamma    105.83

_symmetry_Int_Tables_number  63
_chemical_formula_structural  RbHo2Cu3S5
_chemical_formula_sum  Rb2Ho4Cu6S0
_cell_volume  450.27078296535734
_cell_formula_units_Z  2
loop_
  _symmetry_equiv_pos_site_id
 _symmetry_equiv_pos_as_xyz
 1  'x, y, z'
loop_
 _atom_site_type_symbol
 _atom_site_label
 _atom_site_symmetry_multiplicity
 _atom_site_fract_x
 _atom_site_fract_y
 _atom_site_fract_z
 _atom_site_fract_occupancy
 Cu  Cu1  1  0.08280  0.16561  0.03846  1
 Cu  Cu2  1  0.91720  0.83439  0.96154  1
 Cu  Cu3  1  0.91720  0.83439  0.53846  1
 Cu  Cu4  1  0.84498  0.68995  0.25000  1
 Cu  Cu5  1  0.15502  0.31005  0.75000  1
 Cu  Cu6  1  0.08280  0.16561  0.46154  1
 Ho  Ho1  1  0.30766  0.61532  0.09353  1
 Ho  Ho2  1  0.30766  0.61532  0.40647  1
 Ho  Ho3  1  0.69234  0.38468  0.59353  1
 Ho  Ho4  1  0.69234  0.38468  0.90647  1
 Rb  Rb1  1  0.56472  0.12943  0.25000  1
 Rb  Rb2  1  0.43528  0.87057  0.75000  1
 S  S1  1  0.06200  0.12400  0.88458  1
 S  S2  1  0.93800  0.87600  0.38458  1
 S  S3  1  0.93800  0.87600  0.11542  1
 S  S4  1  0.74187  0.48374  0.75000  1
 S  S5  1  0.25813  0.51626  0.25000  1
 S  S6  1  0.33174  0.66347  0.93065  1
 S  S7  1  0.66826  0.33653  0.06935  1
 S  S8  1  0.66826  0.33653  0.43065  1
 S  S9  1  0.06200  0.12400  0.61542  1
 S  S10  1  0.33174  0.66347  0.56935  1
