CIF file written using JARVIS-Tools package.
data_SrMg6Si
_symmetry_space_group_name_H-M  'Amm2'
_cell_length_a       7.50162
_cell_length_b       6.0207
_cell_length_c       4.88136
_cell_angle_alpha    90
_cell_angle_beta     90
_cell_angle_gamma    113.659

_symmetry_Int_Tables_number  38
_chemical_formula_structural  SrMg6Si
_chemical_formula_sum  SrMg6Si
_cell_volume  201.93628312065
_cell_formula_units_Z  1
loop_
  _symmetry_equiv_pos_site_id
 _symmetry_equiv_pos_as_xyz
 1  'x, y, z'
loop_
 _atom_site_type_symbol
 _atom_site_label
 _atom_site_symmetry_multiplicity
 _atom_site_fract_x
 _atom_site_fract_y
 _atom_site_fract_z
 _atom_site_fract_occupancy
 Mg  Mg1  1  0.62551  0.30622  0.25000  1
 Mg  Mg2  1  0.62551  0.81928  0.25000  1
 Mg  Mg3  1  0.34785  0.17603  0.75000  1
 Mg  Mg4  1  0.34785  0.67182  0.75000  1
 Mg  Mg5  1  0.91164  0.20582  0.75000  1
 Mg  Mg6  1  0.76916  0.63458  0.75000  1
 Si  Si1  1  0.27257  0.38628  0.25000  1
 Sr  Sr1  1  0.09992  0.79996  0.25000  1
