CIF file written using JARVIS-Tools package.
data_Zr3N4
_symmetry_space_group_name_H-M  'Fd-3m'
_cell_length_a       6.48598
_cell_length_b       6.48598
_cell_length_c       6.48598
_cell_angle_alpha    60
_cell_angle_beta     90
_cell_angle_gamma    120

_symmetry_Int_Tables_number  227
_chemical_formula_structural  Zr3N4
_chemical_formula_sum  Zr6N8
_cell_volume  192.93476886207088
_cell_formula_units_Z  2
loop_
  _symmetry_equiv_pos_site_id
 _symmetry_equiv_pos_as_xyz
 1  'x, y, z'
loop_
 _atom_site_type_symbol
 _atom_site_label
 _atom_site_symmetry_multiplicity
 _atom_site_fract_x
 _atom_site_fract_y
 _atom_site_fract_z
 _atom_site_fract_occupancy
 N  N1  1  0.74209  0.48418  0.27374  1
 N  N2  1  0.74209  0.01582  0.74209  1
 N  N3  1  0.74209  0.48418  0.74209  1
 N  N4  1  0.27374  0.01582  0.74209  1
 N  N5  1  0.25791  0.51582  0.25791  1
 N  N6  1  0.72626  0.98418  0.25791  1
 N  N7  1  0.25791  0.51582  0.72626  1
 N  N8  1  0.25791  0.98418  0.25791  1
 Zr  Zr1  1  0.50000  0.00000  0.00000  1
 Zr  Zr2  1  0.50000  0.00000  0.50000  1
 Zr  Zr3  1  0.12500  0.25000  0.12500  1
 Zr  Zr4  1  0.50000  0.50000  0.50000  1
 Zr  Zr5  1  0.87500  0.75000  0.87500  1
 Zr  Zr6  1  -0.00000  0.50000  0.50000  1
