CIF file written using JARVIS-Tools package.
data_SmNiSb2
_symmetry_space_group_name_H-M  'P4/nmm'
_cell_length_a       4.396
_cell_length_b       4.396
_cell_length_c       9.57106
_cell_angle_alpha    90
_cell_angle_beta     90
_cell_angle_gamma    90

_symmetry_Int_Tables_number  129
_chemical_formula_structural  SmNiSb2
_chemical_formula_sum  Sm2Ni2Sb4
_cell_volume  184.95872402871092
_cell_formula_units_Z  2
loop_
  _symmetry_equiv_pos_site_id
 _symmetry_equiv_pos_as_xyz
 1  'x, y, z'
loop_
 _atom_site_type_symbol
 _atom_site_label
 _atom_site_symmetry_multiplicity
 _atom_site_fract_x
 _atom_site_fract_y
 _atom_site_fract_z
 _atom_site_fract_occupancy
 Ni  Ni1  1  0.25000  0.75000  0.50000  1
 Ni  Ni2  1  0.75000  0.25000  0.50000  1
 Sb  Sb1  1  0.25000  0.75000  0.00000  1
 Sb  Sb2  1  0.75000  0.25000  0.00000  1
 Sb  Sb3  1  0.75000  0.75000  0.36145  1
 Sb  Sb4  1  0.25000  0.25000  0.63855  1
 Sm  Sm1  1  0.75000  0.75000  0.73911  1
 Sm  Sm2  1  0.25000  0.25000  0.26089  1
