CIF file written using JARVIS-Tools package.
data_Mg6VMo
_symmetry_space_group_name_H-M  'Amm2'
_cell_length_a       6.17068
_cell_length_b       5.81385
_cell_length_c       4.90635
_cell_angle_alpha    90
_cell_angle_beta     90
_cell_angle_gamma    118.105

_symmetry_Int_Tables_number  38
_chemical_formula_structural  Mg6VMo
_chemical_formula_sum  Mg6VMo
_cell_volume  155.26248224798042
_cell_formula_units_Z  1
loop_
  _symmetry_equiv_pos_site_id
 _symmetry_equiv_pos_as_xyz
 1  'x, y, z'
loop_
 _atom_site_type_symbol
 _atom_site_label
 _atom_site_symmetry_multiplicity
 _atom_site_fract_x
 _atom_site_fract_y
 _atom_site_fract_z
 _atom_site_fract_occupancy
 Mg  Mg1  1  0.65325  0.32674  0.25000  1
 Mg  Mg2  1  0.65325  0.82650  0.25000  1
 Mg  Mg3  1  0.32988  0.15986  0.75000  1
 Mg  Mg4  1  0.32988  0.67001  0.75000  1
 Mg  Mg5  1  0.86217  0.18108  0.75000  1
 Mg  Mg6  1  0.86323  0.68162  0.75000  1
 Mo  Mo1  1  0.15113  0.82557  0.25000  1
 V  V1  1  0.15723  0.32861  0.25000  1
