CIF file written using JARVIS-Tools package.
data_BeNb2Mo
_symmetry_space_group_name_H-M  'I-4m2'
_cell_length_a       5.15497
_cell_length_b       5.15497
_cell_length_c       5.15497
_cell_angle_alpha    136.81
_cell_angle_beta     136.81
_cell_angle_gamma    62.7304

_symmetry_Int_Tables_number  119
_chemical_formula_structural  BeNb2Mo
_chemical_formula_sum  BeNb2Mo
_cell_volume  63.376396532680516
_cell_formula_units_Z  1
loop_
  _symmetry_equiv_pos_site_id
 _symmetry_equiv_pos_as_xyz
 1  'x, y, z'
loop_
 _atom_site_type_symbol
 _atom_site_label
 _atom_site_symmetry_multiplicity
 _atom_site_fract_x
 _atom_site_fract_y
 _atom_site_fract_z
 _atom_site_fract_occupancy
 Be  Be1  1  0.50000  0.50000  0.00000  1
 Mo  Mo1  1  0.75000  0.25000  0.50000  1
 Nb  Nb1  1  0.00000  0.00000  0.00000  1
 Nb  Nb2  1  0.25000  0.75000  0.50000  1
