CIF file written using JARVIS-Tools package.
data_KEuSiS4
_symmetry_space_group_name_H-M  'P2_1'
_cell_length_a       6.44924
_cell_length_b       6.61287
_cell_length_c       8.53472
_cell_angle_alpha    90
_cell_angle_beta     107.916
_cell_angle_gamma    90

_symmetry_Int_Tables_number  4
_chemical_formula_structural  KEuSiS4
_chemical_formula_sum  K2Eu2Si2S8
_cell_volume  346.3371756568397
_cell_formula_units_Z  2
loop_
  _symmetry_equiv_pos_site_id
 _symmetry_equiv_pos_as_xyz
 1  'x, y, z'
loop_
 _atom_site_type_symbol
 _atom_site_label
 _atom_site_symmetry_multiplicity
 _atom_site_fract_x
 _atom_site_fract_y
 _atom_site_fract_z
 _atom_site_fract_occupancy
 Eu  Eu1  1  0.27065  0.21064  0.44884  1
 Eu  Eu2  1  0.72935  0.71064  0.55116  1
 K  K1  1  0.77237  0.69370  0.06578  1
 K  K2  1  0.22763  0.19370  0.93422  1
 S  S1  1  0.91436  0.12933  0.56766  1
 S  S2  1  0.08722  0.67774  0.83937  1
 S  S3  1  0.47758  0.94253  0.27204  1
 S  S4  1  0.51877  0.44374  0.28852  1
 S  S5  1  0.08564  0.62933  0.43234  1
 S  S6  1  0.48123  0.94374  0.71148  1
 S  S7  1  0.91278  0.17774  0.16063  1
 S  S8  1  0.52242  0.44253  0.72796  1
 Si  Si1  1  0.28288  0.67788  0.68172  1
 Si  Si2  1  0.71712  0.17788  0.31828  1
