CIF file written using JARVIS-Tools package.
data_LiHS
_symmetry_space_group_name_H-M  'Ama2'
_cell_length_a       6.07447
_cell_length_b       3.90516
_cell_length_c       3.90516
_cell_angle_alpha    90.8576
_cell_angle_beta     90
_cell_angle_gamma    90

_symmetry_Int_Tables_number  40
_chemical_formula_structural  LiHS
_chemical_formula_sum  Li2H2S2
_cell_volume  92.62708425193122
_cell_formula_units_Z  2
loop_
  _symmetry_equiv_pos_site_id
 _symmetry_equiv_pos_as_xyz
 1  'x, y, z'
loop_
 _atom_site_type_symbol
 _atom_site_label
 _atom_site_symmetry_multiplicity
 _atom_site_fract_x
 _atom_site_fract_y
 _atom_site_fract_z
 _atom_site_fract_occupancy
 H  H1  1  0.75000  0.99059  0.12570  1
 H  H2  1  0.25000  0.12570  0.99059  1
 Li  Li1  1  0.00000  0.50289  0.50289  1
 Li  Li2  1  0.50000  0.50289  0.50289  1
 S  S1  1  0.25000  0.47174  0.00018  1
 S  S2  1  0.75000  0.00018  0.47174  1
