CIF file written using JARVIS-Tools package.
data_RbAuSe2O8
_symmetry_space_group_name_H-M  'C2/m'
_cell_length_a       5.32261
_cell_length_b       6.00173
_cell_length_c       7.34437
_cell_angle_alpha    113.266
_cell_angle_beta     90
_cell_angle_gamma    116.322

_symmetry_Int_Tables_number  12
_chemical_formula_structural  RbAuSe2O8
_chemical_formula_sum  RbAuSe2O8
_cell_volume  188.76710425186096
_cell_formula_units_Z  1
loop_
  _symmetry_equiv_pos_site_id
 _symmetry_equiv_pos_as_xyz
 1  'x, y, z'
loop_
 _atom_site_type_symbol
 _atom_site_label
 _atom_site_symmetry_multiplicity
 _atom_site_fract_x
 _atom_site_fract_y
 _atom_site_fract_z
 _atom_site_fract_occupancy
 Au  Au1  1  0.00000  0.00000  0.00000  1
 O  O1  1  0.14148  0.28296  0.65845  1
 O  O2  1  0.32304  0.64608  0.07504  1
 O  O3  1  0.85852  0.71704  0.34155  1
 O  O4  1  0.67696  0.35392  0.92496  1
 O  O5  1  0.86565  0.23146  0.21357  1
 O  O6  1  0.13435  0.76854  0.78643  1
 O  O7  1  0.36581  0.23146  0.21357  1
 O  O8  1  0.63419  0.76854  0.78643  1
 Rb  Rb1  1  0.50000  -0.00000  0.50000  1
 Se  Se1  1  0.70064  0.40129  0.16063  1
 Se  Se2  1  0.29936  0.59871  0.83937  1
