CIF file written using JARVIS-Tools package.
data_PrCuSn2
_symmetry_space_group_name_H-M  'Cmcm'
_cell_length_a       4.64382
_cell_length_b       4.43539
_cell_length_c       9.68102
_cell_angle_alpha    103.243
_cell_angle_beta     90
_cell_angle_gamma    90

_symmetry_Int_Tables_number  63
_chemical_formula_structural  PrCuSn2
_chemical_formula_sum  Pr2Cu2Sn4
_cell_volume  194.09914792825046
_cell_formula_units_Z  2
loop_
  _symmetry_equiv_pos_site_id
 _symmetry_equiv_pos_as_xyz
 1  'x, y, z'
loop_
 _atom_site_type_symbol
 _atom_site_label
 _atom_site_symmetry_multiplicity
 _atom_site_fract_x
 _atom_site_fract_y
 _atom_site_fract_z
 _atom_site_fract_occupancy
 Cu  Cu1  1  0.75000  0.32441  0.64882  1
 Cu  Cu2  1  0.25000  0.67559  0.35118  1
 Pr  Pr1  1  0.75000  0.10482  0.20965  1
 Pr  Pr2  1  0.25000  0.89518  0.79035  1
 Sn  Sn1  1  0.75000  0.45735  0.91469  1
 Sn  Sn2  1  0.25000  0.54265  0.08531  1
 Sn  Sn3  1  0.75000  0.74773  0.49547  1
 Sn  Sn4  1  0.25000  0.25227  0.50453  1
