CIF file written using JARVIS-Tools package.
data_Cr3AgO8
_symmetry_space_group_name_H-M  'C2/m'
_cell_length_a       5.03947
_cell_length_b       5.03946
_cell_length_c       6.85864
_cell_angle_alpha    88.1452
_cell_angle_beta     88.145
_cell_angle_gamma    66.6284

_symmetry_Int_Tables_number  12
_chemical_formula_structural  Cr3AgO8
_chemical_formula_sum  Cr3AgO8
_cell_volume  159.77192111245066
_cell_formula_units_Z  1
loop_
  _symmetry_equiv_pos_site_id
 _symmetry_equiv_pos_as_xyz
 1  'x, y, z'
loop_
 _atom_site_type_symbol
 _atom_site_label
 _atom_site_symmetry_multiplicity
 _atom_site_fract_x
 _atom_site_fract_y
 _atom_site_fract_z
 _atom_site_fract_occupancy
 Ag  Ag1  1  0.00000  0.00000  0.00000  1
 Cr  Cr1  1  -0.00000  0.00000  0.50000  1
 Cr  Cr2  1  0.64642  0.64642  0.27755  1
 Cr  Cr3  1  0.35359  0.35358  0.72245  1
 O  O1  1  0.78672  0.27768  0.29694  1
 O  O2  1  0.27768  0.78672  0.29694  1
 O  O3  1  0.26037  0.26037  0.93503  1
 O  O4  1  0.22291  0.22290  0.54644  1
 O  O5  1  0.77709  0.77710  0.45356  1
 O  O6  1  0.73963  0.73963  0.06497  1
 O  O7  1  0.21328  0.72232  0.70306  1
 O  O8  1  0.72232  0.21328  0.70306  1
