CIF file written using JARVIS-Tools package.
data_MgGe3
_symmetry_space_group_name_H-M  'Imm2'
_cell_length_a       5.96416
_cell_length_b       5.96416
_cell_length_c       5.96415
_cell_angle_alpha    143.568
_cell_angle_beta     139.707
_cell_angle_gamma    55.4372

_symmetry_Int_Tables_number  44
_chemical_formula_structural  MgGe3
_chemical_formula_sum  MgGe3
_cell_volume  80.88145075637243
_cell_formula_units_Z  1
loop_
  _symmetry_equiv_pos_site_id
 _symmetry_equiv_pos_as_xyz
 1  'x, y, z'
loop_
 _atom_site_type_symbol
 _atom_site_label
 _atom_site_symmetry_multiplicity
 _atom_site_fract_x
 _atom_site_fract_y
 _atom_site_fract_z
 _atom_site_fract_occupancy
 Ge  Ge1  1  0.73101  0.77393  0.95708  1
 Ge  Ge2  1  0.18314  0.22607  0.95708  1
 Ge  Ge3  1  0.70530  -0.00000  0.70530  1
 Mg  Mg1  1  0.21388  0.50000  0.71388  1
