CIF file written using JARVIS-Tools package.
data_Sr2MgH6
_symmetry_space_group_name_H-M  'P-3m1'
_cell_length_a       5.47443
_cell_length_b       5.47443
_cell_length_c       4.18985
_cell_angle_alpha    89.9999
_cell_angle_beta     90.0002
_cell_angle_gamma    120

_symmetry_Int_Tables_number  164
_chemical_formula_structural  Sr2MgH6
_chemical_formula_sum  Sr2MgH6
_cell_volume  108.74438256409512
_cell_formula_units_Z  1
loop_
  _symmetry_equiv_pos_site_id
 _symmetry_equiv_pos_as_xyz
 1  'x, y, z'
loop_
 _atom_site_type_symbol
 _atom_site_label
 _atom_site_symmetry_multiplicity
 _atom_site_fract_x
 _atom_site_fract_y
 _atom_site_fract_z
 _atom_site_fract_occupancy
 H  H1  1  0.82323  0.64646  0.76359  1
 H  H2  1  0.82323  0.17677  0.76359  1
 H  H3  1  0.35354  0.17677  0.76358  1
 H  H4  1  0.17677  0.35354  0.23641  1
 H  H5  1  0.17677  0.82323  0.23641  1
 H  H6  1  0.64646  0.82323  0.23642  1
 Mg  Mg1  1  0.00000  0.00000  0.00000  1
 Sr  Sr1  1  0.66667  0.33333  0.26383  1
 Sr  Sr2  1  0.33333  0.66667  0.73617  1
