CIF file written using JARVIS-Tools package.
data_Mg6NbNi
_symmetry_space_group_name_H-M  'Amm2'
_cell_length_a       6.24777
_cell_length_b       5.81216
_cell_length_c       4.76356
_cell_angle_alpha    90
_cell_angle_beta     90
_cell_angle_gamma    117.719

_symmetry_Int_Tables_number  38
_chemical_formula_structural  Mg6NbNi
_chemical_formula_sum  Mg6NbNi
_cell_volume  153.12796864623374
_cell_formula_units_Z  1
loop_
  _symmetry_equiv_pos_site_id
 _symmetry_equiv_pos_as_xyz
 1  'x, y, z'
loop_
 _atom_site_type_symbol
 _atom_site_label
 _atom_site_symmetry_multiplicity
 _atom_site_fract_x
 _atom_site_fract_y
 _atom_site_fract_z
 _atom_site_fract_occupancy
 Mg  Mg1  1  0.64091  0.32182  0.25000  1
 Mg  Mg2  1  0.64091  0.81908  0.25000  1
 Mg  Mg3  1  0.33307  0.16455  0.75000  1
 Mg  Mg4  1  0.33307  0.66853  0.75000  1
 Mg  Mg5  1  0.88752  0.19376  0.75000  1
 Mg  Mg6  1  0.84347  0.67174  0.75000  1
 Nb  Nb1  1  0.13983  0.81992  0.25000  1
 Ni  Ni1  1  0.18121  0.34061  0.25000  1
