CIF file written using JARVIS-Tools package.
data_Rb8Fe2O7
_symmetry_space_group_name_H-M  'P2_1/c'
_cell_length_a       6.88386
_cell_length_b       6.98273
_cell_length_c       17.4726
_cell_angle_alpha    90
_cell_angle_beta     90
_cell_angle_gamma    118.932

_symmetry_Int_Tables_number  14
_chemical_formula_structural  Rb8Fe2O7
_chemical_formula_sum  Rb6Fe4O4
_cell_volume  735.0520822780677
_cell_formula_units_Z  2
loop_
  _symmetry_equiv_pos_site_id
 _symmetry_equiv_pos_as_xyz
 1  'x, y, z'
loop_
 _atom_site_type_symbol
 _atom_site_label
 _atom_site_symmetry_multiplicity
 _atom_site_fract_x
 _atom_site_fract_y
 _atom_site_fract_z
 _atom_site_fract_occupancy
 Fe  Fe1  1  0.50208  0.14643  0.09749  1
 Fe  Fe2  1  0.99792  0.85357  0.59749  1
 Fe  Fe3  1  0.49792  0.85357  0.90251  1
 Fe  Fe4  1  0.00208  0.14643  0.40251  1
 O  O1  1  0.00738  0.96227  0.32315  1
 O  O2  1  0.73966  0.17046  0.39374  1
 O  O3  1  0.50000  -0.00000  0.00000  1
 O  O4  1  0.26073  0.42413  0.39969  1
 O  O5  1  0.23966  0.17046  0.10626  1
 O  O6  1  0.26034  0.82954  0.60626  1
 O  O7  1  0.49262  0.03773  0.82315  1
 O  O8  1  0.23927  0.57587  0.89969  1
 O  O9  1  0.76073  0.42413  0.10031  1
 O  O10  1  0.73927  0.57587  0.60031  1
 O  O11  1  0.99262  0.03773  0.67685  1
 O  O12  1  0.00000  0.00000  0.50000  1
 O  O13  1  0.76034  0.82954  0.89374  1
 O  O14  1  0.50738  0.96227  0.17685  1
 Rb  Rb1  1  0.99530  0.64177  0.41935  1
 Rb  Rb2  1  0.04562  0.75545  0.78758  1
 Rb  Rb3  1  0.95270  0.21541  0.80965  1
 Rb  Rb4  1  0.49530  0.64177  0.08065  1
 Rb  Rb5  1  0.54254  0.77242  0.50509  1
 Rb  Rb6  1  0.04254  0.77242  0.99491  1
 Rb  Rb7  1  0.50470  0.35823  0.91935  1
 Rb  Rb8  1  0.95746  0.22758  0.00509  1
 Rb  Rb9  1  0.45746  0.22758  0.49491  1
 Rb  Rb10  1  0.45270  0.21541  0.69035  1
 Rb  Rb11  1  0.00470  0.35823  0.58065  1
 Rb  Rb12  1  0.54730  0.78459  0.30965  1
 Rb  Rb13  1  0.54562  0.75545  0.71242  1
 Rb  Rb14  1  0.95438  0.24455  0.21242  1
 Rb  Rb15  1  0.04730  0.78459  0.19035  1
 Rb  Rb16  1  0.45438  0.24455  0.28758  1
