CIF file written using JARVIS-Tools package.
data_BeCuSb2
_symmetry_space_group_name_H-M  'P4mm'
_cell_length_a       3.2805
_cell_length_b       3.2805
_cell_length_c       7.67189
_cell_angle_alpha    90
_cell_angle_beta     90
_cell_angle_gamma    90

_symmetry_Int_Tables_number  99
_chemical_formula_structural  BeCuSb2
_chemical_formula_sum  BeCuSb2
_cell_volume  82.56257464648957
_cell_formula_units_Z  1
loop_
  _symmetry_equiv_pos_site_id
 _symmetry_equiv_pos_as_xyz
 1  'x, y, z'
loop_
 _atom_site_type_symbol
 _atom_site_label
 _atom_site_symmetry_multiplicity
 _atom_site_fract_x
 _atom_site_fract_y
 _atom_site_fract_z
 _atom_site_fract_occupancy
 Be  Be1  1  0.00000  0.00000  0.56537  1
 Cu  Cu1  1  0.50000  0.50000  0.68541  1
 Sb  Sb1  1  0.00000  0.00000  0.90097  1
 Sb  Sb2  1  0.50000  0.50000  0.34825  1
