CIF file written using JARVIS-Tools package.
data_Nd2WO6
_symmetry_space_group_name_H-M  'P2_12_12_1'
_cell_length_a       5.41796
_cell_length_b       9.35675
_cell_length_c       10.2406
_cell_angle_alpha    90
_cell_angle_beta     90
_cell_angle_gamma    90

_symmetry_Int_Tables_number  19
_chemical_formula_structural  Nd2WO6
_chemical_formula_sum  Nd8W4O24
_cell_volume  519.1399852567023
_cell_formula_units_Z  4
loop_
  _symmetry_equiv_pos_site_id
 _symmetry_equiv_pos_as_xyz
 1  'x, y, z'
loop_
 _atom_site_type_symbol
 _atom_site_label
 _atom_site_symmetry_multiplicity
 _atom_site_fract_x
 _atom_site_fract_y
 _atom_site_fract_z
 _atom_site_fract_occupancy
 Nd  Nd1  1  0.52573  0.10412  0.96303  1
 Nd  Nd2  1  0.47427  0.60412  0.53697  1
 Nd  Nd3  1  0.97427  0.89588  0.46303  1
 Nd  Nd4  1  0.53015  0.21894  0.36899  1
 Nd  Nd5  1  0.03015  0.28106  0.63101  1
 Nd  Nd6  1  0.46985  0.71894  0.13101  1
 Nd  Nd7  1  0.96985  0.78106  0.86899  1
 Nd  Nd8  1  0.02573  0.39588  0.03697  1
 O  O1  1  0.72052  0.11054  0.56471  1
 O  O2  1  0.22052  0.38946  0.43529  1
 O  O3  1  0.27948  0.61054  0.93529  1
 O  O4  1  0.82830  0.04954  0.28626  1
 O  O5  1  0.77948  0.88946  0.06471  1
 O  O6  1  0.18730  0.86356  0.26061  1
 O  O7  1  0.43426  0.35010  0.97608  1
 O  O8  1  0.93426  0.14990  0.02392  1
 O  O9  1  0.25329  0.90990  0.00976  1
 O  O10  1  0.68730  0.63644  0.73939  1
 O  O11  1  0.81270  0.36356  0.23939  1
 O  O12  1  0.06574  0.64990  0.47608  1
 O  O13  1  0.75329  0.59010  0.99024  1
 O  O14  1  0.17170  0.54954  0.21374  1
 O  O15  1  0.31270  0.13644  0.76061  1
 O  O16  1  0.24671  0.09010  0.50976  1
 O  O17  1  0.56574  0.85010  0.52392  1
 O  O18  1  0.67170  0.95046  0.78626  1
 O  O19  1  0.30812  0.13670  0.17849  1
 O  O20  1  0.80812  0.36330  0.82151  1
 O  O21  1  0.69188  0.63670  0.32151  1
 O  O22  1  0.19188  0.86330  0.67849  1
 O  O23  1  0.74671  0.40990  0.49024  1
 O  O24  1  0.32830  0.45046  0.71374  1
 W  W1  1  0.54276  0.49615  0.85116  1
 W  W2  1  0.95724  0.50385  0.35116  1
 W  W3  1  0.45724  0.99615  0.64884  1
 W  W4  1  0.04276  0.00385  0.14884  1
