CIF file written using JARVIS-Tools package.
data_SrTaNO2
_symmetry_space_group_name_H-M  'I4cm'
_cell_length_a       5.80975
_cell_length_b       5.80978
_cell_length_c       5.8098
_cell_angle_alpha    86.1651
_cell_angle_beta     122.24
_cell_angle_gamma    122.239

_symmetry_Int_Tables_number  108
_chemical_formula_structural  SrTaNO2
_chemical_formula_sum  Sr2Ta2N2O4
_cell_volume  133.64171442873464
_cell_formula_units_Z  2
loop_
  _symmetry_equiv_pos_site_id
 _symmetry_equiv_pos_as_xyz
 1  'x, y, z'
loop_
 _atom_site_type_symbol
 _atom_site_label
 _atom_site_symmetry_multiplicity
 _atom_site_fract_x
 _atom_site_fract_y
 _atom_site_fract_z
 _atom_site_fract_occupancy
 N  N1  1  -0.00001  0.24042  0.24040  1
 N  N2  1  0.00002  0.74042  0.74043  1
 O  O1  1  0.10246  0.29475  0.79476  1
 O  O2  1  0.50000  0.79475  0.69230  1
 O  O3  1  0.89753  0.69231  0.19231  1
 O  O4  1  0.50000  0.19232  0.29477  1
 Sr  Sr1  1  0.49999  0.25552  0.75549  1
 Sr  Sr2  1  0.50002  0.75551  0.25552  1
 Ta  Ta1  1  -0.00001  0.01701  0.01701  1
 Ta  Ta2  1  -0.00000  0.51701  0.51702  1
