CIF file written using JARVIS-Tools package.
data_FeCoBO4
_symmetry_space_group_name_H-M  'Pnma'
_cell_length_a       2.94106
_cell_length_b       8.89582
_cell_length_c       9.16192
_cell_angle_alpha    90
_cell_angle_beta     90
_cell_angle_gamma    90

_symmetry_Int_Tables_number  62
_chemical_formula_structural  FeCoBO4
_chemical_formula_sum  Fe4Co4B4O6
_cell_volume  239.70480723017454
_cell_formula_units_Z  4
loop_
  _symmetry_equiv_pos_site_id
 _symmetry_equiv_pos_as_xyz
 1  'x, y, z'
loop_
 _atom_site_type_symbol
 _atom_site_label
 _atom_site_symmetry_multiplicity
 _atom_site_fract_x
 _atom_site_fract_y
 _atom_site_fract_z
 _atom_site_fract_occupancy
 B  B1  1  0.75000  0.84259  0.38013  1
 B  B2  1  0.75000  0.34259  0.11987  1
 B  B3  1  0.25000  0.65741  0.88013  1
 B  B4  1  0.25000  0.15741  0.61987  1
 Co  Co1  1  0.75000  0.38819  0.79625  1
 Co  Co2  1  0.25000  0.61181  0.20375  1
 Co  Co3  1  0.75000  0.88819  0.70375  1
 Co  Co4  1  0.25000  0.11181  0.29625  1
 Fe  Fe1  1  0.75000  0.38042  0.43437  1
 Fe  Fe2  1  0.75000  0.88042  0.06563  1
 Fe  Fe3  1  0.25000  0.61958  0.56563  1
 Fe  Fe4  1  0.25000  0.11958  0.93437  1
 O  O1  1  0.25000  0.73998  0.75031  1
 O  O2  1  0.75000  0.49544  0.12743  1
 O  O3  1  0.75000  0.99099  0.88588  1
 O  O4  1  0.75000  0.99544  0.37257  1
 O  O5  1  0.25000  0.00456  0.62743  1
 O  O6  1  0.75000  0.26002  0.24969  1
 O  O7  1  0.25000  0.50456  0.87257  1
 O  O8  1  0.75000  0.49099  0.61412  1
 O  O9  1  0.75000  0.26781  0.98699  1
 O  O10  1  0.25000  0.73219  0.01301  1
 O  O11  1  0.75000  0.76781  0.51301  1
 O  O12  1  0.25000  0.23219  0.48699  1
 O  O13  1  0.75000  0.76002  0.25031  1
 O  O14  1  0.25000  0.50901  0.38588  1
 O  O15  1  0.25000  0.23998  0.74969  1
 O  O16  1  0.25000  0.00901  0.11412  1
