CIF file written using JARVIS-Tools package.
data_IrBr3
_symmetry_space_group_name_H-M  'C2/m'
_cell_length_a       6.41309
_cell_length_b       6.41659
_cell_length_c       6.33125
_cell_angle_alpha    80.8661
_cell_angle_beta     71.4787
_cell_angle_gamma    60.018

_symmetry_Int_Tables_number  12
_chemical_formula_structural  IrBr3
_chemical_formula_sum  Ir2Br6
_cell_volume  213.98012721572726
_cell_formula_units_Z  2
loop_
  _symmetry_equiv_pos_site_id
 _symmetry_equiv_pos_as_xyz
 1  'x, y, z'
loop_
 _atom_site_type_symbol
 _atom_site_label
 _atom_site_symmetry_multiplicity
 _atom_site_fract_x
 _atom_site_fract_y
 _atom_site_fract_z
 _atom_site_fract_occupancy
 Br  Br1  1  0.57251  0.34913  0.76747  1
 Br  Br2  1  0.07836  0.34913  0.23253  1
 Br  Br3  1  0.77638  -0.00000  0.23455  1
 Br  Br4  1  0.22362  0.00000  0.76545  1
 Br  Br5  1  0.92164  0.65087  0.76747  1
 Br  Br6  1  0.42749  0.65087  0.23253  1
 Ir  Ir1  1  0.83342  0.33317  -0.00000  1
 Ir  Ir2  1  0.16658  0.66683  0.00000  1
