CIF file written using JARVIS-Tools package.
data_Ag3O4
_symmetry_space_group_name_H-M  'P2_1/c'
_cell_length_a       3.63166
_cell_length_b       5.70811
_cell_length_c       9.2947
_cell_angle_alpha    90
_cell_angle_beta     90
_cell_angle_gamma    105.014

_symmetry_Int_Tables_number  14
_chemical_formula_structural  Ag3O4
_chemical_formula_sum  Ag6O8
_cell_volume  186.10050288464936
_cell_formula_units_Z  2
loop_
  _symmetry_equiv_pos_site_id
 _symmetry_equiv_pos_as_xyz
 1  'x, y, z'
loop_
 _atom_site_type_symbol
 _atom_site_label
 _atom_site_symmetry_multiplicity
 _atom_site_fract_x
 _atom_site_fract_y
 _atom_site_fract_z
 _atom_site_fract_occupancy
 Ag  Ag1  1  0.28651  0.54868  0.85833  1
 Ag  Ag2  1  0.71349  0.95132  0.35833  1
 Ag  Ag3  1  0.71349  0.45132  0.14167  1
 Ag  Ag4  1  0.28651  0.04868  0.64167  1
 Ag  Ag5  1  -0.00000  0.50000  0.50000  1
 Ag  Ag6  1  0.00000  0.00000  0.00000  1
 O  O1  1  0.04288  0.32884  0.69099  1
 O  O2  1  0.95712  0.17116  0.19099  1
 O  O3  1  0.95712  0.67116  0.30901  1
 O  O4  1  0.04288  0.82884  0.80901  1
 O  O5  1  0.47863  0.27279  0.95405  1
 O  O6  1  0.52137  0.22721  0.45405  1
 O  O7  1  0.47863  0.77279  0.54595  1
 O  O8  1  0.52137  0.72721  0.04595  1
