CIF file written using JARVIS-Tools package.
data_BeReW
_symmetry_space_group_name_H-M  'I4mm'
_cell_length_a       5.58001
_cell_length_b       5.58001
_cell_length_c       5.58001
_cell_angle_alpha    151.495
_cell_angle_beta     151.495
_cell_angle_gamma    40.7505

_symmetry_Int_Tables_number  107
_chemical_formula_structural  BeReW
_chemical_formula_sum  BeReW
_cell_volume  39.48689708714907
_cell_formula_units_Z  1
loop_
  _symmetry_equiv_pos_site_id
 _symmetry_equiv_pos_as_xyz
 1  'x, y, z'
loop_
 _atom_site_type_symbol
 _atom_site_label
 _atom_site_symmetry_multiplicity
 _atom_site_fract_x
 _atom_site_fract_y
 _atom_site_fract_z
 _atom_site_fract_occupancy
 Be  Be1  1  0.99532  0.99532  0.00000  1
 Re  Re1  1  0.35436  0.35436  0.00000  1
 W  W1  1  0.65032  0.65032  -0.00000  1
