CIF file written using JARVIS-Tools package.
data_BeSb2Cl
_symmetry_space_group_name_H-M  'P4mm'
_cell_length_a       3.4473
_cell_length_b       3.4473
_cell_length_c       8.65088
_cell_angle_alpha    90
_cell_angle_beta     90
_cell_angle_gamma    90

_symmetry_Int_Tables_number  99
_chemical_formula_structural  BeSb2Cl
_chemical_formula_sum  BeSb2Cl
_cell_volume  102.80589237252482
_cell_formula_units_Z  1
loop_
  _symmetry_equiv_pos_site_id
 _symmetry_equiv_pos_as_xyz
 1  'x, y, z'
loop_
 _atom_site_type_symbol
 _atom_site_label
 _atom_site_symmetry_multiplicity
 _atom_site_fract_x
 _atom_site_fract_y
 _atom_site_fract_z
 _atom_site_fract_occupancy
 Be  Be1  1  0.00000  0.00000  0.33075  1
 Cl  Cl1  1  0.50000  0.50000  0.69833  1
 Sb  Sb1  1  0.00000  0.00000  0.05005  1
 Sb  Sb2  1  0.50000  0.50000  0.42087  1
