CIF file written using JARVIS-Tools package.
data_BaAgSF
_symmetry_space_group_name_H-M  'P4/nmm'
_cell_length_a       4.26783
_cell_length_b       4.26783
_cell_length_c       9.33902
_cell_angle_alpha    90
_cell_angle_beta     90
_cell_angle_gamma    90

_symmetry_Int_Tables_number  129
_chemical_formula_structural  BaAgSF
_chemical_formula_sum  Ba2Ag2S2F2
_cell_volume  170.1044524300126
_cell_formula_units_Z  2
loop_
  _symmetry_equiv_pos_site_id
 _symmetry_equiv_pos_as_xyz
 1  'x, y, z'
loop_
 _atom_site_type_symbol
 _atom_site_label
 _atom_site_symmetry_multiplicity
 _atom_site_fract_x
 _atom_site_fract_y
 _atom_site_fract_z
 _atom_site_fract_occupancy
 Ag  Ag1  1  0.25000  0.75000  0.50000  1
 Ag  Ag2  1  0.75000  0.25000  0.50000  1
 Ba  Ba1  1  0.75000  0.75000  0.83157  1
 Ba  Ba2  1  0.25000  0.25000  0.16843  1
 F  F1  1  0.25000  0.75000  0.00000  1
 F  F2  1  0.75000  0.25000  0.00000  1
 S  S1  1  0.75000  0.75000  0.32241  1
 S  S2  1  0.25000  0.25000  0.67759  1
