data_image0
_chemical_formula_structural       Na3P3Sr3
_chemical_formula_sum              "Na3 P3 Sr3"
_cell_length_a       7.65976
_cell_length_b       7.65976
_cell_length_c       4.4781
_cell_angle_alpha    90
_cell_angle_beta     90
_cell_angle_gamma    120.001

_space_group_name_H-M_alt    "P 1"
_space_group_IT_number       1

loop_
  _space_group_symop_operation_xyz
  'x, y, z'

loop_
  _atom_site_type_symbol
  _atom_site_label
  _atom_site_symmetry_multiplicity
  _atom_site_fract_x
  _atom_site_fract_y
  _atom_site_fract_z
  _atom_site_occupancy
  Na  Na1       1.0  0.75800  1.00000  0.00000  1.0000
  Na  Na2       1.0  0.24200  0.24200  0.00000  1.0000
  Na  Na3       1.0  0.00000  0.75800  0.00000  1.0000
  P   P1        1.0  0.66700  0.33300  0.00000  1.0000
  P   P2        1.0  0.33300  0.66700  0.00000  1.0000
  P   P3        1.0  0.00000  0.00000  0.50000  1.0000
  Sr  Sr1       1.0  0.41600  1.00000  0.50000  1.0000
  Sr  Sr2       1.0  0.00000  0.41600  0.50000  1.0000
  Sr  Sr3       1.0  0.58400  0.58400  0.50000  1.0000
