CIF file written using JARVIS-Tools package.
data_Li2GePbS4
_symmetry_space_group_name_H-M  'I-42m'
_cell_length_a       6.07457
_cell_length_b       6.07456
_cell_length_c       6.07456
_cell_angle_alpha    98.7109
_cell_angle_beta     115.105
_cell_angle_gamma    115.105

_symmetry_Int_Tables_number  121
_chemical_formula_structural  Li2GePbS4
_chemical_formula_sum  Li2GePbS4
_cell_volume  168.11799615360147
_cell_formula_units_Z  1
loop_
  _symmetry_equiv_pos_site_id
 _symmetry_equiv_pos_as_xyz
 1  'x, y, z'
loop_
 _atom_site_type_symbol
 _atom_site_label
 _atom_site_symmetry_multiplicity
 _atom_site_fract_x
 _atom_site_fract_y
 _atom_site_fract_z
 _atom_site_fract_occupancy
 Ge  Ge1  1  0.00000  0.50000  0.50000  1
 Li  Li1  1  0.50000  0.25000  0.75000  1
 Li  Li2  1  0.50000  0.75000  0.25000  1
 Pb  Pb1  1  0.00000  0.00000  0.00000  1
 S  S1  1  0.60177  0.46318  0.46318  1
 S  S2  1  0.00000  0.53682  0.13859  1
 S  S3  1  -0.00000  0.13859  0.53682  1
 S  S4  1  0.39823  0.86141  0.86141  1
