CIF file written using JARVIS-Tools package.
data_CuMoF6
_symmetry_space_group_name_H-M  'P-1'
_cell_length_a       5.02143
_cell_length_b       5.0226
_cell_length_c       5.54159
_cell_angle_alpha    63.0847
_cell_angle_beta     89.9556
_cell_angle_gamma    60.0902

_symmetry_Int_Tables_number  2
_chemical_formula_structural  CuMoF6
_chemical_formula_sum  CuMoF6
_cell_volume  103.3482328250193
_cell_formula_units_Z  1
loop_
  _symmetry_equiv_pos_site_id
 _symmetry_equiv_pos_as_xyz
 1  'x, y, z'
loop_
 _atom_site_type_symbol
 _atom_site_label
 _atom_site_symmetry_multiplicity
 _atom_site_fract_x
 _atom_site_fract_y
 _atom_site_fract_z
 _atom_site_fract_occupancy
 Cu  Cu1  1  0.00000  0.00000  0.00000  1
 F  F1  1  0.73716  0.84972  0.26106  1
 F  F2  1  0.26284  0.15028  0.73894  1
 F  F3  1  0.58659  0.52487  0.73873  1
 F  F4  1  0.41341  0.47513  0.26127  1
 F  F5  1  0.11159  0.15116  0.26151  1
 F  F6  1  0.88841  0.84884  0.73849  1
 Mo  Mo1  1  0.50000  0.00000  0.50000  1
