CIF file written using JARVIS-Tools package.
data_BaMg6Al
_symmetry_space_group_name_H-M  'Amm2'
_cell_length_a       6.7331
_cell_length_b       6.73309
_cell_length_c       4.97852
_cell_angle_alpha    90
_cell_angle_beta     90
_cell_angle_gamma    106.986

_symmetry_Int_Tables_number  38
_chemical_formula_structural  BaMg6Al
_chemical_formula_sum  BaMg6Al
_cell_volume  215.85412269634926
_cell_formula_units_Z  1
loop_
  _symmetry_equiv_pos_site_id
 _symmetry_equiv_pos_as_xyz
 1  'x, y, z'
loop_
 _atom_site_type_symbol
 _atom_site_label
 _atom_site_symmetry_multiplicity
 _atom_site_fract_x
 _atom_site_fract_y
 _atom_site_fract_z
 _atom_site_fract_occupancy
 Al  Al1  1  0.16911  0.33089  0.25000  1
 Ba  Ba1  1  0.38287  0.11713  0.75000  1
 Mg  Mg1  1  0.09988  0.78781  0.25000  1
 Mg  Mg2  1  0.71219  0.40012  0.25000  1
 Mg  Mg3  1  0.63162  0.86838  0.25000  1
 Mg  Mg4  1  0.29011  0.59319  0.75000  1
 Mg  Mg5  1  0.90681  0.20989  0.75000  1
 Mg  Mg6  1  0.80740  0.69260  0.75000  1
