CIF file written using JARVIS-Tools package.
data_Rb2Te
_symmetry_space_group_name_H-M  'Pnma'
_cell_length_a       5.55297
_cell_length_b       8.88673
_cell_length_c       10.9772
_cell_angle_alpha    90
_cell_angle_beta     90
_cell_angle_gamma    90

_symmetry_Int_Tables_number  62
_chemical_formula_structural  Rb2Te
_chemical_formula_sum  Rb8Te4
_cell_volume  541.699915408529
_cell_formula_units_Z  4
loop_
  _symmetry_equiv_pos_site_id
 _symmetry_equiv_pos_as_xyz
 1  'x, y, z'
loop_
 _atom_site_type_symbol
 _atom_site_label
 _atom_site_symmetry_multiplicity
 _atom_site_fract_x
 _atom_site_fract_y
 _atom_site_fract_z
 _atom_site_fract_occupancy
 Rb  Rb1  1  0.25000  0.03092  0.17938  1
 Rb  Rb2  1  0.75000  0.96908  0.82062  1
 Rb  Rb3  1  0.75000  0.34718  0.07100  1
 Rb  Rb4  1  0.25000  0.15282  0.57100  1
 Rb  Rb5  1  0.25000  0.65282  0.92900  1
 Rb  Rb6  1  0.25000  0.53092  0.32062  1
 Rb  Rb7  1  0.75000  0.84718  0.42900  1
 Rb  Rb8  1  0.75000  0.46908  0.67938  1
 Te  Te1  1  0.25000  0.24654  0.88490  1
 Te  Te2  1  0.75000  0.25346  0.38490  1
 Te  Te3  1  0.25000  0.74654  0.61510  1
 Te  Te4  1  0.75000  0.75346  0.11510  1
