CIF file written using JARVIS-Tools package.
data_Mg6GaW
_symmetry_space_group_name_H-M  'Amm2'
_cell_length_a       6.10028
_cell_length_b       5.83445
_cell_length_c       4.93574
_cell_angle_alpha    90
_cell_angle_beta     90
_cell_angle_gamma    118.569

_symmetry_Int_Tables_number  38
_chemical_formula_structural  Mg6GaW
_chemical_formula_sum  Mg6GaW
_cell_volume  154.2826672215924
_cell_formula_units_Z  1
loop_
  _symmetry_equiv_pos_site_id
 _symmetry_equiv_pos_as_xyz
 1  'x, y, z'
loop_
 _atom_site_type_symbol
 _atom_site_label
 _atom_site_symmetry_multiplicity
 _atom_site_fract_x
 _atom_site_fract_y
 _atom_site_fract_z
 _atom_site_fract_occupancy
 Ga  Ga1  1  0.16001  0.83001  0.25000  1
 Mg  Mg1  1  0.65608  0.32705  0.25000  1
 Mg  Mg2  1  0.65608  0.82903  0.25000  1
 Mg  Mg3  1  0.33403  0.17817  0.75000  1
 Mg  Mg4  1  0.33403  0.65586  0.75000  1
 Mg  Mg5  1  0.85582  0.17791  0.75000  1
 Mg  Mg6  1  0.85108  0.67554  0.75000  1
 W  W1  1  0.15287  0.32644  0.25000  1
