CIF file written using JARVIS-Tools package.
data_Mg6CoCu
_symmetry_space_group_name_H-M  'Amm2'
_cell_length_a       5.92405
_cell_length_b       5.92405
_cell_length_c       4.31393
_cell_angle_alpha    90
_cell_angle_beta     90
_cell_angle_gamma    102.824

_symmetry_Int_Tables_number  38
_chemical_formula_structural  Mg6CoCu
_chemical_formula_sum  Mg6CoCu
_cell_volume  147.61851494072175
_cell_formula_units_Z  1
loop_
  _symmetry_equiv_pos_site_id
 _symmetry_equiv_pos_as_xyz
 1  'x, y, z'
loop_
 _atom_site_type_symbol
 _atom_site_label
 _atom_site_symmetry_multiplicity
 _atom_site_fract_x
 _atom_site_fract_y
 _atom_site_fract_z
 _atom_site_fract_occupancy
 Co  Co1  1  0.44118  0.05882  0.75000  1
 Cu  Cu1  1  0.06422  0.43578  0.25000  1
 Mg  Mg1  1  0.16659  0.93238  0.25000  1
 Mg  Mg2  1  0.56762  0.33341  0.25000  1
 Mg  Mg3  1  0.62840  0.87160  0.25000  1
 Mg  Mg4  1  0.34204  0.57532  0.75000  1
 Mg  Mg5  1  0.92468  0.15796  0.75000  1
 Mg  Mg6  1  0.86528  0.63472  0.75000  1
