CIF file written using JARVIS-Tools package.
data_Li2CrFeO4
_symmetry_space_group_name_H-M  'C2/m'
_cell_length_a       2.86658
_cell_length_b       5.03969
_cell_length_c       4.92688
_cell_angle_alpha    80.8144
_cell_angle_beta     90.002
_cell_angle_gamma    106.523

_symmetry_Int_Tables_number  12
_chemical_formula_structural  Li2CrFeO4
_chemical_formula_sum  Li2CrFeO4
_cell_volume  67.2851102290667
_cell_formula_units_Z  1
loop_
  _symmetry_equiv_pos_site_id
 _symmetry_equiv_pos_as_xyz
 1  'x, y, z'
loop_
 _atom_site_type_symbol
 _atom_site_label
 _atom_site_symmetry_multiplicity
 _atom_site_fract_x
 _atom_site_fract_y
 _atom_site_fract_z
 _atom_site_fract_occupancy
 Cr  Cr1  1  0.75000  0.50000  0.75000  1
 Fe  Fe1  1  0.25000  0.50000  0.25000  1
 Li  Li1  1  0.50285  0.00570  0.49365  1
 Li  Li2  1  -0.00285  -0.00570  0.00635  1
 O  O1  1  0.86330  0.72660  0.37525  1
 O  O2  1  0.63670  0.27340  0.12475  1
 O  O3  1  0.36453  0.72905  0.87908  1
 O  O4  1  0.13547  0.27095  0.62092  1
