CIF file written using JARVIS-Tools package.
data_KMg6Bi
_symmetry_space_group_name_H-M  'Amm2'
_cell_length_a       7.55656
_cell_length_b       7.55656
_cell_length_c       5.06369
_cell_angle_alpha    90
_cell_angle_beta     90
_cell_angle_gamma    128.668

_symmetry_Int_Tables_number  38
_chemical_formula_structural  KMg6Bi
_chemical_formula_sum  KMg6Bi
_cell_volume  225.75892645894723
_cell_formula_units_Z  1
loop_
  _symmetry_equiv_pos_site_id
 _symmetry_equiv_pos_as_xyz
 1  'x, y, z'
loop_
 _atom_site_type_symbol
 _atom_site_label
 _atom_site_symmetry_multiplicity
 _atom_site_fract_x
 _atom_site_fract_y
 _atom_site_fract_z
 _atom_site_fract_occupancy
 Bi  Bi1  1  0.37411  0.12589  0.75000  1
 K  K1  1  0.20321  0.29679  0.25000  1
 Mg  Mg1  1  0.16008  0.79216  0.25000  1
 Mg  Mg2  1  0.70784  0.33992  0.25000  1
 Mg  Mg3  1  0.63117  0.86883  0.25000  1
 Mg  Mg4  1  0.31215  0.67672  0.75000  1
 Mg  Mg5  1  0.82328  0.18785  0.75000  1
 Mg  Mg6  1  0.78817  0.71183  0.75000  1
