CIF file written using JARVIS-Tools package.
data_TlCuHSO5
_symmetry_space_group_name_H-M  'P2_1/m'
_cell_length_a       8.88659
_cell_length_b       5.87775
_cell_length_c       4.51648
_cell_angle_alpha    90
_cell_angle_beta     96.1565
_cell_angle_gamma    90

_symmetry_Int_Tables_number  11
_chemical_formula_structural  TlCuHSO5
_chemical_formula_sum  Tl2Cu2H2S2O0
_cell_volume  234.54927628849256
_cell_formula_units_Z  2
loop_
  _symmetry_equiv_pos_site_id
 _symmetry_equiv_pos_as_xyz
 1  'x, y, z'
loop_
 _atom_site_type_symbol
 _atom_site_label
 _atom_site_symmetry_multiplicity
 _atom_site_fract_x
 _atom_site_fract_y
 _atom_site_fract_z
 _atom_site_fract_occupancy
 Cu  Cu1  1  0.00000  0.50000  0.00000  1
 Cu  Cu2  1  0.00000  0.00000  0.00000  1
 H  H1  1  0.89289  0.25000  0.58918  1
 H  H2  1  0.10711  0.75000  0.41082  1
 O  O1  1  0.64115  0.75000  0.66080  1
 O  O2  1  0.07895  0.25000  0.29174  1
 O  O3  1  0.10897  0.75000  0.19300  1
 O  O4  1  0.22053  0.45874  0.68975  1
 O  O5  1  0.89103  0.25000  0.80700  1
 O  O6  1  0.77947  0.54126  0.31025  1
 O  O7  1  0.92105  0.75000  0.70826  1
 O  O8  1  0.35885  0.25000  0.33920  1
 O  O9  1  0.77947  0.95874  0.31025  1
 O  O10  1  0.22053  0.04126  0.68975  1
 S  S1  1  0.77267  0.75000  0.48929  1
 S  S2  1  0.22733  0.25000  0.51071  1
 Tl  Tl1  1  0.39513  0.75000  0.11352  1
 Tl  Tl2  1  0.60487  0.25000  0.88648  1
