CIF file written using JARVIS-Tools package.
data_RbLaSiC4N8
_symmetry_space_group_name_H-M  'I-4'
_cell_length_a       6.82105
_cell_length_b       6.88161
_cell_length_c       6.88187
_cell_angle_alpha    75.7847
_cell_angle_beta     60.2895
_cell_angle_gamma    60.2898

_symmetry_Int_Tables_number  82
_chemical_formula_structural  RbLaSiC4N8
_chemical_formula_sum  RbLaSiC4N8
_cell_volume  243.68570141533186
_cell_formula_units_Z  1
loop_
  _symmetry_equiv_pos_site_id
 _symmetry_equiv_pos_as_xyz
 1  'x, y, z'
loop_
 _atom_site_type_symbol
 _atom_site_label
 _atom_site_symmetry_multiplicity
 _atom_site_fract_x
 _atom_site_fract_y
 _atom_site_fract_z
 _atom_site_fract_occupancy
 C  C1  1  0.55846  0.08252  0.54410  1
 C  C2  1  0.89744  0.54409  0.91750  1
 C  C3  1  0.35902  0.45591  0.08251  1
 C  C4  1  0.18508  0.91749  0.45590  1
 La  La1  1  0.75000  0.50000  0.50000  1
 N  N1  1  0.51706  0.38977  0.89811  1
 N  N2  1  0.99456  0.46974  0.72251  1
 N  N3  1  0.28291  0.72252  0.53028  1
 N  N4  1  0.53570  0.27748  0.46972  1
 N  N5  1  0.09320  0.10187  0.38974  1
 N  N6  1  0.58480  0.89813  0.61027  1
 N  N7  1  0.18682  0.53026  0.27749  1
 N  N8  1  0.80494  0.61023  0.10189  1
 Rb  Rb1  1  0.00001  -0.00000  0.00000  1
 Si  Si1  1  0.25000  0.50000  0.50000  1
