CIF file written using JARVIS-Tools package.
data_Mg6CrBi
_symmetry_space_group_name_H-M  'Amm2'
_cell_length_a       6.36762
_cell_length_b       6.36762
_cell_length_c       5.10534
_cell_angle_alpha    90
_cell_angle_beta     90
_cell_angle_gamma    119.551

_symmetry_Int_Tables_number  38
_chemical_formula_structural  Mg6CrBi
_chemical_formula_sum  Mg6CrBi
_cell_volume  180.07696127472295
_cell_formula_units_Z  1
loop_
  _symmetry_equiv_pos_site_id
 _symmetry_equiv_pos_as_xyz
 1  'x, y, z'
loop_
 _atom_site_type_symbol
 _atom_site_label
 _atom_site_symmetry_multiplicity
 _atom_site_fract_x
 _atom_site_fract_y
 _atom_site_fract_z
 _atom_site_fract_occupancy
 Bi  Bi1  1  0.32983  0.17017  0.75000  1
 Cr  Cr1  1  0.16067  0.33933  0.25000  1
 Mg  Mg1  1  0.15891  0.81484  0.25000  1
 Mg  Mg2  1  0.68516  0.34109  0.25000  1
 Mg  Mg3  1  0.66524  0.83476  0.25000  1
 Mg  Mg4  1  0.33051  0.65975  0.75000  1
 Mg  Mg5  1  0.84025  0.16949  0.75000  1
 Mg  Mg6  1  0.82943  0.67057  0.75000  1
