CIF file written using JARVIS-Tools package.
data_MnNbP2O8
_symmetry_space_group_name_H-M  'P2_1/m'
_cell_length_a       4.94584
_cell_length_b       6.05483
_cell_length_c       9.96918
_cell_angle_alpha    90
_cell_angle_beta     92.1365
_cell_angle_gamma    90

_symmetry_Int_Tables_number  11
_chemical_formula_structural  MnNbP2O8
_chemical_formula_sum  Mn2Nb2P4O6
_cell_volume  298.33174311591705
_cell_formula_units_Z  2
loop_
  _symmetry_equiv_pos_site_id
 _symmetry_equiv_pos_as_xyz
 1  'x, y, z'
loop_
 _atom_site_type_symbol
 _atom_site_label
 _atom_site_symmetry_multiplicity
 _atom_site_fract_x
 _atom_site_fract_y
 _atom_site_fract_z
 _atom_site_fract_occupancy
 Mn  Mn1  1  0.90716  0.25000  0.28203  1
 Mn  Mn2  1  0.09284  0.75000  0.71797  1
 Nb  Nb1  1  0.41046  0.75000  0.21833  1
 Nb  Nb2  1  0.58954  0.25000  0.78167  1
 O  O1  1  0.69434  0.75000  0.06616  1
 O  O2  1  0.68892  0.25000  0.10669  1
 O  O3  1  0.25137  0.04575  0.15586  1
 O  O4  1  0.31108  0.75000  0.89331  1
 O  O5  1  0.69668  0.94750  0.33700  1
 O  O6  1  0.69668  0.55250  0.33700  1
 O  O7  1  0.25137  0.45425  0.15586  1
 O  O8  1  0.17501  0.25000  0.43932  1
 O  O9  1  0.82499  0.75000  0.56068  1
 O  O10  1  0.30332  0.05250  0.66300  1
 O  O11  1  0.14958  0.75000  0.37364  1
 O  O12  1  0.30332  0.44750  0.66300  1
 O  O13  1  0.74863  0.54575  0.84414  1
 O  O14  1  0.74863  0.95425  0.84414  1
 O  O15  1  0.85042  0.25000  0.62636  1
 O  O16  1  0.30566  0.25000  0.93384  1
 P  P1  1  0.61532  0.75000  0.91544  1
 P  P2  1  0.14953  0.25000  0.58934  1
 P  P3  1  0.85047  0.75000  0.41066  1
 P  P4  1  0.38468  0.25000  0.08456  1
