CIF file written using JARVIS-Tools package.
data_Sr3MgPtO6
_symmetry_space_group_name_H-M  'R-3c'
_cell_length_a       6.72108
_cell_length_b       6.72108
_cell_length_c       6.72108
_cell_angle_alpha    92.1544
_cell_angle_beta     92.1543
_cell_angle_gamma    92.1544

_symmetry_Int_Tables_number  167
_chemical_formula_structural  Sr3MgPtO6
_chemical_formula_sum  Sr6Mg2Pt2O2
_cell_volume  302.9500653621918
_cell_formula_units_Z  2
loop_
  _symmetry_equiv_pos_site_id
 _symmetry_equiv_pos_as_xyz
 1  'x, y, z'
loop_
 _atom_site_type_symbol
 _atom_site_label
 _atom_site_symmetry_multiplicity
 _atom_site_fract_x
 _atom_site_fract_y
 _atom_site_fract_z
 _atom_site_fract_occupancy
 Mg  Mg1  1  0.75000  0.75000  0.75000  1
 Mg  Mg2  1  0.25000  0.25000  0.25000  1
 O  O1  1  0.09499  0.28946  0.96475  1
 O  O2  1  0.59499  0.46475  0.78946  1
 O  O3  1  0.46475  0.78946  0.59499  1
 O  O4  1  0.03525  0.90501  0.71054  1
 O  O5  1  0.90501  0.71054  0.03525  1
 O  O6  1  0.71054  0.03525  0.90501  1
 O  O7  1  0.21054  0.40501  0.53525  1
 O  O8  1  0.40501  0.53525  0.21054  1
 O  O9  1  0.53525  0.21054  0.40501  1
 O  O10  1  0.28946  0.96475  0.09499  1
 O  O11  1  0.96475  0.09499  0.28946  1
 O  O12  1  0.78946  0.59499  0.46475  1
 Pt  Pt1  1  0.00000  0.00000  0.00000  1
 Pt  Pt2  1  0.50000  0.50000  0.50000  1
 Sr  Sr1  1  0.25000  0.61596  0.88404  1
 Sr  Sr2  1  0.61596  0.88404  0.25000  1
 Sr  Sr3  1  0.11596  0.75000  0.38404  1
 Sr  Sr4  1  0.75000  0.38404  0.11596  1
 Sr  Sr5  1  0.38404  0.11596  0.75000  1
 Sr  Sr6  1  0.88404  0.25000  0.61596  1
