CIF file written using JARVIS-Tools package.
data_FeSnRu2
_symmetry_space_group_name_H-M  'Fm-3m'
_cell_length_a       4.40275
_cell_length_b       4.40282
_cell_length_c       4.40279
_cell_angle_alpha    60.0009
_cell_angle_beta     59.9997
_cell_angle_gamma    60.0004

_symmetry_Int_Tables_number  225
_chemical_formula_structural  FeSnRu2
_chemical_formula_sum  FeSnRu2
_cell_volume  60.3489867125569
_cell_formula_units_Z  1
loop_
  _symmetry_equiv_pos_site_id
 _symmetry_equiv_pos_as_xyz
 1  'x, y, z'
loop_
 _atom_site_type_symbol
 _atom_site_label
 _atom_site_symmetry_multiplicity
 _atom_site_fract_x
 _atom_site_fract_y
 _atom_site_fract_z
 _atom_site_fract_occupancy
 Fe  Fe1  1  0.00000  0.00000  1.00000  1
 Ru  Ru1  1  0.75000  0.75000  0.75000  1
 Ru  Ru2  1  0.25000  0.25000  0.25000  1
 Sn  Sn1  1  0.50000  0.50000  0.50000  1
