CIF file written using JARVIS-Tools package.
data_Li6MnO6
_symmetry_space_group_name_H-M  'R-3'
_cell_length_a       5.38489
_cell_length_b       5.38547
_cell_length_c       5.38551
_cell_angle_alpha    62.796
_cell_angle_beta     62.7951
_cell_angle_gamma    62.7861

_symmetry_Int_Tables_number  148
_chemical_formula_structural  Li6MnO6
_chemical_formula_sum  Li6MnO6
_cell_volume  117.29339767764027
_cell_formula_units_Z  1
loop_
  _symmetry_equiv_pos_site_id
 _symmetry_equiv_pos_as_xyz
 1  'x, y, z'
loop_
 _atom_site_type_symbol
 _atom_site_label
 _atom_site_symmetry_multiplicity
 _atom_site_fract_x
 _atom_site_fract_y
 _atom_site_fract_z
 _atom_site_fract_occupancy
 Li  Li1  1  0.07832  0.71693  0.49537  1
 Li  Li2  1  0.50454  0.92176  0.28308  1
 Li  Li3  1  0.28300  0.50450  0.92166  1
 Li  Li4  1  0.71700  0.49550  0.07834  1
 Li  Li5  1  0.49546  0.07824  0.71692  1
 Li  Li6  1  0.92168  0.28307  0.50463  1
 Mn  Mn1  1  0.00000  0.00000  0.00000  1
 O  O1  1  0.20202  0.90479  0.65093  1
 O  O2  1  0.34911  0.79805  0.09515  1
 O  O3  1  0.09511  0.34909  0.79799  1
 O  O4  1  0.90489  0.65091  0.20201  1
 O  O5  1  0.65089  0.20195  0.90485  1
 O  O6  1  0.79798  0.09521  0.34907  1
