CIF file written using JARVIS-Tools package.
data_Ba2H6Pt
_symmetry_space_group_name_H-M  'Cmce'
_cell_length_a       7.85748
_cell_length_b       7.85748
_cell_length_c       6.01234
_cell_angle_alpha    90
_cell_angle_beta     90
_cell_angle_gamma    135.012

_symmetry_Int_Tables_number  64
_chemical_formula_structural  Ba2H6Pt
_chemical_formula_sum  Ba4H2Pt2
_cell_volume  262.42503112842627
_cell_formula_units_Z  2
loop_
  _symmetry_equiv_pos_site_id
 _symmetry_equiv_pos_as_xyz
 1  'x, y, z'
loop_
 _atom_site_type_symbol
 _atom_site_label
 _atom_site_symmetry_multiplicity
 _atom_site_fract_x
 _atom_site_fract_y
 _atom_site_fract_z
 _atom_site_fract_occupancy
 Ba  Ba1  1  0.14154  0.85846  0.50000  1
 Ba  Ba2  1  0.64154  0.35846  0.00000  1
 Ba  Ba3  1  0.85846  0.14154  0.50000  1
 Ba  Ba4  1  0.35846  0.64154  0.00000  1
 H  H1  1  0.88476  0.11524  0.00000  1
 H  H2  1  -0.00023  0.49977  0.75000  1
 H  H3  1  0.50023  0.00023  0.25000  1
 H  H4  1  0.00023  0.50023  0.25000  1
 H  H5  1  0.49977  -0.00023  0.75000  1
 H  H6  1  0.38476  0.61524  0.50000  1
 H  H7  1  0.11524  0.88476  0.00000  1
 H  H8  1  0.30195  0.30195  0.69801  1
 H  H9  1  0.69805  0.69805  0.30199  1
 H  H10  1  0.19805  0.19805  0.19801  1
 H  H11  1  0.80195  0.80195  0.80199  1
 H  H12  1  0.61524  0.38476  0.50000  1
 Pt  Pt1  1  0.50000  0.50000  0.50000  1
 Pt  Pt2  1  0.00000  0.00000  0.00000  1
