CIF file written using JARVIS-Tools package.
data_Ti5TlSe8
_symmetry_space_group_name_H-M  'C2/m'
_cell_length_a       3.58197
_cell_length_b       9.17999
_cell_length_c       9.58346
_cell_angle_alpha    103.912
_cell_angle_beta     100.771
_cell_angle_gamma    90

_symmetry_Int_Tables_number  12
_chemical_formula_structural  Ti5TlSe8
_chemical_formula_sum  Ti5TlSe8
_cell_volume  300.16172552490985
_cell_formula_units_Z  1
loop_
  _symmetry_equiv_pos_site_id
 _symmetry_equiv_pos_as_xyz
 1  'x, y, z'
loop_
 _atom_site_type_symbol
 _atom_site_label
 _atom_site_symmetry_multiplicity
 _atom_site_fract_x
 _atom_site_fract_y
 _atom_site_fract_z
 _atom_site_fract_occupancy
 Se  Se1  1  0.92675  0.32285  0.85351  1
 Se  Se2  1  0.33941  -0.00028  0.67882  1
 Se  Se3  1  0.66059  0.00028  0.32118  1
 Se  Se4  1  0.74187  0.66248  0.48374  1
 Se  Se5  1  0.25813  0.33752  0.51626  1
 Se  Se6  1  0.41370  0.68179  0.82740  1
 Se  Se7  1  0.58630  0.31821  0.17260  1
 Se  Se8  1  0.07325  0.67715  0.14649  1
 Ti  Ti1  1  0.50000  0.50000  -0.00000  1
 Ti  Ti2  1  0.15327  0.49603  0.30655  1
 Ti  Ti3  1  0.20863  0.84978  0.41726  1
 Ti  Ti4  1  0.79137  0.15022  0.58274  1
 Ti  Ti5  1  0.84673  0.50397  0.69345  1
 Tl  Tl1  1  0.00000  0.00000  0.00000  1
