CIF file written using JARVIS-Tools package.
data_RbMg6Cd
_symmetry_space_group_name_H-M  'Amm2'
_cell_length_a       9.05712
_cell_length_b       6.21655
_cell_length_c       4.97343
_cell_angle_alpha    90
_cell_angle_beta     90
_cell_angle_gamma    110.071

_symmetry_Int_Tables_number  38
_chemical_formula_structural  RbMg6Cd
_chemical_formula_sum  RbMg6Cd
_cell_volume  263.01774040156516
_cell_formula_units_Z  1
loop_
  _symmetry_equiv_pos_site_id
 _symmetry_equiv_pos_as_xyz
 1  'x, y, z'
loop_
 _atom_site_type_symbol
 _atom_site_label
 _atom_site_symmetry_multiplicity
 _atom_site_fract_x
 _atom_site_fract_y
 _atom_site_fract_z
 _atom_site_fract_occupancy
 Cd  Cd1  1  0.34540  0.92270  0.25000  1
 Mg  Mg1  1  0.63976  0.32700  0.25000  1
 Mg  Mg2  1  0.63976  0.81276  0.25000  1
 Mg  Mg3  1  0.39992  0.20417  0.75000  1
 Mg  Mg4  1  0.39992  0.69575  0.75000  1
 Mg  Mg5  1  0.73118  0.11559  0.75000  1
 Mg  Mg6  1  0.76324  0.63162  0.75000  1
 Rb  Rb1  1  0.08083  0.29041  0.25000  1
