CIF file written using JARVIS-Tools package.
data_Ge
_symmetry_space_group_name_H-M  'Fmmm'
_cell_length_a       5.77538
_cell_length_b       5.77538
_cell_length_c       5.82416
_cell_angle_alpha    90
_cell_angle_beta     90
_cell_angle_gamma    125.411

_symmetry_Int_Tables_number  69
_chemical_formula_structural  Ge
_chemical_formula_sum  Ge8
_cell_volume  158.32855075247542
_cell_formula_units_Z  8
loop_
  _symmetry_equiv_pos_site_id
 _symmetry_equiv_pos_as_xyz
 1  'x, y, z'
loop_
 _atom_site_type_symbol
 _atom_site_label
 _atom_site_symmetry_multiplicity
 _atom_site_fract_x
 _atom_site_fract_y
 _atom_site_fract_z
 _atom_site_fract_occupancy
 Ge  Ge1  1  0.21784  0.78216  0.00000  1
 Ge  Ge2  1  0.28216  0.71784  0.50000  1
 Ge  Ge3  1  0.78216  0.21784  0.00000  1
 Ge  Ge4  1  0.71784  0.28216  0.50000  1
 Ge  Ge5  1  0.00001  0.00001  0.27383  1
 Ge  Ge6  1  0.49999  0.49999  0.77383  1
 Ge  Ge7  1  0.50001  0.50001  0.22617  1
 Ge  Ge8  1  0.99999  0.99999  0.72617  1
