CIF file written using JARVIS-Tools package.
data_Rb3Mn2Cl7
_symmetry_space_group_name_H-M  'I4/mmm'
_cell_length_a       4.80141
_cell_length_b       4.80142
_cell_length_c       15.8018
_cell_angle_alpha    98.7385
_cell_angle_beta     98.7385
_cell_angle_gamma    90

_symmetry_Int_Tables_number  139
_chemical_formula_structural  Rb3Mn2Cl7
_chemical_formula_sum  Rb3Mn2Cl7
_cell_volume  355.77999181385246
_cell_formula_units_Z  1
loop_
  _symmetry_equiv_pos_site_id
 _symmetry_equiv_pos_as_xyz
 1  'x, y, z'
loop_
 _atom_site_type_symbol
 _atom_site_label
 _atom_site_symmetry_multiplicity
 _atom_site_fract_x
 _atom_site_fract_y
 _atom_site_fract_z
 _atom_site_fract_occupancy
 Cl  Cl1  1  0.70547  0.70547  0.41094  1
 Cl  Cl2  1  0.11131  0.61131  0.22262  1
 Cl  Cl3  1  0.38869  0.88869  0.77738  1
 Cl  Cl4  1  0.88869  0.38869  0.77738  1
 Cl  Cl5  1  0.29453  0.29453  0.58906  1
 Cl  Cl6  1  0.00000  0.00000  0.00000  1
 Cl  Cl7  1  0.61131  0.11131  0.22262  1
 Mn  Mn1  1  0.37283  0.37283  0.74566  1
 Mn  Mn2  1  0.62717  0.62717  0.25434  1
 Rb  Rb1  1  0.18752  0.18752  0.37503  1
 Rb  Rb2  1  0.81248  0.81248  0.62497  1
 Rb  Rb3  1  0.50000  0.50000  -0.00000  1
