CIF file written using JARVIS-Tools package.
data_ZrGaPt
_symmetry_space_group_name_H-M  'P-62c'
_cell_length_a       7.18404
_cell_length_b       7.18404
_cell_length_c       7.16866
_cell_angle_alpha    90
_cell_angle_beta     90
_cell_angle_gamma    120

_symmetry_Int_Tables_number  190
_chemical_formula_structural  ZrGaPt
_chemical_formula_sum  Zr6Ga6Pt6
_cell_volume  320.41019397838517
_cell_formula_units_Z  6
loop_
  _symmetry_equiv_pos_site_id
 _symmetry_equiv_pos_as_xyz
 1  'x, y, z'
loop_
 _atom_site_type_symbol
 _atom_site_label
 _atom_site_symmetry_multiplicity
 _atom_site_fract_x
 _atom_site_fract_y
 _atom_site_fract_z
 _atom_site_fract_occupancy
 Ga  Ga1  1  0.73246  0.73246  0.50000  1
 Ga  Ga2  1  0.26754  0.00000  0.00000  1
 Ga  Ga3  1  0.00000  0.26754  0.50000  1
 Ga  Ga4  1  0.26754  0.00000  0.50000  1
 Ga  Ga5  1  0.73246  0.73246  0.00000  1
 Ga  Ga6  1  0.00000  0.26754  0.00000  1
 Pt  Pt1  1  0.33333  0.66667  0.46962  1
 Pt  Pt2  1  0.66667  0.33333  0.53038  1
 Pt  Pt3  1  0.00000  0.00000  0.75000  1
 Pt  Pt4  1  0.66667  0.33333  0.96962  1
 Pt  Pt5  1  0.00000  0.00000  0.25000  1
 Pt  Pt6  1  0.33333  0.66667  0.03038  1
 Zr  Zr1  1  0.40804  0.38605  0.25000  1
 Zr  Zr2  1  0.97802  0.59196  0.25000  1
 Zr  Zr3  1  0.61395  0.02198  0.25000  1
 Zr  Zr4  1  0.59196  0.97802  0.75000  1
 Zr  Zr5  1  0.02198  0.61395  0.75000  1
 Zr  Zr6  1  0.38605  0.40804  0.75000  1
