CIF file written using JARVIS-Tools package.
data_ZnCu2SiTe4
_symmetry_space_group_name_H-M  'I-42m'
_cell_length_a       6.04029
_cell_length_b       6.04029
_cell_length_c       7.36501
_cell_angle_alpha    114.209
_cell_angle_beta     114.209
_cell_angle_gamma    90

_symmetry_Int_Tables_number  121
_chemical_formula_structural  ZnCu2SiTe4
_chemical_formula_sum  ZnCu2SiTe4
_cell_volume  218.91292892701097
_cell_formula_units_Z  1
loop_
  _symmetry_equiv_pos_site_id
 _symmetry_equiv_pos_as_xyz
 1  'x, y, z'
loop_
 _atom_site_type_symbol
 _atom_site_label
 _atom_site_symmetry_multiplicity
 _atom_site_fract_x
 _atom_site_fract_y
 _atom_site_fract_z
 _atom_site_fract_occupancy
 Cu  Cu1  1  0.75000  0.25000  0.50000  1
 Cu  Cu2  1  0.25000  0.75000  0.50000  1
 Si  Si1  1  0.50000  0.50000  0.00000  1
 Te  Te1  1  0.87201  0.87201  0.25963  1
 Te  Te2  1  0.38763  0.38763  0.25963  1
 Te  Te3  1  0.12799  0.61237  0.74037  1
 Te  Te4  1  0.61237  0.12799  0.74037  1
 Zn  Zn1  1  0.00000  0.00000  0.00000  1
