CIF file written using JARVIS-Tools package.
data_LiNbZnO4
_symmetry_space_group_name_H-M  'P4_322'
_cell_length_a       6.14007
_cell_length_b       6.14007
_cell_length_c       8.45035
_cell_angle_alpha    90
_cell_angle_beta     90
_cell_angle_gamma    90

_symmetry_Int_Tables_number  95
_chemical_formula_structural  LiNbZnO4
_chemical_formula_sum  Li4Nb4Zn4O6
_cell_volume  318.5822503102835
_cell_formula_units_Z  4
loop_
  _symmetry_equiv_pos_site_id
 _symmetry_equiv_pos_as_xyz
 1  'x, y, z'
loop_
 _atom_site_type_symbol
 _atom_site_label
 _atom_site_symmetry_multiplicity
 _atom_site_fract_x
 _atom_site_fract_y
 _atom_site_fract_z
 _atom_site_fract_occupancy
 Li  Li1  1  0.21255  0.00000  0.25000  1
 Li  Li2  1  0.00000  0.21255  0.00000  1
 Li  Li3  1  0.00000  0.78745  0.50000  1
 Li  Li4  1  0.78745  0.00000  0.75000  1
 Nb  Nb1  1  0.21241  0.50000  0.25000  1
 Nb  Nb2  1  0.78759  0.50000  0.75000  1
 Nb  Nb3  1  0.50000  0.78759  0.50000  1
 Nb  Nb4  1  0.50000  0.21241  0.00000  1
 O  O1  1  0.26051  0.98478  0.50117  1
 O  O2  1  0.73949  0.01522  0.00117  1
 O  O3  1  0.48157  0.26517  0.23519  1
 O  O4  1  0.01522  0.73949  0.24883  1
 O  O5  1  0.51843  0.26517  0.76481  1
 O  O6  1  0.48157  0.73483  0.26481  1
 O  O7  1  0.98478  0.73949  0.75117  1
 O  O8  1  0.26051  0.01522  0.99883  1
 O  O9  1  0.73949  0.98478  0.49883  1
 O  O10  1  0.26517  0.51843  0.48519  1
 O  O11  1  0.26517  0.48157  0.01481  1
 O  O12  1  0.51843  0.73483  0.73519  1
 O  O13  1  0.73483  0.51843  0.51481  1
 O  O14  1  0.73483  0.48157  0.98519  1
 O  O15  1  0.01522  0.26051  0.25117  1
 O  O16  1  0.98478  0.26051  0.74883  1
 Zn  Zn1  1  0.25855  0.25855  0.62500  1
 Zn  Zn2  1  0.25855  0.74145  0.87500  1
 Zn  Zn3  1  0.74145  0.74145  0.12500  1
 Zn  Zn4  1  0.74145  0.25855  0.37500  1
