CIF file written using JARVIS-Tools package.
data_CeMg6Nb
_symmetry_space_group_name_H-M  'Amm2'
_cell_length_a       6.65305
_cell_length_b       5.85605
_cell_length_c       5.1856
_cell_angle_alpha    90
_cell_angle_beta     90
_cell_angle_gamma    116.111

_symmetry_Int_Tables_number  38
_chemical_formula_structural  CeMg6Nb
_chemical_formula_sum  CeMg6Nb
_cell_volume  181.4161768888185
_cell_formula_units_Z  1
loop_
  _symmetry_equiv_pos_site_id
 _symmetry_equiv_pos_as_xyz
 1  'x, y, z'
loop_
 _atom_site_type_symbol
 _atom_site_label
 _atom_site_symmetry_multiplicity
 _atom_site_fract_x
 _atom_site_fract_y
 _atom_site_fract_z
 _atom_site_fract_occupancy
 Ce  Ce1  1  0.14322  0.32161  0.25000  1
 Mg  Mg1  1  0.64899  0.32577  0.25000  1
 Mg  Mg2  1  0.64899  0.82322  0.25000  1
 Mg  Mg3  1  0.34118  0.16390  0.75000  1
 Mg  Mg4  1  0.34118  0.67728  0.75000  1
 Mg  Mg5  1  0.82439  0.16219  0.75000  1
 Mg  Mg6  1  0.88797  0.69398  0.75000  1
 Nb  Nb1  1  0.16409  0.83205  0.25000  1
