CIF file written using JARVIS-Tools package.
data_Ta6Fe16Si7
_symmetry_space_group_name_H-M  'Fm-3m'
_cell_length_a       7.92338
_cell_length_b       7.92338
_cell_length_c       7.92338
_cell_angle_alpha    60
_cell_angle_beta     60
_cell_angle_gamma    60

_symmetry_Int_Tables_number  225
_chemical_formula_structural  Ta6Fe16Si7
_chemical_formula_sum  Ta6Fe6Si7
_cell_volume  351.7353666930063
_cell_formula_units_Z  1
loop_
  _symmetry_equiv_pos_site_id
 _symmetry_equiv_pos_as_xyz
 1  'x, y, z'
loop_
 _atom_site_type_symbol
 _atom_site_label
 _atom_site_symmetry_multiplicity
 _atom_site_fract_x
 _atom_site_fract_y
 _atom_site_fract_z
 _atom_site_fract_occupancy
 Fe  Fe1  1  0.38026  0.85923  0.38026  1
 Fe  Fe2  1  0.51877  0.82708  0.82708  1
 Fe  Fe3  1  0.61974  0.61974  0.61974  1
 Fe  Fe4  1  0.48123  0.17292  0.17292  1
 Fe  Fe5  1  0.17292  0.48123  0.17292  1
 Fe  Fe6  1  0.82708  0.51877  0.82708  1
 Fe  Fe7  1  0.85923  0.38026  0.38026  1
 Fe  Fe8  1  0.61974  0.14077  0.61974  1
 Fe  Fe9  1  0.14077  0.61974  0.61974  1
 Fe  Fe10  1  0.38026  0.38026  0.85923  1
 Fe  Fe11  1  0.61974  0.61974  0.14077  1
 Fe  Fe12  1  0.82708  0.82708  0.51877  1
 Fe  Fe13  1  0.82708  0.82708  0.82708  1
 Fe  Fe14  1  0.17292  0.17292  0.48123  1
 Fe  Fe15  1  0.38026  0.38026  0.38026  1
 Fe  Fe16  1  0.17292  0.17292  0.17292  1
 Si  Si1  1  0.50000  0.00000  0.50000  1
 Si  Si2  1  0.00000  0.50000  0.00000  1
 Si  Si3  1  0.00000  0.50000  0.50000  1
 Si  Si4  1  0.50000  0.50000  0.00000  1
 Si  Si5  1  0.00000  0.00000  0.50000  1
 Si  Si6  1  0.50000  0.50000  0.50000  1
 Si  Si7  1  0.50000  0.00000  0.00000  1
 Ta  Ta1  1  0.79683  0.20317  0.20317  1
 Ta  Ta2  1  0.20317  0.20317  0.79683  1
 Ta  Ta3  1  0.79683  0.20317  0.79683  1
 Ta  Ta4  1  0.20317  0.79683  0.20317  1
 Ta  Ta5  1  0.20317  0.79683  0.79683  1
 Ta  Ta6  1  0.79683  0.79683  0.20317  1
