CIF file written using JARVIS-Tools package.
data_CrSb2
_symmetry_space_group_name_H-M  'I4/mcm'
_cell_length_a       5.46847
_cell_length_b       5.46846
_cell_length_c       5.46846
_cell_angle_alpha    106.39
_cell_angle_beta     106.39
_cell_angle_gamma    115.826

_symmetry_Int_Tables_number  140
_chemical_formula_structural  CrSb2
_chemical_formula_sum  Cr2Sb4
_cell_volume  124.71111893414366
_cell_formula_units_Z  2
loop_
  _symmetry_equiv_pos_site_id
 _symmetry_equiv_pos_as_xyz
 1  'x, y, z'
loop_
 _atom_site_type_symbol
 _atom_site_label
 _atom_site_symmetry_multiplicity
 _atom_site_fract_x
 _atom_site_fract_y
 _atom_site_fract_z
 _atom_site_fract_occupancy
 Cr  Cr1  1  0.25000  0.25000  -0.00000  1
 Cr  Cr2  1  0.75000  0.75000  -0.00000  1
 Sb  Sb1  1  0.65936  0.15936  0.81873  1
 Sb  Sb2  1  0.15936  0.34064  0.50000  1
 Sb  Sb3  1  0.84064  0.65936  0.50000  1
 Sb  Sb4  1  0.34064  0.84064  0.18127  1
