CIF file written using JARVIS-Tools package.
data_Mg6AlCr
_symmetry_space_group_name_H-M  'Amm2'
_cell_length_a       6.20412
_cell_length_b       6.12481
_cell_length_c       4.95761
_cell_angle_alpha    90
_cell_angle_beta     90
_cell_angle_gamma    119.578

_symmetry_Int_Tables_number  38
_chemical_formula_structural  Mg6AlCr
_chemical_formula_sum  Mg6AlCr
_cell_volume  163.83511007262965
_cell_formula_units_Z  1
loop_
  _symmetry_equiv_pos_site_id
 _symmetry_equiv_pos_as_xyz
 1  'x, y, z'
loop_
 _atom_site_type_symbol
 _atom_site_label
 _atom_site_symmetry_multiplicity
 _atom_site_fract_x
 _atom_site_fract_y
 _atom_site_fract_z
 _atom_site_fract_occupancy
 Al  Al1  1  0.16474  0.33237  0.25000  1
 Cr  Cr1  1  0.16353  0.83176  0.25000  1
 Mg  Mg1  1  0.66516  0.33364  0.25000  1
 Mg  Mg2  1  0.66516  0.83153  0.25000  1
 Mg  Mg3  1  0.32957  0.16037  0.75000  1
 Mg  Mg4  1  0.32957  0.66920  0.75000  1
 Mg  Mg5  1  0.83837  0.16918  0.75000  1
 Mg  Mg6  1  0.84389  0.67194  0.75000  1
