CIF file written using JARVIS-Tools package.
data_BeInSb2
_symmetry_space_group_name_H-M  'P4mm'
_cell_length_a       3.78116
_cell_length_b       3.78116
_cell_length_c       7.1757
_cell_angle_alpha    90
_cell_angle_beta     90
_cell_angle_gamma    90

_symmetry_Int_Tables_number  99
_chemical_formula_structural  BeInSb2
_chemical_formula_sum  BeInSb2
_cell_volume  102.59226737502419
_cell_formula_units_Z  1
loop_
  _symmetry_equiv_pos_site_id
 _symmetry_equiv_pos_as_xyz
 1  'x, y, z'
loop_
 _atom_site_type_symbol
 _atom_site_label
 _atom_site_symmetry_multiplicity
 _atom_site_fract_x
 _atom_site_fract_y
 _atom_site_fract_z
 _atom_site_fract_occupancy
 Be  Be1  1  0.00000  0.00000  0.32426  1
 In  In1  1  0.50000  0.50000  0.79442  1
 Sb  Sb1  1  0.00000  0.00000  0.98350  1
 Sb  Sb2  1  0.50000  0.50000  0.39782  1
