CIF file written using JARVIS-Tools package.
data_V3O5F
_symmetry_space_group_name_H-M  'C2/m'
_cell_length_a       7.19916
_cell_length_b       5.46328
_cell_length_c       5.46328
_cell_angle_alpha    71.7222
_cell_angle_beta     70.1442
_cell_angle_gamma    70.1442

_symmetry_Int_Tables_number  12
_chemical_formula_structural  V3O5F
_chemical_formula_sum  V6O0F2
_cell_volume  185.25215942341617
_cell_formula_units_Z  2
loop_
  _symmetry_equiv_pos_site_id
 _symmetry_equiv_pos_as_xyz
 1  'x, y, z'
loop_
 _atom_site_type_symbol
 _atom_site_label
 _atom_site_symmetry_multiplicity
 _atom_site_fract_x
 _atom_site_fract_y
 _atom_site_fract_z
 _atom_site_fract_occupancy
 F  F1  1  0.69507  0.10601  0.10601  1
 F  F2  1  0.30493  0.89399  0.89399  1
 O  O1  1  0.04068  0.76536  0.76536  1
 O  O2  1  0.66865  0.03899  0.63674  1
 O  O3  1  0.33135  0.36326  0.96101  1
 O  O4  1  0.63163  0.57299  0.57299  1
 O  O5  1  0.95932  0.23464  0.23464  1
 O  O6  1  0.36837  0.42701  0.42701  1
 O  O7  1  0.00000  0.29822  0.70178  1
 O  O8  1  0.66865  0.63674  0.03899  1
 O  O9  1  0.00000  0.70178  0.29822  1
 O  O10  1  0.33135  0.96101  0.36326  1
 V  V1  1  0.00000  0.00000  0.00000  1
 V  V2  1  0.50000  -0.00000  0.00000  1
 V  V3  1  0.16047  0.32940  0.32940  1
 V  V4  1  0.32825  0.64206  0.64206  1
 V  V5  1  0.67175  0.35794  0.35794  1
 V  V6  1  0.83953  0.67060  0.67060  1
