CIF file written using JARVIS-Tools package.
data_Rb2MnTe2
_symmetry_space_group_name_H-M  'Ibam'
_cell_length_a       7.07131
_cell_length_b       7.59359
_cell_length_c       8.97152
_cell_angle_alpha    115.037
_cell_angle_beta     113.21
_cell_angle_gamma    90

_symmetry_Int_Tables_number  72
_chemical_formula_structural  Rb2MnTe2
_chemical_formula_sum  Rb4Mn2Te4
_cell_volume  393.01990228203476
_cell_formula_units_Z  2
loop_
  _symmetry_equiv_pos_site_id
 _symmetry_equiv_pos_as_xyz
 1  'x, y, z'
loop_
 _atom_site_type_symbol
 _atom_site_label
 _atom_site_symmetry_multiplicity
 _atom_site_fract_x
 _atom_site_fract_y
 _atom_site_fract_z
 _atom_site_fract_occupancy
 Mn  Mn1  1  0.75000  -0.00000  0.00000  1
 Mn  Mn2  1  0.25000  -0.00000  0.00000  1
 Rb  Rb1  1  0.14440  0.46969  0.28879  1
 Rb  Rb2  1  0.64440  0.81911  0.28879  1
 Rb  Rb3  1  0.85560  0.53031  0.71121  1
 Rb  Rb4  1  0.35560  0.18089  0.71121  1
 Te  Te1  1  0.89494  0.08706  0.78988  1
 Te  Te2  1  0.10506  0.91294  0.21012  1
 Te  Te3  1  0.60506  0.29719  0.21012  1
 Te  Te4  1  0.39494  0.70281  0.78988  1
