CIF file written using JARVIS-Tools package.
data_Th2MnN3
_symmetry_space_group_name_H-M  'Immm'
_cell_length_a       3.54796
_cell_length_b       3.85372
_cell_length_c       6.89107
_cell_angle_alpha    106.237
_cell_angle_beta     104.918
_cell_angle_gamma    90

_symmetry_Int_Tables_number  71
_chemical_formula_structural  Th2MnN3
_chemical_formula_sum  Th2MnN3
_cell_volume  87.1498386588256
_cell_formula_units_Z  1
loop_
  _symmetry_equiv_pos_site_id
 _symmetry_equiv_pos_as_xyz
 1  'x, y, z'
loop_
 _atom_site_type_symbol
 _atom_site_label
 _atom_site_symmetry_multiplicity
 _atom_site_fract_x
 _atom_site_fract_y
 _atom_site_fract_z
 _atom_site_fract_occupancy
 Mn  Mn1  1  0.00000  0.00000  0.00000  1
 N  N1  1  0.83714  0.83714  0.67428  1
 N  N2  1  0.16286  0.16286  0.32572  1
 N  N3  1  0.00000  0.50000  0.00000  1
 Th  Th1  1  0.64398  0.64398  0.28795  1
 Th  Th2  1  0.35602  0.35602  0.71205  1
