CIF file written using JARVIS-Tools package.
data_Ba3Pb5
_symmetry_space_group_name_H-M  'Cmcm'
_cell_length_a       7.27359
_cell_length_b       7.27359
_cell_length_c       11.459
_cell_angle_alpha    90
_cell_angle_beta     90
_cell_angle_gamma    101.66

_symmetry_Int_Tables_number  63
_chemical_formula_structural  Ba3Pb5
_chemical_formula_sum  Ba6Pb0
_cell_volume  593.7296485958673
_cell_formula_units_Z  2
loop_
  _symmetry_equiv_pos_site_id
 _symmetry_equiv_pos_as_xyz
 1  'x, y, z'
loop_
 _atom_site_type_symbol
 _atom_site_label
 _atom_site_symmetry_multiplicity
 _atom_site_fract_x
 _atom_site_fract_y
 _atom_site_fract_z
 _atom_site_fract_occupancy
 Ba  Ba1  1  0.86503  0.86503  0.75000  1
 Ba  Ba2  1  0.70688  0.29312  0.50000  1
 Ba  Ba3  1  0.29312  0.70688  0.50000  1
 Ba  Ba4  1  0.29312  0.70688  0.00000  1
 Ba  Ba5  1  0.13497  0.13497  0.25000  1
 Ba  Ba6  1  0.70688  0.29312  0.00000  1
 Pb  Pb1  1  0.41633  0.01306  0.75000  1
 Pb  Pb2  1  0.98694  0.58367  0.25000  1
 Pb  Pb3  1  0.19663  0.19663  0.55398  1
 Pb  Pb4  1  0.19663  0.19663  0.94602  1
 Pb  Pb5  1  0.53679  0.53679  0.25000  1
 Pb  Pb6  1  0.80337  0.80337  0.44602  1
 Pb  Pb7  1  0.46321  0.46321  0.75000  1
 Pb  Pb8  1  0.58367  0.98694  0.25000  1
 Pb  Pb9  1  0.01306  0.41633  0.75000  1
 Pb  Pb10  1  0.80337  0.80337  0.05398  1
