CIF file written using JARVIS-Tools package.
data_ScBeIn
_symmetry_space_group_name_H-M  'I4mm'
_cell_length_a       6.07446
_cell_length_b       6.07446
_cell_length_c       6.07446
_cell_angle_alpha    150.606
_cell_angle_beta     150.606
_cell_angle_gamma    42.0522

_symmetry_Int_Tables_number  107
_chemical_formula_structural  ScBeIn
_chemical_formula_sum  ScBeIn
_cell_volume  53.86628037450567
_cell_formula_units_Z  1
loop_
  _symmetry_equiv_pos_site_id
 _symmetry_equiv_pos_as_xyz
 1  'x, y, z'
loop_
 _atom_site_type_symbol
 _atom_site_label
 _atom_site_symmetry_multiplicity
 _atom_site_fract_x
 _atom_site_fract_y
 _atom_site_fract_z
 _atom_site_fract_occupancy
 Be  Be1  1  0.99899  0.99899  0.00000  1
 In  In1  1  0.35325  0.35325  -0.00000  1
 Sc  Sc1  1  0.64776  0.64776  0.00000  1
