CIF file written using JARVIS-Tools package.
data_MgCdTe2
_symmetry_space_group_name_H-M  'R3m'
_cell_length_a       7.97308
_cell_length_b       7.97308
_cell_length_c       7.97307
_cell_angle_alpha    33.6729
_cell_angle_beta     33.6729
_cell_angle_gamma    33.6729

_symmetry_Int_Tables_number  160
_chemical_formula_structural  MgCdTe2
_chemical_formula_sum  MgCdTe2
_cell_volume  138.81277689194744
_cell_formula_units_Z  1
loop_
  _symmetry_equiv_pos_site_id
 _symmetry_equiv_pos_as_xyz
 1  'x, y, z'
loop_
 _atom_site_type_symbol
 _atom_site_label
 _atom_site_symmetry_multiplicity
 _atom_site_fract_x
 _atom_site_fract_y
 _atom_site_fract_z
 _atom_site_fract_occupancy
 Cd  Cd1  1  0.00067  0.00067  0.00067  1
 Mg  Mg1  1  0.49894  0.49894  0.49894  1
 Te  Te1  1  0.12709  0.12709  0.12709  1
 Te  Te2  1  0.62329  0.62329  0.62329  1
