CIF file written using JARVIS-Tools package.
data_RbCd4As3
_symmetry_space_group_name_H-M  'R-3m'
_cell_length_a       4.54207
_cell_length_b       4.54207
_cell_length_c       12.6667
_cell_angle_alpha    79.6715
_cell_angle_beta     79.6715
_cell_angle_gamma    60.0001

_symmetry_Int_Tables_number  166
_chemical_formula_structural  RbCd4As3
_chemical_formula_sum  RbCd4As3
_cell_volume  221.40642252744712
_cell_formula_units_Z  1
loop_
  _symmetry_equiv_pos_site_id
 _symmetry_equiv_pos_as_xyz
 1  'x, y, z'
loop_
 _atom_site_type_symbol
 _atom_site_label
 _atom_site_symmetry_multiplicity
 _atom_site_fract_x
 _atom_site_fract_y
 _atom_site_fract_z
 _atom_site_fract_occupancy
 As  As1  1  0.22982  0.22982  0.31054  1
 As  As2  1  0.77018  0.77018  0.68946  1
 As  As3  1  0.00000  0.00000  0.00000  1
 Cd  Cd1  1  0.08707  0.08707  0.73878  1
 Cd  Cd2  1  0.91293  0.91293  0.26122  1
 Cd  Cd3  1  0.30214  0.30214  0.09358  1
 Cd  Cd4  1  0.69786  0.69786  0.90642  1
 Rb  Rb1  1  0.50000  0.50000  0.50000  1
