CIF file written using JARVIS-Tools package.
data_BeRe2Br
_symmetry_space_group_name_H-M  'P4mm'
_cell_length_a       3.00241
_cell_length_b       3.00241
_cell_length_c       7.79692
_cell_angle_alpha    90
_cell_angle_beta     90
_cell_angle_gamma    90

_symmetry_Int_Tables_number  99
_chemical_formula_structural  BeRe2Br
_chemical_formula_sum  BeRe2Br
_cell_volume  70.28506394882352
_cell_formula_units_Z  1
loop_
  _symmetry_equiv_pos_site_id
 _symmetry_equiv_pos_as_xyz
 1  'x, y, z'
loop_
 _atom_site_type_symbol
 _atom_site_label
 _atom_site_symmetry_multiplicity
 _atom_site_fract_x
 _atom_site_fract_y
 _atom_site_fract_z
 _atom_site_fract_occupancy
 Be  Be1  1  0.00000  0.00000  0.39583  1
 Br  Br1  1  0.50000  0.50000  0.80167  1
 Re  Re1  1  0.00000  0.00000  0.04974  1
 Re  Re2  1  0.50000  0.50000  0.25277  1
