CIF file written using JARVIS-Tools package.
data_LiAgF2
_symmetry_space_group_name_H-M  'I-42d'
_cell_length_a       5.32948
_cell_length_b       5.229
_cell_length_c       5.32948
_cell_angle_alpha    59.3622
_cell_angle_beta     90
_cell_angle_gamma    59.3623

_symmetry_Int_Tables_number  122
_chemical_formula_structural  LiAgF2
_chemical_formula_sum  Li2Ag2F4
_cell_volume  102.96262638841915
_cell_formula_units_Z  2
loop_
  _symmetry_equiv_pos_site_id
 _symmetry_equiv_pos_as_xyz
 1  'x, y, z'
loop_
 _atom_site_type_symbol
 _atom_site_label
 _atom_site_symmetry_multiplicity
 _atom_site_fract_x
 _atom_site_fract_y
 _atom_site_fract_z
 _atom_site_fract_occupancy
 Ag  Ag1  1  0.50000  0.00000  0.50000  1
 Ag  Ag2  1  0.75000  0.50000  0.25000  1
 F  F1  1  0.12500  0.25000  0.04496  1
 F  F2  1  0.29496  0.75000  0.87500  1
 F  F3  1  0.62500  0.25000  0.70504  1
 F  F4  1  0.95504  0.75000  0.37500  1
 Li  Li1  1  0.00000  0.00000  0.00000  1
 Li  Li2  1  0.25000  0.50000  0.75000  1
