CIF file written using JARVIS-Tools package.
data_CeSi2Ni
_symmetry_space_group_name_H-M  'Cmcm'
_cell_length_a       4.06984
_cell_length_b       4.12046
_cell_length_c       8.42155
_cell_angle_alpha    104.16
_cell_angle_beta     90
_cell_angle_gamma    90

_symmetry_Int_Tables_number  63
_chemical_formula_structural  CeSi2Ni
_chemical_formula_sum  Ce2Si4Ni2
_cell_volume  136.93477498964657
_cell_formula_units_Z  2
loop_
  _symmetry_equiv_pos_site_id
 _symmetry_equiv_pos_as_xyz
 1  'x, y, z'
loop_
 _atom_site_type_symbol
 _atom_site_label
 _atom_site_symmetry_multiplicity
 _atom_site_fract_x
 _atom_site_fract_y
 _atom_site_fract_z
 _atom_site_fract_occupancy
 Ce  Ce1  1  0.25000  0.89421  0.78842  1
 Ce  Ce2  1  0.75000  0.10579  0.21158  1
 Ni  Ni1  1  0.75000  0.31920  0.63841  1
 Ni  Ni2  1  0.25000  0.68080  0.36159  1
 Si  Si1  1  0.25000  0.24926  0.49851  1
 Si  Si2  1  0.75000  0.75074  0.50149  1
 Si  Si3  1  0.75000  0.45996  0.91993  1
 Si  Si4  1  0.25000  0.54004  0.08007  1
