CIF file written using JARVIS-Tools package.
data_BaTiO3
_symmetry_space_group_name_H-M  'Amm2'
_cell_length_a       4.074
_cell_length_b       4.074
_cell_length_c       3.99909
_cell_angle_alpha    90
_cell_angle_beta     90
_cell_angle_gamma    90.2711

_symmetry_Int_Tables_number  38
_chemical_formula_structural  BaTiO3
_chemical_formula_sum  BaTiO3
_cell_volume  66.37404650328632
_cell_formula_units_Z  1
loop_
  _symmetry_equiv_pos_site_id
 _symmetry_equiv_pos_as_xyz
 1  'x, y, z'
loop_
 _atom_site_type_symbol
 _atom_site_label
 _atom_site_symmetry_multiplicity
 _atom_site_fract_x
 _atom_site_fract_y
 _atom_site_fract_z
 _atom_site_fract_occupancy
 Ba  Ba1  1  0.31211  0.68789  0.00000  1
 O  O1  1  0.79589  0.20411  0.00000  1
 O  O2  1  -0.20115  0.71325  0.50000  1
 O  O3  1  0.28675  0.20115  0.50000  1
 Ti  Ti1  1  0.82720  0.17280  0.50000  1
