CIF file written using JARVIS-Tools package.
data_PH8C2NO4
_symmetry_space_group_name_H-M  'I-4'
_cell_length_a       9.03084
_cell_length_b       9.03084
_cell_length_c       9.03084
_cell_angle_alpha    108.327
_cell_angle_beta     108.327
_cell_angle_gamma    111.785

_symmetry_Int_Tables_number  82
_chemical_formula_structural  PH8C2NO4
_chemical_formula_sum  P4H32C8N4O6
_cell_volume  566.2763433859296
_cell_formula_units_Z  4
loop_
  _symmetry_equiv_pos_site_id
 _symmetry_equiv_pos_as_xyz
 1  'x, y, z'
loop_
 _atom_site_type_symbol
 _atom_site_label
 _atom_site_symmetry_multiplicity
 _atom_site_fract_x
 _atom_site_fract_y
 _atom_site_fract_z
 _atom_site_fract_occupancy
 C  C1  1  0.47126  0.72089  0.84747  1
 C  C2  1  0.37621  0.52874  0.24963  1
 C  C3  1  0.27911  0.12658  0.75037  1
 C  C4  1  0.87342  0.62379  0.15253  1
 C  C5  1  0.16762  0.97847  0.78036  1
 C  C6  1  0.19811  0.38726  0.21964  1
 C  C7  1  0.02153  0.80189  0.18915  1
 C  C8  1  0.61274  0.83238  0.81085  1
 H  H1  1  0.26212  0.91380  0.18092  1
 H  H2  1  0.20606  0.60025  0.75416  1
 H  H3  1  0.31682  0.36104  0.44692  1
 H  H4  1  0.13010  0.68318  0.04422  1
 H  H5  1  0.91412  0.86990  0.55308  1
 H  H6  1  0.08620  0.26712  0.34832  1
 H  H7  1  0.01401  0.74822  0.51659  1
 H  H8  1  0.73288  0.08120  0.81908  1
 H  H9  1  0.23163  0.49742  0.48341  1
 H  H10  1  0.84609  0.45190  0.24584  1
 H  H11  1  0.63896  0.08588  0.95578  1
 H  H12  1  0.91880  0.73788  0.65168  1
 H  H13  1  0.39975  0.15391  0.60581  1
 H  H14  1  0.50258  0.98599  0.73421  1
 H  H15  1  0.25178  0.76837  0.26579  1
 H  H16  1  0.76098  0.64223  0.15970  1
 H  H17  1  0.48253  0.60128  0.84030  1
 H  H18  1  0.48612  0.50286  0.30427  1
 H  H19  1  0.54810  0.79394  0.39419  1
 H  H20  1  0.81815  0.51388  0.01674  1
 H  H21  1  0.49714  0.80141  0.98326  1
 H  H22  1  0.13079  0.03570  0.87928  1
 H  H23  1  0.39872  0.23902  0.88125  1
 H  H24  1  0.96430  0.84357  0.09509  1
 H  H25  1  0.19859  0.18185  0.69573  1
 H  H26  1  0.08972  0.41563  0.17062  1
 H  H27  1  0.24502  0.91910  0.82938  1
 H  H28  1  0.08090  0.91028  0.32592  1
 H  H29  1  0.58437  0.75498  0.67408  1
 H  H30  1  0.15643  0.25151  0.12072  1
 H  H31  1  0.35777  0.51747  0.11875  1
 H  H32  1  0.74849  0.86921  0.90491  1
 N  N1  1  0.61995  0.00579  0.83071  1
 N  N2  1  0.21075  0.38005  0.38584  1
 N  N3  1  0.99421  0.82492  0.61416  1
 N  N4  1  0.17508  0.78925  0.16929  1
 O  O1  1  0.75556  0.30875  0.69664  1
 O  O2  1  0.64328  0.24591  0.13915  1
 O  O3  1  0.10677  0.50413  0.86085  1
 O  O4  1  0.94108  0.24444  0.55319  1
 O  O5  1  0.61211  0.05892  0.30336  1
 O  O6  1  0.69125  0.38789  0.44681  1
 O  O7  1  0.49587  0.35672  0.60264  1
 O  O8  1  0.94655  0.57504  0.28302  1
 O  O9  1  0.92928  0.17204  0.80473  1
 O  O10  1  0.29201  0.66353  0.71698  1
 O  O11  1  0.87545  0.07072  0.24276  1
 O  O12  1  0.82796  0.63269  0.75724  1
 O  O13  1  0.42496  0.70799  0.37151  1
 O  O14  1  0.33647  0.05345  0.62849  1
 O  O15  1  0.75409  0.89323  0.39736  1
 O  O16  1  0.36731  0.12455  0.19527  1
 P  P1  1  0.68873  0.43422  0.63541  1
 P  P2  1  0.79881  0.05332  0.36459  1
 P  P3  1  0.56578  0.20119  0.25451  1
 P  P4  1  0.94668  0.31127  0.74549  1
