CIF file written using JARVIS-Tools package.
data_CaRhF6
_symmetry_space_group_name_H-M  'R-3'
_cell_length_a       5.76072
_cell_length_b       5.76073
_cell_length_c       5.76073
_cell_angle_alpha    53.4594
_cell_angle_beta     53.4594
_cell_angle_gamma    53.4594

_symmetry_Int_Tables_number  148
_chemical_formula_structural  CaRhF6
_chemical_formula_sum  CaRhF6
_cell_volume  114.48964771034079
_cell_formula_units_Z  1
loop_
  _symmetry_equiv_pos_site_id
 _symmetry_equiv_pos_as_xyz
 1  'x, y, z'
loop_
 _atom_site_type_symbol
 _atom_site_label
 _atom_site_symmetry_multiplicity
 _atom_site_fract_x
 _atom_site_fract_y
 _atom_site_fract_z
 _atom_site_fract_occupancy
 Ca  Ca1  1  0.50000  0.50000  0.50000  1
 F  F1  1  0.38412  0.06640  0.77972  1
 F  F2  1  0.06640  0.77972  0.38412  1
 F  F3  1  0.22028  0.61588  0.93360  1
 F  F4  1  0.93360  0.22028  0.61588  1
 F  F5  1  0.61588  0.93360  0.22028  1
 F  F6  1  0.77972  0.38412  0.06640  1
 Rh  Rh1  1  0.00000  0.00000  0.00000  1
