CIF file written using JARVIS-Tools package.
data_Ca3MgSi2O8
_symmetry_space_group_name_H-M  'P2_1/c'
_cell_length_a       5.25121
_cell_length_b       9.84668
_cell_length_c       13.6447
_cell_angle_alpha    97.9833
_cell_angle_beta     90
_cell_angle_gamma    90

_symmetry_Int_Tables_number  14
_chemical_formula_structural  Ca3MgSi2O8
_chemical_formula_sum  Ca2Mg4Si8O32
_cell_volume  698.6902616759564
_cell_formula_units_Z  4
loop_
  _symmetry_equiv_pos_site_id
 _symmetry_equiv_pos_as_xyz
 1  'x, y, z'
loop_
 _atom_site_type_symbol
 _atom_site_label
 _atom_site_symmetry_multiplicity
 _atom_site_fract_x
 _atom_site_fract_y
 _atom_site_fract_z
 _atom_site_fract_occupancy
 Ca  Ca1  1  0.25842  0.06884  0.40728  1
 Ca  Ca2  1  0.25184  0.73674  0.97767  1
 Ca  Ca3  1  0.27067  0.47863  0.62354  1
 Ca  Ca4  1  0.22933  0.47863  0.12354  1
 Ca  Ca5  1  0.77067  0.52137  0.87646  1
 Ca  Ca6  1  0.74158  0.93116  0.59272  1
 Ca  Ca7  1  0.75184  0.26326  0.52233  1
 Ca  Ca8  1  0.24158  0.06884  0.90728  1
 Ca  Ca9  1  0.72933  0.52137  0.37646  1
 Ca  Ca10  1  0.24816  0.73674  0.47767  1
 Ca  Ca11  1  0.74816  0.26326  0.02233  1
 Ca  Ca12  1  0.75842  0.93116  0.09272  1
 Mg  Mg1  1  0.26050  0.83798  0.21199  1
 Mg  Mg2  1  0.23950  0.83798  0.71199  1
 Mg  Mg3  1  0.73950  0.16202  0.78801  1
 Mg  Mg4  1  0.76050  0.16202  0.28801  1
 O  O1  1  0.16811  0.22855  0.07390  1
 O  O2  1  0.87846  0.57069  0.23617  1
 O  O3  1  0.28674  0.96144  0.06176  1
 O  O4  1  0.62154  0.57069  0.73617  1
 O  O5  1  0.91106  0.14946  0.65724  1
 O  O6  1  0.71326  0.03856  0.93824  1
 O  O7  1  0.10593  0.07059  0.22827  1
 O  O8  1  0.23520  0.50642  0.94861  1
 O  O9  1  0.58894  0.14946  0.15724  1
 O  O10  1  0.51591  0.30163  0.86698  1
 O  O11  1  0.21326  0.96144  0.56176  1
 O  O12  1  0.48445  0.25548  0.38154  1
 O  O13  1  0.37846  0.42931  0.26383  1
 O  O14  1  0.73520  0.49358  0.55139  1
 O  O15  1  0.83189  0.77145  0.92610  1
 O  O16  1  0.89407  0.92941  0.77173  1
 O  O17  1  0.98409  0.30163  0.36698  1
 O  O18  1  0.01555  0.25548  0.88154  1
 O  O19  1  0.98445  0.74452  0.11846  1
 O  O20  1  0.39407  0.07059  0.72827  1
 O  O21  1  0.66811  0.77145  0.42610  1
 O  O22  1  0.12154  0.42931  0.76383  1
 O  O23  1  0.26480  0.50642  0.44861  1
 O  O24  1  0.60593  0.92941  0.27173  1
 O  O25  1  0.48409  0.69837  0.13302  1
 O  O26  1  0.51555  0.74452  0.61846  1
 O  O27  1  0.41106  0.85054  0.84276  1
 O  O28  1  0.76480  0.49358  0.05139  1
 O  O29  1  0.78674  0.03856  0.43824  1
 O  O30  1  0.01591  0.69837  0.63302  1
 O  O31  1  0.08894  0.85054  0.34276  1
 O  O32  1  0.33189  0.22855  0.57390  1
 Si  Si1  1  0.78388  0.88762  0.36313  1
 Si  Si2  1  0.73232  0.62803  0.63899  1
 Si  Si3  1  0.71612  0.88762  0.86313  1
 Si  Si4  1  0.21612  0.11238  0.63687  1
 Si  Si5  1  0.76768  0.62803  0.13899  1
 Si  Si6  1  0.26768  0.37197  0.36101  1
 Si  Si7  1  0.28388  0.11238  0.13687  1
 Si  Si8  1  0.23232  0.37197  0.86101  1
