CIF file written using JARVIS-Tools package.
data_H2O
_symmetry_space_group_name_H-M  'Cmc2_1'
_cell_length_a       4.3872
_cell_length_b       4.3872
_cell_length_c       7.08536
_cell_angle_alpha    90
_cell_angle_beta     90
_cell_angle_gamma    59.5858

_symmetry_Int_Tables_number  36
_chemical_formula_structural  H2O
_chemical_formula_sum  H8O4
_cell_volume  117.60868754045755
_cell_formula_units_Z  4
loop_
  _symmetry_equiv_pos_site_id
 _symmetry_equiv_pos_as_xyz
 1  'x, y, z'
loop_
 _atom_site_type_symbol
 _atom_site_label
 _atom_site_symmetry_multiplicity
 _atom_site_fract_x
 _atom_site_fract_y
 _atom_site_fract_z
 _atom_site_fract_occupancy
 H  H1  1  0.34002  0.34002  0.70121  1
 H  H2  1  0.65998  0.65998  0.20121  1
 H  H3  1  0.47057  0.47057  0.51844  1
 H  H4  1  0.52943  0.52943  0.01844  1
 H  H5  1  0.92750  0.55511  0.48179  1
 H  H6  1  0.55511  0.92750  0.48179  1
 H  H7  1  0.07250  0.44489  0.98179  1
 H  H8  1  0.44489  0.07250  0.98179  1
 O  O1  1  0.34377  0.34377  0.55904  1
 O  O2  1  0.65623  0.65623  0.05904  1
 O  O3  1  0.67562  0.67562  0.43573  1
 O  O4  1  0.32438  0.32438  0.93573  1
