CIF file written using JARVIS-Tools package.
data_Er2WO6
_symmetry_space_group_name_H-M  'P2_12_12_1'
_cell_length_a       5.20073
_cell_length_b       9.03283
_cell_length_c       9.85433
_cell_angle_alpha    90
_cell_angle_beta     90
_cell_angle_gamma    90

_symmetry_Int_Tables_number  19
_chemical_formula_structural  Er2WO6
_chemical_formula_sum  Er8W4O24
_cell_volume  462.9301446858812
_cell_formula_units_Z  4
loop_
  _symmetry_equiv_pos_site_id
 _symmetry_equiv_pos_as_xyz
 1  'x, y, z'
loop_
 _atom_site_type_symbol
 _atom_site_label
 _atom_site_symmetry_multiplicity
 _atom_site_fract_x
 _atom_site_fract_y
 _atom_site_fract_z
 _atom_site_fract_occupancy
 Er  Er1  1  0.51759  0.10333  0.96712  1
 Er  Er2  1  0.48241  0.60333  0.53288  1
 Er  Er3  1  0.98241  0.89667  0.46712  1
 Er  Er4  1  0.53901  0.21935  0.37272  1
 Er  Er5  1  0.03901  0.28065  0.62728  1
 Er  Er6  1  0.46099  0.71935  0.12728  1
 Er  Er7  1  0.96099  0.78065  0.87272  1
 Er  Er8  1  0.01759  0.39667  0.03288  1
 O  O1  1  0.73355  0.11490  0.56860  1
 O  O2  1  0.23355  0.38510  0.43140  1
 O  O3  1  0.26645  0.61490  0.93140  1
 O  O4  1  0.82232  0.04608  0.30041  1
 O  O5  1  0.76645  0.88510  0.06860  1
 O  O6  1  0.19728  0.85895  0.26620  1
 O  O7  1  0.41466  0.34269  0.96957  1
 O  O8  1  0.91466  0.15731  0.03043  1
 O  O9  1  0.24856  0.90957  0.00502  1
 O  O10  1  0.69728  0.64105  0.73380  1
 O  O11  1  0.80272  0.35895  0.23380  1
 O  O12  1  0.08534  0.65731  0.46957  1
 O  O13  1  0.74856  0.59043  0.99498  1
 O  O14  1  0.17768  0.54608  0.19959  1
 O  O15  1  0.30272  0.14105  0.76620  1
 O  O16  1  0.25144  0.09043  0.50502  1
 O  O17  1  0.58534  0.84269  0.53043  1
 O  O18  1  0.67768  0.95392  0.80041  1
 O  O19  1  0.32235  0.13835  0.18171  1
 O  O20  1  0.82235  0.36165  0.81829  1
 O  O21  1  0.67765  0.63835  0.31829  1
 O  O22  1  0.17765  0.86165  0.68171  1
 O  O23  1  0.75144  0.40957  0.49498  1
 O  O24  1  0.32232  0.45392  0.69959  1
 W  W1  1  0.53885  0.49536  0.84604  1
 W  W2  1  0.96115  0.50464  0.34604  1
 W  W3  1  0.46115  0.99536  0.65396  1
 W  W4  1  0.03885  0.00464  0.15396  1
