CIF file written using JARVIS-Tools package.
data_TbCoGe2
_symmetry_space_group_name_H-M  'Cmcm'
_cell_length_a       4.17963
_cell_length_b       4.14286
_cell_length_c       8.52344
_cell_angle_alpha    104.065
_cell_angle_beta     90
_cell_angle_gamma    90

_symmetry_Int_Tables_number  63
_chemical_formula_structural  TbCoGe2
_chemical_formula_sum  Tb2Co2Ge4
_cell_volume  143.16356367498292
_cell_formula_units_Z  2
loop_
  _symmetry_equiv_pos_site_id
 _symmetry_equiv_pos_as_xyz
 1  'x, y, z'
loop_
 _atom_site_type_symbol
 _atom_site_label
 _atom_site_symmetry_multiplicity
 _atom_site_fract_x
 _atom_site_fract_y
 _atom_site_fract_z
 _atom_site_fract_occupancy
 Co  Co1  1  0.75000  0.31885  0.63769  1
 Co  Co2  1  0.25000  0.68115  0.36231  1
 Ge  Ge1  1  0.75000  0.45539  0.91078  1
 Ge  Ge2  1  0.25000  0.54461  0.08922  1
 Ge  Ge3  1  0.75000  0.74918  0.49836  1
 Ge  Ge4  1  0.25000  0.25082  0.50164  1
 Tb  Tb1  1  0.75000  0.10919  0.21837  1
 Tb  Tb2  1  0.25000  0.89081  0.78163  1
