CIF file written using JARVIS-Tools package.
data_LiTiNCl
_symmetry_space_group_name_H-M  'Pmmn'
_cell_length_a       3.36228
_cell_length_b       4.11406
_cell_length_c       7.96911
_cell_angle_alpha    90
_cell_angle_beta     90
_cell_angle_gamma    90

_symmetry_Int_Tables_number  59
_chemical_formula_structural  LiTiNCl
_chemical_formula_sum  Li2Ti2N2Cl2
_cell_volume  110.23368286460476
_cell_formula_units_Z  2
loop_
  _symmetry_equiv_pos_site_id
 _symmetry_equiv_pos_as_xyz
 1  'x, y, z'
loop_
 _atom_site_type_symbol
 _atom_site_label
 _atom_site_symmetry_multiplicity
 _atom_site_fract_x
 _atom_site_fract_y
 _atom_site_fract_z
 _atom_site_fract_occupancy
 Cl  Cl1  1  0.50000  0.50000  0.34695  1
 Cl  Cl2  1  0.00000  0.00000  0.65305  1
 Li  Li1  1  0.00000  0.00000  0.33603  1
 Li  Li2  1  0.50000  0.50000  0.66397  1
 N  N1  1  0.00000  0.00000  0.08376  1
 N  N2  1  0.50000  0.50000  0.91624  1
 Ti  Ti1  1  0.00000  0.50000  0.05476  1
 Ti  Ti2  1  0.50000  0.00000  0.94524  1
