CIF file written using JARVIS-Tools package.
data_CrP2O6
_symmetry_space_group_name_H-M  'C2/c'
_cell_length_a       6.58406
_cell_length_b       6.58406
_cell_length_c       5.06415
_cell_angle_alpha    81.3602
_cell_angle_beta     98.6398
_cell_angle_gamma    95.3247

_symmetry_Int_Tables_number  15
_chemical_formula_structural  CrP2O6
_chemical_formula_sum  Cr2P4O2
_cell_volume  214.02116586694686
_cell_formula_units_Z  2
loop_
  _symmetry_equiv_pos_site_id
 _symmetry_equiv_pos_as_xyz
 1  'x, y, z'
loop_
 _atom_site_type_symbol
 _atom_site_label
 _atom_site_symmetry_multiplicity
 _atom_site_fract_x
 _atom_site_fract_y
 _atom_site_fract_z
 _atom_site_fract_occupancy
 Cr  Cr1  1  0.89136  0.89136  0.75000  1
 Cr  Cr2  1  0.10864  0.10864  0.25000  1
 O  O1  1  0.20168  0.93355  0.70910  1
 O  O2  1  0.06645  0.79832  0.20910  1
 O  O3  1  0.93355  0.20168  0.79090  1
 O  O4  1  0.35293  0.63725  0.55297  1
 O  O5  1  0.59194  0.89557  0.78488  1
 O  O6  1  0.36275  0.64707  0.05297  1
 O  O7  1  0.63725  0.35293  0.94703  1
 O  O8  1  0.89557  0.59194  0.71512  1
 O  O9  1  0.64707  0.36275  0.44703  1
 O  O10  1  0.40806  0.10443  0.21512  1
 O  O11  1  0.10443  0.40806  0.28488  1
 O  O12  1  0.79832  0.06645  0.29090  1
 P  P1  1  0.62170  0.20387  0.22744  1
 P  P2  1  0.79613  0.37830  0.72744  1
 P  P3  1  0.20387  0.62170  0.27256  1
 P  P4  1  0.37830  0.79613  0.77256  1
