CIF file written using JARVIS-Tools package.
data_Ho3Ge4
_symmetry_space_group_name_H-M  'Cmcm'
_cell_length_a       4.04817
_cell_length_b       5.6804
_cell_length_c       14.2486
_cell_angle_alpha    90
_cell_angle_beta     90
_cell_angle_gamma    110.875

_symmetry_Int_Tables_number  63
_chemical_formula_structural  Ho3Ge4
_chemical_formula_sum  Ho6Ge8
_cell_volume  306.1426858437211
_cell_formula_units_Z  2
loop_
  _symmetry_equiv_pos_site_id
 _symmetry_equiv_pos_as_xyz
 1  'x, y, z'
loop_
 _atom_site_type_symbol
 _atom_site_label
 _atom_site_symmetry_multiplicity
 _atom_site_fract_x
 _atom_site_fract_y
 _atom_site_fract_z
 _atom_site_fract_occupancy
 Ge  Ge1  1  0.00000  0.00000  0.50000  1
 Ge  Ge2  1  0.00000  0.00000  0.00000  1
 Ge  Ge3  1  0.22048  0.44096  0.25000  1
 Ge  Ge4  1  0.77952  0.55904  0.75000  1
 Ge  Ge5  1  0.37825  0.75650  0.39093  1
 Ge  Ge6  1  0.62175  0.24350  0.60907  1
 Ge  Ge7  1  0.37825  0.75650  0.10907  1
 Ge  Ge8  1  0.62175  0.24350  0.89093  1
 Ho  Ho1  1  0.95068  0.90137  0.25000  1
 Ho  Ho2  1  0.04932  0.09863  0.75000  1
 Ho  Ho3  1  0.33184  0.66367  0.59659  1
 Ho  Ho4  1  0.66816  0.33633  0.40341  1
 Ho  Ho5  1  0.66816  0.33633  0.09659  1
 Ho  Ho6  1  0.33184  0.66367  0.90341  1
