CIF file written using JARVIS-Tools package.
data_Li2V3SnO8
_symmetry_space_group_name_H-M  'R3m'
_cell_length_a       6.0129
_cell_length_b       6.0129
_cell_length_c       6.0129
_cell_angle_alpha    57.4727
_cell_angle_beta     57.4727
_cell_angle_gamma    57.4727

_symmetry_Int_Tables_number  160
_chemical_formula_structural  Li2V3SnO8
_chemical_formula_sum  Li2V3SnO8
_cell_volume  144.7859009433866
_cell_formula_units_Z  1
loop_
  _symmetry_equiv_pos_site_id
 _symmetry_equiv_pos_as_xyz
 1  'x, y, z'
loop_
 _atom_site_type_symbol
 _atom_site_label
 _atom_site_symmetry_multiplicity
 _atom_site_fract_x
 _atom_site_fract_y
 _atom_site_fract_z
 _atom_site_fract_occupancy
 Li  Li1  1  0.11971  0.11971  0.11971  1
 Li  Li2  1  0.50690  0.50690  0.50690  1
 O  O1  1  0.24644  0.24644  0.24644  1
 O  O2  1  0.25254  0.25254  0.72425  1
 O  O3  1  0.25254  0.72425  0.25254  1
 O  O4  1  0.72425  0.25254  0.25254  1
 O  O5  1  0.28724  0.74814  0.74814  1
 O  O6  1  0.74814  0.28724  0.74814  1
 O  O7  1  0.74814  0.74814  0.28724  1
 O  O8  1  0.73727  0.73727  0.73727  1
 Sn  Sn1  1  0.87094  0.87094  0.87094  1
 V  V1  1  0.04833  0.47877  0.47877  1
 V  V2  1  0.47877  0.04833  0.47877  1
 V  V3  1  0.47877  0.47877  0.04833  1
