CIF file written using JARVIS-Tools package.
data_TePb
_symmetry_space_group_name_H-M  'Fm-3m'
_cell_length_a       4.62679
_cell_length_b       4.62754
_cell_length_c       13.0893
_cell_angle_alpha    90
_cell_angle_beta     90
_cell_angle_gamma    90

_symmetry_Int_Tables_number  225
_chemical_formula_structural  TePb
_chemical_formula_sum  Te4Pb4
_cell_volume  280.25027864268037
_cell_formula_units_Z  4
loop_
  _symmetry_equiv_pos_site_id
 _symmetry_equiv_pos_as_xyz
 1  'x, y, z'
loop_
 _atom_site_type_symbol
 _atom_site_label
 _atom_site_symmetry_multiplicity
 _atom_site_fract_x
 _atom_site_fract_y
 _atom_site_fract_z
 _atom_site_fract_occupancy
 Pb  Pb1  1  0.25000  0.24967  0.62507  1
 Pb  Pb2  1  0.25000  0.25033  0.12507  1
 Pb  Pb3  1  0.75000  0.75033  0.37493  1
 Pb  Pb4  1  0.75000  0.74967  0.87493  1
 Te  Te1  1  0.25000  0.24981  0.87504  1
 Te  Te2  1  0.25000  0.25019  0.37504  1
 Te  Te3  1  0.75000  0.75019  0.12496  1
 Te  Te4  1  0.75000  0.74981  0.62496  1
