CIF file written using JARVIS-Tools package.
data_Er2Ni12P7
_symmetry_space_group_name_H-M  'P-6'
_cell_length_a       9.06961
_cell_length_b       9.0696
_cell_length_c       3.68999
_cell_angle_alpha    90
_cell_angle_beta     90
_cell_angle_gamma    120

_symmetry_Int_Tables_number  174
_chemical_formula_structural  Er2Ni12P7
_chemical_formula_sum  Er2Ni2P7
_cell_volume  262.8647705073388
_cell_formula_units_Z  1
loop_
  _symmetry_equiv_pos_site_id
 _symmetry_equiv_pos_as_xyz
 1  'x, y, z'
loop_
 _atom_site_type_symbol
 _atom_site_label
 _atom_site_symmetry_multiplicity
 _atom_site_fract_x
 _atom_site_fract_y
 _atom_site_fract_z
 _atom_site_fract_occupancy
 Er  Er1  1  0.33333  0.66667  0.00000  1
 Er  Er2  1  0.66667  0.33333  0.50000  1
 Ni  Ni1  1  0.72484  0.87807  0.00000  1
 Ni  Ni2  1  0.43473  0.06235  0.00000  1
 Ni  Ni3  1  0.62762  0.56527  0.00000  1
 Ni  Ni4  1  0.15323  0.27516  0.00000  1
 Ni  Ni5  1  0.12193  0.84677  0.00000  1
 Ni  Ni6  1  0.93765  0.37238  0.00000  1
 Ni  Ni7  1  0.38225  0.43217  0.50000  1
 Ni  Ni8  1  0.04991  0.61775  0.50000  1
 Ni  Ni9  1  0.21632  0.09353  0.50000  1
 Ni  Ni10  1  0.87721  0.78368  0.50000  1
 Ni  Ni11  1  0.90647  0.12279  0.50000  1
 Ni  Ni12  1  0.56783  0.95009  0.50000  1
 P  P1  1  0.29410  0.88804  0.50000  1
 P  P2  1  0.59394  0.70590  0.50000  1
 P  P3  1  0.40878  0.29510  0.00000  1
 P  P4  1  0.88631  0.59122  0.00000  1
 P  P5  1  0.70490  0.11369  0.00000  1
 P  P6  1  0.11196  0.40606  0.50000  1
 P  P7  1  0.00000  0.00000  0.00000  1
