CIF file written using JARVIS-Tools package.
data_ReF7
_symmetry_space_group_name_H-M  'P-1'
_cell_length_a       5.09362
_cell_length_b       5.10093
_cell_length_c       9.19205
_cell_angle_alpha    87.156
_cell_angle_beta     92.0962
_cell_angle_gamma    65.2954

_symmetry_Int_Tables_number  2
_chemical_formula_structural  ReF7
_chemical_formula_sum  Re2F4
_cell_volume  216.2709133841538
_cell_formula_units_Z  2
loop_
  _symmetry_equiv_pos_site_id
 _symmetry_equiv_pos_as_xyz
 1  'x, y, z'
loop_
 _atom_site_type_symbol
 _atom_site_label
 _atom_site_symmetry_multiplicity
 _atom_site_fract_x
 _atom_site_fract_y
 _atom_site_fract_z
 _atom_site_fract_occupancy
 F  F1  1  0.57568  0.16498  0.64773  1
 F  F2  1  0.42432  0.83502  0.35227  1
 F  F3  1  0.16686  0.56476  0.86654  1
 F  F4  1  0.83314  0.43524  0.13346  1
 F  F5  1  0.72199  0.05803  0.92061  1
 F  F6  1  0.27801  0.94197  0.07939  1
 F  F7  1  0.14986  0.79035  0.61170  1
 F  F8  1  0.85014  0.20965  0.38830  1
 F  F9  1  0.63344  0.69492  0.83651  1
 F  F10  1  0.36656  0.30508  0.16349  1
 F  F11  1  0.79980  0.63297  0.61255  1
 F  F12  1  0.20020  0.36703  0.38745  1
 F  F13  1  0.05533  0.10847  0.78307  1
 F  F14  1  0.94467  0.89153  0.21693  1
 Re  Re1  1  0.87126  0.85732  0.75333  1
 Re  Re2  1  0.12874  0.14268  0.24667  1
