CIF file written using JARVIS-Tools package.
data_NaBe2Pb
_symmetry_space_group_name_H-M  'P4/mmm'
_cell_length_a       3.64693
_cell_length_b       3.64693
_cell_length_c       6.0323
_cell_angle_alpha    90
_cell_angle_beta     90
_cell_angle_gamma    90

_symmetry_Int_Tables_number  123
_chemical_formula_structural  NaBe2Pb
_chemical_formula_sum  NaBe2Pb
_cell_volume  80.23023937700508
_cell_formula_units_Z  1
loop_
  _symmetry_equiv_pos_site_id
 _symmetry_equiv_pos_as_xyz
 1  'x, y, z'
loop_
 _atom_site_type_symbol
 _atom_site_label
 _atom_site_symmetry_multiplicity
 _atom_site_fract_x
 _atom_site_fract_y
 _atom_site_fract_z
 _atom_site_fract_occupancy
 Be  Be1  1  0.00000  0.00000  0.68775  1
 Be  Be2  1  0.00000  0.00000  0.31225  1
 Na  Na1  1  0.50000  0.50000  0.00000  1
 Pb  Pb1  1  0.50000  0.50000  0.50000  1
