CIF file written using JARVIS-Tools package.
data_LaCoPO
_symmetry_space_group_name_H-M  'P4/nmm'
_cell_length_a       3.95821
_cell_length_b       3.95821
_cell_length_c       8.39775
_cell_angle_alpha    90
_cell_angle_beta     90
_cell_angle_gamma    90

_symmetry_Int_Tables_number  129
_chemical_formula_structural  LaCoPO
_chemical_formula_sum  La2Co2P2O2
_cell_volume  131.57086023092438
_cell_formula_units_Z  2
loop_
  _symmetry_equiv_pos_site_id
 _symmetry_equiv_pos_as_xyz
 1  'x, y, z'
loop_
 _atom_site_type_symbol
 _atom_site_label
 _atom_site_symmetry_multiplicity
 _atom_site_fract_x
 _atom_site_fract_y
 _atom_site_fract_z
 _atom_site_fract_occupancy
 Co  Co1  1  0.25000  0.75000  0.50000  1
 Co  Co2  1  0.75000  0.25000  0.50000  1
 La  La1  1  0.75000  0.75000  0.84770  1
 La  La2  1  0.25000  0.25000  0.15230  1
 O  O1  1  0.75000  0.25000  0.00000  1
 O  O2  1  0.25000  0.75000  0.00000  1
 P  P1  1  0.25000  0.25000  0.62771  1
 P  P2  1  0.75000  0.75000  0.37229  1
