CIF file written using JARVIS-Tools package.
data_Y2H2C
_symmetry_space_group_name_H-M  'P-3m1'
_cell_length_a       3.66274
_cell_length_b       3.6628
_cell_length_c       6.00393
_cell_angle_alpha    90
_cell_angle_beta     90.0006
_cell_angle_gamma    120.001

_symmetry_Int_Tables_number  164
_chemical_formula_structural  Y2H2C
_chemical_formula_sum  Y2H2C
_cell_volume  69.75626240585365
_cell_formula_units_Z  1
loop_
  _symmetry_equiv_pos_site_id
 _symmetry_equiv_pos_as_xyz
 1  'x, y, z'
loop_
 _atom_site_type_symbol
 _atom_site_label
 _atom_site_symmetry_multiplicity
 _atom_site_fract_x
 _atom_site_fract_y
 _atom_site_fract_z
 _atom_site_fract_occupancy
 C  C1  1  0.00000  0.00000  0.00000  1
 H  H1  1  0.66667  0.33333  0.38909  1
 H  H2  1  0.33333  0.66667  0.61091  1
 Y  Y1  1  0.66668  0.33334  0.77452  1
 Y  Y2  1  0.33332  0.66666  0.22548  1
