CIF file written using JARVIS-Tools package.
data_Bi2PO6
_symmetry_space_group_name_H-M  'Ccce'
_cell_length_a       5.7114
_cell_length_b       5.74018
_cell_length_c       7.77791
_cell_angle_alpha    90
_cell_angle_beta     111.54
_cell_angle_gamma    90

_symmetry_Int_Tables_number  68
_chemical_formula_structural  Bi2PO6
_chemical_formula_sum  Bi4P2O2
_cell_volume  237.18577514941703
_cell_formula_units_Z  2
loop_
  _symmetry_equiv_pos_site_id
 _symmetry_equiv_pos_as_xyz
 1  'x, y, z'
loop_
 _atom_site_type_symbol
 _atom_site_label
 _atom_site_symmetry_multiplicity
 _atom_site_fract_x
 _atom_site_fract_y
 _atom_site_fract_z
 _atom_site_fract_occupancy
 Bi  Bi1  1  0.20924  0.50001  0.32738  1
 Bi  Bi2  1  0.38186  0.00001  0.67262  1
 Bi  Bi3  1  0.88186  0.49999  0.67262  1
 Bi  Bi4  1  0.70924  -0.00001  0.32738  1
 O  O1  1  0.12813  0.85092  0.86564  1
 O  O2  1  0.96287  0.85074  0.13421  1
 O  O3  1  0.04560  0.23542  0.50002  1
 O  O4  1  0.26249  0.14908  0.13436  1
 O  O5  1  0.32867  0.35074  0.86579  1
 O  O6  1  0.54560  0.26458  0.50002  1
 O  O7  1  0.46287  0.64926  0.13421  1
 O  O8  1  0.62813  0.64908  0.86564  1
 O  O9  1  0.82867  0.14926  0.86579  1
 O  O10  1  0.76249  0.35092  0.13436  1
 O  O11  1  0.54558  0.76458  0.49998  1
 O  O12  1  0.04558  0.73542  0.49998  1
 P  P1  1  0.54556  0.50000  0.00000  1
 P  P2  1  0.04556  0.00000  0.00000  1
