CIF file written using JARVIS-Tools package.
data_MnP2O6
_symmetry_space_group_name_H-M  'C2/c'
_cell_length_a       7.35257
_cell_length_b       7.35257
_cell_length_c       9.92801
_cell_angle_alpha    99.2206
_cell_angle_beta     109.525
_cell_angle_gamma    109.411

_symmetry_Int_Tables_number  15
_chemical_formula_structural  MnP2O6
_chemical_formula_sum  Mn4P8O24
_cell_volume  454.3284354498716
_cell_formula_units_Z  4
loop_
  _symmetry_equiv_pos_site_id
 _symmetry_equiv_pos_as_xyz
 1  'x, y, z'
loop_
 _atom_site_type_symbol
 _atom_site_label
 _atom_site_symmetry_multiplicity
 _atom_site_fract_x
 _atom_site_fract_y
 _atom_site_fract_z
 _atom_site_fract_occupancy
 Mn  Mn1  1  0.50000  0.50000  0.50000  1
 Mn  Mn2  1  0.50000  -0.00000  0.00000  1
 Mn  Mn3  1  0.29439  0.54439  0.75000  1
 Mn  Mn4  1  0.70561  0.45561  0.25000  1
 O  O1  1  0.19687  0.78731  0.81641  1
 O  O2  1  0.19316  0.29856  0.34699  1
 O  O3  1  0.93841  0.72022  0.93073  1
 O  O4  1  0.80684  0.70144  0.65301  1
 O  O5  1  0.54843  0.15383  0.84699  1
 O  O6  1  0.06159  0.27978  0.06927  1
 O  O7  1  0.99797  0.66856  0.41100  1
 O  O8  1  0.52911  0.61954  0.31641  1
 O  O9  1  0.28949  0.00768  0.56927  1
 O  O10  1  0.96662  0.96247  0.15098  1
 O  O11  1  0.31148  0.81563  0.34902  1
 O  O12  1  0.03338  0.03753  0.84902  1
 O  O13  1  0.68852  0.18437  0.65098  1
 O  O14  1  0.71051  0.99232  0.43073  1
 O  O15  1  0.80313  0.21269  0.18359  1
 O  O16  1  0.61531  0.78594  0.91939  1
 O  O17  1  0.45157  0.84617  0.15301  1
 O  O18  1  0.63345  0.30408  0.41939  1
 O  O19  1  0.38469  0.21406  0.08061  1
 O  O20  1  0.00203  0.33144  0.58900  1
 O  O21  1  0.24244  0.41303  0.91100  1
 O  O22  1  0.47089  0.38046  0.68359  1
 O  O23  1  0.36655  0.69592  0.58061  1
 O  O24  1  0.75756  0.58697  0.08900  1
 P  P1  1  0.00933  0.19750  0.19910  1
 P  P2  1  0.50161  0.18978  0.69910  1
 P  P3  1  0.99067  0.80250  0.80090  1
 P  P4  1  0.49839  0.81022  0.30090  1
 P  P5  1  0.20002  0.24802  0.97983  1
 P  P6  1  0.23181  0.77981  0.47983  1
 P  P7  1  0.79998  0.75198  0.02017  1
 P  P8  1  0.76819  0.22019  0.52017  1
