CIF file written using JARVIS-Tools package.
data_Bi2Pd
_symmetry_space_group_name_H-M  'C2/m'
_cell_length_a       4.31459
_cell_length_b       5.75116
_cell_length_c       6.82091
_cell_angle_alpha    102.195
_cell_angle_beta     108.44
_cell_angle_gamma    89.9995

_symmetry_Int_Tables_number  12
_chemical_formula_structural  Bi2Pd
_chemical_formula_sum  Bi4Pd2
_cell_volume  156.53170458266806
_cell_formula_units_Z  2
loop_
  _symmetry_equiv_pos_site_id
 _symmetry_equiv_pos_as_xyz
 1  'x, y, z'
loop_
 _atom_site_type_symbol
 _atom_site_label
 _atom_site_symmetry_multiplicity
 _atom_site_fract_x
 _atom_site_fract_y
 _atom_site_fract_z
 _atom_site_fract_occupancy
 Bi  Bi1  1  0.84338  0.68469  0.68674  1
 Bi  Bi2  1  0.15662  0.31531  0.31326  1
 Bi  Bi3  1  0.42717  0.20740  0.85435  1
 Bi  Bi4  1  0.57283  0.79260  0.14565  1
 Pd  Pd1  1  0.77608  0.17055  0.55217  1
 Pd  Pd2  1  0.22392  0.82945  0.44783  1
