CIF file written using JARVIS-Tools package.
data_KMg6Cu
_symmetry_space_group_name_H-M  'Amm2'
_cell_length_a       7.77671
_cell_length_b       7.77671
_cell_length_c       4.67792
_cell_angle_alpha    90
_cell_angle_beta     90
_cell_angle_gamma    132.564

_symmetry_Int_Tables_number  38
_chemical_formula_structural  KMg6Cu
_chemical_formula_sum  KMg6Cu
_cell_volume  208.3671089141126
_cell_formula_units_Z  1
loop_
  _symmetry_equiv_pos_site_id
 _symmetry_equiv_pos_as_xyz
 1  'x, y, z'
loop_
 _atom_site_type_symbol
 _atom_site_label
 _atom_site_symmetry_multiplicity
 _atom_site_fract_x
 _atom_site_fract_y
 _atom_site_fract_z
 _atom_site_fract_occupancy
 Cu  Cu1  1  0.10184  0.39816  0.25000  1
 K  K1  1  0.28688  0.21312  0.75000  1
 Mg  Mg1  1  0.20334  0.80660  0.25000  1
 Mg  Mg2  1  0.69340  0.29666  0.25000  1
 Mg  Mg3  1  0.69231  0.80769  0.25000  1
 Mg  Mg4  1  0.32683  0.66946  0.75000  1
 Mg  Mg5  1  0.83054  0.17317  0.75000  1
 Mg  Mg6  1  0.86485  0.63515  0.75000  1
