CIF file written using JARVIS-Tools package.
data_Na2Si4Cu5O14
_symmetry_space_group_name_H-M  'P1'
_cell_length_a       5.79079
_cell_length_b       7.7223
_cell_length_c       7.97148
_cell_angle_alpha    64.9508
_cell_angle_beta     88.5851
_cell_angle_gamma    70.3811

_symmetry_Int_Tables_number  1
_chemical_formula_structural  Na2Si4Cu5O14
_chemical_formula_sum  Na2Si4Cu5O4
_cell_volume  301.2986214343569
_cell_formula_units_Z  1
loop_
  _symmetry_equiv_pos_site_id
 _symmetry_equiv_pos_as_xyz
 1  'x, y, z'
loop_
 _atom_site_type_symbol
 _atom_site_label
 _atom_site_symmetry_multiplicity
 _atom_site_fract_x
 _atom_site_fract_y
 _atom_site_fract_z
 _atom_site_fract_occupancy
 Cu  Cu1  1  0.01018  0.73654  0.63283  1
 Cu  Cu2  1  0.98982  0.26346  0.36717  1
 Cu  Cu3  1  0.81973  0.06793  0.77672  1
 Cu  Cu4  1  0.69481  0.71536  0.09406  1
 Cu  Cu5  1  0.50000  0.50000  0.50000  1
 Na  Na1  1  0.23238  0.63377  0.05682  1
 Na  Na2  1  0.76762  0.36623  0.94318  1
 O  O1  1  0.19340  0.10271  0.96624  1
 O  O2  1  0.18807  0.71745  0.47223  1
 O  O3  1  0.09093  0.86002  0.73467  1
 O  O4  1  0.90907  0.13998  0.26533  1
 O  O5  1  0.28456  0.14694  0.45206  1
 O  O6  1  0.06017  0.50087  0.79172  1
 O  O7  1  0.93983  0.49913  0.20828  1
 O  O8  1  0.71544  0.85306  0.54794  1
 O  O9  1  0.51139  0.29398  0.75525  1
 O  O10  1  0.48861  0.70602  0.24475  1
 O  O11  1  0.41845  0.30640  0.07843  1
 O  O12  1  0.80660  0.89729  0.03376  1
 O  O13  1  0.81193  0.28255  0.52777  1
 O  O14  1  0.58155  0.69360  0.92157  1
 Si  Si1  1  0.18028  0.93207  0.22328  1
 Si  Si2  1  0.41801  0.89665  0.68158  1
 Si  Si3  1  0.58199  0.10335  0.31842  1
 Si  Si4  1  0.30519  0.28464  0.90594  1
