CIF file written using JARVIS-Tools package.
data_MgMn2Be
_symmetry_space_group_name_H-M  'P4mm'
_cell_length_a       2.78881
_cell_length_b       2.78881
_cell_length_c       6.15427
_cell_angle_alpha    90
_cell_angle_beta     90
_cell_angle_gamma    90

_symmetry_Int_Tables_number  99
_chemical_formula_structural  MgMn2Be
_chemical_formula_sum  MgMn2Be
_cell_volume  47.86472432830802
_cell_formula_units_Z  1
loop_
  _symmetry_equiv_pos_site_id
 _symmetry_equiv_pos_as_xyz
 1  'x, y, z'
loop_
 _atom_site_type_symbol
 _atom_site_label
 _atom_site_symmetry_multiplicity
 _atom_site_fract_x
 _atom_site_fract_y
 _atom_site_fract_z
 _atom_site_fract_occupancy
 Be  Be1  1  0.00000  0.00000  0.45014  1
 Mg  Mg1  1  0.50000  0.50000  0.74464  1
 Mn  Mn1  1  0.00000  0.00000  0.05489  1
 Mn  Mn2  1  0.50000  0.50000  0.25033  1
