CIF file written using JARVIS-Tools package.
data_Li2FeCo3O8
_symmetry_space_group_name_H-M  'R3m'
_cell_length_a       5.70358
_cell_length_b       5.70358
_cell_length_c       5.70359
_cell_angle_alpha    59.7504
_cell_angle_beta     59.7504
_cell_angle_gamma    59.7504

_symmetry_Int_Tables_number  160
_chemical_formula_structural  Li2FeCo3O8
_chemical_formula_sum  Li2FeCo3O8
_cell_volume  130.4546569362025
_cell_formula_units_Z  1
loop_
  _symmetry_equiv_pos_site_id
 _symmetry_equiv_pos_as_xyz
 1  'x, y, z'
loop_
 _atom_site_type_symbol
 _atom_site_label
 _atom_site_symmetry_multiplicity
 _atom_site_fract_x
 _atom_site_fract_y
 _atom_site_fract_z
 _atom_site_fract_occupancy
 Co  Co1  1  0.00821  0.49842  0.49842  1
 Co  Co2  1  0.49842  0.49842  0.00821  1
 Co  Co3  1  0.49842  0.00821  0.49842  1
 Fe  Fe1  1  0.88153  0.88153  0.88153  1
 Li  Li1  1  0.12167  0.12167  0.12167  1
 Li  Li2  1  0.49758  0.49758  0.49758  1
 O  O1  1  0.26313  0.26313  0.26313  1
 O  O2  1  0.25055  0.71182  0.25055  1
 O  O3  1  0.25055  0.25055  0.71182  1
 O  O4  1  0.71182  0.25055  0.25055  1
 O  O5  1  0.27956  0.74894  0.74894  1
 O  O6  1  0.74894  0.74894  0.27956  1
 O  O7  1  0.74894  0.27956  0.74894  1
 O  O8  1  0.74068  0.74068  0.74068  1
