CIF file written using JARVIS-Tools package.
data_CaMgAsO4F
_symmetry_space_group_name_H-M  'C2/c'
_cell_length_a       5.63515
_cell_length_b       5.63516
_cell_length_c       7.11379
_cell_angle_alpha    103.825
_cell_angle_beta     103.825
_cell_angle_gamma    106.492

_symmetry_Int_Tables_number  15
_chemical_formula_structural  CaMgAsO4F
_chemical_formula_sum  Ca2Mg2As2O8F2
_cell_volume  198.58384571662504
_cell_formula_units_Z  2
loop_
  _symmetry_equiv_pos_site_id
 _symmetry_equiv_pos_as_xyz
 1  'x, y, z'
loop_
 _atom_site_type_symbol
 _atom_site_label
 _atom_site_symmetry_multiplicity
 _atom_site_fract_x
 _atom_site_fract_y
 _atom_site_fract_z
 _atom_site_fract_occupancy
 As  As1  1  0.82470  0.68243  0.25098  1
 As  As2  1  0.18243  0.32470  0.75098  1
 Ca  Ca1  1  0.83591  0.67123  0.75097  1
 Ca  Ca2  1  0.17123  0.33591  0.25097  1
 F  F1  1  0.42150  0.08562  0.25097  1
 F  F2  1  0.58562  0.92150  0.75097  1
 Mg  Mg1  1  0.50355  0.00357  0.00097  1
 Mg  Mg2  1  0.50357  0.00355  0.50097  1
 O  O1  1  0.24385  0.62218  0.92710  1
 O  O2  1  0.60330  0.67470  0.38215  1
 O  O3  1  0.83242  0.90384  0.11981  1
 O  O4  1  0.76325  0.38495  0.07484  1
 O  O5  1  0.17470  0.10330  0.88215  1
 O  O6  1  0.40384  0.33242  0.61981  1
 O  O7  1  0.12218  0.74385  0.42710  1
 O  O8  1  0.88495  0.26325  0.57484  1
