CIF file written using JARVIS-Tools package.
data_Be2PCl
_symmetry_space_group_name_H-M  'P4mm'
_cell_length_a       3.20753
_cell_length_b       3.20753
_cell_length_c       5.64371
_cell_angle_alpha    90
_cell_angle_beta     90
_cell_angle_gamma    90

_symmetry_Int_Tables_number  99
_chemical_formula_structural  Be2PCl
_chemical_formula_sum  Be2PCl
_cell_volume  58.06386554830365
_cell_formula_units_Z  1
loop_
  _symmetry_equiv_pos_site_id
 _symmetry_equiv_pos_as_xyz
 1  'x, y, z'
loop_
 _atom_site_type_symbol
 _atom_site_label
 _atom_site_symmetry_multiplicity
 _atom_site_fract_x
 _atom_site_fract_y
 _atom_site_fract_z
 _atom_site_fract_occupancy
 Be  Be1  1  0.00000  0.00000  0.85777  1
 Be  Be2  1  0.50000  0.50000  0.28739  1
 Cl  Cl1  1  0.00000  0.00000  0.43273  1
 P  P1  1  0.50000  0.50000  0.92210  1
