CIF file written using JARVIS-Tools package.
data_ThSi2
_symmetry_space_group_name_H-M  'I4_1/amd'
_cell_length_a       4.15053
_cell_length_b       4.15053
_cell_length_c       7.87262
_cell_angle_alpha    105.284
_cell_angle_beta     105.284
_cell_angle_gamma    90

_symmetry_Int_Tables_number  141
_chemical_formula_structural  ThSi2
_chemical_formula_sum  Th2Si4
_cell_volume  125.84501787678529
_cell_formula_units_Z  2
loop_
  _symmetry_equiv_pos_site_id
 _symmetry_equiv_pos_as_xyz
 1  'x, y, z'
loop_
 _atom_site_type_symbol
 _atom_site_label
 _atom_site_symmetry_multiplicity
 _atom_site_fract_x
 _atom_site_fract_y
 _atom_site_fract_z
 _atom_site_fract_occupancy
 Si  Si1  1  0.54189  0.79189  0.58378  1
 Si  Si2  1  0.29189  0.04189  0.08378  1
 Si  Si3  1  0.45811  0.20811  0.41622  1
 Si  Si4  1  0.70811  0.95811  0.91622  1
 Th  Th1  1  0.12500  0.37500  0.75000  1
 Th  Th2  1  0.87500  0.62500  0.25000  1
