CIF file written using JARVIS-Tools package.
data_Mg6CrGa
_symmetry_space_group_name_H-M  'Amm2'
_cell_length_a       6.19362
_cell_length_b       6.19362
_cell_length_c       4.89071
_cell_angle_alpha    90
_cell_angle_beta     90
_cell_angle_gamma    119.83

_symmetry_Int_Tables_number  38
_chemical_formula_structural  Mg6CrGa
_chemical_formula_sum  Mg6CrGa
_cell_volume  162.75479423677155
_cell_formula_units_Z  1
loop_
  _symmetry_equiv_pos_site_id
 _symmetry_equiv_pos_as_xyz
 1  'x, y, z'
loop_
 _atom_site_type_symbol
 _atom_site_label
 _atom_site_symmetry_multiplicity
 _atom_site_fract_x
 _atom_site_fract_y
 _atom_site_fract_z
 _atom_site_fract_occupancy
 Cr  Cr1  1  0.17178  0.32822  0.25000  1
 Ga  Ga1  1  0.32456  0.17544  0.75000  1
 Mg  Mg1  1  0.16954  0.83912  0.25000  1
 Mg  Mg2  1  0.66088  0.33046  0.25000  1
 Mg  Mg3  1  0.66599  0.83401  0.25000  1
 Mg  Mg4  1  0.33056  0.65587  0.75000  1
 Mg  Mg5  1  0.84413  0.16944  0.75000  1
 Mg  Mg6  1  0.83255  0.66745  0.75000  1
