CIF file written using JARVIS-Tools package.
data_NdSiRu
_symmetry_space_group_name_H-M  'P4/nmm'
_cell_length_a       4.23967
_cell_length_b       4.23967
_cell_length_c       6.90521
_cell_angle_alpha    90
_cell_angle_beta     90
_cell_angle_gamma    90

_symmetry_Int_Tables_number  129
_chemical_formula_structural  NdSiRu
_chemical_formula_sum  Nd2Si2Ru2
_cell_volume  124.12001410038307
_cell_formula_units_Z  2
loop_
  _symmetry_equiv_pos_site_id
 _symmetry_equiv_pos_as_xyz
 1  'x, y, z'
loop_
 _atom_site_type_symbol
 _atom_site_label
 _atom_site_symmetry_multiplicity
 _atom_site_fract_x
 _atom_site_fract_y
 _atom_site_fract_z
 _atom_site_fract_occupancy
 Nd  Nd1  1  0.75000  0.75000  0.32270  1
 Nd  Nd2  1  0.25000  0.25000  0.67730  1
 Ru  Ru1  1  0.75000  0.25000  0.00000  1
 Ru  Ru2  1  0.25000  0.75000  0.00000  1
 Si  Si1  1  0.75000  0.75000  0.82335  1
 Si  Si2  1  0.25000  0.25000  0.17665  1
