CIF file written using JARVIS-Tools package.
data_Sr4Cl6O
_symmetry_space_group_name_H-M  'P6_3mc'
_cell_length_a       9.48642
_cell_length_b       9.48642
_cell_length_c       7.19348
_cell_angle_alpha    90
_cell_angle_beta     90
_cell_angle_gamma    120

_symmetry_Int_Tables_number  186
_chemical_formula_structural  Sr4Cl6O
_chemical_formula_sum  Sr8Cl2O2
_cell_volume  560.6278942128629
_cell_formula_units_Z  2
loop_
  _symmetry_equiv_pos_site_id
 _symmetry_equiv_pos_as_xyz
 1  'x, y, z'
loop_
 _atom_site_type_symbol
 _atom_site_label
 _atom_site_symmetry_multiplicity
 _atom_site_fract_x
 _atom_site_fract_y
 _atom_site_fract_z
 _atom_site_fract_occupancy
 Cl  Cl1  1  0.46699  0.53301  0.60667  1
 Cl  Cl2  1  0.53301  0.06602  0.10667  1
 Cl  Cl3  1  0.86004  0.72009  0.78691  1
 Cl  Cl4  1  0.13996  0.27991  0.28691  1
 Cl  Cl5  1  0.72009  0.86004  0.28691  1
 Cl  Cl6  1  0.86004  0.13996  0.78691  1
 Cl  Cl7  1  0.53301  0.46699  0.10667  1
 Cl  Cl8  1  0.06602  0.53301  0.60667  1
 Cl  Cl9  1  0.27991  0.13996  0.78691  1
 Cl  Cl10  1  0.13996  0.86004  0.28691  1
 Cl  Cl11  1  0.46699  0.93398  0.60667  1
 Cl  Cl12  1  0.93398  0.46699  0.10667  1
 O  O1  1  0.66667  0.33333  0.49959  1
 O  O2  1  0.33333  0.66667  -0.00041  1
 Sr  Sr1  1  0.33333  0.66667  0.32737  1
 Sr  Sr2  1  0.19617  0.39233  0.89458  1
 Sr  Sr3  1  0.80383  0.60767  0.39458  1
 Sr  Sr4  1  0.39233  0.19617  0.39458  1
 Sr  Sr5  1  0.19617  0.80383  0.89458  1
 Sr  Sr6  1  0.60767  0.80383  0.89458  1
 Sr  Sr7  1  0.80383  0.19617  0.39458  1
 Sr  Sr8  1  0.66667  0.33333  0.82737  1
