CIF file written using JARVIS-Tools package.
data_Zn2GeS3
_symmetry_space_group_name_H-M  'P3m1'
_cell_length_a       3.84448
_cell_length_b       3.84448
_cell_length_c       10.5363
_cell_angle_alpha    90
_cell_angle_beta     90
_cell_angle_gamma    120

_symmetry_Int_Tables_number  156
_chemical_formula_structural  Zn2GeS3
_chemical_formula_sum  Zn2GeS3
_cell_volume  134.86316022825517
_cell_formula_units_Z  1
loop_
  _symmetry_equiv_pos_site_id
 _symmetry_equiv_pos_as_xyz
 1  'x, y, z'
loop_
 _atom_site_type_symbol
 _atom_site_label
 _atom_site_symmetry_multiplicity
 _atom_site_fract_x
 _atom_site_fract_y
 _atom_site_fract_z
 _atom_site_fract_occupancy
 Ge  Ge1  1  0.00000  0.00000  0.00138  1
 S  S1  1  0.00000  0.00000  0.28356  1
 S  S2  1  0.66667  0.33333  0.58348  1
 S  S3  1  0.33333  0.66667  0.88039  1
 Zn  Zn1  1  0.66667  0.33333  0.35237  1
 Zn  Zn2  1  0.33333  0.66667  0.64882  1
