CIF file written using JARVIS-Tools package.
data_KCSN
_symmetry_space_group_name_H-M  'P-1'
_cell_length_a       7.46758
_cell_length_b       6.88835
_cell_length_c       7.60869
_cell_angle_alpha    112.217
_cell_angle_beta     89.6739
_cell_angle_gamma    89.5008

_symmetry_Int_Tables_number  2
_chemical_formula_structural  KCSN
_chemical_formula_sum  K4C4S4N4
_cell_volume  362.2984710122964
_cell_formula_units_Z  4
loop_
  _symmetry_equiv_pos_site_id
 _symmetry_equiv_pos_as_xyz
 1  'x, y, z'
loop_
 _atom_site_type_symbol
 _atom_site_label
 _atom_site_symmetry_multiplicity
 _atom_site_fract_x
 _atom_site_fract_y
 _atom_site_fract_z
 _atom_site_fract_occupancy
 C  C1  1  0.52686  0.75155  0.23347  1
 C  C2  1  0.47316  0.24873  0.76674  1
 C  C3  1  0.97155  0.75551  0.73409  1
 C  C4  1  0.02847  0.24422  0.26569  1
 K  K1  1  0.91987  0.21346  0.74009  1
 K  K2  1  0.58272  0.20700  0.23747  1
 K  K3  1  0.08008  0.78622  0.25969  1
 K  K4  1  0.41722  0.79331  0.76275  1
 N  N1  1  0.93040  0.20798  0.37247  1
 N  N2  1  0.42916  0.78961  0.12792  1
 N  N3  1  0.57088  0.21066  0.87228  1
 N  N4  1  0.06965  0.79177  0.62735  1
 S  S1  1  0.66479  0.70720  0.38022  1
 S  S2  1  0.16671  0.28620  0.11710  1
 S  S3  1  0.83327  0.71351  0.88265  1
 S  S4  1  0.33520  0.29306  0.62000  1
