CIF file written using JARVIS-Tools package.
data_LaMg6Mo
_symmetry_space_group_name_H-M  'Amm2'
_cell_length_a       6.59685
_cell_length_b       6.59685
_cell_length_c       4.9711
_cell_angle_alpha    90
_cell_angle_beta     90
_cell_angle_gamma    122.09

_symmetry_Int_Tables_number  38
_chemical_formula_structural  LaMg6Mo
_chemical_formula_sum  LaMg6Mo
_cell_volume  183.2818712152913
_cell_formula_units_Z  1
loop_
  _symmetry_equiv_pos_site_id
 _symmetry_equiv_pos_as_xyz
 1  'x, y, z'
loop_
 _atom_site_type_symbol
 _atom_site_label
 _atom_site_symmetry_multiplicity
 _atom_site_fract_x
 _atom_site_fract_y
 _atom_site_fract_z
 _atom_site_fract_occupancy
 La  La1  1  0.20359  0.29641  0.25000  1
 Mg  Mg1  1  0.18370  0.82344  0.25000  1
 Mg  Mg2  1  0.67656  0.31630  0.25000  1
 Mg  Mg3  1  0.66169  0.83831  0.25000  1
 Mg  Mg4  1  0.32668  0.68711  0.75000  1
 Mg  Mg5  1  0.81289  0.17332  0.75000  1
 Mg  Mg6  1  0.82214  0.67786  0.75000  1
 Mo  Mo1  1  0.31275  0.18725  0.75000  1
