CIF file written using JARVIS-Tools package.
data_KCd4As3
_symmetry_space_group_name_H-M  'R-3m'
_cell_length_a       4.53259
_cell_length_b       4.53259
_cell_length_c       12.3126
_cell_angle_alpha    79.3935
_cell_angle_beta     79.3935
_cell_angle_gamma    60.0001

_symmetry_Int_Tables_number  166
_chemical_formula_structural  KCd4As3
_chemical_formula_sum  KCd4As3
_cell_volume  214.06051110056552
_cell_formula_units_Z  1
loop_
  _symmetry_equiv_pos_site_id
 _symmetry_equiv_pos_as_xyz
 1  'x, y, z'
loop_
 _atom_site_type_symbol
 _atom_site_label
 _atom_site_symmetry_multiplicity
 _atom_site_fract_x
 _atom_site_fract_y
 _atom_site_fract_z
 _atom_site_fract_occupancy
 As  As1  1  0.22646  0.22646  0.32062  1
 As  As2  1  0.77354  0.77354  0.67938  1
 As  As3  1  0.00000  0.00000  0.00000  1
 Cd  Cd1  1  0.08976  0.08976  0.73071  1
 Cd  Cd2  1  0.91024  0.91024  0.26929  1
 Cd  Cd3  1  0.30104  0.30104  0.09687  1
 Cd  Cd4  1  0.69896  0.69896  0.90313  1
 K  K1  1  0.50000  0.50000  0.50000  1
