CIF file written using JARVIS-Tools package.
data_LiMn7O9F3
_symmetry_space_group_name_H-M  'R3'
_cell_length_a       5.98024
_cell_length_b       5.98024
_cell_length_c       5.98024
_cell_angle_alpha    91.5686
_cell_angle_beta     91.5686
_cell_angle_gamma    91.5686

_symmetry_Int_Tables_number  146
_chemical_formula_structural  LiMn7O9F3
_chemical_formula_sum  LiMn7O9F3
_cell_volume  213.62792077459068
_cell_formula_units_Z  1
loop_
  _symmetry_equiv_pos_site_id
 _symmetry_equiv_pos_as_xyz
 1  'x, y, z'
loop_
 _atom_site_type_symbol
 _atom_site_label
 _atom_site_symmetry_multiplicity
 _atom_site_fract_x
 _atom_site_fract_y
 _atom_site_fract_z
 _atom_site_fract_occupancy
 F  F1  1  0.58376  0.22071  0.38962  1
 F  F2  1  0.38962  0.58376  0.22071  1
 F  F3  1  0.22071  0.38962  0.58376  1
 Li  Li1  1  0.53523  0.53523  0.53523  1
 Mn  Mn1  1  0.98151  0.98151  0.98151  1
 Mn  Mn2  1  0.75470  0.54858  0.08409  1
 Mn  Mn3  1  0.54858  0.08409  0.75470  1
 Mn  Mn4  1  0.94228  0.24033  0.41942  1
 Mn  Mn5  1  0.41942  0.94228  0.24033  1
 Mn  Mn6  1  0.08409  0.75470  0.54858  1
 Mn  Mn7  1  0.24033  0.41942  0.94228  1
 O  O1  1  0.87241  0.05807  0.68982  1
 O  O2  1  0.84904  0.57335  0.40793  1
 O  O3  1  0.30095  0.08900  0.95920  1
 O  O4  1  0.05807  0.68982  0.87241  1
 O  O5  1  0.68982  0.87241  0.05807  1
 O  O6  1  0.40793  0.84904  0.57335  1
 O  O7  1  0.08900  0.95920  0.30095  1
 O  O8  1  0.57335  0.40793  0.84904  1
 O  O9  1  0.95920  0.30095  0.08900  1
