CIF file written using JARVIS-Tools package.
data_Ba2NdRuO6
_symmetry_space_group_name_H-M  'C2/m'
_cell_length_a       6.02952
_cell_length_b       6.0756
_cell_length_c       8.53207
_cell_angle_alpha    90.1905
_cell_angle_beta     90
_cell_angle_gamma    90

_symmetry_Int_Tables_number  12
_chemical_formula_structural  Ba2NdRuO6
_chemical_formula_sum  Ba4Nd2Ru2O2
_cell_volume  312.55319885423245
_cell_formula_units_Z  2
loop_
  _symmetry_equiv_pos_site_id
 _symmetry_equiv_pos_as_xyz
 1  'x, y, z'
loop_
 _atom_site_type_symbol
 _atom_site_label
 _atom_site_symmetry_multiplicity
 _atom_site_fract_x
 _atom_site_fract_y
 _atom_site_fract_z
 _atom_site_fract_occupancy
 Ba  Ba1  1  0.50008  0.50156  0.74883  1
 Ba  Ba2  1  0.99992  0.00156  0.24883  1
 Ba  Ba3  1  0.00008  0.99844  0.75117  1
 Ba  Ba4  1  0.49992  0.49844  0.25117  1
 Nd  Nd1  1  0.00000  0.50000  -0.00000  1
 Nd  Nd2  1  0.50000  0.00000  0.50000  1
 O  O1  1  0.50005  0.95858  0.22904  1
 O  O2  1  0.99995  0.45858  0.72904  1
 O  O3  1  0.49995  0.04142  0.77096  1
 O  O4  1  0.23048  0.27156  0.47850  1
 O  O5  1  0.73048  0.22844  0.02150  1
 O  O6  1  0.76952  0.72844  0.52150  1
 O  O7  1  0.26931  0.22823  0.02155  1
 O  O8  1  0.00005  0.54142  0.27096  1
 O  O9  1  0.73069  0.77177  0.97845  1
 O  O10  1  0.76931  0.27177  0.47845  1
 O  O11  1  0.26952  0.77156  0.97850  1
 O  O12  1  0.23069  0.72823  0.52155  1
 Ru  Ru1  1  0.50000  0.00000  0.00000  1
 Ru  Ru2  1  0.00000  0.50000  0.50000  1
