CIF file written using JARVIS-Tools package.
data_U2IrC2
_symmetry_space_group_name_H-M  'I4/mmm'
_cell_length_a       3.48886
_cell_length_b       3.48886
_cell_length_c       6.71637
_cell_angle_alpha    105.054
_cell_angle_beta     105.054
_cell_angle_gamma    90.0001

_symmetry_Int_Tables_number  139
_chemical_formula_structural  U2IrC2
_chemical_formula_sum  U2IrC2
_cell_volume  76.0377652091859
_cell_formula_units_Z  1
loop_
  _symmetry_equiv_pos_site_id
 _symmetry_equiv_pos_as_xyz
 1  'x, y, z'
loop_
 _atom_site_type_symbol
 _atom_site_label
 _atom_site_symmetry_multiplicity
 _atom_site_fract_x
 _atom_site_fract_y
 _atom_site_fract_z
 _atom_site_fract_occupancy
 C  C1  1  0.82945  0.82945  0.65890  1
 C  C2  1  0.17055  0.17055  0.34110  1
 Ir  Ir1  1  0.00000  0.00000  0.00000  1
 U  U1  1  0.35407  0.35407  0.70815  1
 U  U2  1  0.64593  0.64593  0.29185  1
