CIF file written using JARVIS-Tools package.
data_NaH4IO2
_symmetry_space_group_name_H-M  'P-1'
_cell_length_a       7.13976
_cell_length_b       5.87823
_cell_length_c       7.06977
_cell_angle_alpha    81.1258
_cell_angle_beta     117.282
_cell_angle_gamma    114.293

_symmetry_Int_Tables_number  2
_chemical_formula_structural  NaH4IO2
_chemical_formula_sum  Na2H8I2O4
_cell_volume  240.14033309344342
_cell_formula_units_Z  2
loop_
  _symmetry_equiv_pos_site_id
 _symmetry_equiv_pos_as_xyz
 1  'x, y, z'
loop_
 _atom_site_type_symbol
 _atom_site_label
 _atom_site_symmetry_multiplicity
 _atom_site_fract_x
 _atom_site_fract_y
 _atom_site_fract_z
 _atom_site_fract_occupancy
 H  H1  1  0.10691  0.39121  0.86142  1
 H  H2  1  0.89309  0.60879  0.13858  1
 H  H3  1  0.86261  0.20261  0.71996  1
 H  H4  1  0.13739  0.79739  0.28004  1
 H  H5  1  0.26412  0.05397  0.86193  1
 H  H6  1  0.73588  0.94603  0.13807  1
 H  H7  1  0.34756  0.95355  0.73320  1
 H  H8  1  0.65244  0.04645  0.26680  1
 I  I1  1  0.62194  0.75350  0.77690  1
 I  I2  1  0.37806  0.24650  0.22310  1
 Na  Na1  1  0.86156  0.67937  0.51709  1
 Na  Na2  1  0.13844  0.32063  0.48291  1
 O  O1  1  0.98284  0.36342  0.71518  1
 O  O2  1  0.01716  0.63658  0.28482  1
 O  O3  1  0.22275  -0.00042  0.71757  1
 O  O4  1  0.77725  0.00042  0.28243  1
