CIF file written using JARVIS-Tools package.
data_RbS
_symmetry_space_group_name_H-M  'Immm'
_cell_length_a       4.94167
_cell_length_b       6.0478
_cell_length_c       6.04779
_cell_angle_alpha    68.8817
_cell_angle_beta     65.8862
_cell_angle_gamma    65.8861

_symmetry_Int_Tables_number  71
_chemical_formula_structural  RbS
_chemical_formula_sum  Rb2S2
_cell_volume  146.46376426579053
_cell_formula_units_Z  2
loop_
  _symmetry_equiv_pos_site_id
 _symmetry_equiv_pos_as_xyz
 1  'x, y, z'
loop_
 _atom_site_type_symbol
 _atom_site_label
 _atom_site_symmetry_multiplicity
 _atom_site_fract_x
 _atom_site_fract_y
 _atom_site_fract_z
 _atom_site_fract_occupancy
 Rb  Rb1  1  0.72694  0.77306  0.77306  1
 Rb  Rb2  1  0.27306  0.22694  0.22694  1
 S  S1  1  -0.00000  0.15654  0.84346  1
 S  S2  1  0.00000  0.84346  0.15654  1
