CIF file written using JARVIS-Tools package.
data_La2AlNi9
_symmetry_space_group_name_H-M  'Cmmm'
_cell_length_a       5.0023
_cell_length_b       5.0023
_cell_length_c       8.06101
_cell_angle_alpha    90
_cell_angle_beta     90
_cell_angle_gamma    118.973

_symmetry_Int_Tables_number  65
_chemical_formula_structural  La2AlNi9
_chemical_formula_sum  La2AlNi9
_cell_volume  176.4659881831661
_cell_formula_units_Z  1
loop_
  _symmetry_equiv_pos_site_id
 _symmetry_equiv_pos_as_xyz
 1  'x, y, z'
loop_
 _atom_site_type_symbol
 _atom_site_label
 _atom_site_symmetry_multiplicity
 _atom_site_fract_x
 _atom_site_fract_y
 _atom_site_fract_z
 _atom_site_fract_occupancy
 Al  Al1  1  0.50000  0.50000  0.75000  1
 La  La1  1  0.00000  0.00000  0.01548  1
 La  La2  1  0.00000  0.00000  0.48452  1
 Ni  Ni1  1  0.66796  0.33204  0.99958  1
 Ni  Ni2  1  0.66796  0.33204  0.50042  1
 Ni  Ni3  1  0.50000  0.50000  0.25000  1
 Ni  Ni4  1  0.33204  0.66796  0.99958  1
 Ni  Ni5  1  0.50000  -0.00000  0.75000  1
 Ni  Ni6  1  0.00000  0.50000  0.25000  1
 Ni  Ni7  1  0.50000  -0.00000  0.25000  1
 Ni  Ni8  1  0.33204  0.66796  0.50042  1
 Ni  Ni9  1  0.00000  0.50000  0.75000  1
