CIF file written using JARVIS-Tools package.
data_LiMoP2O7
_symmetry_space_group_name_H-M  'P2_1'
_cell_length_a       4.90925
_cell_length_b       7.1107
_cell_length_c       8.40742
_cell_angle_alpha    90
_cell_angle_beta     90
_cell_angle_gamma    109.723

_symmetry_Int_Tables_number  4
_chemical_formula_structural  LiMoP2O7
_chemical_formula_sum  Li2Mo2P4O4
_cell_volume  276.2706357727136
_cell_formula_units_Z  2
loop_
  _symmetry_equiv_pos_site_id
 _symmetry_equiv_pos_as_xyz
 1  'x, y, z'
loop_
 _atom_site_type_symbol
 _atom_site_label
 _atom_site_symmetry_multiplicity
 _atom_site_fract_x
 _atom_site_fract_y
 _atom_site_fract_z
 _atom_site_fract_occupancy
 Li  Li1  1  0.81704  0.83327  0.14284  1
 Li  Li2  1  0.18296  0.16673  0.64284  1
 Mo  Mo1  1  0.21380  0.22686  0.99834  1
 Mo  Mo2  1  0.78620  0.77314  0.49834  1
 O  O1  1  0.75894  0.98787  0.66438  1
 O  O2  1  0.20909  0.99338  0.46635  1
 O  O3  1  0.60544  0.26445  0.34110  1
 O  O4  1  0.92776  0.62950  0.68070  1
 O  O5  1  0.07224  0.37050  0.18070  1
 O  O6  1  0.79091  0.00662  0.96635  1
 O  O7  1  0.62577  0.41681  0.06081  1
 O  O8  1  0.86898  0.62508  0.29530  1
 O  O9  1  0.37423  0.58319  0.56081  1
 O  O10  1  0.39456  0.73555  0.84110  1
 O  O11  1  0.39104  0.09108  0.81699  1
 O  O12  1  0.24106  0.01213  0.16438  1
 O  O13  1  0.13102  0.37492  0.79530  1
 O  O14  1  0.60896  0.90891  0.31699  1
 P  P1  1  0.80241  0.42354  0.21195  1
 P  P2  1  0.19759  0.57646  0.71195  1
 P  P3  1  0.40909  0.03359  0.32115  1
 P  P4  1  0.59091  0.96641  0.82115  1
