CIF file written using JARVIS-Tools package.
data_VOF
_symmetry_space_group_name_H-M  'P2_1/c'
_cell_length_a       4.62361
_cell_length_b       6.11645
_cell_length_c       9.35974
_cell_angle_alpha    90
_cell_angle_beta     90.8057
_cell_angle_gamma    90

_symmetry_Int_Tables_number  14
_chemical_formula_structural  VOF
_chemical_formula_sum  V8O8F8
_cell_volume  264.6677424143205
_cell_formula_units_Z  8
loop_
  _symmetry_equiv_pos_site_id
 _symmetry_equiv_pos_as_xyz
 1  'x, y, z'
loop_
 _atom_site_type_symbol
 _atom_site_label
 _atom_site_symmetry_multiplicity
 _atom_site_fract_x
 _atom_site_fract_y
 _atom_site_fract_z
 _atom_site_fract_occupancy
 F  F1  1  0.78667  0.75132  0.60169  1
 F  F2  1  0.70457  0.49961  0.84607  1
 F  F3  1  0.70457  0.00039  0.34607  1
 F  F4  1  0.29543  0.99961  0.65393  1
 F  F5  1  0.29543  0.50039  0.15393  1
 F  F6  1  0.21333  0.25132  0.89831  1
 F  F7  1  0.21333  0.24868  0.39831  1
 F  F8  1  0.78667  0.74868  0.10169  1
 O  O1  1  0.19263  0.75460  0.40874  1
 O  O2  1  0.19263  0.74540  0.90874  1
 O  O3  1  0.30424  0.00076  0.15604  1
 O  O4  1  0.30424  0.49924  0.65604  1
 O  O5  1  0.69576  0.50076  0.34396  1
 O  O6  1  0.80737  0.25460  0.09126  1
 O  O7  1  0.80737  0.24540  0.59126  1
 O  O8  1  0.69576  0.99924  0.84396  1
 V  V1  1  0.46666  0.74936  0.76692  1
 V  V2  1  0.53334  0.24936  0.73308  1
 V  V3  1  0.46666  0.75064  0.26692  1
 V  V4  1  0.53334  0.25064  0.23308  1
 V  V5  1  0.00000  0.50000  0.50000  1
 V  V6  1  0.00000  0.50000  0.00000  1
 V  V7  1  0.00000  0.00000  0.00000  1
 V  V8  1  0.00000  0.00000  0.50000  1
