CIF file written using JARVIS-Tools package.
data_HgN2Cl2
_symmetry_space_group_name_H-M  'Cmmm'
_cell_length_a       3.81776
_cell_length_b       5.48976
_cell_length_c       5.48976
_cell_angle_alpha    96.7709
_cell_angle_beta     90
_cell_angle_gamma    90

_symmetry_Int_Tables_number  65
_chemical_formula_structural  HgN2Cl2
_chemical_formula_sum  HgN2Cl2
_cell_volume  114.25516012186799
_cell_formula_units_Z  1
loop_
  _symmetry_equiv_pos_site_id
 _symmetry_equiv_pos_as_xyz
 1  'x, y, z'
loop_
 _atom_site_type_symbol
 _atom_site_label
 _atom_site_symmetry_multiplicity
 _atom_site_fract_x
 _atom_site_fract_y
 _atom_site_fract_z
 _atom_site_fract_occupancy
 Cl  Cl1  1  0.50000  0.75290  0.75290  1
 Cl  Cl2  1  0.50000  0.24710  0.24710  1
 Hg  Hg1  1  0.00000  0.00000  0.00000  1
 N  N1  1  0.00000  0.30627  0.69373  1
 N  N2  1  0.00000  0.69373  0.30627  1
