CIF file written using JARVIS-Tools package.
data_SrMg6V
_symmetry_space_group_name_H-M  'P4/mmm'
_cell_length_a       7.22683
_cell_length_b       10.2203
_cell_length_c       3.76753
_cell_angle_alpha    90
_cell_angle_beta     90
_cell_angle_gamma    135

_symmetry_Int_Tables_number  123
_chemical_formula_structural  SrMg6V
_chemical_formula_sum  SrMg6V
_cell_volume  196.76713127269468
_cell_formula_units_Z  1
loop_
  _symmetry_equiv_pos_site_id
 _symmetry_equiv_pos_as_xyz
 1  'x, y, z'
loop_
 _atom_site_type_symbol
 _atom_site_label
 _atom_site_symmetry_multiplicity
 _atom_site_fract_x
 _atom_site_fract_y
 _atom_site_fract_z
 _atom_site_fract_occupancy
 Mg  Mg1  1  0.74996  0.37499  0.25000  1
 Mg  Mg2  1  0.74996  0.87496  0.25000  1
 Mg  Mg3  1  0.24997  0.15887  0.75000  1
 Mg  Mg4  1  0.24997  0.59110  0.75000  1
 Mg  Mg5  1  0.81782  0.15891  0.75000  1
 Mg  Mg6  1  0.68225  0.59112  0.75000  1
 Sr  Sr1  1  0.25002  0.87501  0.25000  1
 V  V1  1  0.25005  0.37502  0.25000  1
