CIF file written using JARVIS-Tools package.
data_FeBiO3
_symmetry_space_group_name_H-M  'R3'
_cell_length_a       5.50899
_cell_length_b       5.50881
_cell_length_c       5.50877
_cell_angle_alpha    60.0982
_cell_angle_beta     60.0937
_cell_angle_gamma    60.099

_symmetry_Int_Tables_number  146
_chemical_formula_structural  FeBiO3
_chemical_formula_sum  Fe2Bi2O6
_cell_volume  118.47394461327553
_cell_formula_units_Z  2
loop_
  _symmetry_equiv_pos_site_id
 _symmetry_equiv_pos_as_xyz
 1  'x, y, z'
loop_
 _atom_site_type_symbol
 _atom_site_label
 _atom_site_symmetry_multiplicity
 _atom_site_fract_x
 _atom_site_fract_y
 _atom_site_fract_z
 _atom_site_fract_occupancy
 Bi  Bi1  1  0.06935  0.06931  0.06936  1
 Bi  Bi2  1  0.56556  0.56547  0.56549  1
 Fe  Fe1  1  0.29860  0.29857  0.29858  1
 Fe  Fe2  1  0.79113  0.79115  0.79114  1
 O  O1  1  0.01652  0.48303  0.61160  1
 O  O2  1  0.96857  0.52852  0.10072  1
 O  O3  1  0.61157  0.01664  0.48305  1
 O  O4  1  0.48300  0.61162  0.01667  1
 O  O5  1  0.52856  0.10077  0.96854  1
 O  O6  1  0.10076  0.96855  0.52846  1
