CIF file written using JARVIS-Tools package.
data_Mg6AlSb
_symmetry_space_group_name_H-M  'Amm2'
_cell_length_a       6.35645
_cell_length_b       6.35644
_cell_length_c       5.25118
_cell_angle_alpha    90
_cell_angle_beta     90
_cell_angle_gamma    122.149

_symmetry_Int_Tables_number  38
_chemical_formula_structural  Mg6AlSb
_chemical_formula_sum  Mg6AlSb
_cell_volume  179.6376586873154
_cell_formula_units_Z  1
loop_
  _symmetry_equiv_pos_site_id
 _symmetry_equiv_pos_as_xyz
 1  'x, y, z'
loop_
 _atom_site_type_symbol
 _atom_site_label
 _atom_site_symmetry_multiplicity
 _atom_site_fract_x
 _atom_site_fract_y
 _atom_site_fract_z
 _atom_site_fract_occupancy
 Al  Al1  1  0.14266  0.35734  0.25000  1
 Mg  Mg1  1  0.16057  0.84002  0.25000  1
 Mg  Mg2  1  0.65998  0.33943  0.25000  1
 Mg  Mg3  1  0.66622  0.83378  0.25000  1
 Mg  Mg4  1  0.33781  0.65146  0.75000  1
 Mg  Mg5  1  0.84854  0.16219  0.75000  1
 Mg  Mg6  1  0.83356  0.66644  0.75000  1
 Sb  Sb1  1  0.35067  0.14933  0.75000  1
