CIF file written using JARVIS-Tools package.
data_Mg6FeBi
_symmetry_space_group_name_H-M  'Amm2'
_cell_length_a       6.30552
_cell_length_b       6.4545
_cell_length_c       4.94471
_cell_angle_alpha    90
_cell_angle_beta     90
_cell_angle_gamma    120.785

_symmetry_Int_Tables_number  38
_chemical_formula_structural  Mg6FeBi
_chemical_formula_sum  Mg6FeBi
_cell_volume  172.88867357969133
_cell_formula_units_Z  1
loop_
  _symmetry_equiv_pos_site_id
 _symmetry_equiv_pos_as_xyz
 1  'x, y, z'
loop_
 _atom_site_type_symbol
 _atom_site_label
 _atom_site_symmetry_multiplicity
 _atom_site_fract_x
 _atom_site_fract_y
 _atom_site_fract_z
 _atom_site_fract_occupancy
 Bi  Bi1  1  0.16800  0.83400  0.25000  1
 Fe  Fe1  1  0.17066  0.33533  0.25000  1
 Mg  Mg1  1  0.67263  0.33179  0.25000  1
 Mg  Mg2  1  0.67263  0.84084  0.25000  1
 Mg  Mg3  1  0.32741  0.18742  0.75000  1
 Mg  Mg4  1  0.32741  0.63999  0.75000  1
 Mg  Mg5  1  0.84606  0.17303  0.75000  1
 Mg  Mg6  1  0.81519  0.65760  0.75000  1
