CIF file written using JARVIS-Tools package.
data_Mg6CrCo
_symmetry_space_group_name_H-M  'Amm2'
_cell_length_a       6.04182
_cell_length_b       6.01777
_cell_length_c       4.7806
_cell_angle_alpha    90
_cell_angle_beta     90
_cell_angle_gamma    119.868

_symmetry_Int_Tables_number  38
_chemical_formula_structural  Mg6CrCo
_chemical_formula_sum  Mg6CrCo
_cell_volume  150.72704851939338
_cell_formula_units_Z  1
loop_
  _symmetry_equiv_pos_site_id
 _symmetry_equiv_pos_as_xyz
 1  'x, y, z'
loop_
 _atom_site_type_symbol
 _atom_site_label
 _atom_site_symmetry_multiplicity
 _atom_site_fract_x
 _atom_site_fract_y
 _atom_site_fract_z
 _atom_site_fract_occupancy
 Co  Co1  1  0.16008  0.33004  0.25000  1
 Cr  Cr1  1  0.16433  0.83217  0.25000  1
 Mg  Mg1  1  0.66272  0.33200  0.25000  1
 Mg  Mg2  1  0.66272  0.83072  0.25000  1
 Mg  Mg3  1  0.32301  0.16794  0.75000  1
 Mg  Mg4  1  0.32301  0.65506  0.75000  1
 Mg  Mg5  1  0.85683  0.17842  0.75000  1
 Mg  Mg6  1  0.84731  0.67366  0.75000  1
