CIF file written using JARVIS-Tools package.
data_NbBr5
_symmetry_space_group_name_H-M  'P-1'
_cell_length_a       6.50422
_cell_length_b       7.09251
_cell_length_c       9.66032
_cell_angle_alpha    108.856
_cell_angle_beta     90.8662
_cell_angle_gamma    116.199

_symmetry_Int_Tables_number  2
_chemical_formula_structural  NbBr5
_chemical_formula_sum  Nb2Br0
_cell_volume  371.80680941457797
_cell_formula_units_Z  2
loop_
  _symmetry_equiv_pos_site_id
 _symmetry_equiv_pos_as_xyz
 1  'x, y, z'
loop_
 _atom_site_type_symbol
 _atom_site_label
 _atom_site_symmetry_multiplicity
 _atom_site_fract_x
 _atom_site_fract_y
 _atom_site_fract_z
 _atom_site_fract_occupancy
 Br  Br1  1  0.87537  0.38528  0.64805  1
 Br  Br2  1  0.24908  0.18812  0.45447  1
 Br  Br3  1  0.12463  0.61472  0.35195  1
 Br  Br4  1  0.54156  0.41208  0.16476  1
 Br  Br5  1  0.45844  0.58792  0.83524  1
 Br  Br6  1  0.68840  0.99597  0.25171  1
 Br  Br7  1  0.75092  0.81188  0.54553  1
 Br  Br8  1  0.07687  0.81345  0.06086  1
 Br  Br9  1  0.92313  0.18655  0.93914  1
 Br  Br10  1  0.31160  0.00403  0.74829  1
 Nb  Nb1  1  0.10761  0.22280  0.72387  1
 Nb  Nb2  1  0.89239  0.77720  0.27613  1
