CIF file written using JARVIS-Tools package.
data_CCl2F2
_symmetry_space_group_name_H-M  'Fdd2'
_cell_length_a       5.09542
_cell_length_b       5.64205
_cell_length_c       7.81843
_cell_angle_alpha    81.5385
_cell_angle_beta     70.9823
_cell_angle_gamma    63.1563

_symmetry_Int_Tables_number  43
_chemical_formula_structural  CCl2F2
_chemical_formula_sum  C2Cl4F4
_cell_volume  189.60159753374427
_cell_formula_units_Z  2
loop_
  _symmetry_equiv_pos_site_id
 _symmetry_equiv_pos_as_xyz
 1  'x, y, z'
loop_
 _atom_site_type_symbol
 _atom_site_label
 _atom_site_symmetry_multiplicity
 _atom_site_fract_x
 _atom_site_fract_y
 _atom_site_fract_z
 _atom_site_fract_occupancy
 C  C1  1  0.00315  0.00000  0.00000  1
 C  C2  1  0.75315  0.50000  0.50000  1
 Cl  Cl1  1  0.29436  0.72955  0.07158  1
 Cl  Cl2  1  0.09549  0.27045  0.92842  1
 Cl  Cl3  1  0.77391  0.77045  0.57158  1
 Cl  Cl4  1  0.11594  0.22955  0.42842  1
 F  F1  1  0.95230  0.92096  0.86225  1
 F  F2  1  0.73550  0.07904  0.13775  1
 F  F3  1  0.62325  0.57904  0.36225  1
 F  F4  1  0.56455  0.42096  0.63775  1
