CIF file written using JARVIS-Tools package.
data_Mn3CoO8
_symmetry_space_group_name_H-M  'R-3m'
_cell_length_a       5.72964
_cell_length_b       5.53302
_cell_length_c       5.72964
_cell_angle_alpha    121.183
_cell_angle_beta     120
_cell_angle_gamma    58.8174

_symmetry_Int_Tables_number  166
_chemical_formula_structural  Mn3CoO8
_chemical_formula_sum  Mn3CoO8
_cell_volume  126.09643071112467
_cell_formula_units_Z  1
loop_
  _symmetry_equiv_pos_site_id
 _symmetry_equiv_pos_as_xyz
 1  'x, y, z'
loop_
 _atom_site_type_symbol
 _atom_site_label
 _atom_site_symmetry_multiplicity
 _atom_site_fract_x
 _atom_site_fract_y
 _atom_site_fract_z
 _atom_site_fract_occupancy
 Co  Co1  1  0.00000  0.00000  0.00000  1
 Mn  Mn1  1  0.00000  -0.00000  0.50000  1
 Mn  Mn2  1  0.50000  -0.00000  0.00000  1
 Mn  Mn3  1  0.50000  -0.00000  0.50000  1
 O  O1  1  0.26077  0.21243  0.23660  1
 O  O2  1  0.26138  0.21585  0.73862  1
 O  O3  1  0.76340  0.21243  0.23660  1
 O  O4  1  0.76340  0.21243  0.73923  1
 O  O5  1  0.23660  0.78757  0.26077  1
 O  O6  1  0.23660  0.78757  0.76340  1
 O  O7  1  0.73862  0.78415  0.26138  1
 O  O8  1  0.73923  0.78757  0.76340  1
