CIF file written using JARVIS-Tools package.
data_Pb4SeBr6
_symmetry_space_group_name_H-M  'Cm'
_cell_length_a       4.37304
_cell_length_b       9.41321
_cell_length_c       9.84023
_cell_angle_alpha    62.1028
_cell_angle_beta     77.1601
_cell_angle_gamma    76.5657

_symmetry_Int_Tables_number  8
_chemical_formula_structural  Pb4SeBr6
_chemical_formula_sum  Pb4SeBr6
_cell_volume  345.1484182470539
_cell_formula_units_Z  1
loop_
  _symmetry_equiv_pos_site_id
 _symmetry_equiv_pos_as_xyz
 1  'x, y, z'
loop_
 _atom_site_type_symbol
 _atom_site_label
 _atom_site_symmetry_multiplicity
 _atom_site_fract_x
 _atom_site_fract_y
 _atom_site_fract_z
 _atom_site_fract_occupancy
 Br  Br1  1  0.35972  0.11918  0.15653  1
 Br  Br2  1  0.63257  0.81982  0.91033  1
 Br  Br3  1  0.12084  0.17638  0.57697  1
 Br  Br4  1  0.88821  0.40198  0.81675  1
 Br  Br5  1  0.30195  0.76274  0.62853  1
 Br  Br6  1  0.68207  0.40105  0.22983  1
 Pb  Pb1  1  0.00476  -0.00584  -0.00838  1
 Pb  Pb2  1  0.25728  0.49934  0.98104  1
 Pb  Pb3  1  0.49564  0.53386  0.47003  1
 Pb  Pb4  1  0.76544  0.01071  0.45353  1
 Se  Se1  1  0.96896  0.74707  0.31019  1
