CIF file written using JARVIS-Tools package.
data_NdAsRuO
_symmetry_space_group_name_H-M  'P4/nmm'
_cell_length_a       4.11644
_cell_length_b       4.11644
_cell_length_c       8.33065
_cell_angle_alpha    90
_cell_angle_beta     90
_cell_angle_gamma    90

_symmetry_Int_Tables_number  129
_chemical_formula_structural  NdAsRuO
_chemical_formula_sum  Nd2As2Ru2O2
_cell_volume  141.1633953973593
_cell_formula_units_Z  2
loop_
  _symmetry_equiv_pos_site_id
 _symmetry_equiv_pos_as_xyz
 1  'x, y, z'
loop_
 _atom_site_type_symbol
 _atom_site_label
 _atom_site_symmetry_multiplicity
 _atom_site_fract_x
 _atom_site_fract_y
 _atom_site_fract_z
 _atom_site_fract_occupancy
 As  As1  1  0.75000  0.75000  0.15926  1
 As  As2  1  0.25000  0.25000  0.84074  1
 Nd  Nd1  1  0.75000  0.75000  0.63827  1
 Nd  Nd2  1  0.25000  0.25000  0.36173  1
 O  O1  1  0.75000  0.25000  0.50000  1
 O  O2  1  0.25000  0.75000  0.50000  1
 Ru  Ru1  1  0.75000  0.25000  0.00000  1
 Ru  Ru2  1  0.25000  0.75000  0.00000  1
