CIF file written using JARVIS-Tools package.
data_CaCu3Sn4O12
_symmetry_space_group_name_H-M  'Im-3'
_cell_length_a       6.71215
_cell_length_b       6.71215
_cell_length_c       6.71215
_cell_angle_alpha    109.471
_cell_angle_beta     109.471
_cell_angle_gamma    109.471

_symmetry_Int_Tables_number  204
_chemical_formula_structural  CaCu3Sn4O12
_chemical_formula_sum  CaCu3Sn4O2
_cell_volume  232.78963228048696
_cell_formula_units_Z  1
loop_
  _symmetry_equiv_pos_site_id
 _symmetry_equiv_pos_as_xyz
 1  'x, y, z'
loop_
 _atom_site_type_symbol
 _atom_site_label
 _atom_site_symmetry_multiplicity
 _atom_site_fract_x
 _atom_site_fract_y
 _atom_site_fract_z
 _atom_site_fract_occupancy
 Ca  Ca1  1  0.00000  0.00000  0.00000  1
 Cu  Cu1  1  0.50000  0.00000  0.50000  1
 Cu  Cu2  1  0.00000  0.50000  0.50000  1
 Cu  Cu3  1  0.50000  0.50000  0.00000  1
 O  O1  1  0.16947  0.69310  0.86257  1
 O  O2  1  0.83053  0.69310  0.52364  1
 O  O3  1  0.30690  0.47636  0.16947  1
 O  O4  1  0.47636  0.16947  0.30690  1
 O  O5  1  0.13743  0.83053  0.30690  1
 O  O6  1  0.69310  0.86257  0.16947  1
 O  O7  1  0.52364  0.83053  0.69310  1
 O  O8  1  0.86257  0.16947  0.69310  1
 O  O9  1  0.16947  0.30690  0.47636  1
 O  O10  1  0.30690  0.13743  0.83053  1
 O  O11  1  0.83053  0.30690  0.13743  1
 O  O12  1  0.69310  0.52364  0.83053  1
 Sn  Sn1  1  0.00000  0.00000  0.50000  1
 Sn  Sn2  1  0.50000  0.50000  0.50000  1
 Sn  Sn3  1  0.00000  0.50000  0.00000  1
 Sn  Sn4  1  0.50000  0.00000  -0.00000  1
