CIF file written using JARVIS-Tools package.
data_Mg6CrGa
_symmetry_space_group_name_H-M  'Amm2'
_cell_length_a       6.18079
_cell_length_b       6.16702
_cell_length_c       4.9367
_cell_angle_alpha    90
_cell_angle_beta     90
_cell_angle_gamma    119.926

_symmetry_Int_Tables_number  38
_chemical_formula_structural  Mg6CrGa
_chemical_formula_sum  Mg6CrGa
_cell_volume  163.08318887674488
_cell_formula_units_Z  1
loop_
  _symmetry_equiv_pos_site_id
 _symmetry_equiv_pos_as_xyz
 1  'x, y, z'
loop_
 _atom_site_type_symbol
 _atom_site_label
 _atom_site_symmetry_multiplicity
 _atom_site_fract_x
 _atom_site_fract_y
 _atom_site_fract_z
 _atom_site_fract_occupancy
 Cr  Cr1  1  0.16479  0.33239  0.25000  1
 Ga  Ga1  1  0.16640  0.83320  0.25000  1
 Mg  Mg1  1  0.66669  0.33187  0.25000  1
 Mg  Mg2  1  0.66669  0.83482  0.25000  1
 Mg  Mg3  1  0.32801  0.16810  0.75000  1
 Mg  Mg4  1  0.32801  0.65991  0.75000  1
 Mg  Mg5  1  0.84192  0.17096  0.75000  1
 Mg  Mg6  1  0.83751  0.66875  0.75000  1
