CIF file written using JARVIS-Tools package.
data_NaBiF6
_symmetry_space_group_name_H-M  'R-3'
_cell_length_a       6.01568
_cell_length_b       6.01568
_cell_length_c       6.01569
_cell_angle_alpha    52.0186
_cell_angle_beta     52.0186
_cell_angle_gamma    52.0186

_symmetry_Int_Tables_number  148
_chemical_formula_structural  NaBiF6
_chemical_formula_sum  NaBiF6
_cell_volume  125.05153779265135
_cell_formula_units_Z  1
loop_
  _symmetry_equiv_pos_site_id
 _symmetry_equiv_pos_as_xyz
 1  'x, y, z'
loop_
 _atom_site_type_symbol
 _atom_site_label
 _atom_site_symmetry_multiplicity
 _atom_site_fract_x
 _atom_site_fract_y
 _atom_site_fract_z
 _atom_site_fract_occupancy
 Bi  Bi1  1  0.00000  0.00000  0.00000  1
 F  F1  1  0.39578  0.76323  0.07290  1
 F  F2  1  0.07290  0.39578  0.76323  1
 F  F3  1  0.76323  0.07290  0.39578  1
 F  F4  1  0.60422  0.23677  0.92710  1
 F  F5  1  0.92710  0.60422  0.23677  1
 F  F6  1  0.23677  0.92710  0.60422  1
 Na  Na1  1  0.50000  0.50000  0.50000  1
