CIF file written using JARVIS-Tools package.
data_SrH4N2
_symmetry_space_group_name_H-M  'P2_1/c'
_cell_length_a       7.73831
_cell_length_b       7.69574
_cell_length_c       6.59724
_cell_angle_alpha    90
_cell_angle_beta     124.933
_cell_angle_gamma    90

_symmetry_Int_Tables_number  14
_chemical_formula_structural  SrH4N2
_chemical_formula_sum  Sr4H6N8
_cell_volume  322.09090638228133
_cell_formula_units_Z  4
loop_
  _symmetry_equiv_pos_site_id
 _symmetry_equiv_pos_as_xyz
 1  'x, y, z'
loop_
 _atom_site_type_symbol
 _atom_site_label
 _atom_site_symmetry_multiplicity
 _atom_site_fract_x
 _atom_site_fract_y
 _atom_site_fract_z
 _atom_site_fract_occupancy
 H  H1  1  0.10649  0.67892  0.37442  1
 H  H2  1  0.06609  0.03029  0.18215  1
 H  H3  1  0.93391  0.53029  0.31785  1
 H  H4  1  0.93391  0.96971  0.81785  1
 H  H5  1  0.06609  0.46971  0.68215  1
 H  H6  1  0.89351  0.17892  0.12558  1
 H  H7  1  0.10649  0.82108  0.87442  1
 H  H8  1  0.37328  0.73718  0.21022  1
 H  H9  1  0.89351  0.32108  0.62558  1
 H  H10  1  0.62672  0.23718  0.28978  1
 H  H11  1  0.62672  0.26282  0.78978  1
 H  H12  1  0.54484  0.09753  0.40184  1
 H  H13  1  0.45516  0.59753  0.09816  1
 H  H14  1  0.45516  0.90247  0.59816  1
 H  H15  1  0.54484  0.40247  0.90184  1
 H  H16  1  0.37328  0.76282  0.71022  1
 N  N1  1  0.97644  0.61396  0.23086  1
 N  N2  1  0.97644  0.88604  0.73086  1
 N  N3  1  0.02356  0.38604  0.76914  1
 N  N4  1  0.51055  0.14516  0.23612  1
 N  N5  1  0.02356  0.11396  0.26914  1
 N  N6  1  0.51055  0.35484  0.73612  1
 N  N7  1  0.48945  0.64516  0.26388  1
 N  N8  1  0.48945  0.85484  0.76388  1
 Sr  Sr1  1  0.25031  0.12149  0.75272  1
 Sr  Sr2  1  0.74969  0.62149  0.74728  1
 Sr  Sr3  1  0.74969  0.87851  0.24728  1
 Sr  Sr4  1  0.25031  0.37851  0.25272  1
