CIF file written using JARVIS-Tools package.
data_LiSn6Pd2
_symmetry_space_group_name_H-M  'P4/mbm'
_cell_length_a       6.76956
_cell_length_b       6.76956
_cell_length_c       8.76544
_cell_angle_alpha    90
_cell_angle_beta     90
_cell_angle_gamma    90

_symmetry_Int_Tables_number  127
_chemical_formula_structural  LiSn6Pd2
_chemical_formula_sum  Li2Sn2Pd4
_cell_volume  401.6927154575607
_cell_formula_units_Z  2
loop_
  _symmetry_equiv_pos_site_id
 _symmetry_equiv_pos_as_xyz
 1  'x, y, z'
loop_
 _atom_site_type_symbol
 _atom_site_label
 _atom_site_symmetry_multiplicity
 _atom_site_fract_x
 _atom_site_fract_y
 _atom_site_fract_z
 _atom_site_fract_occupancy
 Li  Li1  1  0.00000  0.00000  0.50000  1
 Li  Li2  1  0.50000  0.50000  0.50000  1
 Pd  Pd1  1  0.50000  0.50000  0.18266  1
 Pd  Pd2  1  0.00000  0.00000  0.18266  1
 Pd  Pd3  1  0.50000  0.50000  0.81734  1
 Pd  Pd4  1  0.00000  0.00000  0.81734  1
 Sn  Sn1  1  0.16370  0.66370  0.00000  1
 Sn  Sn2  1  0.66370  0.83630  0.00000  1
 Sn  Sn3  1  0.65845  0.15845  0.67906  1
 Sn  Sn4  1  0.15845  0.34155  0.67906  1
 Sn  Sn5  1  0.34155  0.84155  0.32094  1
 Sn  Sn6  1  0.65845  0.15845  0.32094  1
 Sn  Sn7  1  0.83630  0.33630  0.00000  1
 Sn  Sn8  1  0.34155  0.84155  0.67906  1
 Sn  Sn9  1  0.84155  0.65845  0.32094  1
 Sn  Sn10  1  0.84155  0.65845  0.67906  1
 Sn  Sn11  1  0.33630  0.16370  0.00000  1
 Sn  Sn12  1  0.15845  0.34155  0.32094  1
