CIF file written using JARVIS-Tools package.
data_TiNiGe
_symmetry_space_group_name_H-M  'Pnma'
_cell_length_a       3.74954
_cell_length_b       6.26108
_cell_length_c       7.16754
_cell_angle_alpha    90
_cell_angle_beta     90
_cell_angle_gamma    90

_symmetry_Int_Tables_number  62
_chemical_formula_structural  TiNiGe
_chemical_formula_sum  Ti4Ni4Ge4
_cell_volume  168.26610386515466
_cell_formula_units_Z  4
loop_
  _symmetry_equiv_pos_site_id
 _symmetry_equiv_pos_as_xyz
 1  'x, y, z'
loop_
 _atom_site_type_symbol
 _atom_site_label
 _atom_site_symmetry_multiplicity
 _atom_site_fract_x
 _atom_site_fract_y
 _atom_site_fract_z
 _atom_site_fract_occupancy
 Ge  Ge1  1  0.75000  0.24509  0.37983  1
 Ge  Ge2  1  0.25000  0.75491  0.62017  1
 Ge  Ge3  1  0.75000  0.74509  0.12017  1
 Ge  Ge4  1  0.25000  0.25491  0.87983  1
 Ni  Ni1  1  0.75000  0.86153  0.43949  1
 Ni  Ni2  1  0.75000  0.36153  0.06051  1
 Ni  Ni3  1  0.25000  0.13847  0.56051  1
 Ni  Ni4  1  0.25000  0.63847  0.93949  1
 Ti  Ti1  1  0.75000  0.47339  0.68837  1
 Ti  Ti2  1  0.25000  0.52661  0.31163  1
 Ti  Ti3  1  0.25000  0.02661  0.18837  1
 Ti  Ti4  1  0.75000  0.97339  0.81163  1
