CIF file written using JARVIS-Tools package.
data_Tb2AlNi2
_symmetry_space_group_name_H-M  'Immm'
_cell_length_a       4.16107
_cell_length_b       5.38837
_cell_length_c       5.38837
_cell_angle_alpha    60.5431
_cell_angle_beta     67.2869
_cell_angle_gamma    67.2869

_symmetry_Int_Tables_number  71
_chemical_formula_structural  Tb2AlNi2
_chemical_formula_sum  Tb2AlNi2
_cell_volume  94.09771345022943
_cell_formula_units_Z  1
loop_
  _symmetry_equiv_pos_site_id
 _symmetry_equiv_pos_as_xyz
 1  'x, y, z'
loop_
 _atom_site_type_symbol
 _atom_site_label
 _atom_site_symmetry_multiplicity
 _atom_site_fract_x
 _atom_site_fract_y
 _atom_site_fract_z
 _atom_site_fract_occupancy
 Al  Al1  1  0.00000  0.00000  0.00000  1
 Ni  Ni1  1  0.50000  0.26777  0.73223  1
 Ni  Ni2  1  0.50000  0.73223  0.26777  1
 Tb  Tb1  1  0.20279  0.29721  0.29721  1
 Tb  Tb2  1  0.79721  0.70279  0.70279  1
