CIF file written using JARVIS-Tools package.
data_RbMg6Ga
_symmetry_space_group_name_H-M  'Amm2'
_cell_length_a       6.8544
_cell_length_b       6.8544
_cell_length_c       4.88054
_cell_angle_alpha    90
_cell_angle_beta     90
_cell_angle_gamma    107.613

_symmetry_Int_Tables_number  38
_chemical_formula_structural  RbMg6Ga
_chemical_formula_sum  RbMg6Ga
_cell_volume  218.55238192948548
_cell_formula_units_Z  1
loop_
  _symmetry_equiv_pos_site_id
 _symmetry_equiv_pos_as_xyz
 1  'x, y, z'
loop_
 _atom_site_type_symbol
 _atom_site_label
 _atom_site_symmetry_multiplicity
 _atom_site_fract_x
 _atom_site_fract_y
 _atom_site_fract_z
 _atom_site_fract_occupancy
 Ga  Ga1  1  0.35283  0.14717  0.75000  1
 Mg  Mg1  1  0.20038  0.90374  0.25000  1
 Mg  Mg2  1  0.59626  0.29962  0.25000  1
 Mg  Mg3  1  0.69126  0.80874  0.25000  1
 Mg  Mg4  1  0.39998  0.72485  0.75000  1
 Mg  Mg5  1  0.77515  0.10002  0.75000  1
 Mg  Mg6  1  0.86190  0.63810  0.75000  1
 Rb  Rb1  1  0.12223  0.37777  0.25000  1
