CIF file written using JARVIS-Tools package.
data_LiVO2
_symmetry_space_group_name_H-M  'P-1'
_cell_length_a       4.05002
_cell_length_b       5.12717
_cell_length_c       8.56444
_cell_angle_alpha    33.9957
_cell_angle_beta     89.0056
_cell_angle_gamma    112.364

_symmetry_Int_Tables_number  2
_chemical_formula_structural  LiVO2
_chemical_formula_sum  Li2V2O4
_cell_volume  70.37691479397216
_cell_formula_units_Z  2
loop_
  _symmetry_equiv_pos_site_id
 _symmetry_equiv_pos_as_xyz
 1  'x, y, z'
loop_
 _atom_site_type_symbol
 _atom_site_label
 _atom_site_symmetry_multiplicity
 _atom_site_fract_x
 _atom_site_fract_y
 _atom_site_fract_z
 _atom_site_fract_occupancy
 Li  Li1  1  0.50904  0.50880  0.87258  1
 Li  Li2  1  0.99890  0.51134  0.61822  1
 O  O1  1  0.00877  0.50834  0.88554  1
 O  O2  1  0.01117  0.50880  0.35869  1
 O  O3  1  0.49917  0.51180  0.60526  1
 O  O4  1  0.49677  0.51134  0.13212  1
 V  V1  1  0.51381  0.50785  0.37044  1
 V  V2  1  0.99414  0.51229  0.12037  1
