CIF file written using JARVIS-Tools package.
data_Nd3InN
_symmetry_space_group_name_H-M  'P1'
_cell_length_a       6.92132
_cell_length_b       4.18467
_cell_length_c       7.00183
_cell_angle_alpha    107.207
_cell_angle_beta     45.4241
_cell_angle_gamma    107.414

_symmetry_Int_Tables_number  1
_chemical_formula_structural  Nd3InN
_chemical_formula_sum  Nd3InN
_cell_volume  136.73408880137242
_cell_formula_units_Z  1
loop_
  _symmetry_equiv_pos_site_id
 _symmetry_equiv_pos_as_xyz
 1  'x, y, z'
loop_
 _atom_site_type_symbol
 _atom_site_label
 _atom_site_symmetry_multiplicity
 _atom_site_fract_x
 _atom_site_fract_y
 _atom_site_fract_z
 _atom_site_fract_occupancy
 In  In1  1  0.73586  0.53899  0.34208  1
 N  N1  1  0.00761  0.84771  0.68802  1
 Nd  Nd1  1  0.54067  0.82194  0.10362  1
 Nd  Nd2  1  0.24602  0.03320  0.82110  1
 Nd  Nd3  1  -0.03016  0.25816  0.54518  1
