CIF file written using JARVIS-Tools package.
data_CaCoO3
_symmetry_space_group_name_H-M  'Cm'
_cell_length_a       3.50553
_cell_length_b       3.50552
_cell_length_c       6.07099
_cell_angle_alpha    73.6572
_cell_angle_beta     73.6573
_cell_angle_gamma    61.5108

_symmetry_Int_Tables_number  8
_chemical_formula_structural  CaCoO3
_chemical_formula_sum  CaCoO3
_cell_volume  61.955832245749924
_cell_formula_units_Z  1
loop_
  _symmetry_equiv_pos_site_id
 _symmetry_equiv_pos_as_xyz
 1  'x, y, z'
loop_
 _atom_site_type_symbol
 _atom_site_label
 _atom_site_symmetry_multiplicity
 _atom_site_fract_x
 _atom_site_fract_y
 _atom_site_fract_z
 _atom_site_fract_occupancy
 Ca  Ca1  1  0.27676  0.27676  0.06734  1
 Co  Co1  1  0.80822  0.80822  0.55461  1
 O  O1  1  0.87867  0.87867  0.24980  1
 O  O2  1  0.68183  0.68183  0.85796  1
 O  O3  1  0.11502  0.11502  0.54460  1
