CIF file written using JARVIS-Tools package.
data_BeCdHg2
_symmetry_space_group_name_H-M  'P4mm'
_cell_length_a       3.07269
_cell_length_b       3.07269
_cell_length_c       8.43919
_cell_angle_alpha    90
_cell_angle_beta     90
_cell_angle_gamma    90

_symmetry_Int_Tables_number  99
_chemical_formula_structural  BeCdHg2
_chemical_formula_sum  BeCdHg2
_cell_volume  79.67780406685056
_cell_formula_units_Z  1
loop_
  _symmetry_equiv_pos_site_id
 _symmetry_equiv_pos_as_xyz
 1  'x, y, z'
loop_
 _atom_site_type_symbol
 _atom_site_label
 _atom_site_symmetry_multiplicity
 _atom_site_fract_x
 _atom_site_fract_y
 _atom_site_fract_z
 _atom_site_fract_occupancy
 Be  Be1  1  0.00000  0.00000  0.49648  1
 Cd  Cd1  1  0.50000  0.50000  0.69436  1
 Hg  Hg1  1  0.00000  0.00000  0.99511  1
 Hg  Hg2  1  0.50000  0.50000  0.31405  1
