CIF file written using JARVIS-Tools package.
data_KMg6Cd
_symmetry_space_group_name_H-M  'Amm2'
_cell_length_a       7.4627
_cell_length_b       7.46271
_cell_length_c       5.00775
_cell_angle_alpha    90
_cell_angle_beta     90
_cell_angle_gamma    129.261

_symmetry_Int_Tables_number  38
_chemical_formula_structural  KMg6Cd
_chemical_formula_sum  KMg6Cd
_cell_volume  215.9395730931457
_cell_formula_units_Z  1
loop_
  _symmetry_equiv_pos_site_id
 _symmetry_equiv_pos_as_xyz
 1  'x, y, z'
loop_
 _atom_site_type_symbol
 _atom_site_label
 _atom_site_symmetry_multiplicity
 _atom_site_fract_x
 _atom_site_fract_y
 _atom_site_fract_z
 _atom_site_fract_occupancy
 Cd  Cd1  1  0.37679  0.12321  0.75000  1
 K  K1  1  0.20441  0.29559  0.25000  1
 Mg  Mg1  1  0.16709  0.81040  0.25000  1
 Mg  Mg2  1  0.68960  0.33291  0.25000  1
 Mg  Mg3  1  0.63354  0.86646  0.25000  1
 Mg  Mg4  1  0.31121  0.68228  0.75000  1
 Mg  Mg5  1  0.81772  0.18879  0.75000  1
 Mg  Mg6  1  0.79965  0.70035  0.75000  1
