CIF file written using JARVIS-Tools package.
data_Ta2BeCd
_symmetry_space_group_name_H-M  'P4mm'
_cell_length_a       2.83337
_cell_length_b       2.83337
_cell_length_c       8.14206
_cell_angle_alpha    90
_cell_angle_beta     90
_cell_angle_gamma    90

_symmetry_Int_Tables_number  99
_chemical_formula_structural  Ta2BeCd
_chemical_formula_sum  Ta2BeCd
_cell_volume  65.3645410489434
_cell_formula_units_Z  1
loop_
  _symmetry_equiv_pos_site_id
 _symmetry_equiv_pos_as_xyz
 1  'x, y, z'
loop_
 _atom_site_type_symbol
 _atom_site_label
 _atom_site_symmetry_multiplicity
 _atom_site_fract_x
 _atom_site_fract_y
 _atom_site_fract_z
 _atom_site_fract_occupancy
 Be  Be1  1  0.00000  0.00000  0.49762  1
 Cd  Cd1  1  0.50000  0.50000  0.71178  1
 Ta  Ta1  1  0.00000  0.00000  0.00079  1
 Ta  Ta2  1  0.50000  0.50000  0.28980  1
