CIF file written using JARVIS-Tools package.
data_Pb2WO5
_symmetry_space_group_name_H-M  'C2/m'
_cell_length_a       5.8799
_cell_length_b       7.39177
_cell_length_c       7.69875
_cell_angle_alpha    111.165
_cell_angle_beta     112.45
_cell_angle_gamma    90

_symmetry_Int_Tables_number  12
_chemical_formula_structural  Pb2WO5
_chemical_formula_sum  Pb4W2O0
_cell_volume  284.6751701097671
_cell_formula_units_Z  2
loop_
  _symmetry_equiv_pos_site_id
 _symmetry_equiv_pos_as_xyz
 1  'x, y, z'
loop_
 _atom_site_type_symbol
 _atom_site_label
 _atom_site_symmetry_multiplicity
 _atom_site_fract_x
 _atom_site_fract_y
 _atom_site_fract_z
 _atom_site_fract_occupancy
 O  O1  1  0.74612  0.00000  -0.00000  1
 O  O2  1  0.25388  -0.00000  0.00000  1
 O  O3  1  0.70043  0.32140  0.40086  1
 O  O4  1  0.29957  0.67860  0.59914  1
 O  O5  1  0.90482  0.78385  0.29843  1
 O  O6  1  0.60639  0.21615  0.70157  1
 O  O7  1  0.91620  0.60136  0.83239  1
 O  O8  1  0.08380  0.39864  0.16761  1
 O  O9  1  0.39361  0.78385  0.29843  1
 O  O10  1  0.09518  0.21615  0.70157  1
 Pb  Pb1  1  0.50890  0.25374  0.01779  1
 Pb  Pb2  1  0.49110  0.74626  0.98221  1
 Pb  Pb3  1  0.13672  0.11389  0.27345  1
 Pb  Pb4  1  0.86328  0.88611  0.72655  1
 W  W1  1  0.83090  0.34310  0.66180  1
 W  W2  1  0.16910  0.65690  0.33820  1
