CIF file written using JARVIS-Tools package.
data_Mg6CoSi
_symmetry_space_group_name_H-M  'Amm2'
_cell_length_a       6.0161
_cell_length_b       6.15864
_cell_length_c       4.67232
_cell_angle_alpha    90
_cell_angle_beta     90
_cell_angle_gamma    120.787

_symmetry_Int_Tables_number  38
_chemical_formula_structural  Mg6CoSi
_chemical_formula_sum  Mg6CoSi
_cell_volume  148.71794858778986
_cell_formula_units_Z  1
loop_
  _symmetry_equiv_pos_site_id
 _symmetry_equiv_pos_as_xyz
 1  'x, y, z'
loop_
 _atom_site_type_symbol
 _atom_site_label
 _atom_site_symmetry_multiplicity
 _atom_site_fract_x
 _atom_site_fract_y
 _atom_site_fract_z
 _atom_site_fract_occupancy
 Co  Co1  1  0.16452  0.33226  0.25000  1
 Mg  Mg1  1  0.67090  0.33310  0.25000  1
 Mg  Mg2  1  0.67090  0.83780  0.25000  1
 Mg  Mg3  1  0.32154  0.17252  0.75000  1
 Mg  Mg4  1  0.32154  0.64902  0.75000  1
 Mg  Mg5  1  0.84979  0.17489  0.75000  1
 Mg  Mg6  1  0.83749  0.66874  0.75000  1
 Si  Si1  1  0.16332  0.83166  0.25000  1
