CIF file written using JARVIS-Tools package.
data_Ca2AuN
_symmetry_space_group_name_H-M  'Cmcm'
_cell_length_a       3.52438
_cell_length_b       4.93421
_cell_length_c       9.22952
_cell_angle_alpha    90
_cell_angle_beta     101.007
_cell_angle_gamma    90

_symmetry_Int_Tables_number  63
_chemical_formula_structural  Ca2AuN
_chemical_formula_sum  Ca4Au2N2
_cell_volume  157.54893150070984
_cell_formula_units_Z  2
loop_
  _symmetry_equiv_pos_site_id
 _symmetry_equiv_pos_as_xyz
 1  'x, y, z'
loop_
 _atom_site_type_symbol
 _atom_site_label
 _atom_site_symmetry_multiplicity
 _atom_site_fract_x
 _atom_site_fract_y
 _atom_site_fract_z
 _atom_site_fract_occupancy
 Au  Au1  1  0.04288  0.75000  0.08575  1
 Au  Au2  1  0.95712  0.25000  0.91425  1
 Ca  Ca1  1  0.60366  0.25000  0.20731  1
 Ca  Ca2  1  0.39634  0.75000  0.79269  1
 Ca  Ca3  1  0.78410  0.25000  0.56820  1
 Ca  Ca4  1  0.21590  0.75000  0.43180  1
 N  N1  1  0.80684  0.75000  0.61368  1
 N  N2  1  0.19316  0.25000  0.38632  1
