CIF file written using JARVIS-Tools package.
data_CoH2SeO4
_symmetry_space_group_name_H-M  'P2_1/c'
_cell_length_a       5.6373
_cell_length_b       4.7424
_cell_length_c       13.1921
_cell_angle_alpha    90
_cell_angle_beta     102.768
_cell_angle_gamma    90

_symmetry_Int_Tables_number  14
_chemical_formula_structural  CoH2SeO4
_chemical_formula_sum  Co4H8Se4O6
_cell_volume  343.9620075700457
_cell_formula_units_Z  4
loop_
  _symmetry_equiv_pos_site_id
 _symmetry_equiv_pos_as_xyz
 1  'x, y, z'
loop_
 _atom_site_type_symbol
 _atom_site_label
 _atom_site_symmetry_multiplicity
 _atom_site_fract_x
 _atom_site_fract_y
 _atom_site_fract_z
 _atom_site_fract_occupancy
 Co  Co1  1  0.23931  0.82222  0.23575  1
 Co  Co2  1  0.76069  0.32222  0.26425  1
 Co  Co3  1  0.23931  0.67778  0.73575  1
 Co  Co4  1  0.76069  0.17778  0.76425  1
 H  H1  1  0.71689  0.71602  0.87112  1
 H  H2  1  0.28311  0.21602  0.62888  1
 H  H3  1  -0.00784  0.68085  0.39652  1
 H  H4  1  0.00784  0.18085  0.10348  1
 H  H5  1  0.71689  0.78398  0.37112  1
 H  H6  1  -0.00784  0.81915  0.89652  1
 H  H7  1  0.28311  0.28398  0.12888  1
 H  H8  1  0.00784  0.31915  0.60348  1
 O  O1  1  0.06590  0.39345  0.82132  1
 O  O2  1  0.48222  0.89642  0.67809  1
 O  O3  1  0.17706  0.11775  0.10721  1
 O  O4  1  0.51778  0.10358  0.32191  1
 O  O5  1  0.69166  0.40745  0.62209  1
 O  O6  1  0.48222  0.60358  0.17809  1
 O  O7  1  0.93410  0.89345  0.67868  1
 O  O8  1  0.69166  0.09255  0.12209  1
 O  O9  1  0.93410  0.60655  0.17868  1
 O  O10  1  0.82294  0.88225  0.89279  1
 O  O11  1  0.17706  0.38225  0.60721  1
 O  O12  1  0.06590  0.10655  0.32132  1
 O  O13  1  0.51778  0.39642  0.82191  1
 O  O14  1  0.30834  0.59255  0.37791  1
 O  O15  1  0.82294  0.61775  0.39279  1
 O  O16  1  0.30834  0.90745  0.87791  1
 Se  Se1  1  0.66727  0.75835  0.59564  1
 Se  Se2  1  0.33273  0.24165  0.40436  1
 Se  Se3  1  0.33273  0.25835  0.90436  1
 Se  Se4  1  0.66727  0.74165  0.09564  1
