CIF file written using JARVIS-Tools package.
data_BaNi9As5
_symmetry_space_group_name_H-M  'P6_3/mmc'
_cell_length_a       6.79274
_cell_length_b       6.79274
_cell_length_c       11.3437
_cell_angle_alpha    90
_cell_angle_beta     90
_cell_angle_gamma    120

_symmetry_Int_Tables_number  194
_chemical_formula_structural  BaNi9As5
_chemical_formula_sum  Ba2Ni8As0
_cell_volume  453.2877603483104
_cell_formula_units_Z  2
loop_
  _symmetry_equiv_pos_site_id
 _symmetry_equiv_pos_as_xyz
 1  'x, y, z'
loop_
 _atom_site_type_symbol
 _atom_site_label
 _atom_site_symmetry_multiplicity
 _atom_site_fract_x
 _atom_site_fract_y
 _atom_site_fract_z
 _atom_site_fract_occupancy
 As  As1  1  0.33333  0.66667  0.43959  1
 As  As2  1  0.66667  0.33333  0.93959  1
 As  As3  1  0.65535  0.82768  0.75000  1
 As  As4  1  0.17232  0.34465  0.75000  1
 As  As5  1  0.82768  0.17232  0.25000  1
 As  As6  1  0.34465  0.17232  0.25000  1
 As  As7  1  0.17232  0.82768  0.75000  1
 As  As8  1  0.33333  0.66667  0.06041  1
 As  As9  1  0.66667  0.33333  0.56041  1
 As  As10  1  0.82768  0.65535  0.25000  1
 Ba  Ba1  1  0.00000  0.00000  0.00000  1
 Ba  Ba2  1  0.00000  0.00000  0.50000  1
 Ni  Ni1  1  0.46466  0.53534  0.60640  1
 Ni  Ni2  1  0.79130  0.20870  0.75000  1
 Ni  Ni3  1  0.58260  0.79130  0.25000  1
 Ni  Ni4  1  0.20870  0.41740  0.25000  1
 Ni  Ni5  1  0.79130  0.58260  0.75000  1
 Ni  Ni6  1  0.41740  0.20870  0.75000  1
 Ni  Ni7  1  0.53534  0.07069  0.39360  1
 Ni  Ni8  1  0.20870  0.79130  0.25000  1
 Ni  Ni9  1  0.92931  0.46466  0.39360  1
 Ni  Ni10  1  0.53534  0.46466  0.10640  1
 Ni  Ni11  1  0.07069  0.53534  0.60640  1
 Ni  Ni12  1  0.46466  0.92931  0.60640  1
 Ni  Ni13  1  0.53534  0.07069  0.10640  1
 Ni  Ni14  1  0.53534  0.46466  0.39360  1
 Ni  Ni15  1  0.07069  0.53534  0.89360  1
 Ni  Ni16  1  0.46466  0.92931  0.89360  1
 Ni  Ni17  1  0.46466  0.53534  0.89360  1
 Ni  Ni18  1  0.92931  0.46466  0.10640  1
