CIF file written using JARVIS-Tools package.
data_Co6O7F5
_symmetry_space_group_name_H-M  'Amm2'
_cell_length_a       4.5518
_cell_length_b       4.5518
_cell_length_c       8.68627
_cell_angle_alpha    90
_cell_angle_beta     90
_cell_angle_gamma    97.3256

_symmetry_Int_Tables_number  38
_chemical_formula_structural  Co6O7F5
_chemical_formula_sum  Co6O7F5
_cell_volume  178.50067357593215
_cell_formula_units_Z  1
loop_
  _symmetry_equiv_pos_site_id
 _symmetry_equiv_pos_as_xyz
 1  'x, y, z'
loop_
 _atom_site_type_symbol
 _atom_site_label
 _atom_site_symmetry_multiplicity
 _atom_site_fract_x
 _atom_site_fract_y
 _atom_site_fract_z
 _atom_site_fract_occupancy
 Co  Co1  1  0.00978  0.99022  0.00779  1
 Co  Co2  1  0.00978  0.99022  0.32554  1
 Co  Co3  1  0.00142  0.99858  0.66667  1
 Co  Co4  1  0.46130  0.53870  0.16667  1
 Co  Co5  1  0.50592  0.49408  0.83498  1
 Co  Co6  1  0.50592  0.49408  0.49835  1
 F  F1  1  0.19262  0.80738  0.48996  1
 F  F2  1  0.19262  0.80738  0.84338  1
 F  F3  1  0.81276  0.18724  0.84143  1
 F  F4  1  0.81276  0.18724  0.49190  1
 F  F5  1  0.81539  0.18461  0.16667  1
 O  O1  1  0.30207  0.30839  0.33172  1
 O  O2  1  0.18483  0.81517  0.16667  1
 O  O3  1  0.30638  0.29883  0.66667  1
 O  O4  1  0.69161  0.69793  0.00161  1
 O  O5  1  0.69161  0.69793  0.33172  1
 O  O6  1  0.30207  0.30839  0.00161  1
 O  O7  1  0.70117  0.69362  0.66667  1
