CIF file written using JARVIS-Tools package.
data_AsF5
_symmetry_space_group_name_H-M  'P6_3/mmc'
_cell_length_a       5.68374
_cell_length_b       5.68374
_cell_length_c       6.24201
_cell_angle_alpha    90
_cell_angle_beta     90
_cell_angle_gamma    120

_symmetry_Int_Tables_number  194
_chemical_formula_structural  AsF5
_chemical_formula_sum  As2F0
_cell_volume  174.63147453406472
_cell_formula_units_Z  2
loop_
  _symmetry_equiv_pos_site_id
 _symmetry_equiv_pos_as_xyz
 1  'x, y, z'
loop_
 _atom_site_type_symbol
 _atom_site_label
 _atom_site_symmetry_multiplicity
 _atom_site_fract_x
 _atom_site_fract_y
 _atom_site_fract_z
 _atom_site_fract_occupancy
 As  As1  1  0.66667  0.33333  0.75000  1
 As  As2  1  0.33333  0.66667  0.25000  1
 F  F1  1  0.33333  0.66667  0.53079  1
 F  F2  1  0.66667  0.33333  0.03079  1
 F  F3  1  0.15939  0.31877  0.25000  1
 F  F4  1  0.84061  0.15939  0.75000  1
 F  F5  1  0.31877  0.15939  0.75000  1
 F  F6  1  0.68123  0.84061  0.25000  1
 F  F7  1  0.15939  0.84061  0.25000  1
 F  F8  1  0.84061  0.68123  0.75000  1
 F  F9  1  0.33333  0.66667  0.96921  1
 F  F10  1  0.66667  0.33333  0.46921  1
