CIF file written using JARVIS-Tools package.
data_Si4P4Ru
_symmetry_space_group_name_H-M  'P1'
_cell_length_a       4.99588
_cell_length_b       5.70072
_cell_length_c       6.23492
_cell_angle_alpha    85.5138
_cell_angle_beta     111.723
_cell_angle_gamma    109.333

_symmetry_Int_Tables_number  1
_chemical_formula_structural  Si4P4Ru
_chemical_formula_sum  Si4P4Ru
_cell_volume  155.45993999608055
_cell_formula_units_Z  1
loop_
  _symmetry_equiv_pos_site_id
 _symmetry_equiv_pos_as_xyz
 1  'x, y, z'
loop_
 _atom_site_type_symbol
 _atom_site_label
 _atom_site_symmetry_multiplicity
 _atom_site_fract_x
 _atom_site_fract_y
 _atom_site_fract_z
 _atom_site_fract_occupancy
 P  P1  1  0.16007  0.98357  0.68109  1
 P  P2  1  0.62162  0.58879  0.87753  1
 P  P3  1  0.76671  0.35787  0.43643  1
 P  P4  1  0.34123  0.77249  0.24119  1
 Ru  Ru1  1  0.99946  0.00187  0.00090  1
 Si  Si1  1  0.67061  0.22448  0.77403  1
 Si  Si2  1  0.23743  0.65583  0.56781  1
 Si  Si3  1  0.35854  0.40545  0.11900  1
 Si  Si4  1  0.84424  0.02784  0.31052  1
