CIF file written using JARVIS-Tools package.
data_KBe2Bi
_symmetry_space_group_name_H-M  'P4mm'
_cell_length_a       3.25595
_cell_length_b       3.25595
_cell_length_c       8.24452
_cell_angle_alpha    90
_cell_angle_beta     90
_cell_angle_gamma    90

_symmetry_Int_Tables_number  99
_chemical_formula_structural  KBe2Bi
_chemical_formula_sum  KBe2Bi
_cell_volume  87.40185219586364
_cell_formula_units_Z  1
loop_
  _symmetry_equiv_pos_site_id
 _symmetry_equiv_pos_as_xyz
 1  'x, y, z'
loop_
 _atom_site_type_symbol
 _atom_site_label
 _atom_site_symmetry_multiplicity
 _atom_site_fract_x
 _atom_site_fract_y
 _atom_site_fract_z
 _atom_site_fract_occupancy
 Be  Be1  1  0.00000  0.00000  0.12827  1
 Be  Be2  1  0.50000  0.50000  0.14292  1
 Bi  Bi1  1  0.00000  0.00000  0.44533  1
 K  K1  1  0.50000  0.50000  0.78348  1
