CIF file written using JARVIS-Tools package.
data_TbMgSn
_symmetry_space_group_name_H-M  'I4/mmm'
_cell_length_a       4.39372
_cell_length_b       4.39372
_cell_length_c       8.52145
_cell_angle_alpha    104.94
_cell_angle_beta     104.94
_cell_angle_gamma    90

_symmetry_Int_Tables_number  139
_chemical_formula_structural  TbMgSn
_chemical_formula_sum  Tb2Mg2Sn2
_cell_volume  153.1813367015223
_cell_formula_units_Z  2
loop_
  _symmetry_equiv_pos_site_id
 _symmetry_equiv_pos_as_xyz
 1  'x, y, z'
loop_
 _atom_site_type_symbol
 _atom_site_label
 _atom_site_symmetry_multiplicity
 _atom_site_fract_x
 _atom_site_fract_y
 _atom_site_fract_z
 _atom_site_fract_occupancy
 Mg  Mg1  1  0.50000  0.00000  0.00000  1
 Mg  Mg2  1  0.00000  0.50000  0.00000  1
 Sn  Sn1  1  0.86345  0.86345  0.72690  1
 Sn  Sn2  1  0.13655  0.13655  0.27310  1
 Tb  Tb1  1  0.66627  0.66627  0.33255  1
 Tb  Tb2  1  0.33373  0.33373  0.66745  1
