CIF file written using JARVIS-Tools package.
data_Eu2MgH6
_symmetry_space_group_name_H-M  'P-3m1'
_cell_length_a       5.48706
_cell_length_b       5.48747
_cell_length_c       3.68243
_cell_angle_alpha    90
_cell_angle_beta     90.0002
_cell_angle_gamma    120.002

_symmetry_Int_Tables_number  164
_chemical_formula_structural  Eu2MgH6
_chemical_formula_sum  Eu2MgH6
_cell_volume  96.02082374377073
_cell_formula_units_Z  1
loop_
  _symmetry_equiv_pos_site_id
 _symmetry_equiv_pos_as_xyz
 1  'x, y, z'
loop_
 _atom_site_type_symbol
 _atom_site_label
 _atom_site_symmetry_multiplicity
 _atom_site_fract_x
 _atom_site_fract_y
 _atom_site_fract_z
 _atom_site_fract_occupancy
 Eu  Eu1  1  0.66667  0.33333  0.73709  1
 Eu  Eu2  1  0.33333  0.66667  0.26291  1
 H  H1  1  0.62878  0.81439  0.75933  1
 H  H2  1  0.18557  0.37121  0.75927  1
 H  H3  1  0.18557  0.81437  0.75927  1
 H  H4  1  0.37122  0.18561  0.24067  1
 H  H5  1  0.81443  0.62879  0.24073  1
 H  H6  1  0.81443  0.18563  0.24073  1
 Mg  Mg1  1  0.00000  0.00000  0.00000  1
