CIF file written using JARVIS-Tools package.
data_MgCd2
_symmetry_space_group_name_H-M  'P-3m1'
_cell_length_a       3.25367
_cell_length_b       3.25367
_cell_length_c       14.637
_cell_angle_alpha    90
_cell_angle_beta     90
_cell_angle_gamma    120

_symmetry_Int_Tables_number  164
_chemical_formula_structural  MgCd2
_chemical_formula_sum  Mg2Cd4
_cell_volume  134.19278087361195
_cell_formula_units_Z  2
loop_
  _symmetry_equiv_pos_site_id
 _symmetry_equiv_pos_as_xyz
 1  'x, y, z'
loop_
 _atom_site_type_symbol
 _atom_site_label
 _atom_site_symmetry_multiplicity
 _atom_site_fract_x
 _atom_site_fract_y
 _atom_site_fract_z
 _atom_site_fract_occupancy
 Cd  Cd1  1  0.66667  0.33333  0.91624  1
 Cd  Cd2  1  0.33333  0.66667  0.74850  1
 Cd  Cd3  1  0.66667  0.33333  0.25150  1
 Cd  Cd4  1  0.33333  0.66667  0.08376  1
 Mg  Mg1  1  0.66667  0.33333  0.58595  1
 Mg  Mg2  1  0.33333  0.66667  0.41406  1
