CIF file written using JARVIS-Tools package.
data_Fe3O4F2
_symmetry_space_group_name_H-M  'P2_1'
_cell_length_a       5.43322
_cell_length_b       4.37638
_cell_length_c       7.36447
_cell_angle_alpha    90
_cell_angle_beta     93.8535
_cell_angle_gamma    90

_symmetry_Int_Tables_number  4
_chemical_formula_structural  Fe3O4F2
_chemical_formula_sum  Fe6O8F4
_cell_volume  174.71515934234003
_cell_formula_units_Z  2
loop_
  _symmetry_equiv_pos_site_id
 _symmetry_equiv_pos_as_xyz
 1  'x, y, z'
loop_
 _atom_site_type_symbol
 _atom_site_label
 _atom_site_symmetry_multiplicity
 _atom_site_fract_x
 _atom_site_fract_y
 _atom_site_fract_z
 _atom_site_fract_occupancy
 F  F1  1  0.46529  0.77939  0.39837  1
 F  F2  1  0.88110  0.27867  0.94593  1
 F  F3  1  0.11890  0.77867  0.05407  1
 F  F4  1  0.53471  0.27939  0.60163  1
 Fe  Fe1  1  0.09190  0.99341  0.81499  1
 Fe  Fe2  1  0.22841  0.48486  0.50139  1
 Fe  Fe3  1  0.77159  0.98486  0.49861  1
 Fe  Fe4  1  0.90810  0.49341  0.18501  1
 Fe  Fe5  1  0.56712  0.54227  0.84051  1
 Fe  Fe6  1  0.43288  0.04227  0.15949  1
 O  O1  1  0.79365  0.79607  0.72643  1
 O  O2  1  0.27923  0.70821  0.71146  1
 O  O3  1  0.97092  0.70901  0.39297  1
 O  O4  1  0.36754  0.20812  0.92578  1
 O  O5  1  0.02908  0.20901  0.60703  1
 O  O6  1  0.72077  0.20821  0.28854  1
 O  O7  1  0.20635  0.29607  0.27357  1
 O  O8  1  0.63246  0.70812  0.07422  1
