CIF file written using JARVIS-Tools package.
data_Mg2BeCd2
_symmetry_space_group_name_H-M  'I4/mmm'
_cell_length_a       8.02334
_cell_length_b       8.02334
_cell_length_c       8.02334
_cell_angle_alpha    151.79
_cell_angle_beta     151.79
_cell_angle_gamma    40.3197

_symmetry_Int_Tables_number  139
_chemical_formula_structural  Mg2BeCd2
_chemical_formula_sum  Mg2BeCd2
_cell_volume  115.17793983642079
_cell_formula_units_Z  1
loop_
  _symmetry_equiv_pos_site_id
 _symmetry_equiv_pos_as_xyz
 1  'x, y, z'
loop_
 _atom_site_type_symbol
 _atom_site_label
 _atom_site_symmetry_multiplicity
 _atom_site_fract_x
 _atom_site_fract_y
 _atom_site_fract_z
 _atom_site_fract_occupancy
 Be  Be1  1  0.00000  0.00000  0.00000  1
 Cd  Cd1  1  0.75000  0.25000  0.50000  1
 Cd  Cd2  1  0.25000  0.75000  0.50000  1
 Mg  Mg1  1  0.59268  0.59268  -0.00000  1
 Mg  Mg2  1  0.40732  0.40732  0.00000  1
