CIF file written using JARVIS-Tools package.
data_MgBr2O2
_symmetry_space_group_name_H-M  'C2/m'
_cell_length_a       4.10314
_cell_length_b       4.85726
_cell_length_c       4.85726
_cell_angle_alpha    85.5735
_cell_angle_beta     103.26
_cell_angle_gamma    103.26

_symmetry_Int_Tables_number  12
_chemical_formula_structural  MgBr2O2
_chemical_formula_sum  MgBr2O2
_cell_volume  91.68125807375492
_cell_formula_units_Z  1
loop_
  _symmetry_equiv_pos_site_id
 _symmetry_equiv_pos_as_xyz
 1  'x, y, z'
loop_
 _atom_site_type_symbol
 _atom_site_label
 _atom_site_symmetry_multiplicity
 _atom_site_fract_x
 _atom_site_fract_y
 _atom_site_fract_z
 _atom_site_fract_occupancy
 Br  Br1  1  0.64116  0.27726  0.27726  1
 Br  Br2  1  0.35884  0.72274  0.72274  1
 Mg  Mg1  1  0.00000  0.00000  0.00000  1
 O  O1  1  0.00000  0.70442  0.29558  1
 O  O2  1  0.00000  0.29558  0.70442  1
