CIF file written using JARVIS-Tools package.
data_LaMg6W
_symmetry_space_group_name_H-M  'Amm2'
_cell_length_a       6.54247
_cell_length_b       6.54246
_cell_length_c       5.02093
_cell_angle_alpha    90
_cell_angle_beta     90
_cell_angle_gamma    121.799

_symmetry_Int_Tables_number  38
_chemical_formula_structural  LaMg6W
_chemical_formula_sum  LaMg6W
_cell_volume  182.65585298370675
_cell_formula_units_Z  1
loop_
  _symmetry_equiv_pos_site_id
 _symmetry_equiv_pos_as_xyz
 1  'x, y, z'
loop_
 _atom_site_type_symbol
 _atom_site_label
 _atom_site_symmetry_multiplicity
 _atom_site_fract_x
 _atom_site_fract_y
 _atom_site_fract_z
 _atom_site_fract_occupancy
 La  La1  1  0.19965  0.30035  0.25000  1
 Mg  Mg1  1  0.18515  0.82784  0.25000  1
 Mg  Mg2  1  0.67216  0.31485  0.25000  1
 Mg  Mg3  1  0.66307  0.83693  0.25000  1
 Mg  Mg4  1  0.32719  0.68645  0.75000  1
 Mg  Mg5  1  0.81355  0.17281  0.75000  1
 Mg  Mg6  1  0.82427  0.67573  0.75000  1
 W  W1  1  0.31496  0.18504  0.75000  1
