CIF file written using JARVIS-Tools package.
data_GaCu2
_symmetry_space_group_name_H-M  'P6/mmm'
_cell_length_a       4.2276
_cell_length_b       4.95909
_cell_length_c       4.95909
_cell_angle_alpha    62.8878
_cell_angle_beta     64.7704
_cell_angle_gamma    64.7704

_symmetry_Int_Tables_number  191
_chemical_formula_structural  GaCu2
_chemical_formula_sum  Ga2Cu4
_cell_volume  80.16562650816404
_cell_formula_units_Z  2
loop_
  _symmetry_equiv_pos_site_id
 _symmetry_equiv_pos_as_xyz
 1  'x, y, z'
loop_
 _atom_site_type_symbol
 _atom_site_label
 _atom_site_symmetry_multiplicity
 _atom_site_fract_x
 _atom_site_fract_y
 _atom_site_fract_z
 _atom_site_fract_occupancy
 Cu  Cu1  1  0.16657  0.33343  0.33342  1
 Cu  Cu2  1  0.83343  0.66657  0.66658  1
 Cu  Cu3  1  0.83343  0.16658  0.16657  1
 Cu  Cu4  1  0.16657  0.83342  0.83343  1
 Ga  Ga1  1  0.49996  0.75004  0.25004  1
 Ga  Ga2  1  0.50004  0.24996  0.74996  1
