CIF file written using JARVIS-Tools package.
data_Be2CdSn
_symmetry_space_group_name_H-M  'P4mm'
_cell_length_a       2.93343
_cell_length_b       2.93343
_cell_length_c       8.06711
_cell_angle_alpha    90
_cell_angle_beta     90
_cell_angle_gamma    90

_symmetry_Int_Tables_number  99
_chemical_formula_structural  Be2CdSn
_chemical_formula_sum  Be2CdSn
_cell_volume  69.41761652757793
_cell_formula_units_Z  1
loop_
  _symmetry_equiv_pos_site_id
 _symmetry_equiv_pos_as_xyz
 1  'x, y, z'
loop_
 _atom_site_type_symbol
 _atom_site_label
 _atom_site_symmetry_multiplicity
 _atom_site_fract_x
 _atom_site_fract_y
 _atom_site_fract_z
 _atom_site_fract_occupancy
 Be  Be1  1  0.00000  0.00000  0.07859  1
 Be  Be2  1  0.50000  0.50000  0.18541  1
 Cd  Cd1  1  0.00000  0.00000  0.43201  1
 Sn  Sn1  1  0.50000  0.50000  0.80400  1
