CIF file written using JARVIS-Tools package.
data_Zr2Sb3Pd
_symmetry_space_group_name_H-M  'P-4m2'
_cell_length_a       3.98066
_cell_length_b       3.98066
_cell_length_c       8.64069
_cell_angle_alpha    90
_cell_angle_beta     90
_cell_angle_gamma    90

_symmetry_Int_Tables_number  115
_chemical_formula_structural  Zr2Sb3Pd
_chemical_formula_sum  Zr2Sb3Pd
_cell_volume  136.9171245531985
_cell_formula_units_Z  1
loop_
  _symmetry_equiv_pos_site_id
 _symmetry_equiv_pos_as_xyz
 1  'x, y, z'
loop_
 _atom_site_type_symbol
 _atom_site_label
 _atom_site_symmetry_multiplicity
 _atom_site_fract_x
 _atom_site_fract_y
 _atom_site_fract_z
 _atom_site_fract_occupancy
 Pd  Pd1  1  0.50000  0.50000  0.00000  1
 Sb  Sb1  1  0.50000  0.00000  0.37782  1
 Sb  Sb2  1  0.00000  0.50000  0.62218  1
 Sb  Sb3  1  0.00000  0.00000  0.00000  1
 Zr  Zr1  1  0.50000  0.00000  0.73861  1
 Zr  Zr2  1  0.00000  0.50000  0.26139  1
