CIF file written using JARVIS-Tools package.
data_ICl
_symmetry_space_group_name_H-M  'P2_1/c'
_cell_length_a       4.32895
_cell_length_b       11.8783
_cell_length_c       11.8167
_cell_angle_alpha    117.06
_cell_angle_beta     90
_cell_angle_gamma    90

_symmetry_Int_Tables_number  14
_chemical_formula_structural  ICl
_chemical_formula_sum  I8Cl8
_cell_volume  541.1068466182992
_cell_formula_units_Z  8
loop_
  _symmetry_equiv_pos_site_id
 _symmetry_equiv_pos_as_xyz
 1  'x, y, z'
loop_
 _atom_site_type_symbol
 _atom_site_label
 _atom_site_symmetry_multiplicity
 _atom_site_fract_x
 _atom_site_fract_y
 _atom_site_fract_z
 _atom_site_fract_occupancy
 Cl  Cl1  1  0.86229  0.15200  0.52588  1
 Cl  Cl2  1  0.63771  0.65200  0.52588  1
 Cl  Cl3  1  0.13771  0.84800  0.47412  1
 Cl  Cl4  1  0.14451  0.61670  0.90910  1
 Cl  Cl5  1  0.85549  0.38330  0.09090  1
 Cl  Cl6  1  0.64451  0.88330  0.09090  1
 Cl  Cl7  1  0.36229  0.34800  0.47412  1
 Cl  Cl8  1  0.35549  0.11670  0.90910  1
 I  I1  1  0.86892  0.63354  0.70390  1
 I  I2  1  0.63108  0.13354  0.70390  1
 I  I3  1  0.87608  0.10948  0.18696  1
 I  I4  1  0.36892  0.86646  0.29610  1
 I  I5  1  0.12392  0.89052  0.81304  1
 I  I6  1  0.13108  0.36646  0.29610  1
 I  I7  1  0.62392  0.60948  0.18696  1
 I  I8  1  0.37608  0.39052  0.81304  1
