CIF file written using JARVIS-Tools package.
data_WS2
_symmetry_space_group_name_H-M  'C2/m'
_cell_length_a       6.6733
_cell_length_b       6.60378
_cell_length_c       6.60427
_cell_angle_alpha    120.936
_cell_angle_beta     78.4553
_cell_angle_gamma    116.15

_symmetry_Int_Tables_number  12
_chemical_formula_structural  WS2
_chemical_formula_sum  W4S8
_cell_volume  223.95500961047355
_cell_formula_units_Z  4
loop_
  _symmetry_equiv_pos_site_id
 _symmetry_equiv_pos_as_xyz
 1  'x, y, z'
loop_
 _atom_site_type_symbol
 _atom_site_label
 _atom_site_symmetry_multiplicity
 _atom_site_fract_x
 _atom_site_fract_y
 _atom_site_fract_z
 _atom_site_fract_occupancy
 S  S1  1  0.21118  0.19707  0.40852  1
 S  S2  1  0.78882  0.80293  0.59148  1
 S  S3  1  0.28294  0.73239  0.40898  1
 S  S4  1  0.71706  0.26761  0.59102  1
 S  S5  1  0.78882  0.30291  0.09148  1
 S  S6  1  0.21118  0.69709  0.90852  1
 S  S7  1  0.71706  0.76761  0.09104  1
 S  S8  1  0.28294  0.23239  0.90896  1
 W  W1  1  0.48819  0.02095  0.22318  1
 W  W2  1  0.51181  0.97905  0.77682  1
 W  W3  1  0.51181  0.47905  0.27682  1
 W  W4  1  0.48819  0.52095  0.72318  1
