CIF file written using JARVIS-Tools package.
data_TiV4CuO12
_symmetry_space_group_name_H-M  'C2'
_cell_length_a       6.70901
_cell_length_b       6.70901
_cell_length_c       5.82149
_cell_angle_alpha    75.2009
_cell_angle_beta     104.799
_cell_angle_gamma    96.6292

_symmetry_Int_Tables_number  5
_chemical_formula_structural  TiV4CuO12
_chemical_formula_sum  TiV4CuO2
_cell_volume  244.58096526118035
_cell_formula_units_Z  1
loop_
  _symmetry_equiv_pos_site_id
 _symmetry_equiv_pos_as_xyz
 1  'x, y, z'
loop_
 _atom_site_type_symbol
 _atom_site_label
 _atom_site_symmetry_multiplicity
 _atom_site_fract_x
 _atom_site_fract_y
 _atom_site_fract_z
 _atom_site_fract_occupancy
 Cu  Cu1  1  0.09518  0.09518  0.75000  1
 O  O1  1  0.63689  0.90635  0.27825  1
 O  O2  1  0.03057  0.81675  0.61293  1
 O  O3  1  0.07212  0.38563  0.76146  1
 O  O4  1  0.90635  0.63689  0.22175  1
 O  O5  1  0.37741  0.64075  0.56034  1
 O  O6  1  0.20104  0.96306  0.17323  1
 O  O7  1  0.33464  0.62885  0.05693  1
 O  O8  1  0.64075  0.37741  0.93966  1
 O  O9  1  0.96306  0.20104  0.32677  1
 O  O10  1  0.62885  0.33464  0.44307  1
 O  O11  1  0.81675  0.03057  0.88707  1
 O  O12  1  0.38563  0.07212  0.73854  1
 Ti  Ti1  1  0.91672  0.91672  0.25000  1
 V  V1  1  0.78899  0.39121  0.23332  1
 V  V2  1  0.61530  0.19855  0.74842  1
 V  V3  1  0.39121  0.78899  0.26668  1
 V  V4  1  0.19855  0.61530  0.75158  1
