CIF file written using JARVIS-Tools package.
data_Fe6O5F7
_symmetry_space_group_name_H-M  'P1'
_cell_length_a       4.77345
_cell_length_b       5.56908
_cell_length_c       7.59261
_cell_angle_alpha    83.2804
_cell_angle_beta     86.0142
_cell_angle_gamma    86.2744

_symmetry_Int_Tables_number  1
_chemical_formula_structural  Fe6O5F7
_chemical_formula_sum  Fe6O5F7
_cell_volume  199.63915570016346
_cell_formula_units_Z  1
loop_
  _symmetry_equiv_pos_site_id
 _symmetry_equiv_pos_as_xyz
 1  'x, y, z'
loop_
 _atom_site_type_symbol
 _atom_site_label
 _atom_site_symmetry_multiplicity
 _atom_site_fract_x
 _atom_site_fract_y
 _atom_site_fract_z
 _atom_site_fract_occupancy
 F  F1  1  0.21208  0.29826  0.90479  1
 F  F2  1  0.18434  0.96676  0.22855  1
 F  F3  1  0.30320  0.78953  0.91294  1
 F  F4  1  0.68682  0.87047  0.41892  1
 F  F5  1  0.80694  0.70008  0.10038  1
 F  F6  1  0.79582  0.37391  0.42883  1
 F  F7  1  0.18312  0.62557  0.57212  1
 Fe  Fe1  1  0.53363  0.85096  0.67776  1
 Fe  Fe2  1  0.97115  0.01836  0.98797  1
 Fe  Fe3  1  0.02027  0.65499  0.33011  1
 Fe  Fe4  1  0.99396  0.31872  0.67402  1
 Fe  Fe5  1  0.47556  0.18389  0.33267  1
 Fe  Fe6  1  0.52198  0.48066  0.00267  1
 O  O1  1  0.31117  0.47055  0.22430  1
 O  O2  1  0.68835  0.19422  0.10978  1
 O  O3  1  0.80884  0.03948  0.75729  1
 O  O4  1  0.29716  0.13767  0.56162  1
 O  O5  1  0.70563  0.52592  0.77527  1
