CIF file written using JARVIS-Tools package.
data_MnOF
_symmetry_space_group_name_H-M  'P1'
_cell_length_a       4.59163
_cell_length_b       7.55045
_cell_length_c       7.56579
_cell_angle_alpha    84.4196
_cell_angle_beta     88.6897
_cell_angle_gamma    89.0904

_symmetry_Int_Tables_number  1
_chemical_formula_structural  MnOF
_chemical_formula_sum  Mn8O8F8
_cell_volume  260.96155147327516
_cell_formula_units_Z  8
loop_
  _symmetry_equiv_pos_site_id
 _symmetry_equiv_pos_as_xyz
 1  'x, y, z'
loop_
 _atom_site_type_symbol
 _atom_site_label
 _atom_site_symmetry_multiplicity
 _atom_site_fract_x
 _atom_site_fract_y
 _atom_site_fract_z
 _atom_site_fract_occupancy
 F  F1  1  0.74196  0.89901  0.96915  1
 F  F2  1  0.78978  0.41761  0.48285  1
 F  F3  1  0.72437  0.49128  0.10410  1
 F  F4  1  0.71955  0.13932  0.23265  1
 F  F5  1  0.25973  0.85115  0.75037  1
 F  F6  1  0.29489  0.96544  0.40334  1
 F  F7  1  0.28802  0.60656  0.51790  1
 F  F8  1  0.71461  0.26662  0.85707  1
 Mn  Mn1  1  0.48645  0.68815  0.94358  1
 Mn  Mn2  1  0.99046  0.06106  0.78973  1
 Mn  Mn3  1  0.01394  0.46211  0.71216  1
 Mn  Mn4  1  0.03138  0.55694  0.29063  1
 Mn  Mn5  1  0.01418  0.94162  0.19367  1
 Mn  Mn6  1  0.57106  0.80446  0.54971  1
 Mn  Mn7  1  0.48474  0.20977  0.46790  1
 Mn  Mn8  1  0.43464  0.29228  0.05731  1
 O  O1  1  0.72879  0.02573  0.59925  1
 O  O2  1  0.73931  0.65580  0.73623  1
 O  O3  1  0.26541  0.34379  0.27584  1
 O  O4  1  0.20701  0.24256  0.65738  1
 O  O5  1  0.23589  0.73210  0.13835  1
 O  O6  1  0.19783  0.09993  0.01252  1
 O  O7  1  0.80803  0.76512  0.34771  1
 O  O8  1  0.25797  0.48158  0.91060  1
