CIF file written using JARVIS-Tools package.
data_SmClO2
_symmetry_space_group_name_H-M  'P2_1/m'
_cell_length_a       3.62815
_cell_length_b       7.87543
_cell_length_c       6.14779
_cell_angle_alpha    127.059
_cell_angle_beta     90
_cell_angle_gamma    90

_symmetry_Int_Tables_number  11
_chemical_formula_structural  SmClO2
_chemical_formula_sum  Sm2Cl2O4
_cell_volume  140.18078962733134
_cell_formula_units_Z  2
loop_
  _symmetry_equiv_pos_site_id
 _symmetry_equiv_pos_as_xyz
 1  'x, y, z'
loop_
 _atom_site_type_symbol
 _atom_site_label
 _atom_site_symmetry_multiplicity
 _atom_site_fract_x
 _atom_site_fract_y
 _atom_site_fract_z
 _atom_site_fract_occupancy
 Cl  Cl1  1  0.25000  0.50064  0.24934  1
 Cl  Cl2  1  0.75000  0.49936  0.75066  1
 O  O1  1  0.75000  0.98134  0.43638  1
 O  O2  1  0.25000  0.01866  0.56362  1
 O  O3  1  0.75000  0.13467  0.08483  1
 O  O4  1  0.25000  0.86533  0.91517  1
 Sm  Sm1  1  0.25000  0.18331  0.35899  1
 Sm  Sm2  1  0.75000  0.81669  0.64101  1
