CIF file written using JARVIS-Tools package.
data_Mg6CdW
_symmetry_space_group_name_H-M  'Amm2'
_cell_length_a       6.16066
_cell_length_b       6.16434
_cell_length_c       4.87511
_cell_angle_alpha    90
_cell_angle_beta     90
_cell_angle_gamma    120.02

_symmetry_Int_Tables_number  38
_chemical_formula_structural  Mg6CdW
_chemical_formula_sum  Mg6CdW
_cell_volume  160.30330990663134
_cell_formula_units_Z  1
loop_
  _symmetry_equiv_pos_site_id
 _symmetry_equiv_pos_as_xyz
 1  'x, y, z'
loop_
 _atom_site_type_symbol
 _atom_site_label
 _atom_site_symmetry_multiplicity
 _atom_site_fract_x
 _atom_site_fract_y
 _atom_site_fract_z
 _atom_site_fract_occupancy
 Cd  Cd1  1  0.16718  0.83359  0.25000  1
 Mg  Mg1  1  0.66395  0.32898  0.25000  1
 Mg  Mg2  1  0.66395  0.83497  0.25000  1
 Mg  Mg3  1  0.32493  0.17857  0.75000  1
 Mg  Mg4  1  0.32493  0.64636  0.75000  1
 Mg  Mg5  1  0.85469  0.17734  0.75000  1
 Mg  Mg6  1  0.83714  0.66857  0.75000  1
 W  W1  1  0.16324  0.33162  0.25000  1
