CIF file written using JARVIS-Tools package.
data_NaMg6Co
_symmetry_space_group_name_H-M  'Pmmm'
_cell_length_a       7.34397
_cell_length_b       10.3599
_cell_length_c       3.20596
_cell_angle_alpha    90
_cell_angle_beta     90
_cell_angle_gamma    135.161

_symmetry_Int_Tables_number  47
_chemical_formula_structural  NaMg6Co
_chemical_formula_sum  NaMg6Co
_cell_volume  171.99191282078374
_cell_formula_units_Z  1
loop_
  _symmetry_equiv_pos_site_id
 _symmetry_equiv_pos_as_xyz
 1  'x, y, z'
loop_
 _atom_site_type_symbol
 _atom_site_label
 _atom_site_symmetry_multiplicity
 _atom_site_fract_x
 _atom_site_fract_y
 _atom_site_fract_z
 _atom_site_fract_occupancy
 Co  Co1  1  0.24994  0.37496  0.25000  1
 Mg  Mg1  1  0.75007  0.37504  0.25000  1
 Mg  Mg2  1  0.75006  0.87503  0.25000  1
 Mg  Mg3  1  0.24962  0.17132  0.75000  1
 Mg  Mg4  1  0.25045  0.57871  0.75000  1
 Mg  Mg5  1  0.84297  0.17130  0.75000  1
 Mg  Mg6  1  0.65694  0.57866  0.75000  1
 Na  Na1  1  0.24994  0.87497  0.25000  1
