CIF file written using JARVIS-Tools package.
data_InH3O3
_symmetry_space_group_name_H-M  'R-3'
_cell_length_a       6.92091
_cell_length_b       6.92091
_cell_length_c       6.98754
_cell_angle_alpha    109.666
_cell_angle_beta     109.666
_cell_angle_gamma    109.275

_symmetry_Int_Tables_number  148
_chemical_formula_structural  InH3O3
_chemical_formula_sum  In4H2O2
_cell_volume  257.02566996050984
_cell_formula_units_Z  4
loop_
  _symmetry_equiv_pos_site_id
 _symmetry_equiv_pos_as_xyz
 1  'x, y, z'
loop_
 _atom_site_type_symbol
 _atom_site_label
 _atom_site_symmetry_multiplicity
 _atom_site_fract_x
 _atom_site_fract_y
 _atom_site_fract_z
 _atom_site_fract_occupancy
 H  H1  1  0.54811  0.72011  0.17416  1
 H  H2  1  0.04076  0.68562  0.72734  1
 H  H3  1  0.45189  0.27989  0.82584  1
 H  H4  1  0.31438  0.35514  0.04172  1
 H  H5  1  0.64486  0.95924  0.68658  1
 H  H6  1  0.35514  0.04076  0.31342  1
 H  H7  1  0.27989  0.82800  0.45405  1
 H  H8  1  0.82800  0.54811  0.37395  1
 H  H9  1  0.17200  0.45189  0.62605  1
 H  H10  1  0.72011  0.17200  0.54595  1
 H  H11  1  0.95924  0.31438  0.27266  1
 H  H12  1  0.68562  0.64486  0.95828  1
 In  In1  1  0.50000  -0.00000  0.00000  1
 In  In2  1  -0.00000  0.50000  0.00000  1
 In  In3  1  -0.00000  -0.00000  0.50000  1
 In  In4  1  0.50000  0.50000  0.50000  1
 O  O1  1  0.83227  0.32034  0.15412  1
 O  O2  1  0.83782  0.16478  0.67107  1
 O  O3  1  0.16218  0.83522  0.32893  1
 O  O4  1  0.83522  0.67304  0.50629  1
 O  O5  1  0.16478  0.32696  0.49371  1
 O  O6  1  0.16773  0.67966  0.84588  1
 O  O7  1  0.32034  0.48807  0.16622  1
 O  O8  1  0.67966  0.51193  0.83378  1
 O  O9  1  0.67304  0.83782  0.16675  1
 O  O10  1  0.32696  0.16218  0.83325  1
 O  O11  1  0.48807  0.16773  0.32186  1
 O  O12  1  0.51193  0.83227  0.67814  1
