data_image0
_chemical_formula_structural       F2Fe2OS2Sr2
_chemical_formula_sum              "F2 Fe2 O1 S2 Sr2"
_cell_length_a       9.3418
_cell_length_b       4.056
_cell_length_c       4.056
_cell_angle_alpha    90
_cell_angle_beta     102.538
_cell_angle_gamma    102.538

_space_group_name_H-M_alt    "P 1"
_space_group_IT_number       1

loop_
  _space_group_symop_operation_xyz
  'x, y, z'

loop_
  _atom_site_type_symbol
  _atom_site_label
  _atom_site_symmetry_multiplicity
  _atom_site_fract_x
  _atom_site_fract_y
  _atom_site_fract_z
  _atom_site_occupancy
  F   F1        1.0  0.50000  0.75000  0.25000  1.0000
  F   F2        1.0  0.50000  0.25000  0.75000  1.0000
  Fe  Fe1       1.0  0.00000  0.50000  0.00000  1.0000
  Fe  Fe2       1.0  0.00000  0.00000  0.50000  1.0000
  O   O1        1.0  0.00000  0.50000  0.50000  1.0000
  S   S1        1.0  0.19000  0.09480  0.09480  1.0000
  S   S2        1.0  0.81000  0.90500  0.90500  1.0000
  Sr  Sr1       1.0  0.65900  0.33000  0.33000  1.0000
  Sr  Sr2       1.0  0.34100  0.67000  0.67000  1.0000
