CIF file written using JARVIS-Tools package.
data_Li2UMo2O10
_symmetry_space_group_name_H-M  'P-1'
_cell_length_a       5.34002
_cell_length_b       5.81219
_cell_length_c       8.27843
_cell_angle_alpha    108.35
_cell_angle_beta     101.058
_cell_angle_gamma    103.647

_symmetry_Int_Tables_number  2
_chemical_formula_structural  Li2UMo2O10
_chemical_formula_sum  Li2UMo2O0
_cell_volume  226.9148999323253
_cell_formula_units_Z  1
loop_
  _symmetry_equiv_pos_site_id
 _symmetry_equiv_pos_as_xyz
 1  'x, y, z'
loop_
 _atom_site_type_symbol
 _atom_site_label
 _atom_site_symmetry_multiplicity
 _atom_site_fract_x
 _atom_site_fract_y
 _atom_site_fract_z
 _atom_site_fract_occupancy
 Li  Li1  1  0.48038  0.21581  0.42393  1
 Li  Li2  1  0.51962  0.78419  0.57607  1
 Mo  Mo1  1  0.91371  0.65627  0.30349  1
 Mo  Mo2  1  0.08629  0.34373  0.69651  1
 O  O1  1  0.78331  0.12618  0.54048  1
 O  O2  1  0.78469  0.79390  0.15062  1
 O  O3  1  0.68310  0.94784  0.83674  1
 O  O4  1  0.98096  0.37582  0.17748  1
 O  O5  1  0.31468  0.43182  0.58340  1
 O  O6  1  0.01904  0.62418  0.82252  1
 O  O7  1  0.21531  0.20610  0.84938  1
 O  O8  1  0.68532  0.56818  0.41660  1
 O  O9  1  0.21669  0.87382  0.45952  1
 O  O10  1  0.31690  0.05216  0.16326  1
 U  U1  1  0.00000  0.00000  0.00000  1
