CIF file written using JARVIS-Tools package.
data_Be2CrMo
_symmetry_space_group_name_H-M  'I4/mmm'
_cell_length_a       4.44509
_cell_length_b       4.44509
_cell_length_c       4.44509
_cell_angle_alpha    133.827
_cell_angle_beta     133.827
_cell_angle_gamma    67.3578

_symmetry_Int_Tables_number  139
_chemical_formula_structural  Be2CrMo
_chemical_formula_sum  Be2CrMo
_cell_volume  44.95137985736839
_cell_formula_units_Z  1
loop_
  _symmetry_equiv_pos_site_id
 _symmetry_equiv_pos_as_xyz
 1  'x, y, z'
loop_
 _atom_site_type_symbol
 _atom_site_label
 _atom_site_symmetry_multiplicity
 _atom_site_fract_x
 _atom_site_fract_y
 _atom_site_fract_z
 _atom_site_fract_occupancy
 Be  Be1  1  0.00000  0.00000  0.00000  1
 Be  Be2  1  0.50000  0.50000  0.00000  1
 Cr  Cr1  1  0.25000  0.75000  0.50000  1
 Mo  Mo1  1  0.75000  0.25000  0.50000  1
