CIF file written using JARVIS-Tools package.
data_Nd2W3O12
_symmetry_space_group_name_H-M  'C2/c'
_cell_length_a       7.03923
_cell_length_b       7.03923
_cell_length_c       11.6243
_cell_angle_alpha    100.843
_cell_angle_beta     100.843
_cell_angle_gamma    112.361

_symmetry_Int_Tables_number  15
_chemical_formula_structural  Nd2W3O12
_chemical_formula_sum  Nd4W6O24
_cell_volume  501.3329257326415
_cell_formula_units_Z  2
loop_
  _symmetry_equiv_pos_site_id
 _symmetry_equiv_pos_as_xyz
 1  'x, y, z'
loop_
 _atom_site_type_symbol
 _atom_site_label
 _atom_site_symmetry_multiplicity
 _atom_site_fract_x
 _atom_site_fract_y
 _atom_site_fract_z
 _atom_site_fract_occupancy
 Nd  Nd1  1  0.69460  0.94680  0.40489  1
 Nd  Nd2  1  0.05320  0.30540  0.09511  1
 Nd  Nd3  1  0.30540  0.05320  0.59511  1
 Nd  Nd4  1  0.94680  0.69460  0.90489  1
 O  O1  1  0.05472  0.97325  0.38976  1
 O  O2  1  0.97325  0.05472  0.88976  1
 O  O3  1  0.94528  0.02675  0.61024  1
 O  O4  1  0.65120  0.79355  0.19375  1
 O  O5  1  0.20645  0.34880  0.30625  1
 O  O6  1  0.60104  0.67245  0.93824  1
 O  O7  1  0.39896  0.32755  0.06176  1
 O  O8  1  0.02675  0.94528  0.11024  1
 O  O9  1  0.67245  0.60104  0.43824  1
 O  O10  1  0.32730  0.90177  0.92387  1
 O  O11  1  0.09823  0.67270  0.57613  1
 O  O12  1  0.67270  0.09823  0.07613  1
 O  O13  1  0.32755  0.39896  0.56176  1
 O  O14  1  0.62848  0.22746  0.53916  1
 O  O15  1  0.59838  0.01214  0.72108  1
 O  O16  1  0.77254  0.37152  0.96084  1
 O  O17  1  0.98786  0.40162  0.77892  1
 O  O18  1  0.40162  0.98786  0.27892  1
 O  O19  1  0.01214  0.59838  0.22108  1
 O  O20  1  0.34880  0.20645  0.80625  1
 O  O21  1  0.79355  0.65120  0.69375  1
 O  O22  1  0.22746  0.62848  0.03916  1
 O  O23  1  0.90177  0.32730  0.42387  1
 O  O24  1  0.37152  0.77254  0.46084  1
 W  W1  1  0.88189  0.11811  0.75000  1
 W  W2  1  0.79832  0.51025  0.54807  1
 W  W3  1  0.20168  0.48975  0.45193  1
 W  W4  1  0.51025  0.79832  0.04807  1
 W  W5  1  0.48975  0.20168  0.95193  1
 W  W6  1  0.11811  0.88189  0.25000  1
