CIF file written using JARVIS-Tools package.
data_MnS
_symmetry_space_group_name_H-M  'F-43m'
_cell_length_a       3.5254
_cell_length_b       3.5254
_cell_length_c       6.10951
_cell_angle_alpha    90
_cell_angle_beta     73.2308
_cell_angle_gamma    60

_symmetry_Int_Tables_number  216
_chemical_formula_structural  MnS
_chemical_formula_sum  Mn2S2
_cell_volume  62.00226018449658
_cell_formula_units_Z  2
loop_
  _symmetry_equiv_pos_site_id
 _symmetry_equiv_pos_as_xyz
 1  'x, y, z'
loop_
 _atom_site_type_symbol
 _atom_site_label
 _atom_site_symmetry_multiplicity
 _atom_site_fract_x
 _atom_site_fract_y
 _atom_site_fract_z
 _atom_site_fract_occupancy
 Mn  Mn1  1  0.00006  -0.00003  -0.00008  1
 Mn  Mn2  1  0.00006  0.49997  0.49991  1
 S  S1  1  0.24994  0.37503  0.12508  1
 S  S2  1  0.24994  0.87503  0.62509  1
