CIF file written using JARVIS-Tools package.
data_Mg6GaBi
_symmetry_space_group_name_H-M  'Amm2'
_cell_length_a       6.39493
_cell_length_b       6.61958
_cell_length_c       5.13077
_cell_angle_alpha    90
_cell_angle_beta     90
_cell_angle_gamma    121.169

_symmetry_Int_Tables_number  38
_chemical_formula_structural  Mg6GaBi
_chemical_formula_sum  Mg6GaBi
_cell_volume  185.84084982955497
_cell_formula_units_Z  1
loop_
  _symmetry_equiv_pos_site_id
 _symmetry_equiv_pos_as_xyz
 1  'x, y, z'
loop_
 _atom_site_type_symbol
 _atom_site_label
 _atom_site_symmetry_multiplicity
 _atom_site_fract_x
 _atom_site_fract_y
 _atom_site_fract_z
 _atom_site_fract_occupancy
 Bi  Bi1  1  0.16913  0.83456  0.25000  1
 Ga  Ga1  1  0.16191  0.33095  0.25000  1
 Mg  Mg1  1  0.67213  0.33405  0.25000  1
 Mg  Mg2  1  0.67213  0.83808  0.25000  1
 Mg  Mg3  1  0.33358  0.18389  0.75000  1
 Mg  Mg4  1  0.33358  0.64970  0.75000  1
 Mg  Mg5  1  0.83372  0.16686  0.75000  1
 Mg  Mg6  1  0.82383  0.66191  0.75000  1
