CIF file written using JARVIS-Tools package.
data_LiBH2
_symmetry_space_group_name_H-M  'Pnma'
_cell_length_a       3.06481
_cell_length_b       5.34705
_cell_length_c       8.34058
_cell_angle_alpha    90
_cell_angle_beta     90
_cell_angle_gamma    90

_symmetry_Int_Tables_number  62
_chemical_formula_structural  LiBH2
_chemical_formula_sum  Li4B4H8
_cell_volume  136.68306094709433
_cell_formula_units_Z  4
loop_
  _symmetry_equiv_pos_site_id
 _symmetry_equiv_pos_as_xyz
 1  'x, y, z'
loop_
 _atom_site_type_symbol
 _atom_site_label
 _atom_site_symmetry_multiplicity
 _atom_site_fract_x
 _atom_site_fract_y
 _atom_site_fract_z
 _atom_site_fract_occupancy
 B  B1  1  0.25000  0.41766  0.45457  1
 B  B2  1  0.25000  0.08234  0.95457  1
 B  B3  1  0.75000  0.91766  0.04543  1
 B  B4  1  0.75000  0.58234  0.54543  1
 H  H1  1  0.75000  0.43322  0.41415  1
 H  H2  1  0.75000  0.70396  0.99093  1
 H  H3  1  0.25000  0.29604  0.00907  1
 H  H4  1  0.25000  0.20396  0.50907  1
 H  H5  1  0.25000  0.56678  0.58585  1
 H  H6  1  0.75000  0.79604  0.49093  1
 H  H7  1  0.25000  0.93322  0.08585  1
 H  H8  1  0.75000  0.06678  0.91415  1
 Li  Li1  1  0.75000  0.83733  0.77228  1
 Li  Li2  1  0.75000  0.66267  0.27228  1
 Li  Li3  1  0.25000  0.33733  0.72772  1
 Li  Li4  1  0.25000  0.16267  0.22772  1
