CIF file written using JARVIS-Tools package.
data_KBaMg6
_symmetry_space_group_name_H-M  'Amm2'
_cell_length_a       7.43917
_cell_length_b       7.43917
_cell_length_c       5.32534
_cell_angle_alpha    90
_cell_angle_beta     90
_cell_angle_gamma    116.125

_symmetry_Int_Tables_number  38
_chemical_formula_structural  KBaMg6
_chemical_formula_sum  KBaMg6
_cell_volume  264.6006300152513
_cell_formula_units_Z  1
loop_
  _symmetry_equiv_pos_site_id
 _symmetry_equiv_pos_as_xyz
 1  'x, y, z'
loop_
 _atom_site_type_symbol
 _atom_site_label
 _atom_site_symmetry_multiplicity
 _atom_site_fract_x
 _atom_site_fract_y
 _atom_site_fract_z
 _atom_site_fract_occupancy
 Ba  Ba1  1  0.40257  0.09743  0.75000  1
 K  K1  1  0.09813  0.40187  0.25000  1
 Mg  Mg1  1  0.03010  0.87412  0.25000  1
 Mg  Mg2  1  0.62588  0.46990  0.25000  1
 Mg  Mg3  1  0.59761  0.90239  0.25000  1
 Mg  Mg4  1  0.47600  0.62924  0.75000  1
 Mg  Mg5  1  0.87076  0.02400  0.75000  1
 Mg  Mg6  1  0.89895  0.60105  0.75000  1
