CIF file written using JARVIS-Tools package.
data_TbSbRh
_symmetry_space_group_name_H-M  'Pnma'
_cell_length_a       4.57844
_cell_length_b       7.17727
_cell_length_c       7.8463
_cell_angle_alpha    90
_cell_angle_beta     90
_cell_angle_gamma    90

_symmetry_Int_Tables_number  62
_chemical_formula_structural  TbSbRh
_chemical_formula_sum  Tb4Sb4Rh4
_cell_volume  257.83509790119166
_cell_formula_units_Z  4
loop_
  _symmetry_equiv_pos_site_id
 _symmetry_equiv_pos_as_xyz
 1  'x, y, z'
loop_
 _atom_site_type_symbol
 _atom_site_label
 _atom_site_symmetry_multiplicity
 _atom_site_fract_x
 _atom_site_fract_y
 _atom_site_fract_z
 _atom_site_fract_occupancy
 Rh  Rh1  1  0.75000  0.19932  0.91836  1
 Rh  Rh2  1  0.25000  0.30068  0.41836  1
 Rh  Rh3  1  0.75000  0.69932  0.58164  1
 Rh  Rh4  1  0.25000  0.80068  0.08164  1
 Sb  Sb1  1  0.25000  0.19296  0.09112  1
 Sb  Sb2  1  0.75000  0.30704  0.59112  1
 Sb  Sb3  1  0.25000  0.69296  0.40888  1
 Sb  Sb4  1  0.75000  0.80704  0.90888  1
 Tb  Tb1  1  0.25000  0.50951  0.79941  1
 Tb  Tb2  1  0.75000  0.49049  0.20059  1
 Tb  Tb3  1  0.25000  0.00951  0.70059  1
 Tb  Tb4  1  0.75000  0.99049  0.29941  1
