CIF file written using JARVIS-Tools package.
data_Er2GeRh3
_symmetry_space_group_name_H-M  'R-3m'
_cell_length_a       5.07909
_cell_length_b       5.07909
_cell_length_c       5.07909
_cell_angle_alpha    66.3979
_cell_angle_beta     66.3979
_cell_angle_gamma    66.3978

_symmetry_Int_Tables_number  166
_chemical_formula_structural  Er2GeRh3
_chemical_formula_sum  Er2GeRh3
_cell_volume  105.42870395878757
_cell_formula_units_Z  1
loop_
  _symmetry_equiv_pos_site_id
 _symmetry_equiv_pos_as_xyz
 1  'x, y, z'
loop_
 _atom_site_type_symbol
 _atom_site_label
 _atom_site_symmetry_multiplicity
 _atom_site_fract_x
 _atom_site_fract_y
 _atom_site_fract_z
 _atom_site_fract_occupancy
 Er  Er1  1  0.62942  0.62942  0.62942  1
 Er  Er2  1  0.37058  0.37058  0.37058  1
 Ge  Ge1  1  0.00000  0.00000  0.00000  1
 Rh  Rh1  1  -0.00000  -0.00000  0.50000  1
 Rh  Rh2  1  0.00000  0.50000  -0.00000  1
 Rh  Rh3  1  0.50000  0.00000  -0.00000  1
