CIF file written using JARVIS-Tools package.
data_HPbClO
_symmetry_space_group_name_H-M  'C2/m'
_cell_length_a       5.81463
_cell_length_b       5.81463
_cell_length_c       7.26651
_cell_angle_alpha    64.7952
_cell_angle_beta     115.205
_cell_angle_gamma    139.583

_symmetry_Int_Tables_number  12
_chemical_formula_structural  HPbClO
_chemical_formula_sum  H2Pb2Cl2O2
_cell_volume  141.94093586999097
_cell_formula_units_Z  2
loop_
  _symmetry_equiv_pos_site_id
 _symmetry_equiv_pos_as_xyz
 1  'x, y, z'
loop_
 _atom_site_type_symbol
 _atom_site_label
 _atom_site_symmetry_multiplicity
 _atom_site_fract_x
 _atom_site_fract_y
 _atom_site_fract_z
 _atom_site_fract_occupancy
 Cl  Cl1  1  0.56826  0.43174  0.81462  1
 Cl  Cl2  1  0.43174  0.56826  0.18538  1
 H  H1  1  0.88383  0.11617  0.38846  1
 H  H2  1  0.11617  0.88383  0.61154  1
 O  O1  1  0.80198  0.19802  0.41169  1
 O  O2  1  0.19802  0.80198  0.58831  1
 Pb  Pb1  1  0.82796  0.17204  0.76177  1
 Pb  Pb2  1  0.17204  0.82796  0.23823  1
