CIF file written using JARVIS-Tools package.
data_LaAgSb2
_symmetry_space_group_name_H-M  'P4/nmm'
_cell_length_a       4.44445
_cell_length_b       4.44445
_cell_length_c       10.8505
_cell_angle_alpha    90
_cell_angle_beta     90
_cell_angle_gamma    90

_symmetry_Int_Tables_number  129
_chemical_formula_structural  LaAgSb2
_chemical_formula_sum  La2Ag2Sb4
_cell_volume  214.3300820294356
_cell_formula_units_Z  2
loop_
  _symmetry_equiv_pos_site_id
 _symmetry_equiv_pos_as_xyz
 1  'x, y, z'
loop_
 _atom_site_type_symbol
 _atom_site_label
 _atom_site_symmetry_multiplicity
 _atom_site_fract_x
 _atom_site_fract_y
 _atom_site_fract_z
 _atom_site_fract_occupancy
 Ag  Ag1  1  0.75000  0.25000  0.00000  1
 Ag  Ag2  1  0.25000  0.75000  0.00000  1
 La  La1  1  0.75000  0.75000  0.26009  1
 La  La2  1  0.25000  0.25000  0.73991  1
 Sb  Sb1  1  0.75000  0.75000  0.82820  1
 Sb  Sb2  1  0.25000  0.25000  0.17180  1
 Sb  Sb3  1  0.75000  0.25000  0.50000  1
 Sb  Sb4  1  0.25000  0.75000  0.50000  1
