CIF file written using JARVIS-Tools package.
data_MnClO3
_symmetry_space_group_name_H-M  'Cmc2_1'
_cell_length_a       4.90019
_cell_length_b       6.10011
_cell_length_c       6.1001
_cell_angle_alpha    111.642
_cell_angle_beta     90.0004
_cell_angle_gamma    90.0002

_symmetry_Int_Tables_number  36
_chemical_formula_structural  MnClO3
_chemical_formula_sum  Mn2Cl2O6
_cell_volume  169.48880967539165
_cell_formula_units_Z  2
loop_
  _symmetry_equiv_pos_site_id
 _symmetry_equiv_pos_as_xyz
 1  'x, y, z'
loop_
 _atom_site_type_symbol
 _atom_site_label
 _atom_site_symmetry_multiplicity
 _atom_site_fract_x
 _atom_site_fract_y
 _atom_site_fract_z
 _atom_site_fract_occupancy
 Cl  Cl1  1  0.28276  0.87093  0.12912  1
 Cl  Cl2  1  0.78275  0.12908  0.87088  1
 Mn  Mn1  1  0.40754  0.67267  0.32733  1
 Mn  Mn2  1  0.90754  0.32733  0.67266  1
 O  O1  1  0.29157  0.79374  0.58794  1
 O  O2  1  0.29156  0.41206  0.20624  1
 O  O3  1  0.79156  0.20626  0.41206  1
 O  O4  1  0.73237  0.67012  0.32991  1
 O  O5  1  0.79157  0.58794  0.79376  1
 O  O6  1  0.23237  0.32988  0.67011  1
