CIF file written using JARVIS-Tools package.
data_RbBiF6
_symmetry_space_group_name_H-M  'R-3'
_cell_length_a       5.1668
_cell_length_b       5.1668
_cell_length_c       5.16681
_cell_angle_alpha    97.003
_cell_angle_beta     97.003
_cell_angle_gamma    97.003

_symmetry_Int_Tables_number  148
_chemical_formula_structural  RbBiF6
_chemical_formula_sum  RbBiF6
_cell_volume  134.56571924562118
_cell_formula_units_Z  1
loop_
  _symmetry_equiv_pos_site_id
 _symmetry_equiv_pos_as_xyz
 1  'x, y, z'
loop_
 _atom_site_type_symbol
 _atom_site_label
 _atom_site_symmetry_multiplicity
 _atom_site_fract_x
 _atom_site_fract_y
 _atom_site_fract_z
 _atom_site_fract_occupancy
 Bi  Bi1  1  0.00000  0.00000  0.00000  1
 F  F1  1  0.21179  0.92629  0.34098  1
 F  F2  1  0.92629  0.34098  0.21179  1
 F  F3  1  0.65902  0.78821  0.07371  1
 F  F4  1  0.07371  0.65902  0.78821  1
 F  F5  1  0.78821  0.07371  0.65902  1
 F  F6  1  0.34098  0.21179  0.92629  1
 Rb  Rb1  1  0.50000  0.50000  0.50000  1
