CIF file written using JARVIS-Tools package.
data_ZrGaCu
_symmetry_space_group_name_H-M  'P6_3/mmc'
_cell_length_a       4.23581
_cell_length_b       4.23581
_cell_length_c       6.45666
_cell_angle_alpha    90
_cell_angle_beta     90
_cell_angle_gamma    119.996

_symmetry_Int_Tables_number  194
_chemical_formula_structural  ZrGaCu
_chemical_formula_sum  Zr2Ga2Cu2
_cell_volume  100.329694030744
_cell_formula_units_Z  2
loop_
  _symmetry_equiv_pos_site_id
 _symmetry_equiv_pos_as_xyz
 1  'x, y, z'
loop_
 _atom_site_type_symbol
 _atom_site_label
 _atom_site_symmetry_multiplicity
 _atom_site_fract_x
 _atom_site_fract_y
 _atom_site_fract_z
 _atom_site_fract_occupancy
 Cu  Cu1  1  0.66666  0.33334  0.75000  1
 Cu  Cu2  1  0.33334  0.66666  0.25000  1
 Ga  Ga1  1  0.66667  0.33333  0.25000  1
 Ga  Ga2  1  0.33333  0.66667  0.75000  1
 Zr  Zr1  1  0.00000  0.00000  0.50000  1
 Zr  Zr2  1  0.00000  0.00000  0.00000  1
