CIF file written using JARVIS-Tools package.
data_VAgP2S6
_symmetry_space_group_name_H-M  'P2/c'
_cell_length_a       5.90366
_cell_length_b       6.71922
_cell_length_c       10.7679
_cell_angle_alpha    90
_cell_angle_beta     90
_cell_angle_gamma    105.724

_symmetry_Int_Tables_number  13
_chemical_formula_structural  VAgP2S6
_chemical_formula_sum  V2Ag2P4S2
_cell_volume  411.158966648392
_cell_formula_units_Z  2
loop_
  _symmetry_equiv_pos_site_id
 _symmetry_equiv_pos_as_xyz
 1  'x, y, z'
loop_
 _atom_site_type_symbol
 _atom_site_label
 _atom_site_symmetry_multiplicity
 _atom_site_fract_x
 _atom_site_fract_y
 _atom_site_fract_z
 _atom_site_fract_occupancy
 Ag  Ag1  1  0.25000  0.00000  0.43572  1
 Ag  Ag2  1  0.75000  0.00000  0.56428  1
 P  P1  1  0.29566  0.17297  0.75079  1
 P  P2  1  0.20434  0.82703  0.75079  1
 P  P3  1  0.70434  0.82703  0.24921  1
 P  P4  1  0.79566  0.17297  0.24921  1
 S  S1  1  0.98033  0.23862  0.77065  1
 S  S2  1  0.98011  0.28830  0.39850  1
 S  S3  1  0.48011  0.28830  0.60150  1
 S  S4  1  0.49140  0.23374  0.92000  1
 S  S5  1  0.00860  0.76626  0.92000  1
 S  S6  1  0.50860  0.76626  0.08000  1
 S  S7  1  0.48033  0.23862  0.22935  1
 S  S8  1  0.01989  0.71170  0.60150  1
 S  S9  1  0.51967  0.76138  0.77065  1
 S  S10  1  0.99140  0.23374  0.08000  1
 S  S11  1  0.51989  0.71170  0.39850  1
 S  S12  1  0.01967  0.76138  0.22935  1
 V  V1  1  0.25000  0.00000  0.07107  1
 V  V2  1  0.75000  0.00000  0.92893  1
