CIF file written using JARVIS-Tools package.
data_AuSe
_symmetry_space_group_name_H-M  'C2/m'
_cell_length_a       3.74036
_cell_length_b       4.56062
_cell_length_c       6.46999
_cell_angle_alpha    104.689
_cell_angle_beta     90
_cell_angle_gamma    114.209

_symmetry_Int_Tables_number  12
_chemical_formula_structural  AuSe
_chemical_formula_sum  Au2Se2
_cell_volume  96.69267605605191
_cell_formula_units_Z  2
loop_
  _symmetry_equiv_pos_site_id
 _symmetry_equiv_pos_as_xyz
 1  'x, y, z'
loop_
 _atom_site_type_symbol
 _atom_site_label
 _atom_site_symmetry_multiplicity
 _atom_site_fract_x
 _atom_site_fract_y
 _atom_site_fract_z
 _atom_site_fract_occupancy
 Au  Au1  1  0.50000  -0.00000  0.50000  1
 Au  Au2  1  0.00000  0.00000  0.00000  1
 Se  Se1  1  0.84064  0.68129  0.26757  1
 Se  Se2  1  0.15936  0.31871  0.73243  1
