CIF file written using JARVIS-Tools package.
data_Ba2Mg3F10
_symmetry_space_group_name_H-M  'C2/m'
_cell_length_a       5.98514
_cell_length_b       7.83655
_cell_length_c       9.7875
_cell_angle_alpha    110.928
_cell_angle_beta     107.804
_cell_angle_gamma    90

_symmetry_Int_Tables_number  12
_chemical_formula_structural  Ba2Mg3F10
_chemical_formula_sum  Ba4Mg6F20
_cell_volume  405.1529500863411
_cell_formula_units_Z  2
loop_
  _symmetry_equiv_pos_site_id
 _symmetry_equiv_pos_as_xyz
 1  'x, y, z'
loop_
 _atom_site_type_symbol
 _atom_site_label
 _atom_site_symmetry_multiplicity
 _atom_site_fract_x
 _atom_site_fract_y
 _atom_site_fract_z
 _atom_site_fract_occupancy
 Ba  Ba1  1  0.71744  0.31503  0.43488  1
 Ba  Ba2  1  0.28256  0.68497  0.56512  1
 Ba  Ba3  1  0.61403  0.71959  0.22806  1
 Ba  Ba4  1  0.38597  0.28041  0.77194  1
 F  F1  1  0.14228  0.97391  0.77863  1
 F  F2  1  0.36365  0.02609  0.22137  1
 F  F3  1  0.85772  0.02609  0.22137  1
 F  F4  1  0.63635  0.97391  0.77863  1
 F  F5  1  -0.00000  -0.00000  0.50000  1
 F  F6  1  0.38569  0.47309  0.29585  1
 F  F7  1  0.91016  0.47309  0.29585  1
 F  F8  1  0.61431  0.52691  0.70415  1
 F  F9  1  0.08984  0.52691  0.70415  1
 F  F10  1  0.02179  0.18197  0.04358  1
 F  F11  1  0.13365  0.74340  0.26731  1
 F  F12  1  0.76348  0.71897  0.52696  1
 F  F13  1  0.48289  0.81904  0.96579  1
 F  F14  1  0.97821  0.81803  0.95642  1
 F  F15  1  0.51711  0.18096  0.03421  1
 F  F16  1  0.21949  0.50000  -0.00000  1
 F  F17  1  0.78051  0.50000  0.00000  1
 F  F18  1  0.86635  0.25660  0.73269  1
 F  F19  1  0.23652  0.28103  0.47304  1
 F  F20  1  0.50000  -0.00000  0.50000  1
 Mg  Mg1  1  0.82280  0.98382  0.64561  1
 Mg  Mg2  1  0.92617  0.54615  0.85235  1
 Mg  Mg3  1  0.07383  0.45385  0.14765  1
 Mg  Mg4  1  0.74627  0.00000  0.00000  1
 Mg  Mg5  1  0.17720  0.01618  0.35439  1
 Mg  Mg6  1  0.25373  -0.00000  -0.00000  1
