CIF file written using JARVIS-Tools package.
data_Fe13Ge3
_symmetry_space_group_name_H-M  'Pm-3m'
_cell_length_a       5.71261
_cell_length_b       5.71329
_cell_length_c       5.71296
_cell_angle_alpha    89.9993
_cell_angle_beta     90.0005
_cell_angle_gamma    89.9991

_symmetry_Int_Tables_number  221
_chemical_formula_structural  Fe13Ge3
_chemical_formula_sum  Fe3Ge3
_cell_volume  186.4582403469618
_cell_formula_units_Z  1
loop_
  _symmetry_equiv_pos_site_id
 _symmetry_equiv_pos_as_xyz
 1  'x, y, z'
loop_
 _atom_site_type_symbol
 _atom_site_label
 _atom_site_symmetry_multiplicity
 _atom_site_fract_x
 _atom_site_fract_y
 _atom_site_fract_z
 _atom_site_fract_occupancy
 Fe  Fe1  1  0.25281  0.25287  0.74720  1
 Fe  Fe2  1  0.25286  0.25281  0.25279  1
 Fe  Fe3  1  0.25278  0.74715  0.74718  1
 Fe  Fe4  1  0.74717  0.74721  0.25285  1
 Fe  Fe5  1  0.74714  0.25278  0.25282  1
 Fe  Fe6  1  0.49998  -0.00000  0.50005  1
 Fe  Fe7  1  0.50000  0.50000  0.50000  1
 Fe  Fe8  1  0.74720  0.25283  0.74719  1
 Fe  Fe9  1  0.25283  0.74719  0.25282  1
 Fe  Fe10  1  -0.00000  0.49998  0.49995  1
 Fe  Fe11  1  0.74721  0.74716  0.74715  1
 Fe  Fe12  1  0.50001  0.50003  0.00000  1
 Fe  Fe13  1  0.00001  -0.00001  -0.00000  1
 Ge  Ge1  1  0.50000  0.99997  0.99994  1
 Ge  Ge2  1  0.00001  0.00003  0.50000  1
 Ge  Ge3  1  -0.00002  0.50000  0.00006  1
