CIF file written using JARVIS-Tools package.
data_Ti5Te4
_symmetry_space_group_name_H-M  'I4/m'
_cell_length_a       3.75398
_cell_length_b       7.46391
_cell_length_c       7.46391
_cell_angle_alpha    86.3742
_cell_angle_beta     75.4351
_cell_angle_gamma    75.4352

_symmetry_Int_Tables_number  87
_chemical_formula_structural  Ti5Te4
_chemical_formula_sum  Ti5Te4
_cell_volume  195.9086529859298
_cell_formula_units_Z  1
loop_
  _symmetry_equiv_pos_site_id
 _symmetry_equiv_pos_as_xyz
 1  'x, y, z'
loop_
 _atom_site_type_symbol
 _atom_site_label
 _atom_site_symmetry_multiplicity
 _atom_site_fract_x
 _atom_site_fract_y
 _atom_site_fract_z
 _atom_site_fract_occupancy
 Te  Te1  1  0.05941  0.21997  0.66121  1
 Te  Te2  1  0.72062  0.33879  0.21997  1
 Te  Te3  1  0.27938  0.66121  0.78003  1
 Te  Te4  1  0.94059  0.78003  0.33879  1
 Ti  Ti1  1  0.00000  0.00000  0.00000  1
 Ti  Ti2  1  0.31448  0.06433  0.30671  1
 Ti  Ti3  1  0.62119  0.69329  0.06433  1
 Ti  Ti4  1  0.37881  0.30671  0.93567  1
 Ti  Ti5  1  0.68552  0.93567  0.69329  1
