CIF file written using JARVIS-Tools package.
data_FeBiO3
_symmetry_space_group_name_H-M  'R3m'
_cell_length_a       3.93213
_cell_length_b       3.93213
_cell_length_c       3.93213
_cell_angle_alpha    88.7392
_cell_angle_beta     88.7392
_cell_angle_gamma    88.7393

_symmetry_Int_Tables_number  160
_chemical_formula_structural  FeBiO3
_chemical_formula_sum  FeBiO3
_cell_volume  60.75378589892428
_cell_formula_units_Z  1
loop_
  _symmetry_equiv_pos_site_id
 _symmetry_equiv_pos_as_xyz
 1  'x, y, z'
loop_
 _atom_site_type_symbol
 _atom_site_label
 _atom_site_symmetry_multiplicity
 _atom_site_fract_x
 _atom_site_fract_y
 _atom_site_fract_z
 _atom_site_fract_occupancy
 Bi  Bi1  1  0.51203  0.51203  0.51203  1
 Fe  Fe1  1  0.94327  0.94327  0.94327  1
 O  O1  1  0.91820  0.43545  0.91820  1
 O  O2  1  0.43545  0.91820  0.91820  1
 O  O3  1  0.91820  0.91820  0.43545  1
