CIF file written using JARVIS-Tools package.
data_Mg6GaFe
_symmetry_space_group_name_H-M  'Amm2'
_cell_length_a       6.09562
_cell_length_b       6.09561
_cell_length_c       4.80105
_cell_angle_alpha    90
_cell_angle_beta     90
_cell_angle_gamma    119.606

_symmetry_Int_Tables_number  38
_chemical_formula_structural  Mg6GaFe
_chemical_formula_sum  Mg6GaFe
_cell_volume  155.09918596895687
_cell_formula_units_Z  1
loop_
  _symmetry_equiv_pos_site_id
 _symmetry_equiv_pos_as_xyz
 1  'x, y, z'
loop_
 _atom_site_type_symbol
 _atom_site_label
 _atom_site_symmetry_multiplicity
 _atom_site_fract_x
 _atom_site_fract_y
 _atom_site_fract_z
 _atom_site_fract_occupancy
 Fe  Fe1  1  0.16932  0.33068  0.25000  1
 Ga  Ga1  1  0.32269  0.17731  0.75000  1
 Mg  Mg1  1  0.16810  0.84123  0.25000  1
 Mg  Mg2  1  0.65877  0.33190  0.25000  1
 Mg  Mg3  1  0.66557  0.83443  0.25000  1
 Mg  Mg4  1  0.32800  0.64666  0.75000  1
 Mg  Mg5  1  0.85334  0.17200  0.75000  1
 Mg  Mg6  1  0.83421  0.66579  0.75000  1
