CIF file written using JARVIS-Tools package.
data_CaZrGeO5
_symmetry_space_group_name_H-M  'P-1'
_cell_length_a       7.49881
_cell_length_b       5.84826
_cell_length_c       5.59575
_cell_angle_alpha    107.659
_cell_angle_beta     101.277
_cell_angle_gamma    104.65

_symmetry_Int_Tables_number  2
_chemical_formula_structural  CaZrGeO5
_chemical_formula_sum  Ca2Zr2Ge2O0
_cell_volume  216.1435866398263
_cell_formula_units_Z  2
loop_
  _symmetry_equiv_pos_site_id
 _symmetry_equiv_pos_as_xyz
 1  'x, y, z'
loop_
 _atom_site_type_symbol
 _atom_site_label
 _atom_site_symmetry_multiplicity
 _atom_site_fract_x
 _atom_site_fract_y
 _atom_site_fract_z
 _atom_site_fract_occupancy
 Ca  Ca1  1  0.79513  0.81742  0.15317  1
 Ca  Ca2  1  0.20487  0.18258  0.84683  1
 Ge  Ge1  1  0.25122  0.82589  0.18527  1
 Ge  Ge2  1  0.74878  0.17411  0.81473  1
 O  O1  1  0.24981  0.43000  0.60260  1
 O  O2  1  0.75019  0.57000  0.39740  1
 O  O3  1  0.05275  0.74384  0.89936  1
 O  O4  1  0.94725  0.25616  0.10064  1
 O  O5  1  0.39671  0.12717  0.21241  1
 O  O6  1  0.60329  0.87283  0.78759  1
 O  O7  1  0.62042  0.38930  0.81088  1
 O  O8  1  0.37958  0.61070  0.18912  1
 O  O9  1  0.87014  0.16066  0.56725  1
 O  O10  1  0.12986  0.83934  0.43275  1
 Zr  Zr1  1  0.50000  0.50000  0.50000  1
 Zr  Zr2  1  0.00000  0.50000  0.50000  1
