CIF file written using JARVIS-Tools package.
data_Mg6AlSi
_symmetry_space_group_name_H-M  'Amm2'
_cell_length_a       6.14042
_cell_length_b       6.14042
_cell_length_c       5.08117
_cell_angle_alpha    90
_cell_angle_beta     90
_cell_angle_gamma    120.772

_symmetry_Int_Tables_number  38
_chemical_formula_structural  Mg6AlSi
_chemical_formula_sum  Mg6AlSi
_cell_volume  164.6108329748634
_cell_formula_units_Z  1
loop_
  _symmetry_equiv_pos_site_id
 _symmetry_equiv_pos_as_xyz
 1  'x, y, z'
loop_
 _atom_site_type_symbol
 _atom_site_label
 _atom_site_symmetry_multiplicity
 _atom_site_fract_x
 _atom_site_fract_y
 _atom_site_fract_z
 _atom_site_fract_occupancy
 Al  Al1  1  0.15896  0.34104  0.25000  1
 Mg  Mg1  1  0.16656  0.84600  0.25000  1
 Mg  Mg2  1  0.65400  0.33344  0.25000  1
 Mg  Mg3  1  0.66582  0.83418  0.25000  1
 Mg  Mg4  1  0.33529  0.65760  0.75000  1
 Mg  Mg5  1  0.84240  0.16471  0.75000  1
 Mg  Mg6  1  0.83511  0.66489  0.75000  1
 Si  Si1  1  0.34186  0.15814  0.75000  1
