CIF file written using JARVIS-Tools package.
data_Ca2Se3O8
_symmetry_space_group_name_H-M  'P-1'
_cell_length_a       5.54271
_cell_length_b       8.14116
_cell_length_c       8.7583
_cell_angle_alpha    91.7748
_cell_angle_beta     96.1685
_cell_angle_gamma    96.5806

_symmetry_Int_Tables_number  2
_chemical_formula_structural  Ca2Se3O8
_chemical_formula_sum  Ca4Se6O6
_cell_volume  389.9587070143013
_cell_formula_units_Z  2
loop_
  _symmetry_equiv_pos_site_id
 _symmetry_equiv_pos_as_xyz
 1  'x, y, z'
loop_
 _atom_site_type_symbol
 _atom_site_label
 _atom_site_symmetry_multiplicity
 _atom_site_fract_x
 _atom_site_fract_y
 _atom_site_fract_z
 _atom_site_fract_occupancy
 Ca  Ca1  1  0.75785  0.04297  0.65163  1
 Ca  Ca2  1  0.24215  0.95703  0.34837  1
 Ca  Ca3  1  0.71201  0.84184  0.04146  1
 Ca  Ca4  1  0.28799  0.15816  0.95854  1
 O  O1  1  0.44843  0.18578  0.52107  1
 O  O2  1  0.87499  0.76195  0.28197  1
 O  O3  1  0.12501  0.23805  0.71803  1
 O  O4  1  0.49251  0.48621  0.68682  1
 O  O5  1  0.50749  0.51379  0.31318  1
 O  O6  1  0.68147  0.24951  0.87006  1
 O  O7  1  0.31853  0.75049  0.12994  1
 O  O8  1  0.74645  0.57074  0.96971  1
 O  O9  1  0.25355  0.42926  0.03029  1
 O  O10  1  0.08606  0.86343  0.58409  1
 O  O11  1  0.54452  0.07692  0.17934  1
 O  O12  1  0.91394  0.13657  0.41591  1
 O  O13  1  0.99224  0.91478  0.86127  1
 O  O14  1  0.00776  0.08522  0.13873  1
 O  O15  1  0.55157  0.81422  0.47893  1
 O  O16  1  0.45548  0.92308  0.82066  1
 Se  Se1  1  0.27018  0.32923  0.57499  1
 Se  Se2  1  0.81974  0.19892  0.23568  1
 Se  Se3  1  0.18026  0.80108  0.76432  1
 Se  Se4  1  0.22615  0.55494  0.18003  1
 Se  Se5  1  0.77385  0.44506  0.81997  1
 Se  Se6  1  0.72982  0.67077  0.42501  1
