CIF file written using JARVIS-Tools package.
data_Mg6GaCu
_symmetry_space_group_name_H-M  'Amm2'
_cell_length_a       6.09077
_cell_length_b       6.09077
_cell_length_c       4.94671
_cell_angle_alpha    90
_cell_angle_beta     90
_cell_angle_gamma    119.671

_symmetry_Int_Tables_number  38
_chemical_formula_structural  Mg6GaCu
_chemical_formula_sum  Mg6GaCu
_cell_volume  159.44888657083087
_cell_formula_units_Z  1
loop_
  _symmetry_equiv_pos_site_id
 _symmetry_equiv_pos_as_xyz
 1  'x, y, z'
loop_
 _atom_site_type_symbol
 _atom_site_label
 _atom_site_symmetry_multiplicity
 _atom_site_fract_x
 _atom_site_fract_y
 _atom_site_fract_z
 _atom_site_fract_occupancy
 Cu  Cu1  1  0.13877  0.36123  0.25000  1
 Ga  Ga1  1  0.34626  0.15374  0.75000  1
 Mg  Mg1  1  0.16417  0.84627  0.25000  1
 Mg  Mg2  1  0.65373  0.33583  0.25000  1
 Mg  Mg3  1  0.66303  0.83697  0.25000  1
 Mg  Mg4  1  0.33518  0.64000  0.75000  1
 Mg  Mg5  1  0.86000  0.16482  0.75000  1
 Mg  Mg6  1  0.83886  0.66114  0.75000  1
