CIF file written using JARVIS-Tools package.
data_BeCdSb2
_symmetry_space_group_name_H-M  'P4mm'
_cell_length_a       3.64594
_cell_length_b       3.64594
_cell_length_c       7.43052
_cell_angle_alpha    90
_cell_angle_beta     90
_cell_angle_gamma    90

_symmetry_Int_Tables_number  99
_chemical_formula_structural  BeCdSb2
_chemical_formula_sum  BeCdSb2
_cell_volume  98.77297496244505
_cell_formula_units_Z  1
loop_
  _symmetry_equiv_pos_site_id
 _symmetry_equiv_pos_as_xyz
 1  'x, y, z'
loop_
 _atom_site_type_symbol
 _atom_site_label
 _atom_site_symmetry_multiplicity
 _atom_site_fract_x
 _atom_site_fract_y
 _atom_site_fract_z
 _atom_site_fract_occupancy
 Be  Be1  1  0.00000  0.00000  0.52849  1
 Cd  Cd1  1  0.50000  0.50000  0.71774  1
 Sb  Sb1  1  0.00000  0.00000  0.90891  1
 Sb  Sb2  1  0.50000  0.50000  0.34486  1
