CIF file written using JARVIS-Tools package.
data_USi2
_symmetry_space_group_name_H-M  'I4_1/amd'
_cell_length_a       3.92688
_cell_length_b       3.92688
_cell_length_c       7.69638
_cell_angle_alpha    104.78
_cell_angle_beta     104.78
_cell_angle_gamma    90

_symmetry_Int_Tables_number  141
_chemical_formula_structural  USi2
_chemical_formula_sum  U2Si4
_cell_volume  110.68808278204081
_cell_formula_units_Z  2
loop_
  _symmetry_equiv_pos_site_id
 _symmetry_equiv_pos_as_xyz
 1  'x, y, z'
loop_
 _atom_site_type_symbol
 _atom_site_label
 _atom_site_symmetry_multiplicity
 _atom_site_fract_x
 _atom_site_fract_y
 _atom_site_fract_z
 _atom_site_fract_occupancy
 Si  Si1  1  0.70676  0.95676  0.91351  1
 Si  Si2  1  0.45676  0.20676  0.41351  1
 Si  Si3  1  0.54324  0.79324  0.58649  1
 Si  Si4  1  0.29324  0.04324  0.08649  1
 U  U1  1  0.87500  0.62500  0.25000  1
 U  U2  1  0.12500  0.37500  0.75000  1
