CIF file written using JARVIS-Tools package.
data_LuGa2Pd
_symmetry_space_group_name_H-M  'Cmcm'
_cell_length_a       4.3707
_cell_length_b       5.45065
_cell_length_c       6.55194
_cell_angle_alpha    90
_cell_angle_beta     90
_cell_angle_gamma    113.637

_symmetry_Int_Tables_number  63
_chemical_formula_structural  LuGa2Pd
_chemical_formula_sum  Lu2Ga4Pd2
_cell_volume  142.99327089578935
_cell_formula_units_Z  2
loop_
  _symmetry_equiv_pos_site_id
 _symmetry_equiv_pos_as_xyz
 1  'x, y, z'
loop_
 _atom_site_type_symbol
 _atom_site_label
 _atom_site_symmetry_multiplicity
 _atom_site_fract_x
 _atom_site_fract_y
 _atom_site_fract_z
 _atom_site_fract_occupancy
 Ga  Ga1  1  0.12629  0.25257  0.44879  1
 Ga  Ga2  1  0.87371  0.74743  0.55121  1
 Ga  Ga3  1  0.12629  0.25257  0.05121  1
 Ga  Ga4  1  0.87371  0.74743  0.94879  1
 Lu  Lu1  1  0.41171  0.82341  0.25000  1
 Lu  Lu2  1  0.58829  0.17659  0.75000  1
 Pd  Pd1  1  0.69992  0.39985  0.25000  1
 Pd  Pd2  1  0.30008  0.60015  0.75000  1
