CIF file written using JARVIS-Tools package.
data_MgCd
_symmetry_space_group_name_H-M  'P3m1'
_cell_length_a       3.25846
_cell_length_b       3.25845
_cell_length_c       14.4442
_cell_angle_alpha    90
_cell_angle_beta     90
_cell_angle_gamma    120

_symmetry_Int_Tables_number  156
_chemical_formula_structural  MgCd
_chemical_formula_sum  Mg3Cd3
_cell_volume  132.81539056257674
_cell_formula_units_Z  3
loop_
  _symmetry_equiv_pos_site_id
 _symmetry_equiv_pos_as_xyz
 1  'x, y, z'
loop_
 _atom_site_type_symbol
 _atom_site_label
 _atom_site_symmetry_multiplicity
 _atom_site_fract_x
 _atom_site_fract_y
 _atom_site_fract_z
 _atom_site_fract_occupancy
 Cd  Cd1  1  0.66667  0.33333  0.83659  1
 Cd  Cd2  1  0.00000  0.00000  0.66716  1
 Cd  Cd3  1  0.66667  0.33333  0.16421  1
 Mg  Mg1  1  0.00000  0.00000  0.00016  1
 Mg  Mg2  1  0.66667  0.33333  0.50293  1
 Mg  Mg3  1  0.00000  0.00000  0.32895  1
