CIF file written using JARVIS-Tools package.
data_BaZn2As2
_symmetry_space_group_name_H-M  'Pnma'
_cell_length_a       4.2888
_cell_length_b       10.0859
_cell_length_c       11.0104
_cell_angle_alpha    90
_cell_angle_beta     90
_cell_angle_gamma    90

_symmetry_Int_Tables_number  62
_chemical_formula_structural  BaZn2As2
_chemical_formula_sum  Ba4Zn8As8
_cell_volume  476.26862407164475
_cell_formula_units_Z  4
loop_
  _symmetry_equiv_pos_site_id
 _symmetry_equiv_pos_as_xyz
 1  'x, y, z'
loop_
 _atom_site_type_symbol
 _atom_site_label
 _atom_site_symmetry_multiplicity
 _atom_site_fract_x
 _atom_site_fract_y
 _atom_site_fract_z
 _atom_site_fract_occupancy
 As  As1  1  0.25000  0.35048  0.53867  1
 As  As2  1  0.75000  0.02201  0.66039  1
 As  As3  1  0.25000  0.47799  0.16039  1
 As  As4  1  0.75000  0.52201  0.83961  1
 As  As5  1  0.75000  0.14952  0.03867  1
 As  As6  1  0.25000  0.85048  0.96133  1
 As  As7  1  0.75000  0.64952  0.46133  1
 As  As8  1  0.25000  0.97799  0.33961  1
 Ba  Ba1  1  0.75000  0.75320  0.17449  1
 Ba  Ba2  1  0.25000  0.24680  0.82551  1
 Ba  Ba3  1  0.25000  0.74680  0.67449  1
 Ba  Ba4  1  0.75000  0.25320  0.32551  1
 Zn  Zn1  1  0.75000  0.94931  0.88154  1
 Zn  Zn2  1  0.25000  0.59899  0.94978  1
 Zn  Zn3  1  0.25000  0.05069  0.11846  1
 Zn  Zn4  1  0.75000  0.40101  0.05022  1
 Zn  Zn5  1  0.75000  0.44931  0.61846  1
 Zn  Zn6  1  0.25000  0.55069  0.38154  1
 Zn  Zn7  1  0.75000  0.90101  0.44978  1
 Zn  Zn8  1  0.25000  0.09899  0.55022  1
