CIF file written using JARVIS-Tools package.
data_SrZnP2O7
_symmetry_space_group_name_H-M  'P2_1/c'
_cell_length_a       5.35583
_cell_length_b       8.23033
_cell_length_c       12.7877
_cell_angle_alpha    90
_cell_angle_beta     90.0637
_cell_angle_gamma    90

_symmetry_Int_Tables_number  14
_chemical_formula_structural  SrZnP2O7
_chemical_formula_sum  Sr4Zn4P8O28
_cell_volume  563.684172205211
_cell_formula_units_Z  4
loop_
  _symmetry_equiv_pos_site_id
 _symmetry_equiv_pos_as_xyz
 1  'x, y, z'
loop_
 _atom_site_type_symbol
 _atom_site_label
 _atom_site_symmetry_multiplicity
 _atom_site_fract_x
 _atom_site_fract_y
 _atom_site_fract_z
 _atom_site_fract_occupancy
 O  O1  1  0.83035  0.85529  0.34849  1
 O  O2  1  0.89921  0.66670  0.52674  1
 O  O3  1  0.01500  0.55562  0.20128  1
 O  O4  1  0.32674  0.59906  0.60056  1
 O  O5  1  0.94483  0.11906  0.26761  1
 O  O6  1  0.55517  0.61906  0.23239  1
 O  O7  1  0.48500  0.05562  0.29872  1
 O  O8  1  0.66965  0.35529  0.15151  1
 O  O9  1  0.60079  0.16670  0.97326  1
 O  O10  1  0.22907  0.88807  0.54742  1
 O  O11  1  0.20759  0.18109  0.09109  1
 O  O12  1  0.72907  0.61193  0.04742  1
 O  O13  1  0.82674  0.90094  0.10056  1
 O  O14  1  0.98500  0.44438  0.79872  1
 O  O15  1  0.33035  0.64471  0.84849  1
 O  O16  1  0.70759  0.31891  0.59109  1
 O  O17  1  0.05517  0.88094  0.73239  1
 O  O18  1  0.27093  0.38807  0.95258  1
 O  O19  1  0.67326  0.40094  0.39944  1
 O  O20  1  0.10079  0.33330  0.47326  1
 O  O21  1  0.17326  0.09906  0.89944  1
 O  O22  1  0.39921  0.83330  0.02674  1
 O  O23  1  0.16965  0.14471  0.65151  1
 O  O24  1  0.79241  0.81891  0.90891  1
 O  O25  1  0.29241  0.68109  0.40891  1
 O  O26  1  0.44483  0.38094  0.76761  1
 O  O27  1  0.77093  0.11193  0.45258  1
 O  O28  1  0.51500  0.94438  0.70128  1
 P  P1  1  0.25131  0.46742  0.83689  1
 P  P2  1  0.18051  0.69901  0.51870  1
 P  P3  1  0.74869  0.53258  0.16311  1
 P  P4  1  0.81949  0.30099  0.48130  1
 P  P5  1  0.75131  0.03258  0.33689  1
 P  P6  1  0.24869  0.96742  0.66311  1
 P  P7  1  0.31949  0.19901  0.98130  1
 P  P8  1  0.68051  0.80099  0.01870  1
 Sr  Sr1  1  0.21204  0.83737  0.22034  1
 Sr  Sr2  1  0.28796  0.33737  0.27966  1
 Sr  Sr3  1  0.78796  0.16263  0.77966  1
 Sr  Sr4  1  0.71204  0.66263  0.72034  1
 Zn  Zn1  1  0.16867  0.85005  0.89490  1
 Zn  Zn2  1  0.83133  0.14995  0.10510  1
 Zn  Zn3  1  0.33133  0.35005  0.60510  1
 Zn  Zn4  1  0.66867  0.64995  0.39490  1
