CIF file written using JARVIS-Tools package.
data_LiHfMg6
_symmetry_space_group_name_H-M  'P-6m2'
_cell_length_a       6.35344
_cell_length_b       6.35345
_cell_length_c       5.03299
_cell_angle_alpha    90
_cell_angle_beta     90
_cell_angle_gamma    119.99

_symmetry_Int_Tables_number  187
_chemical_formula_structural  LiHfMg6
_chemical_formula_sum  LiHfMg6
_cell_volume  175.96179759215
_cell_formula_units_Z  1
loop_
  _symmetry_equiv_pos_site_id
 _symmetry_equiv_pos_as_xyz
 1  'x, y, z'
loop_
 _atom_site_type_symbol
 _atom_site_label
 _atom_site_symmetry_multiplicity
 _atom_site_fract_x
 _atom_site_fract_y
 _atom_site_fract_z
 _atom_site_fract_occupancy
 Hf  Hf1  1  0.41661  0.08339  0.75000  1
 Li  Li1  1  0.08345  0.41655  0.25000  1
 Mg  Mg1  1  0.09072  0.92030  0.25000  1
 Mg  Mg2  1  0.57970  0.40928  0.25000  1
 Mg  Mg3  1  0.57962  0.92038  0.25000  1
 Mg  Mg4  1  0.41716  0.58365  0.75000  1
 Mg  Mg5  1  0.91635  0.08284  0.75000  1
 Mg  Mg6  1  0.91640  0.58360  0.75000  1
