CIF file written using JARVIS-Tools package.
data_Eu3As4Pd4
_symmetry_space_group_name_H-M  'P2/m'
_cell_length_a       4.04598
_cell_length_b       4.27976
_cell_length_c       12.7798
_cell_angle_alpha    90.0015
_cell_angle_beta     90.483
_cell_angle_gamma    90.0011

_symmetry_Int_Tables_number  10
_chemical_formula_structural  Eu3As4Pd4
_chemical_formula_sum  Eu3As4Pd4
_cell_volume  221.28547140447554
_cell_formula_units_Z  1
loop_
  _symmetry_equiv_pos_site_id
 _symmetry_equiv_pos_as_xyz
 1  'x, y, z'
loop_
 _atom_site_type_symbol
 _atom_site_label
 _atom_site_symmetry_multiplicity
 _atom_site_fract_x
 _atom_site_fract_y
 _atom_site_fract_z
 _atom_site_fract_occupancy
 As  As1  1  0.49860  0.50003  0.87705  1
 As  As2  1  0.41934  0.00004  0.59876  1
 As  As3  1  0.50139  0.49999  0.12295  1
 As  As4  1  0.58066  -0.00005  0.40125  1
 Eu  Eu1  1  -0.00965  0.00003  0.80178  1
 Eu  Eu2  1  0.00964  -0.00002  0.19821  1
 Eu  Eu3  1  0.00000  0.49999  0.50000  1
 Pd  Pd1  1  0.47314  0.49994  0.31515  1
 Pd  Pd2  1  0.52687  0.50005  0.68486  1
 Pd  Pd3  1  -0.00000  0.50000  0.00000  1
 Pd  Pd4  1  0.50000  0.00001  -0.00001  1
