CIF file written using JARVIS-Tools package.
data_URe2
_symmetry_space_group_name_H-M  'Cmcm'
_cell_length_a       5.38213
_cell_length_b       5.38213
_cell_length_c       8.27577
_cell_angle_alpha    90
_cell_angle_beta     90
_cell_angle_gamma    113.884

_symmetry_Int_Tables_number  63
_chemical_formula_structural  URe2
_chemical_formula_sum  U4Re8
_cell_volume  219.19753223873272
_cell_formula_units_Z  4
loop_
  _symmetry_equiv_pos_site_id
 _symmetry_equiv_pos_as_xyz
 1  'x, y, z'
loop_
 _atom_site_type_symbol
 _atom_site_label
 _atom_site_symmetry_multiplicity
 _atom_site_fract_x
 _atom_site_fract_y
 _atom_site_fract_z
 _atom_site_fract_occupancy
 Re  Re1  1  0.17544  0.82456  0.25000  1
 Re  Re2  1  0.16710  0.34133  0.25000  1
 Re  Re3  1  0.83290  0.65867  0.75000  1
 Re  Re4  1  0.00000  0.00000  0.00000  1
 Re  Re5  1  0.65867  0.83290  0.25000  1
 Re  Re6  1  0.34133  0.16710  0.75000  1
 Re  Re7  1  0.82456  0.17544  0.75000  1
 Re  Re8  1  0.00000  0.00000  0.50000  1
 U  U1  1  0.33747  0.66253  0.58549  1
 U  U2  1  0.66253  0.33747  0.08549  1
 U  U3  1  0.66253  0.33747  0.41451  1
 U  U4  1  0.33747  0.66253  0.91451  1
