CIF file written using JARVIS-Tools package.
data_H4N2O3
_symmetry_space_group_name_H-M  'Pnma'
_cell_length_a       7.23734
_cell_length_b       7.70854
_cell_length_c       5.29456
_cell_angle_alpha    90
_cell_angle_beta     90
_cell_angle_gamma    90

_symmetry_Int_Tables_number  62
_chemical_formula_structural  H4N2O3
_chemical_formula_sum  H6N8O2
_cell_volume  295.3800586067236
_cell_formula_units_Z  4
loop_
  _symmetry_equiv_pos_site_id
 _symmetry_equiv_pos_as_xyz
 1  'x, y, z'
loop_
 _atom_site_type_symbol
 _atom_site_label
 _atom_site_symmetry_multiplicity
 _atom_site_fract_x
 _atom_site_fract_y
 _atom_site_fract_z
 _atom_site_fract_occupancy
 H  H1  1  0.70091  0.50682  0.59117  1
 H  H2  1  0.20091  0.99318  0.40883  1
 H  H3  1  0.70091  0.50682  0.90883  1
 H  H4  1  0.79909  0.00682  0.59117  1
 H  H5  1  0.79909  0.00682  0.90883  1
 H  H6  1  0.29909  0.49318  0.40883  1
 H  H7  1  0.29909  0.49318  0.09117  1
 H  H8  1  0.91884  0.69322  0.53105  1
 H  H9  1  0.20091  0.99318  0.09117  1
 H  H10  1  0.41884  0.80678  0.46895  1
 H  H11  1  0.08116  0.30678  0.03105  1
 H  H12  1  0.41884  0.80678  0.03105  1
 H  H13  1  0.08116  0.30678  0.46895  1
 H  H14  1  0.58116  0.19322  0.53105  1
 H  H15  1  0.91884  0.69322  0.96895  1
 H  H16  1  0.58116  0.19322  0.96895  1
 N  N1  1  0.79100  0.08550  0.75000  1
 N  N2  1  0.70900  0.58550  0.75000  1
 N  N3  1  0.20900  0.91450  0.25000  1
 N  N4  1  0.29100  0.41450  0.25000  1
 N  N5  1  -0.03033  0.17684  0.75000  1
 N  N6  1  0.53033  0.67684  0.75000  1
 N  N7  1  0.03033  0.82316  0.25000  1
 N  N8  1  0.46967  0.32316  0.25000  1
 O  O1  1  0.95175  0.29087  0.52820  1
 O  O2  1  0.45175  0.20913  0.47180  1
 O  O3  1  0.61544  0.41399  0.25000  1
 O  O4  1  0.88456  0.91399  0.25000  1
 O  O5  1  0.38456  0.58601  0.75000  1
 O  O6  1  0.11544  0.08601  0.75000  1
 O  O7  1  0.45175  0.20913  0.02820  1
 O  O8  1  0.04825  0.70913  0.47180  1
 O  O9  1  0.54825  0.79087  0.52820  1
 O  O10  1  0.95175  0.29087  0.97180  1
 O  O11  1  0.54825  0.79087  0.97180  1
 O  O12  1  0.04825  0.70913  0.02820  1
