CIF file written using JARVIS-Tools package.
data_LaPt5
_symmetry_space_group_name_H-M  'P6/mmm'
_cell_length_a       4.43616
_cell_length_b       5.45619
_cell_length_c       5.45617
_cell_angle_alpha    120
_cell_angle_beta     90
_cell_angle_gamma    90

_symmetry_Int_Tables_number  191
_chemical_formula_structural  LaPt5
_chemical_formula_sum  LaPt5
_cell_volume  114.3708043481026
_cell_formula_units_Z  1
loop_
  _symmetry_equiv_pos_site_id
 _symmetry_equiv_pos_as_xyz
 1  'x, y, z'
loop_
 _atom_site_type_symbol
 _atom_site_label
 _atom_site_symmetry_multiplicity
 _atom_site_fract_x
 _atom_site_fract_y
 _atom_site_fract_z
 _atom_site_fract_occupancy
 La  La1  1  0.00000  -0.00002  0.00000  1
 Pt  Pt1  1  0.00000  0.33331  0.66668  1
 Pt  Pt2  1  0.00000  0.66663  0.33332  1
 Pt  Pt3  1  0.50000  0.49999  -0.00000  1
 Pt  Pt4  1  0.50000  0.49999  0.50001  1
 Pt  Pt5  1  0.50000  -0.00001  0.49999  1
