CIF file written using JARVIS-Tools package.
data_YbCu2S2
_symmetry_space_group_name_H-M  'P-3m1'
_cell_length_a       3.90806
_cell_length_b       3.90795
_cell_length_c       6.39315
_cell_angle_alpha    90.0003
_cell_angle_beta     89.9985
_cell_angle_gamma    119.999

_symmetry_Int_Tables_number  164
_chemical_formula_structural  YbCu2S2
_chemical_formula_sum  YbCu2S2
_cell_volume  84.55868843349164
_cell_formula_units_Z  1
loop_
  _symmetry_equiv_pos_site_id
 _symmetry_equiv_pos_as_xyz
 1  'x, y, z'
loop_
 _atom_site_type_symbol
 _atom_site_label
 _atom_site_symmetry_multiplicity
 _atom_site_fract_x
 _atom_site_fract_y
 _atom_site_fract_z
 _atom_site_fract_occupancy
 Cu  Cu1  1  0.66668  0.33335  0.63936  1
 Cu  Cu2  1  0.33332  0.66665  0.36064  1
 S  S1  1  0.66666  0.33333  0.25343  1
 S  S2  1  0.33334  0.66667  0.74657  1
 Yb  Yb1  1  0.00000  0.00000  0.00000  1
