CIF file written using JARVIS-Tools package.
data_Te2MoWSe2
_symmetry_space_group_name_H-M  'P-3m1'
_cell_length_a       3.4412
_cell_length_b       3.44053
_cell_length_c       35.6124
_cell_angle_alpha    89.9984
_cell_angle_beta     90.0014
_cell_angle_gamma    120.005

_symmetry_Int_Tables_number  164
_chemical_formula_structural  Te2MoWSe2
_chemical_formula_sum  Te4Mo2W2Se4
_cell_volume  365.12810914556525
_cell_formula_units_Z  2
loop_
  _symmetry_equiv_pos_site_id
 _symmetry_equiv_pos_as_xyz
 1  'x, y, z'
loop_
 _atom_site_type_symbol
 _atom_site_label
 _atom_site_symmetry_multiplicity
 _atom_site_fract_x
 _atom_site_fract_y
 _atom_site_fract_z
 _atom_site_fract_occupancy
 Mo  Mo1  1  0.33334  0.66658  0.09085  1
 Mo  Mo2  1  0.66666  0.33342  0.66060  1
 Se  Se1  1  0.33333  0.66672  0.33042  1
 Se  Se2  1  0.66667  0.33328  0.42104  1
 Se  Se3  1  0.66670  0.33338  0.51332  1
 Se  Se4  1  0.33330  0.66662  0.23814  1
 Te  Te1  1  0.33333  0.66661  0.71277  1
 Te  Te2  1  0.66667  0.33339  0.03869  1
 Te  Te3  1  0.66665  0.33333  0.14311  1
 Te  Te4  1  0.33335  0.66667  0.60835  1
 W  W1  1  0.33330  0.66674  0.46716  1
 W  W2  1  0.66670  0.33326  0.28429  1
