CIF file written using JARVIS-Tools package.
data_Rb2Hg2PdCl8
_symmetry_space_group_name_H-M  'C2/m'
_cell_length_a       6.65515
_cell_length_b       6.65515
_cell_length_c       9.8333
_cell_angle_alpha    73.3313
_cell_angle_beta     73.3313
_cell_angle_gamma    60.9565

_symmetry_Int_Tables_number  12
_chemical_formula_structural  Rb2Hg2PdCl8
_chemical_formula_sum  Rb2Hg2PdCl8
_cell_volume  359.0524898377491
_cell_formula_units_Z  1
loop_
  _symmetry_equiv_pos_site_id
 _symmetry_equiv_pos_as_xyz
 1  'x, y, z'
loop_
 _atom_site_type_symbol
 _atom_site_label
 _atom_site_symmetry_multiplicity
 _atom_site_fract_x
 _atom_site_fract_y
 _atom_site_fract_z
 _atom_site_fract_occupancy
 Cl  Cl1  1  0.08510  0.08510  0.30598  1
 Cl  Cl2  1  0.10669  0.62395  0.13438  1
 Cl  Cl3  1  0.64788  0.64788  0.50351  1
 Cl  Cl4  1  0.37605  0.89331  0.86562  1
 Cl  Cl5  1  0.35212  0.35212  0.49649  1
 Cl  Cl6  1  0.62395  0.10669  0.13438  1
 Cl  Cl7  1  0.89331  0.37605  0.86562  1
 Cl  Cl8  1  0.91490  0.91490  0.69402  1
 Hg  Hg1  1  0.86607  0.86607  0.40091  1
 Hg  Hg2  1  0.13393  0.13393  0.59909  1
 Pd  Pd1  1  0.00000  0.00000  0.00000  1
 Rb  Rb1  1  0.39730  0.39730  0.82911  1
 Rb  Rb2  1  0.60270  0.60270  0.17089  1
