CIF file written using JARVIS-Tools package.
data_Mg3MnTe4
_symmetry_space_group_name_H-M  'P-4m2'
_cell_length_a       4.55161
_cell_length_b       4.55161
_cell_length_c       12.8209
_cell_angle_alpha    90
_cell_angle_beta     90
_cell_angle_gamma    90

_symmetry_Int_Tables_number  115
_chemical_formula_structural  Mg3MnTe4
_chemical_formula_sum  Mg3MnTe4
_cell_volume  265.6126549664513
_cell_formula_units_Z  1
loop_
  _symmetry_equiv_pos_site_id
 _symmetry_equiv_pos_as_xyz
 1  'x, y, z'
loop_
 _atom_site_type_symbol
 _atom_site_label
 _atom_site_symmetry_multiplicity
 _atom_site_fract_x
 _atom_site_fract_y
 _atom_site_fract_z
 _atom_site_fract_occupancy
 Mg  Mg1  1  0.00000  0.00000  0.75374  1
 Mg  Mg2  1  0.50000  0.50000  0.50000  1
 Mg  Mg3  1  0.00000  0.00000  0.24626  1
 Mn  Mn1  1  0.50000  0.50000  0.00000  1
 Te  Te1  1  0.00000  0.50000  0.37307  1
 Te  Te2  1  0.50000  0.00000  0.11881  1
 Te  Te3  1  0.00000  0.50000  0.88119  1
 Te  Te4  1  0.50000  0.00000  0.62693  1
