CIF file written using JARVIS-Tools package.
data_Li7FeO6
_symmetry_space_group_name_H-M  'R3'
_cell_length_a       5.45984
_cell_length_b       5.45918
_cell_length_c       5.56518
_cell_angle_alpha    89.9929
_cell_angle_beta     119.38
_cell_angle_gamma    120.002

_symmetry_Int_Tables_number  146
_chemical_formula_structural  Li7FeO6
_chemical_formula_sum  Li7FeO6
_cell_volume  118.3827114836721
_cell_formula_units_Z  1
loop_
  _symmetry_equiv_pos_site_id
 _symmetry_equiv_pos_as_xyz
 1  'x, y, z'
loop_
 _atom_site_type_symbol
 _atom_site_label
 _atom_site_symmetry_multiplicity
 _atom_site_fract_x
 _atom_site_fract_y
 _atom_site_fract_z
 _atom_site_fract_occupancy
 Fe  Fe1  1  0.99931  0.99955  0.99652  1
 Li  Li1  1  0.26800  0.50261  0.32265  1
 Li  Li2  1  0.16201  0.27944  0.67559  1
 Li  Li3  1  0.39860  0.88239  0.67582  1
 Li  Li4  1  0.69289  0.34650  0.03695  1
 Li  Li5  1  0.55972  0.05694  0.32256  1
 Li  Li6  1  0.82243  0.76525  0.32271  1
 Li  Li7  1  0.79562  0.51590  0.67567  1
 O  O1  1  0.56355  0.63649  0.76287  1
 O  O2  1  0.88653  0.11505  0.23582  1
 O  O3  1  0.12318  0.77135  0.23595  1
 O  O4  1  0.83841  0.20161  0.76279  1
 O  O5  1  0.12867  0.92677  0.76291  1
 O  O6  1  0.46689  0.35167  0.23590  1
