data_image0
_chemical_formula_structural       Pd3Tb3Tl3
_chemical_formula_sum              "Pd3 Tb3 Tl3"
_cell_length_a       7.84099
_cell_length_b       7.84099
_cell_length_c       3.79825
_cell_angle_alpha    90
_cell_angle_beta     90
_cell_angle_gamma    120

_space_group_name_H-M_alt    "P 1"
_space_group_IT_number       1

loop_
  _space_group_symop_operation_xyz
  'x, y, z'

loop_
  _atom_site_type_symbol
  _atom_site_label
  _atom_site_symmetry_multiplicity
  _atom_site_fract_x
  _atom_site_fract_y
  _atom_site_fract_z
  _atom_site_occupancy
  Pd  Pd1       1.0  0.66700  0.33300  0.00000  1.0000
  Pd  Pd2       1.0  0.33300  0.66700  0.00000  1.0000
  Pd  Pd3       1.0  0.00002  0.00001  0.50000  1.0000
  Tb  Tb1       1.0  0.59700  0.00002  0.50000  1.0000
  Tb  Tb2       1.0  0.40300  0.40300  0.50000  1.0000
  Tb  Tb3       1.0  0.00002  0.59700  0.50000  1.0000
  Tl  Tl1       1.0  0.26800  0.00001  0.00000  1.0000
  Tl  Tl2       1.0  0.00001  0.26800  0.00000  1.0000
  Tl  Tl3       1.0  0.73200  0.73200  0.00000  1.0000
