CIF file written using JARVIS-Tools package.
data_TeBr2
_symmetry_space_group_name_H-M  'P4_2/mnm'
_cell_length_a       7.97993
_cell_length_b       7.97993
_cell_length_c       3.89095
_cell_angle_alpha    90
_cell_angle_beta     90
_cell_angle_gamma    90

_symmetry_Int_Tables_number  136
_chemical_formula_structural  TeBr2
_chemical_formula_sum  Te2Br4
_cell_volume  247.77299916310247
_cell_formula_units_Z  2
loop_
  _symmetry_equiv_pos_site_id
 _symmetry_equiv_pos_as_xyz
 1  'x, y, z'
loop_
 _atom_site_type_symbol
 _atom_site_label
 _atom_site_symmetry_multiplicity
 _atom_site_fract_x
 _atom_site_fract_y
 _atom_site_fract_z
 _atom_site_fract_occupancy
 Br  Br1  1  0.31975  0.31975  0.00000  1
 Br  Br2  1  0.68025  0.68025  0.00000  1
 Br  Br3  1  0.81975  0.18025  0.50000  1
 Br  Br4  1  0.18025  0.81975  0.50000  1
 Te  Te1  1  0.00000  0.00000  0.00000  1
 Te  Te2  1  0.50000  0.50000  0.50000  1
