CIF file written using JARVIS-Tools package.
data_CoSbS
_symmetry_space_group_name_H-M  'Pmn2_1'
_cell_length_a       3.63548
_cell_length_b       4.8867
_cell_length_c       5.86475
_cell_angle_alpha    90
_cell_angle_beta     90
_cell_angle_gamma    90

_symmetry_Int_Tables_number  31
_chemical_formula_structural  CoSbS
_chemical_formula_sum  Co2Sb2S2
_cell_volume  104.19016708944633
_cell_formula_units_Z  2
loop_
  _symmetry_equiv_pos_site_id
 _symmetry_equiv_pos_as_xyz
 1  'x, y, z'
loop_
 _atom_site_type_symbol
 _atom_site_label
 _atom_site_symmetry_multiplicity
 _atom_site_fract_x
 _atom_site_fract_y
 _atom_site_fract_z
 _atom_site_fract_occupancy
 Co  Co1  1  0.00000  0.28232  0.99928  1
 Co  Co2  1  0.50000  0.71768  0.49928  1
 S  S1  1  0.50000  0.54206  0.13721  1
 S  S2  1  0.00000  0.45794  0.63721  1
 Sb  Sb1  1  0.00000  0.03572  0.37121  1
 Sb  Sb2  1  0.50000  0.96428  0.87121  1
