CIF file written using JARVIS-Tools package.
data_Na2BeGeO4
_symmetry_space_group_name_H-M  'P2_1/c'
_cell_length_a       5.04127
_cell_length_b       7.28475
_cell_length_c       10.177
_cell_angle_alpha    90.3518
_cell_angle_beta     90
_cell_angle_gamma    90

_symmetry_Int_Tables_number  14
_chemical_formula_structural  Na2BeGeO4
_chemical_formula_sum  Na8Be4Ge4O6
_cell_volume  373.73576262626966
_cell_formula_units_Z  4
loop_
  _symmetry_equiv_pos_site_id
 _symmetry_equiv_pos_as_xyz
 1  'x, y, z'
loop_
 _atom_site_type_symbol
 _atom_site_label
 _atom_site_symmetry_multiplicity
 _atom_site_fract_x
 _atom_site_fract_y
 _atom_site_fract_z
 _atom_site_fract_occupancy
 Be  Be1  1  0.15696  0.50052  0.91296  1
 Be  Be2  1  0.84304  0.49948  0.08704  1
 Be  Be3  1  0.34304  0.50052  0.41296  1
 Be  Be4  1  0.65696  0.49948  0.58704  1
 Ge  Ge1  1  0.34387  0.27841  0.16009  1
 Ge  Ge2  1  0.84387  0.72159  0.33991  1
 Ge  Ge3  1  0.15613  0.27841  0.66009  1
 Ge  Ge4  1  0.65613  0.72159  0.83991  1
 Na  Na1  1  0.18292  0.73922  0.63810  1
 Na  Na2  1  0.70881  0.99898  0.60887  1
 Na  Na3  1  0.79119  0.99898  0.10887  1
 Na  Na4  1  0.29119  0.00102  0.39113  1
 Na  Na5  1  0.31708  0.73922  0.13810  1
 Na  Na6  1  0.81708  0.26078  0.36190  1
 Na  Na7  1  0.68292  0.26078  0.86190  1
 Na  Na8  1  0.20881  0.00102  0.89113  1
 O  O1  1  0.17058  0.45604  0.07471  1
 O  O2  1  0.67058  0.54396  0.42529  1
 O  O3  1  0.82942  0.54396  0.92529  1
 O  O4  1  0.32942  0.45604  0.57471  1
 O  O5  1  0.30997  0.68831  0.87267  1
 O  O6  1  0.19003  0.68831  0.37267  1
 O  O7  1  0.80997  0.31169  0.62733  1
 O  O8  1  0.78000  0.68641  0.16835  1
 O  O9  1  0.28000  0.31359  0.33165  1
 O  O10  1  0.26118  0.04987  0.12192  1
 O  O11  1  0.76118  0.95013  0.37808  1
 O  O12  1  0.73882  0.95013  0.87808  1
 O  O13  1  0.23882  0.04987  0.62192  1
 O  O14  1  0.72000  0.68641  0.66835  1
 O  O15  1  0.69003  0.31169  0.12733  1
 O  O16  1  0.22000  0.31359  0.83165  1
