CIF file written using JARVIS-Tools package.
data_CuH4O2F2
_symmetry_space_group_name_H-M  'C2/m'
_cell_length_a       4.94088
_cell_length_b       4.94088
_cell_length_c       3.33249
_cell_angle_alpha    77.6929
_cell_angle_beta     102.307
_cell_angle_gamma    83.6873

_symmetry_Int_Tables_number  12
_chemical_formula_structural  CuH4O2F2
_chemical_formula_sum  CuH4O2F2
_cell_volume  76.6217570738539
_cell_formula_units_Z  1
loop_
  _symmetry_equiv_pos_site_id
 _symmetry_equiv_pos_as_xyz
 1  'x, y, z'
loop_
 _atom_site_type_symbol
 _atom_site_label
 _atom_site_symmetry_multiplicity
 _atom_site_fract_x
 _atom_site_fract_y
 _atom_site_fract_z
 _atom_site_fract_occupancy
 Cu  Cu1  1  0.00000  0.00000  0.00000  1
 F  F1  1  0.23745  0.76255  0.52663  1
 F  F2  1  0.76255  0.23745  0.47337  1
 H  H1  1  0.44564  0.22982  0.20834  1
 H  H2  1  0.77018  0.55436  0.20834  1
 H  H3  1  0.55436  0.77018  0.79166  1
 H  H4  1  0.22982  0.44564  0.79166  1
 O  O1  1  0.26055  0.26055  -0.00000  1
 O  O2  1  0.73945  0.73945  0.00000  1
