CIF file written using JARVIS-Tools package.
data_KMg6Ga
_symmetry_space_group_name_H-M  'Amm2'
_cell_length_a       7.79389
_cell_length_b       7.79389
_cell_length_c       4.74929
_cell_angle_alpha    90
_cell_angle_beta     90
_cell_angle_gamma    132.553

_symmetry_Int_Tables_number  38
_chemical_formula_structural  KMg6Ga
_chemical_formula_sum  KMg6Ga
_cell_volume  212.51837384914907
_cell_formula_units_Z  1
loop_
  _symmetry_equiv_pos_site_id
 _symmetry_equiv_pos_as_xyz
 1  'x, y, z'
loop_
 _atom_site_type_symbol
 _atom_site_label
 _atom_site_symmetry_multiplicity
 _atom_site_fract_x
 _atom_site_fract_y
 _atom_site_fract_z
 _atom_site_fract_occupancy
 Ga  Ga1  1  0.38825  0.11175  0.75000  1
 K  K1  1  0.21396  0.28604  0.25000  1
 Mg  Mg1  1  0.17044  0.81932  0.25000  1
 Mg  Mg2  1  0.68068  0.32956  0.25000  1
 Mg  Mg3  1  0.63085  0.86915  0.25000  1
 Mg  Mg4  1  0.30379  0.68644  0.75000  1
 Mg  Mg5  1  0.81356  0.19621  0.75000  1
 Mg  Mg6  1  0.79847  0.70153  0.75000  1
