CIF file written using JARVIS-Tools package.
data_LiCrGe2O6
_symmetry_space_group_name_H-M  'P2_1/c'
_cell_length_a       5.37644
_cell_length_b       8.76047
_cell_length_c       9.631
_cell_angle_alpha    90
_cell_angle_beta     103.077
_cell_angle_gamma    90

_symmetry_Int_Tables_number  14
_chemical_formula_structural  LiCrGe2O6
_chemical_formula_sum  Li4Cr4Ge8O24
_cell_volume  441.8582021539842
_cell_formula_units_Z  4
loop_
  _symmetry_equiv_pos_site_id
 _symmetry_equiv_pos_as_xyz
 1  'x, y, z'
loop_
 _atom_site_type_symbol
 _atom_site_label
 _atom_site_symmetry_multiplicity
 _atom_site_fract_x
 _atom_site_fract_y
 _atom_site_fract_z
 _atom_site_fract_occupancy
 Cr  Cr1  1  0.45574  0.15954  0.74854  1
 Cr  Cr2  1  0.54426  0.84046  0.25146  1
 Cr  Cr3  1  0.95574  0.34046  0.74854  1
 Cr  Cr4  1  0.04426  0.65954  0.25146  1
 Ge  Ge1  1  0.17119  0.34175  0.44536  1
 Ge  Ge2  1  0.22667  0.65511  0.95353  1
 Ge  Ge3  1  0.82881  0.65825  0.55464  1
 Ge  Ge4  1  0.27333  0.15511  0.04647  1
 Ge  Ge5  1  0.67119  0.15825  0.44536  1
 Ge  Ge6  1  0.77333  0.34489  0.04647  1
 Ge  Ge7  1  0.72667  0.84489  0.95353  1
 Ge  Ge8  1  0.32881  0.84175  0.55464  1
 Li  Li1  1  0.54142  0.48923  0.25794  1
 Li  Li2  1  0.45858  0.51077  0.74206  1
 Li  Li3  1  0.95858  0.98923  0.74206  1
 Li  Li4  1  0.04142  0.01077  0.25794  1
 O  O1  1  0.49603  0.70328  0.88105  1
 O  O2  1  0.82249  0.83421  0.14440  1
 O  O3  1  0.32249  0.66579  0.14440  1
 O  O4  1  0.73693  0.16740  0.63721  1
 O  O5  1  0.16520  0.47098  0.88704  1
 O  O6  1  0.66520  0.02902  0.88704  1
 O  O7  1  0.00397  0.20328  0.11895  1
 O  O8  1  0.33480  0.97098  0.11296  1
 O  O9  1  0.50397  0.29672  0.11895  1
 O  O10  1  0.99603  0.79672  0.88105  1
 O  O11  1  0.26307  0.83260  0.36279  1
 O  O12  1  0.83185  0.31823  0.38680  1
 O  O13  1  0.23842  0.00533  0.63384  1
 O  O14  1  0.26158  0.50533  0.36616  1
 O  O15  1  0.76158  0.99467  0.36616  1
 O  O16  1  0.73842  0.49467  0.63384  1
 O  O17  1  0.16815  0.68177  0.61320  1
 O  O18  1  0.33185  0.18177  0.38680  1
 O  O19  1  0.23693  0.33260  0.63721  1
 O  O20  1  0.66815  0.81823  0.61320  1
 O  O21  1  0.76307  0.66740  0.36279  1
 O  O22  1  0.67751  0.33421  0.85560  1
 O  O23  1  0.83480  0.52902  0.11296  1
 O  O24  1  0.17751  0.16579  0.85560  1
