CIF file written using JARVIS-Tools package.
data_Mg6GaBi
_symmetry_space_group_name_H-M  'Amm2'
_cell_length_a       6.54609
_cell_length_b       6.54609
_cell_length_c       5.19678
_cell_angle_alpha    90
_cell_angle_beta     90
_cell_angle_gamma    123.448

_symmetry_Int_Tables_number  38
_chemical_formula_structural  Mg6GaBi
_chemical_formula_sum  Mg6GaBi
_cell_volume  185.8095664897142
_cell_formula_units_Z  1
loop_
  _symmetry_equiv_pos_site_id
 _symmetry_equiv_pos_as_xyz
 1  'x, y, z'
loop_
 _atom_site_type_symbol
 _atom_site_label
 _atom_site_symmetry_multiplicity
 _atom_site_fract_x
 _atom_site_fract_y
 _atom_site_fract_z
 _atom_site_fract_occupancy
 Bi  Bi1  1  0.34468  0.15532  0.75000  1
 Ga  Ga1  1  0.13328  0.36672  0.25000  1
 Mg  Mg1  1  0.16342  0.82818  0.25000  1
 Mg  Mg2  1  0.67182  0.33658  0.25000  1
 Mg  Mg3  1  0.67046  0.82954  0.25000  1
 Mg  Mg4  1  0.33741  0.65216  0.75000  1
 Mg  Mg5  1  0.84784  0.16259  0.75000  1
 Mg  Mg6  1  0.83109  0.66891  0.75000  1
