CIF file written using JARVIS-Tools package.
data_Mg6BiMo
_symmetry_space_group_name_H-M  'Amm2'
_cell_length_a       6.26782
_cell_length_b       6.17205
_cell_length_c       5.08744
_cell_angle_alpha    90
_cell_angle_beta     90
_cell_angle_gamma    119.496

_symmetry_Int_Tables_number  38
_chemical_formula_structural  Mg6BiMo
_chemical_formula_sum  Mg6BiMo
_cell_volume  171.3009097688939
_cell_formula_units_Z  1
loop_
  _symmetry_equiv_pos_site_id
 _symmetry_equiv_pos_as_xyz
 1  'x, y, z'
loop_
 _atom_site_type_symbol
 _atom_site_label
 _atom_site_symmetry_multiplicity
 _atom_site_fract_x
 _atom_site_fract_y
 _atom_site_fract_z
 _atom_site_fract_occupancy
 Bi  Bi1  1  0.15841  0.82920  0.25000  1
 Mg  Mg1  1  0.66591  0.32903  0.25000  1
 Mg  Mg2  1  0.66591  0.83688  0.25000  1
 Mg  Mg3  1  0.33205  0.18387  0.75000  1
 Mg  Mg4  1  0.33205  0.64819  0.75000  1
 Mg  Mg5  1  0.85439  0.17720  0.75000  1
 Mg  Mg6  1  0.81614  0.65807  0.75000  1
 Mo  Mo1  1  0.17513  0.33757  0.25000  1
