CIF file written using JARVIS-Tools package.
data_Li2BeCl
_symmetry_space_group_name_H-M  'P4mm'
_cell_length_a       3.15927
_cell_length_b       3.15927
_cell_length_c       7.59405
_cell_angle_alpha    90
_cell_angle_beta     90
_cell_angle_gamma    90

_symmetry_Int_Tables_number  99
_chemical_formula_structural  Li2BeCl
_chemical_formula_sum  Li2BeCl
_cell_volume  75.79612778397619
_cell_formula_units_Z  1
loop_
  _symmetry_equiv_pos_site_id
 _symmetry_equiv_pos_as_xyz
 1  'x, y, z'
loop_
 _atom_site_type_symbol
 _atom_site_label
 _atom_site_symmetry_multiplicity
 _atom_site_fract_x
 _atom_site_fract_y
 _atom_site_fract_z
 _atom_site_fract_occupancy
 Be  Be1  1  0.00000  0.00000  0.45101  1
 Cl  Cl1  1  0.50000  0.50000  0.94729  1
 Li  Li1  1  0.00000  0.00000  0.84186  1
 Li  Li2  1  0.50000  0.50000  0.25984  1
