CIF file written using JARVIS-Tools package.
data_InH3O3
_symmetry_space_group_name_H-M  'R-3'
_cell_length_a       6.95398
_cell_length_b       6.95398
_cell_length_c       6.95398
_cell_angle_alpha    109.666
_cell_angle_beta     109.666
_cell_angle_gamma    109.666

_symmetry_Int_Tables_number  148
_chemical_formula_structural  InH3O3
_chemical_formula_sum  In4H2O2
_cell_volume  256.98750265272696
_cell_formula_units_Z  4
loop_
  _symmetry_equiv_pos_site_id
 _symmetry_equiv_pos_as_xyz
 1  'x, y, z'
loop_
 _atom_site_type_symbol
 _atom_site_label
 _atom_site_symmetry_multiplicity
 _atom_site_fract_x
 _atom_site_fract_y
 _atom_site_fract_z
 _atom_site_fract_occupancy
 H  H1  1  0.54639  0.71993  0.17286  1
 H  H2  1  0.17286  0.54639  0.71993  1
 H  H3  1  0.45361  0.28007  0.82714  1
 H  H4  1  0.31344  0.35488  0.04062  1
 H  H5  1  0.64512  0.95938  0.68656  1
 H  H6  1  0.35488  0.04062  0.31344  1
 H  H7  1  0.28007  0.82714  0.45361  1
 H  H8  1  0.95938  0.68656  0.64512  1
 H  H9  1  0.04062  0.31344  0.35488  1
 H  H10  1  0.71993  0.17286  0.54639  1
 H  H11  1  0.82714  0.45361  0.28007  1
 H  H12  1  0.68656  0.64512  0.95938  1
 In  In1  1  0.50000  0.00000  -0.00000  1
 In  In2  1  -0.00000  0.50000  -0.00000  1
 In  In3  1  0.00000  0.00000  0.50000  1
 In  In4  1  0.50000  0.50000  0.50000  1
 O  O1  1  0.83312  0.32727  0.16234  1
 O  O2  1  0.83766  0.16688  0.67273  1
 O  O3  1  0.16234  0.83312  0.32727  1
 O  O4  1  0.83418  0.68021  0.51247  1
 O  O5  1  0.16582  0.31979  0.48753  1
 O  O6  1  0.16688  0.67273  0.83766  1
 O  O7  1  0.31979  0.48753  0.16582  1
 O  O8  1  0.68021  0.51247  0.83418  1
 O  O9  1  0.67273  0.83766  0.16688  1
 O  O10  1  0.32727  0.16234  0.83312  1
 O  O11  1  0.48753  0.16582  0.31979  1
 O  O12  1  0.51247  0.83418  0.68021  1
