CIF file written using JARVIS-Tools package.
data_K2TeO3
_symmetry_space_group_name_H-M  'P-3'
_cell_length_a       6.3027
_cell_length_b       6.3027
_cell_length_c       6.97991
_cell_angle_alpha    90
_cell_angle_beta     90
_cell_angle_gamma    120

_symmetry_Int_Tables_number  147
_chemical_formula_structural  K2TeO3
_chemical_formula_sum  K4Te2O6
_cell_volume  240.12329024158663
_cell_formula_units_Z  2
loop_
  _symmetry_equiv_pos_site_id
 _symmetry_equiv_pos_as_xyz
 1  'x, y, z'
loop_
 _atom_site_type_symbol
 _atom_site_label
 _atom_site_symmetry_multiplicity
 _atom_site_fract_x
 _atom_site_fract_y
 _atom_site_fract_z
 _atom_site_fract_occupancy
 K  K1  1  0.00000  0.00000  0.00000  1
 K  K2  1  0.33333  0.66667  0.61631  1
 K  K3  1  0.00000  0.00000  0.50000  1
 K  K4  1  0.66667  0.33333  0.38369  1
 O  O1  1  0.90145  0.28020  0.74079  1
 O  O2  1  0.37875  0.09855  0.74079  1
 O  O3  1  0.71980  0.62125  0.74079  1
 O  O4  1  0.09855  0.71980  0.25921  1
 O  O5  1  0.28020  0.37875  0.25921  1
 O  O6  1  0.62125  0.90145  0.25921  1
 Te  Te1  1  0.66667  0.33333  0.86649  1
 Te  Te2  1  0.33333  0.66667  0.13351  1
