CIF file written using JARVIS-Tools package.
data_CdCuH8Cl4O4
_symmetry_space_group_name_H-M  'P-1'
_cell_length_a       3.9977
_cell_length_b       6.98172
_cell_length_c       8.50172
_cell_angle_alpha    90.2089
_cell_angle_beta     83.5243
_cell_angle_gamma    74.2009

_symmetry_Int_Tables_number  2
_chemical_formula_structural  CdCuH8Cl4O4
_chemical_formula_sum  CdCuH8Cl4O4
_cell_volume  226.72221635982018
_cell_formula_units_Z  1
loop_
  _symmetry_equiv_pos_site_id
 _symmetry_equiv_pos_as_xyz
 1  'x, y, z'
loop_
 _atom_site_type_symbol
 _atom_site_label
 _atom_site_symmetry_multiplicity
 _atom_site_fract_x
 _atom_site_fract_y
 _atom_site_fract_z
 _atom_site_fract_occupancy
 Cd  Cd1  1  -0.00000  0.00000  0.50000  1
 Cl  Cl1  1  0.92480  0.06580  0.81077  1
 Cl  Cl2  1  0.63002  0.73768  0.52473  1
 Cl  Cl3  1  0.36998  0.26232  0.47527  1
 Cl  Cl4  1  0.07520  0.93420  0.18923  1
 Cu  Cu1  1  0.50000  -0.00000  0.00000  1
 H  H1  1  0.41901  0.59284  0.79227  1
 H  H2  1  0.11687  0.34040  0.12008  1
 H  H3  1  0.33605  0.36064  0.95209  1
 H  H4  1  0.72255  0.55998  0.30532  1
 H  H5  1  0.58099  0.40716  0.20773  1
 H  H6  1  0.66395  0.63936  0.04791  1
 H  H7  1  0.88313  0.65960  0.87992  1
 H  H8  1  0.27745  0.44002  0.69468  1
 O  O1  1  0.25663  0.50835  0.79964  1
 O  O2  1  0.74337  0.49165  0.20036  1
 O  O3  1  0.35014  0.28508  0.05367  1
 O  O4  1  0.64986  0.71492  0.94633  1
