CIF file written using JARVIS-Tools package.
data_VS2
_symmetry_space_group_name_H-M  'I-42d'
_cell_length_a       5.25239
_cell_length_b       5.2524
_cell_length_c       6.20698
_cell_angle_alpha    115.031
_cell_angle_beta     115.031
_cell_angle_gamma    90

_symmetry_Int_Tables_number  122
_chemical_formula_structural  VS2
_chemical_formula_sum  V2S4
_cell_volume  137.19902082645626
_cell_formula_units_Z  2
loop_
  _symmetry_equiv_pos_site_id
 _symmetry_equiv_pos_as_xyz
 1  'x, y, z'
loop_
 _atom_site_type_symbol
 _atom_site_label
 _atom_site_symmetry_multiplicity
 _atom_site_fract_x
 _atom_site_fract_y
 _atom_site_fract_z
 _atom_site_fract_occupancy
 S  S1  1  0.88073  0.87500  0.25000  1
 S  S2  1  0.62500  0.11927  0.75000  1
 S  S3  1  0.36927  0.37500  0.25000  1
 S  S4  1  0.12500  0.63073  0.75000  1
 V  V1  1  0.25000  0.75000  0.50000  1
 V  V2  1  0.00000  0.00000  0.00000  1
