CIF file written using JARVIS-Tools package.
data_NaBe2Cr
_symmetry_space_group_name_H-M  'P4mm'
_cell_length_a       2.42467
_cell_length_b       2.42467
_cell_length_c       8.41842
_cell_angle_alpha    90
_cell_angle_beta     90
_cell_angle_gamma    90

_symmetry_Int_Tables_number  99
_chemical_formula_structural  NaBe2Cr
_chemical_formula_sum  NaBe2Cr
_cell_volume  49.491896365247435
_cell_formula_units_Z  1
loop_
  _symmetry_equiv_pos_site_id
 _symmetry_equiv_pos_as_xyz
 1  'x, y, z'
loop_
 _atom_site_type_symbol
 _atom_site_label
 _atom_site_symmetry_multiplicity
 _atom_site_fract_x
 _atom_site_fract_y
 _atom_site_fract_z
 _atom_site_fract_occupancy
 Be  Be1  1  0.00000  0.00000  0.06515  1
 Be  Be2  1  0.50000  0.50000  0.23521  1
 Cr  Cr1  1  0.00000  0.00000  0.44048  1
 Na  Na1  1  0.50000  0.50000  0.75916  1
