CIF file written using JARVIS-Tools package.
data_Mg2BeCl
_symmetry_space_group_name_H-M  'P4mm'
_cell_length_a       3.2913
_cell_length_b       3.2913
_cell_length_c       7.67869
_cell_angle_alpha    90
_cell_angle_beta     90
_cell_angle_gamma    90

_symmetry_Int_Tables_number  99
_chemical_formula_structural  Mg2BeCl
_chemical_formula_sum  Mg2BeCl
_cell_volume  83.18070606777417
_cell_formula_units_Z  1
loop_
  _symmetry_equiv_pos_site_id
 _symmetry_equiv_pos_as_xyz
 1  'x, y, z'
loop_
 _atom_site_type_symbol
 _atom_site_label
 _atom_site_symmetry_multiplicity
 _atom_site_fract_x
 _atom_site_fract_y
 _atom_site_fract_z
 _atom_site_fract_occupancy
 Be  Be1  1  0.00000  0.00000  0.29170  1
 Cl  Cl1  1  0.50000  0.50000  0.79267  1
 Mg  Mg1  1  0.00000  0.00000  -0.02270  1
 Mg  Mg2  1  0.50000  0.50000  0.43833  1
