CIF file written using JARVIS-Tools package.
data_LaMg6Mo
_symmetry_space_group_name_H-M  'Amm2'
_cell_length_a       6.7214
_cell_length_b       5.95627
_cell_length_c       5.11284
_cell_angle_alpha    90
_cell_angle_beta     90
_cell_angle_gamma    116.301

_symmetry_Int_Tables_number  38
_chemical_formula_structural  LaMg6Mo
_chemical_formula_sum  LaMg6Mo
_cell_volume  183.5009111638745
_cell_formula_units_Z  1
loop_
  _symmetry_equiv_pos_site_id
 _symmetry_equiv_pos_as_xyz
 1  'x, y, z'
loop_
 _atom_site_type_symbol
 _atom_site_label
 _atom_site_symmetry_multiplicity
 _atom_site_fract_x
 _atom_site_fract_y
 _atom_site_fract_z
 _atom_site_fract_occupancy
 La  La1  1  0.14016  0.32008  0.25000  1
 Mg  Mg1  1  0.64477  0.32340  0.25000  1
 Mg  Mg2  1  0.64477  0.82137  0.25000  1
 Mg  Mg3  1  0.34209  0.15786  0.75000  1
 Mg  Mg4  1  0.34209  0.68424  0.75000  1
 Mg  Mg5  1  0.80622  0.15311  0.75000  1
 Mg  Mg6  1  0.90155  0.70077  0.75000  1
 Mo  Mo1  1  0.17834  0.83917  0.25000  1
