CIF file written using JARVIS-Tools package.
data_K2Ca2Be
_symmetry_space_group_name_H-M  'I4/mmm'
_cell_length_a       11.3033
_cell_length_b       11.3033
_cell_length_c       11.3033
_cell_angle_alpha    155.727
_cell_angle_beta     155.727
_cell_angle_gamma    34.5938

_symmetry_Int_Tables_number  139
_chemical_formula_structural  K2Ca2Be
_chemical_formula_sum  K2Ca2Be
_cell_volume  243.78152638391543
_cell_formula_units_Z  1
loop_
  _symmetry_equiv_pos_site_id
 _symmetry_equiv_pos_as_xyz
 1  'x, y, z'
loop_
 _atom_site_type_symbol
 _atom_site_label
 _atom_site_symmetry_multiplicity
 _atom_site_fract_x
 _atom_site_fract_y
 _atom_site_fract_z
 _atom_site_fract_occupancy
 Be  Be1  1  0.00000  0.00000  0.00000  1
 Ca  Ca1  1  0.75000  0.25000  0.50000  1
 Ca  Ca2  1  0.25000  0.75000  0.50000  1
 K  K1  1  0.58470  0.58470  -0.00000  1
 K  K2  1  0.41530  0.41530  -0.00000  1
