CIF file written using JARVIS-Tools package.
data_K2CoH4Se2O10
_symmetry_space_group_name_H-M  'P-1'
_cell_length_a       6.50337
_cell_length_b       7.44281
_cell_length_c       5.59058
_cell_angle_alpha    96.9117
_cell_angle_beta     105.045
_cell_angle_gamma    110.906

_symmetry_Int_Tables_number  2
_chemical_formula_structural  K2CoH4Se2O10
_chemical_formula_sum  K2CoH4Se2O0
_cell_volume  237.22250649464516
_cell_formula_units_Z  1
loop_
  _symmetry_equiv_pos_site_id
 _symmetry_equiv_pos_as_xyz
 1  'x, y, z'
loop_
 _atom_site_type_symbol
 _atom_site_label
 _atom_site_symmetry_multiplicity
 _atom_site_fract_x
 _atom_site_fract_y
 _atom_site_fract_z
 _atom_site_fract_occupancy
 Co  Co1  1  0.00000  0.00000  0.00000  1
 H  H1  1  0.84584  0.60799  0.85135  1
 H  H2  1  0.15416  0.39201  0.14865  1
 H  H3  1  0.99153  0.68909  0.14062  1
 H  H4  1  0.00847  0.31091  0.85938  1
 K  K1  1  0.67884  0.26192  0.27268  1
 K  K2  1  0.32116  0.73808  0.72732  1
 O  O1  1  -0.00471  0.71161  0.96913  1
 O  O2  1  0.27095  0.08641  0.85265  1
 O  O3  1  0.74618  0.92710  0.64491  1
 O  O4  1  0.72905  0.91359  0.14735  1
 O  O5  1  0.88364  0.66476  0.39981  1
 O  O6  1  0.57765  0.38852  0.73208  1
 O  O7  1  0.42235  0.61148  0.26792  1
 O  O8  1  0.25382  0.07290  0.35509  1
 O  O9  1  0.11636  0.33524  0.60019  1
 O  O10  1  0.00471  0.28839  0.03087  1
 Se  Se1  1  0.30260  0.22535  0.63301  1
 Se  Se2  1  0.69740  0.77465  0.36699  1
