CIF file written using JARVIS-Tools package.
data_Li4V2OF7
_symmetry_space_group_name_H-M  'Cm'
_cell_length_a       5.86441
_cell_length_b       5.91893
_cell_length_c       5.91921
_cell_angle_alpha    61.7796
_cell_angle_beta     60.7046
_cell_angle_gamma    60.7068

_symmetry_Int_Tables_number  8
_chemical_formula_structural  Li4V2OF7
_chemical_formula_sum  Li4V2OF7
_cell_volume  148.72899108338208
_cell_formula_units_Z  1
loop_
  _symmetry_equiv_pos_site_id
 _symmetry_equiv_pos_as_xyz
 1  'x, y, z'
loop_
 _atom_site_type_symbol
 _atom_site_label
 _atom_site_symmetry_multiplicity
 _atom_site_fract_x
 _atom_site_fract_y
 _atom_site_fract_z
 _atom_site_fract_occupancy
 F  F1  1  0.25868  0.26020  0.72405  1
 F  F2  1  0.25867  0.72400  0.26024  1
 F  F3  1  0.72597  0.25493  0.25493  1
 F  F4  1  0.25114  0.25346  0.25347  1
 F  F5  1  0.74721  0.74514  0.74509  1
 F  F6  1  0.74878  0.74475  0.26973  1
 F  F7  1  0.74881  0.26978  0.74470  1
 Li  Li1  1  0.99766  0.50189  0.50184  1
 Li  Li2  1  0.48759  0.50815  0.50821  1
 Li  Li3  1  0.89098  0.87512  0.87508  1
 Li  Li4  1  0.12405  0.11548  0.11552  1
 O  O1  1  0.28594  0.74809  0.74813  1
 V  V1  1  0.48727  0.50800  0.99100  1
 V  V2  1  0.48724  0.99100  0.50800  1
