CIF file written using JARVIS-Tools package.
data_LiTiS2O2
_symmetry_space_group_name_H-M  'C2/m'
_cell_length_a       3.41331
_cell_length_b       3.53943
_cell_length_c       9.50396
_cell_angle_alpha    90
_cell_angle_beta     104.855
_cell_angle_gamma    121.23

_symmetry_Int_Tables_number  12
_chemical_formula_structural  LiTiS2O2
_chemical_formula_sum  LiTiS2O2
_cell_volume  93.66414549924394
_cell_formula_units_Z  1
loop_
  _symmetry_equiv_pos_site_id
 _symmetry_equiv_pos_as_xyz
 1  'x, y, z'
loop_
 _atom_site_type_symbol
 _atom_site_label
 _atom_site_symmetry_multiplicity
 _atom_site_fract_x
 _atom_site_fract_y
 _atom_site_fract_z
 _atom_site_fract_occupancy
 Li  Li1  1  0.00000  0.00000  0.50000  1
 O  O1  1  0.10265  0.55132  0.44385  1
 O  O2  1  0.89735  0.44868  0.55615  1
 S  S1  1  0.47846  0.73923  0.15476  1
 S  S2  1  0.52154  0.26077  0.84524  1
 Ti  Ti1  1  0.00000  0.00000  0.00000  1
