CIF file written using JARVIS-Tools package.
data_CaNdCoO4
_symmetry_space_group_name_H-M  'I4mm'
_cell_length_a       6.59681
_cell_length_b       6.59681
_cell_length_c       6.59681
_cell_angle_alpha    147.194
_cell_angle_beta     147.194
_cell_angle_gamma    47.0771

_symmetry_Int_Tables_number  107
_chemical_formula_structural  CaNdCoO4
_chemical_formula_sum  CaNdCoO4
_cell_volume  83.95470408904323
_cell_formula_units_Z  1
loop_
  _symmetry_equiv_pos_site_id
 _symmetry_equiv_pos_as_xyz
 1  'x, y, z'
loop_
 _atom_site_type_symbol
 _atom_site_label
 _atom_site_symmetry_multiplicity
 _atom_site_fract_x
 _atom_site_fract_y
 _atom_site_fract_z
 _atom_site_fract_occupancy
 Ca  Ca1  1  0.63979  0.63979  0.00000  1
 Co  Co1  1  0.01160  0.01160  -0.00000  1
 Nd  Nd1  1  0.36007  0.36007  -0.00000  1
 O  O1  1  0.83150  0.83150  -0.00000  1
 O  O2  1  0.16766  0.16766  0.00000  1
 O  O3  1  0.99470  0.49470  0.50000  1
 O  O4  1  0.49470  0.99470  0.50000  1
