CIF file written using JARVIS-Tools package.
data_MoSeS
_symmetry_space_group_name_H-M  'P-6m2'
_cell_length_a       3.25709
_cell_length_b       3.25706
_cell_length_c       12.9552
_cell_angle_alpha    90
_cell_angle_beta     90
_cell_angle_gamma    120

_symmetry_Int_Tables_number  187
_chemical_formula_structural  MoSeS
_chemical_formula_sum  Mo2Se2S2
_cell_volume  119.02282379711438
_cell_formula_units_Z  2
loop_
  _symmetry_equiv_pos_site_id
 _symmetry_equiv_pos_as_xyz
 1  'x, y, z'
loop_
 _atom_site_type_symbol
 _atom_site_label
 _atom_site_symmetry_multiplicity
 _atom_site_fract_x
 _atom_site_fract_y
 _atom_site_fract_z
 _atom_site_fract_occupancy
 Mo  Mo1  1  0.61062  0.22124  0.00000  1
 Mo  Mo2  1  0.27825  0.55649  0.50000  1
 S  S1  1  0.27729  0.55457  0.11937  1
 S  S2  1  0.27729  0.55457  0.88063  1
 Se  Se1  1  0.61158  0.22316  0.63112  1
 Se  Se2  1  0.61158  0.22316  0.36888  1
