CIF file written using JARVIS-Tools package.
data_NaLuCl4
_symmetry_space_group_name_H-M  'Pbcn'
_cell_length_a       6.11919
_cell_length_b       6.55328
_cell_length_c       15.7615
_cell_angle_alpha    90
_cell_angle_beta     90
_cell_angle_gamma    90

_symmetry_Int_Tables_number  60
_chemical_formula_structural  NaLuCl4
_chemical_formula_sum  Na4Lu4Cl6
_cell_volume  632.049219859666
_cell_formula_units_Z  4
loop_
  _symmetry_equiv_pos_site_id
 _symmetry_equiv_pos_as_xyz
 1  'x, y, z'
loop_
 _atom_site_type_symbol
 _atom_site_label
 _atom_site_symmetry_multiplicity
 _atom_site_fract_x
 _atom_site_fract_y
 _atom_site_fract_z
 _atom_site_fract_occupancy
 Cl  Cl1  1  0.26364  0.57584  0.44978  1
 Cl  Cl2  1  0.25624  0.59823  0.68309  1
 Cl  Cl3  1  0.76364  0.42416  0.05022  1
 Cl  Cl4  1  0.23636  0.07584  0.05022  1
 Cl  Cl5  1  0.73636  0.42416  0.55022  1
 Cl  Cl6  1  0.26364  0.07584  0.55022  1
 Cl  Cl7  1  0.76364  0.92416  0.94978  1
 Cl  Cl8  1  0.75624  0.90177  0.18309  1
 Cl  Cl9  1  0.23636  0.57584  0.94978  1
 Cl  Cl10  1  0.74376  0.40177  0.31691  1
 Cl  Cl11  1  0.25624  0.09823  0.31691  1
 Cl  Cl12  1  0.24376  0.09823  0.81691  1
 Cl  Cl13  1  0.74376  0.90177  0.68309  1
 Cl  Cl14  1  0.24376  0.59823  0.18309  1
 Cl  Cl15  1  0.75624  0.40177  0.81691  1
 Cl  Cl16  1  0.73636  0.92416  0.44978  1
 Lu  Lu1  1  0.50000  0.75000  0.57275  1
 Lu  Lu2  1  0.00000  0.75000  0.07275  1
 Lu  Lu3  1  0.00000  0.25000  0.92725  1
 Lu  Lu4  1  0.50000  0.25000  0.42725  1
 Na  Na1  1  0.50000  0.25000  0.18062  1
 Na  Na2  1  0.00000  0.75000  0.31938  1
 Na  Na3  1  0.50000  0.75000  0.81938  1
 Na  Na4  1  0.00000  0.25000  0.68062  1
