CIF file written using JARVIS-Tools package.
data_CeSe2
_symmetry_space_group_name_H-M  'Fm-3m'
_cell_length_a       4.86406
_cell_length_b       6.87552
_cell_length_c       4.86221
_cell_angle_alpha    90
_cell_angle_beta     90
_cell_angle_gamma    90

_symmetry_Int_Tables_number  225
_chemical_formula_structural  CeSe2
_chemical_formula_sum  Ce2Se4
_cell_volume  162.6066410894628
_cell_formula_units_Z  2
loop_
  _symmetry_equiv_pos_site_id
 _symmetry_equiv_pos_as_xyz
 1  'x, y, z'
loop_
 _atom_site_type_symbol
 _atom_site_label
 _atom_site_symmetry_multiplicity
 _atom_site_fract_x
 _atom_site_fract_y
 _atom_site_fract_z
 _atom_site_fract_occupancy
 Ce  Ce1  1  0.00000  0.89400  0.75000  1
 Ce  Ce2  1  0.50000  0.39400  0.25000  1
 Se  Se1  1  0.50000  0.64406  0.75000  1
 Se  Se2  1  0.00000  0.14406  0.25000  1
 Se  Se3  1  0.50000  0.14394  0.75000  1
 Se  Se4  1  0.00000  0.64394  0.25000  1
