CIF file written using JARVIS-Tools package.
data_KSi2BO6
_symmetry_space_group_name_H-M  'P2_12_12_1'
_cell_length_a       4.72659
_cell_length_b       10.0102
_cell_length_c       10.5039
_cell_angle_alpha    90
_cell_angle_beta     90
_cell_angle_gamma    90

_symmetry_Int_Tables_number  19
_chemical_formula_structural  KSi2BO6
_chemical_formula_sum  K4Si8B4O24
_cell_volume  496.98220377693923
_cell_formula_units_Z  4
loop_
  _symmetry_equiv_pos_site_id
 _symmetry_equiv_pos_as_xyz
 1  'x, y, z'
loop_
 _atom_site_type_symbol
 _atom_site_label
 _atom_site_symmetry_multiplicity
 _atom_site_fract_x
 _atom_site_fract_y
 _atom_site_fract_z
 _atom_site_fract_occupancy
 B  B1  1  0.29261  0.73183  0.84248  1
 B  B2  1  0.20739  0.26817  0.34248  1
 B  B3  1  0.79261  0.76817  0.15752  1
 B  B4  1  0.70739  0.23183  0.65752  1
 K  K1  1  0.80130  0.96685  0.81188  1
 K  K2  1  0.69870  0.03315  0.31188  1
 K  K3  1  0.30130  0.53315  0.18812  1
 K  K4  1  0.19870  0.46685  0.68812  1
 O  O1  1  0.39373  0.75448  0.71106  1
 O  O2  1  0.54544  0.11989  0.60285  1
 O  O3  1  0.01170  0.19706  0.66003  1
 O  O4  1  0.04544  0.38011  0.39715  1
 O  O5  1  0.45456  0.61989  0.89715  1
 O  O6  1  0.66287  0.35755  0.58553  1
 O  O7  1  0.83713  0.64245  0.08553  1
 O  O8  1  0.16287  0.14245  0.41447  1
 O  O9  1  0.33713  0.85755  0.91447  1
 O  O10  1  0.61938  0.55069  0.41812  1
 O  O11  1  0.48830  0.80294  0.16003  1
 O  O12  1  0.51170  0.30294  0.33997  1
 O  O13  1  0.98830  0.69706  0.83997  1
 O  O14  1  0.10627  0.24552  0.21106  1
 O  O15  1  0.89373  0.74552  0.28894  1
 O  O16  1  0.52500  0.80636  0.47107  1
 O  O17  1  0.02500  0.69364  0.52893  1
 O  O18  1  0.47500  0.30636  0.02893  1
 O  O19  1  0.95456  0.88011  0.10285  1
 O  O20  1  0.97500  0.19364  0.97107  1
 O  O21  1  0.11938  0.94931  0.58188  1
 O  O22  1  0.38062  0.05069  0.08188  1
 O  O23  1  0.60627  0.25448  0.78894  1
 O  O24  1  0.88062  0.44931  0.91812  1
 Si  Si1  1  0.73314  0.30138  0.92398  1
 Si  Si2  1  0.76686  0.69862  0.42398  1
 Si  Si3  1  0.23314  0.19862  0.07602  1
 Si  Si4  1  0.26686  0.80138  0.57602  1
 Si  Si5  1  0.21094  0.10850  0.56550  1
 Si  Si6  1  0.28906  0.89150  0.06550  1
 Si  Si7  1  0.71094  0.39150  0.43450  1
 Si  Si8  1  0.78906  0.60850  0.93450  1
