CIF file written using JARVIS-Tools package.
data_Mg6CoC
_symmetry_space_group_name_H-M  'Amm2'
_cell_length_a       6.89471
_cell_length_b       6.89471
_cell_length_c       3.20995
_cell_angle_alpha    90
_cell_angle_beta     90
_cell_angle_gamma    109.978

_symmetry_Int_Tables_number  38
_chemical_formula_structural  Mg6CoC
_chemical_formula_sum  Mg6CoC
_cell_volume  143.4090477440905
_cell_formula_units_Z  1
loop_
  _symmetry_equiv_pos_site_id
 _symmetry_equiv_pos_as_xyz
 1  'x, y, z'
loop_
 _atom_site_type_symbol
 _atom_site_label
 _atom_site_symmetry_multiplicity
 _atom_site_fract_x
 _atom_site_fract_y
 _atom_site_fract_z
 _atom_site_fract_occupancy
 C  C1  1  0.33636  0.16364  0.75000  1
 Co  Co1  1  0.02338  0.47662  0.25000  1
 Mg  Mg1  1  0.22475  0.91435  0.25000  1
 Mg  Mg2  1  0.58565  0.27525  0.25000  1
 Mg  Mg3  1  0.64086  0.85914  0.25000  1
 Mg  Mg4  1  0.33735  0.50635  0.75000  1
 Mg  Mg5  1  0.99365  0.16265  0.75000  1
 Mg  Mg6  1  0.85799  0.64201  0.75000  1
