CIF file written using JARVIS-Tools package.
data_K2PdC2
_symmetry_space_group_name_H-M  'P-3m1'
_cell_length_a       5.09472
_cell_length_b       5.09424
_cell_length_c       5.28369
_cell_angle_alpha    90
_cell_angle_beta     89.9983
_cell_angle_gamma    119.997

_symmetry_Int_Tables_number  164
_chemical_formula_structural  K2PdC2
_chemical_formula_sum  K2PdC2
_cell_volume  118.76303958475775
_cell_formula_units_Z  1
loop_
  _symmetry_equiv_pos_site_id
 _symmetry_equiv_pos_as_xyz
 1  'x, y, z'
loop_
 _atom_site_type_symbol
 _atom_site_label
 _atom_site_symmetry_multiplicity
 _atom_site_fract_x
 _atom_site_fract_y
 _atom_site_fract_z
 _atom_site_fract_occupancy
 C  C1  1  -0.00001  -0.00001  0.38031  1
 C  C2  1  0.00001  0.00001  0.61969  1
 K  K1  1  0.33334  0.66667  0.28301  1
 K  K2  1  0.66666  0.33333  0.71699  1
 Pd  Pd1  1  0.00000  0.00000  0.00000  1
