CIF file written using JARVIS-Tools package.
data_RbSnS4
_symmetry_space_group_name_H-M  'P2_1/c'
_cell_length_a       9.82818
_cell_length_b       10.1385
_cell_length_c       14.3094
_cell_angle_alpha    90
_cell_angle_beta     107.498
_cell_angle_gamma    90

_symmetry_Int_Tables_number  14
_chemical_formula_structural  RbSnS4
_chemical_formula_sum  Rb8Sn8S32
_cell_volume  1359.8550070087306
_cell_formula_units_Z  8
loop_
  _symmetry_equiv_pos_site_id
 _symmetry_equiv_pos_as_xyz
 1  'x, y, z'
loop_
 _atom_site_type_symbol
 _atom_site_label
 _atom_site_symmetry_multiplicity
 _atom_site_fract_x
 _atom_site_fract_y
 _atom_site_fract_z
 _atom_site_fract_occupancy
 Rb  Rb1  1  0.53208  0.22528  0.91253  1
 Rb  Rb2  1  0.96792  0.72528  0.58747  1
 Rb  Rb3  1  0.46792  0.77472  0.08747  1
 Rb  Rb4  1  0.03208  0.27472  0.41253  1
 Rb  Rb5  1  0.85103  0.13295  0.70477  1
 Rb  Rb6  1  0.64897  0.63295  0.79523  1
 Rb  Rb7  1  0.14897  0.86705  0.29523  1
 Rb  Rb8  1  0.35103  0.36705  0.20477  1
 S  S1  1  0.18736  0.35729  0.69021  1
 S  S2  1  0.00784  0.43285  0.71560  1
 S  S3  1  0.32948  0.46288  0.41907  1
 S  S4  1  0.99216  0.56715  0.28440  1
 S  S5  1  0.50784  0.06715  0.21560  1
 S  S6  1  0.14056  0.60248  0.07668  1
 S  S7  1  0.35944  0.10248  0.42332  1
 S  S8  1  0.85944  0.39752  0.92332  1
 S  S9  1  0.67052  0.53712  0.58093  1
 S  S10  1  0.35366  0.55375  0.89902  1
 S  S11  1  0.17052  0.96288  0.08093  1
 S  S12  1  0.00987  0.26901  0.16751  1
 S  S13  1  0.82948  0.03712  0.91907  1
 S  S14  1  0.71435  0.22587  0.46066  1
 S  S15  1  0.78565  0.72587  0.03934  1
 S  S16  1  0.28565  0.77413  0.53934  1
 S  S17  1  0.21435  0.27413  0.96066  1
 S  S18  1  0.64056  0.89752  0.57668  1
 S  S19  1  0.85366  0.94625  0.39902  1
 S  S20  1  0.69392  0.34278  0.23040  1
 S  S21  1  0.19392  0.15722  0.73040  1
 S  S22  1  0.64634  0.44625  0.10098  1
 S  S23  1  0.99013  0.73099  0.83249  1
 S  S24  1  0.50987  0.23099  0.66751  1
 S  S25  1  0.68736  0.14271  0.19021  1
 S  S26  1  0.49013  0.76901  0.33249  1
 S  S27  1  0.31264  0.85729  0.80979  1
 S  S28  1  0.30608  0.65722  0.76960  1
 S  S29  1  0.49216  0.93285  0.78440  1
 S  S30  1  0.80608  0.84278  0.26960  1
 S  S31  1  0.81264  0.64271  0.30979  1
 S  S32  1  0.14634  0.05375  0.60098  1
 Sn  Sn1  1  0.09330  0.50000  0.90306  1
 Sn  Sn2  1  0.47432  0.67381  0.48499  1
 Sn  Sn3  1  0.97432  0.82619  0.98499  1
 Sn  Sn4  1  0.52568  0.32619  0.51501  1
 Sn  Sn5  1  0.59330  0.00000  0.40306  1
 Sn  Sn6  1  0.90670  0.50000  0.09694  1
 Sn  Sn7  1  0.40670  -0.00000  0.59694  1
 Sn  Sn8  1  0.02568  0.17381  0.01501  1
