CIF file written using JARVIS-Tools package.
data_YbNdS3
_symmetry_space_group_name_H-M  'Cmcm'
_cell_length_a       3.95538
_cell_length_b       7.15306
_cell_length_c       8.83721
_cell_angle_alpha    90
_cell_angle_beta     90
_cell_angle_gamma    106.05

_symmetry_Int_Tables_number  63
_chemical_formula_structural  YbNdS3
_chemical_formula_sum  Yb2Nd2S6
_cell_volume  240.28558716802436
_cell_formula_units_Z  2
loop_
  _symmetry_equiv_pos_site_id
 _symmetry_equiv_pos_as_xyz
 1  'x, y, z'
loop_
 _atom_site_type_symbol
 _atom_site_label
 _atom_site_symmetry_multiplicity
 _atom_site_fract_x
 _atom_site_fract_y
 _atom_site_fract_z
 _atom_site_fract_occupancy
 Nd  Nd1  1  0.25045  0.50090  0.50000  1
 Nd  Nd2  1  0.74955  0.49910  0.00000  1
 S  S1  1  0.36023  0.71979  0.82633  1
 S  S2  1  0.35956  0.71979  0.17367  1
 S  S3  1  0.63977  0.28021  0.32633  1
 S  S4  1  0.64044  0.28021  0.67367  1
 S  S5  1  0.89219  0.78439  0.50000  1
 S  S6  1  0.10781  0.21561  0.00000  1
 Yb  Yb1  1  0.00046  -0.00000  0.75000  1
 Yb  Yb2  1  0.99954  0.00000  0.25000  1
