CIF file written using JARVIS-Tools package.
data_ICl2
_symmetry_space_group_name_H-M  'P4_2/mnm'
_cell_length_a       7.53263
_cell_length_b       7.53263
_cell_length_c       4.3785
_cell_angle_alpha    90
_cell_angle_beta     90
_cell_angle_gamma    90

_symmetry_Int_Tables_number  136
_chemical_formula_structural  ICl2
_chemical_formula_sum  I2Cl4
_cell_volume  248.43854432921765
_cell_formula_units_Z  2
loop_
  _symmetry_equiv_pos_site_id
 _symmetry_equiv_pos_as_xyz
 1  'x, y, z'
loop_
 _atom_site_type_symbol
 _atom_site_label
 _atom_site_symmetry_multiplicity
 _atom_site_fract_x
 _atom_site_fract_y
 _atom_site_fract_z
 _atom_site_fract_occupancy
 Cl  Cl1  1  0.34735  0.34735  0.00000  1
 Cl  Cl2  1  0.65265  0.65265  0.00000  1
 Cl  Cl3  1  0.84735  0.15265  0.50000  1
 Cl  Cl4  1  0.15265  0.84735  0.50000  1
 I  I1  1  0.00000  0.00000  0.00000  1
 I  I2  1  0.50000  0.50000  0.50000  1
