CIF file written using JARVIS-Tools package.
data_BeCd2Br
_symmetry_space_group_name_H-M  'P4mm'
_cell_length_a       3.21172
_cell_length_b       3.21172
_cell_length_c       8.4039
_cell_angle_alpha    90
_cell_angle_beta     90
_cell_angle_gamma    90

_symmetry_Int_Tables_number  99
_chemical_formula_structural  BeCd2Br
_chemical_formula_sum  BeCd2Br
_cell_volume  86.6874665441019
_cell_formula_units_Z  1
loop_
  _symmetry_equiv_pos_site_id
 _symmetry_equiv_pos_as_xyz
 1  'x, y, z'
loop_
 _atom_site_type_symbol
 _atom_site_label
 _atom_site_symmetry_multiplicity
 _atom_site_fract_x
 _atom_site_fract_y
 _atom_site_fract_z
 _atom_site_fract_occupancy
 Be  Be1  1  0.00000  0.00000  0.50382  1
 Br  Br1  1  0.50000  0.50000  0.67009  1
 Cd  Cd1  1  0.00000  0.00000  0.02742  1
 Cd  Cd2  1  0.50000  0.50000  0.29868  1
