CIF file written using JARVIS-Tools package.
data_Mg6CdFe
_symmetry_space_group_name_H-M  'Amm2'
_cell_length_a       6.15083
_cell_length_b       6.15083
_cell_length_c       4.88382
_cell_angle_alpha    90
_cell_angle_beta     90
_cell_angle_gamma    119.563

_symmetry_Int_Tables_number  38
_chemical_formula_structural  Mg6CdFe
_chemical_formula_sum  Mg6CdFe
_cell_volume  160.7141052970165
_cell_formula_units_Z  1
loop_
  _symmetry_equiv_pos_site_id
 _symmetry_equiv_pos_as_xyz
 1  'x, y, z'
loop_
 _atom_site_type_symbol
 _atom_site_label
 _atom_site_symmetry_multiplicity
 _atom_site_fract_x
 _atom_site_fract_y
 _atom_site_fract_z
 _atom_site_fract_occupancy
 Cd  Cd1  1  0.33038  0.16962  0.75000  1
 Fe  Fe1  1  0.15670  0.34330  0.25000  1
 Mg  Mg1  1  0.16615  0.83639  0.25000  1
 Mg  Mg2  1  0.66361  0.33385  0.25000  1
 Mg  Mg3  1  0.66521  0.83479  0.25000  1
 Mg  Mg4  1  0.32888  0.64583  0.75000  1
 Mg  Mg5  1  0.85417  0.17112  0.75000  1
 Mg  Mg6  1  0.83491  0.66509  0.75000  1
