CIF file written using JARVIS-Tools package.
data_CeScSb
_symmetry_space_group_name_H-M  'I4/mmm'
_cell_length_a       4.43808
_cell_length_b       4.43808
_cell_length_c       8.79968
_cell_angle_alpha    104.606
_cell_angle_beta     104.606
_cell_angle_gamma    90

_symmetry_Int_Tables_number  139
_chemical_formula_structural  CeScSb
_chemical_formula_sum  Ce2Sc2Sb2
_cell_volume  161.92724704551594
_cell_formula_units_Z  2
loop_
  _symmetry_equiv_pos_site_id
 _symmetry_equiv_pos_as_xyz
 1  'x, y, z'
loop_
 _atom_site_type_symbol
 _atom_site_label
 _atom_site_symmetry_multiplicity
 _atom_site_fract_x
 _atom_site_fract_y
 _atom_site_fract_z
 _atom_site_fract_occupancy
 Ce  Ce1  1  0.82531  0.82531  0.65061  1
 Ce  Ce2  1  0.17469  0.17469  0.34939  1
 Sb  Sb1  1  0.62771  0.62771  0.25543  1
 Sb  Sb2  1  0.37229  0.37229  0.74457  1
 Sc  Sc1  1  0.50000  0.00000  0.00000  1
 Sc  Sc2  1  0.00000  0.50000  0.00000  1
