CIF file written using JARVIS-Tools package.
data_TmMgSn
_symmetry_space_group_name_H-M  'I4/mmm'
_cell_length_a       4.34046
_cell_length_b       4.34046
_cell_length_c       8.43501
_cell_angle_alpha    104.909
_cell_angle_beta     104.909
_cell_angle_gamma    90

_symmetry_Int_Tables_number  139
_chemical_formula_structural  TmMgSn
_chemical_formula_sum  Tm2Mg2Sn2
_cell_volume  148.01942516054686
_cell_formula_units_Z  2
loop_
  _symmetry_equiv_pos_site_id
 _symmetry_equiv_pos_as_xyz
 1  'x, y, z'
loop_
 _atom_site_type_symbol
 _atom_site_label
 _atom_site_symmetry_multiplicity
 _atom_site_fract_x
 _atom_site_fract_y
 _atom_site_fract_z
 _atom_site_fract_occupancy
 Mg  Mg1  1  0.50000  0.00000  0.00000  1
 Mg  Mg2  1  0.00000  0.50000  0.00000  1
 Sn  Sn1  1  0.86220  0.86220  0.72439  1
 Sn  Sn2  1  0.13780  0.13780  0.27561  1
 Tm  Tm1  1  0.66709  0.66709  0.33419  1
 Tm  Tm2  1  0.33291  0.33291  0.66581  1
