CIF file written using JARVIS-Tools package.
data_YbCu4Ni
_symmetry_space_group_name_H-M  'F-43m'
_cell_length_a       4.88573
_cell_length_b       4.88573
_cell_length_c       4.88573
_cell_angle_alpha    60
_cell_angle_beta     60
_cell_angle_gamma    60

_symmetry_Int_Tables_number  216
_chemical_formula_structural  YbCu4Ni
_chemical_formula_sum  YbCu4Ni
_cell_volume  82.4652671096242
_cell_formula_units_Z  1
loop_
  _symmetry_equiv_pos_site_id
 _symmetry_equiv_pos_as_xyz
 1  'x, y, z'
loop_
 _atom_site_type_symbol
 _atom_site_label
 _atom_site_symmetry_multiplicity
 _atom_site_fract_x
 _atom_site_fract_y
 _atom_site_fract_z
 _atom_site_fract_occupancy
 Cu  Cu1  1  0.87309  0.37564  0.37564  1
 Cu  Cu2  1  0.37564  0.87309  0.37564  1
 Cu  Cu3  1  0.37564  0.37564  0.87309  1
 Cu  Cu4  1  0.37564  0.37564  0.37564  1
 Ni  Ni1  1  0.75000  0.75000  0.75000  1
 Yb  Yb1  1  0.00000  0.00000  0.00000  1
