CIF file written using JARVIS-Tools package.
data_Mg6AlSi
_symmetry_space_group_name_H-M  'Amm2'
_cell_length_a       6.12005
_cell_length_b       6.28038
_cell_length_c       4.97162
_cell_angle_alpha    90
_cell_angle_beta     90
_cell_angle_gamma    120.87

_symmetry_Int_Tables_number  38
_chemical_formula_structural  Mg6AlSi
_chemical_formula_sum  Mg6AlSi
_cell_volume  164.01846553854773
_cell_formula_units_Z  1
loop_
  _symmetry_equiv_pos_site_id
 _symmetry_equiv_pos_as_xyz
 1  'x, y, z'
loop_
 _atom_site_type_symbol
 _atom_site_label
 _atom_site_symmetry_multiplicity
 _atom_site_fract_x
 _atom_site_fract_y
 _atom_site_fract_z
 _atom_site_fract_occupancy
 Al  Al1  1  0.16758  0.33379  0.25000  1
 Mg  Mg1  1  0.66925  0.33413  0.25000  1
 Mg  Mg2  1  0.66925  0.83512  0.25000  1
 Mg  Mg3  1  0.32695  0.16227  0.75000  1
 Mg  Mg4  1  0.32695  0.66468  0.75000  1
 Mg  Mg5  1  0.83683  0.16842  0.75000  1
 Mg  Mg6  1  0.83818  0.66909  0.75000  1
 Si  Si1  1  0.16502  0.83251  0.25000  1
