CIF file written using JARVIS-Tools package.
data_KNOF2
_symmetry_space_group_name_H-M  'Pnma'
_cell_length_a       6.30208
_cell_length_b       6.89084
_cell_length_c       7.22702
_cell_angle_alpha    90
_cell_angle_beta     90
_cell_angle_gamma    90

_symmetry_Int_Tables_number  62
_chemical_formula_structural  KNOF2
_chemical_formula_sum  K4N4O4F8
_cell_volume  313.84507867738233
_cell_formula_units_Z  4
loop_
  _symmetry_equiv_pos_site_id
 _symmetry_equiv_pos_as_xyz
 1  'x, y, z'
loop_
 _atom_site_type_symbol
 _atom_site_label
 _atom_site_symmetry_multiplicity
 _atom_site_fract_x
 _atom_site_fract_y
 _atom_site_fract_z
 _atom_site_fract_occupancy
 F  F1  1  0.51875  0.32791  0.18797  1
 F  F2  1  0.51875  0.82791  0.31203  1
 F  F3  1  0.48125  0.17209  0.68797  1
 F  F4  1  0.98125  0.82791  0.31203  1
 F  F5  1  0.01875  0.67209  0.81203  1
 F  F6  1  0.98125  0.32791  0.18797  1
 F  F7  1  0.48125  0.67209  0.81203  1
 F  F8  1  0.01875  0.17209  0.68797  1
 K  K1  1  0.75000  0.88523  0.61717  1
 K  K2  1  0.25000  0.11477  0.38283  1
 K  K3  1  0.25000  0.61477  0.11717  1
 K  K4  1  0.75000  0.38523  0.88283  1
 N  N1  1  0.75000  0.48014  0.29535  1
 N  N2  1  0.25000  0.51986  0.70465  1
 N  N3  1  0.75000  0.98014  0.20465  1
 N  N4  1  0.25000  0.01986  0.79535  1
 O  O1  1  0.75000  0.44933  0.44943  1
 O  O2  1  0.25000  0.55067  0.55057  1
 O  O3  1  0.25000  0.05067  0.94943  1
 O  O4  1  0.75000  0.94933  0.05057  1
