CIF file written using JARVIS-Tools package.
data_BeRe2Hg
_symmetry_space_group_name_H-M  'P4mm'
_cell_length_a       2.98438
_cell_length_b       2.98438
_cell_length_c       6.79931
_cell_angle_alpha    90
_cell_angle_beta     90
_cell_angle_gamma    90

_symmetry_Int_Tables_number  99
_chemical_formula_structural  BeRe2Hg
_chemical_formula_sum  BeRe2Hg
_cell_volume  60.55811304394099
_cell_formula_units_Z  1
loop_
  _symmetry_equiv_pos_site_id
 _symmetry_equiv_pos_as_xyz
 1  'x, y, z'
loop_
 _atom_site_type_symbol
 _atom_site_label
 _atom_site_symmetry_multiplicity
 _atom_site_fract_x
 _atom_site_fract_y
 _atom_site_fract_z
 _atom_site_fract_occupancy
 Be  Be1  1  0.00000  0.00000  0.45720  1
 Hg  Hg1  1  0.50000  0.50000  0.72172  1
 Re  Re1  1  0.00000  0.00000  0.04911  1
 Re  Re2  1  0.50000  0.50000  0.27197  1
