CIF file written using JARVIS-Tools package.
data_Fe2PO5
_symmetry_space_group_name_H-M  'I4_1/amd'
_cell_length_a       5.39131
_cell_length_b       5.39131
_cell_length_c       7.34569
_cell_angle_alpha    68.4704
_cell_angle_beta     68.4704
_cell_angle_gamma    90.0026

_symmetry_Int_Tables_number  141
_chemical_formula_structural  Fe2PO5
_chemical_formula_sum  Fe4P2O0
_cell_volume  182.50393647249462
_cell_formula_units_Z  2
loop_
  _symmetry_equiv_pos_site_id
 _symmetry_equiv_pos_as_xyz
 1  'x, y, z'
loop_
 _atom_site_type_symbol
 _atom_site_label
 _atom_site_symmetry_multiplicity
 _atom_site_fract_x
 _atom_site_fract_y
 _atom_site_fract_z
 _atom_site_fract_occupancy
 Fe  Fe1  1  -0.00000  -0.00000  0.50000  1
 Fe  Fe2  1  0.50000  0.50000  0.00000  1
 Fe  Fe3  1  0.00000  0.50000  0.00000  1
 Fe  Fe4  1  0.00000  0.50000  0.50000  1
 O  O1  1  0.31861  0.80681  0.38636  1
 O  O2  1  0.69319  0.18139  0.11364  1
 O  O3  1  0.30681  0.81861  0.88636  1
 O  O4  1  0.87497  0.62503  0.75000  1
 O  O5  1  0.79515  0.80685  0.38629  1
 O  O6  1  0.30685  0.29515  0.88629  1
 O  O7  1  0.20485  0.19315  0.61371  1
 O  O8  1  0.69315  0.70485  0.11371  1
 O  O9  1  0.68139  0.19319  0.61364  1
 O  O10  1  0.12503  0.37497  0.25000  1
 P  P1  1  0.37498  0.12502  0.75000  1
 P  P2  1  0.62502  0.87498  0.25000  1
