CIF file written using JARVIS-Tools package.
data_TbNbO4
_symmetry_space_group_name_H-M  'P2/c'
_cell_length_a       5.16653
_cell_length_b       5.37555
_cell_length_c       5.47672
_cell_angle_alpha    90
_cell_angle_beta     90.0015
_cell_angle_gamma    84.1822

_symmetry_Int_Tables_number  13
_chemical_formula_structural  TbNbO4
_chemical_formula_sum  Tb2Nb2O8
_cell_volume  151.32154740129064
_cell_formula_units_Z  2
loop_
  _symmetry_equiv_pos_site_id
 _symmetry_equiv_pos_as_xyz
 1  'x, y, z'
loop_
 _atom_site_type_symbol
 _atom_site_label
 _atom_site_symmetry_multiplicity
 _atom_site_fract_x
 _atom_site_fract_y
 _atom_site_fract_z
 _atom_site_fract_occupancy
 Nb  Nb1  1  0.49999  0.74193  0.20374  1
 Nb  Nb2  1  0.50000  0.24192  0.79621  1
 O  O1  1  0.73724  0.97266  0.05814  1
 O  O2  1  0.25190  0.89703  0.42388  1
 O  O3  1  0.74812  0.58683  0.42386  1
 O  O4  1  0.26276  0.51119  0.05814  1
 O  O5  1  0.25189  0.39703  0.57607  1
 O  O6  1  0.73724  0.47266  0.94180  1
 O  O7  1  0.74811  0.08683  0.57607  1
 O  O8  1  0.26276  0.01119  0.94181  1
 Tb  Tb1  1  1.00000  0.74193  0.74131  1
 Tb  Tb2  1  1.00000  0.24192  0.25864  1
