CIF file written using JARVIS-Tools package.
data_Ba2YF7
_symmetry_space_group_name_H-M  'C2/c'
_cell_length_a       7.66249
_cell_length_b       7.66249
_cell_length_c       8.15549
_cell_angle_alpha    58.4212
_cell_angle_beta     121.579
_cell_angle_gamma    127.545

_symmetry_Int_Tables_number  15
_chemical_formula_structural  Ba2YF7
_chemical_formula_sum  Ba4Y2F4
_cell_volume  308.25087896159795
_cell_formula_units_Z  2
loop_
  _symmetry_equiv_pos_site_id
 _symmetry_equiv_pos_as_xyz
 1  'x, y, z'
loop_
 _atom_site_type_symbol
 _atom_site_label
 _atom_site_symmetry_multiplicity
 _atom_site_fract_x
 _atom_site_fract_y
 _atom_site_fract_z
 _atom_site_fract_occupancy
 Ba  Ba1  1  0.31536  0.67154  0.74421  1
 Ba  Ba2  1  0.32846  0.68464  0.24421  1
 Ba  Ba3  1  0.67154  0.31536  0.75579  1
 Ba  Ba4  1  0.68464  0.32846  0.25579  1
 F  F1  1  0.06959  0.69698  0.86207  1
 F  F2  1  0.30302  0.93041  0.36207  1
 F  F3  1  0.05690  0.22068  0.92575  1
 F  F4  1  0.69698  0.06959  0.63793  1
 F  F5  1  0.63499  0.63499  0.75000  1
 F  F6  1  0.11568  0.36739  0.54483  1
 F  F7  1  0.36739  0.11568  0.95517  1
 F  F8  1  0.22068  0.05690  0.57425  1
 F  F9  1  0.77932  0.94310  0.42575  1
 F  F10  1  0.36501  0.36501  0.25000  1
 F  F11  1  0.88432  0.63261  0.45517  1
 F  F12  1  0.94310  0.77932  0.07425  1
 F  F13  1  0.63261  0.88432  0.04483  1
 F  F14  1  0.93041  0.30302  0.13793  1
 Y  Y1  1  0.01382  0.01382  0.25000  1
 Y  Y2  1  0.98618  0.98618  0.75000  1
