CIF file written using JARVIS-Tools package.
data_K2Hg2SCl4O3
_symmetry_space_group_name_H-M  'P2_1/m'
_cell_length_a       5.99023
_cell_length_b       9.57816
_cell_length_c       10.2126
_cell_angle_alpha    110.438
_cell_angle_beta     90
_cell_angle_gamma    90

_symmetry_Int_Tables_number  11
_chemical_formula_structural  K2Hg2SCl4O3
_chemical_formula_sum  K4Hg4S2Cl8O6
_cell_volume  549.068219385242
_cell_formula_units_Z  2
loop_
  _symmetry_equiv_pos_site_id
 _symmetry_equiv_pos_as_xyz
 1  'x, y, z'
loop_
 _atom_site_type_symbol
 _atom_site_label
 _atom_site_symmetry_multiplicity
 _atom_site_fract_x
 _atom_site_fract_y
 _atom_site_fract_z
 _atom_site_fract_occupancy
 Cl  Cl1  1  0.25000  0.72400  0.28743  1
 Cl  Cl2  1  0.25000  0.16613  0.47088  1
 Cl  Cl3  1  0.75000  0.41133  0.38311  1
 Cl  Cl4  1  0.25000  0.01999  0.77374  1
 Cl  Cl5  1  0.75000  0.83387  0.52912  1
 Cl  Cl6  1  0.75000  0.98001  0.22626  1
 Cl  Cl7  1  0.75000  0.27600  0.71257  1
 Cl  Cl8  1  0.25000  0.58867  0.61689  1
 Hg  Hg1  1  0.25000  0.41738  0.37073  1
 Hg  Hg2  1  0.75000  0.11414  0.47122  1
 Hg  Hg3  1  0.25000  0.88586  0.52878  1
 Hg  Hg4  1  0.75000  0.58262  0.62927  1
 K  K1  1  0.75000  0.60359  0.17995  1
 K  K2  1  0.25000  0.87063  0.05110  1
 K  K3  1  0.25000  0.39641  0.82005  1
 K  K4  1  0.75000  0.12937  0.94890  1
 O  O1  1  0.95389  0.63670  0.93382  1
 O  O2  1  0.25000  0.14919  0.08341  1
 O  O3  1  0.45389  0.36330  0.06618  1
 O  O4  1  0.75000  0.85081  0.91659  1
 O  O5  1  0.54611  0.63670  0.93382  1
 O  O6  1  0.04611  0.36330  0.06618  1
 S  S1  1  0.25000  0.31163  0.11801  1
 S  S2  1  0.75000  0.68837  0.88199  1
