CIF file written using JARVIS-Tools package.
data_Li4VCr3O8
_symmetry_space_group_name_H-M  'R-3m'
_cell_length_a       5.80846
_cell_length_b       5.80846
_cell_length_c       5.86864
_cell_angle_alpha    119.667
_cell_angle_beta     60.3332
_cell_angle_gamma    119.999

_symmetry_Int_Tables_number  166
_chemical_formula_structural  Li4VCr3O8
_chemical_formula_sum  Li4VCr3O8
_cell_volume  140.7071659913882
_cell_formula_units_Z  1
loop_
  _symmetry_equiv_pos_site_id
 _symmetry_equiv_pos_as_xyz
 1  'x, y, z'
loop_
 _atom_site_type_symbol
 _atom_site_label
 _atom_site_symmetry_multiplicity
 _atom_site_fract_x
 _atom_site_fract_y
 _atom_site_fract_z
 _atom_site_fract_occupancy
 Cr  Cr1  1  0.49880  0.50120  0.99964  1
 Cr  Cr2  1  0.49880  0.00120  0.99963  1
 Cr  Cr3  1  0.99880  0.50120  0.99963  1
 Li  Li1  1  0.99878  0.00122  0.49961  1
 Li  Li2  1  0.49880  0.00127  0.49962  1
 Li  Li3  1  0.99873  0.50120  0.49962  1
 Li  Li4  1  0.49876  0.50124  0.49965  1
 O  O1  1  0.25653  0.24617  0.23181  1
 O  O2  1  0.24378  0.25892  0.76745  1
 O  O3  1  0.74041  0.25959  0.77483  1
 O  O4  1  0.75384  0.24616  0.23180  1
 O  O5  1  0.24378  0.75622  0.76744  1
 O  O6  1  0.25719  0.74281  0.22443  1
 O  O7  1  0.75383  0.74347  0.23181  1
 O  O8  1  0.74108  0.75622  0.76745  1
 V  V1  1  0.99881  0.00119  0.99962  1
