CIF file written using JARVIS-Tools package.
data_PrMg2Ni9
_symmetry_space_group_name_H-M  'R-3m'
_cell_length_a       8.38588
_cell_length_b       8.38588
_cell_length_c       8.38589
_cell_angle_alpha    33.9587
_cell_angle_beta     33.9588
_cell_angle_gamma    33.9587

_symmetry_Int_Tables_number  166
_chemical_formula_structural  PrMg2Ni9
_chemical_formula_sum  PrMg2Ni9
_cell_volume  164.01109462893416
_cell_formula_units_Z  1
loop_
  _symmetry_equiv_pos_site_id
 _symmetry_equiv_pos_as_xyz
 1  'x, y, z'
loop_
 _atom_site_type_symbol
 _atom_site_label
 _atom_site_symmetry_multiplicity
 _atom_site_fract_x
 _atom_site_fract_y
 _atom_site_fract_z
 _atom_site_fract_occupancy
 Mg  Mg1  1  0.85548  0.85548  0.85548  1
 Mg  Mg2  1  0.14452  0.14452  0.14452  1
 Ni  Ni1  1  0.58719  0.08259  0.58719  1
 Ni  Ni2  1  0.41281  0.91741  0.41281  1
 Ni  Ni3  1  0.66649  0.66649  0.66649  1
 Ni  Ni4  1  0.58719  0.58719  0.08259  1
 Ni  Ni5  1  0.91741  0.41281  0.41281  1
 Ni  Ni6  1  0.33351  0.33351  0.33351  1
 Ni  Ni7  1  0.50000  0.50000  0.50000  1
 Ni  Ni8  1  0.41281  0.41281  0.91741  1
 Ni  Ni9  1  0.08259  0.58719  0.58719  1
 Pr  Pr1  1  0.00000  0.00000  0.00000  1
