CIF file written using JARVIS-Tools package.
data_Rb2H4Pd
_symmetry_space_group_name_H-M  'P4_2/mnm'
_cell_length_a       5.84456
_cell_length_b       5.84456
_cell_length_c       8.49106
_cell_angle_alpha    90
_cell_angle_beta     90
_cell_angle_gamma    90

_symmetry_Int_Tables_number  136
_chemical_formula_structural  Rb2H4Pd
_chemical_formula_sum  Rb4H8Pd2
_cell_volume  290.04502569619086
_cell_formula_units_Z  2
loop_
  _symmetry_equiv_pos_site_id
 _symmetry_equiv_pos_as_xyz
 1  'x, y, z'
loop_
 _atom_site_type_symbol
 _atom_site_label
 _atom_site_symmetry_multiplicity
 _atom_site_fract_x
 _atom_site_fract_y
 _atom_site_fract_z
 _atom_site_fract_occupancy
 H  H1  1  0.50000  0.50000  0.30366  1
 H  H2  1  0.00000  0.00000  0.80366  1
 H  H3  1  0.50000  0.50000  0.69634  1
 H  H4  1  0.00000  0.00000  0.19634  1
 H  H5  1  0.29808  0.70192  0.50000  1
 H  H6  1  0.70192  0.29808  0.50000  1
 H  H7  1  0.20192  0.20192  0.00000  1
 H  H8  1  0.79808  0.79808  0.00000  1
 Pd  Pd1  1  0.50000  0.50000  0.50000  1
 Pd  Pd2  1  0.00000  0.00000  0.00000  1
 Rb  Rb1  1  0.00000  0.50000  0.25000  1
 Rb  Rb2  1  0.50000  0.00000  0.75000  1
 Rb  Rb3  1  0.00000  0.50000  0.75000  1
 Rb  Rb4  1  0.50000  0.00000  0.25000  1
