CIF file written using JARVIS-Tools package.
data_BeCoP2
_symmetry_space_group_name_H-M  'P4mm'
_cell_length_a       2.79343
_cell_length_b       2.79343
_cell_length_c       6.68617
_cell_angle_alpha    90
_cell_angle_beta     90
_cell_angle_gamma    90

_symmetry_Int_Tables_number  99
_chemical_formula_structural  BeCoP2
_chemical_formula_sum  BeCoP2
_cell_volume  52.17397926213572
_cell_formula_units_Z  1
loop_
  _symmetry_equiv_pos_site_id
 _symmetry_equiv_pos_as_xyz
 1  'x, y, z'
loop_
 _atom_site_type_symbol
 _atom_site_label
 _atom_site_symmetry_multiplicity
 _atom_site_fract_x
 _atom_site_fract_y
 _atom_site_fract_z
 _atom_site_fract_occupancy
 Be  Be1  1  0.00000  0.00000  0.53724  1
 Co  Co1  1  0.50000  0.50000  0.71390  1
 P  P1  1  0.00000  0.00000  0.90309  1
 P  P2  1  0.50000  0.50000  0.34577  1
