CIF file written using JARVIS-Tools package.
data_MnOF
_symmetry_space_group_name_H-M  'P4_12_12'
_cell_length_a       4.59268
_cell_length_b       4.59268
_cell_length_c       6.18878
_cell_angle_alpha    90
_cell_angle_beta     90
_cell_angle_gamma    90

_symmetry_Int_Tables_number  92
_chemical_formula_structural  MnOF
_chemical_formula_sum  Mn4O4F4
_cell_volume  130.5382373140251
_cell_formula_units_Z  4
loop_
  _symmetry_equiv_pos_site_id
 _symmetry_equiv_pos_as_xyz
 1  'x, y, z'
loop_
 _atom_site_type_symbol
 _atom_site_label
 _atom_site_symmetry_multiplicity
 _atom_site_fract_x
 _atom_site_fract_y
 _atom_site_fract_z
 _atom_site_fract_occupancy
 F  F1  1  0.22505  0.77495  0.25000  1
 F  F2  1  0.27495  0.27495  0.00000  1
 F  F3  1  0.72505  0.72505  0.50000  1
 F  F4  1  0.77495  0.22505  0.75000  1
 Mn  Mn1  1  0.96968  0.96968  0.00000  1
 Mn  Mn2  1  0.03032  0.03032  0.50000  1
 Mn  Mn3  1  0.53032  0.46968  0.25000  1
 Mn  Mn4  1  0.46968  0.53032  0.75000  1
 O  O1  1  0.17753  0.82247  0.75000  1
 O  O2  1  0.32247  0.32247  0.50000  1
 O  O3  1  0.67753  0.67753  0.00000  1
 O  O4  1  0.82247  0.17753  0.25000  1
