CIF file written using JARVIS-Tools package.
data_MnN
_symmetry_space_group_name_H-M  'Pmm2'
_cell_length_a       2.62321
_cell_length_b       2.67009
_cell_length_c       5.19945
_cell_angle_alpha    90.0135
_cell_angle_beta     90.0021
_cell_angle_gamma    89.9993

_symmetry_Int_Tables_number  25
_chemical_formula_structural  MnN
_chemical_formula_sum  Mn2N2
_cell_volume  36.418008012559945
_cell_formula_units_Z  2
loop_
  _symmetry_equiv_pos_site_id
 _symmetry_equiv_pos_as_xyz
 1  'x, y, z'
loop_
 _atom_site_type_symbol
 _atom_site_label
 _atom_site_symmetry_multiplicity
 _atom_site_fract_x
 _atom_site_fract_y
 _atom_site_fract_z
 _atom_site_fract_occupancy
 Mn  Mn1  1  0.49909  0.87631  0.05953  1
 Mn  Mn2  1  0.49903  0.37622  0.63888  1
 N  N1  1  0.49923  0.87610  0.40402  1
 N  N2  1  0.99902  0.37624  0.92689  1
