CIF file written using JARVIS-Tools package.
data_Mg6CdMo
_symmetry_space_group_name_H-M  'Amm2'
_cell_length_a       6.18384
_cell_length_b       6.19218
_cell_length_c       4.86589
_cell_angle_alpha    90
_cell_angle_beta     90
_cell_angle_gamma    120.045

_symmetry_Int_Tables_number  38
_chemical_formula_structural  Mg6CdMo
_chemical_formula_sum  Mg6CdMo
_cell_volume  161.28701213557494
_cell_formula_units_Z  1
loop_
  _symmetry_equiv_pos_site_id
 _symmetry_equiv_pos_as_xyz
 1  'x, y, z'
loop_
 _atom_site_type_symbol
 _atom_site_label
 _atom_site_symmetry_multiplicity
 _atom_site_fract_x
 _atom_site_fract_y
 _atom_site_fract_z
 _atom_site_fract_occupancy
 Cd  Cd1  1  0.16796  0.83398  0.25000  1
 Mg  Mg1  1  0.66438  0.32905  0.25000  1
 Mg  Mg2  1  0.66438  0.83533  0.25000  1
 Mg  Mg3  1  0.32437  0.17745  0.75000  1
 Mg  Mg4  1  0.32437  0.64692  0.75000  1
 Mg  Mg5  1  0.85389  0.17695  0.75000  1
 Mg  Mg6  1  0.83711  0.66855  0.75000  1
 Mo  Mo1  1  0.16355  0.33177  0.25000  1
