CIF file written using JARVIS-Tools package.
data_Mg6NiMo
_symmetry_space_group_name_H-M  'Amm2'
_cell_length_a       6.13005
_cell_length_b       6.13005
_cell_length_c       4.71911
_cell_angle_alpha    90
_cell_angle_beta     90
_cell_angle_gamma    122.846

_symmetry_Int_Tables_number  38
_chemical_formula_structural  Mg6NiMo
_chemical_formula_sum  Mg6NiMo
_cell_volume  148.98294409989566
_cell_formula_units_Z  1
loop_
  _symmetry_equiv_pos_site_id
 _symmetry_equiv_pos_as_xyz
 1  'x, y, z'
loop_
 _atom_site_type_symbol
 _atom_site_label
 _atom_site_symmetry_multiplicity
 _atom_site_fract_x
 _atom_site_fract_y
 _atom_site_fract_z
 _atom_site_fract_occupancy
 Mg  Mg1  1  0.17663  0.84746  0.25000  1
 Mg  Mg2  1  0.65254  0.32337  0.25000  1
 Mg  Mg3  1  0.67293  0.82707  0.25000  1
 Mg  Mg4  1  0.32208  0.66396  0.75000  1
 Mg  Mg5  1  0.83604  0.17792  0.75000  1
 Mg  Mg6  1  0.83042  0.66958  0.75000  1
 Mo  Mo1  1  0.31286  0.18714  0.75000  1
 Ni  Ni1  1  0.19649  0.30351  0.25000  1
