CIF file written using JARVIS-Tools package.
data_KH3C2O3
_symmetry_space_group_name_H-M  'P-1'
_cell_length_a       3.7316
_cell_length_b       5.56579
_cell_length_c       9.70021
_cell_angle_alpha    101.617
_cell_angle_beta     87.848
_cell_angle_gamma    92.4917

_symmetry_Int_Tables_number  2
_chemical_formula_structural  KH3C2O3
_chemical_formula_sum  K2H6C4O6
_cell_volume  197.06772485642537
_cell_formula_units_Z  2
loop_
  _symmetry_equiv_pos_site_id
 _symmetry_equiv_pos_as_xyz
 1  'x, y, z'
loop_
 _atom_site_type_symbol
 _atom_site_label
 _atom_site_symmetry_multiplicity
 _atom_site_fract_x
 _atom_site_fract_y
 _atom_site_fract_z
 _atom_site_fract_occupancy
 C  C1  1  0.75438  0.70500  0.39760  1
 C  C2  1  0.50460  0.84874  0.20255  1
 C  C3  1  0.49540  0.15126  0.79745  1
 C  C4  1  0.24562  0.29500  0.60240  1
 H  H1  1  0.01633  0.16474  0.60255  1
 H  H2  1  0.98367  0.83526  0.39745  1
 H  H3  1  0.15841  0.47160  0.58433  1
 H  H4  1  0.84159  0.52840  0.41567  1
 H  H5  1  0.43959  0.21807  0.51863  1
 H  H6  1  0.56041  0.78193  0.48137  1
 K  K1  1  0.88078  0.70703  0.87419  1
 K  K2  1  0.11922  0.29297  0.12581  1
 O  O1  1  0.66214  0.21727  0.91100  1
 O  O2  1  0.40870  0.35015  0.73809  1
 O  O3  1  0.59130  0.64985  0.26191  1
 O  O4  1  0.40457  0.93874  0.73525  1
 O  O5  1  0.59543  0.06126  0.26475  1
 O  O6  1  0.33786  0.78273  0.08900  1
