CIF file written using JARVIS-Tools package.
data_SmAsO4
_symmetry_space_group_name_H-M  'P2_1/c'
_cell_length_a       6.72163
_cell_length_b       7.08599
_cell_length_c       8.25905
_cell_angle_alpha    90
_cell_angle_beta     126.548
_cell_angle_gamma    90

_symmetry_Int_Tables_number  14
_chemical_formula_structural  SmAsO4
_chemical_formula_sum  Sm4As4O6
_cell_volume  316.01857363417923
_cell_formula_units_Z  4
loop_
  _symmetry_equiv_pos_site_id
 _symmetry_equiv_pos_as_xyz
 1  'x, y, z'
loop_
 _atom_site_type_symbol
 _atom_site_label
 _atom_site_symmetry_multiplicity
 _atom_site_fract_x
 _atom_site_fract_y
 _atom_site_fract_z
 _atom_site_fract_occupancy
 As  As1  1  0.31218  0.83908  0.19913  1
 As  As2  1  0.68782  0.33908  0.30087  1
 As  As3  1  0.31218  0.66092  0.69913  1
 As  As4  1  0.68782  0.16092  0.80087  1
 O  O1  1  0.83456  0.99353  0.75587  1
 O  O2  1  0.35442  0.89419  0.01845  1
 O  O3  1  0.38475  0.28858  0.11030  1
 O  O4  1  0.10859  0.65272  0.10485  1
 O  O5  1  0.61525  0.71142  0.88970  1
 O  O6  1  0.61525  0.78858  0.38970  1
 O  O7  1  0.16544  0.00647  0.24413  1
 O  O8  1  0.83456  0.50647  0.25587  1
 O  O9  1  0.64558  0.39419  0.48155  1
 O  O10  1  0.64558  0.10581  0.98155  1
 O  O11  1  0.10859  0.84728  0.60485  1
 O  O12  1  0.89141  0.15272  0.39515  1
 O  O13  1  0.38475  0.21142  0.61030  1
 O  O14  1  0.16544  0.49353  0.74413  1
 O  O15  1  0.89141  0.34728  0.89515  1
 O  O16  1  0.35442  0.60581  0.51845  1
 Sm  Sm1  1  0.18664  0.14885  0.77928  1
 Sm  Sm2  1  0.81336  0.64885  0.72072  1
 Sm  Sm3  1  0.18664  0.35115  0.27928  1
 Sm  Sm4  1  0.81336  0.85115  0.22072  1
