CIF file written using JARVIS-Tools package.
data_CuAs2O4
_symmetry_space_group_name_H-M  'P4_2/mbc'
_cell_length_a       5.63002
_cell_length_b       8.66764
_cell_length_c       8.66764
_cell_angle_alpha    90
_cell_angle_beta     90
_cell_angle_gamma    90

_symmetry_Int_Tables_number  135
_chemical_formula_structural  CuAs2O4
_chemical_formula_sum  Cu4As8O6
_cell_volume  422.971873621108
_cell_formula_units_Z  4
loop_
  _symmetry_equiv_pos_site_id
 _symmetry_equiv_pos_as_xyz
 1  'x, y, z'
loop_
 _atom_site_type_symbol
 _atom_site_label
 _atom_site_symmetry_multiplicity
 _atom_site_fract_x
 _atom_site_fract_y
 _atom_site_fract_z
 _atom_site_fract_occupancy
 As  As1  1  0.50000  0.15889  0.80017  1
 As  As2  1  0.50000  0.65889  0.69983  1
 As  As3  1  0.00000  0.80017  0.84111  1
 As  As4  1  0.50000  0.84111  0.19983  1
 As  As5  1  0.50000  0.34111  0.30017  1
 As  As6  1  0.00000  0.30017  0.65889  1
 As  As7  1  0.00000  0.69983  0.34111  1
 As  As8  1  0.00000  0.19983  0.15889  1
 Cu  Cu1  1  0.25000  0.50000  0.00000  1
 Cu  Cu2  1  0.75000  0.50000  0.00000  1
 Cu  Cu3  1  0.75000  0.00000  0.50000  1
 Cu  Cu4  1  0.25000  0.00000  0.50000  1
 O  O1  1  0.50000  0.37424  0.09508  1
 O  O2  1  0.50000  0.12576  0.59508  1
 O  O3  1  0.00000  0.40492  0.12576  1
 O  O4  1  0.00000  0.59508  0.87424  1
 O  O5  1  0.00000  0.90492  0.37424  1
 O  O6  1  0.50000  0.62576  0.90492  1
 O  O7  1  0.00000  0.09508  0.62576  1
 O  O8  1  0.75000  0.20132  0.29868  1
 O  O9  1  0.25000  0.79868  0.70132  1
 O  O10  1  0.25000  0.20132  0.29868  1
 O  O11  1  0.75000  0.29868  0.79868  1
 O  O12  1  0.50000  0.87424  0.40492  1
 O  O13  1  0.25000  0.70132  0.20132  1
 O  O14  1  0.25000  0.29868  0.79868  1
 O  O15  1  0.75000  0.70132  0.20132  1
 O  O16  1  0.75000  0.79868  0.70132  1
