CIF file written using JARVIS-Tools package.
data_TiBeCr
_symmetry_space_group_name_H-M  'P3m1'
_cell_length_a       2.54912
_cell_length_b       2.54912
_cell_length_c       6.62339
_cell_angle_alpha    90
_cell_angle_beta     90
_cell_angle_gamma    120

_symmetry_Int_Tables_number  156
_chemical_formula_structural  TiBeCr
_chemical_formula_sum  TiBeCr
_cell_volume  37.27275439141905
_cell_formula_units_Z  1
loop_
  _symmetry_equiv_pos_site_id
 _symmetry_equiv_pos_as_xyz
 1  'x, y, z'
loop_
 _atom_site_type_symbol
 _atom_site_label
 _atom_site_symmetry_multiplicity
 _atom_site_fract_x
 _atom_site_fract_y
 _atom_site_fract_z
 _atom_site_fract_occupancy
 Be  Be1  1  0.00000  0.00000  0.01511  1
 Cr  Cr1  1  0.66667  0.33333  0.31009  1
 Ti  Ti1  1  0.33333  0.66667  0.67480  1
