CIF file written using JARVIS-Tools package.
data_AgHg
_symmetry_space_group_name_H-M  'P2_13'
_cell_length_a       5.50139
_cell_length_b       5.50139
_cell_length_c       5.50139
_cell_angle_alpha    90
_cell_angle_beta     90
_cell_angle_gamma    90

_symmetry_Int_Tables_number  198
_chemical_formula_structural  AgHg
_chemical_formula_sum  Ag4Hg4
_cell_volume  166.50159249187473
_cell_formula_units_Z  4
loop_
  _symmetry_equiv_pos_site_id
 _symmetry_equiv_pos_as_xyz
 1  'x, y, z'
loop_
 _atom_site_type_symbol
 _atom_site_label
 _atom_site_symmetry_multiplicity
 _atom_site_fract_x
 _atom_site_fract_y
 _atom_site_fract_z
 _atom_site_fract_occupancy
 Ag  Ag1  1  0.14765  0.35235  0.64765  1
 Ag  Ag2  1  0.35235  0.64765  0.14765  1
 Ag  Ag3  1  0.64765  0.14765  0.35235  1
 Ag  Ag4  1  0.85235  0.85235  0.85235  1
 Hg  Hg1  1  0.15572  0.15572  0.15572  1
 Hg  Hg2  1  0.34428  0.84428  0.65572  1
 Hg  Hg3  1  0.65572  0.34428  0.84428  1
 Hg  Hg4  1  0.84428  0.65572  0.34428  1
