CIF file written using JARVIS-Tools package.
data_Sr2BeBi
_symmetry_space_group_name_H-M  'P4/mmm'
_cell_length_a       4.73552
_cell_length_b       4.73552
_cell_length_c       6.64783
_cell_angle_alpha    90
_cell_angle_beta     90
_cell_angle_gamma    90

_symmetry_Int_Tables_number  123
_chemical_formula_structural  Sr2BeBi
_chemical_formula_sum  Sr2BeBi
_cell_volume  149.07848124894812
_cell_formula_units_Z  1
loop_
  _symmetry_equiv_pos_site_id
 _symmetry_equiv_pos_as_xyz
 1  'x, y, z'
loop_
 _atom_site_type_symbol
 _atom_site_label
 _atom_site_symmetry_multiplicity
 _atom_site_fract_x
 _atom_site_fract_y
 _atom_site_fract_z
 _atom_site_fract_occupancy
 Be  Be1  1  0.00000  0.00000  0.37517  1
 Bi  Bi1  1  0.50000  0.50000  0.87483  1
 Sr  Sr1  1  0.00000  0.00000  0.87516  1
 Sr  Sr2  1  0.50000  0.50000  0.37484  1
