CIF file written using JARVIS-Tools package.
data_Li2Fe2OF6
_symmetry_space_group_name_H-M  'P-1'
_cell_length_a       5.59891
_cell_length_b       6.99875
_cell_length_c       7.15817
_cell_angle_alpha    64.5636
_cell_angle_beta     71.1187
_cell_angle_gamma    76.7646

_symmetry_Int_Tables_number  2
_chemical_formula_structural  Li2Fe2OF6
_chemical_formula_sum  Li4Fe4O2F2
_cell_volume  238.34294805667454
_cell_formula_units_Z  2
loop_
  _symmetry_equiv_pos_site_id
 _symmetry_equiv_pos_as_xyz
 1  'x, y, z'
loop_
 _atom_site_type_symbol
 _atom_site_label
 _atom_site_symmetry_multiplicity
 _atom_site_fract_x
 _atom_site_fract_y
 _atom_site_fract_z
 _atom_site_fract_occupancy
 F  F1  1  0.13944  0.17228  0.90850  1
 F  F2  1  0.42432  0.10982  0.23388  1
 F  F3  1  0.57568  0.89018  0.76612  1
 F  F4  1  0.86056  0.82772  0.09150  1
 F  F5  1  0.66601  0.25896  0.80529  1
 F  F6  1  0.97013  0.38909  0.37802  1
 F  F7  1  0.71262  0.46206  0.06479  1
 F  F8  1  0.28738  0.53794  0.93521  1
 F  F9  1  0.09428  0.97664  0.65026  1
 F  F10  1  0.33399  0.74104  0.19471  1
 F  F11  1  0.02987  0.61091  0.62198  1
 F  F12  1  0.90572  0.02336  0.34974  1
 Fe  Fe1  1  0.24553  0.86929  0.41431  1
 Fe  Fe2  1  0.31580  0.41458  0.72936  1
 Fe  Fe3  1  0.68420  0.58542  0.27064  1
 Fe  Fe4  1  0.75447  0.13071  0.58569  1
 Li  Li1  1  0.32239  0.38835  0.22734  1
 Li  Li2  1  0.78750  0.13134  0.08194  1
 Li  Li3  1  0.21250  0.86866  0.91806  1
 Li  Li4  1  0.67761  0.61165  0.77266  1
 O  O1  1  0.48237  0.32730  0.48307  1
 O  O2  1  0.51763  0.67270  0.51693  1
