CIF file written using JARVIS-Tools package.
data_KMg6Cr
_symmetry_space_group_name_H-M  'Amm2'
_cell_length_a       7.02461
_cell_length_b       7.0246
_cell_length_c       5.13155
_cell_angle_alpha    90
_cell_angle_beta     90
_cell_angle_gamma    125.219

_symmetry_Int_Tables_number  38
_chemical_formula_structural  KMg6Cr
_chemical_formula_sum  KMg6Cr
_cell_volume  206.8654347712716
_cell_formula_units_Z  1
loop_
  _symmetry_equiv_pos_site_id
 _symmetry_equiv_pos_as_xyz
 1  'x, y, z'
loop_
 _atom_site_type_symbol
 _atom_site_label
 _atom_site_symmetry_multiplicity
 _atom_site_fract_x
 _atom_site_fract_y
 _atom_site_fract_z
 _atom_site_fract_occupancy
 Cr  Cr1  1  0.36787  0.13213  0.75000  1
 K  K1  1  0.18937  0.31063  0.25000  1
 Mg  Mg1  1  0.17207  0.82801  0.25000  1
 Mg  Mg2  1  0.67199  0.32793  0.25000  1
 Mg  Mg3  1  0.65342  0.84658  0.25000  1
 Mg  Mg4  1  0.32102  0.69238  0.75000  1
 Mg  Mg5  1  0.80762  0.17898  0.75000  1
 Mg  Mg6  1  0.81665  0.68335  0.75000  1
