CIF file written using JARVIS-Tools package.
data_Au3F8
_symmetry_space_group_name_H-M  'P2_1/c'
_cell_length_a       5.26065
_cell_length_b       10.8307
_cell_length_c       7.7438
_cell_angle_alpha    90
_cell_angle_beta     132.292
_cell_angle_gamma    90

_symmetry_Int_Tables_number  14
_chemical_formula_structural  Au3F8
_chemical_formula_sum  Au6F6
_cell_volume  326.377110923295
_cell_formula_units_Z  2
loop_
  _symmetry_equiv_pos_site_id
 _symmetry_equiv_pos_as_xyz
 1  'x, y, z'
loop_
 _atom_site_type_symbol
 _atom_site_label
 _atom_site_symmetry_multiplicity
 _atom_site_fract_x
 _atom_site_fract_y
 _atom_site_fract_z
 _atom_site_fract_occupancy
 Au  Au1  1  0.63883  0.32002  0.95543  1
 Au  Au2  1  0.36117  0.82002  0.54457  1
 Au  Au3  1  0.36117  0.67998  0.04457  1
 Au  Au4  1  0.63883  0.17998  0.45543  1
 Au  Au5  1  0.50000  0.00000  0.00000  1
 Au  Au6  1  0.50000  0.50000  0.50000  1
 F  F1  1  0.84162  0.47780  0.10823  1
 F  F2  1  0.15838  0.97780  0.39177  1
 F  F3  1  0.15838  0.52220  0.89177  1
 F  F4  1  0.84162  0.02220  0.60823  1
 F  F5  1  0.67377  0.59700  0.35668  1
 F  F6  1  0.32623  0.40300  0.64332  1
 F  F7  1  0.67377  0.90300  0.85668  1
 F  F8  1  0.44897  0.15615  0.79960  1
 F  F9  1  0.55103  0.65615  0.70040  1
 F  F10  1  0.44897  0.34385  0.29960  1
 F  F11  1  0.91913  0.26808  0.75023  1
 F  F12  1  0.08087  0.76808  0.74977  1
 F  F13  1  0.08087  0.73192  0.24977  1
 F  F14  1  0.91913  0.23192  0.25023  1
 F  F15  1  0.55103  0.84385  0.20040  1
 F  F16  1  0.32623  0.09700  0.14332  1
