CIF file written using JARVIS-Tools package.
data_YSiAu
_symmetry_space_group_name_H-M  'P6_3mc'
_cell_length_a       4.2999
_cell_length_b       4.2999
_cell_length_c       7.7618
_cell_angle_alpha    90
_cell_angle_beta     90
_cell_angle_gamma    120

_symmetry_Int_Tables_number  186
_chemical_formula_structural  YSiAu
_chemical_formula_sum  Y2Si2Au2
_cell_volume  124.28226007506947
_cell_formula_units_Z  2
loop_
  _symmetry_equiv_pos_site_id
 _symmetry_equiv_pos_as_xyz
 1  'x, y, z'
loop_
 _atom_site_type_symbol
 _atom_site_label
 _atom_site_symmetry_multiplicity
 _atom_site_fract_x
 _atom_site_fract_y
 _atom_site_fract_z
 _atom_site_fract_occupancy
 Au  Au1  1  0.33333  0.66667  0.76314  1
 Au  Au2  1  0.66667  0.33333  0.26314  1
 Si  Si1  1  0.66667  0.33333  0.72874  1
 Si  Si2  1  0.33333  0.66667  0.22874  1
 Y  Y1  1  0.00000  0.00000  0.49912  1
 Y  Y2  1  0.00000  0.00000  -0.00088  1
