CIF file written using JARVIS-Tools package.
data_NdScSi
_symmetry_space_group_name_H-M  'I4/mmm'
_cell_length_a       4.29328
_cell_length_b       4.29328
_cell_length_c       8.46697
_cell_angle_alpha    104.687
_cell_angle_beta     104.687
_cell_angle_gamma    90

_symmetry_Int_Tables_number  139
_chemical_formula_structural  NdScSi
_chemical_formula_sum  Nd2Sc2Si2
_cell_volume  145.68881282710623
_cell_formula_units_Z  2
loop_
  _symmetry_equiv_pos_site_id
 _symmetry_equiv_pos_as_xyz
 1  'x, y, z'
loop_
 _atom_site_type_symbol
 _atom_site_label
 _atom_site_symmetry_multiplicity
 _atom_site_fract_x
 _atom_site_fract_y
 _atom_site_fract_z
 _atom_site_fract_occupancy
 Nd  Nd1  1  0.67642  0.67642  0.35283  1
 Nd  Nd2  1  0.32358  0.32358  0.64717  1
 Sc  Sc1  1  0.50000  0.00000  0.00000  1
 Sc  Sc2  1  0.00000  0.50000  0.00000  1
 Si  Si1  1  0.87728  0.87728  0.75456  1
 Si  Si2  1  0.12272  0.12272  0.24544  1
