CIF file written using JARVIS-Tools package.
data_TlCu2S2
_symmetry_space_group_name_H-M  'I4/mmm'
_cell_length_a       3.79393
_cell_length_b       3.79393
_cell_length_c       7.26916
_cell_angle_alpha    105.127
_cell_angle_beta     105.127
_cell_angle_gamma    90

_symmetry_Int_Tables_number  139
_chemical_formula_structural  TlCu2S2
_chemical_formula_sum  TlCu2S2
_cell_volume  97.24564755253671
_cell_formula_units_Z  1
loop_
  _symmetry_equiv_pos_site_id
 _symmetry_equiv_pos_as_xyz
 1  'x, y, z'
loop_
 _atom_site_type_symbol
 _atom_site_label
 _atom_site_symmetry_multiplicity
 _atom_site_fract_x
 _atom_site_fract_y
 _atom_site_fract_z
 _atom_site_fract_occupancy
 Cu  Cu1  1  0.25000  0.75000  0.50000  1
 Cu  Cu2  1  0.75000  0.25000  0.50000  1
 S  S1  1  0.64579  0.64579  0.29158  1
 S  S2  1  0.35421  0.35421  0.70842  1
 Tl  Tl1  1  0.00000  0.00000  0.00000  1
