CIF file written using JARVIS-Tools package.
data_Fe9Co7
_symmetry_space_group_name_H-M  'Pm-3m'
_cell_length_a       5.67188
_cell_length_b       5.67188
_cell_length_c       5.67189
_cell_angle_alpha    90.0008
_cell_angle_beta     90
_cell_angle_gamma    90.0002

_symmetry_Int_Tables_number  221
_chemical_formula_structural  Fe9Co7
_chemical_formula_sum  Fe9Co7
_cell_volume  182.46591951465004
_cell_formula_units_Z  1
loop_
  _symmetry_equiv_pos_site_id
 _symmetry_equiv_pos_as_xyz
 1  'x, y, z'
loop_
 _atom_site_type_symbol
 _atom_site_label
 _atom_site_symmetry_multiplicity
 _atom_site_fract_x
 _atom_site_fract_y
 _atom_site_fract_z
 _atom_site_fract_occupancy
 Co  Co1  1  0.50000  0.00000  1.00000  1
 Co  Co2  1  1.00000  0.50000  0.50000  1
 Co  Co3  1  1.00000  0.00000  0.50000  1
 Co  Co4  1  1.00000  0.50000  1.00000  1
 Co  Co5  1  0.50000  0.50000  1.00000  1
 Co  Co6  1  1.00000  0.00000  1.00000  1
 Co  Co7  1  0.50000  0.00000  0.50000  1
 Fe  Fe1  1  0.25003  0.25003  0.25003  1
 Fe  Fe2  1  0.74997  0.25003  0.25003  1
 Fe  Fe3  1  0.74997  0.74997  0.74997  1
 Fe  Fe4  1  0.25003  0.74997  0.25003  1
 Fe  Fe5  1  0.25003  0.25003  0.74997  1
 Fe  Fe6  1  0.25003  0.74997  0.74997  1
 Fe  Fe7  1  0.74997  0.74997  0.25003  1
 Fe  Fe8  1  0.74997  0.25003  0.74997  1
 Fe  Fe9  1  0.50000  0.50000  0.50000  1
