CIF file written using JARVIS-Tools package.
data_UI4
_symmetry_space_group_name_H-M  'C2/c'
_cell_length_a       7.4272
_cell_length_b       9.49305
_cell_length_c       9.49305
_cell_angle_alpha    127.171
_cell_angle_beta     75.5358
_cell_angle_gamma    75.5358

_symmetry_Int_Tables_number  15
_chemical_formula_structural  UI4
_chemical_formula_sum  U2I8
_cell_volume  441.3369009522141
_cell_formula_units_Z  2
loop_
  _symmetry_equiv_pos_site_id
 _symmetry_equiv_pos_as_xyz
 1  'x, y, z'
loop_
 _atom_site_type_symbol
 _atom_site_label
 _atom_site_symmetry_multiplicity
 _atom_site_fract_x
 _atom_site_fract_y
 _atom_site_fract_z
 _atom_site_fract_occupancy
 I  I1  1  0.75687  -0.07086  0.55459  1
 I  I2  1  0.25687  0.55459  -0.07086  1
 I  I3  1  0.24485  0.81485  0.69293  1
 I  I4  1  0.75515  0.18515  0.30707  1
 I  I5  1  0.74485  0.69293  0.81485  1
 I  I6  1  0.24313  0.07086  0.44541  1
 I  I7  1  0.25515  0.30707  0.18515  1
 I  I8  1  0.74313  0.44541  0.07086  1
 U  U1  1  0.25000  0.92591  0.07409  1
 U  U2  1  0.75000  0.07409  0.92591  1
