CIF file written using JARVIS-Tools package.
data_TbSi3Ir
_symmetry_space_group_name_H-M  'I4mm'
_cell_length_a       4.22573
_cell_length_b       4.22573
_cell_length_c       5.74493
_cell_angle_alpha    111.579
_cell_angle_beta     111.579
_cell_angle_gamma    90

_symmetry_Int_Tables_number  107
_chemical_formula_structural  TbSi3Ir
_chemical_formula_sum  TbSi3Ir
_cell_volume  87.61804620325408
_cell_formula_units_Z  1
loop_
  _symmetry_equiv_pos_site_id
 _symmetry_equiv_pos_as_xyz
 1  'x, y, z'
loop_
 _atom_site_type_symbol
 _atom_site_label
 _atom_site_symmetry_multiplicity
 _atom_site_fract_x
 _atom_site_fract_y
 _atom_site_fract_z
 _atom_site_fract_occupancy
 Ir  Ir1  1  0.65259  0.65259  0.30518  1
 Si  Si1  1  0.41412  0.41412  0.82825  1
 Si  Si2  1  0.76443  0.26443  0.52887  1
 Si  Si3  1  0.26443  0.76443  0.52887  1
 Tb  Tb1  1  0.99842  0.99842  0.99684  1
