CIF file written using JARVIS-Tools package.
data_HfMg6Ga
_symmetry_space_group_name_H-M  'Amm2'
_cell_length_a       6.37367
_cell_length_b       5.9922
_cell_length_c       4.99905
_cell_angle_alpha    90
_cell_angle_beta     90
_cell_angle_gamma    118.039

_symmetry_Int_Tables_number  38
_chemical_formula_structural  HfMg6Ga
_chemical_formula_sum  HfMg6Ga
_cell_volume  168.51604087652035
_cell_formula_units_Z  1
loop_
  _symmetry_equiv_pos_site_id
 _symmetry_equiv_pos_as_xyz
 1  'x, y, z'
loop_
 _atom_site_type_symbol
 _atom_site_label
 _atom_site_symmetry_multiplicity
 _atom_site_fract_x
 _atom_site_fract_y
 _atom_site_fract_z
 _atom_site_fract_occupancy
 Ga  Ga1  1  0.16457  0.33228  0.25000  1
 Hf  Hf1  1  0.14634  0.82317  0.25000  1
 Mg  Mg1  1  0.65220  0.32545  0.25000  1
 Mg  Mg2  1  0.65220  0.82675  0.25000  1
 Mg  Mg3  1  0.34282  0.16536  0.75000  1
 Mg  Mg4  1  0.34282  0.67746  0.75000  1
 Mg  Mg5  1  0.86166  0.18083  0.75000  1
 Mg  Mg6  1  0.83739  0.66870  0.75000  1
