CIF file written using JARVIS-Tools package.
data_CaBePO4F
_symmetry_space_group_name_H-M  'P2_1/c'
_cell_length_a       4.7528
_cell_length_b       7.71357
_cell_length_c       9.78845
_cell_angle_alpha    90
_cell_angle_beta     91.1532
_cell_angle_gamma    90

_symmetry_Int_Tables_number  14
_chemical_formula_structural  CaBePO4F
_chemical_formula_sum  Ca4Be4P4O6F4
_cell_volume  358.78180593736107
_cell_formula_units_Z  4
loop_
  _symmetry_equiv_pos_site_id
 _symmetry_equiv_pos_as_xyz
 1  'x, y, z'
loop_
 _atom_site_type_symbol
 _atom_site_label
 _atom_site_symmetry_multiplicity
 _atom_site_fract_x
 _atom_site_fract_y
 _atom_site_fract_z
 _atom_site_fract_occupancy
 Be  Be1  1  0.45284  0.91434  0.16151  1
 Be  Be2  1  0.54716  0.41434  0.33849  1
 Be  Be3  1  0.54716  0.08566  0.83849  1
 Be  Be4  1  0.45284  0.58566  0.66151  1
 Ca  Ca1  1  0.00421  0.88804  0.67028  1
 Ca  Ca2  1  0.99579  0.11196  0.32972  1
 Ca  Ca3  1  0.00421  0.61196  0.17028  1
 Ca  Ca4  1  0.99579  0.38804  0.82972  1
 F  F1  1  0.21447  0.09268  0.82618  1
 F  F2  1  0.21447  0.40732  0.32618  1
 F  F3  1  0.78553  0.59268  0.67382  1
 F  F4  1  0.78553  0.90732  0.17382  1
 O  O1  1  0.33806  0.10920  0.14651  1
 O  O2  1  0.75312  0.90027  0.46086  1
 O  O3  1  0.24688  0.40027  0.03914  1
 O  O4  1  0.33806  0.39080  0.64651  1
 O  O5  1  0.66194  0.89080  0.85349  1
 O  O6  1  0.68345  0.34580  0.19334  1
 O  O7  1  0.34664  0.71777  0.54319  1
 O  O8  1  0.66194  0.60920  0.35349  1
 O  O9  1  0.31655  0.65420  0.80666  1
 O  O10  1  0.24688  0.09973  0.53914  1
 O  O11  1  0.34664  0.78223  0.04319  1
 O  O12  1  0.65336  0.28223  0.45681  1
 O  O13  1  0.68345  0.15420  0.69334  1
 O  O14  1  0.31655  0.84580  0.30666  1
 O  O15  1  0.75312  0.59973  0.96086  1
 O  O16  1  0.65336  0.21777  0.95681  1
 P  P1  1  0.52386  0.77160  0.41878  1
 P  P2  1  0.47614  0.27160  0.08122  1
 P  P3  1  0.52386  0.72840  0.91878  1
 P  P4  1  0.47614  0.22840  0.58122  1
