data_image0
_chemical_formula_structural       F2Fe2OSe2Sr2
_chemical_formula_sum              "F2 Fe2 O1 Se2 Sr2"
_cell_length_a       9.64245
_cell_length_b       4.11485
_cell_length_c       4.11485
_cell_angle_alpha    90
_cell_angle_beta     102.32
_cell_angle_gamma    102.32

_space_group_name_H-M_alt    "P 1"
_space_group_IT_number       1

loop_
  _space_group_symop_operation_xyz
  'x, y, z'

loop_
  _atom_site_type_symbol
  _atom_site_label
  _atom_site_symmetry_multiplicity
  _atom_site_fract_x
  _atom_site_fract_y
  _atom_site_fract_z
  _atom_site_occupancy
  F   F1        1.0  0.50000  0.75000  0.25000  1.0000
  F   F2        1.0  0.50000  0.25000  0.75000  1.0000
  Fe  Fe1       1.0  0.00000  0.50000  0.00000  1.0000
  Fe  Fe2       1.0  0.00000  0.00000  0.50000  1.0000
  O   O1        1.0  0.00000  0.50000  0.50000  1.0000
  Se  Se1       1.0  0.19600  0.09790  0.09790  1.0000
  Se  Se2       1.0  0.80400  0.90200  0.90200  1.0000
  Sr  Sr1       1.0  0.65200  0.32600  0.32600  1.0000
  Sr  Sr2       1.0  0.34800  0.67400  0.67400  1.0000
