CIF file written using JARVIS-Tools package.
data_HfMg6Co
_symmetry_space_group_name_H-M  'Amm2'
_cell_length_a       6.32716
_cell_length_b       6.32716
_cell_length_c       4.76576
_cell_angle_alpha    90
_cell_angle_beta     90
_cell_angle_gamma    122.68

_symmetry_Int_Tables_number  38
_chemical_formula_structural  HfMg6Co
_chemical_formula_sum  HfMg6Co
_cell_volume  160.58597343092805
_cell_formula_units_Z  1
loop_
  _symmetry_equiv_pos_site_id
 _symmetry_equiv_pos_as_xyz
 1  'x, y, z'
loop_
 _atom_site_type_symbol
 _atom_site_label
 _atom_site_symmetry_multiplicity
 _atom_site_fract_x
 _atom_site_fract_y
 _atom_site_fract_z
 _atom_site_fract_occupancy
 Co  Co1  1  0.20178  0.29822  0.25000  1
 Hf  Hf1  1  0.30639  0.19361  0.75000  1
 Mg  Mg1  1  0.17605  0.83913  0.25000  1
 Mg  Mg2  1  0.66087  0.32395  0.25000  1
 Mg  Mg3  1  0.67322  0.82678  0.25000  1
 Mg  Mg4  1  0.31775  0.66951  0.75000  1
 Mg  Mg5  1  0.83049  0.18225  0.75000  1
 Mg  Mg6  1  0.83345  0.66655  0.75000  1
