CIF file written using JARVIS-Tools package.
data_YbS2
_symmetry_space_group_name_H-M  'P4/nmm'
_cell_length_a       3.75953
_cell_length_b       3.75953
_cell_length_c       8.32998
_cell_angle_alpha    90
_cell_angle_beta     90
_cell_angle_gamma    90

_symmetry_Int_Tables_number  129
_chemical_formula_structural  YbS2
_chemical_formula_sum  Yb2S4
_cell_volume  117.73631182833421
_cell_formula_units_Z  2
loop_
  _symmetry_equiv_pos_site_id
 _symmetry_equiv_pos_as_xyz
 1  'x, y, z'
loop_
 _atom_site_type_symbol
 _atom_site_label
 _atom_site_symmetry_multiplicity
 _atom_site_fract_x
 _atom_site_fract_y
 _atom_site_fract_z
 _atom_site_fract_occupancy
 S  S1  1  0.75000  0.25000  0.00000  1
 S  S2  1  0.25000  0.75000  0.00000  1
 S  S3  1  0.75000  0.75000  0.37071  1
 S  S4  1  0.25000  0.25000  0.62929  1
 Yb  Yb1  1  0.75000  0.75000  0.71461  1
 Yb  Yb2  1  0.25000  0.25000  0.28539  1
