CIF file written using JARVIS-Tools package.
data_SrMo6S8
_symmetry_space_group_name_H-M  'R-3'
_cell_length_a       6.60581
_cell_length_b       6.606
_cell_length_c       6.60606
_cell_angle_alpha    88.9165
_cell_angle_beta     88.908
_cell_angle_gamma    88.9158

_symmetry_Int_Tables_number  148
_chemical_formula_structural  SrMo6S8
_chemical_formula_sum  SrMo6S8
_cell_volume  288.1214180996224
_cell_formula_units_Z  1
loop_
  _symmetry_equiv_pos_site_id
 _symmetry_equiv_pos_as_xyz
 1  'x, y, z'
loop_
 _atom_site_type_symbol
 _atom_site_label
 _atom_site_symmetry_multiplicity
 _atom_site_fract_x
 _atom_site_fract_y
 _atom_site_fract_z
 _atom_site_fract_occupancy
 Mo  Mo1  1  0.56290  0.41787  0.23021  1
 Mo  Mo2  1  0.58212  0.76981  0.43708  1
 Mo  Mo3  1  0.41788  0.23019  0.56292  1
 Mo  Mo4  1  0.76979  0.43712  0.58210  1
 Mo  Mo5  1  0.23021  0.56288  0.41790  1
 Mo  Mo6  1  0.43710  0.58213  0.76979  1
 S  S1  1  0.25734  0.87543  0.61671  1
 S  S2  1  0.74266  0.12457  0.38329  1
 S  S3  1  0.61667  0.25736  0.87542  1
 S  S4  1  0.38333  0.74264  0.12458  1
 S  S5  1  0.75465  0.75470  0.75458  1
 S  S6  1  0.24535  0.24530  0.24542  1
 S  S7  1  0.87545  0.61668  0.25732  1
 S  S8  1  0.12455  0.38332  0.74268  1
 Sr  Sr1  1  0.00000  0.00000  0.00000  1
