CIF file written using JARVIS-Tools package.
data_TaTlS3
_symmetry_space_group_name_H-M  'Pnma'
_cell_length_a       3.52198
_cell_length_b       9.29224
_cell_length_c       14.3979
_cell_angle_alpha    90
_cell_angle_beta     90
_cell_angle_gamma    90

_symmetry_Int_Tables_number  62
_chemical_formula_structural  TaTlS3
_chemical_formula_sum  Ta4Tl4S2
_cell_volume  471.2016795220565
_cell_formula_units_Z  4
loop_
  _symmetry_equiv_pos_site_id
 _symmetry_equiv_pos_as_xyz
 1  'x, y, z'
loop_
 _atom_site_type_symbol
 _atom_site_label
 _atom_site_symmetry_multiplicity
 _atom_site_fract_x
 _atom_site_fract_y
 _atom_site_fract_z
 _atom_site_fract_occupancy
 S  S1  1  0.25000  0.18992  -0.00013  1
 S  S2  1  0.75000  0.47730  0.90049  1
 S  S3  1  0.25000  0.02270  0.40049  1
 S  S4  1  0.75000  0.97730  0.59951  1
 S  S5  1  0.25000  0.75753  0.78529  1
 S  S6  1  0.75000  0.24247  0.21471  1
 S  S7  1  0.25000  0.25753  0.71471  1
 S  S8  1  0.75000  0.74247  0.28529  1
 S  S9  1  0.25000  0.52270  0.09951  1
 S  S10  1  0.75000  0.31008  0.49987  1
 S  S11  1  0.75000  0.81008  0.00013  1
 S  S12  1  0.25000  0.68992  0.50013  1
 Ta  Ta1  1  0.25000  0.66130  0.92909  1
 Ta  Ta2  1  0.75000  0.33870  0.07091  1
 Ta  Ta3  1  0.25000  0.16130  0.57091  1
 Ta  Ta4  1  0.75000  0.83870  0.42909  1
 Tl  Tl1  1  0.75000  0.03138  0.82962  1
 Tl  Tl2  1  0.75000  0.53138  0.67038  1
 Tl  Tl3  1  0.25000  0.46862  0.32962  1
 Tl  Tl4  1  0.25000  0.96862  0.17038  1
