CIF file written using JARVIS-Tools package.
data_Be2FeRe
_symmetry_space_group_name_H-M  'I-4m2'
_cell_length_a       3.96213
_cell_length_b       3.96213
_cell_length_c       3.96213
_cell_angle_alpha    122.226
_cell_angle_beta     122.226
_cell_angle_gamma    86.1857

_symmetry_Int_Tables_number  119
_chemical_formula_structural  Be2FeRe
_chemical_formula_sum  Be2FeRe
_cell_volume  42.399650964599644
_cell_formula_units_Z  1
loop_
  _symmetry_equiv_pos_site_id
 _symmetry_equiv_pos_as_xyz
 1  'x, y, z'
loop_
 _atom_site_type_symbol
 _atom_site_label
 _atom_site_symmetry_multiplicity
 _atom_site_fract_x
 _atom_site_fract_y
 _atom_site_fract_z
 _atom_site_fract_occupancy
 Be  Be1  1  0.00000  0.00000  0.00000  1
 Be  Be2  1  0.25000  0.75000  0.50000  1
 Fe  Fe1  1  0.50000  0.50000  0.00000  1
 Re  Re1  1  0.75000  0.25000  0.50000  1
