CIF file written using JARVIS-Tools package.
data_Ga2Te5
_symmetry_space_group_name_H-M  'I4/m'
_cell_length_a       6.66301
_cell_length_b       6.66301
_cell_length_c       6.66301
_cell_angle_alpha    105.752
_cell_angle_beta     105.752
_cell_angle_gamma    117.197

_symmetry_Int_Tables_number  87
_chemical_formula_structural  Ga2Te5
_chemical_formula_sum  Ga2Te5
_cell_volume  224.56954804773366
_cell_formula_units_Z  1
loop_
  _symmetry_equiv_pos_site_id
 _symmetry_equiv_pos_as_xyz
 1  'x, y, z'
loop_
 _atom_site_type_symbol
 _atom_site_label
 _atom_site_symmetry_multiplicity
 _atom_site_fract_x
 _atom_site_fract_y
 _atom_site_fract_z
 _atom_site_fract_occupancy
 Ga  Ga1  1  0.25000  0.75000  0.50000  1
 Ga  Ga2  1  0.75000  0.25000  0.50000  1
 Te  Te1  1  0.19000  0.66887  0.85887  1
 Te  Te2  1  0.81000  0.33113  0.14113  1
 Te  Te3  1  0.66887  0.81000  0.47888  1
 Te  Te4  1  0.33113  0.19000  0.52112  1
 Te  Te5  1  0.00000  0.00000  0.00000  1
