CIF file written using JARVIS-Tools package.
data_PH3
_symmetry_space_group_name_H-M  'P1'
_cell_length_a       9.99972
_cell_length_b       5.7262
_cell_length_c       10.5382
_cell_angle_alpha    56.9888
_cell_angle_beta     98.0926
_cell_angle_gamma    145.61

_symmetry_Int_Tables_number  1
_chemical_formula_structural  PH3
_chemical_formula_sum  P4H2
_cell_volume  216.70418804322344
_cell_formula_units_Z  4
loop_
  _symmetry_equiv_pos_site_id
 _symmetry_equiv_pos_as_xyz
 1  'x, y, z'
loop_
 _atom_site_type_symbol
 _atom_site_label
 _atom_site_symmetry_multiplicity
 _atom_site_fract_x
 _atom_site_fract_y
 _atom_site_fract_z
 _atom_site_fract_occupancy
 H  H1  1  0.71604  0.20756  0.18763  1
 H  H2  1  0.65551  0.25866  0.56492  1
 H  H3  1  0.14422  -0.01982  0.81800  1
 H  H4  1  0.00977  0.15659  0.54450  1
 H  H5  1  0.55545  0.87700  0.23855  1
 H  H6  1  0.66343  0.40624  0.33376  1
 H  H7  1  0.09260  0.69561  0.60087  1
 H  H8  1  0.91526  0.09114  0.30199  1
 H  H9  1  0.24029  0.74223  0.94419  1
 H  H10  1  0.62664  0.05047  0.93940  1
 H  H11  1  0.46700  0.34704  0.15374  1
 H  H12  1  0.15208  0.32983  0.50548  1
 P  P1  1  0.88795  0.75787  0.35559  1
 P  P2  1  0.00580  0.33739  0.79091  1
 P  P3  1  0.33231  0.11076  0.75314  1
 P  P4  1  0.53565  0.65143  0.96733  1
