CIF file written using JARVIS-Tools package.
data_WSeS
_symmetry_space_group_name_H-M  'Cm'
_cell_length_a       3.25818
_cell_length_b       3.25818
_cell_length_c       33.4332
_cell_angle_alpha    89.9839
_cell_angle_beta     90
_cell_angle_gamma    120

_symmetry_Int_Tables_number  8
_chemical_formula_structural  WSeS
_chemical_formula_sum  W4Se4S4
_cell_volume  307.36876778035884
_cell_formula_units_Z  4
loop_
  _symmetry_equiv_pos_site_id
 _symmetry_equiv_pos_as_xyz
 1  'x, y, z'
loop_
 _atom_site_type_symbol
 _atom_site_label
 _atom_site_symmetry_multiplicity
 _atom_site_fract_x
 _atom_site_fract_y
 _atom_site_fract_z
 _atom_site_fract_occupancy
 S  S1  1  0.33290  0.66580  0.32227  1
 S  S2  1  0.66778  0.33555  0.04365  1
 S  S3  1  0.66766  0.33533  0.13653  1
 S  S4  1  0.33327  0.66653  0.22936  1
 Se  Se1  1  0.33354  0.66709  0.71937  1
 Se  Se2  1  0.66560  0.33121  0.41762  1
 Se  Se3  1  0.66552  0.33104  0.51982  1
 Se  Se4  1  0.33372  0.66745  0.61721  1
 W  W1  1  0.33439  0.66877  0.09007  1
 W  W2  1  0.33224  0.66447  0.46872  1
 W  W3  1  0.66642  0.33283  0.27581  1
 W  W4  1  0.66696  0.33392  0.66832  1
