CIF file written using JARVIS-Tools package.
data_CoO2
_symmetry_space_group_name_H-M  'R-3m'
_cell_length_a       2.82299
_cell_length_b       2.8229
_cell_length_c       8.73994
_cell_angle_alpha    80.7152
_cell_angle_beta     80.7439
_cell_angle_gamma    59.9995

_symmetry_Int_Tables_number  166
_chemical_formula_structural  CoO2
_chemical_formula_sum  Co2O4
_cell_volume  59.264682687065324
_cell_formula_units_Z  2
loop_
  _symmetry_equiv_pos_site_id
 _symmetry_equiv_pos_as_xyz
 1  'x, y, z'
loop_
 _atom_site_type_symbol
 _atom_site_label
 _atom_site_symmetry_multiplicity
 _atom_site_fract_x
 _atom_site_fract_y
 _atom_site_fract_z
 _atom_site_fract_occupancy
 Co  Co1  1  0.00381  0.99717  -0.00077  1
 Co  Co2  1  0.50356  0.49755  0.49928  1
 O  O1  1  0.63466  0.62769  0.10743  1
 O  O2  1  0.20608  0.20039  0.39098  1
 O  O3  1  0.80104  0.79469  0.60757  1
 O  O4  1  0.37297  0.36664  0.89103  1
