CIF file written using JARVIS-Tools package.
data_Y4BeZn
_symmetry_space_group_name_H-M  'F-43m'
_cell_length_a       6.14391
_cell_length_b       6.14391
_cell_length_c       6.14391
_cell_angle_alpha    60
_cell_angle_beta     60
_cell_angle_gamma    60

_symmetry_Int_Tables_number  216
_chemical_formula_structural  Y4BeZn
_chemical_formula_sum  Y4BeZn
_cell_volume  163.99037641478506
_cell_formula_units_Z  1
loop_
  _symmetry_equiv_pos_site_id
 _symmetry_equiv_pos_as_xyz
 1  'x, y, z'
loop_
 _atom_site_type_symbol
 _atom_site_label
 _atom_site_symmetry_multiplicity
 _atom_site_fract_x
 _atom_site_fract_y
 _atom_site_fract_z
 _atom_site_fract_occupancy
 Be  Be1  1  0.00000  0.00000  0.00000  1
 Y  Y1  1  0.12426  0.62525  0.62525  1
 Y  Y2  1  0.62525  0.62525  0.62525  1
 Y  Y3  1  0.62525  0.12426  0.62525  1
 Y  Y4  1  0.62525  0.62525  0.12426  1
 Zn  Zn1  1  0.25000  0.25000  0.25000  1
