CIF file written using JARVIS-Tools package.
data_NdAl3Cu
_symmetry_space_group_name_H-M  'I4mm'
_cell_length_a       4.24675
_cell_length_b       4.24675
_cell_length_c       6.12338
_cell_angle_alpha    110.29
_cell_angle_beta     110.29
_cell_angle_gamma    90

_symmetry_Int_Tables_number  107
_chemical_formula_structural  NdAl3Cu
_chemical_formula_sum  NdAl3Cu
_cell_volume  96.24352180584181
_cell_formula_units_Z  1
loop_
  _symmetry_equiv_pos_site_id
 _symmetry_equiv_pos_as_xyz
 1  'x, y, z'
loop_
 _atom_site_type_symbol
 _atom_site_label
 _atom_site_symmetry_multiplicity
 _atom_site_fract_x
 _atom_site_fract_y
 _atom_site_fract_z
 _atom_site_fract_occupancy
 Al  Al1  1  0.40801  0.40801  0.81601  1
 Al  Al2  1  0.74992  0.24992  0.49984  1
 Al  Al3  1  0.24992  0.74992  0.49984  1
 Cu  Cu1  1  0.63250  0.63250  0.26500  1
 Nd  Nd1  1  0.00106  0.00106  0.00211  1
