CIF file written using JARVIS-Tools package.
data_Mg6AlW
_symmetry_space_group_name_H-M  'Amm2'
_cell_length_a       6.12901
_cell_length_b       5.84677
_cell_length_c       4.93595
_cell_angle_alpha    90
_cell_angle_beta     90
_cell_angle_gamma    118.488

_symmetry_Int_Tables_number  38
_chemical_formula_structural  Mg6AlW
_chemical_formula_sum  Mg6AlW
_cell_volume  155.46218696711205
_cell_formula_units_Z  1
loop_
  _symmetry_equiv_pos_site_id
 _symmetry_equiv_pos_as_xyz
 1  'x, y, z'
loop_
 _atom_site_type_symbol
 _atom_site_label
 _atom_site_symmetry_multiplicity
 _atom_site_fract_x
 _atom_site_fract_y
 _atom_site_fract_z
 _atom_site_fract_occupancy
 Al  Al1  1  0.16083  0.33042  0.25000  1
 Mg  Mg1  1  0.65657  0.32892  0.25000  1
 Mg  Mg2  1  0.65657  0.82765  0.25000  1
 Mg  Mg3  1  0.33307  0.15507  0.75000  1
 Mg  Mg4  1  0.33307  0.67800  0.75000  1
 Mg  Mg5  1  0.84878  0.17439  0.75000  1
 Mg  Mg6  1  0.85787  0.67894  0.75000  1
 W  W1  1  0.15323  0.82661  0.25000  1
