CIF file written using JARVIS-Tools package.
data_LiHfMg6
_symmetry_space_group_name_H-M  'P4/mmm'
_cell_length_a       6.22871
_cell_length_b       8.8085
_cell_length_c       4.5253
_cell_angle_alpha    90
_cell_angle_beta     90
_cell_angle_gamma    134.999

_symmetry_Int_Tables_number  123
_chemical_formula_structural  LiHfMg6
_chemical_formula_sum  LiHfMg6
_cell_volume  175.56713190809603
_cell_formula_units_Z  1
loop_
  _symmetry_equiv_pos_site_id
 _symmetry_equiv_pos_as_xyz
 1  'x, y, z'
loop_
 _atom_site_type_symbol
 _atom_site_label
 _atom_site_symmetry_multiplicity
 _atom_site_fract_x
 _atom_site_fract_y
 _atom_site_fract_z
 _atom_site_fract_occupancy
 Hf  Hf1  1  0.25008  0.87504  0.25000  1
 Li  Li1  1  0.24981  0.37490  0.25000  1
 Mg  Mg1  1  0.74999  0.37504  0.25000  1
 Mg  Mg2  1  0.74999  0.87495  0.25000  1
 Mg  Mg3  1  0.25002  0.12116  0.75000  1
 Mg  Mg4  1  0.25002  0.62887  0.75000  1
 Mg  Mg5  1  0.74236  0.12118  0.75000  1
 Mg  Mg6  1  0.75772  0.62886  0.75000  1
