CIF file written using JARVIS-Tools package.
data_CeMg5
_symmetry_space_group_name_H-M  'P-62m'
_cell_length_a       5.80611
_cell_length_b       5.80611
_cell_length_c       5.0975
_cell_angle_alpha    90
_cell_angle_beta     90
_cell_angle_gamma    120

_symmetry_Int_Tables_number  189
_chemical_formula_structural  CeMg5
_chemical_formula_sum  CeMg5
_cell_volume  148.81902405436793
_cell_formula_units_Z  1
loop_
  _symmetry_equiv_pos_site_id
 _symmetry_equiv_pos_as_xyz
 1  'x, y, z'
loop_
 _atom_site_type_symbol
 _atom_site_label
 _atom_site_symmetry_multiplicity
 _atom_site_fract_x
 _atom_site_fract_y
 _atom_site_fract_z
 _atom_site_fract_occupancy
 Ce  Ce1  1  0.00000  0.00000  0.50000  1
 Mg  Mg1  1  0.61007  -0.00000  0.00000  1
 Mg  Mg2  1  0.38993  0.38993  0.00000  1
 Mg  Mg3  1  0.00000  0.61007  0.00000  1
 Mg  Mg4  1  0.66667  0.33333  0.50000  1
 Mg  Mg5  1  0.33333  0.66667  0.50000  1
