CIF file written using JARVIS-Tools package.
data_Ba2SnS4
_symmetry_space_group_name_H-M  'P2_1/c'
_cell_length_a       8.56609
_cell_length_b       8.57193
_cell_length_c       11.8181
_cell_angle_alpha    90
_cell_angle_beta     109.303
_cell_angle_gamma    90

_symmetry_Int_Tables_number  14
_chemical_formula_structural  Ba2SnS4
_chemical_formula_sum  Ba8Sn4S6
_cell_volume  818.998301361397
_cell_formula_units_Z  4
loop_
  _symmetry_equiv_pos_site_id
 _symmetry_equiv_pos_as_xyz
 1  'x, y, z'
loop_
 _atom_site_type_symbol
 _atom_site_label
 _atom_site_symmetry_multiplicity
 _atom_site_fract_x
 _atom_site_fract_y
 _atom_site_fract_z
 _atom_site_fract_occupancy
 Ba  Ba1  1  0.30742  0.80437  0.35006  1
 Ba  Ba2  1  0.19258  0.30437  0.14994  1
 Ba  Ba3  1  0.69258  0.19563  0.64994  1
 Ba  Ba4  1  0.80742  0.69563  0.85006  1
 Ba  Ba5  1  0.73753  0.87467  0.16440  1
 Ba  Ba6  1  0.76247  0.37467  0.33560  1
 Ba  Ba7  1  0.26247  0.12533  0.83560  1
 Ba  Ba8  1  0.23753  0.62533  0.66440  1
 S  S1  1  0.13398  0.48131  0.89019  1
 S  S2  1  0.52395  0.39999  0.79375  1
 S  S3  1  0.97605  0.89999  0.70625  1
 S  S4  1  0.36602  0.98131  0.60981  1
 S  S5  1  0.63398  0.01869  0.39019  1
 S  S6  1  0.52457  0.19223  0.09896  1
 S  S7  1  0.47605  0.60001  0.20625  1
 S  S8  1  0.86602  0.51869  0.10981  1
 S  S9  1  0.14273  0.88545  0.05510  1
 S  S10  1  0.47543  0.80777  0.90104  1
 S  S11  1  0.85727  0.11455  0.94490  1
 S  S12  1  0.64273  0.61455  0.55510  1
 S  S13  1  0.02395  0.10001  0.29375  1
 S  S14  1  0.02457  0.30777  0.59896  1
 S  S15  1  0.35727  0.38545  0.44490  1
 S  S16  1  0.97543  0.69223  0.40104  1
 Sn  Sn1  1  0.80887  0.81310  0.50871  1
 Sn  Sn2  1  0.69113  0.31310  0.99129  1
 Sn  Sn3  1  0.19113  0.18690  0.49129  1
 Sn  Sn4  1  0.30887  0.68690  0.00871  1
