CIF file written using JARVIS-Tools package.
data_CaTlF3
_symmetry_space_group_name_H-M  'R3m'
_cell_length_a       4.47941
_cell_length_b       4.48033
_cell_length_c       4.47942
_cell_angle_alpha    89.8708
_cell_angle_beta     90.1142
_cell_angle_gamma    90.1018

_symmetry_Int_Tables_number  160
_chemical_formula_structural  CaTlF3
_chemical_formula_sum  CaTlF3
_cell_volume  89.89798974280816
_cell_formula_units_Z  1
loop_
  _symmetry_equiv_pos_site_id
 _symmetry_equiv_pos_as_xyz
 1  'x, y, z'
loop_
 _atom_site_type_symbol
 _atom_site_label
 _atom_site_symmetry_multiplicity
 _atom_site_fract_x
 _atom_site_fract_y
 _atom_site_fract_z
 _atom_site_fract_occupancy
 Ca  Ca1  1  0.49129  0.49646  0.49469  1
 F  F1  1  0.47142  0.99901  0.51494  1
 F  F2  1  0.98890  0.51758  0.51442  1
 F  F3  1  0.47135  0.51765  0.99709  1
 Tl  Tl1  1  0.01704  0.96930  0.96886  1
