CIF file written using JARVIS-Tools package.
data_SrBeSi4
_symmetry_space_group_name_H-M  'F-43m'
_cell_length_a       5.35533
_cell_length_b       5.35533
_cell_length_c       5.35533
_cell_angle_alpha    60
_cell_angle_beta     60
_cell_angle_gamma    60

_symmetry_Int_Tables_number  216
_chemical_formula_structural  SrBeSi4
_chemical_formula_sum  SrBeSi4
_cell_volume  108.60343768975488
_cell_formula_units_Z  1
loop_
  _symmetry_equiv_pos_site_id
 _symmetry_equiv_pos_as_xyz
 1  'x, y, z'
loop_
 _atom_site_type_symbol
 _atom_site_label
 _atom_site_symmetry_multiplicity
 _atom_site_fract_x
 _atom_site_fract_y
 _atom_site_fract_z
 _atom_site_fract_occupancy
 Be  Be1  1  0.00000  0.00000  0.00000  1
 Si  Si1  1  0.11612  0.62796  0.62796  1
 Si  Si2  1  0.62796  0.62796  0.62796  1
 Si  Si3  1  0.62796  0.11612  0.62796  1
 Si  Si4  1  0.62796  0.62796  0.11612  1
 Sr  Sr1  1  0.25000  0.25000  0.25000  1
