CIF file written using JARVIS-Tools package.
data_Fe4O7F
_symmetry_space_group_name_H-M  'C2/m'
_cell_length_a       8.46151
_cell_length_b       5.21991
_cell_length_c       5.21991
_cell_angle_alpha    71.5869
_cell_angle_beta     86.0144
_cell_angle_gamma    86.0144

_symmetry_Int_Tables_number  12
_chemical_formula_structural  Fe4O7F
_chemical_formula_sum  Fe8O4F2
_cell_volume  217.94647659931607
_cell_formula_units_Z  2
loop_
  _symmetry_equiv_pos_site_id
 _symmetry_equiv_pos_as_xyz
 1  'x, y, z'
loop_
 _atom_site_type_symbol
 _atom_site_label
 _atom_site_symmetry_multiplicity
 _atom_site_fract_x
 _atom_site_fract_y
 _atom_site_fract_z
 _atom_site_fract_occupancy
 F  F1  1  0.77337  0.02522  0.02522  1
 F  F2  1  0.22663  0.97478  0.97478  1
 Fe  Fe1  1  0.00000  0.00000  0.00000  1
 Fe  Fe2  1  0.38854  0.13835  0.13835  1
 Fe  Fe3  1  0.12089  0.37301  0.37301  1
 Fe  Fe4  1  0.61146  0.86165  0.86165  1
 Fe  Fe5  1  0.24611  0.73658  0.73658  1
 Fe  Fe6  1  0.50000  0.50000  0.50000  1
 Fe  Fe7  1  0.87911  0.62699  0.62699  1
 Fe  Fe8  1  0.75389  0.26342  0.26342  1
 O  O1  1  0.27524  0.52450  0.52450  1
 O  O2  1  0.74851  0.55456  0.94603  1
 O  O3  1  0.50000  0.19359  0.80641  1
 O  O4  1  0.74851  0.94603  0.55456  1
 O  O5  1  0.72476  0.47550  0.47550  1
 O  O6  1  0.97133  0.22276  0.22276  1
 O  O7  1  0.02867  0.77724  0.77724  1
 O  O8  1  0.53046  0.28205  0.28205  1
 O  O9  1  0.25149  0.05397  0.44544  1
 O  O10  1  0.00000  0.30112  0.69888  1
 O  O11  1  0.25149  0.44544  0.05397  1
 O  O12  1  0.00000  0.69888  0.30112  1
 O  O13  1  0.46954  0.71795  0.71795  1
 O  O14  1  0.50000  0.80641  0.19359  1
