CIF file written using JARVIS-Tools package.
data_Sc2Se3O9
_symmetry_space_group_name_H-M  'P6_3/m'
_cell_length_a       8.09586
_cell_length_b       8.09586
_cell_length_c       7.70228
_cell_angle_alpha    90
_cell_angle_beta     90
_cell_angle_gamma    120

_symmetry_Int_Tables_number  176
_chemical_formula_structural  Sc2Se3O9
_chemical_formula_sum  Sc4Se6O8
_cell_volume  437.1959683341552
_cell_formula_units_Z  2
loop_
  _symmetry_equiv_pos_site_id
 _symmetry_equiv_pos_as_xyz
 1  'x, y, z'
loop_
 _atom_site_type_symbol
 _atom_site_label
 _atom_site_symmetry_multiplicity
 _atom_site_fract_x
 _atom_site_fract_y
 _atom_site_fract_z
 _atom_site_fract_occupancy
 O  O1  1  0.38692  0.87737  0.25000  1
 O  O2  1  0.23621  0.41190  0.92278  1
 O  O3  1  0.17569  0.76379  0.92278  1
 O  O4  1  0.82431  0.23621  0.42278  1
 O  O5  1  0.76379  0.58810  0.42278  1
 O  O6  1  0.58810  0.82431  0.92278  1
 O  O7  1  0.58810  0.82431  0.57722  1
 O  O8  1  0.76379  0.58810  0.07722  1
 O  O9  1  0.82431  0.23621  0.07722  1
 O  O10  1  0.17569  0.76379  0.57722  1
 O  O11  1  0.12263  0.50955  0.25000  1
 O  O12  1  0.61308  0.12263  0.75000  1
 O  O13  1  0.41190  0.17569  0.42278  1
 O  O14  1  0.49045  0.61308  0.25000  1
 O  O15  1  0.87737  0.49045  0.75000  1
 O  O16  1  0.41190  0.17569  0.07722  1
 O  O17  1  0.23621  0.41190  0.57722  1
 O  O18  1  0.50955  0.38692  0.75000  1
 Sc  Sc1  1  0.33333  0.66667  0.04547  1
 Sc  Sc2  1  0.66667  0.33333  0.54547  1
 Sc  Sc3  1  0.66667  0.33333  0.95453  1
 Sc  Sc4  1  0.33333  0.66667  0.45453  1
 Se  Se1  1  0.73804  0.70510  0.25000  1
 Se  Se2  1  0.26196  0.29490  0.75000  1
 Se  Se3  1  0.29490  0.03295  0.25000  1
 Se  Se4  1  0.03295  0.73804  0.75000  1
 Se  Se5  1  0.96705  0.26196  0.25000  1
 Se  Se6  1  0.70510  0.96705  0.75000  1
