CIF file written using JARVIS-Tools package.
data_MgTi5
_symmetry_space_group_name_H-M  'P-62m'
_cell_length_a       5.09446
_cell_length_b       5.09446
_cell_length_c       4.69268
_cell_angle_alpha    90
_cell_angle_beta     90
_cell_angle_gamma    120

_symmetry_Int_Tables_number  189
_chemical_formula_structural  MgTi5
_chemical_formula_sum  MgTi5
_cell_volume  105.47452659767187
_cell_formula_units_Z  1
loop_
  _symmetry_equiv_pos_site_id
 _symmetry_equiv_pos_as_xyz
 1  'x, y, z'
loop_
 _atom_site_type_symbol
 _atom_site_label
 _atom_site_symmetry_multiplicity
 _atom_site_fract_x
 _atom_site_fract_y
 _atom_site_fract_z
 _atom_site_fract_occupancy
 Mg  Mg1  1  0.00000  0.00000  0.50000  1
 Ti  Ti1  1  0.66208  0.00000  0.00000  1
 Ti  Ti2  1  0.00000  0.66208  0.00000  1
 Ti  Ti3  1  0.33792  0.33792  0.00000  1
 Ti  Ti4  1  0.33333  0.66667  0.50000  1
 Ti  Ti5  1  0.66667  0.33333  0.50000  1
