CIF file written using JARVIS-Tools package.
data_Cr2AgBiO8
_symmetry_space_group_name_H-M  'I-4'
_cell_length_a       5.10149
_cell_length_b       5.10149
_cell_length_c       6.86555
_cell_angle_alpha    111.81
_cell_angle_beta     111.81
_cell_angle_gamma    89.9999

_symmetry_Int_Tables_number  82
_chemical_formula_structural  Cr2AgBiO8
_chemical_formula_sum  Cr2AgBiO8
_cell_volume  152.0262455953703
_cell_formula_units_Z  1
loop_
  _symmetry_equiv_pos_site_id
 _symmetry_equiv_pos_as_xyz
 1  'x, y, z'
loop_
 _atom_site_type_symbol
 _atom_site_label
 _atom_site_symmetry_multiplicity
 _atom_site_fract_x
 _atom_site_fract_y
 _atom_site_fract_z
 _atom_site_fract_occupancy
 Ag  Ag1  1  0.75000  0.25000  0.50000  1
 Bi  Bi1  1  0.50000  0.50000  -0.00000  1
 Cr  Cr1  1  0.25000  0.75000  0.50000  1
 Cr  Cr2  1  0.00000  0.00000  0.00000  1
 O  O1  1  0.92899  0.54324  0.33968  1
 O  O2  1  0.32166  0.20734  0.15318  1
 O  O3  1  0.20356  0.07101  0.66032  1
 O  O4  1  0.45676  0.58931  0.66032  1
 O  O5  1  0.79266  0.16847  0.84682  1
 O  O6  1  0.41069  0.79644  0.33968  1
 O  O7  1  0.05416  0.67834  0.84682  1
 O  O8  1  0.83153  0.94584  0.15318  1
