CIF file written using JARVIS-Tools package.
data_Fe3C
_symmetry_space_group_name_H-M  'P6_322'
_cell_length_a       4.29726
_cell_length_b       4.63882
_cell_length_c       4.63875
_cell_angle_alpha    120.001
_cell_angle_beta     90.0001
_cell_angle_gamma    90.0001

_symmetry_Int_Tables_number  182
_chemical_formula_structural  Fe3C
_chemical_formula_sum  Fe6C2
_cell_volume  80.0807247667768
_cell_formula_units_Z  2
loop_
  _symmetry_equiv_pos_site_id
 _symmetry_equiv_pos_as_xyz
 1  'x, y, z'
loop_
 _atom_site_type_symbol
 _atom_site_label
 _atom_site_symmetry_multiplicity
 _atom_site_fract_x
 _atom_site_fract_y
 _atom_site_fract_z
 _atom_site_fract_occupancy
 C  C1  1  0.25001  0.66669  0.33335  1
 C  C2  1  0.74999  0.33334  0.66665  1
 Fe  Fe1  1  0.50000  0.68107  0.00000  1
 Fe  Fe2  1  0.49999  0.31893  0.31892  1
 Fe  Fe3  1  0.50001  0.00001  0.68108  1
 Fe  Fe4  1  -0.00000  0.31896  -0.00000  1
 Fe  Fe5  1  0.99999  0.68109  0.68107  1
 Fe  Fe6  1  0.00001  0.00002  0.31893  1
