CIF file written using JARVIS-Tools package.
data_Te4MoW3Se4
_symmetry_space_group_name_H-M  'Cm'
_cell_length_a       3.44445
_cell_length_b       3.44397
_cell_length_c       33.4822
_cell_angle_alpha    90.3201
_cell_angle_beta     90
_cell_angle_gamma    120.005

_symmetry_Int_Tables_number  8
_chemical_formula_structural  Te4MoW3Se4
_chemical_formula_sum  Te4MoW3Se4
_cell_volume  343.94942920782177
_cell_formula_units_Z  1
loop_
  _symmetry_equiv_pos_site_id
 _symmetry_equiv_pos_as_xyz
 1  'x, y, z'
loop_
 _atom_site_type_symbol
 _atom_site_label
 _atom_site_symmetry_multiplicity
 _atom_site_fract_x
 _atom_site_fract_y
 _atom_site_fract_z
 _atom_site_fract_occupancy
 Mo  Mo1  1  0.33409  0.66817  0.07360  1
 Se  Se1  1  0.33838  0.67676  0.32758  1
 Se  Se2  1  0.65950  0.31900  0.42339  1
 Se  Se3  1  0.66365  0.32731  0.52157  1
 Se  Se4  1  0.33466  0.66931  0.22946  1
 Te  Te1  1  0.33658  0.67316  0.73408  1
 Te  Te2  1  0.66551  0.33101  0.01810  1
 Te  Te3  1  0.66934  0.33869  0.12917  1
 Te  Te4  1  0.33241  0.66482  0.62247  1
 W  W1  1  0.32828  0.65657  0.47246  1
 W  W2  1  0.66979  0.33958  0.27854  1
 W  W3  1  0.66781  0.33563  0.67832  1
