CIF file written using JARVIS-Tools package.
data_SnPd2
_symmetry_space_group_name_H-M  'Pnma'
_cell_length_a       4.3669
_cell_length_b       5.75723
_cell_length_c       8.25121
_cell_angle_alpha    90
_cell_angle_beta     90
_cell_angle_gamma    90

_symmetry_Int_Tables_number  62
_chemical_formula_structural  SnPd2
_chemical_formula_sum  Sn4Pd8
_cell_volume  207.44570477763418
_cell_formula_units_Z  4
loop_
  _symmetry_equiv_pos_site_id
 _symmetry_equiv_pos_as_xyz
 1  'x, y, z'
loop_
 _atom_site_type_symbol
 _atom_site_label
 _atom_site_symmetry_multiplicity
 _atom_site_fract_x
 _atom_site_fract_y
 _atom_site_fract_z
 _atom_site_fract_occupancy
 Pd  Pd1  1  0.75000  0.45049  0.70805  1
 Pd  Pd2  1  0.75000  0.95049  0.79195  1
 Pd  Pd3  1  0.25000  0.54951  0.29195  1
 Pd  Pd4  1  0.25000  0.04951  0.20805  1
 Pd  Pd5  1  0.75000  0.32869  0.06059  1
 Pd  Pd6  1  0.75000  0.82869  0.43941  1
 Pd  Pd7  1  0.25000  0.67131  0.93941  1
 Pd  Pd8  1  0.25000  0.17131  0.56059  1
 Sn  Sn1  1  0.75000  0.79466  0.11202  1
 Sn  Sn2  1  0.75000  0.29466  0.38798  1
 Sn  Sn3  1  0.25000  0.20534  0.88798  1
 Sn  Sn4  1  0.25000  0.70534  0.61202  1
