CIF file written using JARVIS-Tools package.
data_Cr3B7BrO13
_symmetry_space_group_name_H-M  'F-43c'
_cell_length_a       8.61164
_cell_length_b       8.61164
_cell_length_c       8.61164
_cell_angle_alpha    60
_cell_angle_beta     60
_cell_angle_gamma    60

_symmetry_Int_Tables_number  219
_chemical_formula_structural  Cr3B7BrO13
_chemical_formula_sum  Cr6B4Br2O26
_cell_volume  451.58777892442043
_cell_formula_units_Z  2
loop_
  _symmetry_equiv_pos_site_id
 _symmetry_equiv_pos_as_xyz
 1  'x, y, z'
loop_
 _atom_site_type_symbol
 _atom_site_label
 _atom_site_symmetry_multiplicity
 _atom_site_fract_x
 _atom_site_fract_y
 _atom_site_fract_z
 _atom_site_fract_occupancy
 B  B1  1  0.75933  0.08022  0.08022  1
 B  B2  1  0.75000  0.75000  0.25000  1
 B  B3  1  0.58022  0.58022  0.58022  1
 B  B4  1  0.08022  0.08022  0.75933  1
 B  B5  1  0.08022  0.75933  0.08022  1
 B  B6  1  0.25000  0.75000  0.75000  1
 B  B7  1  0.25000  0.75000  0.25000  1
 B  B8  1  0.75000  0.25000  0.75000  1
 B  B9  1  0.25000  0.25000  0.75000  1
 B  B10  1  0.75000  0.25000  0.25000  1
 B  B11  1  0.08022  0.08022  0.08022  1
 B  B12  1  0.58022  0.58022  0.25933  1
 B  B13  1  0.25933  0.58022  0.58022  1
 B  B14  1  0.58022  0.25933  0.58022  1
 Br  Br1  1  0.75000  0.75000  0.75000  1
 Br  Br2  1  0.25000  0.25000  0.25000  1
 Cr  Cr1  1  0.50000  0.50000  -0.00000  1
 Cr  Cr2  1  0.50000  0.00000  0.00000  1
 Cr  Cr3  1  0.00000  0.00000  0.50000  1
 Cr  Cr4  1  0.50000  0.00000  0.50000  1
 Cr  Cr5  1  0.00000  0.50000  -0.00000  1
 Cr  Cr6  1  0.00000  0.50000  0.50000  1
 O  O1  1  0.10180  0.93575  0.25779  1
 O  O2  1  0.93575  0.25779  0.10180  1
 O  O3  1  0.20466  0.43575  0.75779  1
 O  O4  1  0.43575  0.20466  0.60180  1
 O  O5  1  0.43575  0.75779  0.20466  1
 O  O6  1  0.20466  0.75779  0.60180  1
 O  O7  1  0.70466  0.25779  0.93575  1
 O  O8  1  0.60180  0.43575  0.20466  1
 O  O9  1  0.25779  0.10180  0.93575  1
 O  O10  1  0.60180  0.75779  0.43575  1
 O  O11  1  0.60180  0.20466  0.75779  1
 O  O12  1  0.10180  0.70466  0.93575  1
 O  O13  1  0.70466  0.93575  0.10180  1
 O  O14  1  0.93575  0.10180  0.70466  1
 O  O15  1  0.25779  0.93575  0.70466  1
 O  O16  1  0.25779  0.70466  0.10180  1
 O  O17  1  0.93575  0.70466  0.25779  1
 O  O18  1  0.75779  0.43575  0.60180  1
 O  O19  1  0.75779  0.60180  0.20466  1
 O  O20  1  0.75779  0.20466  0.43575  1
 O  O21  1  0.20466  0.60180  0.43575  1
 O  O22  1  0.10180  0.25779  0.70466  1
 O  O23  1  0.43575  0.60180  0.75779  1
 O  O24  1  0.00000  0.00000  0.00000  1
 O  O25  1  0.70466  0.10180  0.25779  1
 O  O26  1  0.50000  0.50000  0.50000  1
