CIF file written using JARVIS-Tools package.
data_Mg6CrFe
_symmetry_space_group_name_H-M  'Amm2'
_cell_length_a       6.00791
_cell_length_b       5.7012
_cell_length_c       4.71377
_cell_angle_alpha    90
_cell_angle_beta     90
_cell_angle_gamma    118.325

_symmetry_Int_Tables_number  38
_chemical_formula_structural  Mg6CrFe
_chemical_formula_sum  Mg6CrFe
_cell_volume  142.1258743552638
_cell_formula_units_Z  1
loop_
  _symmetry_equiv_pos_site_id
 _symmetry_equiv_pos_as_xyz
 1  'x, y, z'
loop_
 _atom_site_type_symbol
 _atom_site_label
 _atom_site_symmetry_multiplicity
 _atom_site_fract_x
 _atom_site_fract_y
 _atom_site_fract_z
 _atom_site_fract_occupancy
 Cr  Cr1  1  0.14938  0.82469  0.25000  1
 Fe  Fe1  1  0.15448  0.32724  0.25000  1
 Mg  Mg1  1  0.65390  0.32731  0.25000  1
 Mg  Mg2  1  0.65390  0.82659  0.25000  1
 Mg  Mg3  1  0.32779  0.16401  0.75000  1
 Mg  Mg4  1  0.32779  0.66378  0.75000  1
 Mg  Mg5  1  0.87094  0.18547  0.75000  1
 Mg  Mg6  1  0.86182  0.68091  0.75000  1
