CIF file written using JARVIS-Tools package.
data_Sr2BeSb2
_symmetry_space_group_name_H-M  'I4/mmm'
_cell_length_a       7.86955
_cell_length_b       7.86955
_cell_length_c       7.86955
_cell_angle_alpha    132.766
_cell_angle_beta     132.766
_cell_angle_gamma    69.0222

_symmetry_Int_Tables_number  139
_chemical_formula_structural  Sr2BeSb2
_chemical_formula_sum  Sr2BeSb2
_cell_volume  257.82035732039037
_cell_formula_units_Z  1
loop_
  _symmetry_equiv_pos_site_id
 _symmetry_equiv_pos_as_xyz
 1  'x, y, z'
loop_
 _atom_site_type_symbol
 _atom_site_label
 _atom_site_symmetry_multiplicity
 _atom_site_fract_x
 _atom_site_fract_y
 _atom_site_fract_z
 _atom_site_fract_occupancy
 Be  Be1  1  0.00000  0.00000  0.00000  1
 Sb  Sb1  1  0.82435  0.82435  -0.00000  1
 Sb  Sb2  1  0.17565  0.17565  -0.00000  1
 Sr  Sr1  1  0.75000  0.25000  0.50000  1
 Sr  Sr2  1  0.25000  0.75000  0.50000  1
