CIF file written using JARVIS-Tools package.
data_U2Si3Ru
_symmetry_space_group_name_H-M  'Pmm2'
_cell_length_a       3.68693
_cell_length_b       4.1986
_cell_length_c       7.116
_cell_angle_alpha    90.0003
_cell_angle_beta     90
_cell_angle_gamma    90

_symmetry_Int_Tables_number  25
_chemical_formula_structural  U2Si3Ru
_chemical_formula_sum  U2Si3Ru
_cell_volume  110.15511095150649
_cell_formula_units_Z  1
loop_
  _symmetry_equiv_pos_site_id
 _symmetry_equiv_pos_as_xyz
 1  'x, y, z'
loop_
 _atom_site_type_symbol
 _atom_site_label
 _atom_site_symmetry_multiplicity
 _atom_site_fract_x
 _atom_site_fract_y
 _atom_site_fract_z
 _atom_site_fract_occupancy
 Ru  Ru1  1  0.50000  -0.00003  0.33366  1
 Si  Si1  1  0.50000  0.49996  0.83116  1
 Si  Si2  1  0.50000  0.49997  0.16079  1
 Si  Si3  1  0.50000  0.99996  0.67271  1
 U  U1  1  0.00000  0.99997  0.00610  1
 U  U2  1  0.00000  0.49996  0.49556  1
