CIF file written using JARVIS-Tools package.
data_Ge3Sb2O9
_symmetry_space_group_name_H-M  'P6_3/m'
_cell_length_a       7.10673
_cell_length_b       7.10673
_cell_length_c       9.75264
_cell_angle_alpha    90
_cell_angle_beta     90
_cell_angle_gamma    120

_symmetry_Int_Tables_number  176
_chemical_formula_structural  Ge3Sb2O9
_chemical_formula_sum  Ge6Sb4O8
_cell_volume  426.5725257115815
_cell_formula_units_Z  2
loop_
  _symmetry_equiv_pos_site_id
 _symmetry_equiv_pos_as_xyz
 1  'x, y, z'
loop_
 _atom_site_type_symbol
 _atom_site_label
 _atom_site_symmetry_multiplicity
 _atom_site_fract_x
 _atom_site_fract_y
 _atom_site_fract_z
 _atom_site_fract_occupancy
 Ge  Ge1  1  0.21015  0.91850  0.25000  1
 Ge  Ge2  1  0.29165  0.21015  0.75000  1
 Ge  Ge3  1  0.91850  0.70835  0.75000  1
 Ge  Ge4  1  0.08150  0.29165  0.25000  1
 Ge  Ge5  1  0.78985  0.08150  0.75000  1
 Ge  Ge6  1  0.70835  0.78985  0.25000  1
 O  O1  1  0.66009  0.09337  0.90090  1
 O  O2  1  0.56671  0.66009  0.40090  1
 O  O3  1  0.09337  0.43329  0.40090  1
 O  O4  1  0.07376  0.26896  0.75000  1
 O  O5  1  0.43329  0.33991  0.90090  1
 O  O6  1  0.33991  0.90663  0.40090  1
 O  O7  1  0.33991  0.90663  0.09910  1
 O  O8  1  0.90663  0.56671  0.90090  1
 O  O9  1  0.90663  0.56671  0.59910  1
 O  O10  1  0.56671  0.66009  0.09910  1
 O  O11  1  0.92624  0.73104  0.25000  1
 O  O12  1  0.73104  0.80480  0.75000  1
 O  O13  1  0.43329  0.33991  0.59910  1
 O  O14  1  0.80480  0.07376  0.25000  1
 O  O15  1  0.19520  0.92624  0.75000  1
 O  O16  1  0.09337  0.43329  0.09910  1
 O  O17  1  0.66009  0.09337  0.59910  1
 O  O18  1  0.26896  0.19520  0.25000  1
 Sb  Sb1  1  0.33333  0.66667  0.98189  1
 Sb  Sb2  1  0.66667  0.33333  0.48189  1
 Sb  Sb3  1  0.33333  0.66667  0.51811  1
 Sb  Sb4  1  0.66667  0.33333  0.01811  1
