CIF file written using JARVIS-Tools package.
data_TiSi2
_symmetry_space_group_name_H-M  'Cmcm'
_cell_length_a       3.56056
_cell_length_b       3.59461
_cell_length_c       7.10332
_cell_angle_alpha    90
_cell_angle_beta     104.515
_cell_angle_gamma    90

_symmetry_Int_Tables_number  63
_chemical_formula_structural  TiSi2
_chemical_formula_sum  Ti2Si4
_cell_volume  88.01251406834572
_cell_formula_units_Z  2
loop_
  _symmetry_equiv_pos_site_id
 _symmetry_equiv_pos_as_xyz
 1  'x, y, z'
loop_
 _atom_site_type_symbol
 _atom_site_label
 _atom_site_symmetry_multiplicity
 _atom_site_fract_x
 _atom_site_fract_y
 _atom_site_fract_z
 _atom_site_fract_occupancy
 Si  Si1  1  0.55831  0.75000  0.11662  1
 Si  Si2  1  0.44169  0.25000  0.88338  1
 Si  Si3  1  0.24984  0.75000  0.49968  1
 Si  Si4  1  0.75016  0.25000  0.50032  1
 Ti  Ti1  1  0.89595  0.75000  0.79189  1
 Ti  Ti2  1  0.10405  0.25000  0.20811  1
