CIF file written using JARVIS-Tools package.
data_Sn2Ru
_symmetry_space_group_name_H-M  'I4/mcm'
_cell_length_a       5.40774
_cell_length_b       5.40773
_cell_length_c       5.40773
_cell_angle_alpha    106.795
_cell_angle_beta     106.795
_cell_angle_gamma    114.968

_symmetry_Int_Tables_number  140
_chemical_formula_structural  Sn2Ru
_chemical_formula_sum  Sn4Ru2
_cell_volume  120.88887207544305
_cell_formula_units_Z  2
loop_
  _symmetry_equiv_pos_site_id
 _symmetry_equiv_pos_as_xyz
 1  'x, y, z'
loop_
 _atom_site_type_symbol
 _atom_site_label
 _atom_site_symmetry_multiplicity
 _atom_site_fract_x
 _atom_site_fract_y
 _atom_site_fract_z
 _atom_site_fract_occupancy
 Ru  Ru1  1  0.25000  0.25000  -0.00000  1
 Ru  Ru2  1  0.75000  0.75000  -0.00000  1
 Sn  Sn1  1  0.66260  0.16260  0.82521  1
 Sn  Sn2  1  0.16260  0.33740  0.50000  1
 Sn  Sn3  1  0.83740  0.66260  0.50000  1
 Sn  Sn4  1  0.33740  0.83740  0.17479  1
