CIF file written using JARVIS-Tools package.
data_Er2Mo2C3
_symmetry_space_group_name_H-M  'C2/m'
_cell_length_a       3.36786
_cell_length_b       5.65155
_cell_length_c       5.88645
_cell_angle_alpha    107.505
_cell_angle_beta     106.623
_cell_angle_gamma    90

_symmetry_Int_Tables_number  12
_chemical_formula_structural  Er2Mo2C3
_chemical_formula_sum  Er2Mo2C3
_cell_volume  101.9312179565229
_cell_formula_units_Z  1
loop_
  _symmetry_equiv_pos_site_id
 _symmetry_equiv_pos_as_xyz
 1  'x, y, z'
loop_
 _atom_site_type_symbol
 _atom_site_label
 _atom_site_symmetry_multiplicity
 _atom_site_fract_x
 _atom_site_fract_y
 _atom_site_fract_z
 _atom_site_fract_occupancy
 C  C1  1  0.00000  0.50000  0.00000  1
 C  C2  1  0.27033  0.74435  0.54065  1
 C  C3  1  0.72967  0.25565  0.45935  1
 Er  Er1  1  0.61438  0.82001  0.22876  1
 Er  Er2  1  0.38562  0.17999  0.77124  1
 Mo  Mo1  1  0.85101  0.62966  0.70201  1
 Mo  Mo2  1  0.14899  0.37034  0.29799  1
