CIF file written using JARVIS-Tools package.
data_Tm2Ga10Os3
_symmetry_space_group_name_H-M  'P4/mbm'
_cell_length_a       6.3438
_cell_length_b       8.90292
_cell_length_c       8.90292
_cell_angle_alpha    90
_cell_angle_beta     90
_cell_angle_gamma    90

_symmetry_Int_Tables_number  127
_chemical_formula_structural  Tm2Ga10Os3
_chemical_formula_sum  Tm4Ga20Os6
_cell_volume  502.8220096648324
_cell_formula_units_Z  2
loop_
  _symmetry_equiv_pos_site_id
 _symmetry_equiv_pos_as_xyz
 1  'x, y, z'
loop_
 _atom_site_type_symbol
 _atom_site_label
 _atom_site_symmetry_multiplicity
 _atom_site_fract_x
 _atom_site_fract_y
 _atom_site_fract_z
 _atom_site_fract_occupancy
 Ga  Ga1  1  0.70826  0.43853  0.70737  1
 Ga  Ga2  1  0.72117  0.00000  0.50000  1
 Ga  Ga3  1  0.70826  0.56147  0.29263  1
 Ga  Ga4  1  0.27883  0.50000  0.00000  1
 Ga  Ga5  1  0.72117  0.50000  0.00000  1
 Ga  Ga6  1  0.70826  0.79263  0.06147  1
 Ga  Ga7  1  0.29174  0.06147  0.20737  1
 Ga  Ga8  1  0.29174  0.79263  0.06147  1
 Ga  Ga9  1  0.70826  0.20737  0.93853  1
 Ga  Ga10  1  0.29174  0.43853  0.70737  1
 Ga  Ga11  1  0.27883  0.00000  0.50000  1
 Ga  Ga12  1  0.29174  0.70737  0.56147  1
 Ga  Ga13  1  0.70826  0.70737  0.56147  1
 Ga  Ga14  1  0.29174  0.93853  0.79263  1
 Ga  Ga15  1  0.70826  0.29263  0.43853  1
 Ga  Ga16  1  0.70826  0.93853  0.79263  1
 Ga  Ga17  1  0.29174  0.29263  0.43853  1
 Ga  Ga18  1  0.29174  0.56147  0.29263  1
 Ga  Ga19  1  0.29174  0.20737  0.93853  1
 Ga  Ga20  1  0.70826  0.06147  0.20737  1
 Os  Os1  1  0.50000  0.17840  0.67840  1
 Os  Os2  1  0.50000  0.32160  0.17840  1
 Os  Os3  1  0.50000  0.82160  0.32160  1
 Os  Os4  1  0.50000  0.67840  0.82160  1
 Os  Os5  1  0.00000  0.50000  0.50000  1
 Os  Os6  1  0.00000  0.00000  0.00000  1
 Tm  Tm1  1  0.00000  0.81701  0.31701  1
 Tm  Tm2  1  0.00000  0.68299  0.81701  1
 Tm  Tm3  1  0.00000  0.18299  0.68299  1
 Tm  Tm4  1  0.00000  0.31701  0.18299  1
