CIF file written using JARVIS-Tools package.
data_Sr2NiTeO6
_symmetry_space_group_name_H-M  'C2/m'
_cell_length_a       5.4828
_cell_length_b       6.19691
_cell_length_c       6.19706
_cell_angle_alpha    52.5712
_cell_angle_beta     64.7944
_cell_angle_gamma    64.7936

_symmetry_Int_Tables_number  12
_chemical_formula_structural  Sr2NiTeO6
_chemical_formula_sum  Sr2NiTeO6
_cell_volume  147.1368277158533
_cell_formula_units_Z  1
loop_
  _symmetry_equiv_pos_site_id
 _symmetry_equiv_pos_as_xyz
 1  'x, y, z'
loop_
 _atom_site_type_symbol
 _atom_site_label
 _atom_site_symmetry_multiplicity
 _atom_site_fract_x
 _atom_site_fract_y
 _atom_site_fract_z
 _atom_site_fract_occupancy
 Ni  Ni1  1  0.50000  -0.00001  0.00001  1
 O  O1  1  0.26780  0.74632  0.23234  1
 O  O2  1  0.73220  0.25367  0.76767  1
 O  O3  1  0.16661  0.79912  0.79913  1
 O  O4  1  0.73220  0.76766  0.25367  1
 O  O5  1  0.26779  0.23234  0.74633  1
 O  O6  1  0.83340  0.20088  0.20086  1
 Sr  Sr1  1  0.18236  0.30432  0.30432  1
 Sr  Sr2  1  0.81764  0.69569  0.69567  1
 Te  Te1  1  -0.00000  0.00000  -0.00000  1
