CIF file written using JARVIS-Tools package.
data_ZnH4N2O8
_symmetry_space_group_name_H-M  'P2_1/c'
_cell_length_a       5.6005
_cell_length_b       5.98872
_cell_length_c       8.5567
_cell_angle_alpha    90
_cell_angle_beta     89.3293
_cell_angle_gamma    90

_symmetry_Int_Tables_number  14
_chemical_formula_structural  ZnH4N2O8
_chemical_formula_sum  Zn2H8N4O6
_cell_volume  286.97021359676165
_cell_formula_units_Z  2
loop_
  _symmetry_equiv_pos_site_id
 _symmetry_equiv_pos_as_xyz
 1  'x, y, z'
loop_
 _atom_site_type_symbol
 _atom_site_label
 _atom_site_symmetry_multiplicity
 _atom_site_fract_x
 _atom_site_fract_y
 _atom_site_fract_z
 _atom_site_fract_occupancy
 H  H1  1  0.91183  0.22231  0.48087  1
 H  H2  1  0.69693  0.16555  0.89148  1
 H  H3  1  0.30307  0.66555  0.60852  1
 H  H4  1  0.30307  0.83445  0.10852  1
 H  H5  1  0.69693  0.33445  0.39148  1
 H  H6  1  0.91183  0.27769  0.98087  1
 H  H7  1  0.08817  0.77769  0.51913  1
 H  H8  1  0.08817  0.72231  0.01913  1
 N  N1  1  0.24348  0.35458  0.30373  1
 N  N2  1  0.75652  0.85458  0.19627  1
 N  N3  1  0.24348  0.14542  0.80373  1
 N  N4  1  0.75652  0.64542  0.69627  1
 O  O1  1  0.45132  0.10902  0.74495  1
 O  O2  1  0.06028  0.42621  0.24255  1
 O  O3  1  0.93972  0.92621  0.25745  1
 O  O4  1  0.22987  0.26071  0.93112  1
 O  O5  1  0.54868  0.60902  0.75505  1
 O  O6  1  0.26190  0.75450  0.01138  1
 O  O7  1  0.93972  0.57379  0.75745  1
 O  O8  1  0.06028  0.07379  0.74255  1
 O  O9  1  0.73810  0.25450  0.48862  1
 O  O10  1  0.77013  0.76071  0.56888  1
 O  O11  1  0.77013  0.73929  0.06888  1
 O  O12  1  0.22987  0.23929  0.43112  1
 O  O13  1  0.73810  0.24550  0.98862  1
 O  O14  1  0.26190  0.74550  0.51138  1
 O  O15  1  0.54868  0.89098  0.25505  1
 O  O16  1  0.45132  0.39098  0.24495  1
 Zn  Zn1  1  0.50000  0.00000  0.50000  1
 Zn  Zn2  1  0.50000  0.50000  -0.00000  1
