CIF file written using JARVIS-Tools package.
data_ThGe2Ru2
_symmetry_space_group_name_H-M  'I4/mmm'
_cell_length_a       4.30673
_cell_length_b       4.30685
_cell_length_c       5.85416
_cell_angle_alpha    111.579
_cell_angle_beta     111.578
_cell_angle_gamma    90.0012

_symmetry_Int_Tables_number  139
_chemical_formula_structural  ThGe2Ru2
_chemical_formula_sum  ThGe2Ru2
_cell_volume  92.74300449692835
_cell_formula_units_Z  1
loop_
  _symmetry_equiv_pos_site_id
 _symmetry_equiv_pos_as_xyz
 1  'x, y, z'
loop_
 _atom_site_type_symbol
 _atom_site_label
 _atom_site_symmetry_multiplicity
 _atom_site_fract_x
 _atom_site_fract_y
 _atom_site_fract_z
 _atom_site_fract_occupancy
 Ge  Ge1  1  0.37095  0.36991  0.73860  1
 Ge  Ge2  1  0.63216  0.63109  0.26105  1
 Ru  Ru1  1  0.75158  0.25046  0.49981  1
 Ru  Ru2  1  0.25154  0.75054  0.49983  1
 Th  Th1  1  0.00155  0.00050  0.99982  1
