CIF file written using JARVIS-Tools package.
data_Li3Fe4O8
_symmetry_space_group_name_H-M  'P1'
_cell_length_a       5.11082
_cell_length_b       5.41899
_cell_length_c       6.43588
_cell_angle_alpha    90.2599
_cell_angle_beta     90.1309
_cell_angle_gamma    89.307

_symmetry_Int_Tables_number  1
_chemical_formula_structural  Li3Fe4O8
_chemical_formula_sum  Li3Fe4O8
_cell_volume  178.22956842609054
_cell_formula_units_Z  1
loop_
  _symmetry_equiv_pos_site_id
 _symmetry_equiv_pos_as_xyz
 1  'x, y, z'
loop_
 _atom_site_type_symbol
 _atom_site_label
 _atom_site_symmetry_multiplicity
 _atom_site_fract_x
 _atom_site_fract_y
 _atom_site_fract_z
 _atom_site_fract_occupancy
 Fe  Fe1  1  0.00346  0.08106  0.12793  1
 Fe  Fe2  1  0.50221  0.41538  0.62362  1
 Fe  Fe3  1  0.99676  0.58523  0.37262  1
 Fe  Fe4  1  0.50496  0.91600  0.87216  1
 Li  Li1  1  0.49803  0.41557  0.12277  1
 Li  Li2  1  -0.00141  0.58185  0.87833  1
 Li  Li3  1  0.49975  0.91647  0.37390  1
 O  O1  1  0.36682  0.06729  0.10765  1
 O  O2  1  0.41847  0.09007  0.63104  1
 O  O3  1  0.89115  0.40652  0.14026  1
 O  O4  1  0.85332  0.46878  0.62119  1
 O  O5  1  0.37184  0.56647  0.38331  1
 O  O6  1  0.38509  0.58562  0.86518  1
 O  O7  1  0.88788  0.90121  0.34468  1
 O  O8  1  0.85314  0.92047  0.90941  1
