CIF file written using JARVIS-Tools package.
data_BaP2Ru2
_symmetry_space_group_name_H-M  'I4/mmm'
_cell_length_a       4.06797
_cell_length_b       4.06797
_cell_length_c       6.74319
_cell_angle_alpha    107.556
_cell_angle_beta     107.556
_cell_angle_gamma    90.0001

_symmetry_Int_Tables_number  139
_chemical_formula_structural  BaP2Ru2
_chemical_formula_sum  BaP2Ru2
_cell_volume  100.92676954550477
_cell_formula_units_Z  1
loop_
  _symmetry_equiv_pos_site_id
 _symmetry_equiv_pos_as_xyz
 1  'x, y, z'
loop_
 _atom_site_type_symbol
 _atom_site_label
 _atom_site_symmetry_multiplicity
 _atom_site_fract_x
 _atom_site_fract_y
 _atom_site_fract_z
 _atom_site_fract_occupancy
 Ba  Ba1  1  0.00000  0.00000  0.00000  1
 P  P1  1  0.65561  0.65561  0.31122  1
 P  P2  1  0.34439  0.34439  0.68878  1
 Ru  Ru1  1  0.25000  0.75000  0.50000  1
 Ru  Ru2  1  0.75000  0.25000  0.50000  1
