CIF file written using JARVIS-Tools package.
data_Fe6O7F5
_symmetry_space_group_name_H-M  'P1'
_cell_length_a       5.48155
_cell_length_b       5.47698
_cell_length_c       7.37805
_cell_angle_alpha    69.1067
_cell_angle_beta     68.985
_cell_angle_gamma    70.5405

_symmetry_Int_Tables_number  1
_chemical_formula_structural  Fe6O7F5
_chemical_formula_sum  Fe6O7F5
_cell_volume  187.75091370514514
_cell_formula_units_Z  1
loop_
  _symmetry_equiv_pos_site_id
 _symmetry_equiv_pos_as_xyz
 1  'x, y, z'
loop_
 _atom_site_type_symbol
 _atom_site_label
 _atom_site_symmetry_multiplicity
 _atom_site_fract_x
 _atom_site_fract_y
 _atom_site_fract_z
 _atom_site_fract_occupancy
 F  F1  1  0.90214  0.89329  0.30253  1
 F  F2  1  0.11248  0.10577  0.69647  1
 F  F3  1  0.03664  0.63468  0.66757  1
 F  F4  1  0.42033  0.43009  0.37227  1
 F  F5  1  0.76400  0.76361  0.03029  1
 Fe  Fe1  1  0.31708  0.32629  0.14512  1
 Fe  Fe2  1  0.00562  0.01789  0.49374  1
 Fe  Fe3  1  0.64467  0.65980  0.83213  1
 Fe  Fe4  1  0.37297  0.32285  0.68059  1
 Fe  Fe5  1  0.65057  0.66401  0.34567  1
 Fe  Fe6  1  -0.00038  0.01550  0.00115  1
 O  O1  1  0.68243  0.30758  0.00197  1
 O  O2  1  0.30322  0.69230  -0.00113  1
 O  O3  1  0.57526  0.57313  0.63911  1
 O  O4  1  0.23058  0.23620  0.96594  1
 O  O5  1  0.35644  0.97771  0.33018  1
 O  O6  1  0.65683  0.01601  0.66818  1
 O  O7  1  0.96911  0.36329  0.32821  1
