CIF file written using JARVIS-Tools package.
data_Eu2PBr
_symmetry_space_group_name_H-M  'R-3m'
_cell_length_a       7.42754
_cell_length_b       7.42753
_cell_length_c       7.42753
_cell_angle_alpha    31.9743
_cell_angle_beta     31.9744
_cell_angle_gamma    31.9744

_symmetry_Int_Tables_number  166
_chemical_formula_structural  Eu2PBr
_chemical_formula_sum  Eu2PBr
_cell_volume  102.08661307008097
_cell_formula_units_Z  1
loop_
  _symmetry_equiv_pos_site_id
 _symmetry_equiv_pos_as_xyz
 1  'x, y, z'
loop_
 _atom_site_type_symbol
 _atom_site_label
 _atom_site_symmetry_multiplicity
 _atom_site_fract_x
 _atom_site_fract_y
 _atom_site_fract_z
 _atom_site_fract_occupancy
 Br  Br1  1  0.00000  0.00000  0.00000  1
 Eu  Eu1  1  0.76607  0.76607  0.76607  1
 Eu  Eu2  1  0.23393  0.23393  0.23393  1
 P  P1  1  0.50000  0.50000  0.50000  1
