CIF file written using JARVIS-Tools package.
data_Tm2Si2O7
_symmetry_space_group_name_H-M  'P-1'
_cell_length_a       6.57725
_cell_length_b       6.5938
_cell_length_c       11.9626
_cell_angle_alpha    94.4597
_cell_angle_beta     91.5602
_cell_angle_gamma    92.3157

_symmetry_Int_Tables_number  2
_chemical_formula_structural  Tm2Si2O7
_chemical_formula_sum  Tm8Si8O28
_cell_volume  516.5721285144845
_cell_formula_units_Z  4
loop_
  _symmetry_equiv_pos_site_id
 _symmetry_equiv_pos_as_xyz
 1  'x, y, z'
loop_
 _atom_site_type_symbol
 _atom_site_label
 _atom_site_symmetry_multiplicity
 _atom_site_fract_x
 _atom_site_fract_y
 _atom_site_fract_z
 _atom_site_fract_occupancy
 O  O1  1  0.90154  0.05756  0.69432  1
 O  O2  1  0.49785  0.51685  0.18625  1
 O  O3  1  0.50253  0.83535  0.91769  1
 O  O4  1  0.49747  0.16465  0.08231  1
 O  O5  1  0.85661  0.70877  0.81621  1
 O  O6  1  0.14339  0.29123  0.18379  1
 O  O7  1  0.72825  0.58273  0.00880  1
 O  O8  1  0.27175  0.41727  0.99120  1
 O  O9  1  0.56943  0.91181  0.30675  1
 O  O10  1  0.88588  0.63608  0.21532  1
 O  O11  1  0.79937  0.20590  0.90846  1
 O  O12  1  0.54217  0.72552  0.58025  1
 O  O13  1  0.78714  0.28460  0.31108  1
 O  O14  1  0.21286  0.71540  0.68892  1
 O  O15  1  0.78121  0.06918  0.48748  1
 O  O16  1  0.21879  0.93082  0.51252  1
 O  O17  1  0.15135  0.01175  0.87679  1
 O  O18  1  0.84865  0.98825  0.12321  1
 O  O19  1  0.11412  0.36392  0.78468  1
 O  O20  1  0.43057  0.08819  0.69325  1
 O  O21  1  0.50215  0.48315  0.81375  1
 O  O22  1  0.20063  0.79410  0.09154  1
 O  O23  1  0.09846  0.94244  0.30568  1
 O  O24  1  0.08784  0.32676  0.55080  1
 O  O25  1  0.91216  0.67324  0.44920  1
 O  O26  1  0.72578  0.40054  0.62420  1
 O  O27  1  0.27422  0.59946  0.37580  1
 O  O28  1  0.45783  0.27448  0.41975  1
 Si  Si1  1  0.63966  0.12473  0.37717  1
 Si  Si2  1  0.12155  0.77994  0.40541  1
 Si  Si3  1  0.36034  0.87527  0.62283  1
 Si  Si4  1  0.87845  0.22006  0.59459  1
 Si  Si5  1  0.65889  0.64780  0.88578  1
 Si  Si6  1  0.34111  0.35220  0.11422  1
 Si  Si7  1  0.01122  0.83646  0.17351  1
 Si  Si8  1  0.98878  0.16354  0.82649  1
 Tm  Tm1  1  0.12864  0.29082  0.36507  1
 Tm  Tm2  1  0.38344  0.40843  0.64309  1
 Tm  Tm3  1  0.61656  0.59157  0.35691  1
 Tm  Tm4  1  0.54564  0.82776  0.11418  1
 Tm  Tm5  1  0.87136  0.70918  0.63493  1
 Tm  Tm6  1  0.17952  0.67283  0.88801  1
 Tm  Tm7  1  0.82048  0.32717  0.11199  1
 Tm  Tm8  1  0.45436  0.17224  0.88582  1
