CIF file written using JARVIS-Tools package.
data_Pr3Ga10Ni
_symmetry_space_group_name_H-M  'Pmmm'
_cell_length_a       4.2977
_cell_length_b       4.29486
_cell_length_c       15.283
_cell_angle_alpha    90
_cell_angle_beta     90
_cell_angle_gamma    90

_symmetry_Int_Tables_number  47
_chemical_formula_structural  Pr3Ga10Ni
_chemical_formula_sum  Pr3Ga0Ni
_cell_volume  282.09475606419505
_cell_formula_units_Z  1
loop_
  _symmetry_equiv_pos_site_id
 _symmetry_equiv_pos_as_xyz
 1  'x, y, z'
loop_
 _atom_site_type_symbol
 _atom_site_label
 _atom_site_symmetry_multiplicity
 _atom_site_fract_x
 _atom_site_fract_y
 _atom_site_fract_z
 _atom_site_fract_occupancy
 Ga  Ga1  1  0.50000  0.50000  0.18329  1
 Ga  Ga2  1  0.50000  0.50000  0.81671  1
 Ga  Ga3  1  0.50000  0.50000  0.34236  1
 Ga  Ga4  1  0.50000  0.50000  0.65764  1
 Ga  Ga5  1  0.00000  0.50000  0.41925  1
 Ga  Ga6  1  0.00000  0.50000  0.58075  1
 Ga  Ga7  1  0.00000  0.50000  0.08484  1
 Ga  Ga8  1  0.00000  0.50000  0.91516  1
 Ga  Ga9  1  0.50000  0.00000  0.08449  1
 Ga  Ga10  1  0.50000  0.00000  0.91551  1
 Ni  Ni1  1  0.00000  0.00000  0.00000  1
 Pr  Pr1  1  0.50000  0.00000  0.50000  1
 Pr  Pr2  1  0.00000  0.00000  0.24856  1
 Pr  Pr3  1  0.00000  0.00000  0.75144  1
