CIF file written using JARVIS-Tools package.
data_RbMg6V
_symmetry_space_group_name_H-M  'P4/mmm'
_cell_length_a       7.87145
_cell_length_b       11.1324
_cell_length_c       3.38184
_cell_angle_alpha    90
_cell_angle_beta     90
_cell_angle_gamma    135.002

_symmetry_Int_Tables_number  123
_chemical_formula_structural  RbMg6V
_chemical_formula_sum  RbMg6V
_cell_volume  209.53780844923105
_cell_formula_units_Z  1
loop_
  _symmetry_equiv_pos_site_id
 _symmetry_equiv_pos_as_xyz
 1  'x, y, z'
loop_
 _atom_site_type_symbol
 _atom_site_label
 _atom_site_symmetry_multiplicity
 _atom_site_fract_x
 _atom_site_fract_y
 _atom_site_fract_z
 _atom_site_fract_occupancy
 Mg  Mg1  1  0.74998  0.37500  0.25000  1
 Mg  Mg2  1  0.74998  0.87498  0.25000  1
 Mg  Mg3  1  0.24995  0.16911  0.75000  1
 Mg  Mg4  1  0.24995  0.58084  0.75000  1
 Mg  Mg5  1  0.83832  0.16916  0.75000  1
 Mg  Mg6  1  0.66176  0.58088  0.75000  1
 Rb  Rb1  1  0.25005  0.87502  0.25000  1
 V  V1  1  0.25001  0.37501  0.25000  1
