CIF file written using JARVIS-Tools package.
data_Mg6GaMo
_symmetry_space_group_name_H-M  'Amm2'
_cell_length_a       6.12336
_cell_length_b       6.12337
_cell_length_c       4.80747
_cell_angle_alpha    90
_cell_angle_beta     90
_cell_angle_gamma    119.664

_symmetry_Int_Tables_number  38
_chemical_formula_structural  Mg6GaMo
_chemical_formula_sum  Mg6GaMo
_cell_volume  156.63431035667898
_cell_formula_units_Z  1
loop_
  _symmetry_equiv_pos_site_id
 _symmetry_equiv_pos_as_xyz
 1  'x, y, z'
loop_
 _atom_site_type_symbol
 _atom_site_label
 _atom_site_symmetry_multiplicity
 _atom_site_fract_x
 _atom_site_fract_y
 _atom_site_fract_z
 _atom_site_fract_occupancy
 Ga  Ga1  1  0.31288  0.18712  0.75000  1
 Mg  Mg1  1  0.17166  0.83564  0.25000  1
 Mg  Mg2  1  0.66436  0.32834  0.25000  1
 Mg  Mg3  1  0.66772  0.83228  0.25000  1
 Mg  Mg4  1  0.32767  0.65053  0.75000  1
 Mg  Mg5  1  0.84947  0.17233  0.75000  1
 Mg  Mg6  1  0.83418  0.66582  0.75000  1
 Mo  Mo1  1  0.17206  0.32794  0.25000  1
