CIF file written using JARVIS-Tools package.
data_HPbI3
_symmetry_space_group_name_H-M  'P1'
_cell_length_a       4.31472
_cell_length_b       6.32271
_cell_length_c       9.11202
_cell_angle_alpha    77.0976
_cell_angle_beta     88.4312
_cell_angle_gamma    48.1027

_symmetry_Int_Tables_number  1
_chemical_formula_structural  HPbI3
_chemical_formula_sum  HPbI3
_cell_volume  177.80243777183514
_cell_formula_units_Z  1
loop_
  _symmetry_equiv_pos_site_id
 _symmetry_equiv_pos_as_xyz
 1  'x, y, z'
loop_
 _atom_site_type_symbol
 _atom_site_label
 _atom_site_symmetry_multiplicity
 _atom_site_fract_x
 _atom_site_fract_y
 _atom_site_fract_z
 _atom_site_fract_occupancy
 H  H1  1  0.23619  -0.06707  -0.06015  1
 I  I1  1  0.08963  0.35938  0.72334  1
 I  I2  1  0.25578  0.66848  0.03708  1
 I  I3  1  0.40738  0.05891  0.33033  1
 Pb  Pb1  1  0.49106  0.48703  0.46016  1
