CIF file written using JARVIS-Tools package.
data_Li2MoO3
_symmetry_space_group_name_H-M  'P-1'
_cell_length_a       4.96929
_cell_length_b       5.23022
_cell_length_c       4.96628
_cell_angle_alpha    71.23
_cell_angle_beta     62.6733
_cell_angle_gamma    82.1005

_symmetry_Int_Tables_number  2
_chemical_formula_structural  Li2MoO3
_chemical_formula_sum  Li4Mo2O6
_cell_volume  108.56457799832157
_cell_formula_units_Z  2
loop_
  _symmetry_equiv_pos_site_id
 _symmetry_equiv_pos_as_xyz
 1  'x, y, z'
loop_
 _atom_site_type_symbol
 _atom_site_label
 _atom_site_symmetry_multiplicity
 _atom_site_fract_x
 _atom_site_fract_y
 _atom_site_fract_z
 _atom_site_fract_occupancy
 Li  Li1  1  0.97288  0.98675  0.02631  1
 Li  Li2  1  0.36038  0.01325  0.30705  1
 Li  Li3  1  0.66667  0.00001  0.66666  1
 Li  Li4  1  0.66667  0.50000  0.16666  1
 Mo  Mo1  1  0.02566  0.49782  0.52340  1
 Mo  Mo2  1  0.30769  0.50218  0.80993  1
 O  O1  1  0.31209  0.72805  0.10160  1
 O  O2  1  0.02126  0.27195  0.23173  1
 O  O3  1  0.66062  0.72604  0.44140  1
 O  O4  1  0.34361  0.23359  0.57914  1
 O  O5  1  -0.01026  0.76641  0.75418  1
 O  O6  1  0.67272  0.27395  0.89193  1
