CIF file written using JARVIS-Tools package.
data_Pr2AlNi2
_symmetry_space_group_name_H-M  'Immm'
_cell_length_a       4.21817
_cell_length_b       5.61089
_cell_length_c       5.61089
_cell_angle_alpha    59.4625
_cell_angle_beta     67.9205
_cell_angle_gamma    67.9205

_symmetry_Int_Tables_number  71
_chemical_formula_structural  Pr2AlNi2
_chemical_formula_sum  Pr2AlNi2
_cell_volume  103.10579721764915
_cell_formula_units_Z  1
loop_
  _symmetry_equiv_pos_site_id
 _symmetry_equiv_pos_as_xyz
 1  'x, y, z'
loop_
 _atom_site_type_symbol
 _atom_site_label
 _atom_site_symmetry_multiplicity
 _atom_site_fract_x
 _atom_site_fract_y
 _atom_site_fract_z
 _atom_site_fract_occupancy
 Al  Al1  1  0.00000  0.00000  0.00000  1
 Ni  Ni1  1  0.50000  0.26245  0.73755  1
 Ni  Ni2  1  0.50000  0.73755  0.26245  1
 Pr  Pr1  1  0.20125  0.29875  0.29875  1
 Pr  Pr2  1  0.79875  0.70125  0.70125  1
