CIF file written using JARVIS-Tools package.
data_BeMoRu2
_symmetry_space_group_name_H-M  'P4mm'
_cell_length_a       2.74092
_cell_length_b       2.74092
_cell_length_c       6.87023
_cell_angle_alpha    90
_cell_angle_beta     90
_cell_angle_gamma    90

_symmetry_Int_Tables_number  99
_chemical_formula_structural  BeMoRu2
_chemical_formula_sum  BeMoRu2
_cell_volume  51.61341363342895
_cell_formula_units_Z  1
loop_
  _symmetry_equiv_pos_site_id
 _symmetry_equiv_pos_as_xyz
 1  'x, y, z'
loop_
 _atom_site_type_symbol
 _atom_site_label
 _atom_site_symmetry_multiplicity
 _atom_site_fract_x
 _atom_site_fract_y
 _atom_site_fract_z
 _atom_site_fract_occupancy
 Be  Be1  1  0.00000  0.00000  0.47967  1
 Mo  Mo1  1  0.50000  0.50000  0.72029  1
 Ru  Ru1  1  0.00000  0.00000  0.01915  1
 Ru  Ru2  1  0.50000  0.50000  0.28089  1
