CIF file written using JARVIS-Tools package.
data_TbTaO4
_symmetry_space_group_name_H-M  'P2_1/c'
_cell_length_a       7.5456
_cell_length_b       5.35666
_cell_length_c       7.60622
_cell_angle_alpha    90
_cell_angle_beta     98.2216
_cell_angle_gamma    90

_symmetry_Int_Tables_number  14
_chemical_formula_structural  TbTaO4
_chemical_formula_sum  Tb4Ta4O6
_cell_volume  304.2778112086389
_cell_formula_units_Z  4
loop_
  _symmetry_equiv_pos_site_id
 _symmetry_equiv_pos_as_xyz
 1  'x, y, z'
loop_
 _atom_site_type_symbol
 _atom_site_label
 _atom_site_symmetry_multiplicity
 _atom_site_fract_x
 _atom_site_fract_y
 _atom_site_fract_z
 _atom_site_fract_occupancy
 O  O1  1  0.61118  0.00996  0.16935  1
 O  O2  1  0.06707  0.09885  0.68951  1
 O  O3  1  0.06707  0.40115  0.18951  1
 O  O4  1  0.16752  0.62871  0.56338  1
 O  O5  1  0.93293  0.59885  0.81049  1
 O  O6  1  0.32849  0.50170  0.87947  1
 O  O7  1  0.38882  0.99004  0.83065  1
 O  O8  1  0.16752  0.87129  0.06338  1
 O  O9  1  0.38882  0.50996  0.33065  1
 O  O10  1  0.61118  0.49004  0.66935  1
 O  O11  1  0.67151  0.00170  0.62053  1
 O  O12  1  0.93293  0.90115  0.31049  1
 O  O13  1  0.67151  0.49830  0.12053  1
 O  O14  1  0.83248  0.12871  0.93662  1
 O  O15  1  0.83248  0.37129  0.43662  1
 O  O16  1  0.32849  0.99830  0.37947  1
 Ta  Ta1  1  0.83575  0.22836  0.18680  1
 Ta  Ta2  1  0.83575  0.27164  0.68680  1
 Ta  Ta3  1  0.16425  0.72836  0.31320  1
 Ta  Ta4  1  0.16425  0.77164  0.81320  1
 Tb  Tb1  1  0.64602  0.72221  0.39155  1
 Tb  Tb2  1  0.64602  0.77779  0.89155  1
 Tb  Tb3  1  0.35398  0.22221  0.10845  1
 Tb  Tb4  1  0.35398  0.27779  0.60845  1
