CIF file written using JARVIS-Tools package.
data_BeSiW2
_symmetry_space_group_name_H-M  'P4mm'
_cell_length_a       3.18658
_cell_length_b       3.18658
_cell_length_c       5.43094
_cell_angle_alpha    90
_cell_angle_beta     90
_cell_angle_gamma    90

_symmetry_Int_Tables_number  99
_chemical_formula_structural  BeSiW2
_chemical_formula_sum  BeSiW2
_cell_volume  55.147377970454606
_cell_formula_units_Z  1
loop_
  _symmetry_equiv_pos_site_id
 _symmetry_equiv_pos_as_xyz
 1  'x, y, z'
loop_
 _atom_site_type_symbol
 _atom_site_label
 _atom_site_symmetry_multiplicity
 _atom_site_fract_x
 _atom_site_fract_y
 _atom_site_fract_z
 _atom_site_fract_occupancy
 Be  Be1  1  0.00000  0.00000  0.50156  1
 Si  Si1  1  0.50000  0.50000  0.73202  1
 W  W1  1  0.00000  0.00000  0.00277  1
 W  W2  1  0.50000  0.50000  0.26365  1
