CIF file written using JARVIS-Tools package.
data_P2O5
_symmetry_space_group_name_H-M  'Pnma'
_cell_length_a       4.93758
_cell_length_b       7.19565
_cell_length_c       9.21741
_cell_angle_alpha    90
_cell_angle_beta     90
_cell_angle_gamma    90

_symmetry_Int_Tables_number  62
_chemical_formula_structural  P2O5
_chemical_formula_sum  P8O20
_cell_volume  327.4865394305342
_cell_formula_units_Z  4
loop_
  _symmetry_equiv_pos_site_id
 _symmetry_equiv_pos_as_xyz
 1  'x, y, z'
loop_
 _atom_site_type_symbol
 _atom_site_label
 _atom_site_symmetry_multiplicity
 _atom_site_fract_x
 _atom_site_fract_y
 _atom_site_fract_z
 _atom_site_fract_occupancy
 O  O1  1  0.00132  0.28702  0.86638  1
 O  O2  1  0.25000  0.48958  0.27687  1
 O  O3  1  0.75000  0.51042  0.72313  1
 O  O4  1  0.75000  -0.01042  0.22313  1
 O  O5  1  0.25000  0.01042  0.77687  1
 O  O6  1  0.25000  0.83863  0.35984  1
 O  O7  1  0.99868  0.78702  0.63362  1
 O  O8  1  0.75000  0.33863  0.14016  1
 O  O9  1  0.25000  0.66137  0.85984  1
 O  O10  1  0.75000  0.16137  0.64016  1
 O  O11  1  0.75000  0.59042  0.44544  1
 O  O12  1  0.00132  0.21298  0.36638  1
 O  O13  1  0.75000  0.90958  0.94544  1
 O  O14  1  0.49868  0.21298  0.36638  1
 O  O15  1  0.50132  0.78702  0.63362  1
 O  O16  1  0.50132  0.71298  0.13362  1
 O  O17  1  0.49868  0.28702  0.86638  1
 O  O18  1  0.99868  0.71298  0.13362  1
 O  O19  1  0.25000  0.09042  0.05456  1
 O  O20  1  0.25000  0.40958  0.55456  1
 P  P1  1  0.25000  0.15759  0.90464  1
 P  P2  1  0.75000  0.84241  0.09536  1
 P  P3  1  0.75000  0.65759  0.59536  1
 P  P4  1  0.25000  0.34241  0.40464  1
 P  P5  1  0.25000  0.79436  0.74134  1
 P  P6  1  0.75000  0.20564  0.25866  1
 P  P7  1  0.75000  0.29436  0.75866  1
 P  P8  1  0.25000  0.70564  0.24134  1
