CIF file written using JARVIS-Tools package.
data_BeVFe2
_symmetry_space_group_name_H-M  'I-4m2'
_cell_length_a       4.55014
_cell_length_b       4.55014
_cell_length_c       4.55014
_cell_angle_alpha    137.572
_cell_angle_beta     137.572
_cell_angle_gamma    61.5591

_symmetry_Int_Tables_number  119
_chemical_formula_structural  BeVFe2
_chemical_formula_sum  BeVFe2
_cell_volume  42.389803276463226
_cell_formula_units_Z  1
loop_
  _symmetry_equiv_pos_site_id
 _symmetry_equiv_pos_as_xyz
 1  'x, y, z'
loop_
 _atom_site_type_symbol
 _atom_site_label
 _atom_site_symmetry_multiplicity
 _atom_site_fract_x
 _atom_site_fract_y
 _atom_site_fract_z
 _atom_site_fract_occupancy
 Be  Be1  1  0.75000  0.25000  0.50000  1
 Fe  Fe1  1  0.00000  0.00000  0.00000  1
 Fe  Fe2  1  0.25000  0.75000  0.50000  1
 V  V1  1  0.50000  0.50000  0.00000  1
