CIF file written using JARVIS-Tools package.
data_Ag2F5
_symmetry_space_group_name_H-M  'P-1'
_cell_length_a       4.91137
_cell_length_b       7.48505
_cell_length_c       11.1685
_cell_angle_alpha    88.7229
_cell_angle_beta     90.8773
_cell_angle_gamma    106.209

_symmetry_Int_Tables_number  2
_chemical_formula_structural  Ag2F5
_chemical_formula_sum  Ag8F20
_cell_volume  394.14026304078527
_cell_formula_units_Z  4
loop_
  _symmetry_equiv_pos_site_id
 _symmetry_equiv_pos_as_xyz
 1  'x, y, z'
loop_
 _atom_site_type_symbol
 _atom_site_label
 _atom_site_symmetry_multiplicity
 _atom_site_fract_x
 _atom_site_fract_y
 _atom_site_fract_z
 _atom_site_fract_occupancy
 Ag  Ag1  1  0.50000  0.50000  -0.00000  1
 Ag  Ag2  1  0.50000  -0.00000  0.50000  1
 Ag  Ag3  1  0.05728  0.72292  0.24955  1
 Ag  Ag4  1  0.94272  0.27708  0.75045  1
 Ag  Ag5  1  0.50000  -0.00000  -0.00000  1
 Ag  Ag6  1  0.50000  0.50000  0.50000  1
 Ag  Ag7  1  0.05399  0.21154  0.23331  1
 Ag  Ag8  1  0.94601  0.78846  0.76669  1
 F  F1  1  0.93890  0.97598  0.14594  1
 F  F2  1  0.99477  0.06973  0.38247  1
 F  F3  1  0.48319  0.83795  0.86340  1
 F  F4  1  0.41600  0.73378  0.57102  1
 F  F5  1  0.66916  0.23240  0.90546  1
 F  F6  1  0.58400  0.26622  0.42898  1
 F  F7  1  0.06110  0.02402  0.85406  1
 F  F8  1  0.33084  0.76760  0.09454  1
 F  F9  1  0.51681  0.16205  0.13660  1
 F  F10  1  0.17654  0.44863  0.31789  1
 F  F11  1  0.71541  0.55664  0.15885  1
 F  F12  1  0.82235  0.66552  0.40718  1
 F  F13  1  0.58739  0.11929  0.66177  1
 F  F14  1  0.28459  0.44336  0.84115  1
 F  F15  1  0.82346  0.55137  0.68211  1
 F  F16  1  0.10987  0.35615  0.07958  1
 F  F17  1  0.89013  0.64385  0.92042  1
 F  F18  1  0.17765  0.33448  0.59282  1
 F  F19  1  0.41261  0.88071  0.33823  1
 F  F20  1  0.00523  0.93027  0.61753  1
