CIF file written using JARVIS-Tools package.
data_CeMg6Cd
_symmetry_space_group_name_H-M  'Amm2'
_cell_length_a       6.89184
_cell_length_b       6.89183
_cell_length_c       5.02736
_cell_angle_alpha    90
_cell_angle_beta     90
_cell_angle_gamma    125.121

_symmetry_Int_Tables_number  38
_chemical_formula_structural  CeMg6Cd
_chemical_formula_sum  CeMg6Cd
_cell_volume  195.31379842446643
_cell_formula_units_Z  1
loop_
  _symmetry_equiv_pos_site_id
 _symmetry_equiv_pos_as_xyz
 1  'x, y, z'
loop_
 _atom_site_type_symbol
 _atom_site_label
 _atom_site_symmetry_multiplicity
 _atom_site_fract_x
 _atom_site_fract_y
 _atom_site_fract_z
 _atom_site_fract_occupancy
 Cd  Cd1  1  0.35155  0.14845  0.75000  1
 Ce  Ce1  1  0.19055  0.30945  0.25000  1
 Mg  Mg1  1  0.17219  0.81252  0.25000  1
 Mg  Mg2  1  0.68748  0.32781  0.25000  1
 Mg  Mg3  1  0.65069  0.84931  0.25000  1
 Mg  Mg4  1  0.31544  0.67217  0.75000  1
 Mg  Mg5  1  0.82783  0.18456  0.75000  1
 Mg  Mg6  1  0.80427  0.69573  0.75000  1
