CIF file written using JARVIS-Tools package.
data_LiBi3I2O4
_symmetry_space_group_name_H-M  'Amm2'
_cell_length_a       7.23222
_cell_length_b       7.23223
_cell_length_c       5.63174
_cell_angle_alpha    90
_cell_angle_beta     90
_cell_angle_gamma    134.118

_symmetry_Int_Tables_number  38
_chemical_formula_structural  LiBi3I2O4
_chemical_formula_sum  LiBi3I2O4
_cell_volume  211.47328416803066
_cell_formula_units_Z  1
loop_
  _symmetry_equiv_pos_site_id
 _symmetry_equiv_pos_as_xyz
 1  'x, y, z'
loop_
 _atom_site_type_symbol
 _atom_site_label
 _atom_site_symmetry_multiplicity
 _atom_site_fract_x
 _atom_site_fract_y
 _atom_site_fract_z
 _atom_site_fract_occupancy
 Bi  Bi1  1  0.83996  0.16004  0.00000  1
 Bi  Bi2  1  0.16996  0.83004  0.00000  1
 Bi  Bi3  1  0.66747  0.33253  0.50000  1
 I  I1  1  0.00875  0.99125  0.50000  1
 I  I2  1  0.50219  0.49781  0.00000  1
 Li  Li1  1  0.29668  0.70332  0.50000  1
 O  O1  1  0.50602  -0.00147  0.75157  1
 O  O2  1  0.00147  0.49398  0.24843  1
 O  O3  1  0.00147  0.49398  0.75157  1
 O  O4  1  0.50602  -0.00147  0.24843  1
