CIF file written using JARVIS-Tools package.
data_UTe3
_symmetry_space_group_name_H-M  'Cmcm'
_cell_length_a       4.34115
_cell_length_b       4.50015
_cell_length_c       12.7295
_cell_angle_alpha    90
_cell_angle_beta     99.8177
_cell_angle_gamma    90

_symmetry_Int_Tables_number  63
_chemical_formula_structural  UTe3
_chemical_formula_sum  U2Te6
_cell_volume  245.03888701866643
_cell_formula_units_Z  2
loop_
  _symmetry_equiv_pos_site_id
 _symmetry_equiv_pos_as_xyz
 1  'x, y, z'
loop_
 _atom_site_type_symbol
 _atom_site_label
 _atom_site_symmetry_multiplicity
 _atom_site_fract_x
 _atom_site_fract_y
 _atom_site_fract_z
 _atom_site_fract_occupancy
 Te  Te1  1  0.70442  0.75000  0.40884  1
 Te  Te2  1  0.29558  0.25000  0.59116  1
 Te  Te3  1  0.92611  0.25000  0.85221  1
 Te  Te4  1  0.07389  0.75000  0.14779  1
 Te  Te5  1  0.57353  0.25000  0.14706  1
 Te  Te6  1  0.42647  0.75000  0.85294  1
 U  U1  1  0.83319  0.75000  0.66638  1
 U  U2  1  0.16681  0.25000  0.33362  1
