CIF file written using JARVIS-Tools package.
data_NaMg2Tl
_symmetry_space_group_name_H-M  'Immm'
_cell_length_a       12.7507
_cell_length_b       7.11281
_cell_length_c       7.11454
_cell_angle_alpha    26.7255
_cell_angle_beta     26.3319
_cell_angle_gamma    26.3389

_symmetry_Int_Tables_number  71
_chemical_formula_structural  NaMg2Tl
_chemical_formula_sum  NaMg2Tl
_cell_volume  112.93813728312949
_cell_formula_units_Z  1
loop_
  _symmetry_equiv_pos_site_id
 _symmetry_equiv_pos_as_xyz
 1  'x, y, z'
loop_
 _atom_site_type_symbol
 _atom_site_label
 _atom_site_symmetry_multiplicity
 _atom_site_fract_x
 _atom_site_fract_y
 _atom_site_fract_z
 _atom_site_fract_occupancy
 Mg  Mg1  1  0.72998  -0.00004  0.00004  1
 Mg  Mg2  1  0.27002  0.00004  -0.00004  1
 Na  Na1  1  0.00000  0.00000  0.00000  1
 Tl  Tl1  1  0.50000  0.00000  -0.00000  1
