CIF file written using JARVIS-Tools package.
data_SrMg6Al
_symmetry_space_group_name_H-M  'Amm2'
_cell_length_a       6.57128
_cell_length_b       6.57128
_cell_length_c       4.90429
_cell_angle_alpha    90
_cell_angle_beta     90
_cell_angle_gamma    105.782

_symmetry_Int_Tables_number  38
_chemical_formula_structural  SrMg6Al
_chemical_formula_sum  SrMg6Al
_cell_volume  203.79197081285974
_cell_formula_units_Z  1
loop_
  _symmetry_equiv_pos_site_id
 _symmetry_equiv_pos_as_xyz
 1  'x, y, z'
loop_
 _atom_site_type_symbol
 _atom_site_label
 _atom_site_symmetry_multiplicity
 _atom_site_fract_x
 _atom_site_fract_y
 _atom_site_fract_z
 _atom_site_fract_occupancy
 Al  Al1  1  0.17684  0.32316  0.25000  1
 Mg  Mg1  1  0.10137  0.79983  0.25000  1
 Mg  Mg2  1  0.70017  0.39863  0.25000  1
 Mg  Mg3  1  0.62606  0.87394  0.25000  1
 Mg  Mg4  1  0.29507  0.59338  0.75000  1
 Mg  Mg5  1  0.90662  0.20493  0.75000  1
 Mg  Mg6  1  0.80928  0.69072  0.75000  1
 Sr  Sr1  1  0.38458  0.11542  0.75000  1
