CIF file written using JARVIS-Tools package.
data_SrMg
_symmetry_space_group_name_H-M  'C2/m'
_cell_length_a       12.9862
_cell_length_b       3.94125
_cell_length_c       6.06891
_cell_angle_alpha    90
_cell_angle_beta     111.164
_cell_angle_gamma    90

_symmetry_Int_Tables_number  12
_chemical_formula_structural  SrMg
_chemical_formula_sum  Sr4Mg4
_cell_volume  289.6682542918758
_cell_formula_units_Z  4
loop_
  _symmetry_equiv_pos_site_id
 _symmetry_equiv_pos_as_xyz
 1  'x, y, z'
loop_
 _atom_site_type_symbol
 _atom_site_label
 _atom_site_symmetry_multiplicity
 _atom_site_fract_x
 _atom_site_fract_y
 _atom_site_fract_z
 _atom_site_fract_occupancy
 Mg  Mg1  1  0.65331  0.50000  0.86751  1
 Mg  Mg2  1  0.84669  0.00000  0.13249  1
 Mg  Mg3  1  0.15331  0.00000  0.86751  1
 Mg  Mg4  1  0.34669  0.50000  0.13249  1
 Sr  Sr1  1  0.89757  0.50000  0.67212  1
 Sr  Sr2  1  0.60243  0.00000  0.32788  1
 Sr  Sr3  1  0.39757  0.00000  0.67212  1
 Sr  Sr4  1  0.10243  0.50000  0.32788  1
