CIF file written using JARVIS-Tools package.
data_Mg6VFe
_symmetry_space_group_name_H-M  'Amm2'
_cell_length_a       6.12252
_cell_length_b       5.83983
_cell_length_c       4.79329
_cell_angle_alpha    90
_cell_angle_beta     90
_cell_angle_gamma    118.484

_symmetry_Int_Tables_number  38
_chemical_formula_structural  Mg6VFe
_chemical_formula_sum  Mg6VFe
_cell_volume  150.63573565994608
_cell_formula_units_Z  1
loop_
  _symmetry_equiv_pos_site_id
 _symmetry_equiv_pos_as_xyz
 1  'x, y, z'
loop_
 _atom_site_type_symbol
 _atom_site_label
 _atom_site_symmetry_multiplicity
 _atom_site_fract_x
 _atom_site_fract_y
 _atom_site_fract_z
 _atom_site_fract_occupancy
 Fe  Fe1  1  0.16132  0.33066  0.25000  1
 Mg  Mg1  1  0.65350  0.32732  0.25000  1
 Mg  Mg2  1  0.65350  0.82619  0.25000  1
 Mg  Mg3  1  0.32786  0.16358  0.75000  1
 Mg  Mg4  1  0.32786  0.66429  0.75000  1
 Mg  Mg5  1  0.86865  0.18432  0.75000  1
 Mg  Mg6  1  0.85518  0.67759  0.75000  1
 V  V1  1  0.15211  0.82606  0.25000  1
