CIF file written using JARVIS-Tools package.
data_KPO2F2
_symmetry_space_group_name_H-M  'Pnma'
_cell_length_a       6.33851
_cell_length_b       7.54297
_cell_length_c       7.64345
_cell_angle_alpha    90
_cell_angle_beta     90
_cell_angle_gamma    90

_symmetry_Int_Tables_number  62
_chemical_formula_structural  KPO2F2
_chemical_formula_sum  K4P4O8F8
_cell_volume  365.44266551038373
_cell_formula_units_Z  4
loop_
  _symmetry_equiv_pos_site_id
 _symmetry_equiv_pos_as_xyz
 1  'x, y, z'
loop_
 _atom_site_type_symbol
 _atom_site_label
 _atom_site_symmetry_multiplicity
 _atom_site_fract_x
 _atom_site_fract_y
 _atom_site_fract_z
 _atom_site_fract_occupancy
 F  F1  1  0.25000  0.54296  0.95602  1
 F  F2  1  0.25000  0.54501  0.26694  1
 F  F3  1  0.25000  0.95499  0.76694  1
 F  F4  1  0.75000  0.04296  0.54398  1
 F  F5  1  0.75000  0.45499  0.73306  1
 F  F6  1  0.75000  0.04501  0.23306  1
 F  F7  1  0.75000  0.45704  0.04398  1
 F  F8  1  0.25000  0.95704  0.45602  1
 K  K1  1  0.25000  0.14284  0.13703  1
 K  K2  1  0.75000  0.85716  0.86297  1
 K  K3  1  0.25000  0.35716  0.63703  1
 K  K4  1  0.75000  0.64284  0.36297  1
 O  O1  1  0.04453  0.77974  0.11161  1
 O  O2  1  0.95547  0.22026  0.88839  1
 O  O3  1  0.45547  0.72026  0.61161  1
 O  O4  1  0.54453  0.27974  0.38839  1
 O  O5  1  0.95547  0.27974  0.38839  1
 O  O6  1  0.04453  0.72026  0.61161  1
 O  O7  1  0.54453  0.22026  0.88839  1
 O  O8  1  0.45547  0.77974  0.11161  1
 P  P1  1  0.25000  0.68543  0.11088  1
 P  P2  1  0.75000  0.31457  0.88912  1
 P  P3  1  0.75000  0.18543  0.38912  1
 P  P4  1  0.25000  0.81457  0.61088  1
