CIF file written using JARVIS-Tools package.
data_BaBiO3
_symmetry_space_group_name_H-M  'P1'
_cell_length_a       13.0233
_cell_length_b       4.13556
_cell_length_c       7.89562
_cell_angle_alpha    120.22
_cell_angle_beta     146.058
_cell_angle_gamma    59.5342

_symmetry_Int_Tables_number  1
_chemical_formula_structural  BaBiO3
_chemical_formula_sum  Ba2Bi2O6
_cell_volume  201.61185356031334
_cell_formula_units_Z  2
loop_
  _symmetry_equiv_pos_site_id
 _symmetry_equiv_pos_as_xyz
 1  'x, y, z'
loop_
 _atom_site_type_symbol
 _atom_site_label
 _atom_site_symmetry_multiplicity
 _atom_site_fract_x
 _atom_site_fract_y
 _atom_site_fract_z
 _atom_site_fract_occupancy
 Ba  Ba1  1  0.31393  0.90385  0.02917  1
 Ba  Ba2  1  0.64523  -0.03024  0.96043  1
 Bi  Bi1  1  0.10064  0.62404  0.25769  1
 Bi  Bi2  1  0.81290  0.92160  0.62814  1
 O  O1  1  0.60856  0.71816  0.15667  1
 O  O2  1  0.55820  0.43048  0.47362  1
 O  O3  1  0.16020  0.19869  0.57811  1
 O  O4  1  0.28007  0.30401  0.62322  1
 O  O5  1  0.57719  0.24099  0.62158  1
 O  O6  1  0.94309  0.18842  0.67137  1
