CIF file written using JARVIS-Tools package.
data_MnVBiO5
_symmetry_space_group_name_H-M  'P-1'
_cell_length_a       5.33973
_cell_length_b       6.92203
_cell_length_c       6.97828
_cell_angle_alpha    109.934
_cell_angle_beta     108.648
_cell_angle_gamma    95.6674

_symmetry_Int_Tables_number  2
_chemical_formula_structural  MnVBiO5
_chemical_formula_sum  Mn2V2Bi2O0
_cell_volume  223.40726264110603
_cell_formula_units_Z  2
loop_
  _symmetry_equiv_pos_site_id
 _symmetry_equiv_pos_as_xyz
 1  'x, y, z'
loop_
 _atom_site_type_symbol
 _atom_site_label
 _atom_site_symmetry_multiplicity
 _atom_site_fract_x
 _atom_site_fract_y
 _atom_site_fract_z
 _atom_site_fract_occupancy
 Bi  Bi1  1  0.08923  0.75841  0.52461  1
 Bi  Bi2  1  0.91077  0.24159  0.47539  1
 Mn  Mn1  1  0.32453  0.36170  0.22493  1
 Mn  Mn2  1  0.67547  0.63830  0.77507  1
 O  O1  1  0.22861  0.64959  0.22476  1
 O  O2  1  0.42939  0.08611  0.29395  1
 O  O3  1  0.63261  0.75779  0.07351  1
 O  O4  1  0.57061  0.91389  0.70605  1
 O  O5  1  0.72792  0.50044  0.44463  1
 O  O6  1  0.77139  0.35041  0.77524  1
 O  O7  1  0.91569  0.21706  0.13295  1
 O  O8  1  0.08431  0.78294  0.86705  1
 O  O9  1  0.36739  0.24221  0.92649  1
 O  O10  1  0.27208  0.49956  0.55537  1
 V  V1  1  0.65490  0.18209  0.88517  1
 V  V2  1  0.34510  0.81791  0.11483  1
