CIF file written using JARVIS-Tools package.
data_BeBiSe2
_symmetry_space_group_name_H-M  'P4mm'
_cell_length_a       3.29211
_cell_length_b       3.29211
_cell_length_c       8.41825
_cell_angle_alpha    90
_cell_angle_beta     90
_cell_angle_gamma    90

_symmetry_Int_Tables_number  99
_chemical_formula_structural  BeBiSe2
_chemical_formula_sum  BeBiSe2
_cell_volume  91.23672080333358
_cell_formula_units_Z  1
loop_
  _symmetry_equiv_pos_site_id
 _symmetry_equiv_pos_as_xyz
 1  'x, y, z'
loop_
 _atom_site_type_symbol
 _atom_site_label
 _atom_site_symmetry_multiplicity
 _atom_site_fract_x
 _atom_site_fract_y
 _atom_site_fract_z
 _atom_site_fract_occupancy
 Be  Be1  1  0.00000  0.00000  0.31512  1
 Bi  Bi1  1  0.50000  0.50000  0.72958  1
 Se  Se1  1  0.00000  0.00000  0.05893  1
 Se  Se2  1  0.50000  0.50000  0.39638  1
