CIF file written using JARVIS-Tools package.
data_SmGe5
_symmetry_space_group_name_H-M  'Immm'
_cell_length_a       4.01768
_cell_length_b       6.21478
_cell_length_c       6.22783
_cell_angle_alpha    119.931
_cell_angle_beta     108.818
_cell_angle_gamma    90

_symmetry_Int_Tables_number  71
_chemical_formula_structural  SmGe5
_chemical_formula_sum  SmGe5
_cell_volume  125.08120123041016
_cell_formula_units_Z  1
loop_
  _symmetry_equiv_pos_site_id
 _symmetry_equiv_pos_as_xyz
 1  'x, y, z'
loop_
 _atom_site_type_symbol
 _atom_site_label
 _atom_site_symmetry_multiplicity
 _atom_site_fract_x
 _atom_site_fract_y
 _atom_site_fract_z
 _atom_site_fract_occupancy
 Ge  Ge1  1  0.33129  0.53906  0.66258  1
 Ge  Ge2  1  0.66871  0.46094  0.33742  1
 Ge  Ge3  1  0.66871  0.87648  0.33742  1
 Ge  Ge4  1  0.33129  0.12352  0.66258  1
 Ge  Ge5  1  0.00000  0.50000  0.00000  1
 Sm  Sm1  1  0.00000  0.00000  0.00000  1
