CIF file written using JARVIS-Tools package.
data_NbCl2O
_symmetry_space_group_name_H-M  'C2'
_cell_length_a       3.93047
_cell_length_b       6.72258
_cell_length_c       6.76378
_cell_angle_alpha    105.146
_cell_angle_beta     90
_cell_angle_gamma    106.998

_symmetry_Int_Tables_number  5
_chemical_formula_structural  NbCl2O
_chemical_formula_sum  Nb2Cl4O2
_cell_volume  164.40919311719145
_cell_formula_units_Z  2
loop_
  _symmetry_equiv_pos_site_id
 _symmetry_equiv_pos_as_xyz
 1  'x, y, z'
loop_
 _atom_site_type_symbol
 _atom_site_label
 _atom_site_symmetry_multiplicity
 _atom_site_fract_x
 _atom_site_fract_y
 _atom_site_fract_z
 _atom_site_fract_occupancy
 Cl  Cl1  1  0.86922  0.72638  0.93028  1
 Cl  Cl2  1  0.14284  0.27362  0.06972  1
 Cl  Cl3  1  0.84208  0.68322  0.41610  1
 Cl  Cl4  1  0.15887  0.31678  0.58390  1
 Nb  Nb1  1  0.96386  0.99940  0.71959  1
 Nb  Nb2  1  0.96446  0.00060  0.28041  1
 O  O1  1  0.49192  0.99717  0.72704  1
 O  O2  1  0.49474  0.00283  0.27296  1
