CIF file written using JARVIS-Tools package.
data_RbTe6
_symmetry_space_group_name_H-M  'C2/c'
_cell_length_a       6.90913
_cell_length_b       6.90914
_cell_length_c       12.4765
_cell_angle_alpha    93.8185
_cell_angle_beta     104.56
_cell_angle_gamma    115.2

_symmetry_Int_Tables_number  15
_chemical_formula_structural  RbTe6
_chemical_formula_sum  Rb2Te2
_cell_volume  511.2340426830645
_cell_formula_units_Z  2
loop_
  _symmetry_equiv_pos_site_id
 _symmetry_equiv_pos_as_xyz
 1  'x, y, z'
loop_
 _atom_site_type_symbol
 _atom_site_label
 _atom_site_symmetry_multiplicity
 _atom_site_fract_x
 _atom_site_fract_y
 _atom_site_fract_z
 _atom_site_fract_occupancy
 Rb  Rb1  1  0.87379  0.62379  0.25000  1
 Rb  Rb2  1  0.12621  0.37621  0.75000  1
 Te  Te1  1  0.15633  0.22840  0.34996  1
 Te  Te2  1  0.37844  0.80637  0.15004  1
 Te  Te3  1  0.53700  0.76007  0.40699  1
 Te  Te4  1  0.85308  0.13002  0.09301  1
 Te  Te5  1  0.46300  0.23993  0.59301  1
 Te  Te6  1  0.14692  0.86998  0.90699  1
 Te  Te7  1  0.81612  0.22359  0.44262  1
 Te  Te8  1  0.28097  0.37350  0.05738  1
 Te  Te9  1  0.18388  0.77641  0.55738  1
 Te  Te10  1  0.71903  0.62650  0.94262  1
 Te  Te11  1  0.62156  0.19363  0.84996  1
 Te  Te12  1  0.84367  0.77160  0.65004  1
