CIF file written using JARVIS-Tools package.
data_BeTc2Sb
_symmetry_space_group_name_H-M  'P4mm'
_cell_length_a       3.13623
_cell_length_b       3.13623
_cell_length_c       6.0529
_cell_angle_alpha    90
_cell_angle_beta     90
_cell_angle_gamma    90

_symmetry_Int_Tables_number  99
_chemical_formula_structural  BeTc2Sb
_chemical_formula_sum  BeTc2Sb
_cell_volume  59.53609347514444
_cell_formula_units_Z  1
loop_
  _symmetry_equiv_pos_site_id
 _symmetry_equiv_pos_as_xyz
 1  'x, y, z'
loop_
 _atom_site_type_symbol
 _atom_site_label
 _atom_site_symmetry_multiplicity
 _atom_site_fract_x
 _atom_site_fract_y
 _atom_site_fract_z
 _atom_site_fract_occupancy
 Be  Be1  1  0.00000  0.00000  0.43139  1
 Sb  Sb1  1  0.50000  0.50000  0.74871  1
 Tc  Tc1  1  0.00000  0.00000  0.02108  1
 Tc  Tc2  1  0.50000  0.50000  0.29882  1
