CIF file written using JARVIS-Tools package.
data_RbMg6C
_symmetry_space_group_name_H-M  'Amm2'
_cell_length_a       8.22434
_cell_length_b       8.22433
_cell_length_c       3.39014
_cell_angle_alpha    90
_cell_angle_beta     90
_cell_angle_gamma    120.137

_symmetry_Int_Tables_number  38
_chemical_formula_structural  RbMg6C
_chemical_formula_sum  RbMg6C
_cell_volume  198.31131272328864
_cell_formula_units_Z  1
loop_
  _symmetry_equiv_pos_site_id
 _symmetry_equiv_pos_as_xyz
 1  'x, y, z'
loop_
 _atom_site_type_symbol
 _atom_site_label
 _atom_site_symmetry_multiplicity
 _atom_site_fract_x
 _atom_site_fract_y
 _atom_site_fract_z
 _atom_site_fract_occupancy
 C  C1  1  0.40288  0.09712  0.75000  1
 Mg  Mg1  1  0.20431  0.95733  0.25000  1
 Mg  Mg2  1  0.54267  0.29569  0.25000  1
 Mg  Mg3  1  0.71006  0.78994  0.25000  1
 Mg  Mg4  1  0.36746  0.79488  0.75000  1
 Mg  Mg5  1  0.70512  0.13254  0.75000  1
 Mg  Mg6  1  0.90758  0.59242  0.75000  1
 Rb  Rb1  1  0.15993  0.34007  0.25000  1
