CIF file written using JARVIS-Tools package.
data_Cd3AsI3
_symmetry_space_group_name_H-M  'Pm'
_cell_length_a       7.42729
_cell_length_b       4.5754
_cell_length_c       7.74695
_cell_angle_alpha    90
_cell_angle_beta     90.5567
_cell_angle_gamma    90

_symmetry_Int_Tables_number  6
_chemical_formula_structural  Cd3AsI3
_chemical_formula_sum  Cd3AsI3
_cell_volume  263.2510155967903
_cell_formula_units_Z  1
loop_
  _symmetry_equiv_pos_site_id
 _symmetry_equiv_pos_as_xyz
 1  'x, y, z'
loop_
 _atom_site_type_symbol
 _atom_site_label
 _atom_site_symmetry_multiplicity
 _atom_site_fract_x
 _atom_site_fract_y
 _atom_site_fract_z
 _atom_site_fract_occupancy
 As  As1  1  0.05262  0.50000  0.81173  1
 Cd  Cd1  1  0.39677  0.50000  0.86420  1
 Cd  Cd2  1  0.95805  0.00000  0.68543  1
 Cd  Cd3  1  0.92191  0.50000  0.11787  1
 I  I1  1  0.07351  0.00000  0.31754  1
 I  I2  1  0.55349  0.00000  0.66846  1
 I  I3  1  0.55164  0.50000  0.20145  1
