CIF file written using JARVIS-Tools package.
data_U2OsC2
_symmetry_space_group_name_H-M  'I4/mmm'
_cell_length_a       3.45622
_cell_length_b       3.45622
_cell_length_c       6.75446
_cell_angle_alpha    104.824
_cell_angle_beta     104.824
_cell_angle_gamma    90

_symmetry_Int_Tables_number  139
_chemical_formula_structural  U2OsC2
_chemical_formula_sum  U2OsC2
_cell_volume  75.21837137414217
_cell_formula_units_Z  1
loop_
  _symmetry_equiv_pos_site_id
 _symmetry_equiv_pos_as_xyz
 1  'x, y, z'
loop_
 _atom_site_type_symbol
 _atom_site_label
 _atom_site_symmetry_multiplicity
 _atom_site_fract_x
 _atom_site_fract_y
 _atom_site_fract_z
 _atom_site_fract_occupancy
 C  C1  1  0.82879  0.82879  0.65757  1
 C  C2  1  0.17121  0.17121  0.34243  1
 Os  Os1  1  0.00000  0.00000  0.00000  1
 U  U1  1  0.64571  0.64571  0.29143  1
 U  U2  1  0.35429  0.35429  0.70857  1
