CIF file written using JARVIS-Tools package.
data_NaMg6Co
_symmetry_space_group_name_H-M  'Amm2'
_cell_length_a       6.36999
_cell_length_b       6.36999
_cell_length_c       4.92342
_cell_angle_alpha    90
_cell_angle_beta     90
_cell_angle_gamma    121.2

_symmetry_Int_Tables_number  38
_chemical_formula_structural  NaMg6Co
_chemical_formula_sum  NaMg6Co
_cell_volume  170.88117848944952
_cell_formula_units_Z  1
loop_
  _symmetry_equiv_pos_site_id
 _symmetry_equiv_pos_as_xyz
 1  'x, y, z'
loop_
 _atom_site_type_symbol
 _atom_site_label
 _atom_site_symmetry_multiplicity
 _atom_site_fract_x
 _atom_site_fract_y
 _atom_site_fract_z
 _atom_site_fract_occupancy
 Co  Co1  1  0.13013  0.36987  0.25000  1
 Mg  Mg1  1  0.17041  0.81539  0.25000  1
 Mg  Mg2  1  0.68461  0.32959  0.25000  1
 Mg  Mg3  1  0.67035  0.82965  0.25000  1
 Mg  Mg4  1  0.32469  0.64227  0.75000  1
 Mg  Mg5  1  0.85773  0.17531  0.75000  1
 Mg  Mg6  1  0.83590  0.66410  0.75000  1
 Na  Na1  1  0.32617  0.17383  0.75000  1
