CIF file written using JARVIS-Tools package.
data_USi2
_symmetry_space_group_name_H-M  'I4_1/amd'
_cell_length_a       3.92681
_cell_length_b       3.92681
_cell_length_c       7.69662
_cell_angle_alpha    104.779
_cell_angle_beta     104.779
_cell_angle_gamma    90

_symmetry_Int_Tables_number  141
_chemical_formula_structural  USi2
_chemical_formula_sum  U2Si4
_cell_volume  110.68849254127355
_cell_formula_units_Z  2
loop_
  _symmetry_equiv_pos_site_id
 _symmetry_equiv_pos_as_xyz
 1  'x, y, z'
loop_
 _atom_site_type_symbol
 _atom_site_label
 _atom_site_symmetry_multiplicity
 _atom_site_fract_x
 _atom_site_fract_y
 _atom_site_fract_z
 _atom_site_fract_occupancy
 Si  Si1  1  0.66824  0.16824  0.33649  1
 Si  Si2  1  0.58176  0.58176  0.16351  1
 Si  Si3  1  0.83176  0.33176  0.66351  1
 Si  Si4  1  0.41824  0.41824  0.83649  1
 U  U1  1  0.25000  0.75000  0.50000  1
 U  U2  1  0.00000  0.00000  0.00000  1
