CIF file written using JARVIS-Tools package.
data_LiCo4O8
_symmetry_space_group_name_H-M  'R-3m'
_cell_length_a       5.58627
_cell_length_b       5.66927
_cell_length_c       5.66927
_cell_angle_alpha    60.0001
_cell_angle_beta     120.493
_cell_angle_gamma    120.493

_symmetry_Int_Tables_number  166
_chemical_formula_structural  LiCo4O8
_chemical_formula_sum  LiCo4O8
_cell_volume  126.00486981009524
_cell_formula_units_Z  1
loop_
  _symmetry_equiv_pos_site_id
 _symmetry_equiv_pos_as_xyz
 1  'x, y, z'
loop_
 _atom_site_type_symbol
 _atom_site_label
 _atom_site_symmetry_multiplicity
 _atom_site_fract_x
 _atom_site_fract_y
 _atom_site_fract_z
 _atom_site_fract_occupancy
 Co  Co1  1  0.50000  0.50000  0.50000  1
 Co  Co2  1  0.50000  0.50000  0.00000  1
 Co  Co3  1  -0.00000  0.50000  0.00000  1
 Co  Co4  1  0.50000  -0.00000  0.00000  1
 Li  Li1  1  0.50000  -0.00000  0.50000  1
 O  O1  1  0.73453  0.71052  0.76201  1
 O  O2  1  0.70679  0.73560  0.23560  1
 O  O3  1  0.26547  0.73799  0.78948  1
 O  O4  1  0.73453  0.26201  0.76201  1
 O  O5  1  0.26547  0.73799  0.23799  1
 O  O6  1  0.73453  0.26201  0.21052  1
 O  O7  1  0.29321  0.26440  0.76440  1
 O  O8  1  0.26547  0.28948  0.23799  1
