CIF file written using JARVIS-Tools package.
data_KSrMg6
_symmetry_space_group_name_H-M  'Amm2'
_cell_length_a       7.18298
_cell_length_b       7.18298
_cell_length_c       5.34703
_cell_angle_alpha    90
_cell_angle_beta     90
_cell_angle_gamma    116.302

_symmetry_Int_Tables_number  38
_chemical_formula_structural  KSrMg6
_chemical_formula_sum  KSrMg6
_cell_volume  247.31840454978587
_cell_formula_units_Z  1
loop_
  _symmetry_equiv_pos_site_id
 _symmetry_equiv_pos_as_xyz
 1  'x, y, z'
loop_
 _atom_site_type_symbol
 _atom_site_label
 _atom_site_symmetry_multiplicity
 _atom_site_fract_x
 _atom_site_fract_y
 _atom_site_fract_z
 _atom_site_fract_occupancy
 K  K1  1  0.09996  0.40004  0.25000  1
 Mg  Mg1  1  0.04254  0.87746  0.25000  1
 Mg  Mg2  1  0.62254  0.45746  0.25000  1
 Mg  Mg3  1  0.58926  0.91074  0.25000  1
 Mg  Mg4  1  0.46517  0.62580  0.75000  1
 Mg  Mg5  1  0.87420  0.03483  0.75000  1
 Mg  Mg6  1  0.90430  0.59570  0.75000  1
 Sr  Sr1  1  0.40204  0.09796  0.75000  1
