CIF file written using JARVIS-Tools package.
data_Mn2SiSe4
_symmetry_space_group_name_H-M  'Pnma'
_cell_length_a       6.27315
_cell_length_b       7.75766
_cell_length_c       13.2862
_cell_angle_alpha    90
_cell_angle_beta     90
_cell_angle_gamma    90

_symmetry_Int_Tables_number  62
_chemical_formula_structural  Mn2SiSe4
_chemical_formula_sum  Mn8Si4Se6
_cell_volume  646.5719988690896
_cell_formula_units_Z  4
loop_
  _symmetry_equiv_pos_site_id
 _symmetry_equiv_pos_as_xyz
 1  'x, y, z'
loop_
 _atom_site_type_symbol
 _atom_site_label
 _atom_site_symmetry_multiplicity
 _atom_site_fract_x
 _atom_site_fract_y
 _atom_site_fract_z
 _atom_site_fract_occupancy
 Mn  Mn1  1  0.00000  0.50000  0.00000  1
 Mn  Mn2  1  0.00000  0.00000  0.00000  1
 Mn  Mn3  1  0.50000  0.00000  0.50000  1
 Mn  Mn4  1  0.50000  0.50000  0.50000  1
 Mn  Mn5  1  0.49244  0.75000  0.76710  1
 Mn  Mn6  1  0.99244  0.25000  0.73290  1
 Mn  Mn7  1  0.50756  0.25000  0.23290  1
 Mn  Mn8  1  0.00756  0.75000  0.26710  1
 Se  Se1  1  0.77069  0.25000  0.90836  1
 Se  Se2  1  0.25580  0.25000  0.07102  1
 Se  Se3  1  0.75580  0.75000  0.42898  1
 Se  Se4  1  0.27069  0.75000  0.59164  1
 Se  Se5  1  0.72931  0.25000  0.40836  1
 Se  Se6  1  0.74762  0.51715  0.66834  1
 Se  Se7  1  0.74420  0.75000  0.92898  1
 Se  Se8  1  0.22931  0.75000  0.09164  1
 Se  Se9  1  0.24762  0.01715  0.83166  1
 Se  Se10  1  0.75238  0.98285  0.16834  1
 Se  Se11  1  0.75238  0.51715  0.16834  1
 Se  Se12  1  0.25238  0.01715  0.33166  1
 Se  Se13  1  0.24420  0.25000  0.57102  1
 Se  Se14  1  0.74762  0.98285  0.66834  1
 Se  Se15  1  0.25238  0.48285  0.33166  1
 Se  Se16  1  0.24762  0.48285  0.83166  1
 Si  Si1  1  0.90677  0.75000  0.58846  1
 Si  Si2  1  0.09323  0.25000  0.41154  1
 Si  Si3  1  0.40677  0.25000  0.91154  1
 Si  Si4  1  0.59323  0.75000  0.08846  1
