CIF file written using JARVIS-Tools package.
data_MnGeRh
_symmetry_space_group_name_H-M  'Ima2'
_cell_length_a       6.6028
_cell_length_b       7.10918
_cell_length_c       7.45076
_cell_angle_alpha    118.495
_cell_angle_beta     116.302
_cell_angle_gamma    90

_symmetry_Int_Tables_number  46
_chemical_formula_structural  MnGeRh
_chemical_formula_sum  Mn6Ge6Rh6
_cell_volume  265.45044446535695
_cell_formula_units_Z  6
loop_
  _symmetry_equiv_pos_site_id
 _symmetry_equiv_pos_as_xyz
 1  'x, y, z'
loop_
 _atom_site_type_symbol
 _atom_site_label
 _atom_site_symmetry_multiplicity
 _atom_site_fract_x
 _atom_site_fract_y
 _atom_site_fract_z
 _atom_site_fract_occupancy
 Ge  Ge1  1  0.53029  0.77950  0.05901  1
 Ge  Ge2  1  0.47129  0.22050  0.94099  1
 Ge  Ge3  1  0.82955  0.33860  0.66572  1
 Ge  Ge4  1  0.16383  0.66140  0.33428  1
 Ge  Ge5  1  0.82955  0.82712  0.66572  1
 Ge  Ge6  1  0.16383  0.17288  0.33428  1
 Mn  Mn1  1  0.48856  0.44243  0.38486  1
 Mn  Mn2  1  0.89881  0.24263  0.98526  1
 Mn  Mn3  1  0.49365  0.96786  0.43571  1
 Mn  Mn4  1  0.05793  0.03214  0.56429  1
 Mn  Mn5  1  0.10369  0.55757  0.61514  1
 Mn  Mn6  1  0.91355  0.75737  0.01474  1
 Rh  Rh1  1  0.50072  0.40687  0.74188  1
 Rh  Rh2  1  0.23928  0.50000  -0.00000  1
 Rh  Rh3  1  0.23928  0.00000  -0.00000  1
 Rh  Rh4  1  0.50072  0.83501  0.74188  1
 Rh  Rh5  1  0.75884  0.59313  0.25812  1
 Rh  Rh6  1  0.75884  0.16499  0.25812  1
