CIF file written using JARVIS-Tools package.
data_CeMg2
_symmetry_space_group_name_H-M  'P6_3/mmc'
_cell_length_a       3.12795
_cell_length_b       3.12796
_cell_length_c       17.1261
_cell_angle_alpha    90
_cell_angle_beta     90
_cell_angle_gamma    120

_symmetry_Int_Tables_number  194
_chemical_formula_structural  CeMg2
_chemical_formula_sum  Ce2Mg4
_cell_volume  145.1137862378011
_cell_formula_units_Z  2
loop_
  _symmetry_equiv_pos_site_id
 _symmetry_equiv_pos_as_xyz
 1  'x, y, z'
loop_
 _atom_site_type_symbol
 _atom_site_label
 _atom_site_symmetry_multiplicity
 _atom_site_fract_x
 _atom_site_fract_y
 _atom_site_fract_z
 _atom_site_fract_occupancy
 Ce  Ce1  1  0.33333  0.66667  0.75000  1
 Ce  Ce2  1  0.66667  0.33333  0.25000  1
 Mg  Mg1  1  0.66667  0.33333  0.92241  1
 Mg  Mg2  1  0.66667  0.33333  0.57759  1
 Mg  Mg3  1  0.33333  0.66667  0.42241  1
 Mg  Mg4  1  0.33333  0.66667  0.07759  1
