CIF file written using JARVIS-Tools package.
data_Ho2SbO2
_symmetry_space_group_name_H-M  'I4/mmm'
_cell_length_a       3.82781
_cell_length_b       3.82781
_cell_length_c       7.12368
_cell_angle_alpha    105.585
_cell_angle_beta     105.585
_cell_angle_gamma    90

_symmetry_Int_Tables_number  139
_chemical_formula_structural  Ho2SbO2
_chemical_formula_sum  Ho2SbO2
_cell_volume  96.54921253191466
_cell_formula_units_Z  1
loop_
  _symmetry_equiv_pos_site_id
 _symmetry_equiv_pos_as_xyz
 1  'x, y, z'
loop_
 _atom_site_type_symbol
 _atom_site_label
 _atom_site_symmetry_multiplicity
 _atom_site_fract_x
 _atom_site_fract_y
 _atom_site_fract_z
 _atom_site_fract_occupancy
 Ho  Ho1  1  0.66528  0.66528  0.33055  1
 Ho  Ho2  1  0.33472  0.33472  0.66945  1
 O  O1  1  0.25000  0.75000  0.50000  1
 O  O2  1  0.75000  0.25000  0.50000  1
 Sb  Sb1  1  0.00000  0.00000  0.00000  1
