CIF file written using JARVIS-Tools package.
data_BeNbPt2
_symmetry_space_group_name_H-M  'P4mm'
_cell_length_a       2.85188
_cell_length_b       2.85188
_cell_length_c       7.066
_cell_angle_alpha    90
_cell_angle_beta     90
_cell_angle_gamma    90

_symmetry_Int_Tables_number  99
_chemical_formula_structural  BeNbPt2
_chemical_formula_sum  BeNbPt2
_cell_volume  57.469382875362186
_cell_formula_units_Z  1
loop_
  _symmetry_equiv_pos_site_id
 _symmetry_equiv_pos_as_xyz
 1  'x, y, z'
loop_
 _atom_site_type_symbol
 _atom_site_label
 _atom_site_symmetry_multiplicity
 _atom_site_fract_x
 _atom_site_fract_y
 _atom_site_fract_z
 _atom_site_fract_occupancy
 Be  Be1  1  0.00000  0.00000  0.46990  1
 Nb  Nb1  1  0.50000  0.50000  0.72302  1
 Pt  Pt1  1  0.00000  0.00000  0.00217  1
 Pt  Pt2  1  0.50000  0.50000  0.30491  1
