CIF file written using JARVIS-Tools package.
data_BeSb2P
_symmetry_space_group_name_H-M  'I-4m2'
_cell_length_a       6.4626
_cell_length_b       6.4626
_cell_length_c       6.4626
_cell_angle_alpha    145.374
_cell_angle_beta     145.374
_cell_angle_gamma    49.7779

_symmetry_Int_Tables_number  119
_chemical_formula_structural  BeSb2P
_chemical_formula_sum  BeSb2P
_cell_volume  86.7351162534055
_cell_formula_units_Z  1
loop_
  _symmetry_equiv_pos_site_id
 _symmetry_equiv_pos_as_xyz
 1  'x, y, z'
loop_
 _atom_site_type_symbol
 _atom_site_label
 _atom_site_symmetry_multiplicity
 _atom_site_fract_x
 _atom_site_fract_y
 _atom_site_fract_z
 _atom_site_fract_occupancy
 Be  Be1  1  0.50000  0.50000  0.00000  1
 P  P1  1  0.75000  0.25000  0.50000  1
 Sb  Sb1  1  0.00000  0.00000  0.00000  1
 Sb  Sb2  1  0.25000  0.75000  0.50000  1
