CIF file written using JARVIS-Tools package.
data_Mn3O2F4
_symmetry_space_group_name_H-M  'Cmmm'
_cell_length_a       6.69322
_cell_length_b       3.10495
_cell_length_c       10.6586
_cell_angle_alpha    90
_cell_angle_beta     108.302
_cell_angle_gamma    90

_symmetry_Int_Tables_number  65
_chemical_formula_structural  Mn3O2F4
_chemical_formula_sum  Mn6O4F8
_cell_volume  210.30366915401433
_cell_formula_units_Z  2
loop_
  _symmetry_equiv_pos_site_id
 _symmetry_equiv_pos_as_xyz
 1  'x, y, z'
loop_
 _atom_site_type_symbol
 _atom_site_label
 _atom_site_symmetry_multiplicity
 _atom_site_fract_x
 _atom_site_fract_y
 _atom_site_fract_z
 _atom_site_fract_occupancy
 F  F1  1  0.05735  0.50000  0.11468  1
 F  F2  1  0.27599  0.50000  0.55198  1
 F  F3  1  0.73649  0.50000  0.47304  1
 F  F4  1  0.69911  0.00000  0.00541  1
 F  F5  1  0.02701  0.00000  0.66124  1
 F  F6  1  0.30633  0.00000  0.00542  1
 F  F7  1  0.63423  0.00000  0.66126  1
 F  F8  1  0.59683  0.50000  0.19363  1
 Mn  Mn1  1  0.99048  0.00000  0.98094  1
 Mn  Mn2  1  0.16667  0.50000  0.33333  1
 Mn  Mn3  1  0.34285  0.00000  0.68572  1
 Mn  Mn4  1  0.66667  0.00000  0.33333  1
 Mn  Mn5  1  0.49591  0.50000  0.99181  1
 Mn  Mn6  1  0.83742  0.50000  0.67486  1
 O  O1  1  0.36017  0.00000  0.33333  1
 O  O2  1  0.97316  0.00000  0.33333  1
 O  O3  1  0.40169  0.50000  0.80342  1
 O  O4  1  0.93164  0.50000  0.86324  1
