CIF file written using JARVIS-Tools package.
data_LiP2WO7
_symmetry_space_group_name_H-M  'P1'
_cell_length_a       4.5229
_cell_length_b       5.34422
_cell_length_c       5.4509
_cell_angle_alpha    103.461
_cell_angle_beta     98.7734
_cell_angle_gamma    97.3041

_symmetry_Int_Tables_number  1
_chemical_formula_structural  LiP2WO7
_chemical_formula_sum  LiP2WO7
_cell_volume  124.81084538267383
_cell_formula_units_Z  1
loop_
  _symmetry_equiv_pos_site_id
 _symmetry_equiv_pos_as_xyz
 1  'x, y, z'
loop_
 _atom_site_type_symbol
 _atom_site_label
 _atom_site_symmetry_multiplicity
 _atom_site_fract_x
 _atom_site_fract_y
 _atom_site_fract_z
 _atom_site_fract_occupancy
 Li  Li1  1  0.24337  0.72106  0.94096  1
 O  O1  1  0.98760  0.74871  0.59808  1
 O  O2  1  0.52767  0.41167  0.52779  1
 O  O3  1  0.48945  0.78510  0.31203  1
 O  O4  1  0.06365  0.29441  0.81903  1
 O  O5  1  0.56024  0.02163  0.86186  1
 O  O6  1  0.79841  0.46307  0.15490  1
 O  O7  1  0.03693  0.04935  0.16844  1
 P  P1  1  0.69146  0.60486  0.41219  1
 P  P2  1  0.86900  0.19234  0.99524  1
 W  W1  1  0.27204  0.06460  0.53903  1
