CIF file written using JARVIS-Tools package.
data_Ba2TiO4
_symmetry_space_group_name_H-M  'P2_1/c'
_cell_length_a       6.17944
_cell_length_b       7.73916
_cell_length_c       10.6047
_cell_angle_alpha    90
_cell_angle_beta     93.7197
_cell_angle_gamma    90

_symmetry_Int_Tables_number  14
_chemical_formula_structural  Ba2TiO4
_chemical_formula_sum  Ba8Ti4O6
_cell_volume  506.0854638970667
_cell_formula_units_Z  4
loop_
  _symmetry_equiv_pos_site_id
 _symmetry_equiv_pos_as_xyz
 1  'x, y, z'
loop_
 _atom_site_type_symbol
 _atom_site_label
 _atom_site_symmetry_multiplicity
 _atom_site_fract_x
 _atom_site_fract_y
 _atom_site_fract_z
 _atom_site_fract_occupancy
 Ba  Ba1  1  0.76734  0.84319  0.07539  1
 Ba  Ba2  1  0.23266  0.15681  0.92461  1
 Ba  Ba3  1  0.26734  0.65681  0.57539  1
 Ba  Ba4  1  0.22402  0.49983  0.19802  1
 Ba  Ba5  1  0.27598  0.99983  0.30198  1
 Ba  Ba6  1  0.77598  0.50017  0.80198  1
 Ba  Ba7  1  0.72402  0.00017  0.69802  1
 Ba  Ba8  1  0.73266  0.34319  0.42461  1
 O  O1  1  0.99554  0.17332  0.13745  1
 O  O2  1  0.50446  0.67332  0.36255  1
 O  O3  1  0.00446  0.82668  0.86255  1
 O  O4  1  0.32974  0.81879  0.07352  1
 O  O5  1  0.67026  0.18121  0.92648  1
 O  O6  1  0.82974  0.68121  0.57352  1
 O  O7  1  0.02128  0.26264  0.68764  1
 O  O8  1  0.49554  0.32668  0.63745  1
 O  O9  1  0.47872  0.76264  0.81236  1
 O  O10  1  0.28707  0.99096  0.56731  1
 O  O11  1  0.52128  0.23736  0.18764  1
 O  O12  1  0.17026  0.31879  0.42648  1
 O  O13  1  0.71293  0.00904  0.43269  1
 O  O14  1  0.21293  0.49096  0.93269  1
 O  O15  1  0.97872  0.73736  0.31236  1
 O  O16  1  0.78707  0.50904  0.06731  1
 Ti  Ti1  1  0.23976  0.22071  0.58257  1
 Ti  Ti2  1  0.26024  0.72071  0.91743  1
 Ti  Ti3  1  0.76024  0.77929  0.41743  1
 Ti  Ti4  1  0.73976  0.27929  0.08257  1
