CIF file written using JARVIS-Tools package.
data_RbMg6V
_symmetry_space_group_name_H-M  'P-6m2'
_cell_length_a       6.63497
_cell_length_b       6.63497
_cell_length_c       5.29339
_cell_angle_alpha    90
_cell_angle_beta     90
_cell_angle_gamma    120.019

_symmetry_Int_Tables_number  187
_chemical_formula_structural  RbMg6V
_chemical_formula_sum  RbMg6V
_cell_volume  201.77108997472166
_cell_formula_units_Z  1
loop_
  _symmetry_equiv_pos_site_id
 _symmetry_equiv_pos_as_xyz
 1  'x, y, z'
loop_
 _atom_site_type_symbol
 _atom_site_label
 _atom_site_symmetry_multiplicity
 _atom_site_fract_x
 _atom_site_fract_y
 _atom_site_fract_z
 _atom_site_fract_occupancy
 Mg  Mg1  1  0.06051  0.90534  0.25000  1
 Mg  Mg2  1  0.59466  0.43949  0.25000  1
 Mg  Mg3  1  0.59467  0.90533  0.25000  1
 Mg  Mg4  1  0.39576  0.57289  0.75000  1
 Mg  Mg5  1  0.92711  0.10424  0.75000  1
 Mg  Mg6  1  0.92728  0.57272  0.75000  1
 Rb  Rb1  1  0.41665  0.08335  0.75000  1
 V  V1  1  0.08336  0.41664  0.25000  1
