CIF file written using JARVIS-Tools package.
data_Mg6MoC
_symmetry_space_group_name_H-M  'Amm2'
_cell_length_a       6.92307
_cell_length_b       5.71602
_cell_length_c       4.10121
_cell_angle_alpha    90
_cell_angle_beta     90
_cell_angle_gamma    114.382

_symmetry_Int_Tables_number  38
_chemical_formula_structural  Mg6MoC
_chemical_formula_sum  Mg6MoC
_cell_volume  147.81978919217588
_cell_formula_units_Z  1
loop_
  _symmetry_equiv_pos_site_id
 _symmetry_equiv_pos_as_xyz
 1  'x, y, z'
loop_
 _atom_site_type_symbol
 _atom_site_label
 _atom_site_symmetry_multiplicity
 _atom_site_fract_x
 _atom_site_fract_y
 _atom_site_fract_z
 _atom_site_fract_occupancy
 C  C1  1  0.31211  0.90605  0.25000  1
 Mg  Mg1  1  0.60382  0.30128  0.25000  1
 Mg  Mg2  1  0.60382  0.80254  0.25000  1
 Mg  Mg3  1  0.30141  0.13828  0.75000  1
 Mg  Mg4  1  0.30141  0.66313  0.75000  1
 Mg  Mg5  1  0.85234  0.17617  0.75000  1
 Mg  Mg6  1  0.89407  0.69704  0.75000  1
 Mo  Mo1  1  0.13101  0.31550  0.25000  1
