CIF file written using JARVIS-Tools package.
data_HfBeOs
_symmetry_space_group_name_H-M  'P3m1'
_cell_length_a       3.19715
_cell_length_b       3.19715
_cell_length_c       5.12994
_cell_angle_alpha    90
_cell_angle_beta     90
_cell_angle_gamma    120

_symmetry_Int_Tables_number  156
_chemical_formula_structural  HfBeOs
_chemical_formula_sum  HfBeOs
_cell_volume  45.41181670500633
_cell_formula_units_Z  1
loop_
  _symmetry_equiv_pos_site_id
 _symmetry_equiv_pos_as_xyz
 1  'x, y, z'
loop_
 _atom_site_type_symbol
 _atom_site_label
 _atom_site_symmetry_multiplicity
 _atom_site_fract_x
 _atom_site_fract_y
 _atom_site_fract_z
 _atom_site_fract_occupancy
 Be  Be1  1  0.00000  0.00000  0.03285  1
 Hf  Hf1  1  0.33333  0.66667  0.68284  1
 Os  Os1  1  0.66667  0.33333  0.28431  1
