CIF file written using JARVIS-Tools package.
data_LiNiO2
_symmetry_space_group_name_H-M  'P6/mmm'
_cell_length_a       7.54604
_cell_length_b       7.54604
_cell_length_c       7.54604
_cell_angle_alpha    43.3598
_cell_angle_beta     43.3598
_cell_angle_gamma    43.3599

_symmetry_Int_Tables_number  191
_chemical_formula_structural  LiNiO2
_chemical_formula_sum  Li3Ni3O6
_cell_volume  183.72956205518724
_cell_formula_units_Z  3
loop_
  _symmetry_equiv_pos_site_id
 _symmetry_equiv_pos_as_xyz
 1  'x, y, z'
loop_
 _atom_site_type_symbol
 _atom_site_label
 _atom_site_symmetry_multiplicity
 _atom_site_fract_x
 _atom_site_fract_y
 _atom_site_fract_z
 _atom_site_fract_occupancy
 Li  Li1  1  0.50000  0.50000  0.50000  1
 Li  Li2  1  0.16667  0.16667  0.16667  1
 Li  Li3  1  0.83333  0.83333  0.83333  1
 Ni  Ni1  1  0.00000  0.00000  0.00000  1
 Ni  Ni2  1  0.66667  0.66667  0.66667  1
 Ni  Ni3  1  0.33333  0.33333  0.33333  1
 O  O1  1  0.91889  0.91889  0.91889  1
 O  O2  1  0.08111  0.08111  0.08111  1
 O  O3  1  0.58556  0.58556  0.58556  1
 O  O4  1  0.74778  0.74778  0.74778  1
 O  O5  1  0.25222  0.25222  0.25222  1
 O  O6  1  0.41444  0.41444  0.41444  1
