CIF file written using JARVIS-Tools package.
data_Fe3BO6
_symmetry_space_group_name_H-M  'Pnma'
_cell_length_a       4.28903
_cell_length_b       8.15704
_cell_length_c       9.61071
_cell_angle_alpha    90
_cell_angle_beta     90
_cell_angle_gamma    90

_symmetry_Int_Tables_number  62
_chemical_formula_structural  Fe3BO6
_chemical_formula_sum  Fe2B4O24
_cell_volume  336.2382392532535
_cell_formula_units_Z  4
loop_
  _symmetry_equiv_pos_site_id
 _symmetry_equiv_pos_as_xyz
 1  'x, y, z'
loop_
 _atom_site_type_symbol
 _atom_site_label
 _atom_site_symmetry_multiplicity
 _atom_site_fract_x
 _atom_site_fract_y
 _atom_site_fract_z
 _atom_site_fract_occupancy
 B  B1  1  0.91925  0.75000  0.27920  1
 B  B2  1  0.58075  0.75000  0.77920  1
 B  B3  1  0.41925  0.25000  0.22080  1
 B  B4  1  0.08075  0.25000  0.72080  1
 Fe  Fe1  1  0.50347  0.06865  0.62701  1
 Fe  Fe2  1  0.46563  0.75000  0.09637  1
 Fe  Fe3  1  0.96563  0.25000  0.40363  1
 Fe  Fe4  1  0.53437  0.25000  0.90363  1
 Fe  Fe5  1  0.00347  0.93135  0.87299  1
 Fe  Fe6  1  0.50347  0.43135  0.62701  1
 Fe  Fe7  1  0.00347  0.56865  0.87299  1
 Fe  Fe8  1  0.49653  0.93135  0.37299  1
 Fe  Fe9  1  0.99653  0.06865  0.12701  1
 Fe  Fe10  1  0.49653  0.56865  0.37299  1
 Fe  Fe11  1  0.99653  0.43135  0.12701  1
 Fe  Fe12  1  0.03437  0.75000  0.59637  1
 O  O1  1  0.73513  0.60593  0.70954  1
 O  O2  1  0.76487  0.89407  0.20954  1
 O  O3  1  0.26487  0.10593  0.29046  1
 O  O4  1  0.73254  0.08207  0.46762  1
 O  O5  1  0.75281  0.25000  0.22197  1
 O  O6  1  0.23513  0.10593  0.79046  1
 O  O7  1  0.73513  0.89407  0.70954  1
 O  O8  1  0.74719  0.25000  0.72197  1
 O  O9  1  0.23513  0.39407  0.79046  1
 O  O10  1  0.26487  0.39407  0.29046  1
 O  O11  1  0.26746  0.91793  0.53238  1
 O  O12  1  0.22000  0.25000  0.57694  1
 O  O13  1  0.24719  0.75000  0.77803  1
 O  O14  1  0.23254  0.58207  0.03238  1
 O  O15  1  0.23254  0.91793  0.03238  1
 O  O16  1  0.26746  0.58207  0.53238  1
 O  O17  1  0.76746  0.41793  0.96762  1
 O  O18  1  0.72000  0.75000  0.92306  1
 O  O19  1  0.76746  0.08207  0.96762  1
 O  O20  1  0.28000  0.25000  0.07694  1
 O  O21  1  0.78000  0.75000  0.42306  1
 O  O22  1  0.25281  0.75000  0.27803  1
 O  O23  1  0.73254  0.41793  0.46762  1
 O  O24  1  0.76487  0.60593  0.20954  1
