CIF file written using JARVIS-Tools package.
data_Li2H2SeO5
_symmetry_space_group_name_H-M  'P2_1'
_cell_length_a       5.82874
_cell_length_b       5.04835
_cell_length_c       8.35494
_cell_angle_alpha    90
_cell_angle_beta     103.355
_cell_angle_gamma    90

_symmetry_Int_Tables_number  4
_chemical_formula_structural  Li2H2SeO5
_chemical_formula_sum  Li4H4Se2O0
_cell_volume  239.20038081157657
_cell_formula_units_Z  2
loop_
  _symmetry_equiv_pos_site_id
 _symmetry_equiv_pos_as_xyz
 1  'x, y, z'
loop_
 _atom_site_type_symbol
 _atom_site_label
 _atom_site_symmetry_multiplicity
 _atom_site_fract_x
 _atom_site_fract_y
 _atom_site_fract_z
 _atom_site_fract_occupancy
 H  H1  1  0.33151  0.91149  0.35126  1
 H  H2  1  0.51384  0.59897  0.51197  1
 H  H3  1  0.48616  0.09897  0.48803  1
 H  H4  1  0.66849  0.41149  0.64874  1
 Li  Li1  1  0.32290  0.96210  -0.00342  1
 Li  Li2  1  0.86023  0.45884  0.42162  1
 Li  Li3  1  0.13977  0.95884  0.57838  1
 Li  Li4  1  0.67710  0.46210  0.00342  1
 O  O1  1  0.83197  0.28795  0.21044  1
 O  O2  1  0.88964  0.83807  0.39021  1
 O  O3  1  0.11036  0.33807  0.60979  1
 O  O4  1  0.16803  0.78795  0.78956  1
 O  O5  1  0.65266  0.82876  0.06631  1
 O  O6  1  0.86507  0.39456  0.84484  1
 O  O7  1  0.13493  0.89456  0.15516  1
 O  O8  1  0.40051  0.92655  0.47157  1
 O  O9  1  0.34734  0.32876  0.93369  1
 O  O10  1  0.59949  0.42655  0.52843  1
 Se  Se1  1  0.87853  0.96167  0.20271  1
 Se  Se2  1  0.12147  0.46167  0.79729  1
