CIF file written using JARVIS-Tools package.
data_Mn4O7F
_symmetry_space_group_name_H-M  'Cc'
_cell_length_a       6.96377
_cell_length_b       6.96377
_cell_length_c       4.88311
_cell_angle_alpha    90.3148
_cell_angle_beta     90.3148
_cell_angle_gamma    102.018

_symmetry_Int_Tables_number  9
_chemical_formula_structural  Mn4O7F
_chemical_formula_sum  Mn8O4F2
_cell_volume  231.60324477227095
_cell_formula_units_Z  2
loop_
  _symmetry_equiv_pos_site_id
 _symmetry_equiv_pos_as_xyz
 1  'x, y, z'
loop_
 _atom_site_type_symbol
 _atom_site_label
 _atom_site_symmetry_multiplicity
 _atom_site_fract_x
 _atom_site_fract_y
 _atom_site_fract_z
 _atom_site_fract_occupancy
 F  F1  1  0.81904  0.93807  0.57730  1
 F  F2  1  0.43807  0.31904  0.07730  1
 Mn  Mn1  1  0.92798  0.57355  0.24189  1
 Mn  Mn2  1  0.56454  0.92694  0.77216  1
 Mn  Mn3  1  0.08456  0.92133  0.75396  1
 Mn  Mn4  1  0.42694  0.06454  0.27216  1
 Mn  Mn5  1  0.57991  0.43524  0.73282  1
 Mn  Mn6  1  0.93524  0.07991  0.23282  1
 Mn  Mn7  1  0.07355  0.42798  0.74189  1
 Mn  Mn8  1  0.42133  0.58456  0.25396  1
 O  O1  1  0.32669  0.44120  0.57392  1
 O  O2  1  0.05969  0.17340  0.91238  1
 O  O3  1  0.17395  0.05654  0.42380  1
 O  O4  1  0.67354  0.06010  0.09102  1
 O  O5  1  0.17318  0.55815  0.07512  1
 O  O6  1  0.56010  0.17354  0.59102  1
 O  O7  1  0.55654  0.67395  0.92380  1
 O  O8  1  0.67340  0.55969  0.41238  1
 O  O9  1  0.32644  0.93977  0.93479  1
 O  O10  1  0.94088  0.32532  0.41084  1
 O  O11  1  0.82532  0.44088  0.91084  1
 O  O12  1  0.94120  0.82669  0.07392  1
 O  O13  1  0.05815  0.67318  0.57512  1
 O  O14  1  0.43977  0.82644  0.43479  1
