CIF file written using JARVIS-Tools package.
data_Dy2AlNi2
_symmetry_space_group_name_H-M  'Immm'
_cell_length_a       4.15108
_cell_length_b       5.364
_cell_length_c       5.364
_cell_angle_alpha    60.6407
_cell_angle_beta     67.2358
_cell_angle_gamma    67.2358

_symmetry_Int_Tables_number  71
_chemical_formula_structural  Dy2AlNi2
_chemical_formula_sum  Dy2AlNi2
_cell_volume  93.05267847700713
_cell_formula_units_Z  1
loop_
  _symmetry_equiv_pos_site_id
 _symmetry_equiv_pos_as_xyz
 1  'x, y, z'
loop_
 _atom_site_type_symbol
 _atom_site_label
 _atom_site_symmetry_multiplicity
 _atom_site_fract_x
 _atom_site_fract_y
 _atom_site_fract_z
 _atom_site_fract_occupancy
 Al  Al1  1  0.00000  0.00000  0.00000  1
 Dy  Dy1  1  0.20280  0.29720  0.29720  1
 Dy  Dy2  1  0.79720  0.70280  0.70280  1
 Ni  Ni1  1  0.50000  0.26804  0.73196  1
 Ni  Ni2  1  0.50000  0.73196  0.26804  1
