CIF file written using JARVIS-Tools package.
data_Li2VO2F
_symmetry_space_group_name_H-M  'C2/m'
_cell_length_a       2.87367
_cell_length_b       5.12023
_cell_length_c       7.77761
_cell_angle_alpha    70.3483
_cell_angle_beta     100.645
_cell_angle_gamma    89.999

_symmetry_Int_Tables_number  12
_chemical_formula_structural  Li2VO2F
_chemical_formula_sum  Li4V2O4F2
_cell_volume  105.6791774826091
_cell_formula_units_Z  2
loop_
  _symmetry_equiv_pos_site_id
 _symmetry_equiv_pos_as_xyz
 1  'x, y, z'
loop_
 _atom_site_type_symbol
 _atom_site_label
 _atom_site_symmetry_multiplicity
 _atom_site_fract_x
 _atom_site_fract_y
 _atom_site_fract_z
 _atom_site_fract_occupancy
 F  F1  1  0.25210  0.75862  0.50422  1
 F  F2  1  0.08123  0.24138  0.16245  1
 Li  Li1  1  0.83622  0.49968  0.67246  1
 Li  Li2  1  0.16667  0.50000  0.33334  1
 Li  Li3  1  0.66667  0.00001  0.33333  1
 Li  Li4  1  0.49712  0.50031  0.99421  1
 O  O1  1  0.91402  0.76273  0.82804  1
 O  O2  1  0.41931  0.23727  0.83863  1
 O  O3  1  0.58112  0.76167  0.16223  1
 O  O4  1  0.75221  0.23833  0.50444  1
 V  V1  1  0.33279  0.02326  0.66559  1
 V  V2  1  0.00055  0.97674  0.00108  1
