CIF file written using JARVIS-Tools package.
data_UCr2Si2
_symmetry_space_group_name_H-M  'I4/mmm'
_cell_length_a       3.91676
_cell_length_b       3.91675
_cell_length_c       5.84196
_cell_angle_alpha    109.586
_cell_angle_beta     109.586
_cell_angle_gamma    90

_symmetry_Int_Tables_number  139
_chemical_formula_structural  UCr2Si2
_chemical_formula_sum  UCr2Si2
_cell_volume  78.90994290191786
_cell_formula_units_Z  1
loop_
  _symmetry_equiv_pos_site_id
 _symmetry_equiv_pos_as_xyz
 1  'x, y, z'
loop_
 _atom_site_type_symbol
 _atom_site_label
 _atom_site_symmetry_multiplicity
 _atom_site_fract_x
 _atom_site_fract_y
 _atom_site_fract_z
 _atom_site_fract_occupancy
 Cr  Cr1  1  0.25000  0.75000  0.50000  1
 Cr  Cr2  1  0.75000  0.25000  0.50000  1
 Si  Si1  1  0.61653  0.61653  0.23307  1
 Si  Si2  1  0.38347  0.38347  0.76693  1
 U  U1  1  0.00000  0.00000  0.00000  1
