CIF file written using JARVIS-Tools package.
data_SrCa2Be
_symmetry_space_group_name_H-M  'P4/mmm'
_cell_length_a       4.86977
_cell_length_b       4.86977
_cell_length_c       5.433
_cell_angle_alpha    90
_cell_angle_beta     90
_cell_angle_gamma    90

_symmetry_Int_Tables_number  123
_chemical_formula_structural  SrCa2Be
_chemical_formula_sum  SrCa2Be
_cell_volume  128.8418064269652
_cell_formula_units_Z  1
loop_
  _symmetry_equiv_pos_site_id
 _symmetry_equiv_pos_as_xyz
 1  'x, y, z'
loop_
 _atom_site_type_symbol
 _atom_site_label
 _atom_site_symmetry_multiplicity
 _atom_site_fract_x
 _atom_site_fract_y
 _atom_site_fract_z
 _atom_site_fract_occupancy
 Be  Be1  1  0.00000  0.00000  0.50000  1
 Ca  Ca1  1  0.00000  0.50000  0.00000  1
 Ca  Ca2  1  0.50000  0.00000  0.00000  1
 Sr  Sr1  1  0.50000  0.50000  0.50000  1
