CIF file written using JARVIS-Tools package.
data_LiFe3Sn2S8
_symmetry_space_group_name_H-M  'Imm2'
_cell_length_a       7.1805
_cell_length_b       7.1805
_cell_length_c       7.1805
_cell_angle_alpha    61.3442
_cell_angle_beta     90.049
_cell_angle_gamma    121.42

_symmetry_Int_Tables_number  44
_chemical_formula_structural  LiFe3Sn2S8
_chemical_formula_sum  LiFe3Sn2S8
_cell_volume  261.44691483294554
_cell_formula_units_Z  1
loop_
  _symmetry_equiv_pos_site_id
 _symmetry_equiv_pos_as_xyz
 1  'x, y, z'
loop_
 _atom_site_type_symbol
 _atom_site_label
 _atom_site_symmetry_multiplicity
 _atom_site_fract_x
 _atom_site_fract_y
 _atom_site_fract_z
 _atom_site_fract_occupancy
 Fe  Fe1  1  0.62728  0.25284  0.62556  1
 Fe  Fe2  1  0.25441  0.50000  0.24559  1
 Fe  Fe3  1  0.12160  0.74716  0.62556  1
 Li  Li1  1  0.98736  -0.00000  0.01264  1
 S  S1  1  0.86324  0.25925  0.39602  1
 S  S2  1  0.37281  0.22021  0.40698  1
 S  S3  1  0.87631  0.29347  0.83022  1
 S  S4  1  0.87631  0.70653  0.41716  1
 S  S5  1  0.39028  0.24013  0.84984  1
 S  S6  1  0.91003  0.75987  0.84984  1
 S  S7  1  0.34473  0.74075  0.39602  1
 S  S8  1  0.37281  0.77979  0.84740  1
 Sn  Sn1  1  0.62642  0.25722  0.11636  1
 Sn  Sn2  1  0.62642  0.74278  0.63080  1
