CIF file written using JARVIS-Tools package.
data_LaScSb
_symmetry_space_group_name_H-M  'I4/mmm'
_cell_length_a       4.52086
_cell_length_b       4.52086
_cell_length_c       8.97528
_cell_angle_alpha    104.587
_cell_angle_beta     104.587
_cell_angle_gamma    90

_symmetry_Int_Tables_number  139
_chemical_formula_structural  LaScSb
_chemical_formula_sum  La2Sc2Sb2
_cell_volume  171.40839105837128
_cell_formula_units_Z  2
loop_
  _symmetry_equiv_pos_site_id
 _symmetry_equiv_pos_as_xyz
 1  'x, y, z'
loop_
 _atom_site_type_symbol
 _atom_site_label
 _atom_site_symmetry_multiplicity
 _atom_site_fract_x
 _atom_site_fract_y
 _atom_site_fract_z
 _atom_site_fract_occupancy
 La  La1  1  0.82507  0.82507  0.65014  1
 La  La2  1  0.17493  0.17493  0.34986  1
 Sb  Sb1  1  0.62344  0.62344  0.24687  1
 Sb  Sb2  1  0.37656  0.37656  0.75313  1
 Sc  Sc1  1  0.50000  0.00000  0.00000  1
 Sc  Sc2  1  0.00000  0.50000  0.00000  1
