CIF file written using JARVIS-Tools package.
data_ScHCl
_symmetry_space_group_name_H-M  'R-3m'
_cell_length_a       9.01383
_cell_length_b       9.01383
_cell_length_c       9.01383
_cell_angle_alpha    22.3253
_cell_angle_beta     22.3253
_cell_angle_gamma    22.3253

_symmetry_Int_Tables_number  166
_chemical_formula_structural  ScHCl
_chemical_formula_sum  Sc2H2Cl2
_cell_volume  92.67716630781148
_cell_formula_units_Z  2
loop_
  _symmetry_equiv_pos_site_id
 _symmetry_equiv_pos_as_xyz
 1  'x, y, z'
loop_
 _atom_site_type_symbol
 _atom_site_label
 _atom_site_symmetry_multiplicity
 _atom_site_fract_x
 _atom_site_fract_y
 _atom_site_fract_z
 _atom_site_fract_occupancy
 Cl  Cl1  1  0.39084  0.39084  0.39084  1
 Cl  Cl2  1  0.60916  0.60916  0.60916  1
 H  H1  1  0.80526  0.80526  0.80526  1
 H  H2  1  0.19474  0.19474  0.19474  1
 Sc  Sc1  1  0.88139  0.88139  0.88139  1
 Sc  Sc2  1  0.11861  0.11861  0.11861  1
