CIF file written using JARVIS-Tools package.
data_Li2MnF4
_symmetry_space_group_name_H-M  'P-42m'
_cell_length_a       4.25088
_cell_length_b       4.25088
_cell_length_c       4.97707
_cell_angle_alpha    90
_cell_angle_beta     90
_cell_angle_gamma    90

_symmetry_Int_Tables_number  111
_chemical_formula_structural  Li2MnF4
_chemical_formula_sum  Li2MnF4
_cell_volume  89.93559000355191
_cell_formula_units_Z  1
loop_
  _symmetry_equiv_pos_site_id
 _symmetry_equiv_pos_as_xyz
 1  'x, y, z'
loop_
 _atom_site_type_symbol
 _atom_site_label
 _atom_site_symmetry_multiplicity
 _atom_site_fract_x
 _atom_site_fract_y
 _atom_site_fract_z
 _atom_site_fract_occupancy
 F  F1  1  0.24055  0.24055  0.72128  1
 F  F2  1  0.75945  0.24055  0.27872  1
 F  F3  1  0.75945  0.75945  0.72128  1
 F  F4  1  0.24055  0.75945  0.27872  1
 Li  Li1  1  0.50000  0.00000  0.50000  1
 Li  Li2  1  0.00000  0.50000  0.50000  1
 Mn  Mn1  1  0.00000  0.00000  0.00000  1
