CIF file written using JARVIS-Tools package.
data_MgAl2Se4
_symmetry_space_group_name_H-M  'R-3m'
_cell_length_a       3.90551
_cell_length_b       3.90551
_cell_length_c       13.1123
_cell_angle_alpha    81.4353
_cell_angle_beta     81.4353
_cell_angle_gamma    59.9999

_symmetry_Int_Tables_number  166
_chemical_formula_structural  MgAl2Se4
_chemical_formula_sum  MgAl2Se4
_cell_volume  170.625500353545
_cell_formula_units_Z  1
loop_
  _symmetry_equiv_pos_site_id
 _symmetry_equiv_pos_as_xyz
 1  'x, y, z'
loop_
 _atom_site_type_symbol
 _atom_site_label
 _atom_site_symmetry_multiplicity
 _atom_site_fract_x
 _atom_site_fract_y
 _atom_site_fract_z
 _atom_site_fract_occupancy
 Al  Al1  1  0.06921  0.06921  0.79237  1
 Al  Al2  1  0.59565  0.59565  0.21305  1
 Mg  Mg1  1  0.83243  0.83243  0.50271  1
 Se  Se1  1  0.95647  0.95647  0.13059  1
 Se  Se2  1  0.70839  0.70839  0.87483  1
 Se  Se3  1  0.53613  0.53613  0.39160  1
 Se  Se4  1  0.12872  0.12872  0.61383  1
