CIF file written using JARVIS-Tools package.
data_Er2Ga10Os3
_symmetry_space_group_name_H-M  'P4/mbm'
_cell_length_a       6.36979
_cell_length_b       8.90341
_cell_length_c       8.90341
_cell_angle_alpha    90
_cell_angle_beta     90
_cell_angle_gamma    90

_symmetry_Int_Tables_number  127
_chemical_formula_structural  Er2Ga10Os3
_chemical_formula_sum  Er4Ga20Os6
_cell_volume  504.93762679704923
_cell_formula_units_Z  2
loop_
  _symmetry_equiv_pos_site_id
 _symmetry_equiv_pos_as_xyz
 1  'x, y, z'
loop_
 _atom_site_type_symbol
 _atom_site_label
 _atom_site_symmetry_multiplicity
 _atom_site_fract_x
 _atom_site_fract_y
 _atom_site_fract_z
 _atom_site_fract_occupancy
 Er  Er1  1  0.00000  0.18273  0.68273  1
 Er  Er2  1  0.00000  0.81727  0.31727  1
 Er  Er3  1  0.00000  0.68273  0.81727  1
 Er  Er4  1  0.00000  0.31727  0.18273  1
 Ga  Ga1  1  0.70775  0.43857  0.70716  1
 Ga  Ga2  1  0.29225  0.20716  0.93857  1
 Ga  Ga3  1  0.29225  0.43857  0.70716  1
 Ga  Ga4  1  0.28071  0.00000  0.50000  1
 Ga  Ga5  1  0.70775  0.70716  0.56143  1
 Ga  Ga6  1  0.70775  0.56143  0.29284  1
 Ga  Ga7  1  0.29225  0.93857  0.79284  1
 Ga  Ga8  1  0.70775  0.20716  0.93857  1
 Ga  Ga9  1  0.29225  0.56143  0.29284  1
 Ga  Ga10  1  0.29225  0.79284  0.06143  1
 Ga  Ga11  1  0.70775  0.79284  0.06143  1
 Ga  Ga12  1  0.70775  0.06143  0.20716  1
 Ga  Ga13  1  0.70775  0.93857  0.79284  1
 Ga  Ga14  1  0.29225  0.06143  0.20716  1
 Ga  Ga15  1  0.71929  0.50000  0.00000  1
 Ga  Ga16  1  0.28071  0.50000  0.00000  1
 Ga  Ga17  1  0.29225  0.70716  0.56143  1
 Ga  Ga18  1  0.29225  0.29284  0.43857  1
 Ga  Ga19  1  0.71929  0.00000  0.50000  1
 Ga  Ga20  1  0.70775  0.29284  0.43857  1
 Os  Os1  1  0.00000  0.00000  0.00000  1
 Os  Os2  1  0.50000  0.82142  0.32142  1
 Os  Os3  1  0.50000  0.17858  0.67858  1
 Os  Os4  1  0.50000  0.67858  0.82142  1
 Os  Os5  1  0.50000  0.32142  0.17858  1
 Os  Os6  1  0.00000  0.50000  0.50000  1
