CIF file written using JARVIS-Tools package.
data_Mn2SnS4
_symmetry_space_group_name_H-M  'Cmmm'
_cell_length_a       3.66398
_cell_length_b       6.29697
_cell_length_c       6.29697
_cell_angle_alpha    109.431
_cell_angle_beta     90
_cell_angle_gamma    90

_symmetry_Int_Tables_number  65
_chemical_formula_structural  Mn2SnS4
_chemical_formula_sum  Mn2SnS4
_cell_volume  137.00837556801702
_cell_formula_units_Z  1
loop_
  _symmetry_equiv_pos_site_id
 _symmetry_equiv_pos_as_xyz
 1  'x, y, z'
loop_
 _atom_site_type_symbol
 _atom_site_label
 _atom_site_symmetry_multiplicity
 _atom_site_fract_x
 _atom_site_fract_y
 _atom_site_fract_z
 _atom_site_fract_occupancy
 Mn  Mn1  1  0.50000  0.00000  0.50000  1
 Mn  Mn2  1  0.50000  0.50000  0.00000  1
 S  S1  1  0.00000  0.25130  0.74870  1
 S  S2  1  0.00000  0.74870  0.25130  1
 S  S3  1  0.50000  0.74572  0.74572  1
 S  S4  1  0.50000  0.25428  0.25428  1
 Sn  Sn1  1  0.00000  0.00000  0.00000  1
