CIF file written using JARVIS-Tools package.
data_BeSi2Sn
_symmetry_space_group_name_H-M  'I4/mmm'
_cell_length_a       5.85573
_cell_length_b       5.85573
_cell_length_c       5.85573
_cell_angle_alpha    143.534
_cell_angle_beta     143.534
_cell_angle_gamma    52.5243

_symmetry_Int_Tables_number  139
_chemical_formula_structural  BeSi2Sn
_chemical_formula_sum  BeSi2Sn
_cell_volume  70.50869299943291
_cell_formula_units_Z  1
loop_
  _symmetry_equiv_pos_site_id
 _symmetry_equiv_pos_as_xyz
 1  'x, y, z'
loop_
 _atom_site_type_symbol
 _atom_site_label
 _atom_site_symmetry_multiplicity
 _atom_site_fract_x
 _atom_site_fract_y
 _atom_site_fract_z
 _atom_site_fract_occupancy
 Be  Be1  1  0.75000  0.25000  0.50000  1
 Si  Si1  1  0.00000  0.00000  0.00000  1
 Si  Si2  1  0.50000  0.50000  0.00000  1
 Sn  Sn1  1  0.25000  0.75000  0.50000  1
