CIF file written using JARVIS-Tools package.
data_FeGe2
_symmetry_space_group_name_H-M  'I4/mcm'
_cell_length_a       4.86652
_cell_length_b       4.86652
_cell_length_c       4.86652
_cell_angle_alpha    105.177
_cell_angle_beta     105.177
_cell_angle_gamma    118.451

_symmetry_Int_Tables_number  140
_chemical_formula_structural  FeGe2
_chemical_formula_sum  Fe2Ge4
_cell_volume  87.06466921237147
_cell_formula_units_Z  2
loop_
  _symmetry_equiv_pos_site_id
 _symmetry_equiv_pos_as_xyz
 1  'x, y, z'
loop_
 _atom_site_type_symbol
 _atom_site_label
 _atom_site_symmetry_multiplicity
 _atom_site_fract_x
 _atom_site_fract_y
 _atom_site_fract_z
 _atom_site_fract_occupancy
 Fe  Fe1  1  0.75000  0.75000  0.00000  1
 Fe  Fe2  1  0.25000  0.25000  0.00000  1
 Ge  Ge1  1  0.84359  0.34359  0.18718  1
 Ge  Ge2  1  0.15641  0.65641  0.81282  1
 Ge  Ge3  1  0.65641  0.84359  0.50000  1
 Ge  Ge4  1  0.34359  0.15641  0.50000  1
