CIF file written using JARVIS-Tools package.
data_Mg6SbMo
_symmetry_space_group_name_H-M  'Amm2'
_cell_length_a       6.17199
_cell_length_b       6.00175
_cell_length_c       5.0946
_cell_angle_alpha    90
_cell_angle_beta     90
_cell_angle_gamma    119.092

_symmetry_Int_Tables_number  38
_chemical_formula_structural  Mg6SbMo
_chemical_formula_sum  Mg6SbMo
_cell_volume  164.91000298054948
_cell_formula_units_Z  1
loop_
  _symmetry_equiv_pos_site_id
 _symmetry_equiv_pos_as_xyz
 1  'x, y, z'
loop_
 _atom_site_type_symbol
 _atom_site_label
 _atom_site_symmetry_multiplicity
 _atom_site_fract_x
 _atom_site_fract_y
 _atom_site_fract_z
 _atom_site_fract_occupancy
 Mg  Mg1  1  0.66409  0.32940  0.25000  1
 Mg  Mg2  1  0.66409  0.83470  0.25000  1
 Mg  Mg3  1  0.33309  0.17989  0.75000  1
 Mg  Mg4  1  0.33309  0.65320  0.75000  1
 Mg  Mg5  1  0.85250  0.17625  0.75000  1
 Mg  Mg6  1  0.82639  0.66320  0.75000  1
 Mo  Mo1  1  0.16850  0.33425  0.25000  1
 Sb  Sb1  1  0.15825  0.82912  0.25000  1
