CIF file written using JARVIS-Tools package.
data_HfMg6Ti
_symmetry_space_group_name_H-M  'Amm2'
_cell_length_a       6.44858
_cell_length_b       5.95387
_cell_length_c       5.03253
_cell_angle_alpha    90
_cell_angle_beta     90
_cell_angle_gamma    117.493

_symmetry_Int_Tables_number  38
_chemical_formula_structural  HfMg6Ti
_chemical_formula_sum  HfMg6Ti
_cell_volume  171.39795251340163
_cell_formula_units_Z  1
loop_
  _symmetry_equiv_pos_site_id
 _symmetry_equiv_pos_as_xyz
 1  'x, y, z'
loop_
 _atom_site_type_symbol
 _atom_site_label
 _atom_site_symmetry_multiplicity
 _atom_site_fract_x
 _atom_site_fract_y
 _atom_site_fract_z
 _atom_site_fract_occupancy
 Hf  Hf1  1  0.15095  0.82548  0.25000  1
 Mg  Mg1  1  0.65192  0.32546  0.25000  1
 Mg  Mg2  1  0.65192  0.82646  0.25000  1
 Mg  Mg3  1  0.33568  0.16867  0.75000  1
 Mg  Mg4  1  0.33568  0.66701  0.75000  1
 Mg  Mg5  1  0.86574  0.18287  0.75000  1
 Mg  Mg6  1  0.84703  0.67352  0.75000  1
 Ti  Ti1  1  0.16108  0.33054  0.25000  1
