CIF file written using JARVIS-Tools package.
data_Mn2OF3
_symmetry_space_group_name_H-M  'Amm2'
_cell_length_a       4.78725
_cell_length_b       4.78725
_cell_length_c       12.6536
_cell_angle_alpha    90
_cell_angle_beta     90
_cell_angle_gamma    93.4319

_symmetry_Int_Tables_number  38
_chemical_formula_structural  Mn2OF3
_chemical_formula_sum  Mn8O4F2
_cell_volume  289.4709048557764
_cell_formula_units_Z  4
loop_
  _symmetry_equiv_pos_site_id
 _symmetry_equiv_pos_as_xyz
 1  'x, y, z'
loop_
 _atom_site_type_symbol
 _atom_site_label
 _atom_site_symmetry_multiplicity
 _atom_site_fract_x
 _atom_site_fract_y
 _atom_site_fract_z
 _atom_site_fract_occupancy
 F  F1  1  0.78576  0.18880  0.87459  1
 F  F2  1  0.78576  0.18880  0.12541  1
 F  F3  1  0.71183  0.71183  0.74390  1
 F  F4  1  0.71322  0.71322  0.50000  1
 F  F5  1  0.71183  0.71183  0.25610  1
 F  F6  1  0.26485  0.26485  0.00000  1
 F  F7  1  0.18880  0.78576  0.87459  1
 F  F8  1  0.21008  0.81894  0.62446  1
 F  F9  1  0.21008  0.81894  0.37554  1
 F  F10  1  0.18880  0.78576  0.12541  1
 F  F11  1  0.81894  0.21008  0.62446  1
 F  F12  1  0.81894  0.21008  0.37554  1
 Mn  Mn1  1  0.95250  0.95250  0.00000  1
 Mn  Mn2  1  0.48872  0.48872  0.87523  1
 Mn  Mn3  1  0.48780  0.48780  0.37475  1
 Mn  Mn4  1  0.48872  0.48872  0.12476  1
 Mn  Mn5  1  0.48780  0.48780  0.62525  1
 Mn  Mn6  1  0.02474  0.02474  0.75077  1
 Mn  Mn7  1  0.02569  0.02569  0.50000  1
 Mn  Mn8  1  0.02474  0.02474  0.24923  1
 O  O1  1  0.66022  0.66022  0.00000  1
 O  O2  1  0.31685  0.31685  0.75172  1
 O  O3  1  0.31685  0.31685  0.24828  1
 O  O4  1  0.31648  0.31648  0.50000  1
