CIF file written using JARVIS-Tools package.
data_Ba2NdTaO6
_symmetry_space_group_name_H-M  'C2/m'
_cell_length_a       6.09159
_cell_length_b       6.09159
_cell_length_c       6.15409
_cell_angle_alpha    59.97
_cell_angle_beta     59.9701
_cell_angle_gamma    60.0389

_symmetry_Int_Tables_number  12
_chemical_formula_structural  Ba2NdTaO6
_chemical_formula_sum  Ba2NdTaO6
_cell_volume  161.4512712385585
_cell_formula_units_Z  1
loop_
  _symmetry_equiv_pos_site_id
 _symmetry_equiv_pos_as_xyz
 1  'x, y, z'
loop_
 _atom_site_type_symbol
 _atom_site_label
 _atom_site_symmetry_multiplicity
 _atom_site_fract_x
 _atom_site_fract_y
 _atom_site_fract_z
 _atom_site_fract_occupancy
 Ba  Ba1  1  0.75133  0.75133  0.74429  1
 Ba  Ba2  1  0.24867  0.24867  0.25571  1
 Nd  Nd1  1  0.00000  0.00000  0.00000  1
 O  O1  1  0.69953  0.23420  0.30455  1
 O  O2  1  0.30047  0.76580  0.69545  1
 O  O3  1  0.76580  0.30047  0.69545  1
 O  O4  1  0.23420  0.69953  0.30455  1
 O  O5  1  0.72969  0.72969  0.20865  1
 O  O6  1  0.27031  0.27031  0.79135  1
 Ta  Ta1  1  0.50000  0.50000  0.50000  1
