CIF file written using JARVIS-Tools package.
data_K3Pd2O4
_symmetry_space_group_name_H-M  'Cmcm'
_cell_length_a       5.51088
_cell_length_b       5.51088
_cell_length_c       11.4112
_cell_angle_alpha    90
_cell_angle_beta     90
_cell_angle_gamma    112.228

_symmetry_Int_Tables_number  63
_chemical_formula_structural  K3Pd2O4
_chemical_formula_sum  K6Pd4O8
_cell_volume  320.80205822420413
_cell_formula_units_Z  2
loop_
  _symmetry_equiv_pos_site_id
 _symmetry_equiv_pos_as_xyz
 1  'x, y, z'
loop_
 _atom_site_type_symbol
 _atom_site_label
 _atom_site_symmetry_multiplicity
 _atom_site_fract_x
 _atom_site_fract_y
 _atom_site_fract_z
 _atom_site_fract_occupancy
 K  K1  1  0.35308  0.64692  0.56842  1
 K  K2  1  0.64692  0.35308  0.06842  1
 K  K3  1  0.28362  0.71638  0.25000  1
 K  K4  1  0.64692  0.35308  0.43158  1
 K  K5  1  0.71638  0.28362  0.75000  1
 K  K6  1  0.35308  0.64692  0.93158  1
 O  O1  1  0.86970  0.70315  0.61519  1
 O  O2  1  0.70315  0.86970  0.11519  1
 O  O3  1  0.29685  0.13030  0.61519  1
 O  O4  1  0.70315  0.86970  0.38481  1
 O  O5  1  0.13030  0.29685  0.38481  1
 O  O6  1  0.86970  0.70315  0.88481  1
 O  O7  1  0.29685  0.13030  0.88481  1
 O  O8  1  0.13030  0.29685  0.11519  1
 Pd  Pd1  1  0.00000  0.00000  0.00000  1
 Pd  Pd2  1  0.92230  0.07770  0.25000  1
 Pd  Pd3  1  0.00000  0.00000  0.50000  1
 Pd  Pd4  1  0.07770  0.92230  0.75000  1
