CIF file written using JARVIS-Tools package.
data_TiH8N2F6
_symmetry_space_group_name_H-M  'P-3m1'
_cell_length_a       5.74414
_cell_length_b       5.74469
_cell_length_c       5.00556
_cell_angle_alpha    90
_cell_angle_beta     90.002
_cell_angle_gamma    120.003

_symmetry_Int_Tables_number  164
_chemical_formula_structural  TiH8N2F6
_chemical_formula_sum  TiH8N2F6
_cell_volume  143.04112630946264
_cell_formula_units_Z  1
loop_
  _symmetry_equiv_pos_site_id
 _symmetry_equiv_pos_as_xyz
 1  'x, y, z'
loop_
 _atom_site_type_symbol
 _atom_site_label
 _atom_site_symmetry_multiplicity
 _atom_site_fract_x
 _atom_site_fract_y
 _atom_site_fract_z
 _atom_site_fract_occupancy
 F  F1  1  0.84212  0.68440  0.21236  1
 F  F2  1  0.15788  0.31560  0.78764  1
 F  F3  1  0.68452  0.84226  0.78744  1
 F  F4  1  0.15788  0.84227  0.78764  1
 F  F5  1  0.31548  0.15774  0.21256  1
 F  F6  1  0.84212  0.15773  0.21236  1
 H  H1  1  0.13716  0.56858  0.25280  1
 H  H2  1  0.56854  0.43140  0.74694  1
 H  H3  1  0.56854  0.13715  0.74694  1
 H  H4  1  0.33312  0.66656  0.52714  1
 H  H5  1  0.66688  0.33344  0.47286  1
 H  H6  1  0.43146  0.86285  0.25306  1
 H  H7  1  0.43146  0.56860  0.25306  1
 H  H8  1  0.86284  0.43142  0.74720  1
 N  N1  1  0.33329  0.66665  0.32065  1
 N  N2  1  0.66671  0.33335  0.67935  1
 Ti  Ti1  1  0.00000  0.00000  0.00000  1
