CIF file written using JARVIS-Tools package.
data_EuGe2Ir
_symmetry_space_group_name_H-M  'Cmcm'
_cell_length_a       4.44246
_cell_length_b       4.22964
_cell_length_c       8.79238
_cell_angle_alpha    103.918
_cell_angle_beta     90
_cell_angle_gamma    90

_symmetry_Int_Tables_number  63
_chemical_formula_structural  EuGe2Ir
_chemical_formula_sum  Eu2Ge4Ir2
_cell_volume  160.35862702927295
_cell_formula_units_Z  2
loop_
  _symmetry_equiv_pos_site_id
 _symmetry_equiv_pos_as_xyz
 1  'x, y, z'
loop_
 _atom_site_type_symbol
 _atom_site_label
 _atom_site_symmetry_multiplicity
 _atom_site_fract_x
 _atom_site_fract_y
 _atom_site_fract_z
 _atom_site_fract_occupancy
 Eu  Eu1  1  0.75000  0.10871  0.21741  1
 Eu  Eu2  1  0.25000  0.89129  0.78259  1
 Ge  Ge1  1  0.25000  0.53614  0.07228  1
 Ge  Ge2  1  0.75000  0.46386  0.92772  1
 Ge  Ge3  1  0.75000  0.74630  0.49259  1
 Ge  Ge4  1  0.25000  0.25370  0.50741  1
 Ir  Ir1  1  0.75000  0.32303  0.64606  1
 Ir  Ir2  1  0.25000  0.67697  0.35394  1
