CIF file written using JARVIS-Tools package.
data_ThGeTe
_symmetry_space_group_name_H-M  'I4/mmm'
_cell_length_a       4.24371
_cell_length_b       4.24371
_cell_length_c       9.65824
_cell_angle_alpha    102.691
_cell_angle_beta     102.691
_cell_angle_gamma    90

_symmetry_Int_Tables_number  139
_chemical_formula_structural  ThGeTe
_chemical_formula_sum  Th2Ge2Te2
_cell_volume  165.3279688707224
_cell_formula_units_Z  2
loop_
  _symmetry_equiv_pos_site_id
 _symmetry_equiv_pos_as_xyz
 1  'x, y, z'
loop_
 _atom_site_type_symbol
 _atom_site_label
 _atom_site_symmetry_multiplicity
 _atom_site_fract_x
 _atom_site_fract_y
 _atom_site_fract_z
 _atom_site_fract_occupancy
 Ge  Ge1  1  0.50000  0.00000  0.00000  1
 Ge  Ge2  1  0.00000  0.50000  0.00000  1
 Te  Te1  1  0.68912  0.68912  0.37823  1
 Te  Te2  1  0.31088  0.31088  0.62177  1
 Th  Th1  1  0.87695  0.87695  0.75390  1
 Th  Th2  1  0.12305  0.12305  0.24610  1
