CIF file written using JARVIS-Tools package.
data_CaC2
_symmetry_space_group_name_H-M  'Cmcm'
_cell_length_a       3.73332
_cell_length_b       4.74338
_cell_length_c       4.74374
_cell_angle_alpha    90
_cell_angle_beta     90
_cell_angle_gamma    113.174

_symmetry_Int_Tables_number  63
_chemical_formula_structural  CaC2
_chemical_formula_sum  Ca2C4
_cell_volume  77.22661240082574
_cell_formula_units_Z  2
loop_
  _symmetry_equiv_pos_site_id
 _symmetry_equiv_pos_as_xyz
 1  'x, y, z'
loop_
 _atom_site_type_symbol
 _atom_site_label
 _atom_site_symmetry_multiplicity
 _atom_site_fract_x
 _atom_site_fract_y
 _atom_site_fract_z
 _atom_site_fract_occupancy
 C  C1  1  0.43786  0.87572  0.39715  1
 C  C2  1  0.56214  0.12428  0.60285  1
 C  C3  1  0.43786  0.87572  0.10285  1
 C  C4  1  0.56214  0.12428  0.89715  1
 Ca  Ca1  1  0.14643  0.29285  0.25000  1
 Ca  Ca2  1  0.85357  0.70715  0.75000  1
