CIF file written using JARVIS-Tools package.
data_LiIn2CuTe4
_symmetry_space_group_name_H-M  'I-4'
_cell_length_a       7.79724
_cell_length_b       7.79724
_cell_length_c       7.79725
_cell_angle_alpha    132.028
_cell_angle_beta     132.028
_cell_angle_gamma    70.1854

_symmetry_Int_Tables_number  82
_chemical_formula_structural  LiIn2CuTe4
_chemical_formula_sum  LiIn2CuTe4
_cell_volume  256.3960341541517
_cell_formula_units_Z  1
loop_
  _symmetry_equiv_pos_site_id
 _symmetry_equiv_pos_as_xyz
 1  'x, y, z'
loop_
 _atom_site_type_symbol
 _atom_site_label
 _atom_site_symmetry_multiplicity
 _atom_site_fract_x
 _atom_site_fract_y
 _atom_site_fract_z
 _atom_site_fract_occupancy
 Cu  Cu1  1  0.25000  0.75000  0.50000  1
 In  In1  1  0.75000  0.25000  0.50000  1
 In  In2  1  0.50000  0.50000  0.00000  1
 Li  Li1  1  0.00000  0.00000  0.00000  1
 Te  Te1  1  0.12923  0.09705  0.48260  1
 Te  Te2  1  0.61445  0.64663  0.51740  1
 Te  Te3  1  0.35337  0.87077  0.96782  1
 Te  Te4  1  0.90295  0.38555  0.03218  1
