CIF file written using JARVIS-Tools package.
data_Mg3Si2H4O9
_symmetry_space_group_name_H-M  'P6_3cm'
_cell_length_a       5.3544
_cell_length_b       5.3544
_cell_length_c       14.5601
_cell_angle_alpha    90
_cell_angle_beta     90
_cell_angle_gamma    120

_symmetry_Int_Tables_number  185
_chemical_formula_structural  Mg3Si2H4O9
_chemical_formula_sum  Mg6Si4H8O8
_cell_volume  361.50705759470196
_cell_formula_units_Z  2
loop_
  _symmetry_equiv_pos_site_id
 _symmetry_equiv_pos_as_xyz
 1  'x, y, z'
loop_
 _atom_site_type_symbol
 _atom_site_label
 _atom_site_symmetry_multiplicity
 _atom_site_fract_x
 _atom_site_fract_y
 _atom_site_fract_z
 _atom_site_fract_occupancy
 H  H1  1  0.34826  0.34826  0.35680  1
 H  H2  1  0.00000  0.00000  0.57834  1
 H  H3  1  0.00000  0.00000  0.07834  1
 H  H4  1  0.34826  0.00000  0.85680  1
 H  H5  1  0.65174  -0.00000  0.35680  1
 H  H6  1  -0.00000  0.65174  0.35680  1
 H  H7  1  0.00000  0.34826  0.85680  1
 H  H8  1  0.65174  0.65174  0.85680  1
 Mg  Mg1  1  0.33126  -0.00000  0.22312  1
 Mg  Mg2  1  0.66874  0.66874  0.22312  1
 Mg  Mg3  1  0.66874  0.00000  0.72312  1
 Mg  Mg4  1  -0.00000  0.33126  0.22312  1
 Mg  Mg5  1  0.00000  0.66874  0.72312  1
 Mg  Mg6  1  0.33126  0.33126  0.72312  1
 O  O1  1  0.51591  -0.00000  0.48868  1
 O  O2  1  0.33482  0.33482  0.29006  1
 O  O3  1  0.00000  0.00000  0.64506  1
 O  O4  1  0.00000  0.00000  0.14506  1
 O  O5  1  0.33333  0.66667  0.14125  1
 O  O6  1  0.66667  0.33333  0.64125  1
 O  O7  1  0.33333  0.66667  0.64125  1
 O  O8  1  0.66667  0.33333  0.14125  1
 O  O9  1  0.48409  0.00000  0.98868  1
 O  O10  1  -0.00000  0.51591  0.48868  1
 O  O11  1  0.33482  -0.00000  0.79006  1
 O  O12  1  0.51591  0.51591  0.98868  1
 O  O13  1  0.66518  0.00000  0.29006  1
 O  O14  1  0.66518  0.66518  0.79006  1
 O  O15  1  -0.00000  0.33482  0.79006  1
 O  O16  1  0.00000  0.66518  0.29006  1
 O  O17  1  0.48409  0.48409  0.48868  1
 O  O18  1  0.00000  0.48409  0.98868  1
 Si  Si1  1  0.33333  0.66667  0.53072  1
 Si  Si2  1  0.33333  0.66667  0.03072  1
 Si  Si3  1  0.66667  0.33333  0.53072  1
 Si  Si4  1  0.66667  0.33333  0.03072  1
