CIF file written using JARVIS-Tools package.
data_RbCaMg6
_symmetry_space_group_name_H-M  'Amm2'
_cell_length_a       6.99055
_cell_length_b       6.99055
_cell_length_c       5.47465
_cell_angle_alpha    90
_cell_angle_beta     90
_cell_angle_gamma    116.541

_symmetry_Int_Tables_number  38
_chemical_formula_structural  RbCaMg6
_chemical_formula_sum  RbCaMg6
_cell_volume  239.34107432504632
_cell_formula_units_Z  1
loop_
  _symmetry_equiv_pos_site_id
 _symmetry_equiv_pos_as_xyz
 1  'x, y, z'
loop_
 _atom_site_type_symbol
 _atom_site_label
 _atom_site_symmetry_multiplicity
 _atom_site_fract_x
 _atom_site_fract_y
 _atom_site_fract_z
 _atom_site_fract_occupancy
 Ca  Ca1  1  0.16487  0.33513  0.25000  1
 Mg  Mg1  1  0.11786  0.79331  0.25000  1
 Mg  Mg2  1  0.70669  0.38214  0.25000  1
 Mg  Mg3  1  0.64405  0.85595  0.25000  1
 Mg  Mg4  1  0.31374  0.62959  0.75000  1
 Mg  Mg5  1  0.87041  0.18626  0.75000  1
 Mg  Mg6  1  0.81476  0.68524  0.75000  1
 Rb  Rb1  1  0.36762  0.13238  0.75000  1
