CIF file written using JARVIS-Tools package.
data_Na2BeHg
_symmetry_space_group_name_H-M  'P4mm'
_cell_length_a       3.3972
_cell_length_b       3.3972
_cell_length_c       8.35806
_cell_angle_alpha    90
_cell_angle_beta     90
_cell_angle_gamma    90

_symmetry_Int_Tables_number  99
_chemical_formula_structural  Na2BeHg
_chemical_formula_sum  Na2BeHg
_cell_volume  96.46009935394827
_cell_formula_units_Z  1
loop_
  _symmetry_equiv_pos_site_id
 _symmetry_equiv_pos_as_xyz
 1  'x, y, z'
loop_
 _atom_site_type_symbol
 _atom_site_label
 _atom_site_symmetry_multiplicity
 _atom_site_fract_x
 _atom_site_fract_y
 _atom_site_fract_z
 _atom_site_fract_occupancy
 Be  Be1  1  0.00000  0.00000  0.58919  1
 Hg  Hg1  1  0.50000  0.50000  0.66431  1
 Na  Na1  1  0.00000  0.00000  0.94549  1
 Na  Na2  1  0.50000  0.50000  0.30100  1
