CIF file written using JARVIS-Tools package.
data_CeMg6B
_symmetry_space_group_name_H-M  'Amm2'
_cell_length_a       6.5186
_cell_length_b       6.5186
_cell_length_c       4.31654
_cell_angle_alpha    90
_cell_angle_beta     90
_cell_angle_gamma    103.135

_symmetry_Int_Tables_number  38
_chemical_formula_structural  CeMg6B
_chemical_formula_sum  CeMg6B
_cell_volume  178.62084788044558
_cell_formula_units_Z  1
loop_
  _symmetry_equiv_pos_site_id
 _symmetry_equiv_pos_as_xyz
 1  'x, y, z'
loop_
 _atom_site_type_symbol
 _atom_site_label
 _atom_site_symmetry_multiplicity
 _atom_site_fract_x
 _atom_site_fract_y
 _atom_site_fract_z
 _atom_site_fract_occupancy
 B  B1  1  0.25989  0.24011  0.75000  1
 Ce  Ce1  1  0.11987  0.38013  0.25000  1
 Mg  Mg1  1  0.20563  0.92403  0.25000  1
 Mg  Mg2  1  0.57597  0.29437  0.25000  1
 Mg  Mg3  1  0.68867  0.81133  0.25000  1
 Mg  Mg4  1  0.40494  0.64393  0.75000  1
 Mg  Mg5  1  0.85607  0.09506  0.75000  1
 Mg  Mg6  1  0.88896  0.61104  0.75000  1
