CIF file written using JARVIS-Tools package.
data_Mg6FeC
_symmetry_space_group_name_H-M  'Amm2'
_cell_length_a       6.19954
_cell_length_b       8.23874
_cell_length_c       3.72602
_cell_angle_alpha    90
_cell_angle_beta     90
_cell_angle_gamma    131.641

_symmetry_Int_Tables_number  38
_chemical_formula_structural  Mg6FeC
_chemical_formula_sum  Mg6FeC
_cell_volume  142.22362774996876
_cell_formula_units_Z  1
loop_
  _symmetry_equiv_pos_site_id
 _symmetry_equiv_pos_as_xyz
 1  'x, y, z'
loop_
 _atom_site_type_symbol
 _atom_site_label
 _atom_site_symmetry_multiplicity
 _atom_site_fract_x
 _atom_site_fract_y
 _atom_site_fract_z
 _atom_site_fract_occupancy
 C  C1  1  0.99885  0.74943  0.25000  1
 Fe  Fe1  1  0.28949  0.39474  0.25000  1
 Mg  Mg1  1  0.78666  0.39427  0.25000  1
 Mg  Mg2  1  0.78666  0.89240  0.25000  1
 Mg  Mg3  1  0.26912  0.06330  0.75000  1
 Mg  Mg4  1  0.26912  0.70583  0.75000  1
 Mg  Mg5  1  0.89856  0.19928  0.75000  1
 Mg  Mg6  1  0.70152  0.60076  0.75000  1
