CIF file written using JARVIS-Tools package.
data_Li5Mn3Nb2O10
_symmetry_space_group_name_H-M  'P-1'
_cell_length_a       5.31241
_cell_length_b       5.22448
_cell_length_c       7.98825
_cell_angle_alpha    71.184
_cell_angle_beta     70.367
_cell_angle_gamma    77.8497

_symmetry_Int_Tables_number  2
_chemical_formula_structural  Li5Mn3Nb2O10
_chemical_formula_sum  Li5Mn3Nb2O0
_cell_volume  196.36090630828127
_cell_formula_units_Z  1
loop_
  _symmetry_equiv_pos_site_id
 _symmetry_equiv_pos_as_xyz
 1  'x, y, z'
loop_
 _atom_site_type_symbol
 _atom_site_label
 _atom_site_symmetry_multiplicity
 _atom_site_fract_x
 _atom_site_fract_y
 _atom_site_fract_z
 _atom_site_fract_occupancy
 Li  Li1  1  0.52849  0.78038  0.39962  1
 Li  Li2  1  0.50628  0.60225  0.78637  1
 Li  Li3  1  0.00000  0.50000  0.50000  1
 Li  Li4  1  0.49372  0.39775  0.21363  1
 Li  Li5  1  0.47151  0.21962  0.60038  1
 Mn  Mn1  1  0.50000  -0.00000  0.00000  1
 Mn  Mn2  1  0.98940  0.30694  0.89904  1
 Mn  Mn3  1  0.01060  0.69306  0.10096  1
 Nb  Nb1  1  0.00693  0.90705  0.67685  1
 Nb  Nb2  1  0.99307  0.09295  0.32315  1
 O  O1  1  0.25257  0.16226  0.45115  1
 O  O2  1  0.24885  0.33617  0.05827  1
 O  O3  1  0.23306  0.95298  0.84636  1
 O  O4  1  0.75115  0.66383  0.94173  1
 O  O5  1  0.74743  0.83774  0.54885  1
 O  O6  1  0.25788  0.77544  0.24305  1
 O  O7  1  0.23001  0.56128  0.65486  1
 O  O8  1  0.76999  0.43872  0.34514  1
 O  O9  1  0.74212  0.22456  0.75695  1
 O  O10  1  0.76694  0.04702  0.15364  1
