CIF file written using JARVIS-Tools package.
data_TiW
_symmetry_space_group_name_H-M  'Cmmm'
_cell_length_a       2.77687
_cell_length_b       2.77687
_cell_length_c       4.4437
_cell_angle_alpha    90
_cell_angle_beta     90
_cell_angle_gamma    110.39

_symmetry_Int_Tables_number  65
_chemical_formula_structural  TiW
_chemical_formula_sum  TiW
_cell_volume  32.11847961134695
_cell_formula_units_Z  1
loop_
  _symmetry_equiv_pos_site_id
 _symmetry_equiv_pos_as_xyz
 1  'x, y, z'
loop_
 _atom_site_type_symbol
 _atom_site_label
 _atom_site_symmetry_multiplicity
 _atom_site_fract_x
 _atom_site_fract_y
 _atom_site_fract_z
 _atom_site_fract_occupancy
 Ti  Ti1  1  0.00000  0.00000  0.00000  1
 W  W1  1  0.50000  0.50000  0.50000  1
