CIF file written using JARVIS-Tools package.
data_Np2O3
_symmetry_space_group_name_H-M  'R-3c'
_cell_length_a       6.06557
_cell_length_b       6.06557
_cell_length_c       6.06557
_cell_angle_alpha    59.0861
_cell_angle_beta     59.0861
_cell_angle_gamma    59.0861

_symmetry_Int_Tables_number  167
_chemical_formula_structural  Np2O3
_chemical_formula_sum  Np4O6
_cell_volume  154.50970465417927
_cell_formula_units_Z  2
loop_
  _symmetry_equiv_pos_site_id
 _symmetry_equiv_pos_as_xyz
 1  'x, y, z'
loop_
 _atom_site_type_symbol
 _atom_site_label
 _atom_site_symmetry_multiplicity
 _atom_site_fract_x
 _atom_site_fract_y
 _atom_site_fract_z
 _atom_site_fract_occupancy
 Np  Np1  1  0.36350  0.36350  0.36350  1
 Np  Np2  1  0.13650  0.13650  0.13650  1
 Np  Np3  1  0.86350  0.86350  0.86350  1
 Np  Np4  1  0.63650  0.63650  0.63650  1
 O  O1  1  0.75000  0.03026  0.46974  1
 O  O2  1  0.46974  0.75000  0.03026  1
 O  O3  1  0.03026  0.46974  0.75000  1
 O  O4  1  0.96974  0.53026  0.25000  1
 O  O5  1  0.53026  0.25000  0.96974  1
 O  O6  1  0.25000  0.96974  0.53026  1
