CIF file written using JARVIS-Tools package.
data_LaCo5
_symmetry_space_group_name_H-M  'P6/mmm'
_cell_length_a       3.94562
_cell_length_b       5.03589
_cell_length_c       5.03532
_cell_angle_alpha    120.004
_cell_angle_beta     90
_cell_angle_gamma    90

_symmetry_Int_Tables_number  191
_chemical_formula_structural  LaCo5
_chemical_formula_sum  LaCo5
_cell_volume  86.6428542522035
_cell_formula_units_Z  1
loop_
  _symmetry_equiv_pos_site_id
 _symmetry_equiv_pos_as_xyz
 1  'x, y, z'
loop_
 _atom_site_type_symbol
 _atom_site_label
 _atom_site_symmetry_multiplicity
 _atom_site_fract_x
 _atom_site_fract_y
 _atom_site_fract_z
 _atom_site_fract_occupancy
 Co  Co1  1  0.00000  0.33324  0.66660  1
 Co  Co2  1  0.00000  0.66664  0.33340  1
 Co  Co3  1  0.50000  0.50003  0.00000  1
 Co  Co4  1  0.50000  0.50001  0.50002  1
 Co  Co5  1  0.50000  -0.00001  0.49998  1
 La  La1  1  0.00000  0.99999  0.00000  1
