CIF file written using JARVIS-Tools package.
data_LiAlSi2O6
_symmetry_space_group_name_H-M  'P2_1/c'
_cell_length_a       5.18864
_cell_length_b       8.49862
_cell_length_c       9.15067
_cell_angle_alpha    90
_cell_angle_beta     102.773
_cell_angle_gamma    90

_symmetry_Int_Tables_number  14
_chemical_formula_structural  LiAlSi2O6
_chemical_formula_sum  Li4Al4Si8O24
_cell_volume  393.525066022976
_cell_formula_units_Z  4
loop_
  _symmetry_equiv_pos_site_id
 _symmetry_equiv_pos_as_xyz
 1  'x, y, z'
loop_
 _atom_site_type_symbol
 _atom_site_label
 _atom_site_symmetry_multiplicity
 _atom_site_fract_x
 _atom_site_fract_y
 _atom_site_fract_z
 _atom_site_fract_occupancy
 Al  Al1  1  0.02631  0.65471  0.24992  1
 Al  Al2  1  0.47369  0.15471  0.75008  1
 Al  Al3  1  0.97369  0.34529  0.75008  1
 Al  Al4  1  0.52631  0.84529  0.24992  1
 Li  Li1  1  0.02204  0.01254  0.25270  1
 Li  Li2  1  0.47796  0.51254  0.74730  1
 Li  Li3  1  0.97796  0.98746  0.74730  1
 Li  Li4  1  0.52204  0.48746  0.25270  1
 O  O1  1  0.25127  0.33035  0.63660  1
 O  O2  1  0.01238  0.21730  0.10973  1
 O  O3  1  0.19759  0.17026  0.86173  1
 O  O4  1  0.98762  0.78270  0.89027  1
 O  O5  1  0.51238  0.28270  0.10973  1
 O  O6  1  0.32985  0.98476  0.11778  1
 O  O7  1  0.87626  0.28857  0.39190  1
 O  O8  1  0.67015  0.01524  0.88222  1
 O  O9  1  0.82985  0.51524  0.11778  1
 O  O10  1  0.75127  0.16965  0.63660  1
 O  O11  1  0.30241  0.67026  0.13827  1
 O  O12  1  0.80241  0.82974  0.13827  1
 O  O13  1  0.69759  0.32974  0.86173  1
 O  O14  1  0.17015  0.48476  0.88222  1
 O  O15  1  0.74873  0.66965  0.36340  1
 O  O16  1  0.76904  0.49152  0.62443  1
 O  O17  1  0.23096  0.50848  0.37557  1
 O  O18  1  0.73096  0.99152  0.37557  1
 O  O19  1  0.48762  0.71730  0.89027  1
 O  O20  1  0.12374  0.71143  0.60810  1
 O  O21  1  0.37626  0.21143  0.39190  1
 O  O22  1  0.24873  0.83035  0.36340  1
 O  O23  1  0.26904  0.00848  0.62443  1
 O  O24  1  0.62374  0.78857  0.60810  1
 Si  Si1  1  0.27104  0.15720  0.04763  1
 Si  Si2  1  0.77104  0.34280  0.04763  1
 Si  Si3  1  0.72896  0.84280  0.95237  1
 Si  Si4  1  0.22896  0.65720  0.95237  1
 Si  Si5  1  0.18674  0.34185  0.45015  1
 Si  Si6  1  0.31326  0.84185  0.54985  1
 Si  Si7  1  0.68674  0.15815  0.45015  1
 Si  Si8  1  0.81326  0.65815  0.54985  1
