CIF file written using JARVIS-Tools package.
data_Yb2NaLiF8
_symmetry_space_group_name_H-M  'Cmcm'
_cell_length_a       6.62024
_cell_length_b       6.62023
_cell_length_c       6.96546
_cell_angle_alpha    90.011
_cell_angle_beta     89.989
_cell_angle_gamma    101.979

_symmetry_Int_Tables_number  63
_chemical_formula_structural  Yb2NaLiF8
_chemical_formula_sum  Yb4Na2Li2F6
_cell_volume  298.63129042178787
_cell_formula_units_Z  2
loop_
  _symmetry_equiv_pos_site_id
 _symmetry_equiv_pos_as_xyz
 1  'x, y, z'
loop_
 _atom_site_type_symbol
 _atom_site_label
 _atom_site_symmetry_multiplicity
 _atom_site_fract_x
 _atom_site_fract_y
 _atom_site_fract_z
 _atom_site_fract_occupancy
 F  F1  1  0.32385  0.05209  0.44752  1
 F  F2  1  0.39696  0.39696  0.75000  1
 F  F3  1  0.60304  0.60304  0.25000  1
 F  F4  1  0.32412  0.05239  0.05247  1
 F  F5  1  0.05209  0.32385  0.05248  1
 F  F6  1  0.74129  0.32169  0.75061  1
 F  F7  1  0.67831  0.25871  0.25061  1
 F  F8  1  0.67588  0.94761  0.94753  1
 F  F9  1  0.94791  0.67615  0.94752  1
 F  F10  1  0.25871  0.67831  0.24939  1
 F  F11  1  0.94761  0.67588  0.55247  1
 F  F12  1  0.09105  0.09105  0.75000  1
 F  F13  1  0.90895  0.90895  0.25000  1
 F  F14  1  0.67615  0.94791  0.55248  1
 F  F15  1  0.32169  0.74129  0.74939  1
 F  F16  1  0.05239  0.32412  0.44753  1
 Li  Li1  1  -0.00000  -0.00000  0.50000  1
 Li  Li2  1  0.00000  0.00000  0.00000  1
 Na  Na1  1  0.66440  0.66440  0.75000  1
 Na  Na2  1  0.33560  0.33560  0.25000  1
 Yb  Yb1  1  0.92324  0.54808  0.24998  1
 Yb  Yb2  1  0.07676  0.45192  0.75002  1
 Yb  Yb3  1  0.54808  0.92324  0.25002  1
 Yb  Yb4  1  0.45192  0.07676  0.74998  1
