CIF file written using JARVIS-Tools package.
data_Hf2P2O9
_symmetry_space_group_name_H-M  'Cmce'
_cell_length_a       5.45707
_cell_length_b       5.45707
_cell_length_c       11.9068
_cell_angle_alpha    90
_cell_angle_beta     90
_cell_angle_gamma    74.5942

_symmetry_Int_Tables_number  64
_chemical_formula_structural  Hf2P2O9
_chemical_formula_sum  Hf4P4O8
_cell_volume  341.838140450151
_cell_formula_units_Z  2
loop_
  _symmetry_equiv_pos_site_id
 _symmetry_equiv_pos_as_xyz
 1  'x, y, z'
loop_
 _atom_site_type_symbol
 _atom_site_label
 _atom_site_symmetry_multiplicity
 _atom_site_fract_x
 _atom_site_fract_y
 _atom_site_fract_z
 _atom_site_fract_occupancy
 Hf  Hf1  1  0.79386  0.79386  0.56180  1
 Hf  Hf2  1  0.20614  0.20614  0.43820  1
 Hf  Hf3  1  0.70614  0.70614  0.06180  1
 Hf  Hf4  1  0.29386  0.29386  0.93820  1
 O  O1  1  0.01505  0.36829  0.08523  1
 O  O2  1  0.51505  0.86829  0.41477  1
 O  O3  1  0.13171  0.48495  0.58523  1
 O  O4  1  0.63171  0.98495  0.91477  1
 O  O5  1  0.36829  0.01505  0.08523  1
 O  O6  1  0.13724  0.13724  0.27297  1
 O  O7  1  0.36276  0.36276  0.77297  1
 O  O8  1  0.50000  0.50000  0.00000  1
 O  O9  1  0.43532  0.43532  0.37699  1
 O  O10  1  0.06468  0.06468  0.87699  1
 O  O11  1  0.93532  0.93532  0.12301  1
 O  O12  1  0.00000  0.00000  0.50000  1
 O  O13  1  0.86276  0.86276  0.72703  1
 O  O14  1  0.63724  0.63724  0.22703  1
 O  O15  1  0.86829  0.51505  0.41477  1
 O  O16  1  0.98495  0.63171  0.91477  1
 O  O17  1  0.56468  0.56468  0.62301  1
 O  O18  1  0.48495  0.13171  0.58523  1
 P  P1  1  0.39371  0.39371  0.64796  1
 P  P2  1  0.60629  0.60629  0.35204  1
 P  P3  1  0.10629  0.10629  0.14796  1
 P  P4  1  0.89371  0.89371  0.85204  1
