CIF file written using JARVIS-Tools package.
data_FeNi2BO5
_symmetry_space_group_name_H-M  'Pbam'
_cell_length_a       3.01292
_cell_length_b       9.134
_cell_length_c       12.3668
_cell_angle_alpha    90
_cell_angle_beta     90
_cell_angle_gamma    90

_symmetry_Int_Tables_number  55
_chemical_formula_structural  FeNi2BO5
_chemical_formula_sum  Fe4Ni8B4O20
_cell_volume  340.3338951792473
_cell_formula_units_Z  4
loop_
  _symmetry_equiv_pos_site_id
 _symmetry_equiv_pos_as_xyz
 1  'x, y, z'
loop_
 _atom_site_type_symbol
 _atom_site_label
 _atom_site_symmetry_multiplicity
 _atom_site_fract_x
 _atom_site_fract_y
 _atom_site_fract_z
 _atom_site_fract_occupancy
 B  B1  1  0.00000  0.27410  0.35915  1
 B  B2  1  0.00000  0.72590  0.64085  1
 B  B3  1  0.00000  0.77410  0.14085  1
 B  B4  1  0.00000  0.22590  0.85915  1
 Fe  Fe1  1  0.00000  0.23881  0.11115  1
 Fe  Fe2  1  0.00000  0.73881  0.38885  1
 Fe  Fe3  1  0.00000  0.76119  0.88885  1
 Fe  Fe4  1  0.00000  0.26119  0.61115  1
 Ni  Ni1  1  0.50000  -0.00210  0.28042  1
 Ni  Ni2  1  0.50000  0.00210  0.71958  1
 Ni  Ni3  1  0.50000  0.49790  0.21958  1
 Ni  Ni4  1  0.00000  0.50000  0.00000  1
 Ni  Ni5  1  0.00000  0.00000  0.50000  1
 Ni  Ni6  1  0.50000  0.00000  0.00000  1
 Ni  Ni7  1  0.50000  0.50210  0.78042  1
 Ni  Ni8  1  0.50000  0.50000  0.50000  1
 O  O1  1  0.50000  0.89497  0.85434  1
 O  O2  1  0.00000  0.65081  0.73820  1
 O  O3  1  0.00000  0.84918  0.23820  1
 O  O4  1  0.00000  0.14892  0.95614  1
 O  O5  1  0.50000  0.11317  0.57720  1
 O  O6  1  0.50000  0.39497  0.64566  1
 O  O7  1  0.00000  0.35108  0.45614  1
 O  O8  1  0.50000  0.10503  0.14566  1
 O  O9  1  0.50000  0.60503  0.35434  1
 O  O10  1  0.00000  0.12262  0.35939  1
 O  O11  1  0.00000  0.15082  0.76180  1
 O  O12  1  0.00000  0.62262  0.14061  1
 O  O13  1  0.00000  0.37738  0.85939  1
 O  O14  1  0.50000  0.38683  0.07720  1
 O  O15  1  0.50000  0.61317  0.92280  1
 O  O16  1  0.50000  0.88683  0.42280  1
 O  O17  1  0.00000  0.64892  0.54386  1
 O  O18  1  0.00000  0.34918  0.26180  1
 O  O19  1  0.00000  0.87738  0.64061  1
 O  O20  1  0.00000  0.85108  0.04386  1
