CIF file written using JARVIS-Tools package.
data_ZnH2SeO4
_symmetry_space_group_name_H-M  'P2_1/c'
_cell_length_a       4.82
_cell_length_b       12.845
_cell_length_c       7.28684
_cell_angle_alpha    90
_cell_angle_beta     128.314
_cell_angle_gamma    90

_symmetry_Int_Tables_number  14
_chemical_formula_structural  ZnH2SeO4
_chemical_formula_sum  Zn4H8Se4O6
_cell_volume  353.98358914211815
_cell_formula_units_Z  4
loop_
  _symmetry_equiv_pos_site_id
 _symmetry_equiv_pos_as_xyz
 1  'x, y, z'
loop_
 _atom_site_type_symbol
 _atom_site_label
 _atom_site_symmetry_multiplicity
 _atom_site_fract_x
 _atom_site_fract_y
 _atom_site_fract_z
 _atom_site_fract_occupancy
 H  H1  1  0.91134  0.37315  0.71082  1
 H  H2  1  0.75681  0.10639  0.94599  1
 H  H3  1  0.24319  0.60639  0.55401  1
 H  H4  1  0.24319  0.89361  0.05401  1
 H  H5  1  0.75681  0.39361  0.44599  1
 H  H6  1  0.91134  0.12685  0.21082  1
 H  H7  1  0.08866  0.62685  0.28918  1
 H  H8  1  0.08866  0.87315  0.78918  1
 O  O1  1  0.53404  0.12538  0.62359  1
 O  O2  1  0.46596  0.62538  0.87641  1
 O  O3  1  0.46596  0.87462  0.37641  1
 O  O4  1  0.53404  0.37462  0.12359  1
 O  O5  1  -0.02175  0.39141  0.60965  1
 O  O6  1  0.02175  0.89141  0.89035  1
 O  O7  1  0.22426  0.66921  0.12315  1
 O  O8  1  -0.02175  0.10859  0.10965  1
 O  O9  1  0.21569  0.17743  0.82757  1
 O  O10  1  0.78431  0.67743  0.67243  1
 O  O11  1  0.77574  0.33079  0.87685  1
 O  O12  1  0.78431  0.82257  0.17243  1
 O  O13  1  0.21569  0.32257  0.32757  1
 O  O14  1  0.02175  0.60859  0.39035  1
 O  O15  1  0.77574  0.16921  0.37685  1
 O  O16  1  0.22426  0.83079  0.62315  1
 Se  Se1  1  0.13315  0.90459  0.38764  1
 Se  Se2  1  0.86685  0.09541  0.61236  1
 Se  Se3  1  0.13315  0.59541  0.88764  1
 Se  Se4  1  0.86685  0.40459  0.11236  1
 Zn  Zn1  1  0.28926  0.22996  0.11905  1
 Zn  Zn2  1  0.71074  0.72996  0.38095  1
 Zn  Zn3  1  0.71074  0.77004  0.88095  1
 Zn  Zn4  1  0.28926  0.27004  0.61905  1
