CIF file written using JARVIS-Tools package.
data_BaMg6Nb
_symmetry_space_group_name_H-M  'P-6m2'
_cell_length_a       6.59038
_cell_length_b       6.59038
_cell_length_c       5.19195
_cell_angle_alpha    90
_cell_angle_beta     90
_cell_angle_gamma    119.987

_symmetry_Int_Tables_number  187
_chemical_formula_structural  BaMg6Nb
_chemical_formula_sum  BaMg6Nb
_cell_volume  195.31703864412364
_cell_formula_units_Z  1
loop_
  _symmetry_equiv_pos_site_id
 _symmetry_equiv_pos_as_xyz
 1  'x, y, z'
loop_
 _atom_site_type_symbol
 _atom_site_label
 _atom_site_symmetry_multiplicity
 _atom_site_fract_x
 _atom_site_fract_y
 _atom_site_fract_z
 _atom_site_fract_occupancy
 Ba  Ba1  1  0.08333  0.41667  0.25000  1
 Mg  Mg1  1  0.11258  0.93129  0.25000  1
 Mg  Mg2  1  0.56871  0.38742  0.25000  1
 Mg  Mg3  1  0.56882  0.93118  0.25000  1
 Mg  Mg4  1  0.43601  0.59307  0.75000  1
 Mg  Mg5  1  0.90693  0.06399  0.75000  1
 Mg  Mg6  1  0.90693  0.59307  0.75000  1
 Nb  Nb1  1  0.41669  0.08331  0.75000  1
