CIF file written using JARVIS-Tools package.
data_BeW2Cl
_symmetry_space_group_name_H-M  'P4mm'
_cell_length_a       3.13318
_cell_length_b       3.13318
_cell_length_c       6.30273
_cell_angle_alpha    90
_cell_angle_beta     90
_cell_angle_gamma    90

_symmetry_Int_Tables_number  99
_chemical_formula_structural  BeW2Cl
_chemical_formula_sum  BeW2Cl
_cell_volume  61.87265848920669
_cell_formula_units_Z  1
loop_
  _symmetry_equiv_pos_site_id
 _symmetry_equiv_pos_as_xyz
 1  'x, y, z'
loop_
 _atom_site_type_symbol
 _atom_site_label
 _atom_site_symmetry_multiplicity
 _atom_site_fract_x
 _atom_site_fract_y
 _atom_site_fract_z
 _atom_site_fract_occupancy
 Be  Be1  1  0.00000  0.00000  0.43232  1
 Cl  Cl1  1  0.50000  0.50000  0.73084  1
 W  W1  1  0.00000  0.00000  0.04706  1
 W  W2  1  0.50000  0.50000  0.28977  1
