CIF file written using JARVIS-Tools package.
data_BaPr2NiO5
_symmetry_space_group_name_H-M  'Immm'
_cell_length_a       3.84056
_cell_length_b       6.00325
_cell_length_c       6.92636
_cell_angle_alpha    115.68
_cell_angle_beta     106.095
_cell_angle_gamma    90.0009

_symmetry_Int_Tables_number  71
_chemical_formula_structural  BaPr2NiO5
_chemical_formula_sum  BaPr2NiO5
_cell_volume  136.94023520144762
_cell_formula_units_Z  1
loop_
  _symmetry_equiv_pos_site_id
 _symmetry_equiv_pos_as_xyz
 1  'x, y, z'
loop_
 _atom_site_type_symbol
 _atom_site_label
 _atom_site_symmetry_multiplicity
 _atom_site_fract_x
 _atom_site_fract_y
 _atom_site_fract_z
 _atom_site_fract_occupancy
 Ba  Ba1  1  0.00000  0.00000  0.00000  1
 Ni  Ni1  1  0.50000  0.50000  0.00000  1
 O  O1  1  1.00000  0.50000  0.00000  1
 O  O2  1  0.35667  0.59973  0.71332  1
 O  O3  1  0.64333  0.40027  0.28668  1
 O  O4  1  0.64335  0.88641  0.28668  1
 O  O5  1  0.35665  0.11359  0.71332  1
 Pr  Pr1  1  0.20134  0.70135  0.40269  1
 Pr  Pr2  1  0.79866  0.29865  0.59731  1
