CIF file written using JARVIS-Tools package.
data_Mg6CoSi
_symmetry_space_group_name_H-M  'Amm2'
_cell_length_a       6.16501
_cell_length_b       6.165
_cell_length_c       4.544
_cell_angle_alpha    90
_cell_angle_beta     90
_cell_angle_gamma    119.712

_symmetry_Int_Tables_number  38
_chemical_formula_structural  Mg6CoSi
_chemical_formula_sum  Mg6CoSi
_cell_volume  149.99992271381353
_cell_formula_units_Z  1
loop_
  _symmetry_equiv_pos_site_id
 _symmetry_equiv_pos_as_xyz
 1  'x, y, z'
loop_
 _atom_site_type_symbol
 _atom_site_label
 _atom_site_symmetry_multiplicity
 _atom_site_fract_x
 _atom_site_fract_y
 _atom_site_fract_z
 _atom_site_fract_occupancy
 Co  Co1  1  0.19701  0.30299  0.25000  1
 Mg  Mg1  1  0.16880  0.85423  0.25000  1
 Mg  Mg2  1  0.64577  0.33120  0.25000  1
 Mg  Mg3  1  0.66434  0.83566  0.25000  1
 Mg  Mg4  1  0.32378  0.64160  0.75000  1
 Mg  Mg5  1  0.85840  0.17622  0.75000  1
 Mg  Mg6  1  0.83216  0.66784  0.75000  1
 Si  Si1  1  0.30974  0.19026  0.75000  1
