CIF file written using JARVIS-Tools package.
data_BeCo4Pt
_symmetry_space_group_name_H-M  'F-43m'
_cell_length_a       4.65309
_cell_length_b       4.65309
_cell_length_c       4.65309
_cell_angle_alpha    60
_cell_angle_beta     60
_cell_angle_gamma    60

_symmetry_Int_Tables_number  216
_chemical_formula_structural  BeCo4Pt
_chemical_formula_sum  BeCo4Pt
_cell_volume  71.2373325602715
_cell_formula_units_Z  1
loop_
  _symmetry_equiv_pos_site_id
 _symmetry_equiv_pos_as_xyz
 1  'x, y, z'
loop_
 _atom_site_type_symbol
 _atom_site_label
 _atom_site_symmetry_multiplicity
 _atom_site_fract_x
 _atom_site_fract_y
 _atom_site_fract_z
 _atom_site_fract_occupancy
 Be  Be1  1  0.00000  0.00000  0.00000  1
 Co  Co1  1  0.12314  0.62562  0.62562  1
 Co  Co2  1  0.62562  0.62562  0.62562  1
 Co  Co3  1  0.62562  0.12314  0.62562  1
 Co  Co4  1  0.62562  0.62562  0.12314  1
 Pt  Pt1  1  0.25000  0.25000  0.25000  1
