CIF file written using JARVIS-Tools package.
data_Mg2FeH6
_symmetry_space_group_name_H-M  'Fm-3m'
_cell_length_a       4.51789
_cell_length_b       4.51788
_cell_length_c       4.51789
_cell_angle_alpha    60
_cell_angle_beta     60.0001
_cell_angle_gamma    60.0001

_symmetry_Int_Tables_number  225
_chemical_formula_structural  Mg2FeH6
_chemical_formula_sum  Mg2FeH6
_cell_volume  65.20658164145144
_cell_formula_units_Z  1
loop_
  _symmetry_equiv_pos_site_id
 _symmetry_equiv_pos_as_xyz
 1  'x, y, z'
loop_
 _atom_site_type_symbol
 _atom_site_label
 _atom_site_symmetry_multiplicity
 _atom_site_fract_x
 _atom_site_fract_y
 _atom_site_fract_z
 _atom_site_fract_occupancy
 Fe  Fe1  1  0.00000  0.00000  0.00000  1
 H  H1  1  0.24420  0.75580  0.75580  1
 H  H2  1  0.24420  0.75580  0.24420  1
 H  H3  1  0.75580  0.24420  0.75580  1
 H  H4  1  0.75580  0.24420  0.24420  1
 H  H5  1  0.75580  0.75580  0.24420  1
 H  H6  1  0.24420  0.24420  0.75580  1
 Mg  Mg1  1  0.25000  0.25000  0.25000  1
 Mg  Mg2  1  0.75000  0.75000  0.75000  1
