CIF file written using JARVIS-Tools package.
data_CaRh2O4
_symmetry_space_group_name_H-M  'Pnma'
_cell_length_a       3.14371
_cell_length_b       9.06243
_cell_length_c       10.8323
_cell_angle_alpha    90
_cell_angle_beta     90
_cell_angle_gamma    90

_symmetry_Int_Tables_number  62
_chemical_formula_structural  CaRh2O4
_chemical_formula_sum  Ca4Rh8O6
_cell_volume  308.60694896839226
_cell_formula_units_Z  4
loop_
  _symmetry_equiv_pos_site_id
 _symmetry_equiv_pos_as_xyz
 1  'x, y, z'
loop_
 _atom_site_type_symbol
 _atom_site_label
 _atom_site_symmetry_multiplicity
 _atom_site_fract_x
 _atom_site_fract_y
 _atom_site_fract_z
 _atom_site_fract_occupancy
 Ca  Ca1  1  0.25000  0.73417  0.16037  1
 Ca  Ca2  1  0.75000  0.26583  0.83963  1
 Ca  Ca3  1  0.25000  0.23417  0.33963  1
 Ca  Ca4  1  0.75000  0.76583  0.66037  1
 O  O1  1  0.75000  0.41211  0.42705  1
 O  O2  1  0.25000  0.08789  0.92705  1
 O  O3  1  0.75000  0.91211  0.07295  1
 O  O4  1  0.25000  0.95689  0.28841  1
 O  O5  1  0.75000  0.04311  0.71159  1
 O  O6  1  0.25000  0.45689  0.21159  1
 O  O7  1  0.75000  0.54311  0.78841  1
 O  O8  1  0.25000  0.88210  0.52726  1
 O  O9  1  0.75000  0.11790  0.47274  1
 O  O10  1  0.25000  0.38210  0.97274  1
 O  O11  1  0.75000  0.61790  0.02726  1
 O  O12  1  0.75000  0.19235  0.16841  1
 O  O13  1  0.75000  0.69235  0.33159  1
 O  O14  1  0.25000  0.80765  0.83159  1
 O  O15  1  0.25000  0.58789  0.57295  1
 O  O16  1  0.25000  0.30765  0.66841  1
 Rh  Rh1  1  0.75000  0.44714  0.61664  1
 Rh  Rh2  1  0.25000  0.59222  0.90163  1
 Rh  Rh3  1  0.75000  0.40778  0.09837  1
 Rh  Rh4  1  0.25000  0.09222  0.59837  1
 Rh  Rh5  1  0.75000  0.90778  0.40163  1
 Rh  Rh6  1  0.75000  0.94714  0.88336  1
 Rh  Rh7  1  0.25000  0.05286  0.11664  1
 Rh  Rh8  1  0.25000  0.55286  0.38336  1
