CIF file written using JARVIS-Tools package.
data_PrSiPt
_symmetry_space_group_name_H-M  'I4_1md'
_cell_length_a       4.25262
_cell_length_b       4.25262
_cell_length_c       7.86544
_cell_angle_alpha    105.684
_cell_angle_beta     105.684
_cell_angle_gamma    90

_symmetry_Int_Tables_number  109
_chemical_formula_structural  PrSiPt
_chemical_formula_sum  Pr2Si2Pt2
_cell_volume  131.43918504041798
_cell_formula_units_Z  2
loop_
  _symmetry_equiv_pos_site_id
 _symmetry_equiv_pos_as_xyz
 1  'x, y, z'
loop_
 _atom_site_type_symbol
 _atom_site_label
 _atom_site_symmetry_multiplicity
 _atom_site_fract_x
 _atom_site_fract_y
 _atom_site_fract_z
 _atom_site_fract_occupancy
 Pr  Pr1  1  0.24914  0.74914  0.49828  1
 Pr  Pr2  1  0.99914  0.99914  0.99828  1
 Pt  Pt1  1  0.83655  0.33655  0.67309  1
 Pt  Pt2  1  0.58655  0.58655  0.17309  1
 Si  Si1  1  0.66831  0.16831  0.33663  1
 Si  Si2  1  0.41831  0.41831  0.83663  1
