CIF file written using JARVIS-Tools package.
data_Li2H2Pd
_symmetry_space_group_name_H-M  'I4/mmm'
_cell_length_a       5.5725
_cell_length_b       5.5725
_cell_length_c       5.5725
_cell_angle_alpha    147.633
_cell_angle_beta     147.633
_cell_angle_gamma    46.4269

_symmetry_Int_Tables_number  139
_chemical_formula_structural  Li2H2Pd
_chemical_formula_sum  Li2H2Pd
_cell_volume  49.41477935596161
_cell_formula_units_Z  1
loop_
  _symmetry_equiv_pos_site_id
 _symmetry_equiv_pos_as_xyz
 1  'x, y, z'
loop_
 _atom_site_type_symbol
 _atom_site_label
 _atom_site_symmetry_multiplicity
 _atom_site_fract_x
 _atom_site_fract_y
 _atom_site_fract_z
 _atom_site_fract_occupancy
 H  H1  1  0.83505  0.83505  0.00000  1
 H  H2  1  0.16495  0.16495  0.00000  1
 Li  Li1  1  0.64596  0.64596  0.00000  1
 Li  Li2  1  0.35404  0.35404  0.00000  1
 Pd  Pd1  1  0.00000  0.00000  0.00000  1
