CIF file written using JARVIS-Tools package.
data_Li2BeCu
_symmetry_space_group_name_H-M  'P4mm'
_cell_length_a       2.8105
_cell_length_b       2.8105
_cell_length_c       6.74259
_cell_angle_alpha    90
_cell_angle_beta     90
_cell_angle_gamma    90

_symmetry_Int_Tables_number  99
_chemical_formula_structural  Li2BeCu
_chemical_formula_sum  Li2BeCu
_cell_volume  53.25901850946761
_cell_formula_units_Z  1
loop_
  _symmetry_equiv_pos_site_id
 _symmetry_equiv_pos_as_xyz
 1  'x, y, z'
loop_
 _atom_site_type_symbol
 _atom_site_label
 _atom_site_symmetry_multiplicity
 _atom_site_fract_x
 _atom_site_fract_y
 _atom_site_fract_z
 _atom_site_fract_occupancy
 Be  Be1  1  0.00000  0.00000  0.54703  1
 Cu  Cu1  1  0.50000  0.50000  0.69974  1
 Li  Li1  1  0.00000  0.00000  0.95630  1
 Li  Li2  1  0.50000  0.50000  0.29694  1
