CIF file written using JARVIS-Tools package.
data_ThCr2B6
_symmetry_space_group_name_H-M  'Immm'
_cell_length_a       3.13655
_cell_length_b       5.54178
_cell_length_c       5.54178
_cell_angle_alpha    72.8314
_cell_angle_beta     73.5612
_cell_angle_gamma    73.5612

_symmetry_Int_Tables_number  71
_chemical_formula_structural  ThCr2B6
_chemical_formula_sum  ThCr2B6
_cell_volume  86.15660147924389
_cell_formula_units_Z  1
loop_
  _symmetry_equiv_pos_site_id
 _symmetry_equiv_pos_as_xyz
 1  'x, y, z'
loop_
 _atom_site_type_symbol
 _atom_site_label
 _atom_site_symmetry_multiplicity
 _atom_site_fract_x
 _atom_site_fract_y
 _atom_site_fract_z
 _atom_site_fract_occupancy
 B  B1  1  0.69655  0.53983  0.06706  1
 B  B2  1  0.30345  0.46017  0.93294  1
 B  B3  1  0.30345  0.93294  0.46017  1
 B  B4  1  0.50000  0.35968  0.64032  1
 B  B5  1  0.50000  0.64032  0.35968  1
 B  B6  1  0.69655  0.06706  0.53983  1
 Cr  Cr1  1  0.84548  0.65452  0.65452  1
 Cr  Cr2  1  0.15452  0.34548  0.34548  1
 Th  Th1  1  0.00000  0.00000  0.00000  1
