CIF file written using JARVIS-Tools package.
data_TaTeBr9
_symmetry_space_group_name_H-M  'P2_1/m'
_cell_length_a       6.59986
_cell_length_b       9.92935
_cell_length_c       11.3861
_cell_angle_alpha    90
_cell_angle_beta     90
_cell_angle_gamma    103.33

_symmetry_Int_Tables_number  11
_chemical_formula_structural  TaTeBr9
_chemical_formula_sum  Ta2Te2Br8
_cell_volume  726.0555795533703
_cell_formula_units_Z  2
loop_
  _symmetry_equiv_pos_site_id
 _symmetry_equiv_pos_as_xyz
 1  'x, y, z'
loop_
 _atom_site_type_symbol
 _atom_site_label
 _atom_site_symmetry_multiplicity
 _atom_site_fract_x
 _atom_site_fract_y
 _atom_site_fract_z
 _atom_site_fract_occupancy
 Br  Br1  1  0.24314  0.99063  0.40989  1
 Br  Br2  1  0.46645  0.69359  0.09433  1
 Br  Br3  1  0.46645  0.69359  0.40567  1
 Br  Br4  1  0.53355  0.30641  0.90567  1
 Br  Br5  1  0.27708  -0.00011  0.75000  1
 Br  Br6  1  0.72292  0.00011  0.25000  1
 Br  Br7  1  0.45650  0.66073  0.75000  1
 Br  Br8  1  0.54350  0.33927  0.25000  1
 Br  Br9  1  0.00192  0.31440  0.75000  1
 Br  Br10  1  0.53355  0.30641  0.59433  1
 Br  Br11  1  0.75686  0.00937  0.90989  1
 Br  Br12  1  0.24314  0.99063  0.09011  1
 Br  Br13  1  0.75686  0.00937  0.59011  1
 Br  Br14  1  0.96550  0.67660  0.91876  1
 Br  Br15  1  0.03450  0.32340  0.41876  1
 Br  Br16  1  0.03450  0.32340  0.08124  1
 Br  Br17  1  0.96550  0.67660  0.58124  1
 Br  Br18  1  -0.00192  0.68560  0.25000  1
 Ta  Ta1  1  0.36317  0.86373  0.25000  1
 Ta  Ta2  1  0.63683  0.13627  0.75000  1
 Te  Te1  1  0.24121  0.45999  0.25000  1
 Te  Te2  1  0.75879  0.54001  0.75000  1
