CIF file written using JARVIS-Tools package.
data_Mg2SiO4
_symmetry_space_group_name_H-M  'Imma'
_cell_length_a       5.74291
_cell_length_b       7.66318
_cell_length_c       7.66318
_cell_angle_alpha    65.5832
_cell_angle_beta     67.9937
_cell_angle_gamma    67.9937

_symmetry_Int_Tables_number  74
_chemical_formula_structural  Mg2SiO4
_chemical_formula_sum  Mg8Si4O6
_cell_volume  274.89244191605115
_cell_formula_units_Z  4
loop_
  _symmetry_equiv_pos_site_id
 _symmetry_equiv_pos_as_xyz
 1  'x, y, z'
loop_
 _atom_site_type_symbol
 _atom_site_label
 _atom_site_symmetry_multiplicity
 _atom_site_fract_x
 _atom_site_fract_y
 _atom_site_fract_z
 _atom_site_fract_occupancy
 Mg  Mg1  1  0.37779  0.12221  0.62221  1
 Mg  Mg2  1  0.12221  0.87779  0.37779  1
 Mg  Mg3  1  0.62221  0.87779  0.37779  1
 Mg  Mg4  1  0.87779  0.12221  0.62221  1
 Mg  Mg5  1  0.75000  0.27881  0.22119  1
 Mg  Mg6  1  0.25000  0.72119  0.77881  1
 Mg  Mg7  1  0.50000  0.50000  0.50000  1
 Mg  Mg8  1  0.00000  0.00000  0.00000  1
 O  O1  1  0.38296  0.87009  0.88447  1
 O  O2  1  0.13752  0.12991  0.11553  1
 O  O3  1  0.11704  0.61553  0.62991  1
 O  O4  1  0.88296  0.38447  0.37009  1
 O  O5  1  0.61704  0.12991  0.11553  1
 O  O6  1  0.86248  0.87009  0.88447  1
 O  O7  1  0.49092  0.25420  0.76396  1
 O  O8  1  0.36248  0.38447  0.37009  1
 O  O9  1  0.50908  0.74580  0.23604  1
 O  O10  1  0.25000  0.46805  0.03195  1
 O  O11  1  0.99092  0.26396  0.75420  1
 O  O12  1  0.63752  0.61553  0.62991  1
 O  O13  1  0.25000  0.96778  0.53222  1
 O  O14  1  0.75000  0.53195  0.96805  1
 O  O15  1  0.00908  0.73604  0.24580  1
 O  O16  1  0.75000  0.03222  0.46778  1
 Si  Si1  1  0.38049  0.23664  0.00239  1
 Si  Si2  1  0.11951  0.49761  0.26336  1
 Si  Si3  1  0.88049  0.50239  0.73664  1
 Si  Si4  1  0.61951  0.76336  0.99761  1
