CIF file written using JARVIS-Tools package.
data_Cu3OF5
_symmetry_space_group_name_H-M  'Pmn2_1'
_cell_length_a       4.56179
_cell_length_b       4.60557
_cell_length_c       10.4906
_cell_angle_alpha    90
_cell_angle_beta     115.735
_cell_angle_gamma    90

_symmetry_Int_Tables_number  31
_chemical_formula_structural  Cu3OF5
_chemical_formula_sum  Cu6O2F0
_cell_volume  198.54397883337177
_cell_formula_units_Z  2
loop_
  _symmetry_equiv_pos_site_id
 _symmetry_equiv_pos_as_xyz
 1  'x, y, z'
loop_
 _atom_site_type_symbol
 _atom_site_label
 _atom_site_symmetry_multiplicity
 _atom_site_fract_x
 _atom_site_fract_y
 _atom_site_fract_z
 _atom_site_fract_occupancy
 Cu  Cu1  1  0.97835  0.25650  0.99275  1
 Cu  Cu2  1  0.35558  0.79779  0.83330  1
 Cu  Cu3  1  0.65946  0.25674  0.67391  1
 Cu  Cu4  1  0.97835  0.74350  0.49275  1
 Cu  Cu5  1  0.35558  0.20221  0.33330  1
 Cu  Cu6  1  0.65946  0.74326  0.17391  1
 F  F1  1  0.35017  0.43494  0.15877  1
 F  F2  1  0.05444  0.50313  0.83347  1
 F  F3  1  0.35017  0.56506  0.65877  1
 F  F4  1  0.29543  0.97453  0.99846  1
 F  F5  1  0.29543  0.02547  0.49846  1
 F  F6  1  0.96456  0.02536  0.16789  1
 F  F7  1  0.05444  0.49687  0.33347  1
 F  F8  1  0.96456  0.97464  0.66789  1
 F  F9  1  0.69949  0.43546  0.50816  1
 F  F10  1  0.69949  0.56454  0.00816  1
 O  O1  1  0.64252  0.91401  0.33331  1
 O  O2  1  0.64252  0.08599  0.83331  1
