CIF file written using JARVIS-Tools package.
data_LiMg6Mo
_symmetry_space_group_name_H-M  'P4/mmm'
_cell_length_a       6.07005
_cell_length_b       8.58472
_cell_length_c       4.33261
_cell_angle_alpha    90
_cell_angle_beta     90
_cell_angle_gamma    135.002

_symmetry_Int_Tables_number  123
_chemical_formula_structural  LiMg6Mo
_chemical_formula_sum  LiMg6Mo
_cell_volume  159.63747316196262
_cell_formula_units_Z  1
loop_
  _symmetry_equiv_pos_site_id
 _symmetry_equiv_pos_as_xyz
 1  'x, y, z'
loop_
 _atom_site_type_symbol
 _atom_site_label
 _atom_site_symmetry_multiplicity
 _atom_site_fract_x
 _atom_site_fract_y
 _atom_site_fract_z
 _atom_site_fract_occupancy
 Li  Li1  1  0.25010  0.37505  0.25000  1
 Mg  Mg1  1  0.75001  0.37498  0.25000  1
 Mg  Mg2  1  0.75001  0.87503  0.25000  1
 Mg  Mg3  1  0.24997  0.11269  0.75000  1
 Mg  Mg4  1  0.24997  0.63729  0.75000  1
 Mg  Mg5  1  0.72541  0.11270  0.75000  1
 Mg  Mg6  1  0.77456  0.63728  0.75000  1
 Mo  Mo1  1  0.24996  0.87498  0.25000  1
