CIF file written using JARVIS-Tools package.
data_CaNi5H
_symmetry_space_group_name_H-M  'Cmmm'
_cell_length_a       3.93086
_cell_length_b       4.86475
_cell_length_c       5.07931
_cell_angle_alpha    61.3886
_cell_angle_beta     90
_cell_angle_gamma    90

_symmetry_Int_Tables_number  65
_chemical_formula_structural  CaNi5H
_chemical_formula_sum  CaNi5H
_cell_volume  85.26899269211096
_cell_formula_units_Z  1
loop_
  _symmetry_equiv_pos_site_id
 _symmetry_equiv_pos_as_xyz
 1  'x, y, z'
loop_
 _atom_site_type_symbol
 _atom_site_label
 _atom_site_symmetry_multiplicity
 _atom_site_fract_x
 _atom_site_fract_y
 _atom_site_fract_z
 _atom_site_fract_occupancy
 Ca  Ca1  1  0.00000  0.00000  0.00000  1
 H  H1  1  0.00000  0.50000  0.00000  1
 Ni  Ni1  1  0.00000  0.68133  0.63733  1
 Ni  Ni2  1  0.00000  0.31867  0.36267  1
 Ni  Ni3  1  0.50000  0.50000  0.00000  1
 Ni  Ni4  1  0.50000  0.50000  0.50000  1
 Ni  Ni5  1  0.50000  0.00000  0.50000  1
