CIF file written using JARVIS-Tools package.
data_Fe3Se4
_symmetry_space_group_name_H-M  'P-3m1'
_cell_length_a       3.52732
_cell_length_b       3.52688
_cell_length_c       11.1208
_cell_angle_alpha    89.9812
_cell_angle_beta     90
_cell_angle_gamma    120.004

_symmetry_Int_Tables_number  164
_chemical_formula_structural  Fe3Se4
_chemical_formula_sum  Fe3Se4
_cell_volume  119.80778036995251
_cell_formula_units_Z  1
loop_
  _symmetry_equiv_pos_site_id
 _symmetry_equiv_pos_as_xyz
 1  'x, y, z'
loop_
 _atom_site_type_symbol
 _atom_site_label
 _atom_site_symmetry_multiplicity
 _atom_site_fract_x
 _atom_site_fract_y
 _atom_site_fract_z
 _atom_site_fract_occupancy
 Fe  Fe1  1  -0.00000  -0.00000  0.50000  1
 Fe  Fe2  1  0.00020  0.00041  0.23716  1
 Fe  Fe3  1  -0.00020  -0.00041  0.76284  1
 Se  Se1  1  0.33345  0.66689  0.36612  1
 Se  Se2  1  0.66655  0.33311  0.63388  1
 Se  Se3  1  0.33308  0.66616  0.87518  1
 Se  Se4  1  0.66692  0.33384  0.12482  1
