CIF file written using JARVIS-Tools package.
data_NiO2
_symmetry_space_group_name_H-M  'Immm'
_cell_length_a       3.47392
_cell_length_b       5.00097
_cell_length_c       3.47392
_cell_angle_alpha    104.766
_cell_angle_beta     92.0922
_cell_angle_gamma    75.2336

_symmetry_Int_Tables_number  71
_chemical_formula_structural  NiO2
_chemical_formula_sum  Ni2O4
_cell_volume  56.405639856657814
_cell_formula_units_Z  2
loop_
  _symmetry_equiv_pos_site_id
 _symmetry_equiv_pos_as_xyz
 1  'x, y, z'
loop_
 _atom_site_type_symbol
 _atom_site_label
 _atom_site_symmetry_multiplicity
 _atom_site_fract_x
 _atom_site_fract_y
 _atom_site_fract_z
 _atom_site_fract_occupancy
 Ni  Ni1  1  0.24999  0.24999  0.75001  1
 Ni  Ni2  1  0.75002  0.75001  0.24998  1
 O  O1  1  0.24456  0.50000  0.24456  1
 O  O2  1  0.74455  -0.00000  0.74456  1
 O  O3  1  0.25544  -0.00000  0.25545  1
 O  O4  1  0.75544  0.50000  0.75544  1
