CIF file written using JARVIS-Tools package.
data_BaMg6Ni
_symmetry_space_group_name_H-M  'Amm2'
_cell_length_a       7.7284
_cell_length_b       5.98138
_cell_length_c       4.92868
_cell_angle_alpha    90
_cell_angle_beta     90
_cell_angle_gamma    112.766

_symmetry_Int_Tables_number  38
_chemical_formula_structural  BaMg6Ni
_chemical_formula_sum  BaMg6Ni
_cell_volume  210.085337107306
_cell_formula_units_Z  1
loop_
  _symmetry_equiv_pos_site_id
 _symmetry_equiv_pos_as_xyz
 1  'x, y, z'
loop_
 _atom_site_type_symbol
 _atom_site_label
 _atom_site_symmetry_multiplicity
 _atom_site_fract_x
 _atom_site_fract_y
 _atom_site_fract_z
 _atom_site_fract_occupancy
 Ba  Ba1  1  0.08925  0.79462  0.25000  1
 Mg  Mg1  1  0.61232  0.29998  0.25000  1
 Mg  Mg2  1  0.61232  0.81233  0.25000  1
 Mg  Mg3  1  0.34741  0.18820  0.75000  1
 Mg  Mg4  1  0.34741  0.65922  0.75000  1
 Mg  Mg5  1  0.91808  0.20904  0.75000  1
 Mg  Mg6  1  0.74675  0.62338  0.75000  1
 Ni  Ni1  1  0.32645  0.41323  0.25000  1
