CIF file written using JARVIS-Tools package.
data_Mg6SbMo
_symmetry_space_group_name_H-M  'Amm2'
_cell_length_a       6.09866
_cell_length_b       6.09866
_cell_length_c       5.00293
_cell_angle_alpha    90
_cell_angle_beta     90
_cell_angle_gamma    118.414

_symmetry_Int_Tables_number  38
_chemical_formula_structural  Mg6SbMo
_chemical_formula_sum  Mg6SbMo
_cell_volume  163.66072963829106
_cell_formula_units_Z  1
loop_
  _symmetry_equiv_pos_site_id
 _symmetry_equiv_pos_as_xyz
 1  'x, y, z'
loop_
 _atom_site_type_symbol
 _atom_site_label
 _atom_site_symmetry_multiplicity
 _atom_site_fract_x
 _atom_site_fract_y
 _atom_site_fract_z
 _atom_site_fract_occupancy
 Mg  Mg1  1  0.16136  0.82486  0.25000  1
 Mg  Mg2  1  0.67514  0.33864  0.25000  1
 Mg  Mg3  1  0.66498  0.83502  0.25000  1
 Mg  Mg4  1  0.32614  0.65252  0.75000  1
 Mg  Mg5  1  0.84748  0.17386  0.75000  1
 Mg  Mg6  1  0.83325  0.66675  0.75000  1
 Mo  Mo1  1  0.16537  0.33463  0.25000  1
 Sb  Sb1  1  0.32627  0.17373  0.75000  1
