CIF file written using JARVIS-Tools package.
data_TiGeSb
_symmetry_space_group_name_H-M  'P4/nmm'
_cell_length_a       3.73861
_cell_length_b       3.73861
_cell_length_c       8.26279
_cell_angle_alpha    90
_cell_angle_beta     90
_cell_angle_gamma    90

_symmetry_Int_Tables_number  129
_chemical_formula_structural  TiGeSb
_chemical_formula_sum  Ti2Ge2Sb2
_cell_volume  115.49073087306137
_cell_formula_units_Z  2
loop_
  _symmetry_equiv_pos_site_id
 _symmetry_equiv_pos_as_xyz
 1  'x, y, z'
loop_
 _atom_site_type_symbol
 _atom_site_label
 _atom_site_symmetry_multiplicity
 _atom_site_fract_x
 _atom_site_fract_y
 _atom_site_fract_z
 _atom_site_fract_occupancy
 Ge  Ge1  1  0.75000  0.25000  0.00000  1
 Ge  Ge2  1  0.25000  0.75000  0.00000  1
 Sb  Sb1  1  0.75000  0.75000  0.38141  1
 Sb  Sb2  1  0.25000  0.25000  0.61859  1
 Ti  Ti1  1  0.75000  0.75000  0.75228  1
 Ti  Ti2  1  0.25000  0.25000  0.24772  1
