CIF file written using JARVIS-Tools package.
data_CeMg6Si
_symmetry_space_group_name_H-M  'Amm2'
_cell_length_a       7.20131
_cell_length_b       5.84816
_cell_length_c       4.87435
_cell_angle_alpha    90
_cell_angle_beta     90
_cell_angle_gamma    113.957

_symmetry_Int_Tables_number  38
_chemical_formula_structural  CeMg6Si
_chemical_formula_sum  CeMg6Si
_cell_volume  187.59552437035043
_cell_formula_units_Z  1
loop_
  _symmetry_equiv_pos_site_id
 _symmetry_equiv_pos_as_xyz
 1  'x, y, z'
loop_
 _atom_site_type_symbol
 _atom_site_label
 _atom_site_symmetry_multiplicity
 _atom_site_fract_x
 _atom_site_fract_y
 _atom_site_fract_z
 _atom_site_fract_occupancy
 Ce  Ce1  1  0.10762  0.30381  0.25000  1
 Mg  Mg1  1  0.62265  0.31486  0.25000  1
 Mg  Mg2  1  0.62265  0.80779  0.25000  1
 Mg  Mg3  1  0.35243  0.17779  0.75000  1
 Mg  Mg4  1  0.35243  0.67465  0.75000  1
 Mg  Mg5  1  0.78518  0.14259  0.75000  1
 Mg  Mg6  1  0.92630  0.71315  0.75000  1
 Si  Si1  1  0.23074  0.86537  0.25000  1
