CIF file written using JARVIS-Tools package.
data_Li3CrS4
_symmetry_space_group_name_H-M  'P-43m'
_cell_length_a       5.81553
_cell_length_b       5.81553
_cell_length_c       5.81553
_cell_angle_alpha    90
_cell_angle_beta     90
_cell_angle_gamma    90

_symmetry_Int_Tables_number  215
_chemical_formula_structural  Li3CrS4
_chemical_formula_sum  Li3CrS4
_cell_volume  196.68374540774772
_cell_formula_units_Z  1
loop_
  _symmetry_equiv_pos_site_id
 _symmetry_equiv_pos_as_xyz
 1  'x, y, z'
loop_
 _atom_site_type_symbol
 _atom_site_label
 _atom_site_symmetry_multiplicity
 _atom_site_fract_x
 _atom_site_fract_y
 _atom_site_fract_z
 _atom_site_fract_occupancy
 Cr  Cr1  1  0.00000  0.00000  0.00000  1
 Li  Li1  1  0.00000  0.00000  0.50000  1
 Li  Li2  1  0.00000  0.50000  0.00000  1
 Li  Li3  1  0.50000  0.00000  0.00000  1
 S  S1  1  0.21186  0.21186  0.21186  1
 S  S2  1  0.21186  0.78814  0.78814  1
 S  S3  1  0.78814  0.21186  0.78814  1
 S  S4  1  0.78814  0.78814  0.21186  1
