CIF file written using JARVIS-Tools package.
data_Nd2CdRh2
_symmetry_space_group_name_H-M  'P4/mbm'
_cell_length_a       7.64576
_cell_length_b       7.64576
_cell_length_c       3.88923
_cell_angle_alpha    90
_cell_angle_beta     90
_cell_angle_gamma    90

_symmetry_Int_Tables_number  127
_chemical_formula_structural  Nd2CdRh2
_chemical_formula_sum  Nd4Cd2Rh4
_cell_volume  227.35513466740898
_cell_formula_units_Z  2
loop_
  _symmetry_equiv_pos_site_id
 _symmetry_equiv_pos_as_xyz
 1  'x, y, z'
loop_
 _atom_site_type_symbol
 _atom_site_label
 _atom_site_symmetry_multiplicity
 _atom_site_fract_x
 _atom_site_fract_y
 _atom_site_fract_z
 _atom_site_fract_occupancy
 Cd  Cd1  1  0.00000  0.00000  0.00000  1
 Cd  Cd2  1  0.50000  0.50000  0.00000  1
 Nd  Nd1  1  0.66798  0.16798  0.50000  1
 Nd  Nd2  1  0.33202  0.83202  0.50000  1
 Nd  Nd3  1  0.16798  0.33202  0.50000  1
 Nd  Nd4  1  0.83202  0.66798  0.50000  1
 Rh  Rh1  1  0.13387  0.63387  0.00000  1
 Rh  Rh2  1  0.86613  0.36613  0.00000  1
 Rh  Rh3  1  0.63387  0.86613  0.00000  1
 Rh  Rh4  1  0.36613  0.13387  0.00000  1
