CIF file written using JARVIS-Tools package.
data_Li3Fe3O8
_symmetry_space_group_name_H-M  'R-3m'
_cell_length_a       5.63482
_cell_length_b       5.63484
_cell_length_c       5.77617
_cell_angle_alpha    90.0009
_cell_angle_beta     119.194
_cell_angle_gamma    120

_symmetry_Int_Tables_number  166
_chemical_formula_structural  Li3Fe3O8
_chemical_formula_sum  Li3Fe3O8
_cell_volume  131.24175093984766
_cell_formula_units_Z  1
loop_
  _symmetry_equiv_pos_site_id
 _symmetry_equiv_pos_as_xyz
 1  'x, y, z'
loop_
 _atom_site_type_symbol
 _atom_site_label
 _atom_site_symmetry_multiplicity
 _atom_site_fract_x
 _atom_site_fract_y
 _atom_site_fract_z
 _atom_site_fract_occupancy
 Fe  Fe1  1  0.50058  0.50038  0.50093  1
 Fe  Fe2  1  0.50058  0.00037  0.50093  1
 Fe  Fe3  1  0.00058  0.00037  0.50093  1
 Li  Li1  1  0.00058  0.00037  0.00093  1
 Li  Li2  1  0.24157  0.62086  0.86241  1
 Li  Li3  1  0.75959  0.37989  0.13944  1
 O  O1  1  0.50240  0.75129  0.71295  1
 O  O2  1  0.96166  0.75125  0.71290  1
 O  O3  1  0.96167  0.21057  0.71293  1
 O  O4  1  0.47713  0.23866  0.71577  1
 O  O5  1  0.49876  0.24946  0.28891  1
 O  O6  1  0.03951  0.24949  0.28895  1
 O  O7  1  0.03949  0.79018  0.28892  1
 O  O8  1  0.52403  0.76209  0.28609  1
