CIF file written using JARVIS-Tools package.
data_Ta2CrNO5
_symmetry_space_group_name_H-M  'Pmn2_1'
_cell_length_a       4.72054
_cell_length_b       4.72541
_cell_length_c       9.20463
_cell_angle_alpha    90
_cell_angle_beta     90
_cell_angle_gamma    90

_symmetry_Int_Tables_number  31
_chemical_formula_structural  Ta2CrNO5
_chemical_formula_sum  Ta4Cr2N2O0
_cell_volume  205.32317364548317
_cell_formula_units_Z  2
loop_
  _symmetry_equiv_pos_site_id
 _symmetry_equiv_pos_as_xyz
 1  'x, y, z'
loop_
 _atom_site_type_symbol
 _atom_site_label
 _atom_site_symmetry_multiplicity
 _atom_site_fract_x
 _atom_site_fract_y
 _atom_site_fract_z
 _atom_site_fract_occupancy
 Cr  Cr1  1  0.75008  0.99352  0.00000  1
 Cr  Cr2  1  0.24992  0.49352  0.50000  1
 N  N1  1  0.45216  0.69555  0.00000  1
 N  N2  1  0.54784  0.19555  0.50000  1
 O  O1  1  0.44567  0.69160  0.66761  1
 O  O2  1  0.55433  0.19160  0.16761  1
 O  O3  1  0.94650  0.80009  0.83326  1
 O  O4  1  0.94650  0.80009  0.16674  1
 O  O5  1  0.94414  0.80005  0.50000  1
 O  O6  1  0.05350  0.30009  0.66674  1
 O  O7  1  0.55433  0.19160  0.83239  1
 O  O8  1  0.44567  0.69160  0.33239  1
 O  O9  1  0.05350  0.30009  0.33326  1
 O  O10  1  0.05586  0.30005  0.00000  1
 Ta  Ta1  1  0.25590  0.51375  0.83761  1
 Ta  Ta2  1  0.25590  0.51375  0.16239  1
 Ta  Ta3  1  0.74410  0.01375  0.66239  1
 Ta  Ta4  1  0.74410  0.01375  0.33761  1
