CIF file written using JARVIS-Tools package.
data_La2Fe2I
_symmetry_space_group_name_H-M  'P6_3/mmc'
_cell_length_a       4.04742
_cell_length_b       4.04742
_cell_length_c       18.1621
_cell_angle_alpha    90
_cell_angle_beta     90
_cell_angle_gamma    120

_symmetry_Int_Tables_number  194
_chemical_formula_structural  La2Fe2I
_chemical_formula_sum  La4Fe4I2
_cell_volume  257.66398307012616
_cell_formula_units_Z  2
loop_
  _symmetry_equiv_pos_site_id
 _symmetry_equiv_pos_as_xyz
 1  'x, y, z'
loop_
 _atom_site_type_symbol
 _atom_site_label
 _atom_site_symmetry_multiplicity
 _atom_site_fract_x
 _atom_site_fract_y
 _atom_site_fract_z
 _atom_site_fract_occupancy
 Fe  Fe1  1  0.66667  0.33333  0.99839  1
 Fe  Fe2  1  0.33333  0.66667  0.49839  1
 Fe  Fe3  1  0.33333  0.66667  0.00161  1
 Fe  Fe4  1  0.66667  0.33333  0.50161  1
 I  I1  1  0.66667  0.33333  0.25000  1
 I  I2  1  0.33333  0.66667  0.75000  1
 La  La1  1  0.00000  0.00000  0.10673  1
 La  La2  1  0.00000  0.00000  0.60673  1
 La  La3  1  0.00000  0.00000  0.89327  1
 La  La4  1  0.00000  0.00000  0.39327  1
