CIF file written using JARVIS-Tools package.
data_Mg6AlMo
_symmetry_space_group_name_H-M  'Amm2'
_cell_length_a       6.17468
_cell_length_b       6.17467
_cell_length_c       4.80189
_cell_angle_alpha    90
_cell_angle_beta     90
_cell_angle_gamma    120.542

_symmetry_Int_Tables_number  38
_chemical_formula_structural  Mg6AlMo
_chemical_formula_sum  Mg6AlMo
_cell_volume  157.67919960608003
_cell_formula_units_Z  1
loop_
  _symmetry_equiv_pos_site_id
 _symmetry_equiv_pos_as_xyz
 1  'x, y, z'
loop_
 _atom_site_type_symbol
 _atom_site_label
 _atom_site_symmetry_multiplicity
 _atom_site_fract_x
 _atom_site_fract_y
 _atom_site_fract_z
 _atom_site_fract_occupancy
 Al  Al1  1  0.18768  0.31232  0.25000  1
 Mg  Mg1  1  0.17663  0.84761  0.25000  1
 Mg  Mg2  1  0.65239  0.32337  0.25000  1
 Mg  Mg3  1  0.66891  0.83109  0.25000  1
 Mg  Mg4  1  0.32717  0.66634  0.75000  1
 Mg  Mg5  1  0.83366  0.17283  0.75000  1
 Mg  Mg6  1  0.83179  0.66821  0.75000  1
 Mo  Mo1  1  0.32178  0.17822  0.75000  1
