CIF file written using JARVIS-Tools package.
data_NaI3O8
_symmetry_space_group_name_H-M  'P-4'
_cell_length_a       5.75782
_cell_length_b       8.02829
_cell_length_c       8.02829
_cell_angle_alpha    90
_cell_angle_beta     90
_cell_angle_gamma    90

_symmetry_Int_Tables_number  81
_chemical_formula_structural  NaI3O8
_chemical_formula_sum  Na2I6O6
_cell_volume  371.11138050774
_cell_formula_units_Z  2
loop_
  _symmetry_equiv_pos_site_id
 _symmetry_equiv_pos_as_xyz
 1  'x, y, z'
loop_
 _atom_site_type_symbol
 _atom_site_label
 _atom_site_symmetry_multiplicity
 _atom_site_fract_x
 _atom_site_fract_y
 _atom_site_fract_z
 _atom_site_fract_occupancy
 I  I1  1  0.58727  0.50000  0.00000  1
 I  I2  1  0.10508  0.73357  0.24762  1
 I  I3  1  0.41273  0.00000  0.50000  1
 I  I4  1  0.89492  0.24762  0.26643  1
 I  I5  1  0.10508  0.26643  0.75238  1
 I  I6  1  0.89492  0.75238  0.73357  1
 Na  Na1  1  0.50000  0.50000  0.50000  1
 Na  Na2  1  0.50000  0.00000  0.00000  1
 O  O1  1  0.15226  0.48955  0.73096  1
 O  O2  1  0.27177  0.23204  0.94254  1
 O  O3  1  0.78674  0.67215  0.05778  1
 O  O4  1  0.72823  0.94254  0.76796  1
 O  O5  1  0.21326  0.05778  0.32785  1
 O  O6  1  0.84774  0.26904  0.48955  1
 O  O7  1  0.72823  0.05746  0.23204  1
 O  O8  1  0.27177  0.76796  0.05746  1
 O  O9  1  0.36991  0.76339  0.40233  1
 O  O10  1  0.36991  0.23661  0.59767  1
 O  O11  1  0.63009  0.40233  0.23661  1
 O  O12  1  0.21326  0.94222  0.67215  1
 O  O13  1  0.63009  0.59767  0.76339  1
 O  O14  1  0.78674  0.32785  0.94222  1
 O  O15  1  0.84774  0.73096  0.51045  1
 O  O16  1  0.15226  0.51045  0.26904  1
