CIF file written using JARVIS-Tools package.
data_HoNi2B2
_symmetry_space_group_name_H-M  'C2/c'
_cell_length_a       4.93599
_cell_length_b       4.93598
_cell_length_c       6.09453
_cell_angle_alpha    102.489
_cell_angle_beta     103.55
_cell_angle_gamma    116.341

_symmetry_Int_Tables_number  15
_chemical_formula_structural  HoNi2B2
_chemical_formula_sum  Ho2Ni4B4
_cell_volume  120.31104400848312
_cell_formula_units_Z  2
loop_
  _symmetry_equiv_pos_site_id
 _symmetry_equiv_pos_as_xyz
 1  'x, y, z'
loop_
 _atom_site_type_symbol
 _atom_site_label
 _atom_site_symmetry_multiplicity
 _atom_site_fract_x
 _atom_site_fract_y
 _atom_site_fract_z
 _atom_site_fract_occupancy
 B  B1  1  0.97347  0.15486  0.47786  1
 B  B2  1  0.17700  0.49561  0.02214  1
 B  B3  1  0.02653  0.84514  0.52214  1
 B  B4  1  0.82300  0.50439  0.97786  1
 Ho  Ho1  1  0.37114  0.12114  0.25000  1
 Ho  Ho2  1  0.62886  0.87886  0.75000  1
 Ni  Ni1  1  0.66622  0.72358  0.19893  1
 Ni  Ni2  1  0.02465  0.46729  0.30107  1
 Ni  Ni3  1  0.97535  0.53271  0.69893  1
 Ni  Ni4  1  0.33378  0.27642  0.80107  1
