CIF file written using JARVIS-Tools package.
data_Mg6CrFe
_symmetry_space_group_name_H-M  'Amm2'
_cell_length_a       6.05788
_cell_length_b       6.05789
_cell_length_c       4.84607
_cell_angle_alpha    90
_cell_angle_beta     90
_cell_angle_gamma    119.365

_symmetry_Int_Tables_number  38
_chemical_formula_structural  Mg6CrFe
_chemical_formula_sum  Mg6CrFe
_cell_volume  154.99078826318186
_cell_formula_units_Z  1
loop_
  _symmetry_equiv_pos_site_id
 _symmetry_equiv_pos_as_xyz
 1  'x, y, z'
loop_
 _atom_site_type_symbol
 _atom_site_label
 _atom_site_symmetry_multiplicity
 _atom_site_fract_x
 _atom_site_fract_y
 _atom_site_fract_z
 _atom_site_fract_occupancy
 Cr  Cr1  1  0.33248  0.16752  0.75000  1
 Fe  Fe1  1  0.16983  0.33017  0.25000  1
 Mg  Mg1  1  0.16724  0.85183  0.25000  1
 Mg  Mg2  1  0.64817  0.33276  0.25000  1
 Mg  Mg3  1  0.66232  0.83768  0.25000  1
 Mg  Mg4  1  0.32678  0.64264  0.75000  1
 Mg  Mg5  1  0.85736  0.17322  0.75000  1
 Mg  Mg6  1  0.83582  0.66418  0.75000  1
