CIF file written using JARVIS-Tools package.
data_BeHgPb2
_symmetry_space_group_name_H-M  'P4mm'
_cell_length_a       3.48023
_cell_length_b       3.48023
_cell_length_c       8.531
_cell_angle_alpha    90
_cell_angle_beta     90
_cell_angle_gamma    90

_symmetry_Int_Tables_number  99
_chemical_formula_structural  BeHgPb2
_chemical_formula_sum  BeHgPb2
_cell_volume  103.32728913019253
_cell_formula_units_Z  1
loop_
  _symmetry_equiv_pos_site_id
 _symmetry_equiv_pos_as_xyz
 1  'x, y, z'
loop_
 _atom_site_type_symbol
 _atom_site_label
 _atom_site_symmetry_multiplicity
 _atom_site_fract_x
 _atom_site_fract_y
 _atom_site_fract_z
 _atom_site_fract_occupancy
 Be  Be1  1  0.00000  0.00000  0.65544  1
 Hg  Hg1  1  0.50000  0.50000  0.62586  1
 Pb  Pb1  1  0.00000  0.00000  0.97382  1
 Pb  Pb2  1  0.50000  0.50000  0.24488  1
