CIF file written using JARVIS-Tools package.
data_BaNa4O3
_symmetry_space_group_name_H-M  'Cc'
_cell_length_a       5.7085
_cell_length_b       7.13124
_cell_length_c       8.23935
_cell_angle_alpha    107.025
_cell_angle_beta     90.004
_cell_angle_gamma    113.598

_symmetry_Int_Tables_number  9
_chemical_formula_structural  BaNa4O3
_chemical_formula_sum  Ba2Na8O6
_cell_volume  291.25095158242567
_cell_formula_units_Z  2
loop_
  _symmetry_equiv_pos_site_id
 _symmetry_equiv_pos_as_xyz
 1  'x, y, z'
loop_
 _atom_site_type_symbol
 _atom_site_label
 _atom_site_symmetry_multiplicity
 _atom_site_fract_x
 _atom_site_fract_y
 _atom_site_fract_z
 _atom_site_fract_occupancy
 Ba  Ba1  1  0.73328  0.02657  0.28191  1
 Ba  Ba2  1  0.29151  0.02647  0.78190  1
 Na  Na1  1  0.04150  0.73027  0.04856  1
 Na  Na2  1  0.68708  0.73031  0.54844  1
 Na  Na3  1  0.12079  0.63439  0.40075  1
 Na  Na4  1  0.48260  0.39192  0.16297  1
 Na  Na5  1  0.51225  0.63466  0.90082  1
 Na  Na6  1  0.90771  0.39198  0.66301  1
 Na  Na7  1  0.34062  0.32205  0.51735  1
 Na  Na8  1  0.97983  0.32192  0.01708  1
 O  O1  1  0.33615  0.65412  0.16548  1
 O  O2  1  0.31640  0.65417  0.66547  1
 O  O3  1  0.70913  0.39710  0.40042  1
 O  O4  1  0.04746  0.04621  0.04910  1
 O  O5  1  0.68620  0.39705  0.90038  1
 O  O6  1  0.99700  0.04643  0.54921  1
