CIF file written using JARVIS-Tools package.
data_AlSiTe3
_symmetry_space_group_name_H-M  'P-31m'
_cell_length_a       6.93035
_cell_length_b       6.93035
_cell_length_c       7.15646
_cell_angle_alpha    90
_cell_angle_beta     90
_cell_angle_gamma    120

_symmetry_Int_Tables_number  162
_chemical_formula_structural  AlSiTe3
_chemical_formula_sum  Al2Si2Te6
_cell_volume  297.6726402114996
_cell_formula_units_Z  2
loop_
  _symmetry_equiv_pos_site_id
 _symmetry_equiv_pos_as_xyz
 1  'x, y, z'
loop_
 _atom_site_type_symbol
 _atom_site_label
 _atom_site_symmetry_multiplicity
 _atom_site_fract_x
 _atom_site_fract_y
 _atom_site_fract_z
 _atom_site_fract_occupancy
 Al  Al1  1  0.33333  0.66667  0.49997  1
 Al  Al2  1  0.66667  0.33333  0.50003  1
 Si  Si1  1  0.00000  0.00000  0.66118  1
 Si  Si2  1  0.00000  0.00000  0.33882  1
 Te  Te1  1  0.35526  0.35524  0.24961  1
 Te  Te2  1  -0.00002  0.64474  0.24961  1
 Te  Te3  1  0.64476  0.00002  0.24961  1
 Te  Te4  1  0.00002  0.35526  0.75039  1
 Te  Te5  1  0.64474  0.64476  0.75039  1
 Te  Te6  1  0.35524  -0.00002  0.75039  1
