CIF file written using JARVIS-Tools package.
data_Co3OF5
_symmetry_space_group_name_H-M  'P2_1'
_cell_length_a       5.62132
_cell_length_b       4.67836
_cell_length_c       7.7092
_cell_angle_alpha    90
_cell_angle_beta     95.0665
_cell_angle_gamma    90

_symmetry_Int_Tables_number  4
_chemical_formula_structural  Co3OF5
_chemical_formula_sum  Co6O2F0
_cell_volume  201.9486696423318
_cell_formula_units_Z  2
loop_
  _symmetry_equiv_pos_site_id
 _symmetry_equiv_pos_as_xyz
 1  'x, y, z'
loop_
 _atom_site_type_symbol
 _atom_site_label
 _atom_site_symmetry_multiplicity
 _atom_site_fract_x
 _atom_site_fract_y
 _atom_site_fract_z
 _atom_site_fract_occupancy
 Co  Co1  1  0.25175  0.51043  0.02347  1
 Co  Co2  1  0.56179  0.51380  0.32194  1
 Co  Co3  1  0.91263  0.48075  0.66777  1
 Co  Co4  1  0.43821  0.01380  0.67806  1
 Co  Co5  1  0.08737  0.98075  0.33223  1
 Co  Co6  1  0.74825  0.01043  0.97653  1
 F  F1  1  0.45724  0.77604  0.89875  1
 F  F2  1  0.04011  0.20353  0.10238  1
 F  F3  1  0.21819  0.29677  0.78191  1
 F  F4  1  0.37487  0.20998  0.44164  1
 F  F5  1  0.87644  0.29698  0.42354  1
 F  F6  1  0.78181  0.79677  0.21809  1
 F  F7  1  0.95989  0.70353  0.89762  1
 F  F8  1  0.54276  0.27604  0.10125  1
 F  F9  1  0.62513  0.70998  0.55836  1
 F  F10  1  0.12356  0.79698  0.57646  1
 O  O1  1  0.27755  0.71171  0.23920  1
 O  O2  1  0.72245  0.21171  0.76080  1
