CIF file written using JARVIS-Tools package.
data_LiCuPO4
_symmetry_space_group_name_H-M  'Pbcn'
_cell_length_a       4.23206
_cell_length_b       4.5553
_cell_length_c       15.0058
_cell_angle_alpha    90
_cell_angle_beta     90
_cell_angle_gamma    90

_symmetry_Int_Tables_number  60
_chemical_formula_structural  LiCuPO4
_chemical_formula_sum  Li4Cu4P4O6
_cell_volume  289.28647759314174
_cell_formula_units_Z  4
loop_
  _symmetry_equiv_pos_site_id
 _symmetry_equiv_pos_as_xyz
 1  'x, y, z'
loop_
 _atom_site_type_symbol
 _atom_site_label
 _atom_site_symmetry_multiplicity
 _atom_site_fract_x
 _atom_site_fract_y
 _atom_site_fract_z
 _atom_site_fract_occupancy
 Cu  Cu1  1  0.00000  0.75000  0.07593  1
 Cu  Cu2  1  0.00000  0.25000  0.92407  1
 Cu  Cu3  1  0.50000  0.25000  0.42407  1
 Cu  Cu4  1  0.50000  0.75000  0.57593  1
 Li  Li1  1  0.00000  0.25000  0.24949  1
 Li  Li2  1  0.00000  0.75000  0.75051  1
 Li  Li3  1  0.50000  0.75000  0.25051  1
 Li  Li4  1  0.50000  0.25000  0.74949  1
 O  O1  1  0.80412  0.03504  0.67405  1
 O  O2  1  0.76890  0.42716  0.55584  1
 O  O3  1  0.76890  0.92716  0.44416  1
 O  O4  1  0.80412  0.53504  0.32595  1
 O  O5  1  0.73110  0.42716  0.05584  1
 O  O6  1  0.19588  0.96496  0.32595  1
 O  O7  1  0.69588  0.53504  0.82595  1
 O  O8  1  0.73110  0.92716  0.94416  1
 O  O9  1  0.30412  0.46496  0.17405  1
 O  O10  1  0.26890  0.07284  0.05584  1
 O  O11  1  0.23110  0.07284  0.55584  1
 O  O12  1  0.23110  0.57284  0.44416  1
 O  O13  1  0.69588  0.03504  0.17405  1
 O  O14  1  0.26890  0.57284  0.94416  1
 O  O15  1  0.30412  0.96496  0.82595  1
 O  O16  1  0.19588  0.46496  0.67405  1
 P  P1  1  0.00000  0.75000  0.38521  1
 P  P2  1  0.00000  0.25000  0.61479  1
 P  P3  1  0.50000  0.75000  0.88521  1
 P  P4  1  0.50000  0.25000  0.11479  1
