CIF file written using JARVIS-Tools package.
data_Ta2BeTl
_symmetry_space_group_name_H-M  'I4/mmm'
_cell_length_a       5.18978
_cell_length_b       5.18978
_cell_length_c       5.18978
_cell_angle_alpha    135.096
_cell_angle_beta     135.096
_cell_angle_gamma    65.3813

_symmetry_Int_Tables_number  139
_chemical_formula_structural  Ta2BeTl
_chemical_formula_sum  Ta2BeTl
_cell_volume  68.63327447481609
_cell_formula_units_Z  1
loop_
  _symmetry_equiv_pos_site_id
 _symmetry_equiv_pos_as_xyz
 1  'x, y, z'
loop_
 _atom_site_type_symbol
 _atom_site_label
 _atom_site_symmetry_multiplicity
 _atom_site_fract_x
 _atom_site_fract_y
 _atom_site_fract_z
 _atom_site_fract_occupancy
 Be  Be1  1  0.75000  0.25000  0.50000  1
 Ta  Ta1  1  0.00000  0.00000  0.00000  1
 Ta  Ta2  1  0.50000  0.50000  0.00000  1
 Tl  Tl1  1  0.25000  0.75000  0.50000  1
