CIF file written using JARVIS-Tools package.
data_Ba3ZrRu2O9
_symmetry_space_group_name_H-M  'P6_3/mmc'
_cell_length_a       5.83854
_cell_length_b       5.83854
_cell_length_c       14.3814
_cell_angle_alpha    90
_cell_angle_beta     90
_cell_angle_gamma    120

_symmetry_Int_Tables_number  194
_chemical_formula_structural  Ba3ZrRu2O9
_chemical_formula_sum  Ba6Zr2Ru4O8
_cell_volume  424.56202779384984
_cell_formula_units_Z  2
loop_
  _symmetry_equiv_pos_site_id
 _symmetry_equiv_pos_as_xyz
 1  'x, y, z'
loop_
 _atom_site_type_symbol
 _atom_site_label
 _atom_site_symmetry_multiplicity
 _atom_site_fract_x
 _atom_site_fract_y
 _atom_site_fract_z
 _atom_site_fract_occupancy
 Ba  Ba1  1  0.33333  0.66667  0.90705  1
 Ba  Ba2  1  0.66667  0.33333  0.09295  1
 Ba  Ba3  1  0.66667  0.33333  0.40705  1
 Ba  Ba4  1  0.33333  0.66667  0.59295  1
 Ba  Ba5  1  0.00000  0.00000  0.25000  1
 Ba  Ba6  1  0.00000  0.00000  0.75000  1
 O  O1  1  0.17033  0.34066  0.41677  1
 O  O2  1  0.48995  0.51005  0.25000  1
 O  O3  1  0.17033  0.34066  0.08323  1
 O  O4  1  0.51005  0.02010  0.75000  1
 O  O5  1  0.82967  0.17033  0.91677  1
 O  O6  1  0.34066  0.17033  0.91677  1
 O  O7  1  0.02010  0.51005  0.25000  1
 O  O8  1  0.34066  0.17033  0.58323  1
 O  O9  1  0.65934  0.82967  0.41677  1
 O  O10  1  0.82967  0.65934  0.91677  1
 O  O11  1  0.97990  0.48995  0.75000  1
 O  O12  1  0.48995  0.97990  0.25000  1
 O  O13  1  0.51005  0.48995  0.75000  1
 O  O14  1  0.17033  0.82967  0.08323  1
 O  O15  1  0.82967  0.65934  0.58323  1
 O  O16  1  0.82967  0.17033  0.58323  1
 O  O17  1  0.65934  0.82967  0.08323  1
 O  O18  1  0.17033  0.82967  0.41677  1
 Ru  Ru1  1  0.33333  0.66667  0.33706  1
 Ru  Ru2  1  0.66667  0.33333  0.83706  1
 Ru  Ru3  1  0.33333  0.66667  0.16294  1
 Ru  Ru4  1  0.66667  0.33333  0.66294  1
 Zr  Zr1  1  0.00000  0.00000  0.00000  1
 Zr  Zr2  1  0.00000  0.00000  0.50000  1
