CIF file written using JARVIS-Tools package.
data_Ca2CoN2
_symmetry_space_group_name_H-M  'I4/mmm'
_cell_length_a       3.54506
_cell_length_b       5.01316
_cell_length_c       6.56057
_cell_angle_alpha    90
_cell_angle_beta     105.677
_cell_angle_gamma    134.996

_symmetry_Int_Tables_number  139
_chemical_formula_structural  Ca2CoN2
_chemical_formula_sum  Ca2CoN2
_cell_volume  76.19288838206829
_cell_formula_units_Z  1
loop_
  _symmetry_equiv_pos_site_id
 _symmetry_equiv_pos_as_xyz
 1  'x, y, z'
loop_
 _atom_site_type_symbol
 _atom_site_label
 _atom_site_symmetry_multiplicity
 _atom_site_fract_x
 _atom_site_fract_y
 _atom_site_fract_z
 _atom_site_fract_occupancy
 Ca  Ca1  1  0.69725  0.34862  0.19720  1
 Ca  Ca2  1  0.30275  0.65138  0.80280  1
 Co  Co1  1  0.00000  0.00000  0.50000  1
 N  N1  1  0.28984  0.14492  0.78989  1
 N  N2  1  0.71016  0.85508  0.21011  1
