CIF file written using JARVIS-Tools package.
data_UF5
_symmetry_space_group_name_H-M  'I4/m'
_cell_length_a       4.49336
_cell_length_b       5.04324
_cell_length_c       5.04323
_cell_angle_alpha    78.5533
_cell_angle_beta     63.5457
_cell_angle_gamma    63.5457

_symmetry_Int_Tables_number  87
_chemical_formula_structural  UF5
_chemical_formula_sum  UF5
_cell_volume  91.60449438241714
_cell_formula_units_Z  1
loop_
  _symmetry_equiv_pos_site_id
 _symmetry_equiv_pos_as_xyz
 1  'x, y, z'
loop_
 _atom_site_type_symbol
 _atom_site_label
 _atom_site_symmetry_multiplicity
 _atom_site_fract_x
 _atom_site_fract_y
 _atom_site_fract_z
 _atom_site_fract_occupancy
 F  F1  1  0.70179  0.18491  0.41151  1
 F  F2  1  0.50000  0.00000  -0.00000  1
 F  F3  1  0.29821  0.81509  0.58849  1
 F  F4  1  0.88670  0.41151  0.81509  1
 F  F5  1  0.11330  0.58849  0.18491  1
 U  U1  1  0.00000  0.00000  0.00000  1
