CIF file written using JARVIS-Tools package.
data_EuMg3Ge3
_symmetry_space_group_name_H-M  'Cmcm'
_cell_length_a       4.35968
_cell_length_b       4.4889
_cell_length_c       15.8071
_cell_angle_alpha    90
_cell_angle_beta     97.9265
_cell_angle_gamma    90

_symmetry_Int_Tables_number  63
_chemical_formula_structural  EuMg3Ge3
_chemical_formula_sum  Eu2Mg6Ge6
_cell_volume  306.3920224880776
_cell_formula_units_Z  2
loop_
  _symmetry_equiv_pos_site_id
 _symmetry_equiv_pos_as_xyz
 1  'x, y, z'
loop_
 _atom_site_type_symbol
 _atom_site_label
 _atom_site_symmetry_multiplicity
 _atom_site_fract_x
 _atom_site_fract_y
 _atom_site_fract_z
 _atom_site_fract_occupancy
 Eu  Eu1  1  0.94910  0.25000  0.89819  1
 Eu  Eu2  1  0.05090  0.75000  0.10181  1
 Ge  Ge1  1  0.51803  0.25000  0.03607  1
 Ge  Ge2  1  0.59697  0.25000  0.19395  1
 Ge  Ge3  1  0.80151  0.25000  0.60303  1
 Ge  Ge4  1  0.48197  0.75000  0.96393  1
 Ge  Ge5  1  0.19849  0.75000  0.39697  1
 Ge  Ge6  1  0.40303  0.75000  0.80605  1
 Mg  Mg1  1  0.14762  0.25000  0.29524  1
 Mg  Mg2  1  0.35344  0.25000  0.70689  1
 Mg  Mg3  1  0.85238  0.75000  0.70476  1
 Mg  Mg4  1  0.75037  0.75000  0.50073  1
 Mg  Mg5  1  0.64656  0.75000  0.29311  1
 Mg  Mg6  1  0.24963  0.25000  0.49927  1
