CIF file written using JARVIS-Tools package.
data_Ba2LiMg
_symmetry_space_group_name_H-M  'Immm'
_cell_length_a       15.2064
_cell_length_b       14.2738
_cell_length_c       14.2738
_cell_angle_alpha    58.4948
_cell_angle_beta     57.8141
_cell_angle_gamma    57.8141

_symmetry_Int_Tables_number  71
_chemical_formula_structural  Ba2LiMg
_chemical_formula_sum  Ba2LiMg
_cell_volume  2092.096157788182
_cell_formula_units_Z  1
loop_
  _symmetry_equiv_pos_site_id
 _symmetry_equiv_pos_as_xyz
 1  'x, y, z'
loop_
 _atom_site_type_symbol
 _atom_site_label
 _atom_site_symmetry_multiplicity
 _atom_site_fract_x
 _atom_site_fract_y
 _atom_site_fract_z
 _atom_site_fract_occupancy
 Ba  Ba1  1  0.74995  0.00000  -0.00000  1
 Ba  Ba2  1  0.25005  -0.00000  0.00000  1
 Li  Li1  1  0.00000  0.00000  0.00000  1
 Mg  Mg1  1  0.50000  -0.00000  -0.00000  1
