CIF file written using JARVIS-Tools package.
data_CaMn7O12
_symmetry_space_group_name_H-M  'Im-3'
_cell_length_a       6.40138
_cell_length_b       6.40137
_cell_length_c       6.40138
_cell_angle_alpha    109.472
_cell_angle_beta     109.472
_cell_angle_gamma    109.472

_symmetry_Int_Tables_number  204
_chemical_formula_structural  CaMn7O12
_chemical_formula_sum  CaMn7O2
_cell_volume  201.92134132721222
_cell_formula_units_Z  1
loop_
  _symmetry_equiv_pos_site_id
 _symmetry_equiv_pos_as_xyz
 1  'x, y, z'
loop_
 _atom_site_type_symbol
 _atom_site_label
 _atom_site_symmetry_multiplicity
 _atom_site_fract_x
 _atom_site_fract_y
 _atom_site_fract_z
 _atom_site_fract_occupancy
 Ca  Ca1  1  0.00000  0.00000  0.00000  1
 Mn  Mn1  1  0.50000  0.50000  0.50000  1
 Mn  Mn2  1  0.00000  0.50000  0.50000  1
 Mn  Mn3  1  0.50000  0.00000  0.50000  1
 Mn  Mn4  1  -0.00000  -0.00000  0.50000  1
 Mn  Mn5  1  0.50000  0.00000  -0.00000  1
 Mn  Mn6  1  0.00000  0.50000  0.00000  1
 Mn  Mn7  1  0.50000  0.50000  0.00000  1
 O  O1  1  0.17830  0.30843  0.48674  1
 O  O2  1  0.30843  0.48674  0.17830  1
 O  O3  1  0.51326  0.82170  0.69157  1
 O  O4  1  0.82170  0.69157  0.51326  1
 O  O5  1  0.69157  0.51326  0.82170  1
 O  O6  1  0.13012  0.82176  0.30839  1
 O  O7  1  0.17824  0.69161  0.86988  1
 O  O8  1  0.48674  0.17830  0.30843  1
 O  O9  1  0.30839  0.13012  0.82176  1
 O  O10  1  0.69161  0.86988  0.17824  1
 O  O11  1  0.86988  0.17824  0.69161  1
 O  O12  1  0.82176  0.30839  0.13012  1
