CIF file written using JARVIS-Tools package.
data_TbSnGe
_symmetry_space_group_name_H-M  'Cmcm'
_cell_length_a       4.07804
_cell_length_b       4.28746
_cell_length_c       8.5171
_cell_angle_alpha    104.578
_cell_angle_beta     90
_cell_angle_gamma    90

_symmetry_Int_Tables_number  63
_chemical_formula_structural  TbSnGe
_chemical_formula_sum  Tb2Sn2Ge2
_cell_volume  144.1226545155049
_cell_formula_units_Z  2
loop_
  _symmetry_equiv_pos_site_id
 _symmetry_equiv_pos_as_xyz
 1  'x, y, z'
loop_
 _atom_site_type_symbol
 _atom_site_label
 _atom_site_symmetry_multiplicity
 _atom_site_fract_x
 _atom_site_fract_y
 _atom_site_fract_z
 _atom_site_fract_occupancy
 Ge  Ge1  1  0.75000  0.44709  0.89419  1
 Ge  Ge2  1  0.25000  0.55291  0.10581  1
 Sn  Sn1  1  0.75000  0.74456  0.48912  1
 Sn  Sn2  1  0.25000  0.25544  0.51088  1
 Tb  Tb1  1  0.75000  0.09488  0.18976  1
 Tb  Tb2  1  0.25000  0.90512  0.81024  1
