CIF file written using JARVIS-Tools package.
data_CeSiNi4
_symmetry_space_group_name_H-M  'Cmmm'
_cell_length_a       4.03373
_cell_length_b       4.8089
_cell_length_c       4.8089
_cell_angle_alpha    116.237
_cell_angle_beta     90
_cell_angle_gamma    90

_symmetry_Int_Tables_number  65
_chemical_formula_structural  CeSiNi4
_chemical_formula_sum  CeSiNi4
_cell_volume  83.67132868253906
_cell_formula_units_Z  1
loop_
  _symmetry_equiv_pos_site_id
 _symmetry_equiv_pos_as_xyz
 1  'x, y, z'
loop_
 _atom_site_type_symbol
 _atom_site_label
 _atom_site_symmetry_multiplicity
 _atom_site_fract_x
 _atom_site_fract_y
 _atom_site_fract_z
 _atom_site_fract_occupancy
 Ce  Ce1  1  0.00000  0.00000  0.00000  1
 Ni  Ni1  1  0.00000  0.33851  0.66149  1
 Ni  Ni2  1  0.00000  0.66149  0.33851  1
 Ni  Ni3  1  0.50000  -0.00000  0.50000  1
 Ni  Ni4  1  0.50000  0.50000  0.00000  1
 Si  Si1  1  0.50000  0.50000  0.50000  1
