CIF file written using JARVIS-Tools package.
data_NaCaFe2Si4O12
_symmetry_space_group_name_H-M  'C2'
_cell_length_a       5.29684
_cell_length_b       6.62981
_cell_length_c       6.62981
_cell_angle_alpha    84.0849
_cell_angle_beta     78.4842
_cell_angle_gamma    78.4842

_symmetry_Int_Tables_number  5
_chemical_formula_structural  NaCaFe2Si4O12
_chemical_formula_sum  NaCaFe2Si4O2
_cell_volume  223.05537324995979
_cell_formula_units_Z  1
loop_
  _symmetry_equiv_pos_site_id
 _symmetry_equiv_pos_as_xyz
 1  'x, y, z'
loop_
 _atom_site_type_symbol
 _atom_site_label
 _atom_site_symmetry_multiplicity
 _atom_site_fract_x
 _atom_site_fract_y
 _atom_site_fract_z
 _atom_site_fract_occupancy
 Ca  Ca1  1  0.75000  0.30424  0.69576  1
 Fe  Fe1  1  0.25000  0.08781  0.91219  1
 Fe  Fe2  1  0.75000  0.90067  0.09933  1
 Na  Na1  1  0.25000  0.70030  0.29970  1
 O  O1  1  -0.00533  0.62699  0.66758  1
 O  O2  1  0.81537  0.89681  0.38454  1
 O  O3  1  0.35765  0.03356  0.20164  1
 O  O4  1  0.14235  0.79836  0.96644  1
 O  O5  1  0.17949  0.11098  0.61730  1
 O  O6  1  0.50533  0.33242  0.37301  1
 O  O7  1  0.50120  0.66363  0.63479  1
 O  O8  1  0.85129  0.20623  0.02759  1
 O  O9  1  0.32051  0.38270  0.88902  1
 O  O10  1  0.64871  0.97241  0.79377  1
 O  O11  1  0.68463  0.61546  0.10319  1
 O  O12  1  0.99880  0.36521  0.33637  1
 Si  Si1  1  0.73505  0.80421  0.61704  1
 Si  Si2  1  0.76495  0.38296  0.19579  1
 Si  Si3  1  0.23118  0.61852  0.80350  1
 Si  Si4  1  0.26882  0.19650  0.38148  1
