CIF file written using JARVIS-Tools package.
data_NbPS
_symmetry_space_group_name_H-M  'Immm'
_cell_length_a       3.48705
_cell_length_b       4.76298
_cell_length_c       6.70438
_cell_angle_alpha    110.807
_cell_angle_beta     105.073
_cell_angle_gamma    89.9999

_symmetry_Int_Tables_number  71
_chemical_formula_structural  NbPS
_chemical_formula_sum  Nb2P2S2
_cell_volume  99.98046832215502
_cell_formula_units_Z  2
loop_
  _symmetry_equiv_pos_site_id
 _symmetry_equiv_pos_as_xyz
 1  'x, y, z'
loop_
 _atom_site_type_symbol
 _atom_site_label
 _atom_site_symmetry_multiplicity
 _atom_site_fract_x
 _atom_site_fract_y
 _atom_site_fract_z
 _atom_site_fract_occupancy
 Nb  Nb1  1  0.87537  0.37537  0.75074  1
 Nb  Nb2  1  0.12463  0.62463  0.24926  1
 P  P1  1  0.50000  0.76431  -0.00000  1
 P  P2  1  0.50000  0.23569  0.00000  1
 S  S1  1  0.21298  0.21298  0.42595  1
 S  S2  1  0.78702  0.78702  0.57405  1
