CIF file written using JARVIS-Tools package.
data_SrBe2Hg
_symmetry_space_group_name_H-M  'Fm-3m'
_cell_length_a       4.7099
_cell_length_b       4.7099
_cell_length_c       4.7099
_cell_angle_alpha    119.995
_cell_angle_beta     119.995
_cell_angle_gamma    90.0093

_symmetry_Int_Tables_number  225
_chemical_formula_structural  SrBe2Hg
_chemical_formula_sum  SrBe2Hg
_cell_volume  73.88450378921404
_cell_formula_units_Z  1
loop_
  _symmetry_equiv_pos_site_id
 _symmetry_equiv_pos_as_xyz
 1  'x, y, z'
loop_
 _atom_site_type_symbol
 _atom_site_label
 _atom_site_symmetry_multiplicity
 _atom_site_fract_x
 _atom_site_fract_y
 _atom_site_fract_z
 _atom_site_fract_occupancy
 Be  Be1  1  0.00000  0.00000  0.00000  1
 Be  Be2  1  0.50000  0.50000  0.00000  1
 Hg  Hg1  1  0.25000  0.75000  0.50000  1
 Sr  Sr1  1  0.75000  0.25000  0.50000  1
