CIF file written using JARVIS-Tools package.
data_CrP2
_symmetry_space_group_name_H-M  'C2/m'
_cell_length_a       3.0485
_cell_length_b       4.39316
_cell_length_c       6.39684
_cell_angle_alpha    79.9858
_cell_angle_beta     76.215
_cell_angle_gamma    69.6985

_symmetry_Int_Tables_number  12
_chemical_formula_structural  CrP2
_chemical_formula_sum  Cr2P4
_cell_volume  77.64160497003051
_cell_formula_units_Z  2
loop_
  _symmetry_equiv_pos_site_id
 _symmetry_equiv_pos_as_xyz
 1  'x, y, z'
loop_
 _atom_site_type_symbol
 _atom_site_label
 _atom_site_symmetry_multiplicity
 _atom_site_fract_x
 _atom_site_fract_y
 _atom_site_fract_z
 _atom_site_fract_occupancy
 Cr  Cr1  1  0.84263  0.61042  0.70432  1
 Cr  Cr2  1  0.15737  0.38958  0.29568  1
 P  P1  1  0.14464  0.74086  0.96985  1
 P  P2  1  0.85536  0.25914  0.03015  1
 P  P3  1  0.39990  0.79956  0.40063  1
 P  P4  1  0.60010  0.20044  0.59937  1
