CIF file written using JARVIS-Tools package.
data_BaMg6Cr
_symmetry_space_group_name_H-M  'Amm2'
_cell_length_a       7.69134
_cell_length_b       6.23874
_cell_length_c       5.03149
_cell_angle_alpha    90
_cell_angle_beta     90
_cell_angle_gamma    113.927

_symmetry_Int_Tables_number  38
_chemical_formula_structural  BaMg6Cr
_chemical_formula_sum  BaMg6Cr
_cell_volume  220.6844906106256
_cell_formula_units_Z  1
loop_
  _symmetry_equiv_pos_site_id
 _symmetry_equiv_pos_as_xyz
 1  'x, y, z'
loop_
 _atom_site_type_symbol
 _atom_site_label
 _atom_site_symmetry_multiplicity
 _atom_site_fract_x
 _atom_site_fract_y
 _atom_site_fract_z
 _atom_site_fract_occupancy
 Ba  Ba1  1  0.08559  0.29279  0.25000  1
 Cr  Cr1  1  0.27980  0.88990  0.25000  1
 Mg  Mg1  1  0.62178  0.32245  0.25000  1
 Mg  Mg2  1  0.62178  0.79933  0.25000  1
 Mg  Mg3  1  0.35635  0.17425  0.75000  1
 Mg  Mg4  1  0.35635  0.68211  0.75000  1
 Mg  Mg5  1  0.74058  0.12029  0.75000  1
 Mg  Mg6  1  0.93776  0.71888  0.75000  1
