CIF file written using JARVIS-Tools package.
data_Mg6CdNi
_symmetry_space_group_name_H-M  'Amm2'
_cell_length_a       6.12147
_cell_length_b       6.27324
_cell_length_c       4.789
_cell_angle_alpha    90
_cell_angle_beta     90
_cell_angle_gamma    120.824

_symmetry_Int_Tables_number  38
_chemical_formula_structural  Mg6CdNi
_chemical_formula_sum  Mg6CdNi
_cell_volume  157.92801591779363
_cell_formula_units_Z  1
loop_
  _symmetry_equiv_pos_site_id
 _symmetry_equiv_pos_as_xyz
 1  'x, y, z'
loop_
 _atom_site_type_symbol
 _atom_site_label
 _atom_site_symmetry_multiplicity
 _atom_site_fract_x
 _atom_site_fract_y
 _atom_site_fract_z
 _atom_site_fract_occupancy
 Cd  Cd1  1  0.17407  0.83703  0.25000  1
 Mg  Mg1  1  0.67704  0.33575  0.25000  1
 Mg  Mg2  1  0.67704  0.84130  0.25000  1
 Mg  Mg3  1  0.32104  0.17505  0.75000  1
 Mg  Mg4  1  0.32104  0.64599  0.75000  1
 Mg  Mg5  1  0.84559  0.17280  0.75000  1
 Mg  Mg6  1  0.83288  0.66644  0.75000  1
 Ni  Ni1  1  0.15130  0.32565  0.25000  1
