CIF file written using JARVIS-Tools package.
data_RbFeP2O7
_symmetry_space_group_name_H-M  'P2_1/c'
_cell_length_a       7.51118
_cell_length_b       8.33088
_cell_length_c       10.0551
_cell_angle_alpha    90
_cell_angle_beta     90
_cell_angle_gamma    105.501

_symmetry_Int_Tables_number  14
_chemical_formula_structural  RbFeP2O7
_chemical_formula_sum  Rb4Fe4P8O28
_cell_volume  606.3115903261694
_cell_formula_units_Z  4
loop_
  _symmetry_equiv_pos_site_id
 _symmetry_equiv_pos_as_xyz
 1  'x, y, z'
loop_
 _atom_site_type_symbol
 _atom_site_label
 _atom_site_symmetry_multiplicity
 _atom_site_fract_x
 _atom_site_fract_y
 _atom_site_fract_z
 _atom_site_fract_occupancy
 Fe  Fe1  1  0.76471  0.73836  0.09853  1
 Fe  Fe2  1  0.23529  0.76164  0.59853  1
 Fe  Fe3  1  0.23529  0.26164  0.90147  1
 Fe  Fe4  1  0.76471  0.23836  0.40147  1
 O  O1  1  0.08782  0.26373  0.73264  1
 O  O2  1  0.55438  0.76351  0.21676  1
 O  O3  1  -0.00474  0.27307  0.99183  1
 O  O4  1  0.00474  0.22693  0.49183  1
 O  O5  1  0.00474  0.72693  0.00817  1
 O  O6  1  -0.00474  0.77307  0.50817  1
 O  O7  1  0.67979  0.48752  0.10471  1
 O  O8  1  0.91218  0.73627  0.26736  1
 O  O9  1  0.32021  0.01248  0.60471  1
 O  O10  1  0.84878  0.98203  0.08295  1
 O  O11  1  0.44562  0.73649  0.71676  1
 O  O12  1  0.15122  0.51797  0.58295  1
 O  O13  1  0.15122  0.01797  0.91705  1
 O  O14  1  0.84878  0.48203  0.41705  1
 O  O15  1  0.65902  0.18738  0.05690  1
 O  O16  1  0.34098  0.31262  0.55690  1
 O  O17  1  0.34098  0.81262  0.94310  1
 O  O18  1  0.67979  0.98752  0.39529  1
 O  O19  1  0.44562  0.23649  0.78324  1
 O  O20  1  0.08782  0.76373  0.76736  1
 O  O21  1  0.55438  0.26351  0.28324  1
 O  O22  1  0.32021  0.51248  0.89529  1
 O  O23  1  0.91218  0.23627  0.23264  1
 O  O24  1  0.36478  0.77412  0.41941  1
 O  O25  1  0.63522  0.72588  0.91941  1
 O  O26  1  0.63522  0.22588  0.58059  1
 O  O27  1  0.36478  0.27412  0.08059  1
 O  O28  1  0.65902  0.68738  0.44310  1
 P  P1  1  0.86226  0.66579  0.40747  1
 P  P2  1  0.13774  0.83421  0.90747  1
 P  P3  1  0.86226  0.16579  0.09253  1
 P  P4  1  0.43882  0.68729  0.86428  1
 P  P5  1  0.43882  0.18729  0.63572  1
 P  P6  1  0.56118  0.81271  0.36428  1
 P  P7  1  0.56118  0.31271  0.13572  1
 P  P8  1  0.13774  0.33421  0.59253  1
 Rb  Rb1  1  0.18367  0.54481  0.18894  1
 Rb  Rb2  1  0.18367  0.04481  0.31106  1
 Rb  Rb3  1  0.81633  0.95519  0.68894  1
 Rb  Rb4  1  0.81633  0.45519  0.81106  1
