CIF file written using JARVIS-Tools package.
data_V2O5
_symmetry_space_group_name_H-M  'Pnma'
_cell_length_a       3.58737
_cell_length_b       10.0423
_cell_length_c       10.0078
_cell_angle_alpha    90
_cell_angle_beta     90
_cell_angle_gamma    90

_symmetry_Int_Tables_number  62
_chemical_formula_structural  V2O5
_chemical_formula_sum  V8O20
_cell_volume  360.5373309977879
_cell_formula_units_Z  4
loop_
  _symmetry_equiv_pos_site_id
 _symmetry_equiv_pos_as_xyz
 1  'x, y, z'
loop_
 _atom_site_type_symbol
 _atom_site_label
 _atom_site_symmetry_multiplicity
 _atom_site_fract_x
 _atom_site_fract_y
 _atom_site_fract_z
 _atom_site_fract_occupancy
 O  O1  1  0.75000  0.21225  0.11827  1
 O  O2  1  0.25000  -0.00511  0.25163  1
 O  O3  1  0.25000  0.93697  0.54414  1
 O  O4  1  0.75000  0.92908  0.03619  1
 O  O5  1  0.25000  0.78775  0.88173  1
 O  O6  1  0.75000  0.75636  0.64247  1
 O  O7  1  0.75000  0.06303  0.45586  1
 O  O8  1  0.75000  0.71225  0.38173  1
 O  O9  1  0.25000  0.57092  0.53619  1
 O  O10  1  0.25000  0.74364  0.14247  1
 O  O11  1  0.75000  0.50511  0.75163  1
 O  O12  1  0.75000  0.25636  0.85753  1
 O  O13  1  0.25000  0.49489  0.24837  1
 O  O14  1  0.75000  0.00511  0.74837  1
 O  O15  1  0.25000  0.24364  0.35753  1
 O  O16  1  0.25000  0.07092  0.96381  1
 O  O17  1  0.25000  0.28775  0.61827  1
 O  O18  1  0.75000  0.42908  0.46381  1
 O  O19  1  0.25000  0.43697  0.95586  1
 O  O20  1  0.75000  0.56303  0.04414  1
 V  V1  1  0.25000  0.06989  0.39381  1
 V  V2  1  0.75000  0.43011  0.89381  1
 V  V3  1  0.25000  0.56989  0.10619  1
 V  V4  1  0.75000  0.93011  0.60619  1
 V  V5  1  0.75000  0.12609  0.98308  1
 V  V6  1  0.25000  0.37391  0.48308  1
 V  V7  1  0.75000  0.62609  0.51692  1
 V  V8  1  0.25000  0.87391  0.01692  1
