CIF file written using JARVIS-Tools package.
data_MnSn2
_symmetry_space_group_name_H-M  'I4/mcm'
_cell_length_a       5.42988
_cell_length_b       5.42988
_cell_length_c       5.42988
_cell_angle_alpha    104.515
_cell_angle_beta     104.515
_cell_angle_gamma    119.916

_symmetry_Int_Tables_number  140
_chemical_formula_structural  MnSn2
_chemical_formula_sum  Mn2Sn4
_cell_volume  120.12009144568114
_cell_formula_units_Z  2
loop_
  _symmetry_equiv_pos_site_id
 _symmetry_equiv_pos_as_xyz
 1  'x, y, z'
loop_
 _atom_site_type_symbol
 _atom_site_label
 _atom_site_symmetry_multiplicity
 _atom_site_fract_x
 _atom_site_fract_y
 _atom_site_fract_z
 _atom_site_fract_occupancy
 Mn  Mn1  1  0.75000  0.75000  0.00000  1
 Mn  Mn2  1  0.25000  0.25000  0.00000  1
 Sn  Sn1  1  0.83518  0.33518  0.17037  1
 Sn  Sn2  1  0.16482  0.66482  0.82963  1
 Sn  Sn3  1  0.66482  0.83518  0.50000  1
 Sn  Sn4  1  0.33518  0.16482  0.50000  1
