CIF file written using JARVIS-Tools package.
data_Mn2BeHg
_symmetry_space_group_name_H-M  'P4mm'
_cell_length_a       2.81711
_cell_length_b       2.81711
_cell_length_c       6.37173
_cell_angle_alpha    90
_cell_angle_beta     90
_cell_angle_gamma    90

_symmetry_Int_Tables_number  99
_chemical_formula_structural  Mn2BeHg
_chemical_formula_sum  Mn2BeHg
_cell_volume  50.56688888883579
_cell_formula_units_Z  1
loop_
  _symmetry_equiv_pos_site_id
 _symmetry_equiv_pos_as_xyz
 1  'x, y, z'
loop_
 _atom_site_type_symbol
 _atom_site_label
 _atom_site_symmetry_multiplicity
 _atom_site_fract_x
 _atom_site_fract_y
 _atom_site_fract_z
 _atom_site_fract_occupancy
 Be  Be1  1  0.00000  0.00000  0.44681  1
 Hg  Hg1  1  0.50000  0.50000  0.73425  1
 Mn  Mn1  1  0.00000  0.00000  0.06422  1
 Mn  Mn2  1  0.50000  0.50000  0.25471  1
