CIF file written using JARVIS-Tools package.
data_LiV2OF5
_symmetry_space_group_name_H-M  'P3'
_cell_length_a       4.51694
_cell_length_b       8.58142
_cell_length_c       8.5815
_cell_angle_alpha    60.0007
_cell_angle_beta     89.9999
_cell_angle_gamma    90

_symmetry_Int_Tables_number  143
_chemical_formula_structural  LiV2OF5
_chemical_formula_sum  Li3V6O3F5
_cell_volume  288.0712121029225
_cell_formula_units_Z  3
loop_
  _symmetry_equiv_pos_site_id
 _symmetry_equiv_pos_as_xyz
 1  'x, y, z'
loop_
 _atom_site_type_symbol
 _atom_site_label
 _atom_site_symmetry_multiplicity
 _atom_site_fract_x
 _atom_site_fract_y
 _atom_site_fract_z
 _atom_site_fract_occupancy
 F  F1  1  0.73624  0.22587  0.55565  1
 F  F2  1  0.26421  0.78098  0.44586  1
 F  F3  1  0.25821  0.09741  0.46136  1
 F  F4  1  0.74419  0.56378  0.54752  1
 F  F5  1  0.26421  0.77316  0.78097  1
 F  F6  1  0.26421  0.44587  0.77316  1
 F  F7  1  0.23983  0.77768  0.10812  1
 F  F8  1  0.74419  0.88871  0.56377  1
 F  F9  1  0.73624  0.55566  0.21848  1
 F  F10  1  0.25821  0.46137  0.44123  1
 F  F11  1  0.73624  0.21849  0.22586  1
 F  F12  1  0.23983  0.10813  0.11419  1
 F  F13  1  0.74419  0.54753  0.88870  1
 F  F14  1  0.23983  0.11420  0.77767  1
 F  F15  1  0.25821  0.44124  0.09740  1
 Li  Li1  1  0.47230  0.33334  0.33333  1
 Li  Li2  1  0.98556  0.00000  0.99999  1
 Li  Li3  1  0.50111  0.66667  0.66666  1
 O  O1  1  0.76212  0.24852  0.86938  1
 O  O2  1  0.76212  0.86939  0.88210  1
 O  O3  1  0.76212  0.88210  0.24851  1
 V  V1  1  0.98865  0.66708  0.99359  1
 V  V2  1  0.98865  0.99360  0.33933  1
 V  V3  1  0.52022  0.99191  0.69304  1
 V  V4  1  0.98864  0.33933  0.66707  1
 V  V5  1  0.52022  0.69305  0.31504  1
 V  V6  1  0.52022  0.31505  0.99191  1
