CIF file written using JARVIS-Tools package.
data_UTe2
_symmetry_space_group_name_H-M  'Immm'
_cell_length_a       4.18848
_cell_length_b       6.19356
_cell_length_c       7.90975
_cell_angle_alpha    113.049
_cell_angle_beta     105.353
_cell_angle_gamma    90

_symmetry_Int_Tables_number  71
_chemical_formula_structural  UTe2
_chemical_formula_sum  U2Te4
_cell_volume  180.8264602492293
_cell_formula_units_Z  2
loop_
  _symmetry_equiv_pos_site_id
 _symmetry_equiv_pos_as_xyz
 1  'x, y, z'
loop_
 _atom_site_type_symbol
 _atom_site_label
 _atom_site_symmetry_multiplicity
 _atom_site_fract_x
 _atom_site_fract_y
 _atom_site_fract_z
 _atom_site_fract_occupancy
 Te  Te1  1  0.50000  0.75049  0.00000  1
 Te  Te2  1  0.50000  0.24951  0.00000  1
 Te  Te3  1  0.20247  0.70247  0.40493  1
 Te  Te4  1  0.79753  0.29753  0.59507  1
 U  U1  1  0.86559  0.86559  0.73118  1
 U  U2  1  0.13441  0.13441  0.26882  1
