CIF file written using JARVIS-Tools package.
data_CaUO4
_symmetry_space_group_name_H-M  'R-3m'
_cell_length_a       19.6569
_cell_length_b       7.42861
_cell_length_c       10.0184
_cell_angle_alpha    160.702
_cell_angle_beta     168.824
_cell_angle_gamma    15.8342

_symmetry_Int_Tables_number  166
_chemical_formula_structural  CaUO4
_chemical_formula_sum  CaUO4
_cell_volume  77.36816611801277
_cell_formula_units_Z  1
loop_
  _symmetry_equiv_pos_site_id
 _symmetry_equiv_pos_as_xyz
 1  'x, y, z'
loop_
 _atom_site_type_symbol
 _atom_site_label
 _atom_site_symmetry_multiplicity
 _atom_site_fract_x
 _atom_site_fract_y
 _atom_site_fract_z
 _atom_site_fract_occupancy
 Ca  Ca1  1  -0.00000  0.50000  0.00000  1
 O  O1  1  0.22422  0.21527  0.00000  1
 O  O2  1  0.77578  0.78473  -0.00000  1
 O  O3  1  0.72550  0.46078  0.00000  1
 O  O4  1  0.27450  0.53922  -0.00000  1
 U  U1  1  0.00000  0.00000  0.00000  1
