CIF file written using JARVIS-Tools package.
data_Mg6CoB
_symmetry_space_group_name_H-M  'Amm2'
_cell_length_a       5.90571
_cell_length_b       8.09159
_cell_length_c       4.08249
_cell_angle_alpha    90
_cell_angle_beta     90
_cell_angle_gamma    133.241

_symmetry_Int_Tables_number  38
_chemical_formula_structural  Mg6CoB
_chemical_formula_sum  Mg6CoB
_cell_volume  142.1185243727723
_cell_formula_units_Z  1
loop_
  _symmetry_equiv_pos_site_id
 _symmetry_equiv_pos_as_xyz
 1  'x, y, z'
loop_
 _atom_site_type_symbol
 _atom_site_label
 _atom_site_symmetry_multiplicity
 _atom_site_fract_x
 _atom_site_fract_y
 _atom_site_fract_z
 _atom_site_fract_occupancy
 B  B1  1  0.02165  0.76082  0.25000  1
 Co  Co1  1  0.29801  0.39900  0.25000  1
 Mg  Mg1  1  0.77326  0.37286  0.25000  1
 Mg  Mg2  1  0.77326  0.90040  0.25000  1
 Mg  Mg3  1  0.26267  0.05950  0.75000  1
 Mg  Mg4  1  0.26267  0.70317  0.75000  1
 Mg  Mg5  1  0.94043  0.22021  0.75000  1
 Mg  Mg6  1  0.66804  0.58402  0.75000  1
