CIF file written using JARVIS-Tools package.
data_BeSi2Pb
_symmetry_space_group_name_H-M  'P4mm'
_cell_length_a       3.29893
_cell_length_b       3.29893
_cell_length_c       7.07172
_cell_angle_alpha    90
_cell_angle_beta     90
_cell_angle_gamma    90

_symmetry_Int_Tables_number  99
_chemical_formula_structural  BeSi2Pb
_chemical_formula_sum  BeSi2Pb
_cell_volume  76.96093428615724
_cell_formula_units_Z  1
loop_
  _symmetry_equiv_pos_site_id
 _symmetry_equiv_pos_as_xyz
 1  'x, y, z'
loop_
 _atom_site_type_symbol
 _atom_site_label
 _atom_site_symmetry_multiplicity
 _atom_site_fract_x
 _atom_site_fract_y
 _atom_site_fract_z
 _atom_site_fract_occupancy
 Be  Be1  1  0.00000  0.00000  0.42616  1
 Pb  Pb1  1  0.50000  0.50000  0.69537  1
 Si  Si1  1  0.00000  0.00000  0.10808  1
 Si  Si2  1  0.50000  0.50000  0.27039  1
