CIF file written using JARVIS-Tools package.
data_Li8CoO6
_symmetry_space_group_name_H-M  'P6_3cm'
_cell_length_a       5.49148
_cell_length_b       5.49148
_cell_length_c       10.7366
_cell_angle_alpha    90
_cell_angle_beta     90
_cell_angle_gamma    120

_symmetry_Int_Tables_number  185
_chemical_formula_structural  Li8CoO6
_chemical_formula_sum  Li6Co2O2
_cell_volume  280.39877542753993
_cell_formula_units_Z  2
loop_
  _symmetry_equiv_pos_site_id
 _symmetry_equiv_pos_as_xyz
 1  'x, y, z'
loop_
 _atom_site_type_symbol
 _atom_site_label
 _atom_site_symmetry_multiplicity
 _atom_site_fract_x
 _atom_site_fract_y
 _atom_site_fract_z
 _atom_site_fract_occupancy
 Co  Co1  1  0.00000  0.00000  0.49576  1
 Co  Co2  1  0.00000  0.00000  0.99576  1
 Li  Li1  1  0.68688  0.00000  0.76775  1
 Li  Li2  1  0.68688  0.68688  0.26775  1
 Li  Li3  1  0.00000  0.31312  0.26775  1
 Li  Li4  1  -0.00000  0.68688  0.76775  1
 Li  Li5  1  0.31312  0.31312  0.76775  1
 Li  Li6  1  0.31312  0.00000  0.26775  1
 Li  Li7  1  0.60968  0.00000  0.12721  1
 Li  Li8  1  0.60968  0.60968  0.62721  1
 Li  Li9  1  -0.00000  0.39032  0.62721  1
 Li  Li10  1  0.00000  0.60968  0.12721  1
 Li  Li11  1  0.39032  0.39032  0.12721  1
 Li  Li12  1  0.39032  0.00000  0.62721  1
 Li  Li13  1  0.66667  0.33333  0.40701  1
 Li  Li14  1  0.33333  0.66667  0.90701  1
 Li  Li15  1  0.66667  0.33333  0.90701  1
 Li  Li16  1  0.33333  0.66667  0.40701  1
 O  O1  1  0.33333  0.66667  0.71584  1
 O  O2  1  0.00000  0.00000  0.66895  1
 O  O3  1  0.33333  0.66667  0.21584  1
 O  O4  1  0.66667  0.33333  0.71584  1
 O  O5  1  0.00000  0.00000  0.16895  1
 O  O6  1  0.00000  0.31570  0.44890  1
 O  O7  1  0.31570  0.00000  0.44890  1
 O  O8  1  0.31570  0.31570  0.94891  1
 O  O9  1  0.68430  0.68430  0.44890  1
 O  O10  1  0.68430  0.00000  0.94891  1
 O  O11  1  0.66667  0.33333  0.21584  1
 O  O12  1  -0.00000  0.68430  0.94891  1
