CIF file written using JARVIS-Tools package.
data_Mg6VMo
_symmetry_space_group_name_H-M  'Amm2'
_cell_length_a       6.24911
_cell_length_b       6.24911
_cell_length_c       4.72258
_cell_angle_alpha    90
_cell_angle_beta     90
_cell_angle_gamma    123.159

_symmetry_Int_Tables_number  38
_chemical_formula_structural  Mg6VMo
_chemical_formula_sum  Mg6VMo
_cell_volume  154.39076303860648
_cell_formula_units_Z  1
loop_
  _symmetry_equiv_pos_site_id
 _symmetry_equiv_pos_as_xyz
 1  'x, y, z'
loop_
 _atom_site_type_symbol
 _atom_site_label
 _atom_site_symmetry_multiplicity
 _atom_site_fract_x
 _atom_site_fract_y
 _atom_site_fract_z
 _atom_site_fract_occupancy
 Mg  Mg1  1  0.18237  0.83806  0.25000  1
 Mg  Mg2  1  0.66194  0.31763  0.25000  1
 Mg  Mg3  1  0.67172  0.82828  0.25000  1
 Mg  Mg4  1  0.31864  0.66516  0.75000  1
 Mg  Mg5  1  0.83484  0.18136  0.75000  1
 Mg  Mg6  1  0.82870  0.67130  0.75000  1
 Mo  Mo1  1  0.30584  0.19416  0.75000  1
 V  V1  1  0.19595  0.30405  0.25000  1
