CIF file written using JARVIS-Tools package.
data_Na2WO2F4
_symmetry_space_group_name_H-M  'Pbcn'
_cell_length_a       5.03795
_cell_length_b       5.43179
_cell_length_c       18.4806
_cell_angle_alpha    90
_cell_angle_beta     90
_cell_angle_gamma    90

_symmetry_Int_Tables_number  60
_chemical_formula_structural  Na2WO2F4
_chemical_formula_sum  Na8W4O8F6
_cell_volume  505.72296725978117
_cell_formula_units_Z  4
loop_
  _symmetry_equiv_pos_site_id
 _symmetry_equiv_pos_as_xyz
 1  'x, y, z'
loop_
 _atom_site_type_symbol
 _atom_site_label
 _atom_site_symmetry_multiplicity
 _atom_site_fract_x
 _atom_site_fract_y
 _atom_site_fract_z
 _atom_site_fract_occupancy
 F  F1  1  0.79651  0.39592  0.19384  1
 F  F2  1  0.29651  0.60408  0.30616  1
 F  F3  1  0.71229  0.95624  0.62595  1
 F  F4  1  0.21229  0.04376  0.87405  1
 F  F5  1  0.78771  0.45624  0.87405  1
 F  F6  1  0.28771  0.54376  0.62595  1
 F  F7  1  0.28771  0.04376  0.37405  1
 F  F8  1  0.78771  0.95624  0.12595  1
 F  F9  1  0.71229  0.45624  0.37405  1
 F  F10  1  0.79651  0.89592  0.80616  1
 F  F11  1  0.29651  0.10408  0.69384  1
 F  F12  1  0.70349  0.39592  0.69384  1
 F  F13  1  0.20349  0.60408  0.80616  1
 F  F14  1  0.20349  0.10408  0.19384  1
 F  F15  1  0.70349  0.89592  0.30616  1
 F  F16  1  0.21229  0.54376  0.12595  1
 Na  Na1  1  0.00000  0.75000  0.22830  1
 Na  Na2  1  0.50000  0.25000  0.27170  1
 Na  Na3  1  0.00000  0.25000  0.77170  1
 Na  Na4  1  0.50000  0.75000  0.72830  1
 Na  Na5  1  0.00000  0.75000  0.55237  1
 Na  Na6  1  0.50000  0.25000  0.94763  1
 Na  Na7  1  0.00000  0.25000  0.44763  1
 Na  Na8  1  0.50000  0.75000  0.05237  1
 O  O1  1  0.72934  0.88562  0.45291  1
 O  O2  1  0.72934  0.38562  0.54709  1
 O  O3  1  0.27066  0.11438  0.54709  1
 O  O4  1  0.77066  0.38562  0.04709  1
 O  O5  1  0.27066  0.61438  0.45291  1
 O  O6  1  0.22934  0.11438  0.04709  1
 O  O7  1  0.22934  0.61438  0.95291  1
 O  O8  1  0.77066  0.88562  0.95291  1
 W  W1  1  0.00000  0.25000  0.10665  1
 W  W2  1  0.50000  0.75000  0.39335  1
 W  W3  1  0.50000  0.25000  0.60665  1
 W  W4  1  0.00000  0.75000  0.89335  1
