CIF file written using JARVIS-Tools package.
data_RbPO3
_symmetry_space_group_name_H-M  'P2_1/c'
_cell_length_a       4.23331
_cell_length_b       6.46177
_cell_length_c       12.1356
_cell_angle_alpha    96.5249
_cell_angle_beta     90
_cell_angle_gamma    90

_symmetry_Int_Tables_number  14
_chemical_formula_structural  RbPO3
_chemical_formula_sum  Rb4P4O2
_cell_volume  329.8136528432097
_cell_formula_units_Z  4
loop_
  _symmetry_equiv_pos_site_id
 _symmetry_equiv_pos_as_xyz
 1  'x, y, z'
loop_
 _atom_site_type_symbol
 _atom_site_label
 _atom_site_symmetry_multiplicity
 _atom_site_fract_x
 _atom_site_fract_y
 _atom_site_fract_z
 _atom_site_fract_occupancy
 O  O1  1  0.25504  0.84857  0.78157  1
 O  O2  1  0.35278  0.47317  0.82423  1
 O  O3  1  0.14722  0.97317  0.32423  1
 O  O4  1  0.64722  0.52683  0.17577  1
 O  O5  1  0.16205  0.71244  0.57635  1
 O  O6  1  0.66205  0.78756  0.92365  1
 O  O7  1  0.83795  0.28756  0.42365  1
 O  O8  1  0.33795  0.21244  0.07635  1
 O  O9  1  0.85278  0.02683  0.67577  1
 O  O10  1  0.24496  0.34857  0.28157  1
 O  O11  1  0.75504  0.65143  0.71843  1
 O  O12  1  0.74496  0.15143  0.21843  1
 P  P1  1  0.00638  0.81871  0.67797  1
 P  P2  1  0.50638  0.68129  0.82203  1
 P  P3  1  0.99362  0.18129  0.32203  1
 P  P4  1  0.49362  0.31871  0.17797  1
 Rb  Rb1  1  0.64045  0.72242  0.40820  1
 Rb  Rb2  1  0.35955  0.27758  0.59180  1
 Rb  Rb3  1  0.85955  0.22242  0.90820  1
 Rb  Rb4  1  0.14045  0.77758  0.09180  1
