CIF file written using JARVIS-Tools package.
data_TbZrSb
_symmetry_space_group_name_H-M  'I4/mmm'
_cell_length_a       4.275
_cell_length_b       4.275
_cell_length_c       8.86541
_cell_angle_alpha    103.952
_cell_angle_beta     103.952
_cell_angle_gamma    89.9999

_symmetry_Int_Tables_number  139
_chemical_formula_structural  TbZrSb
_chemical_formula_sum  Tb2Zr2Sb2
_cell_volume  152.31152109255447
_cell_formula_units_Z  2
loop_
  _symmetry_equiv_pos_site_id
 _symmetry_equiv_pos_as_xyz
 1  'x, y, z'
loop_
 _atom_site_type_symbol
 _atom_site_label
 _atom_site_symmetry_multiplicity
 _atom_site_fract_x
 _atom_site_fract_y
 _atom_site_fract_z
 _atom_site_fract_occupancy
 Sb  Sb1  1  0.13335  0.13335  0.26670  1
 Sb  Sb2  1  0.86665  0.86665  0.73330  1
 Tb  Tb1  1  0.67674  0.67674  0.35347  1
 Tb  Tb2  1  0.32326  0.32326  0.64653  1
 Zr  Zr1  1  -0.00000  0.50000  0.00000  1
 Zr  Zr2  1  0.50000  0.00000  -0.00000  1
