CIF file written using JARVIS-Tools package.
data_NiS2
_symmetry_space_group_name_H-M  'Pnnm'
_cell_length_a       3.54338
_cell_length_b       4.61251
_cell_length_c       5.59497
_cell_angle_alpha    89.9991
_cell_angle_beta     89.9989
_cell_angle_gamma    88.8778

_symmetry_Int_Tables_number  58
_chemical_formula_structural  NiS2
_chemical_formula_sum  Ni2S4
_cell_volume  91.42607838385128
_cell_formula_units_Z  2
loop_
  _symmetry_equiv_pos_site_id
 _symmetry_equiv_pos_as_xyz
 1  'x, y, z'
loop_
 _atom_site_type_symbol
 _atom_site_label
 _atom_site_symmetry_multiplicity
 _atom_site_fract_x
 _atom_site_fract_y
 _atom_site_fract_z
 _atom_site_fract_occupancy
 Ni  Ni1  1  0.24990  0.25000  0.83334  1
 Ni  Ni2  1  0.75010  0.75000  0.33334  1
 S  S1  1  0.75001  0.93222  0.94462  1
 S  S2  1  0.25013  0.43222  0.22204  1
 S  S3  1  0.74986  0.56778  0.72204  1
 S  S4  1  0.24998  0.06778  0.44462  1
