CIF file written using JARVIS-Tools package.
data_Sm4Bi2O
_symmetry_space_group_name_H-M  'I4/mmm'
_cell_length_a       4.68286
_cell_length_b       4.68286
_cell_length_c       9.20024
_cell_angle_alpha    104.744
_cell_angle_beta     104.744
_cell_angle_gamma    90

_symmetry_Int_Tables_number  139
_chemical_formula_structural  Sm4Bi2O
_chemical_formula_sum  Sm4Bi2O
_cell_volume  188.2333835355503
_cell_formula_units_Z  1
loop_
  _symmetry_equiv_pos_site_id
 _symmetry_equiv_pos_as_xyz
 1  'x, y, z'
loop_
 _atom_site_type_symbol
 _atom_site_label
 _atom_site_symmetry_multiplicity
 _atom_site_fract_x
 _atom_site_fract_y
 _atom_site_fract_z
 _atom_site_fract_occupancy
 Bi  Bi1  1  0.64116  0.64116  0.28232  1
 Bi  Bi2  1  0.35884  0.35884  0.71768  1
 O  O1  1  0.00000  0.00000  0.00000  1
 Sm  Sm1  1  0.50000  0.00000  0.00000  1
 Sm  Sm2  1  0.00000  0.50000  0.00000  1
 Sm  Sm3  1  0.82797  0.82797  0.65595  1
 Sm  Sm4  1  0.17203  0.17203  0.34405  1
