CIF file written using JARVIS-Tools package.
data_ZrTi2
_symmetry_space_group_name_H-M  'Fd-3m'
_cell_length_a       5.49008
_cell_length_b       5.49008
_cell_length_c       5.49008
_cell_angle_alpha    60
_cell_angle_beta     60
_cell_angle_gamma    60

_symmetry_Int_Tables_number  227
_chemical_formula_structural  ZrTi2
_chemical_formula_sum  Zr2Ti4
_cell_volume  117.00928313164367
_cell_formula_units_Z  2
loop_
  _symmetry_equiv_pos_site_id
 _symmetry_equiv_pos_as_xyz
 1  'x, y, z'
loop_
 _atom_site_type_symbol
 _atom_site_label
 _atom_site_symmetry_multiplicity
 _atom_site_fract_x
 _atom_site_fract_y
 _atom_site_fract_z
 _atom_site_fract_occupancy
 Ti  Ti1  1  0.87500  0.37500  0.37500  1
 Ti  Ti2  1  0.37500  0.87500  0.37500  1
 Ti  Ti3  1  0.37500  0.37500  0.87500  1
 Ti  Ti4  1  0.37500  0.37500  0.37500  1
 Zr  Zr1  1  0.75000  0.75000  0.75000  1
 Zr  Zr2  1  0.00000  0.00000  0.00000  1
