CIF file written using JARVIS-Tools package.
data_BeNiSb2
_symmetry_space_group_name_H-M  'P4mm'
_cell_length_a       3.13288
_cell_length_b       3.13288
_cell_length_c       7.81737
_cell_angle_alpha    90
_cell_angle_beta     90
_cell_angle_gamma    90

_symmetry_Int_Tables_number  99
_chemical_formula_structural  BeNiSb2
_chemical_formula_sum  BeNiSb2
_cell_volume  76.72700066920656
_cell_formula_units_Z  1
loop_
  _symmetry_equiv_pos_site_id
 _symmetry_equiv_pos_as_xyz
 1  'x, y, z'
loop_
 _atom_site_type_symbol
 _atom_site_label
 _atom_site_symmetry_multiplicity
 _atom_site_fract_x
 _atom_site_fract_y
 _atom_site_fract_z
 _atom_site_fract_occupancy
 Be  Be1  1  0.00000  0.00000  0.57306  1
 Ni  Ni1  1  0.50000  0.50000  0.68066  1
 Sb  Sb1  1  0.00000  0.00000  0.90086  1
 Sb  Sb2  1  0.50000  0.50000  0.34542  1
