CIF file written using JARVIS-Tools package.
data_BaDyCo4O7
_symmetry_space_group_name_H-M  'P6_3mc'
_cell_length_a       6.26696
_cell_length_b       6.26696
_cell_length_c       10.3023
_cell_angle_alpha    90
_cell_angle_beta     90
_cell_angle_gamma    120

_symmetry_Int_Tables_number  186
_chemical_formula_structural  BaDyCo4O7
_chemical_formula_sum  Ba2Dy2Co8O4
_cell_volume  350.4100188863558
_cell_formula_units_Z  2
loop_
  _symmetry_equiv_pos_site_id
 _symmetry_equiv_pos_as_xyz
 1  'x, y, z'
loop_
 _atom_site_type_symbol
 _atom_site_label
 _atom_site_symmetry_multiplicity
 _atom_site_fract_x
 _atom_site_fract_y
 _atom_site_fract_z
 _atom_site_fract_occupancy
 Ba  Ba1  1  0.66667  0.33333  0.50705  1
 Ba  Ba2  1  0.33333  0.66667  0.00705  1
 Co  Co1  1  0.82693  0.17307  0.18570  1
 Co  Co2  1  0.65386  0.82693  0.68570  1
 Co  Co3  1  0.17307  0.34614  0.68570  1
 Co  Co4  1  0.34614  0.17307  0.18570  1
 Co  Co5  1  0.82693  0.65386  0.18570  1
 Co  Co6  1  0.00000  0.00000  0.92671  1
 Co  Co7  1  0.00000  0.00000  0.42671  1
 Co  Co8  1  0.17307  0.82693  0.68570  1
 Dy  Dy1  1  0.33333  0.66667  0.38056  1
 Dy  Dy2  1  0.66667  0.33333  0.88056  1
 O  O1  1  0.15998  0.84002  0.50241  1
 O  O2  1  0.68004  0.84002  0.50241  1
 O  O3  1  0.15998  0.31996  0.50241  1
 O  O4  1  0.84002  0.68004  0.00241  1
 O  O5  1  0.31996  0.15998  0.00241  1
 O  O6  1  0.00000  0.00000  0.74652  1
 O  O7  1  0.99996  0.49998  0.25164  1
 O  O8  1  0.50002  0.49998  0.25164  1
 O  O9  1  0.00004  0.50002  0.75164  1
 O  O10  1  0.49998  0.99996  0.75164  1
 O  O11  1  0.84002  0.15998  0.00241  1
 O  O12  1  0.50002  0.00004  0.25164  1
 O  O13  1  0.00000  0.00000  0.24652  1
 O  O14  1  0.49998  0.50002  0.75164  1
