CIF file written using JARVIS-Tools package.
data_Fe6O7F5
_symmetry_space_group_name_H-M  'P1'
_cell_length_a       4.53656
_cell_length_b       5.46325
_cell_length_c       7.5583
_cell_angle_alpha    84.7899
_cell_angle_beta     88.4814
_cell_angle_gamma    88.4861

_symmetry_Int_Tables_number  1
_chemical_formula_structural  Fe6O7F5
_chemical_formula_sum  Fe6O7F5
_cell_volume  186.4339549148356
_cell_formula_units_Z  1
loop_
  _symmetry_equiv_pos_site_id
 _symmetry_equiv_pos_as_xyz
 1  'x, y, z'
loop_
 _atom_site_type_symbol
 _atom_site_label
 _atom_site_symmetry_multiplicity
 _atom_site_fract_x
 _atom_site_fract_y
 _atom_site_fract_z
 _atom_site_fract_occupancy
 F  F1  1  0.21559  0.37578  0.42994  1
 F  F2  1  0.71110  0.43646  0.23631  1
 F  F3  1  0.71588  0.80416  0.90571  1
 F  F4  1  0.21269  0.04052  0.76610  1
 F  F5  1  0.28519  0.88736  0.42990  1
 Fe  Fe1  1  0.51672  0.15238  0.33499  1
 Fe  Fe2  1  0.96426  0.35054  0.67749  1
 Fe  Fe3  1  0.99403  0.67195  0.31979  1
 Fe  Fe4  1  0.52464  0.82528  0.66260  1
 Fe  Fe5  1  0.45872  0.47582  0.98608  1
 Fe  Fe6  1  0.01902  0.01323  0.02185  1
 O  O1  1  0.20715  0.69510  0.10476  1
 O  O2  1  0.30435  0.19975  0.11787  1
 O  O3  1  0.79126  0.30403  0.90465  1
 O  O4  1  0.78303  0.95401  0.23959  1
 O  O5  1  0.79983  0.63705  0.54507  1
 O  O6  1  0.69138  0.12280  0.55927  1
 O  O7  1  0.30517  0.55379  0.75802  1
