CIF file written using JARVIS-Tools package.
data_BeCrHg2
_symmetry_space_group_name_H-M  'P4mm'
_cell_length_a       3.01951
_cell_length_b       3.01951
_cell_length_c       7.49191
_cell_angle_alpha    90
_cell_angle_beta     90
_cell_angle_gamma    90

_symmetry_Int_Tables_number  99
_chemical_formula_structural  BeCrHg2
_chemical_formula_sum  BeCrHg2
_cell_volume  68.30708162434598
_cell_formula_units_Z  1
loop_
  _symmetry_equiv_pos_site_id
 _symmetry_equiv_pos_as_xyz
 1  'x, y, z'
loop_
 _atom_site_type_symbol
 _atom_site_label
 _atom_site_symmetry_multiplicity
 _atom_site_fract_x
 _atom_site_fract_y
 _atom_site_fract_z
 _atom_site_fract_occupancy
 Be  Be1  1  0.00000  0.00000  0.53147  1
 Cr  Cr1  1  0.50000  0.50000  0.69980  1
 Hg  Hg1  1  0.00000  0.00000  0.96386  1
 Hg  Hg2  1  0.50000  0.50000  0.30486  1
