CIF file written using JARVIS-Tools package.
data_HoPRu2C
_symmetry_space_group_name_H-M  'Cmcm'
_cell_length_a       5.8518
_cell_length_b       5.8518
_cell_length_c       7.05214
_cell_angle_alpha    90
_cell_angle_beta     90
_cell_angle_gamma    142.484

_symmetry_Int_Tables_number  63
_chemical_formula_structural  HoPRu2C
_chemical_formula_sum  Ho2P2Ru4C2
_cell_volume  147.06306280876709
_cell_formula_units_Z  2
loop_
  _symmetry_equiv_pos_site_id
 _symmetry_equiv_pos_as_xyz
 1  'x, y, z'
loop_
 _atom_site_type_symbol
 _atom_site_label
 _atom_site_symmetry_multiplicity
 _atom_site_fract_x
 _atom_site_fract_y
 _atom_site_fract_z
 _atom_site_fract_occupancy
 C  C1  1  0.00000  0.00000  0.00000  1
 C  C2  1  0.00000  0.00000  0.50000  1
 Ho  Ho1  1  0.54322  0.45678  0.25000  1
 Ho  Ho2  1  0.45678  0.54322  0.75000  1
 P  P1  1  0.26812  0.73188  0.25000  1
 P  P2  1  0.73188  0.26812  0.75000  1
 Ru  Ru1  1  0.83508  0.16492  0.05280  1
 Ru  Ru2  1  0.16492  0.83508  0.94720  1
 Ru  Ru3  1  0.16492  0.83508  0.55280  1
 Ru  Ru4  1  0.83508  0.16492  0.44720  1
