CIF file written using JARVIS-Tools package.
data_TbSiNi4
_symmetry_space_group_name_H-M  'Cmmm'
_cell_length_a       3.96266
_cell_length_b       4.80996
_cell_length_c       4.80996
_cell_angle_alpha    116.254
_cell_angle_beta     90
_cell_angle_gamma    90

_symmetry_Int_Tables_number  65
_chemical_formula_structural  TbSiNi4
_chemical_formula_sum  TbSiNi4
_cell_volume  82.22127563289625
_cell_formula_units_Z  1
loop_
  _symmetry_equiv_pos_site_id
 _symmetry_equiv_pos_as_xyz
 1  'x, y, z'
loop_
 _atom_site_type_symbol
 _atom_site_label
 _atom_site_symmetry_multiplicity
 _atom_site_fract_x
 _atom_site_fract_y
 _atom_site_fract_z
 _atom_site_fract_occupancy
 Ni  Ni1  1  0.00000  0.34122  0.65878  1
 Ni  Ni2  1  0.00000  0.65878  0.34122  1
 Ni  Ni3  1  0.50000  -0.00000  0.50000  1
 Ni  Ni4  1  0.50000  0.50000  -0.00000  1
 Si  Si1  1  0.50000  0.50000  0.50000  1
 Tb  Tb1  1  0.00000  0.00000  0.00000  1
