CIF file written using JARVIS-Tools package.
data_LaMg6Nb
_symmetry_space_group_name_H-M  'Amm2'
_cell_length_a       6.6178
_cell_length_b       6.6178
_cell_length_c       5.06091
_cell_angle_alpha    90
_cell_angle_beta     90
_cell_angle_gamma    121.632

_symmetry_Int_Tables_number  38
_chemical_formula_structural  LaMg6Nb
_chemical_formula_sum  LaMg6Nb
_cell_volume  188.71544089619067
_cell_formula_units_Z  1
loop_
  _symmetry_equiv_pos_site_id
 _symmetry_equiv_pos_as_xyz
 1  'x, y, z'
loop_
 _atom_site_type_symbol
 _atom_site_label
 _atom_site_symmetry_multiplicity
 _atom_site_fract_x
 _atom_site_fract_y
 _atom_site_fract_z
 _atom_site_fract_occupancy
 La  La1  1  0.19696  0.30304  0.25000  1
 Mg  Mg1  1  0.18721  0.82992  0.25000  1
 Mg  Mg2  1  0.67008  0.31279  0.25000  1
 Mg  Mg3  1  0.66565  0.83435  0.25000  1
 Mg  Mg4  1  0.32758  0.68635  0.75000  1
 Mg  Mg5  1  0.81365  0.17242  0.75000  1
 Mg  Mg6  1  0.82491  0.67509  0.75000  1
 Nb  Nb1  1  0.31396  0.18604  0.75000  1
