CIF file written using JARVIS-Tools package.
data_Mn2O3
_symmetry_space_group_name_H-M  'Ia-3'
_cell_length_a       8.19886
_cell_length_b       8.19886
_cell_length_c       8.19886
_cell_angle_alpha    109.471
_cell_angle_beta     109.471
_cell_angle_gamma    109.471

_symmetry_Int_Tables_number  206
_chemical_formula_structural  Mn2O3
_chemical_formula_sum  Mn6O24
_cell_volume  424.2661976160432
_cell_formula_units_Z  8
loop_
  _symmetry_equiv_pos_site_id
 _symmetry_equiv_pos_as_xyz
 1  'x, y, z'
loop_
 _atom_site_type_symbol
 _atom_site_label
 _atom_site_symmetry_multiplicity
 _atom_site_fract_x
 _atom_site_fract_y
 _atom_site_fract_z
 _atom_site_fract_occupancy
 Mn  Mn1  1  0.50000  0.50000  0.50000  1
 Mn  Mn2  1  0.78453  0.03453  0.75000  1
 Mn  Mn3  1  0.00000  0.00000  0.50000  1
 Mn  Mn4  1  0.00000  0.50000  0.00000  1
 Mn  Mn5  1  0.46547  0.25000  0.71547  1
 Mn  Mn6  1  0.75000  0.78453  0.03453  1
 Mn  Mn7  1  0.71547  0.46547  0.25000  1
 Mn  Mn8  1  0.21547  0.96547  0.25000  1
 Mn  Mn9  1  0.50000  0.00000  -0.00000  1
 Mn  Mn10  1  0.03453  0.75000  0.78453  1
 Mn  Mn11  1  0.53453  0.75000  0.28453  1
 Mn  Mn12  1  0.25000  0.21547  0.96547  1
 Mn  Mn13  1  0.28453  0.53453  0.75000  1
 Mn  Mn14  1  0.75000  0.28453  0.53453  1
 Mn  Mn15  1  0.96547  0.25000  0.21547  1
 Mn  Mn16  1  0.25000  0.71547  0.46547  1
 O  O1  1  0.22730  0.45479  0.43882  1
 O  O2  1  0.45479  0.43882  0.22730  1
 O  O3  1  0.78848  0.06118  0.51597  1
 O  O4  1  0.27270  0.71152  0.22749  1
 O  O5  1  0.98403  0.04521  0.27251  1
 O  O6  1  0.77251  0.72730  0.28848  1
 O  O7  1  0.71152  0.22749  0.27270  1
 O  O8  1  0.43882  0.22730  0.45479  1
 O  O9  1  0.27251  0.98403  0.04521  1
 O  O10  1  0.04521  0.27251  0.98403  1
 O  O11  1  0.51597  0.78848  0.06118  1
 O  O12  1  0.95479  0.72749  0.01597  1
 O  O13  1  0.72730  0.28848  0.77251  1
 O  O14  1  0.56118  0.77270  0.54521  1
 O  O15  1  0.72749  0.01597  0.95479  1
 O  O16  1  0.54521  0.56118  0.77270  1
 O  O17  1  0.21152  0.93882  0.48403  1
 O  O18  1  0.77270  0.54521  0.56118  1
 O  O19  1  0.22749  0.27270  0.71152  1
 O  O20  1  0.48403  0.21152  0.93882  1
 O  O21  1  0.28848  0.77251  0.72730  1
 O  O22  1  0.01597  0.95479  0.72749  1
 O  O23  1  0.06118  0.51597  0.78848  1
 O  O24  1  0.93882  0.48403  0.21152  1
