CIF file written using JARVIS-Tools package.
data_MgBe2Re
_symmetry_space_group_name_H-M  'P4/mmm'
_cell_length_a       3.03389
_cell_length_b       3.03389
_cell_length_c       5.62974
_cell_angle_alpha    90
_cell_angle_beta     90
_cell_angle_gamma    90

_symmetry_Int_Tables_number  123
_chemical_formula_structural  MgBe2Re
_chemical_formula_sum  MgBe2Re
_cell_volume  51.81875984857713
_cell_formula_units_Z  1
loop_
  _symmetry_equiv_pos_site_id
 _symmetry_equiv_pos_as_xyz
 1  'x, y, z'
loop_
 _atom_site_type_symbol
 _atom_site_label
 _atom_site_symmetry_multiplicity
 _atom_site_fract_x
 _atom_site_fract_y
 _atom_site_fract_z
 _atom_site_fract_occupancy
 Be  Be1  1  0.00000  0.00000  0.69012  1
 Be  Be2  1  0.00000  0.00000  0.30988  1
 Mg  Mg1  1  0.50000  0.50000  0.00000  1
 Re  Re1  1  0.50000  0.50000  0.50000  1
