CIF file written using JARVIS-Tools package.
data_Mg6FeW
_symmetry_space_group_name_H-M  'Amm2'
_cell_length_a       6.17109
_cell_length_b       6.17109
_cell_length_c       4.6578
_cell_angle_alpha    90
_cell_angle_beta     90
_cell_angle_gamma    123.359

_symmetry_Int_Tables_number  38
_chemical_formula_structural  Mg6FeW
_chemical_formula_sum  Mg6FeW
_cell_volume  148.1542988326351
_cell_formula_units_Z  1
loop_
  _symmetry_equiv_pos_site_id
 _symmetry_equiv_pos_as_xyz
 1  'x, y, z'
loop_
 _atom_site_type_symbol
 _atom_site_label
 _atom_site_symmetry_multiplicity
 _atom_site_fract_x
 _atom_site_fract_y
 _atom_site_fract_z
 _atom_site_fract_occupancy
 Fe  Fe1  1  0.19845  0.30155  0.25000  1
 Mg  Mg1  1  0.17994  0.84332  0.25000  1
 Mg  Mg2  1  0.65668  0.32006  0.25000  1
 Mg  Mg3  1  0.67316  0.82684  0.25000  1
 Mg  Mg4  1  0.31975  0.66548  0.75000  1
 Mg  Mg5  1  0.83452  0.18025  0.75000  1
 Mg  Mg6  1  0.82985  0.67015  0.75000  1
 W  W1  1  0.30766  0.19234  0.75000  1
