CIF file written using JARVIS-Tools package.
data_LiMg6B
_symmetry_space_group_name_H-M  'Amm2'
_cell_length_a       6.84508
_cell_length_b       6.84507
_cell_length_c       3.3834
_cell_angle_alpha    90
_cell_angle_beta     90
_cell_angle_gamma    98.29

_symmetry_Int_Tables_number  38
_chemical_formula_structural  LiMg6B
_chemical_formula_sum  LiMg6B
_cell_volume  156.87267098898994
_cell_formula_units_Z  1
loop_
  _symmetry_equiv_pos_site_id
 _symmetry_equiv_pos_as_xyz
 1  'x, y, z'
loop_
 _atom_site_type_symbol
 _atom_site_label
 _atom_site_symmetry_multiplicity
 _atom_site_fract_x
 _atom_site_fract_y
 _atom_site_fract_z
 _atom_site_fract_occupancy
 B  B1  1  0.27669  0.22331  0.75000  1
 Li  Li1  1  0.12594  0.37406  0.25000  1
 Mg  Mg1  1  0.21716  0.94914  0.25000  1
 Mg  Mg2  1  0.55086  0.28284  0.25000  1
 Mg  Mg3  1  0.65412  0.84588  0.25000  1
 Mg  Mg4  1  0.37271  0.59033  0.75000  1
 Mg  Mg5  1  0.90967  0.12729  0.75000  1
 Mg  Mg6  1  0.89285  0.60715  0.75000  1
