CIF file written using JARVIS-Tools package.
data_LiNd2Si2
_symmetry_space_group_name_H-M  'P4/mbm'
_cell_length_a       4.31438
_cell_length_b       7.43485
_cell_length_c       7.43485
_cell_angle_alpha    90
_cell_angle_beta     90
_cell_angle_gamma    90

_symmetry_Int_Tables_number  127
_chemical_formula_structural  LiNd2Si2
_chemical_formula_sum  Li2Nd4Si4
_cell_volume  238.48632333971335
_cell_formula_units_Z  2
loop_
  _symmetry_equiv_pos_site_id
 _symmetry_equiv_pos_as_xyz
 1  'x, y, z'
loop_
 _atom_site_type_symbol
 _atom_site_label
 _atom_site_symmetry_multiplicity
 _atom_site_fract_x
 _atom_site_fract_y
 _atom_site_fract_z
 _atom_site_fract_occupancy
 Li  Li1  1  0.00000  0.50000  0.50000  1
 Li  Li2  1  0.00000  0.00000  0.00000  1
 Nd  Nd1  1  0.50000  0.18151  0.68151  1
 Nd  Nd2  1  0.50000  0.81849  0.31849  1
 Nd  Nd3  1  0.50000  0.31849  0.18151  1
 Nd  Nd4  1  0.50000  0.68151  0.81849  1
 Si  Si1  1  0.00000  0.61482  0.11482  1
 Si  Si2  1  0.00000  0.38518  0.88518  1
 Si  Si3  1  0.00000  0.88518  0.61482  1
 Si  Si4  1  0.00000  0.11482  0.38518  1
