CIF file written using JARVIS-Tools package.
data_Cu4Bi5S10
_symmetry_space_group_name_H-M  'C2/m'
_cell_length_a       3.90398
_cell_length_b       9.00915
_cell_length_c       12.935
_cell_angle_alpha    107.422
_cell_angle_beta     90
_cell_angle_gamma    102.513

_symmetry_Int_Tables_number  12
_chemical_formula_structural  Cu4Bi5S10
_chemical_formula_sum  Cu4Bi5S0
_cell_volume  422.7352694579848
_cell_formula_units_Z  1
loop_
  _symmetry_equiv_pos_site_id
 _symmetry_equiv_pos_as_xyz
 1  'x, y, z'
loop_
 _atom_site_type_symbol
 _atom_site_label
 _atom_site_symmetry_multiplicity
 _atom_site_fract_x
 _atom_site_fract_y
 _atom_site_fract_z
 _atom_site_fract_occupancy
 Bi  Bi1  1  0.00000  0.00000  0.00000  1
 Bi  Bi2  1  0.80408  0.60817  0.66399  1
 Bi  Bi3  1  0.41088  0.82177  0.22420  1
 Bi  Bi4  1  0.58912  0.17823  0.77580  1
 Bi  Bi5  1  0.19592  0.39183  0.33601  1
 Cu  Cu1  1  0.71149  0.42299  0.05734  1
 Cu  Cu2  1  0.28851  0.57701  0.94266  1
 Cu  Cu3  1  0.90297  0.80594  0.48540  1
 Cu  Cu4  1  0.09703  0.19406  0.51460  1
 S  S1  1  0.97804  0.95608  0.36628  1
 S  S2  1  0.15319  0.30639  0.97182  1
 S  S3  1  0.84681  0.69361  0.02818  1
 S  S4  1  0.66482  0.32964  0.50286  1
 S  S5  1  0.02196  0.04392  0.63372  1
 S  S6  1  0.23975  0.47951  0.75854  1
 S  S7  1  0.76025  0.52049  0.24146  1
 S  S8  1  0.45593  0.91186  0.83228  1
 S  S9  1  0.33518  0.67036  0.49714  1
 S  S10  1  0.54407  0.08814  0.16772  1
