CIF file written using JARVIS-Tools package.
data_RbCdH2I3O
_symmetry_space_group_name_H-M  'Cc'
_cell_length_a       7.36814
_cell_length_b       7.36814
_cell_length_c       8.81667
_cell_angle_alpha    89.1417
_cell_angle_beta     90.8583
_cell_angle_gamma    95.6851

_symmetry_Int_Tables_number  9
_chemical_formula_structural  RbCdH2I3O
_chemical_formula_sum  Rb2Cd2H4I6O2
_cell_volume  476.2014854633397
_cell_formula_units_Z  2
loop_
  _symmetry_equiv_pos_site_id
 _symmetry_equiv_pos_as_xyz
 1  'x, y, z'
loop_
 _atom_site_type_symbol
 _atom_site_label
 _atom_site_symmetry_multiplicity
 _atom_site_fract_x
 _atom_site_fract_y
 _atom_site_fract_z
 _atom_site_fract_occupancy
 Cd  Cd1  1  0.97071  0.96601  0.49698  1
 Cd  Cd2  1  0.03399  0.02929  -0.00302  1
 H  H1  1  0.12666  0.48707  0.68023  1
 H  H2  1  0.51293  0.87334  0.18023  1
 H  H3  1  0.27422  0.35143  0.70300  1
 H  H4  1  0.64857  0.72578  0.20300  1
 I  I1  1  0.79604  0.61421  0.48749  1
 I  I2  1  0.38579  0.20396  0.98749  1
 I  I3  1  0.84611  0.17172  0.24285  1
 I  I4  1  0.82828  0.15389  0.74285  1
 I  I5  1  0.34871  -0.00420  0.48666  1
 I  I6  1  0.00420  0.65129  0.98666  1
 O  O1  1  0.25062  0.46565  0.65062  1
 O  O2  1  0.53435  0.74938  0.15062  1
 Rb  Rb1  1  0.50803  0.71901  0.82467  1
 Rb  Rb2  1  0.28099  0.49197  0.32467  1
