CIF file written using JARVIS-Tools package.
data_Ca2Mg
_symmetry_space_group_name_H-M  'P-3m1'
_cell_length_a       3.7627
_cell_length_b       3.7627
_cell_length_c       17.2674
_cell_angle_alpha    90
_cell_angle_beta     90
_cell_angle_gamma    120

_symmetry_Int_Tables_number  164
_chemical_formula_structural  Ca2Mg
_chemical_formula_sum  Ca4Mg2
_cell_volume  211.7180960864569
_cell_formula_units_Z  2
loop_
  _symmetry_equiv_pos_site_id
 _symmetry_equiv_pos_as_xyz
 1  'x, y, z'
loop_
 _atom_site_type_symbol
 _atom_site_label
 _atom_site_symmetry_multiplicity
 _atom_site_fract_x
 _atom_site_fract_y
 _atom_site_fract_z
 _atom_site_fract_occupancy
 Ca  Ca1  1  0.33333  0.66667  0.90754  1
 Ca  Ca2  1  0.66667  0.33333  0.72276  1
 Ca  Ca3  1  0.33333  0.66667  0.27724  1
 Ca  Ca4  1  0.66667  0.33333  0.09246  1
 Mg  Mg1  1  0.33333  0.66667  0.56761  1
 Mg  Mg2  1  0.66667  0.33333  0.43239  1
