CIF file written using JARVIS-Tools package.
data_CuSbPbS3
_symmetry_space_group_name_H-M  'Pmn2_1'
_cell_length_a       7.87643
_cell_length_b       8.21523
_cell_length_c       8.76149
_cell_angle_alpha    89.9999
_cell_angle_beta     89.9998
_cell_angle_gamma    89.9996

_symmetry_Int_Tables_number  31
_chemical_formula_structural  CuSbPbS3
_chemical_formula_sum  Cu4Sb4Pb4S2
_cell_volume  566.9268465268751
_cell_formula_units_Z  4
loop_
  _symmetry_equiv_pos_site_id
 _symmetry_equiv_pos_as_xyz
 1  'x, y, z'
loop_
 _atom_site_type_symbol
 _atom_site_label
 _atom_site_symmetry_multiplicity
 _atom_site_fract_x
 _atom_site_fract_y
 _atom_site_fract_z
 _atom_site_fract_occupancy
 Cu  Cu1  1  0.24283  0.27793  0.42881  1
 Cu  Cu2  1  0.74284  0.72207  0.92881  1
 Cu  Cu3  1  0.75717  0.27793  0.42880  1
 Cu  Cu4  1  0.25717  0.72207  0.92881  1
 Pb  Pb1  1  0.50000  0.92665  0.50245  1
 Pb  Pb2  1  0.00000  0.44068  0.68466  1
 Pb  Pb3  1  0.50000  0.55932  0.18466  1
 Pb  Pb4  1  0.99999  0.07335  0.00245  1
 S  S1  1  0.26323  0.89186  0.14419  1
 S  S2  1  0.50000  0.23249  0.29828  1
 S  S3  1  0.00000  0.76751  0.79828  1
 S  S4  1  0.00000  0.23819  0.28817  1
 S  S5  1  0.26519  0.56485  0.48448  1
 S  S6  1  0.50000  0.76181  0.78817  1
 S  S7  1  0.23482  0.43515  0.98447  1
 S  S8  1  0.76323  0.10814  0.64418  1
 S  S9  1  0.73482  0.56485  0.48447  1
 S  S10  1  0.23676  0.10814  0.64419  1
 S  S11  1  0.76518  0.43515  0.98447  1
 S  S12  1  0.73676  0.89186  0.14418  1
 Sb  Sb1  1  0.50000  0.49027  0.66417  1
 Sb  Sb2  1  0.00000  0.92691  0.55433  1
 Sb  Sb3  1  0.49999  0.07309  0.05433  1
 Sb  Sb4  1  0.00000  0.50973  0.16417  1
