CIF file written using JARVIS-Tools package.
data_Th2Tl
_symmetry_space_group_name_H-M  'I4/mcm'
_cell_length_a       6.26875
_cell_length_b       6.31243
_cell_length_c       6.31243
_cell_angle_alpha    75.7264
_cell_angle_beta     60.2286
_cell_angle_gamma    60.2286

_symmetry_Int_Tables_number  140
_chemical_formula_structural  Th2Tl
_chemical_formula_sum  Th4Tl2
_cell_volume  188.2031402204945
_cell_formula_units_Z  2
loop_
  _symmetry_equiv_pos_site_id
 _symmetry_equiv_pos_as_xyz
 1  'x, y, z'
loop_
 _atom_site_type_symbol
 _atom_site_label
 _atom_site_symmetry_multiplicity
 _atom_site_fract_x
 _atom_site_fract_y
 _atom_site_fract_z
 _atom_site_fract_occupancy
 Th  Th1  1  0.34781  0.50000  0.80438  1
 Th  Th2  1  0.65219  0.50000  0.19562  1
 Th  Th3  1  0.84781  0.80438  0.50000  1
 Th  Th4  1  0.15219  0.19562  0.50000  1
 Tl  Tl1  1  0.75000  0.00000  0.00000  1
 Tl  Tl2  1  0.25000  0.00000  0.00000  1
