CIF file written using JARVIS-Tools package.
data_CeAl3Au
_symmetry_space_group_name_H-M  'I4mm'
_cell_length_a       4.32931
_cell_length_b       4.32931
_cell_length_c       6.23608
_cell_angle_alpha    110.311
_cell_angle_beta     110.311
_cell_angle_gamma    90

_symmetry_Int_Tables_number  107
_chemical_formula_structural  CeAl3Au
_chemical_formula_sum  CeAl3Au
_cell_volume  101.82969290584222
_cell_formula_units_Z  1
loop_
  _symmetry_equiv_pos_site_id
 _symmetry_equiv_pos_as_xyz
 1  'x, y, z'
loop_
 _atom_site_type_symbol
 _atom_site_label
 _atom_site_symmetry_multiplicity
 _atom_site_fract_x
 _atom_site_fract_y
 _atom_site_fract_z
 _atom_site_fract_occupancy
 Al  Al1  1  0.40152  0.40152  0.80304  1
 Al  Al2  1  0.75340  0.25340  0.50680  1
 Al  Al3  1  0.25340  0.75340  0.50680  1
 Au  Au1  1  0.62894  0.62894  0.25789  1
 Ce  Ce1  1  0.99074  0.99074  0.98148  1
