CIF file written using JARVIS-Tools package.
data_Mg2Ni
_symmetry_space_group_name_H-M  'Fm-3m'
_cell_length_a       4.32528
_cell_length_b       4.32528
_cell_length_c       6.11624
_cell_angle_alpha    90.0027
_cell_angle_beta     90.0027
_cell_angle_gamma    89.9986

_symmetry_Int_Tables_number  225
_chemical_formula_structural  Mg2Ni
_chemical_formula_sum  Mg4Ni2
_cell_volume  114.42339545618565
_cell_formula_units_Z  2
loop_
  _symmetry_equiv_pos_site_id
 _symmetry_equiv_pos_as_xyz
 1  'x, y, z'
loop_
 _atom_site_type_symbol
 _atom_site_label
 _atom_site_symmetry_multiplicity
 _atom_site_fract_x
 _atom_site_fract_y
 _atom_site_fract_z
 _atom_site_fract_occupancy
 Mg  Mg1  1  0.98251  0.48247  0.74566  1
 Mg  Mg2  1  0.48247  0.98251  0.74566  1
 Mg  Mg3  1  0.48249  0.98252  0.24567  1
 Mg  Mg4  1  0.98252  0.48249  0.24567  1
 Ni  Ni1  1  0.98248  0.98248  0.99566  1
 Ni  Ni2  1  0.48254  0.48254  0.49569  1
