CIF file written using JARVIS-Tools package.
data_Li2CoOF3
_symmetry_space_group_name_H-M  'P4_1'
_cell_length_a       5.87401
_cell_length_b       5.87401
_cell_length_c       8.07556
_cell_angle_alpha    90
_cell_angle_beta     90
_cell_angle_gamma    90

_symmetry_Int_Tables_number  76
_chemical_formula_structural  Li2CoOF3
_chemical_formula_sum  Li8Co4O4F2
_cell_volume  278.639474548122
_cell_formula_units_Z  4
loop_
  _symmetry_equiv_pos_site_id
 _symmetry_equiv_pos_as_xyz
 1  'x, y, z'
loop_
 _atom_site_type_symbol
 _atom_site_label
 _atom_site_symmetry_multiplicity
 _atom_site_fract_x
 _atom_site_fract_y
 _atom_site_fract_z
 _atom_site_fract_occupancy
 Co  Co1  1  0.24320  0.00329  0.99576  1
 Co  Co2  1  0.75680  0.99671  0.49576  1
 Co  Co3  1  0.99671  0.24320  0.24576  1
 Co  Co4  1  0.00329  0.75680  0.74576  1
 F  F1  1  0.71434  0.99796  0.73851  1
 F  F2  1  0.47228  0.76331  -0.00893  1
 F  F3  1  0.50559  0.74679  0.50445  1
 F  F4  1  0.76331  0.52772  0.74107  1
 F  F5  1  0.25321  0.50559  0.75445  1
 F  F6  1  0.74679  0.49441  0.25445  1
 F  F7  1  0.23669  0.47228  0.24107  1
 F  F8  1  0.52772  0.23669  0.49107  1
 F  F9  1  0.49441  0.25321  0.00445  1
 F  F10  1  0.00204  0.71434  0.98851  1
 F  F11  1  0.99796  0.28566  0.48851  1
 F  F12  1  0.28566  0.00204  0.23851  1
 Li  Li1  1  0.25963  0.24573  0.62518  1
 Li  Li2  1  0.74037  0.75427  0.12518  1
 Li  Li3  1  0.24573  0.74037  0.37518  1
 Li  Li4  1  0.49198  0.73278  0.74524  1
 Li  Li5  1  0.73278  0.50802  0.49524  1
 Li  Li6  1  0.26722  0.49198  0.99524  1
 Li  Li7  1  0.50802  0.26722  0.24524  1
 Li  Li8  1  0.75427  0.25963  0.87518  1
 O  O1  1  0.01853  0.20386  0.02481  1
 O  O2  1  0.20386  0.98147  0.77481  1
 O  O3  1  0.79614  0.01853  0.27481  1
 O  O4  1  0.98147  0.79614  0.52481  1
