CIF file written using JARVIS-Tools package.
data_BaMg6Bi
_symmetry_space_group_name_H-M  'Amm2'
_cell_length_a       7.77304
_cell_length_b       7.77304
_cell_length_c       4.9991
_cell_angle_alpha    90
_cell_angle_beta     90
_cell_angle_gamma    129.236

_symmetry_Int_Tables_number  38
_chemical_formula_structural  BaMg6Bi
_chemical_formula_sum  BaMg6Bi
_cell_volume  233.95136432770232
_cell_formula_units_Z  1
loop_
  _symmetry_equiv_pos_site_id
 _symmetry_equiv_pos_as_xyz
 1  'x, y, z'
loop_
 _atom_site_type_symbol
 _atom_site_label
 _atom_site_symmetry_multiplicity
 _atom_site_fract_x
 _atom_site_fract_y
 _atom_site_fract_z
 _atom_site_fract_occupancy
 Ba  Ba1  1  0.20451  0.29549  0.25000  1
 Bi  Bi1  1  0.38139  0.11861  0.75000  1
 Mg  Mg1  1  0.15855  0.78237  0.25000  1
 Mg  Mg2  1  0.71763  0.34145  0.25000  1
 Mg  Mg3  1  0.62717  0.87283  0.25000  1
 Mg  Mg4  1  0.30656  0.67448  0.75000  1
 Mg  Mg5  1  0.82552  0.19344  0.75000  1
 Mg  Mg6  1  0.77868  0.72132  0.75000  1
