CIF file written using JARVIS-Tools package.
data_CoCu2SiS4
_symmetry_space_group_name_H-M  'I-42m'
_cell_length_a       5.20075
_cell_length_b       5.20075
_cell_length_c       6.40511
_cell_angle_alpha    113.953
_cell_angle_beta     113.953
_cell_angle_gamma    90

_symmetry_Int_Tables_number  121
_chemical_formula_structural  CoCu2SiS4
_chemical_formula_sum  CoCu2SiS4
_cell_volume  141.8441469363047
_cell_formula_units_Z  1
loop_
  _symmetry_equiv_pos_site_id
 _symmetry_equiv_pos_as_xyz
 1  'x, y, z'
loop_
 _atom_site_type_symbol
 _atom_site_label
 _atom_site_symmetry_multiplicity
 _atom_site_fract_x
 _atom_site_fract_y
 _atom_site_fract_z
 _atom_site_fract_occupancy
 Co  Co1  1  0.00000  0.00000  0.00000  1
 Cu  Cu1  1  0.75000  0.25000  0.50000  1
 Cu  Cu2  1  0.25000  0.75000  0.50000  1
 S  S1  1  0.86119  0.86119  0.23925  1
 S  S2  1  0.37806  0.37806  0.23925  1
 S  S3  1  0.13881  0.62194  0.76075  1
 S  S4  1  0.62194  0.13881  0.76075  1
 Si  Si1  1  0.50000  0.50000  0.00000  1
