CIF file written using JARVIS-Tools package.
data_SmSi3Ir
_symmetry_space_group_name_H-M  'I4mm'
_cell_length_a       4.25998
_cell_length_b       4.25998
_cell_length_c       5.76819
_cell_angle_alpha    111.67
_cell_angle_beta     111.67
_cell_angle_gamma    90

_symmetry_Int_Tables_number  107
_chemical_formula_structural  SmSi3Ir
_chemical_formula_sum  SmSi3Ir
_cell_volume  89.27040542895074
_cell_formula_units_Z  1
loop_
  _symmetry_equiv_pos_site_id
 _symmetry_equiv_pos_as_xyz
 1  'x, y, z'
loop_
 _atom_site_type_symbol
 _atom_site_label
 _atom_site_symmetry_multiplicity
 _atom_site_fract_x
 _atom_site_fract_y
 _atom_site_fract_z
 _atom_site_fract_occupancy
 Ir  Ir1  1  0.65368  0.65368  0.30736  1
 Si  Si1  1  0.41406  0.41406  0.82811  1
 Si  Si2  1  0.76369  0.26369  0.52739  1
 Si  Si3  1  0.26369  0.76369  0.52739  1
 Sm  Sm1  1  0.99888  0.99888  0.99775  1
