CIF file written using JARVIS-Tools package.
data_Mg6GaFe
_symmetry_space_group_name_H-M  'Amm2'
_cell_length_a       6.09835
_cell_length_b       6.15014
_cell_length_c       4.80024
_cell_angle_alpha    90
_cell_angle_beta     90
_cell_angle_gamma    120.281

_symmetry_Int_Tables_number  38
_chemical_formula_structural  Mg6GaFe
_chemical_formula_sum  Mg6GaFe
_cell_volume  155.4725206622135
_cell_formula_units_Z  1
loop_
  _symmetry_equiv_pos_site_id
 _symmetry_equiv_pos_as_xyz
 1  'x, y, z'
loop_
 _atom_site_type_symbol
 _atom_site_label
 _atom_site_symmetry_multiplicity
 _atom_site_fract_x
 _atom_site_fract_y
 _atom_site_fract_z
 _atom_site_fract_occupancy
 Fe  Fe1  1  0.16460  0.33230  0.25000  1
 Ga  Ga1  1  0.16484  0.83242  0.25000  1
 Mg  Mg1  1  0.66761  0.33225  0.25000  1
 Mg  Mg2  1  0.66761  0.83536  0.25000  1
 Mg  Mg3  1  0.32436  0.17132  0.75000  1
 Mg  Mg4  1  0.32436  0.65304  0.75000  1
 Mg  Mg5  1  0.84833  0.17417  0.75000  1
 Mg  Mg6  1  0.83830  0.66915  0.75000  1
