CIF file written using JARVIS-Tools package.
data_U2RuC2
_symmetry_space_group_name_H-M  'I4/mmm'
_cell_length_a       3.44187
_cell_length_b       3.44187
_cell_length_c       6.73874
_cell_angle_alpha    104.796
_cell_angle_beta     104.796
_cell_angle_gamma    90

_symmetry_Int_Tables_number  139
_chemical_formula_structural  U2RuC2
_chemical_formula_sum  U2RuC2
_cell_volume  74.44214617788836
_cell_formula_units_Z  1
loop_
  _symmetry_equiv_pos_site_id
 _symmetry_equiv_pos_as_xyz
 1  'x, y, z'
loop_
 _atom_site_type_symbol
 _atom_site_label
 _atom_site_symmetry_multiplicity
 _atom_site_fract_x
 _atom_site_fract_y
 _atom_site_fract_z
 _atom_site_fract_occupancy
 C  C1  1  0.82802  0.82802  0.65605  1
 C  C2  1  0.17198  0.17198  0.34395  1
 Ru  Ru1  1  0.00000  0.00000  0.00000  1
 U  U1  1  0.64481  0.64481  0.28962  1
 U  U2  1  0.35519  0.35519  0.71038  1
