CIF file written using JARVIS-Tools package.
data_CeSbTe
_symmetry_space_group_name_H-M  'P4/nmm'
_cell_length_a       4.38266
_cell_length_b       4.38271
_cell_length_c       9.25377
_cell_angle_alpha    90
_cell_angle_beta     90
_cell_angle_gamma    90

_symmetry_Int_Tables_number  129
_chemical_formula_structural  CeSbTe
_chemical_formula_sum  Ce2Sb2Te2
_cell_volume  177.7455713433005
_cell_formula_units_Z  2
loop_
  _symmetry_equiv_pos_site_id
 _symmetry_equiv_pos_as_xyz
 1  'x, y, z'
loop_
 _atom_site_type_symbol
 _atom_site_label
 _atom_site_symmetry_multiplicity
 _atom_site_fract_x
 _atom_site_fract_y
 _atom_site_fract_z
 _atom_site_fract_occupancy
 Ce  Ce1  1  0.25000  0.25000  0.72755  1
 Ce  Ce2  1  0.75000  0.75000  0.27245  1
 Sb  Sb1  1  0.75000  0.25000  -0.00001  1
 Sb  Sb2  1  0.25000  0.75000  0.00001  1
 Te  Te1  1  0.25000  0.25000  0.36978  1
 Te  Te2  1  0.75000  0.75000  0.63022  1
