CIF file written using JARVIS-Tools package.
data_LiSnPO4
_symmetry_space_group_name_H-M  'I-4'
_cell_length_a       5.253
_cell_length_b       5.253
_cell_length_c       5.27477
_cell_angle_alpha    60.1364
_cell_angle_beta     60.1364
_cell_angle_gamma    90

_symmetry_Int_Tables_number  82
_chemical_formula_structural  LiSnPO4
_chemical_formula_sum  LiSnPO4
_cell_volume  103.34343006497251
_cell_formula_units_Z  1
loop_
  _symmetry_equiv_pos_site_id
 _symmetry_equiv_pos_as_xyz
 1  'x, y, z'
loop_
 _atom_site_type_symbol
 _atom_site_label
 _atom_site_symmetry_multiplicity
 _atom_site_fract_x
 _atom_site_fract_y
 _atom_site_fract_z
 _atom_site_fract_occupancy
 Li  Li1  1  0.50000  0.50000  0.00000  1
 O  O1  1  0.07381  0.23467  0.26797  1
 O  O2  1  0.76533  0.34178  0.73203  1
 O  O3  1  0.65822  0.49737  0.26797  1
 O  O4  1  0.50263  0.92619  0.73203  1
 P  P1  1  0.75000  0.25000  0.50000  1
 Sn  Sn1  1  0.00000  0.00000  0.00000  1
