CIF file written using JARVIS-Tools package.
data_NaHfBe
_symmetry_space_group_name_H-M  'P3m1'
_cell_length_a       2.93355
_cell_length_b       2.93355
_cell_length_c       7.86275
_cell_angle_alpha    90
_cell_angle_beta     90
_cell_angle_gamma    120

_symmetry_Int_Tables_number  156
_chemical_formula_structural  NaHfBe
_chemical_formula_sum  NaHfBe
_cell_volume  58.59948337086745
_cell_formula_units_Z  1
loop_
  _symmetry_equiv_pos_site_id
 _symmetry_equiv_pos_as_xyz
 1  'x, y, z'
loop_
 _atom_site_type_symbol
 _atom_site_label
 _atom_site_symmetry_multiplicity
 _atom_site_fract_x
 _atom_site_fract_y
 _atom_site_fract_z
 _atom_site_fract_occupancy
 Be  Be1  1  0.00000  0.00000  0.98206  1
 Hf  Hf1  1  0.33333  0.66667  0.70829  1
 Na  Na1  1  0.66667  0.33333  0.30965  1
