CIF file written using JARVIS-Tools package.
data_TaSiTc2
_symmetry_space_group_name_H-M  'C2/m'
_cell_length_a       11.667
_cell_length_b       4.73319
_cell_length_c       4.7332
_cell_angle_alpha    38.4871
_cell_angle_beta     28.7215
_cell_angle_gamma    28.7215

_symmetry_Int_Tables_number  12
_chemical_formula_structural  TaSiTc2
_chemical_formula_sum  TaSiTc2
_cell_volume  60.253902709924986
_cell_formula_units_Z  1
loop_
  _symmetry_equiv_pos_site_id
 _symmetry_equiv_pos_as_xyz
 1  'x, y, z'
loop_
 _atom_site_type_symbol
 _atom_site_label
 _atom_site_symmetry_multiplicity
 _atom_site_fract_x
 _atom_site_fract_y
 _atom_site_fract_z
 _atom_site_fract_occupancy
 Si  Si1  1  0.00000  0.00000  0.00000  1
 Ta  Ta1  1  0.50000  -0.00000  -0.00000  1
 Tc  Tc1  1  0.77594  -0.04149  -0.04149  1
 Tc  Tc2  1  0.22406  0.04149  0.04149  1
