CIF file written using JARVIS-Tools package.
data_LiBe2Pb
_symmetry_space_group_name_H-M  'P4mm'
_cell_length_a       3.0928
_cell_length_b       3.0928
_cell_length_c       6.72397
_cell_angle_alpha    90
_cell_angle_beta     90
_cell_angle_gamma    90

_symmetry_Int_Tables_number  99
_chemical_formula_structural  LiBe2Pb
_chemical_formula_sum  LiBe2Pb
_cell_volume  64.31763244969397
_cell_formula_units_Z  1
loop_
  _symmetry_equiv_pos_site_id
 _symmetry_equiv_pos_as_xyz
 1  'x, y, z'
loop_
 _atom_site_type_symbol
 _atom_site_label
 _atom_site_symmetry_multiplicity
 _atom_site_fract_x
 _atom_site_fract_y
 _atom_site_fract_z
 _atom_site_fract_occupancy
 Be  Be1  1  0.00000  0.00000  0.09549  1
 Be  Be2  1  0.50000  0.50000  0.18458  1
 Li  Li1  1  0.00000  0.00000  0.44850  1
 Pb  Pb1  1  0.50000  0.50000  0.77142  1
