CIF file written using JARVIS-Tools package.
data_US2
_symmetry_space_group_name_H-M  'P-62m'
_cell_length_a       7.27806
_cell_length_b       7.27806
_cell_length_c       3.93901
_cell_angle_alpha    90
_cell_angle_beta     90
_cell_angle_gamma    120

_symmetry_Int_Tables_number  189
_chemical_formula_structural  US2
_chemical_formula_sum  U3S6
_cell_volume  180.6960593197757
_cell_formula_units_Z  3
loop_
  _symmetry_equiv_pos_site_id
 _symmetry_equiv_pos_as_xyz
 1  'x, y, z'
loop_
 _atom_site_type_symbol
 _atom_site_label
 _atom_site_symmetry_multiplicity
 _atom_site_fract_x
 _atom_site_fract_y
 _atom_site_fract_z
 _atom_site_fract_occupancy
 S  S1  1  0.40578  0.40578  0.00000  1
 S  S2  1  0.00000  0.59422  0.00000  1
 S  S3  1  0.59422  0.00000  0.00000  1
 S  S4  1  0.25878  0.00000  0.50000  1
 S  S5  1  0.00000  0.25878  0.50000  1
 S  S6  1  0.74122  0.74122  0.50000  1
 U  U1  1  0.33333  0.66667  0.50000  1
 U  U2  1  0.66667  0.33333  0.50000  1
 U  U3  1  0.00000  0.00000  0.00000  1
