CIF file written using JARVIS-Tools package.
data_Na3NiO2
_symmetry_space_group_name_H-M  'Ibam'
_cell_length_a       5.90335
_cell_length_b       6.56777
_cell_length_c       5.29304
_cell_angle_alpha    66.2369
_cell_angle_beta     90
_cell_angle_gamma    63.2937

_symmetry_Int_Tables_number  72
_chemical_formula_structural  Na3NiO2
_chemical_formula_sum  Na6Ni2O4
_cell_volume  163.6178956431923
_cell_formula_units_Z  2
loop_
  _symmetry_equiv_pos_site_id
 _symmetry_equiv_pos_as_xyz
 1  'x, y, z'
loop_
 _atom_site_type_symbol
 _atom_site_label
 _atom_site_symmetry_multiplicity
 _atom_site_fract_x
 _atom_site_fract_y
 _atom_site_fract_z
 _atom_site_fract_occupancy
 Na  Na1  1  0.48788  0.52425  0.23788  1
 Na  Na2  1  0.75000  0.00000  0.50000  1
 Na  Na3  1  0.25000  0.00000  0.50000  1
 Na  Na4  1  0.98788  0.52425  0.23788  1
 Na  Na5  1  0.51212  0.47575  0.76212  1
 Na  Na6  1  0.01212  0.47575  0.76212  1
 Ni  Ni1  1  0.00000  0.00000  0.00000  1
 Ni  Ni2  1  0.50000  0.00000  0.00000  1
 O  O1  1  0.37518  0.24965  0.12601  1
 O  O2  1  0.87518  0.24965  0.62434  1
 O  O3  1  0.12482  0.75035  0.37566  1
 O  O4  1  0.62482  0.75035  0.87399  1
