CIF file written using JARVIS-Tools package.
data_HfBeSi2
_symmetry_space_group_name_H-M  'P4mm'
_cell_length_a       2.79753
_cell_length_b       2.79753
_cell_length_c       7.97871
_cell_angle_alpha    90
_cell_angle_beta     90
_cell_angle_gamma    90

_symmetry_Int_Tables_number  99
_chemical_formula_structural  HfBeSi2
_chemical_formula_sum  HfBeSi2
_cell_volume  62.44288735244209
_cell_formula_units_Z  1
loop_
  _symmetry_equiv_pos_site_id
 _symmetry_equiv_pos_as_xyz
 1  'x, y, z'
loop_
 _atom_site_type_symbol
 _atom_site_label
 _atom_site_symmetry_multiplicity
 _atom_site_fract_x
 _atom_site_fract_y
 _atom_site_fract_z
 _atom_site_fract_occupancy
 Be  Be1  1  0.00000  0.00000  0.48408  1
 Hf  Hf1  1  0.50000  0.50000  0.72885  1
 Si  Si1  1  0.00000  0.00000  0.98660  1
 Si  Si2  1  0.50000  0.50000  0.30047  1
