CIF file written using JARVIS-Tools package.
data_Fe2PO5
_symmetry_space_group_name_H-M  'Pnma'
_cell_length_a       6.29174
_cell_length_b       7.16588
_cell_length_c       7.3897
_cell_angle_alpha    90
_cell_angle_beta     90
_cell_angle_gamma    90

_symmetry_Int_Tables_number  62
_chemical_formula_structural  Fe2PO5
_chemical_formula_sum  Fe8P4O20
_cell_volume  333.17075317220366
_cell_formula_units_Z  4
loop_
  _symmetry_equiv_pos_site_id
 _symmetry_equiv_pos_as_xyz
 1  'x, y, z'
loop_
 _atom_site_type_symbol
 _atom_site_label
 _atom_site_symmetry_multiplicity
 _atom_site_fract_x
 _atom_site_fract_y
 _atom_site_fract_z
 _atom_site_fract_occupancy
 Fe  Fe1  1  0.00000  0.00000  0.00000  1
 Fe  Fe2  1  0.50000  0.50000  0.50000  1
 Fe  Fe3  1  0.00000  0.50000  0.50000  1
 Fe  Fe4  1  0.25000  0.63900  0.76515  1
 Fe  Fe5  1  0.75000  0.36100  0.23485  1
 Fe  Fe6  1  0.25000  0.13900  0.73485  1
 Fe  Fe7  1  0.75000  0.86100  0.26515  1
 Fe  Fe8  1  0.50000  0.00000  0.00000  1
 O  O1  1  0.75000  0.43724  0.98757  1
 O  O2  1  0.25000  0.56276  0.01243  1
 O  O3  1  0.55750  0.12720  0.75504  1
 O  O4  1  0.05750  0.87280  0.24496  1
 O  O5  1  0.94250  0.12720  0.75504  1
 O  O6  1  0.44250  0.37280  0.25504  1
 O  O7  1  0.44250  0.87280  0.24496  1
 O  O8  1  0.25000  0.06276  0.48757  1
 O  O9  1  0.05750  0.37280  0.25504  1
 O  O10  1  0.94250  0.62720  0.74496  1
 O  O11  1  0.75000  0.93724  0.51243  1
 O  O12  1  0.25000  0.20625  0.00331  1
 O  O13  1  0.75000  0.10934  0.14920  1
 O  O14  1  0.55750  0.62720  0.74496  1
 O  O15  1  0.25000  0.39066  0.64920  1
 O  O16  1  0.75000  0.79375  -0.00331  1
 O  O17  1  0.25000  0.70625  0.49669  1
 O  O18  1  0.75000  0.29375  0.50331  1
 O  O19  1  0.25000  0.89066  0.85080  1
 O  O20  1  0.75000  0.60934  0.35080  1
 P  P1  1  0.25000  0.88663  0.37578  1
 P  P2  1  0.75000  0.11337  0.62422  1
 P  P3  1  0.25000  0.38663  0.12422  1
 P  P4  1  0.75000  0.61337  0.87578  1
