CIF file written using JARVIS-Tools package.
data_Mn3OF5
_symmetry_space_group_name_H-M  'P2_1'
_cell_length_a       5.80491
_cell_length_b       4.79145
_cell_length_c       8.04662
_cell_angle_alpha    90
_cell_angle_beta     91.9121
_cell_angle_gamma    90

_symmetry_Int_Tables_number  4
_chemical_formula_structural  Mn3OF5
_chemical_formula_sum  Mn6O2F0
_cell_volume  223.68366967763225
_cell_formula_units_Z  2
loop_
  _symmetry_equiv_pos_site_id
 _symmetry_equiv_pos_as_xyz
 1  'x, y, z'
loop_
 _atom_site_type_symbol
 _atom_site_label
 _atom_site_symmetry_multiplicity
 _atom_site_fract_x
 _atom_site_fract_y
 _atom_site_fract_z
 _atom_site_fract_occupancy
 F  F1  1  0.28193  0.81230  0.21447  1
 F  F2  1  0.94473  0.79598  0.90091  1
 F  F3  1  0.87312  0.19583  0.43787  1
 F  F4  1  0.71807  0.31230  0.78553  1
 F  F5  1  0.55408  0.20233  0.10184  1
 F  F6  1  0.37541  0.29223  0.42394  1
 F  F7  1  0.12688  0.69583  0.56213  1
 F  F8  1  0.44592  0.70233  0.89816  1
 F  F9  1  0.62459  0.79223  0.57606  1
 F  F10  1  0.05527  0.29598  0.09909  1
 Mn  Mn1  1  0.25415  0.01798  0.98417  1
 Mn  Mn2  1  0.58986  0.97171  0.33176  1
 Mn  Mn3  1  0.93537  0.01802  0.67290  1
 Mn  Mn4  1  0.06463  0.51802  0.32710  1
 Mn  Mn5  1  0.74585  0.51798  0.01583  1
 Mn  Mn6  1  0.41014  0.47171  0.66824  1
 O  O1  1  0.77950  0.69361  0.22822  1
 O  O2  1  0.22050  0.19361  0.77178  1
