CIF file written using JARVIS-Tools package.
data_LiAlPHO5
_symmetry_space_group_name_H-M  'P-1'
_cell_length_a       5.05075
_cell_length_b       5.22727
_cell_length_c       7.07291
_cell_angle_alpha    73.4691
_cell_angle_beta     109.372
_cell_angle_gamma    82.0516

_symmetry_Int_Tables_number  2
_chemical_formula_structural  LiAlPHO5
_chemical_formula_sum  Li2Al2P2H2O0
_cell_volume  163.1991925821826
_cell_formula_units_Z  2
loop_
  _symmetry_equiv_pos_site_id
 _symmetry_equiv_pos_as_xyz
 1  'x, y, z'
loop_
 _atom_site_type_symbol
 _atom_site_label
 _atom_site_symmetry_multiplicity
 _atom_site_fract_x
 _atom_site_fract_y
 _atom_site_fract_z
 _atom_site_fract_occupancy
 Al  Al1  1  0.00000  0.00000  0.00000  1
 Al  Al2  1  -0.00000  -0.00000  0.50000  1
 H  H1  1  0.65217  0.07203  0.15093  1
 H  H2  1  0.34783  0.92797  0.84907  1
 Li  Li1  1  0.24941  0.38991  0.68345  1
 Li  Li2  1  0.75059  0.61009  0.31655  1
 O  O1  1  0.85691  0.96093  0.22413  1
 O  O2  1  0.69435  0.33143  0.83763  1
 O  O3  1  0.64351  0.23856  0.43011  1
 O  O4  1  0.30565  0.66857  0.16237  1
 O  O5  1  0.11860  0.32906  0.38944  1
 O  O6  1  0.26174  0.21140  0.10446  1
 O  O7  1  0.73826  0.78860  0.89554  1
 O  O8  1  0.35649  0.76144  0.56989  1
 O  O9  1  0.88140  0.67094  0.61056  1
 O  O10  1  0.14309  0.03907  0.77587  1
 P  P1  1  0.32563  0.36003  0.26797  1
 P  P2  1  0.67437  0.63997  0.73203  1
