CIF file written using JARVIS-Tools package.
data_NiO2
_symmetry_space_group_name_H-M  'Immm'
_cell_length_a       4.50408
_cell_length_b       4.4873
_cell_length_c       4.49564
_cell_angle_alpha    59.9332
_cell_angle_beta     73.2027
_cell_angle_gamma    81.6737

_symmetry_Int_Tables_number  71
_chemical_formula_structural  NiO2
_chemical_formula_sum  Ni2O4
_cell_volume  75.28058413164436
_cell_formula_units_Z  2
loop_
  _symmetry_equiv_pos_site_id
 _symmetry_equiv_pos_as_xyz
 1  'x, y, z'
loop_
 _atom_site_type_symbol
 _atom_site_label
 _atom_site_symmetry_multiplicity
 _atom_site_fract_x
 _atom_site_fract_y
 _atom_site_fract_z
 _atom_site_fract_occupancy
 Ni  Ni1  1  0.25000  0.00000  0.25000  1
 Ni  Ni2  1  0.75000  0.00000  0.75000  1
 O  O1  1  0.00001  0.30156  0.34922  1
 O  O2  1  0.50001  0.30156  0.84922  1
 O  O3  1  0.49999  0.69844  0.15078  1
 O  O4  1  -0.00001  0.69844  0.65078  1
