CIF file written using JARVIS-Tools package.
data_OsO4
_symmetry_space_group_name_H-M  'I-42m'
_cell_length_a       4.4423
_cell_length_b       4.44328
_cell_length_c       5.12706
_cell_angle_alpha    115.661
_cell_angle_beta     115.674
_cell_angle_gamma    90.0107

_symmetry_Int_Tables_number  121
_chemical_formula_structural  OsO4
_chemical_formula_sum  OsO4
_cell_volume  79.98605865171452
_cell_formula_units_Z  1
loop_
  _symmetry_equiv_pos_site_id
 _symmetry_equiv_pos_as_xyz
 1  'x, y, z'
loop_
 _atom_site_type_symbol
 _atom_site_label
 _atom_site_symmetry_multiplicity
 _atom_site_fract_x
 _atom_site_fract_y
 _atom_site_fract_z
 _atom_site_fract_occupancy
 O  O1  1  0.34757  0.89691  0.24433  1
 O  O2  1  0.89661  0.34742  0.24398  1
 O  O3  1  0.10329  0.10316  0.75573  1
 O  O4  1  0.65254  0.65251  0.75596  1
 Os  Os1  1  -0.00000  0.00000  0.00000  1
