CIF file written using JARVIS-Tools package.
data_NdB4
_symmetry_space_group_name_H-M  'I4/mmm'
_cell_length_a       4.34523
_cell_length_b       4.34546
_cell_length_c       4.34546
_cell_angle_alpha    99.4189
_cell_angle_beta     65.2827
_cell_angle_gamma    65.2827

_symmetry_Int_Tables_number  139
_chemical_formula_structural  NdB4
_chemical_formula_sum  NdB4
_cell_volume  61.74641569647335
_cell_formula_units_Z  1
loop_
  _symmetry_equiv_pos_site_id
 _symmetry_equiv_pos_as_xyz
 1  'x, y, z'
loop_
 _atom_site_type_symbol
 _atom_site_label
 _atom_site_symmetry_multiplicity
 _atom_site_fract_x
 _atom_site_fract_y
 _atom_site_fract_z
 _atom_site_fract_occupancy
 B  B1  1  0.73896  0.49998  0.76103  1
 B  B2  1  0.26104  0.23897  0.50002  1
 B  B3  1  0.26104  0.50002  0.23897  1
 B  B4  1  0.73896  0.76103  0.49998  1
 Nd  Nd1  1  0.00000  0.00000  0.00000  1
