CIF file written using JARVIS-Tools package.
data_CdWO4
_symmetry_space_group_name_H-M  'P2/c'
_cell_length_a       5.07118
_cell_length_b       5.122
_cell_length_c       5.94605
_cell_angle_alpha    90
_cell_angle_beta     90
_cell_angle_gamma    91.1859

_symmetry_Int_Tables_number  13
_chemical_formula_structural  CdWO4
_chemical_formula_sum  Cd2W2O8
_cell_volume  154.41302633427958
_cell_formula_units_Z  2
loop_
  _symmetry_equiv_pos_site_id
 _symmetry_equiv_pos_as_xyz
 1  'x, y, z'
loop_
 _atom_site_type_symbol
 _atom_site_label
 _atom_site_symmetry_multiplicity
 _atom_site_fract_x
 _atom_site_fract_y
 _atom_site_fract_z
 _atom_site_fract_occupancy
 Cd  Cd1  1  0.50000  0.25000  0.69319  1
 Cd  Cd2  1  0.50000  0.75000  0.30681  1
 O  O1  1  0.75758  0.11534  0.37039  1
 O  O2  1  0.24242  0.38466  0.37039  1
 O  O3  1  0.24242  0.88466  0.62961  1
 O  O4  1  0.75758  0.61534  0.62961  1
 O  O5  1  0.79863  0.05177  0.90441  1
 O  O6  1  0.20137  0.44823  0.90441  1
 O  O7  1  0.20137  0.94823  0.09559  1
 O  O8  1  0.79863  0.55177  0.09559  1
 W  W1  1  0.00000  0.25000  0.17773  1
 W  W2  1  -0.00000  0.75000  0.82227  1
