CIF file written using JARVIS-Tools package.
data_BaMg6B
_symmetry_space_group_name_H-M  'Amm2'
_cell_length_a       8.72108
_cell_length_b       8.72107
_cell_length_c       3.96494
_cell_angle_alpha    90
_cell_angle_beta     90
_cell_angle_gamma    138.212

_symmetry_Int_Tables_number  38
_chemical_formula_structural  BaMg6B
_chemical_formula_sum  BaMg6B
_cell_volume  200.9546416783773
_cell_formula_units_Z  1
loop_
  _symmetry_equiv_pos_site_id
 _symmetry_equiv_pos_as_xyz
 1  'x, y, z'
loop_
 _atom_site_type_symbol
 _atom_site_label
 _atom_site_symmetry_multiplicity
 _atom_site_fract_x
 _atom_site_fract_y
 _atom_site_fract_z
 _atom_site_fract_occupancy
 B  B1  1  0.41172  0.08828  0.75000  1
 Ba  Ba1  1  0.22462  0.27538  0.25000  1
 Mg  Mg1  1  0.18491  0.85891  0.25000  1
 Mg  Mg2  1  0.64109  0.31509  0.25000  1
 Mg  Mg3  1  0.64752  0.85248  0.25000  1
 Mg  Mg4  1  0.29045  0.70380  0.75000  1
 Mg  Mg5  1  0.79620  0.20955  0.75000  1
 Mg  Mg6  1  0.80348  0.69652  0.75000  1
