CIF file written using JARVIS-Tools package.
data_BeCrSn2
_symmetry_space_group_name_H-M  'P4mm'
_cell_length_a       3.11519
_cell_length_b       3.11519
_cell_length_c       7.89053
_cell_angle_alpha    90
_cell_angle_beta     90
_cell_angle_gamma    90

_symmetry_Int_Tables_number  99
_chemical_formula_structural  BeCrSn2
_chemical_formula_sum  BeCrSn2
_cell_volume  76.57288936060465
_cell_formula_units_Z  1
loop_
  _symmetry_equiv_pos_site_id
 _symmetry_equiv_pos_as_xyz
 1  'x, y, z'
loop_
 _atom_site_type_symbol
 _atom_site_label
 _atom_site_symmetry_multiplicity
 _atom_site_fract_x
 _atom_site_fract_y
 _atom_site_fract_z
 _atom_site_fract_occupancy
 Be  Be1  1  0.00000  0.00000  0.56257  1
 Cr  Cr1  1  0.50000  0.50000  0.69165  1
 Sn  Sn1  1  0.00000  0.00000  0.92467  1
 Sn  Sn2  1  0.50000  0.50000  0.32111  1
