CIF file written using JARVIS-Tools package.
data_CaAl2Si2H4O10
_symmetry_space_group_name_H-M  'Cmcm'
_cell_length_a       5.32162
_cell_length_b       5.32162
_cell_length_c       13.2313
_cell_angle_alpha    90
_cell_angle_beta     90
_cell_angle_gamma    66.8263

_symmetry_Int_Tables_number  63
_chemical_formula_structural  CaAl2Si2H4O10
_chemical_formula_sum  Ca2Al4Si4H8O20
_cell_volume  344.4726293138106
_cell_formula_units_Z  2
loop_
  _symmetry_equiv_pos_site_id
 _symmetry_equiv_pos_as_xyz
 1  'x, y, z'
loop_
 _atom_site_type_symbol
 _atom_site_label
 _atom_site_symmetry_multiplicity
 _atom_site_fract_x
 _atom_site_fract_y
 _atom_site_fract_z
 _atom_site_fract_occupancy
 Al  Al1  1  -0.00000  0.50000  0.50000  1
 Al  Al2  1  0.50000  -0.00000  0.50000  1
 Al  Al3  1  -0.00000  0.50000  0.00000  1
 Al  Al4  1  0.50000  -0.00000  0.00000  1
 Ca  Ca1  1  0.33575  0.33575  0.25000  1
 Ca  Ca2  1  0.66425  0.66425  0.75000  1
 H  H1  1  0.66415  0.66415  0.31285  1
 H  H2  1  0.33585  0.33585  0.68715  1
 H  H3  1  0.66415  0.66415  0.18715  1
 H  H4  1  0.33585  0.33585  0.81285  1
 H  H5  1  0.53326  0.53326  0.43465  1
 H  H6  1  0.46674  0.46674  0.56535  1
 H  H7  1  0.46674  0.46674  0.93465  1
 H  H8  1  0.53326  0.53326  0.06535  1
 O  O1  1  0.65158  0.11225  0.11573  1
 O  O2  1  0.34842  0.88775  0.61573  1
 O  O3  1  0.11225  0.65158  0.38427  1
 O  O4  1  0.94779  0.94779  0.75000  1
 O  O5  1  0.60416  0.60416  0.25000  1
 O  O6  1  0.11225  0.65158  0.11573  1
 O  O7  1  0.34842  0.88775  0.88427  1
 O  O8  1  0.88775  0.34842  0.61573  1
 O  O9  1  0.65158  0.11225  0.38427  1
 O  O10  1  0.05221  0.05221  0.25000  1
 O  O11  1  0.13985  0.13985  0.43575  1
 O  O12  1  0.35805  0.35805  0.94740  1
 O  O13  1  0.13985  0.13985  0.06425  1
 O  O14  1  0.86015  0.86015  0.93575  1
 O  O15  1  0.64195  0.64195  0.44740  1
 O  O16  1  0.35805  0.35805  0.55260  1
 O  O17  1  0.64195  0.64195  0.05260  1
 O  O18  1  0.88775  0.34842  0.88427  1
 O  O19  1  0.86015  0.86015  0.56425  1
 O  O20  1  0.39584  0.39584  0.75000  1
 Si  Si1  1  0.01695  0.01695  0.86720  1
 Si  Si2  1  0.98305  0.98305  0.13280  1
 Si  Si3  1  0.01695  0.01695  0.63280  1
 Si  Si4  1  0.98305  0.98305  0.36720  1
