CIF file written using JARVIS-Tools package.
data_Mg6CuBi
_symmetry_space_group_name_H-M  'Amm2'
_cell_length_a       6.62658
_cell_length_b       6.62658
_cell_length_c       4.95136
_cell_angle_alpha    90
_cell_angle_beta     90
_cell_angle_gamma    124.041

_symmetry_Int_Tables_number  38
_chemical_formula_structural  Mg6CuBi
_chemical_formula_sum  Mg6CuBi
_cell_volume  180.16384703310118
_cell_formula_units_Z  1
loop_
  _symmetry_equiv_pos_site_id
 _symmetry_equiv_pos_as_xyz
 1  'x, y, z'
loop_
 _atom_site_type_symbol
 _atom_site_label
 _atom_site_symmetry_multiplicity
 _atom_site_fract_x
 _atom_site_fract_y
 _atom_site_fract_z
 _atom_site_fract_occupancy
 Bi  Bi1  1  0.34049  0.15951  0.75000  1
 Cu  Cu1  1  0.11043  0.38957  0.25000  1
 Mg  Mg1  1  0.16886  0.81581  0.25000  1
 Mg  Mg2  1  0.68419  0.33114  0.25000  1
 Mg  Mg3  1  0.67260  0.82740  0.25000  1
 Mg  Mg4  1  0.33425  0.64156  0.75000  1
 Mg  Mg5  1  0.85844  0.16575  0.75000  1
 Mg  Mg6  1  0.83075  0.66925  0.75000  1
