CIF file written using JARVIS-Tools package.
data_BaMg6Ga
_symmetry_space_group_name_H-M  'Amm2'
_cell_length_a       6.76281
_cell_length_b       6.76281
_cell_length_c       4.89853
_cell_angle_alpha    90
_cell_angle_beta     90
_cell_angle_gamma    106.909

_symmetry_Int_Tables_number  38
_chemical_formula_structural  BaMg6Ga
_chemical_formula_sum  BaMg6Ga
_cell_volume  214.35167094003157
_cell_formula_units_Z  1
loop_
  _symmetry_equiv_pos_site_id
 _symmetry_equiv_pos_as_xyz
 1  'x, y, z'
loop_
 _atom_site_type_symbol
 _atom_site_label
 _atom_site_symmetry_multiplicity
 _atom_site_fract_x
 _atom_site_fract_y
 _atom_site_fract_z
 _atom_site_fract_occupancy
 Ba  Ba1  1  0.12117  0.37883  0.25000  1
 Ga  Ga1  1  0.33171  0.16829  0.75000  1
 Mg  Mg1  1  0.21010  0.90468  0.25000  1
 Mg  Mg2  1  0.59532  0.28990  0.25000  1
 Mg  Mg3  1  0.69293  0.80707  0.25000  1
 Mg  Mg4  1  0.39917  0.71959  0.75000  1
 Mg  Mg5  1  0.78041  0.10083  0.75000  1
 Mg  Mg6  1  0.86919  0.63081  0.75000  1
