CIF file written using JARVIS-Tools package.
data_Mg6NbAl
_symmetry_space_group_name_H-M  'Amm2'
_cell_length_a       6.25651
_cell_length_b       6.2565
_cell_length_c       4.84763
_cell_angle_alpha    90
_cell_angle_beta     90
_cell_angle_gamma    120.155

_symmetry_Int_Tables_number  38
_chemical_formula_structural  Mg6NbAl
_chemical_formula_sum  Mg6NbAl
_cell_volume  164.07570406126536
_cell_formula_units_Z  1
loop_
  _symmetry_equiv_pos_site_id
 _symmetry_equiv_pos_as_xyz
 1  'x, y, z'
loop_
 _atom_site_type_symbol
 _atom_site_label
 _atom_site_symmetry_multiplicity
 _atom_site_fract_x
 _atom_site_fract_y
 _atom_site_fract_z
 _atom_site_fract_occupancy
 Al  Al1  1  0.18380  0.31620  0.25000  1
 Mg  Mg1  1  0.17298  0.84337  0.25000  1
 Mg  Mg2  1  0.65663  0.32702  0.25000  1
 Mg  Mg3  1  0.66848  0.83152  0.25000  1
 Mg  Mg4  1  0.32794  0.66700  0.75000  1
 Mg  Mg5  1  0.83300  0.17206  0.75000  1
 Mg  Mg6  1  0.83265  0.66735  0.75000  1
 Nb  Nb1  1  0.32452  0.17548  0.75000  1
