CIF file written using JARVIS-Tools package.
data_KMg6Cr
_symmetry_space_group_name_H-M  'P4/mmm'
_cell_length_a       7.89247
_cell_length_b       11.1615
_cell_length_c       3.12107
_cell_angle_alpha    90
_cell_angle_beta     90
_cell_angle_gamma    134.999

_symmetry_Int_Tables_number  123
_chemical_formula_structural  KMg6Cr
_chemical_formula_sum  KMg6Cr
_cell_volume  194.41506043784472
_cell_formula_units_Z  1
loop_
  _symmetry_equiv_pos_site_id
 _symmetry_equiv_pos_as_xyz
 1  'x, y, z'
loop_
 _atom_site_type_symbol
 _atom_site_label
 _atom_site_symmetry_multiplicity
 _atom_site_fract_x
 _atom_site_fract_y
 _atom_site_fract_z
 _atom_site_fract_occupancy
 Cr  Cr1  1  0.24988  0.87494  0.25000  1
 K  K1  1  0.24997  0.37499  0.25000  1
 Mg  Mg1  1  0.75008  0.37506  0.25000  1
 Mg  Mg2  1  0.75008  0.87502  0.25000  1
 Mg  Mg3  1  0.25007  0.07486  0.75000  1
 Mg  Mg4  1  0.25007  0.67521  0.75000  1
 Mg  Mg5  1  0.64957  0.07478  0.75000  1
 Mg  Mg6  1  0.85027  0.67514  0.75000  1
