CIF file written using JARVIS-Tools package.
data_Pr2MgPd2
_symmetry_space_group_name_H-M  'P4/mbm'
_cell_length_a       7.78627
_cell_length_b       7.78627
_cell_length_c       4.03796
_cell_angle_alpha    90
_cell_angle_beta     90
_cell_angle_gamma    90

_symmetry_Int_Tables_number  127
_chemical_formula_structural  Pr2MgPd2
_chemical_formula_sum  Pr4Mg2Pd4
_cell_volume  244.80566356713385
_cell_formula_units_Z  2
loop_
  _symmetry_equiv_pos_site_id
 _symmetry_equiv_pos_as_xyz
 1  'x, y, z'
loop_
 _atom_site_type_symbol
 _atom_site_label
 _atom_site_symmetry_multiplicity
 _atom_site_fract_x
 _atom_site_fract_y
 _atom_site_fract_z
 _atom_site_fract_occupancy
 Mg  Mg1  1  0.00000  0.00000  0.00000  1
 Mg  Mg2  1  0.50000  0.50000  0.00000  1
 Pd  Pd1  1  0.13099  0.63099  0.00000  1
 Pd  Pd2  1  0.86901  0.36901  0.00000  1
 Pd  Pd3  1  0.63099  0.86901  0.00000  1
 Pd  Pd4  1  0.36901  0.13099  0.00000  1
 Pr  Pr1  1  0.67090  0.17090  0.50000  1
 Pr  Pr2  1  0.32910  0.82910  0.50000  1
 Pr  Pr3  1  0.17090  0.32910  0.50000  1
 Pr  Pr4  1  0.82910  0.67090  0.50000  1
