CIF file written using JARVIS-Tools package.
data_LuMnO3
_symmetry_space_group_name_H-M  'P6_3cm'
_cell_length_a       6.03307
_cell_length_b       6.03307
_cell_length_c       11.3778
_cell_angle_alpha    90
_cell_angle_beta     90
_cell_angle_gamma    120

_symmetry_Int_Tables_number  185
_chemical_formula_structural  LuMnO3
_chemical_formula_sum  Lu6Mn6O8
_cell_volume  358.6460811065198
_cell_formula_units_Z  6
loop_
  _symmetry_equiv_pos_site_id
 _symmetry_equiv_pos_as_xyz
 1  'x, y, z'
loop_
 _atom_site_type_symbol
 _atom_site_label
 _atom_site_symmetry_multiplicity
 _atom_site_fract_x
 _atom_site_fract_y
 _atom_site_fract_z
 _atom_site_fract_occupancy
 Lu  Lu1  1  0.00000  0.00000  0.27666  1
 Lu  Lu2  1  0.33333  0.66667  0.23107  1
 Lu  Lu3  1  0.66667  0.33333  0.73107  1
 Lu  Lu4  1  0.33333  0.66667  0.73107  1
 Lu  Lu5  1  0.66667  0.33333  0.23107  1
 Lu  Lu6  1  0.00000  0.00000  0.77666  1
 Mn  Mn1  1  0.66659  0.00000  0.50077  1
 Mn  Mn2  1  0.66659  0.66659  0.00077  1
 Mn  Mn3  1  0.00000  0.33341  0.00077  1
 Mn  Mn4  1  0.33341  0.33341  0.50077  1
 Mn  Mn5  1  0.33341  0.00000  0.00077  1
 Mn  Mn6  1  0.00000  0.66659  0.50077  1
 O  O1  1  0.36202  0.36202  0.33565  1
 O  O2  1  0.33333  0.66667  0.52238  1
 O  O3  1  0.66667  0.33333  0.52238  1
 O  O4  1  0.33333  0.66667  0.02238  1
 O  O5  1  0.00000  0.00000  0.97527  1
 O  O6  1  0.00000  0.00000  0.47527  1
 O  O7  1  0.36201  0.00000  0.83565  1
 O  O8  1  0.00000  0.63798  0.33565  1
 O  O9  1  0.69564  0.00000  0.66630  1
 O  O10  1  0.63798  0.63798  0.83565  1
 O  O11  1  0.63799  0.00000  0.33565  1
 O  O12  1  0.30436  0.00000  0.16630  1
 O  O13  1  0.66667  0.33333  0.02238  1
 O  O14  1  0.30436  0.30436  0.66630  1
 O  O15  1  0.69564  0.69564  0.16630  1
 O  O16  1  1.00000  0.30436  0.16630  1
 O  O17  1  -0.00000  0.36202  0.83565  1
 O  O18  1  0.00000  0.69564  0.66630  1
