CIF file written using JARVIS-Tools package.
data_TiBe4Nb
_symmetry_space_group_name_H-M  'F-43m'
_cell_length_a       4.57369
_cell_length_b       4.57369
_cell_length_c       4.57368
_cell_angle_alpha    60
_cell_angle_beta     60
_cell_angle_gamma    60

_symmetry_Int_Tables_number  216
_chemical_formula_structural  TiBe4Nb
_chemical_formula_sum  TiBe4Nb
_cell_volume  67.6523600922765
_cell_formula_units_Z  1
loop_
  _symmetry_equiv_pos_site_id
 _symmetry_equiv_pos_as_xyz
 1  'x, y, z'
loop_
 _atom_site_type_symbol
 _atom_site_label
 _atom_site_symmetry_multiplicity
 _atom_site_fract_x
 _atom_site_fract_y
 _atom_site_fract_z
 _atom_site_fract_occupancy
 Be  Be1  1  0.62502  0.62502  0.12493  1
 Be  Be2  1  0.62502  0.12493  0.62502  1
 Be  Be3  1  0.12493  0.62502  0.62502  1
 Be  Be4  1  0.62502  0.62502  0.62502  1
 Nb  Nb1  1  0.25000  0.25000  0.25000  1
 Ti  Ti1  1  0.00000  0.00000  0.00000  1
