CIF file written using JARVIS-Tools package.
data_NaNbO3
_symmetry_space_group_name_H-M  'Pmc2_1'
_cell_length_a       5.63502
_cell_length_b       5.54981
_cell_length_c       7.83425
_cell_angle_alpha    90
_cell_angle_beta     90
_cell_angle_gamma    90

_symmetry_Int_Tables_number  26
_chemical_formula_structural  NaNbO3
_chemical_formula_sum  Na4Nb4O2
_cell_volume  245.0028101882912
_cell_formula_units_Z  4
loop_
  _symmetry_equiv_pos_site_id
 _symmetry_equiv_pos_as_xyz
 1  'x, y, z'
loop_
 _atom_site_type_symbol
 _atom_site_label
 _atom_site_symmetry_multiplicity
 _atom_site_fract_x
 _atom_site_fract_y
 _atom_site_fract_z
 _atom_site_fract_occupancy
 Na  Na1  1  0.20011  0.75579  0.00000  1
 Na  Na2  1  0.70011  0.24421  0.00000  1
 Na  Na3  1  0.25044  0.75960  0.50000  1
 Na  Na4  1  0.75044  0.24040  0.50000  1
 Nb  Nb1  1  0.22766  0.25579  0.25072  1
 Nb  Nb2  1  0.72766  0.74421  0.25072  1
 Nb  Nb3  1  0.22766  0.25579  0.74928  1
 Nb  Nb4  1  0.72766  0.74421  0.74928  1
 O  O1  1  0.99173  0.95613  0.71086  1
 O  O2  1  0.99173  0.95613  0.28914  1
 O  O3  1  0.49173  0.04387  0.71086  1
 O  O4  1  0.90795  0.45551  0.21301  1
 O  O5  1  0.40795  0.54449  0.78699  1
 O  O6  1  0.67837  0.67434  0.50000  1
 O  O7  1  0.90795  0.45551  0.78699  1
 O  O8  1  0.49173  0.04387  0.28914  1
 O  O9  1  0.71039  0.82233  0.00000  1
 O  O10  1  0.17837  0.32566  0.50000  1
 O  O11  1  0.40795  0.54449  0.21301  1
 O  O12  1  0.21039  0.17767  0.00000  1
