CIF file written using JARVIS-Tools package.
data_LaMg6Sb
_symmetry_space_group_name_H-M  'Amm2'
_cell_length_a       7.16013
_cell_length_b       7.16012
_cell_length_c       4.95068
_cell_angle_alpha    90
_cell_angle_beta     90
_cell_angle_gamma    125.72

_symmetry_Int_Tables_number  38
_chemical_formula_structural  LaMg6Sb
_chemical_formula_sum  LaMg6Sb
_cell_volume  206.06170383480193
_cell_formula_units_Z  1
loop_
  _symmetry_equiv_pos_site_id
 _symmetry_equiv_pos_as_xyz
 1  'x, y, z'
loop_
 _atom_site_type_symbol
 _atom_site_label
 _atom_site_symmetry_multiplicity
 _atom_site_fract_x
 _atom_site_fract_y
 _atom_site_fract_z
 _atom_site_fract_occupancy
 La  La1  1  0.19330  0.30670  0.25000  1
 Mg  Mg1  1  0.15699  0.79412  0.25000  1
 Mg  Mg2  1  0.70588  0.34301  0.25000  1
 Mg  Mg3  1  0.64737  0.85263  0.25000  1
 Mg  Mg4  1  0.31371  0.67825  0.75000  1
 Mg  Mg5  1  0.82175  0.18629  0.75000  1
 Mg  Mg6  1  0.79291  0.70709  0.75000  1
 Sb  Sb1  1  0.36808  0.13192  0.75000  1
