CIF file written using JARVIS-Tools package.
data_Rb6Si10O23
_symmetry_space_group_name_H-M  'P-62m'
_cell_length_a       9.61126
_cell_length_b       9.61125
_cell_length_c       8.22841
_cell_angle_alpha    90
_cell_angle_beta     90
_cell_angle_gamma    120

_symmetry_Int_Tables_number  189
_chemical_formula_structural  Rb6Si10O23
_chemical_formula_sum  Rb6Si0O23
_cell_volume  658.2745674159034
_cell_formula_units_Z  1
loop_
  _symmetry_equiv_pos_site_id
 _symmetry_equiv_pos_as_xyz
 1  'x, y, z'
loop_
 _atom_site_type_symbol
 _atom_site_label
 _atom_site_symmetry_multiplicity
 _atom_site_fract_x
 _atom_site_fract_y
 _atom_site_fract_z
 _atom_site_fract_occupancy
 O  O1  1  0.43060  0.58041  0.73672  1
 O  O2  1  0.41959  0.85019  0.73672  1
 O  O3  1  -0.00000  0.75226  0.21550  1
 O  O4  1  0.62515  -0.00000  0.50000  1
 O  O5  1  0.75226  0.00000  0.21550  1
 O  O6  1  0.41959  0.85019  0.26328  1
 O  O7  1  0.37485  0.37485  0.50000  1
 O  O8  1  0.85019  0.41959  0.73672  1
 O  O9  1  0.00000  0.62515  0.50000  1
 O  O10  1  0.85019  0.41959  0.26328  1
 O  O11  1  0.58041  0.43060  0.73672  1
 O  O12  1  0.75226  0.00000  0.78450  1
 O  O13  1  0.14981  0.56940  0.73672  1
 O  O14  1  0.43060  0.58041  0.26328  1
 O  O15  1  -0.00000  0.75226  0.78450  1
 O  O16  1  0.24774  0.24774  0.21550  1
 O  O17  1  0.33333  0.66667  0.00000  1
 O  O18  1  0.58041  0.43060  0.26328  1
 O  O19  1  0.66667  0.33333  0.00000  1
 O  O20  1  0.14981  0.56940  0.26328  1
 O  O21  1  0.24774  0.24774  0.78450  1
 O  O22  1  0.56940  0.14981  0.26328  1
 O  O23  1  0.56940  0.14981  0.73672  1
 Rb  Rb1  1  0.74689  0.74689  0.50000  1
 Rb  Rb2  1  0.00000  0.23975  0.00000  1
 Rb  Rb3  1  0.23975  -0.00000  0.00000  1
 Rb  Rb4  1  0.76025  0.76025  0.00000  1
 Rb  Rb5  1  0.00000  0.25311  0.50000  1
 Rb  Rb6  1  0.25311  -0.00000  0.50000  1
 Si  Si1  1  -0.00000  0.60524  0.69858  1
 Si  Si2  1  0.60524  0.00000  0.69858  1
 Si  Si3  1  0.33333  0.66667  0.80261  1
 Si  Si4  1  0.39476  0.39476  0.30142  1
 Si  Si5  1  0.33333  0.66667  0.19739  1
 Si  Si6  1  0.66667  0.33333  0.19739  1
 Si  Si7  1  -0.00000  0.60524  0.30142  1
 Si  Si8  1  0.66667  0.33333  0.80261  1
 Si  Si9  1  0.39476  0.39476  0.69858  1
 Si  Si10  1  0.60524  0.00000  0.30142  1
