CIF file written using JARVIS-Tools package.
data_BeOsRu2
_symmetry_space_group_name_H-M  'P4mm'
_cell_length_a       2.77429
_cell_length_b       2.77429
_cell_length_c       6.47779
_cell_angle_alpha    90
_cell_angle_beta     90
_cell_angle_gamma    90

_symmetry_Int_Tables_number  99
_chemical_formula_structural  BeOsRu2
_chemical_formula_sum  BeOsRu2
_cell_volume  49.85760461840969
_cell_formula_units_Z  1
loop_
  _symmetry_equiv_pos_site_id
 _symmetry_equiv_pos_as_xyz
 1  'x, y, z'
loop_
 _atom_site_type_symbol
 _atom_site_label
 _atom_site_symmetry_multiplicity
 _atom_site_fract_x
 _atom_site_fract_y
 _atom_site_fract_z
 _atom_site_fract_occupancy
 Be  Be1  1  0.00000  0.00000  0.49710  1
 Os  Os1  1  0.50000  0.50000  0.71683  1
 Ru  Ru1  1  0.00000  0.00000  0.00106  1
 Ru  Ru2  1  0.50000  0.50000  0.28502  1
