CIF file written using JARVIS-Tools package.
data_NaCu2H2Se2O10
_symmetry_space_group_name_H-M  'C2/m'
_cell_length_a       5.67841
_cell_length_b       5.67841
_cell_length_c       7.81046
_cell_angle_alpha    63.6756
_cell_angle_beta     116.324
_cell_angle_gamma    112.475

_symmetry_Int_Tables_number  12
_chemical_formula_structural  NaCu2H2Se2O10
_chemical_formula_sum  NaCu2H2Se2O0
_cell_volume  196.84185328613043
_cell_formula_units_Z  1
loop_
  _symmetry_equiv_pos_site_id
 _symmetry_equiv_pos_as_xyz
 1  'x, y, z'
loop_
 _atom_site_type_symbol
 _atom_site_label
 _atom_site_symmetry_multiplicity
 _atom_site_fract_x
 _atom_site_fract_y
 _atom_site_fract_z
 _atom_site_fract_occupancy
 Cu  Cu1  1  -0.00000  0.50000  -0.00000  1
 Cu  Cu2  1  0.50000  -0.00000  0.00000  1
 H  H1  1  0.29200  0.70800  0.80120  1
 H  H2  1  0.70800  0.29200  0.19880  1
 Na  Na1  1  0.50000  0.50000  0.50000  1
 O  O1  1  0.81978  0.18022  0.82137  1
 O  O2  1  0.32982  0.67018  0.94775  1
 O  O3  1  0.76576  0.23424  0.44823  1
 O  O4  1  0.18022  0.81978  0.17863  1
 O  O5  1  0.25502  0.18320  0.74310  1
 O  O6  1  0.74498  0.81680  0.25690  1
 O  O7  1  0.23424  0.76576  0.55177  1
 O  O8  1  0.18320  0.25502  0.25690  1
 O  O9  1  0.81680  0.74498  0.74310  1
 O  O10  1  0.67018  0.32982  0.05225  1
 Se  Se1  1  0.08721  0.91279  0.30964  1
 Se  Se2  1  0.91279  0.08721  0.69036  1
