CIF file written using JARVIS-Tools package.
data_Li2Cr3CuO8
_symmetry_space_group_name_H-M  'R-3m'
_cell_length_a       5.87121
_cell_length_b       5.87122
_cell_length_c       5.87122
_cell_angle_alpha    59.046
_cell_angle_beta     59.0461
_cell_angle_gamma    59.0461

_symmetry_Int_Tables_number  166
_chemical_formula_structural  Li2Cr3CuO8
_chemical_formula_sum  Li2Cr3CuO8
_cell_volume  139.9961445193784
_cell_formula_units_Z  1
loop_
  _symmetry_equiv_pos_site_id
 _symmetry_equiv_pos_as_xyz
 1  'x, y, z'
loop_
 _atom_site_type_symbol
 _atom_site_label
 _atom_site_symmetry_multiplicity
 _atom_site_fract_x
 _atom_site_fract_y
 _atom_site_fract_z
 _atom_site_fract_occupancy
 Cr  Cr1  1  -0.00000  0.50000  0.50000  1
 Cr  Cr2  1  0.50000  0.00000  0.50000  1
 Cr  Cr3  1  0.50000  0.50000  0.00000  1
 Cu  Cu1  1  0.50000  0.50000  0.50000  1
 Li  Li1  1  0.12398  0.12398  0.12398  1
 Li  Li2  1  0.87602  0.87602  0.87602  1
 O  O1  1  0.26181  0.26181  0.26181  1
 O  O2  1  0.25302  0.25302  0.71158  1
 O  O3  1  0.25302  0.71158  0.25302  1
 O  O4  1  0.71158  0.25302  0.25302  1
 O  O5  1  0.28842  0.74698  0.74698  1
 O  O6  1  0.74698  0.28842  0.74698  1
 O  O7  1  0.74698  0.74698  0.28842  1
 O  O8  1  0.73819  0.73819  0.73819  1
