CIF file written using JARVIS-Tools package.
data_BaNd2Ti3O10
_symmetry_space_group_name_H-M  'Cmcm'
_cell_length_a       3.92421
_cell_length_b       7.68416
_cell_length_c       14.2748
_cell_angle_alpha    90
_cell_angle_beta     97.9004
_cell_angle_gamma    90

_symmetry_Int_Tables_number  63
_chemical_formula_structural  BaNd2Ti3O10
_chemical_formula_sum  Ba2Nd4Ti6O20
_cell_volume  426.3597005720957
_cell_formula_units_Z  2
loop_
  _symmetry_equiv_pos_site_id
 _symmetry_equiv_pos_as_xyz
 1  'x, y, z'
loop_
 _atom_site_type_symbol
 _atom_site_label
 _atom_site_symmetry_multiplicity
 _atom_site_fract_x
 _atom_site_fract_y
 _atom_site_fract_z
 _atom_site_fract_occupancy
 Ba  Ba1  1  0.25658  0.75000  0.51316  1
 Ba  Ba2  1  0.74342  0.25000  0.48684  1
 Nd  Nd1  1  0.42731  0.75000  0.85463  1
 Nd  Nd2  1  0.41978  0.25000  0.83957  1
 Nd  Nd3  1  0.58022  0.75000  0.16043  1
 Nd  Nd4  1  0.57269  0.25000  0.14537  1
 O  O1  1  0.06679  0.94588  0.13359  1
 O  O2  1  0.06679  0.55412  0.13359  1
 O  O3  1  0.93321  0.44588  0.86641  1
 O  O4  1  0.79241  0.95150  0.58481  1
 O  O5  1  0.20759  0.04850  0.41519  1
 O  O6  1  0.36913  0.99232  0.73826  1
 O  O7  1  0.79241  0.54850  0.58481  1
 O  O8  1  0.93321  0.05412  0.86641  1
 O  O9  1  0.63087  0.00768  0.26174  1
 O  O10  1  0.63087  0.49232  0.26174  1
 O  O11  1  0.20759  0.45150  0.41519  1
 O  O12  1  0.50000  0.00000  -0.00000  1
 O  O13  1  0.12241  0.25000  0.24481  1
 O  O14  1  0.36913  0.50768  0.73826  1
 O  O15  1  0.01703  0.25000  0.03405  1
 O  O16  1  0.87759  0.75000  0.75519  1
 O  O17  1  0.85270  0.25000  0.70541  1
 O  O18  1  0.14730  0.75000  0.29459  1
 O  O19  1  0.50000  0.50000  -0.00000  1
 O  O20  1  0.98297  0.75000  0.96595  1
 Ti  Ti1  1  0.85388  0.50550  0.70777  1
 Ti  Ti2  1  0.14612  0.49450  0.29223  1
 Ti  Ti3  1  0.14612  0.00550  0.29223  1
 Ti  Ti4  1  0.85388  0.99450  0.70777  1
 Ti  Ti5  1  0.00000  0.50000  0.00000  1
 Ti  Ti6  1  0.00000  0.00000  0.00000  1
