CIF file written using JARVIS-Tools package.
data_Te6Cl2O11
_symmetry_space_group_name_H-M  'Cmcm'
_cell_length_a       6.78866
_cell_length_b       6.78984
_cell_length_c       15.3325
_cell_angle_alpha    90
_cell_angle_beta     90
_cell_angle_gamma    119.024

_symmetry_Int_Tables_number  63
_chemical_formula_structural  Te6Cl2O11
_chemical_formula_sum  Te2Cl4O22
_cell_volume  617.9842964300825
_cell_formula_units_Z  2
loop_
  _symmetry_equiv_pos_site_id
 _symmetry_equiv_pos_as_xyz
 1  'x, y, z'
loop_
 _atom_site_type_symbol
 _atom_site_label
 _atom_site_symmetry_multiplicity
 _atom_site_fract_x
 _atom_site_fract_y
 _atom_site_fract_z
 _atom_site_fract_occupancy
 Cl  Cl1  1  0.97832  0.14210  0.75000  1
 Cl  Cl2  1  0.02168  0.85790  0.25000  1
 Cl  Cl3  1  0.64226  0.47812  0.75000  1
 Cl  Cl4  1  0.35774  0.52188  0.25000  1
 O  O1  1  0.44701  0.19260  0.40646  1
 O  O2  1  0.08361  0.58351  0.61704  1
 O  O3  1  0.98587  0.18237  0.96260  1
 O  O4  1  0.01413  0.81763  0.46260  1
 O  O5  1  0.01413  0.81763  0.03740  1
 O  O6  1  0.98587  0.18237  0.53740  1
 O  O7  1  0.68232  0.48578  0.96260  1
 O  O8  1  0.31768  0.51422  0.46260  1
 O  O9  1  0.31768  0.51422  0.03740  1
 O  O10  1  0.68232  0.48578  0.53740  1
 O  O11  1  0.30758  0.05275  0.90656  1
 O  O12  1  0.69242  0.94725  0.40656  1
 O  O13  1  0.69242  0.94725  0.09344  1
 O  O14  1  0.30758  0.05275  0.59344  1
 O  O15  1  0.91639  0.41649  0.11704  1
 O  O16  1  0.91639  0.41649  0.38296  1
 O  O17  1  0.55299  0.80740  0.59354  1
 O  O18  1  0.08361  0.58351  0.88296  1
 O  O19  1  0.44216  0.94212  0.75000  1
 O  O20  1  0.55299  0.80740  0.90646  1
 O  O21  1  0.44701  0.19260  0.09354  1
 O  O22  1  0.55784  0.05788  0.25000  1
 Te  Te1  1  0.29628  0.47677  0.91158  1
 Te  Te2  1  0.70372  0.52323  0.08842  1
 Te  Te3  1  0.29628  0.47677  0.58842  1
 Te  Te4  1  0.97686  0.79614  0.91158  1
 Te  Te5  1  0.70372  0.52323  0.41158  1
 Te  Te6  1  0.97686  0.79614  0.58842  1
 Te  Te7  1  0.58793  0.08776  0.86124  1
 Te  Te8  1  0.41207  0.91224  0.36124  1
 Te  Te9  1  0.02314  0.20386  0.41158  1
 Te  Te10  1  0.41207  0.91224  0.13876  1
 Te  Te11  1  0.02314  0.20386  0.08842  1
 Te  Te12  1  0.58793  0.08776  0.63876  1
