CIF file written using JARVIS-Tools package.
data_Li2Fe3O6
_symmetry_space_group_name_H-M  'C2/m'
_cell_length_a       5.04504
_cell_length_b       4.85341
_cell_length_c       4.84997
_cell_angle_alpha    60.0224
_cell_angle_beta     71.5447
_cell_angle_gamma    80.9008

_symmetry_Int_Tables_number  12
_chemical_formula_structural  Li2Fe3O6
_chemical_formula_sum  Li2Fe3O6
_cell_volume  97.57715393896548
_cell_formula_units_Z  1
loop_
  _symmetry_equiv_pos_site_id
 _symmetry_equiv_pos_as_xyz
 1  'x, y, z'
loop_
 _atom_site_type_symbol
 _atom_site_label
 _atom_site_symmetry_multiplicity
 _atom_site_fract_x
 _atom_site_fract_y
 _atom_site_fract_z
 _atom_site_fract_occupancy
 Fe  Fe1  1  0.50000  0.32267  0.83866  1
 Fe  Fe2  1  0.50000  -0.00000  0.50000  1
 Fe  Fe3  1  0.50000  0.67733  0.16134  1
 Li  Li1  1  -0.00000  0.66542  0.66729  1
 Li  Li2  1  0.00000  0.33458  0.33271  1
 O  O1  1  0.72231  0.00001  0.75247  1
 O  O2  1  0.71264  0.65827  0.43841  1
 O  O3  1  0.71264  0.34175  0.09667  1
 O  O4  1  0.28736  0.65825  0.90333  1
 O  O5  1  0.28736  0.34173  0.56159  1
 O  O6  1  0.27769  -0.00001  0.24753  1
