CIF file written using JARVIS-Tools package.
data_Ca2TiO4
_symmetry_space_group_name_H-M  'I4/mmm'
_cell_length_a       3.84013
_cell_length_b       3.84013
_cell_length_c       6.56067
_cell_angle_alpha    107.017
_cell_angle_beta     107.017
_cell_angle_gamma    89.9999

_symmetry_Int_Tables_number  139
_chemical_formula_structural  Ca2TiO4
_chemical_formula_sum  Ca2TiO4
_cell_volume  88.07181409392169
_cell_formula_units_Z  1
loop_
  _symmetry_equiv_pos_site_id
 _symmetry_equiv_pos_as_xyz
 1  'x, y, z'
loop_
 _atom_site_type_symbol
 _atom_site_label
 _atom_site_symmetry_multiplicity
 _atom_site_fract_x
 _atom_site_fract_y
 _atom_site_fract_z
 _atom_site_fract_occupancy
 Ca  Ca1  1  0.35396  0.35396  0.70793  1
 Ca  Ca2  1  0.64604  0.64604  0.29207  1
 O  O1  1  0.50000  0.00000  0.00000  1
 O  O2  1  0.00000  0.50000  0.00000  1
 O  O3  1  0.16624  0.16624  0.33248  1
 O  O4  1  0.83376  0.83376  0.66752  1
 Ti  Ti1  1  0.00000  0.00000  0.00000  1
