CIF file written using JARVIS-Tools package.
data_Mn2B4Mo
_symmetry_space_group_name_H-M  'Immm'
_cell_length_a       3.01354
_cell_length_b       3.0992
_cell_length_c       6.77846
_cell_angle_alpha    103.215
_cell_angle_beta     102.844
_cell_angle_gamma    90

_symmetry_Int_Tables_number  71
_chemical_formula_structural  Mn2B4Mo
_chemical_formula_sum  Mn2B4Mo
_cell_volume  60.003433908744036
_cell_formula_units_Z  1
loop_
  _symmetry_equiv_pos_site_id
 _symmetry_equiv_pos_as_xyz
 1  'x, y, z'
loop_
 _atom_site_type_symbol
 _atom_site_label
 _atom_site_symmetry_multiplicity
 _atom_site_fract_x
 _atom_site_fract_y
 _atom_site_fract_z
 _atom_site_fract_occupancy
 B  B1  1  0.35251  0.35251  0.70503  1
 B  B2  1  0.64749  0.64749  0.29497  1
 B  B3  1  0.92775  0.42775  0.85550  1
 B  B4  1  0.07225  0.57225  0.14450  1
 Mn  Mn1  1  0.18634  0.18634  0.37268  1
 Mn  Mn2  1  0.81366  0.81366  0.62732  1
 Mo  Mo1  1  0.50000  0.00000  0.00000  1
