CIF file written using JARVIS-Tools package.
data_NaIO3
_symmetry_space_group_name_H-M  'Pnma'
_cell_length_a       6.37803
_cell_length_b       5.73446
_cell_length_c       8.08619
_cell_angle_alpha    90
_cell_angle_beta     90
_cell_angle_gamma    90

_symmetry_Int_Tables_number  62
_chemical_formula_structural  NaIO3
_chemical_formula_sum  Na4I4O2
_cell_volume  295.74851217770555
_cell_formula_units_Z  4
loop_
  _symmetry_equiv_pos_site_id
 _symmetry_equiv_pos_as_xyz
 1  'x, y, z'
loop_
 _atom_site_type_symbol
 _atom_site_label
 _atom_site_symmetry_multiplicity
 _atom_site_fract_x
 _atom_site_fract_y
 _atom_site_fract_z
 _atom_site_fract_occupancy
 I  I1  1  0.99261  -0.01078  0.74840  1
 I  I2  1  0.49261  0.51078  0.74840  1
 I  I3  1  0.50739  0.48922  0.24840  1
 I  I4  1  0.00739  0.01078  0.24840  1
 Na  Na1  1  0.00007  0.50000  0.49838  1
 Na  Na2  1  0.50007  0.00000  0.49838  1
 Na  Na3  1  0.49993  -0.00000  0.99838  1
 Na  Na4  1  -0.00007  0.50000  0.99838  1
 O  O1  1  0.40451  0.20727  0.74835  1
 O  O2  1  0.16515  0.13853  0.08020  1
 O  O3  1  0.83485  0.86147  0.58020  1
 O  O4  1  0.33485  0.63853  0.58020  1
 O  O5  1  0.33467  0.63858  0.91647  1
 O  O6  1  0.59549  0.79273  0.24835  1
 O  O7  1  0.66533  0.36142  0.41647  1
 O  O8  1  0.09549  0.70727  0.24835  1
 O  O9  1  0.16533  0.13858  0.41647  1
 O  O10  1  0.90451  0.29273  0.74835  1
 O  O11  1  0.83467  0.86142  0.91647  1
 O  O12  1  0.66515  0.36147  0.08020  1
