CIF file written using JARVIS-Tools package.
data_NaLiZnP2O7
_symmetry_space_group_name_H-M  'C222_1'
_cell_length_a       6.25791
_cell_length_b       7.33085
_cell_length_c       7.33086
_cell_angle_alpha    117.363
_cell_angle_beta     90
_cell_angle_gamma    90

_symmetry_Int_Tables_number  20
_chemical_formula_structural  NaLiZnP2O7
_chemical_formula_sum  Na2Li2Zn2P4O4
_cell_volume  298.6794254538491
_cell_formula_units_Z  2
loop_
  _symmetry_equiv_pos_site_id
 _symmetry_equiv_pos_as_xyz
 1  'x, y, z'
loop_
 _atom_site_type_symbol
 _atom_site_label
 _atom_site_symmetry_multiplicity
 _atom_site_fract_x
 _atom_site_fract_y
 _atom_site_fract_z
 _atom_site_fract_occupancy
 Li  Li1  1  0.00000  0.21215  0.78785  1
 Li  Li2  1  0.50000  0.78785  0.21215  1
 Na  Na1  1  0.25000  0.25454  0.25454  1
 Na  Na2  1  0.75000  0.74546  0.74546  1
 O  O1  1  0.04576  0.68045  0.91827  1
 O  O2  1  0.95424  0.08173  0.31955  1
 O  O3  1  0.25000  0.59077  0.59077  1
 O  O4  1  0.24572  0.34254  0.73465  1
 O  O5  1  0.25428  0.73465  0.34254  1
 O  O6  1  0.04291  0.92145  0.67529  1
 O  O7  1  0.45424  0.91827  0.68045  1
 O  O8  1  0.54291  0.07855  0.32471  1
 O  O9  1  0.54576  0.31955  0.08173  1
 O  O10  1  0.75000  0.40923  0.40923  1
 O  O11  1  0.45709  0.67529  0.92145  1
 O  O12  1  0.74572  0.65746  0.26535  1
 O  O13  1  0.75428  0.26535  0.65746  1
 O  O14  1  0.95709  0.32471  0.07855  1
 P  P1  1  0.75384  0.42361  0.19160  1
 P  P2  1  0.74616  0.19160  0.42361  1
 P  P3  1  0.24616  0.80840  0.57639  1
 P  P4  1  0.25384  0.57639  0.80840  1
 Zn  Zn1  1  0.50000  0.21438  0.78562  1
 Zn  Zn2  1  0.00000  0.78562  0.21438  1
