CIF file written using JARVIS-Tools package.
data_BeCr2Ge
_symmetry_space_group_name_H-M  'F-43m'
_cell_length_a       3.99826
_cell_length_b       3.99826
_cell_length_c       3.99826
_cell_angle_alpha    120.001
_cell_angle_beta     120.001
_cell_angle_gamma    89.9988

_symmetry_Int_Tables_number  216
_chemical_formula_structural  BeCr2Ge
_chemical_formula_sum  BeCr2Ge
_cell_volume  45.19519798591314
_cell_formula_units_Z  1
loop_
  _symmetry_equiv_pos_site_id
 _symmetry_equiv_pos_as_xyz
 1  'x, y, z'
loop_
 _atom_site_type_symbol
 _atom_site_label
 _atom_site_symmetry_multiplicity
 _atom_site_fract_x
 _atom_site_fract_y
 _atom_site_fract_z
 _atom_site_fract_occupancy
 Be  Be1  1  0.75000  0.25000  0.50000  1
 Cr  Cr1  1  0.00000  0.00000  0.00000  1
 Cr  Cr2  1  0.25000  0.75000  0.50000  1
 Ge  Ge1  1  0.50000  0.50000  0.00000  1
