CIF file written using JARVIS-Tools package.
data_Mg6NbFe
_symmetry_space_group_name_H-M  'Amm2'
_cell_length_a       6.25515
_cell_length_b       6.25515
_cell_length_c       4.73928
_cell_angle_alpha    90
_cell_angle_beta     90
_cell_angle_gamma    123.072

_symmetry_Int_Tables_number  38
_chemical_formula_structural  Mg6NbFe
_chemical_formula_sum  Mg6NbFe
_cell_volume  155.39050214610631
_cell_formula_units_Z  1
loop_
  _symmetry_equiv_pos_site_id
 _symmetry_equiv_pos_as_xyz
 1  'x, y, z'
loop_
 _atom_site_type_symbol
 _atom_site_label
 _atom_site_symmetry_multiplicity
 _atom_site_fract_x
 _atom_site_fract_y
 _atom_site_fract_z
 _atom_site_fract_occupancy
 Fe  Fe1  1  0.19514  0.30486  0.25000  1
 Mg  Mg1  1  0.17979  0.84028  0.25000  1
 Mg  Mg2  1  0.65972  0.32021  0.25000  1
 Mg  Mg3  1  0.67368  0.82632  0.25000  1
 Mg  Mg4  1  0.31836  0.66624  0.75000  1
 Mg  Mg5  1  0.83376  0.18164  0.75000  1
 Mg  Mg6  1  0.83154  0.66846  0.75000  1
 Nb  Nb1  1  0.30802  0.19198  0.75000  1
