CIF file written using JARVIS-Tools package.
data_SrSi3Au
_symmetry_space_group_name_H-M  'I4mm'
_cell_length_a       4.47517
_cell_length_b       4.47517
_cell_length_c       5.899
_cell_angle_alpha    112.291
_cell_angle_beta     112.291
_cell_angle_gamma    90

_symmetry_Int_Tables_number  107
_chemical_formula_structural  SrSi3Au
_chemical_formula_sum  SrSi3Au
_cell_volume  99.70352778985891
_cell_formula_units_Z  1
loop_
  _symmetry_equiv_pos_site_id
 _symmetry_equiv_pos_as_xyz
 1  'x, y, z'
loop_
 _atom_site_type_symbol
 _atom_site_label
 _atom_site_symmetry_multiplicity
 _atom_site_fract_x
 _atom_site_fract_y
 _atom_site_fract_z
 _atom_site_fract_occupancy
 Au  Au1  1  0.63277  0.63277  0.26553  1
 Si  Si1  1  0.37858  0.37858  0.75717  1
 Si  Si2  1  0.75572  0.25572  0.51144  1
 Si  Si3  1  0.25572  0.75572  0.51144  1
 Sr  Sr1  1  0.99971  0.99971  0.99942  1
