CIF file written using JARVIS-Tools package.
data_AlMo3
_symmetry_space_group_name_H-M  'Pm-3n'
_cell_length_a       4.97287
_cell_length_b       4.97287
_cell_length_c       4.97287
_cell_angle_alpha    90
_cell_angle_beta     90
_cell_angle_gamma    90

_symmetry_Int_Tables_number  223
_chemical_formula_structural  AlMo3
_chemical_formula_sum  Al2Mo6
_cell_volume  122.976110232145
_cell_formula_units_Z  2
loop_
  _symmetry_equiv_pos_site_id
 _symmetry_equiv_pos_as_xyz
 1  'x, y, z'
loop_
 _atom_site_type_symbol
 _atom_site_label
 _atom_site_symmetry_multiplicity
 _atom_site_fract_x
 _atom_site_fract_y
 _atom_site_fract_z
 _atom_site_fract_occupancy
 Al  Al1  1  0.00000  0.00000  0.00000  1
 Al  Al2  1  0.50000  0.50000  0.50000  1
 Mo  Mo1  1  0.25000  0.00000  0.50000  1
 Mo  Mo2  1  0.75000  0.00000  0.50000  1
 Mo  Mo3  1  0.00000  0.50000  0.25000  1
 Mo  Mo4  1  0.00000  0.50000  0.75000  1
 Mo  Mo5  1  0.50000  0.75000  0.00000  1
 Mo  Mo6  1  0.50000  0.25000  0.00000  1
