CIF file written using JARVIS-Tools package.
data_ZnS
_symmetry_space_group_name_H-M  'P6_3mc'
_cell_length_a       3.84166
_cell_length_b       3.84166
_cell_length_c       62.7752
_cell_angle_alpha    90
_cell_angle_beta     90
_cell_angle_gamma    120

_symmetry_Int_Tables_number  186
_chemical_formula_structural  ZnS
_chemical_formula_sum  Zn20S20
_cell_volume  802.336942814738
_cell_formula_units_Z  20
loop_
  _symmetry_equiv_pos_site_id
 _symmetry_equiv_pos_as_xyz
 1  'x, y, z'
loop_
 _atom_site_type_symbol
 _atom_site_label
 _atom_site_symmetry_multiplicity
 _atom_site_fract_x
 _atom_site_fract_y
 _atom_site_fract_z
 _atom_site_fract_occupancy
 S  S1  1  0.00000  0.00000  0.43743  1
 S  S2  1  0.66667  0.33333  0.53756  1
 S  S3  1  0.66667  0.33333  0.38745  1
 S  S4  1  0.33333  0.66667  0.58756  1
 S  S5  1  0.33333  0.66667  0.18752  1
 S  S6  1  0.00000  0.00000  0.63754  1
 S  S7  1  0.33333  0.66667  0.03756  1
 S  S8  1  0.33333  0.66667  0.73751  1
 S  S9  1  0.66667  0.33333  0.68752  1
 S  S10  1  0.66667  0.33333  0.08756  1
 S  S11  1  0.00000  0.00000  0.28749  1
 S  S12  1  0.33333  0.66667  0.48741  1
 S  S13  1  0.00000  0.00000  0.78749  1
 S  S14  1  0.33333  0.66667  0.33747  1
 S  S15  1  0.33333  0.66667  0.88745  1
 S  S16  1  0.66667  0.33333  0.83747  1
 S  S17  1  0.66667  0.33333  0.23751  1
 S  S18  1  0.00000  0.00000  0.93743  1
 S  S19  1  0.66667  0.33333  0.98741  1
 S  S20  1  0.00000  0.00000  0.13754  1
 Zn  Zn1  1  0.00000  0.00000  0.39995  1
 Zn  Zn2  1  0.66667  0.33333  0.20003  1
 Zn  Zn3  1  0.33333  0.66667  0.29999  1
 Zn  Zn4  1  0.66667  0.33333  0.79999  1
 Zn  Zn5  1  0.33333  0.66667  0.15004  1
 Zn  Zn6  1  0.66667  0.33333  0.50000  1
 Zn  Zn7  1  0.00000  0.00000  0.75001  1
 Zn  Zn8  1  0.33333  0.66667  0.84997  1
 Zn  Zn9  1  0.00000  0.00000  0.25001  1
 Zn  Zn10  1  0.33333  0.66667  0.44993  1
 Zn  Zn11  1  0.33333  0.66667  0.55009  1
 Zn  Zn12  1  0.33333  0.66667  -0.00000  1
 Zn  Zn13  1  0.66667  0.33333  0.34997  1
 Zn  Zn14  1  0.00000  0.00000  0.10006  1
 Zn  Zn15  1  0.66667  0.33333  0.94993  1
 Zn  Zn16  1  0.00000  0.00000  0.60006  1
 Zn  Zn17  1  0.33333  0.66667  0.70003  1
 Zn  Zn18  1  0.66667  0.33333  0.65004  1
 Zn  Zn19  1  0.00000  0.00000  0.89995  1
 Zn  Zn20  1  0.66667  0.33333  0.05009  1
