CIF file written using JARVIS-Tools package.
data_CoTeMo
_symmetry_space_group_name_H-M  'Pmmn'
_cell_length_a       3.78367
_cell_length_b       4.8895
_cell_length_c       5.92067
_cell_angle_alpha    90
_cell_angle_beta     90
_cell_angle_gamma    90

_symmetry_Int_Tables_number  59
_chemical_formula_structural  CoTeMo
_chemical_formula_sum  Co2Te2Mo2
_cell_volume  109.53385632717033
_cell_formula_units_Z  2
loop_
  _symmetry_equiv_pos_site_id
 _symmetry_equiv_pos_as_xyz
 1  'x, y, z'
loop_
 _atom_site_type_symbol
 _atom_site_label
 _atom_site_symmetry_multiplicity
 _atom_site_fract_x
 _atom_site_fract_y
 _atom_site_fract_z
 _atom_site_fract_occupancy
 Co  Co1  1  0.00000  0.50000  0.25764  1
 Co  Co2  1  0.50000  0.00000  0.74236  1
 Mo  Mo1  1  0.50000  0.50000  0.50254  1
 Mo  Mo2  1  0.00000  0.00000  0.49746  1
 Te  Te1  1  0.50000  0.50000  0.95015  1
 Te  Te2  1  0.00000  0.00000  0.04985  1
