CIF file written using JARVIS-Tools package.
data_LaB2Pt2C
_symmetry_space_group_name_H-M  'I4/mmm'
_cell_length_a       3.90604
_cell_length_b       3.90604
_cell_length_c       6.05086
_cell_angle_alpha    108.831
_cell_angle_beta     108.83
_cell_angle_gamma    89.9999

_symmetry_Int_Tables_number  139
_chemical_formula_structural  LaB2Pt2C
_chemical_formula_sum  LaB2Pt2C
_cell_volume  82.13993994150621
_cell_formula_units_Z  1
loop_
  _symmetry_equiv_pos_site_id
 _symmetry_equiv_pos_as_xyz
 1  'x, y, z'
loop_
 _atom_site_type_symbol
 _atom_site_label
 _atom_site_symmetry_multiplicity
 _atom_site_fract_x
 _atom_site_fract_y
 _atom_site_fract_z
 _atom_site_fract_occupancy
 B  B1  1  0.36264  0.36264  0.72529  1
 B  B2  1  0.63736  0.63736  0.27471  1
 C  C1  1  0.50000  0.50000  -0.00000  1
 La  La1  1  0.00000  0.00000  0.00000  1
 Pt  Pt1  1  0.25000  0.75000  0.50000  1
 Pt  Pt2  1  0.75000  0.25000  0.50000  1
