CIF file written using JARVIS-Tools package.
data_SrFe3P4O14
_symmetry_space_group_name_H-M  'P2_1/c'
_cell_length_a       7.54105
_cell_length_b       7.6883
_cell_length_c       9.67964
_cell_angle_alpha    90
_cell_angle_beta     111.844
_cell_angle_gamma    90

_symmetry_Int_Tables_number  14
_chemical_formula_structural  SrFe3P4O14
_chemical_formula_sum  Sr2Fe6P8O28
_cell_volume  520.910067019855
_cell_formula_units_Z  2
loop_
  _symmetry_equiv_pos_site_id
 _symmetry_equiv_pos_as_xyz
 1  'x, y, z'
loop_
 _atom_site_type_symbol
 _atom_site_label
 _atom_site_symmetry_multiplicity
 _atom_site_fract_x
 _atom_site_fract_y
 _atom_site_fract_z
 _atom_site_fract_occupancy
 Fe  Fe1  1  0.81912  0.12950  0.47266  1
 Fe  Fe2  1  0.81912  0.37050  0.97266  1
 Fe  Fe3  1  0.18088  0.87050  0.52734  1
 Fe  Fe4  1  0.00000  0.00000  0.00000  1
 Fe  Fe5  1  0.18088  0.62950  0.02734  1
 Fe  Fe6  1  -0.00000  0.50000  0.50000  1
 O  O1  1  0.97132  0.92209  0.61510  1
 O  O2  1  0.27942  0.61224  0.63758  1
 O  O3  1  0.72058  0.11224  0.86242  1
 O  O4  1  0.72058  0.38776  0.36242  1
 O  O5  1  0.27942  0.88776  0.13758  1
 O  O6  1  0.62242  0.18400  0.58712  1
 O  O7  1  0.00757  0.21501  0.13828  1
 O  O8  1  0.37758  0.68400  0.91288  1
 O  O9  1  0.32256  0.13043  0.32450  1
 O  O10  1  0.67744  0.86957  0.67550  1
 O  O11  1  0.32256  0.36957  0.82449  1
 O  O12  1  0.84051  0.87956  0.11099  1
 O  O13  1  0.67744  0.63043  0.17550  1
 O  O14  1  0.39455  0.48236  0.18821  1
 O  O15  1  0.60545  0.98236  0.31179  1
 O  O16  1  0.60545  0.51764  0.81179  1
 O  O17  1  0.62242  0.31600  0.08712  1
 O  O18  1  0.15949  0.37956  0.38901  1
 O  O19  1  -0.00757  0.71501  0.36172  1
 O  O20  1  0.39455  0.01764  0.68821  1
 O  O21  1  0.84051  0.62044  0.61099  1
 O  O22  1  0.37758  0.81600  0.41288  1
 O  O23  1  0.00757  0.28499  0.63828  1
 O  O24  1  0.97132  0.57791  0.11510  1
 O  O25  1  0.02868  0.07791  0.38490  1
 O  O26  1  0.02868  0.42209  0.88490  1
 O  O27  1  -0.00757  0.78499  0.86172  1
 O  O28  1  0.15949  0.12044  0.88901  1
 P  P1  1  0.59807  0.05836  0.70004  1
 P  P2  1  0.40193  0.55836  0.79996  1
 P  P3  1  0.40193  0.94164  0.29996  1
 P  P4  1  0.11659  0.20616  0.30710  1
 P  P5  1  0.11659  0.29384  0.80710  1
 P  P6  1  0.88341  0.70616  0.19290  1
 P  P7  1  0.88341  0.79384  0.69290  1
 P  P8  1  0.59807  0.44164  0.20004  1
 Sr  Sr1  1  0.50000  0.50000  0.50000  1
 Sr  Sr2  1  0.50000  0.00000  0.00000  1
