CIF file written using JARVIS-Tools package.
data_TaPS
_symmetry_space_group_name_H-M  'Immm'
_cell_length_a       3.4687
_cell_length_b       4.77291
_cell_length_c       6.65201
_cell_angle_alpha    111.024
_cell_angle_beta     105.113
_cell_angle_gamma    90

_symmetry_Int_Tables_number  71
_chemical_formula_structural  TaPS
_chemical_formula_sum  Ta2P2S2
_cell_volume  98.70655115688126
_cell_formula_units_Z  2
loop_
  _symmetry_equiv_pos_site_id
 _symmetry_equiv_pos_as_xyz
 1  'x, y, z'
loop_
 _atom_site_type_symbol
 _atom_site_label
 _atom_site_symmetry_multiplicity
 _atom_site_fract_x
 _atom_site_fract_y
 _atom_site_fract_z
 _atom_site_fract_occupancy
 P  P1  1  0.50000  0.23576  0.00000  1
 P  P2  1  0.50000  0.76424  -0.00000  1
 S  S1  1  0.78659  0.78659  0.57317  1
 S  S2  1  0.21341  0.21341  0.42683  1
 Ta  Ta1  1  0.87684  0.37684  0.75367  1
 Ta  Ta2  1  0.12316  0.62316  0.24633  1
