CIF file written using JARVIS-Tools package.
data_TbCoO3
_symmetry_space_group_name_H-M  'Pnma'
_cell_length_a       5.15818
_cell_length_b       5.50172
_cell_length_c       7.40545
_cell_angle_alpha    90.0005
_cell_angle_beta     90.0014
_cell_angle_gamma    89.999

_symmetry_Int_Tables_number  62
_chemical_formula_structural  TbCoO3
_chemical_formula_sum  Tb4Co4O2
_cell_volume  210.15832834605658
_cell_formula_units_Z  4
loop_
  _symmetry_equiv_pos_site_id
 _symmetry_equiv_pos_as_xyz
 1  'x, y, z'
loop_
 _atom_site_type_symbol
 _atom_site_label
 _atom_site_symmetry_multiplicity
 _atom_site_fract_x
 _atom_site_fract_y
 _atom_site_fract_z
 _atom_site_fract_occupancy
 Co  Co1  1  0.50000  0.00000  0.50000  1
 Co  Co2  1  0.50000  0.00000  0.00000  1
 Co  Co3  1  -0.00000  0.50000  0.50000  1
 Co  Co4  1  0.00000  0.50000  -0.00000  1
 O  O1  1  0.30787  0.69909  0.95123  1
 O  O2  1  0.69213  0.30091  0.45123  1
 O  O3  1  0.19213  0.19909  0.54877  1
 O  O4  1  0.19213  0.19909  0.95123  1
 O  O5  1  0.30787  0.69909  0.54877  1
 O  O6  1  0.80787  0.80091  0.45123  1
 O  O7  1  0.80787  0.80091  0.04877  1
 O  O8  1  0.09806  0.47434  0.25000  1
 O  O9  1  0.59806  0.02566  0.75000  1
 O  O10  1  0.40194  0.97434  0.25000  1
 O  O11  1  0.69213  0.30091  0.04877  1
 O  O12  1  0.90194  0.52566  0.75000  1
 Tb  Tb1  1  0.02026  0.92675  0.75000  1
 Tb  Tb2  1  0.52026  0.57326  0.25000  1
 Tb  Tb3  1  0.97974  0.07325  0.25000  1
 Tb  Tb4  1  0.47974  0.42674  0.75000  1
