CIF file written using JARVIS-Tools package.
data_MgTi2
_symmetry_space_group_name_H-M  'P-62m'
_cell_length_a       5.11291
_cell_length_b       5.11291
_cell_length_c       4.87206
_cell_angle_alpha    90
_cell_angle_beta     90
_cell_angle_gamma    120

_symmetry_Int_Tables_number  189
_chemical_formula_structural  MgTi2
_chemical_formula_sum  Mg2Ti4
_cell_volume  110.30077179573543
_cell_formula_units_Z  2
loop_
  _symmetry_equiv_pos_site_id
 _symmetry_equiv_pos_as_xyz
 1  'x, y, z'
loop_
 _atom_site_type_symbol
 _atom_site_label
 _atom_site_symmetry_multiplicity
 _atom_site_fract_x
 _atom_site_fract_y
 _atom_site_fract_z
 _atom_site_fract_occupancy
 Mg  Mg1  1  0.66667  0.33333  0.00000  1
 Mg  Mg2  1  0.33333  0.66667  0.00000  1
 Ti  Ti1  1  0.00000  0.31605  0.50000  1
 Ti  Ti2  1  0.68395  0.68395  0.50000  1
 Ti  Ti3  1  0.31605  0.00000  0.50000  1
 Ti  Ti4  1  0.00000  0.00000  0.00000  1
