CIF file written using JARVIS-Tools package.
data_KLiMg6
_symmetry_space_group_name_H-M  'Amm2'
_cell_length_a       7.17116
_cell_length_b       6.37758
_cell_length_c       5.21972
_cell_angle_alpha    90
_cell_angle_beta     90
_cell_angle_gamma    116.402

_symmetry_Int_Tables_number  38
_chemical_formula_structural  KLiMg6
_chemical_formula_sum  KLiMg6
_cell_volume  213.8220775776788
_cell_formula_units_Z  1
loop_
  _symmetry_equiv_pos_site_id
 _symmetry_equiv_pos_as_xyz
 1  'x, y, z'
loop_
 _atom_site_type_symbol
 _atom_site_label
 _atom_site_symmetry_multiplicity
 _atom_site_fract_x
 _atom_site_fract_y
 _atom_site_fract_z
 _atom_site_fract_occupancy
 K  K1  1  0.11665  0.30833  0.25000  1
 Li  Li1  1  0.21363  0.85681  0.25000  1
 Mg  Mg1  1  0.63986  0.32790  0.25000  1
 Mg  Mg2  1  0.63986  0.81196  0.25000  1
 Mg  Mg3  1  0.36300  0.17730  0.75000  1
 Mg  Mg4  1  0.36300  0.68570  0.75000  1
 Mg  Mg5  1  0.77944  0.13972  0.75000  1
 Mg  Mg6  1  0.88457  0.69228  0.75000  1
