CIF file written using JARVIS-Tools package.
data_BeTl2Ga
_symmetry_space_group_name_H-M  'P4mm'
_cell_length_a       3.25751
_cell_length_b       3.25751
_cell_length_c       8.54961
_cell_angle_alpha    90
_cell_angle_beta     90
_cell_angle_gamma    90

_symmetry_Int_Tables_number  99
_chemical_formula_structural  BeTl2Ga
_chemical_formula_sum  BeTl2Ga
_cell_volume  90.72316093904054
_cell_formula_units_Z  1
loop_
  _symmetry_equiv_pos_site_id
 _symmetry_equiv_pos_as_xyz
 1  'x, y, z'
loop_
 _atom_site_type_symbol
 _atom_site_label
 _atom_site_symmetry_multiplicity
 _atom_site_fract_x
 _atom_site_fract_y
 _atom_site_fract_z
 _atom_site_fract_occupancy
 Be  Be1  1  0.00000  0.00000  0.57018  1
 Ga  Ga1  1  0.50000  0.50000  0.67195  1
 Tl  Tl1  1  0.00000  0.00000  0.95493  1
 Tl  Tl2  1  0.50000  0.50000  0.30294  1
