CIF file written using JARVIS-Tools package.
data_HfV2
_symmetry_space_group_name_H-M  'Fd-3m'
_cell_length_a       5.15154
_cell_length_b       5.15275
_cell_length_c       5.15275
_cell_angle_alpha    60.0181
_cell_angle_beta     60.0077
_cell_angle_gamma    60.0077

_symmetry_Int_Tables_number  227
_chemical_formula_structural  HfV2
_chemical_formula_sum  Hf2V4
_cell_volume  96.74080572653787
_cell_formula_units_Z  2
loop_
  _symmetry_equiv_pos_site_id
 _symmetry_equiv_pos_as_xyz
 1  'x, y, z'
loop_
 _atom_site_type_symbol
 _atom_site_label
 _atom_site_symmetry_multiplicity
 _atom_site_fract_x
 _atom_site_fract_y
 _atom_site_fract_z
 _atom_site_fract_occupancy
 Hf  Hf1  1  0.37501  0.87499  0.37499  1
 Hf  Hf2  1  0.62499  0.12501  0.62501  1
 V  V1  1  -0.00000  0.50000  0.50000  1
 V  V2  1  0.00000  0.00000  0.00000  1
 V  V3  1  0.50000  0.50000  0.00000  1
 V  V4  1  -0.00000  0.50000  0.00000  1
