CIF file written using JARVIS-Tools package.
data_Mg6BMo
_symmetry_space_group_name_H-M  'Amm2'
_cell_length_a       6.37818
_cell_length_b       6.37817
_cell_length_c       4.54221
_cell_angle_alpha    90
_cell_angle_beta     90
_cell_angle_gamma    124.49

_symmetry_Int_Tables_number  38
_chemical_formula_structural  Mg6BMo
_chemical_formula_sum  Mg6BMo
_cell_volume  152.30171971939868
_cell_formula_units_Z  1
loop_
  _symmetry_equiv_pos_site_id
 _symmetry_equiv_pos_as_xyz
 1  'x, y, z'
loop_
 _atom_site_type_symbol
 _atom_site_label
 _atom_site_symmetry_multiplicity
 _atom_site_fract_x
 _atom_site_fract_y
 _atom_site_fract_z
 _atom_site_fract_occupancy
 B  B1  1  0.26083  0.23917  0.75000  1
 Mg  Mg1  1  0.18183  0.83267  0.25000  1
 Mg  Mg2  1  0.66733  0.31817  0.25000  1
 Mg  Mg3  1  0.67185  0.82815  0.25000  1
 Mg  Mg4  1  0.32727  0.64478  0.75000  1
 Mg  Mg5  1  0.85522  0.17273  0.75000  1
 Mg  Mg6  1  0.82524  0.67476  0.75000  1
 Mo  Mo1  1  0.21043  0.28957  0.25000  1
