CIF file written using JARVIS-Tools package.
data_Li5BiS4
_symmetry_space_group_name_H-M  'Pmmn'
_cell_length_a       5.66062
_cell_length_b       7.74939
_cell_length_c       9.23227
_cell_angle_alpha    90
_cell_angle_beta     90
_cell_angle_gamma    90

_symmetry_Int_Tables_number  59
_chemical_formula_structural  Li5BiS4
_chemical_formula_sum  Li0Bi2S8
_cell_volume  404.985765942251
_cell_formula_units_Z  2
loop_
  _symmetry_equiv_pos_site_id
 _symmetry_equiv_pos_as_xyz
 1  'x, y, z'
loop_
 _atom_site_type_symbol
 _atom_site_label
 _atom_site_symmetry_multiplicity
 _atom_site_fract_x
 _atom_site_fract_y
 _atom_site_fract_z
 _atom_site_fract_occupancy
 Bi  Bi1  1  0.18032  0.00000  0.00000  1
 Bi  Bi2  1  0.81968  0.50000  0.50000  1
 Li  Li1  1  0.24381  0.73476  0.70402  1
 Li  Li2  1  0.24381  0.26524  0.70402  1
 Li  Li3  1  0.76699  0.00000  0.50000  1
 Li  Li4  1  0.24381  0.73476  0.29598  1
 Li  Li5  1  0.24381  0.26524  0.29598  1
 Li  Li6  1  0.75619  0.76524  0.20402  1
 Li  Li7  1  0.75619  0.23476  0.20402  1
 Li  Li8  1  0.23301  0.50000  0.00000  1
 Li  Li9  1  0.75619  0.76524  0.79598  1
 Li  Li10  1  0.75619  0.23476  0.79598  1
 S  S1  1  0.48626  0.74987  0.00000  1
 S  S2  1  0.48626  0.25013  0.00000  1
 S  S3  1  0.98777  0.50000  0.78495  1
 S  S4  1  0.51374  0.75013  0.50000  1
 S  S5  1  0.51374  0.24987  0.50000  1
 S  S6  1  0.98777  0.50000  0.21505  1
 S  S7  1  0.01223  0.00000  0.28495  1
 S  S8  1  0.01223  0.00000  0.71505  1
