CIF file written using JARVIS-Tools package.
data_BaHo2O4
_symmetry_space_group_name_H-M  'P2/m'
_cell_length_a       3.18386
_cell_length_b       7.69093
_cell_length_c       6.62977
_cell_angle_alpha    54.6174
_cell_angle_beta     90
_cell_angle_gamma    90

_symmetry_Int_Tables_number  10
_chemical_formula_structural  BaHo2O4
_chemical_formula_sum  BaHo2O4
_cell_volume  132.35791755334134
_cell_formula_units_Z  1
loop_
  _symmetry_equiv_pos_site_id
 _symmetry_equiv_pos_as_xyz
 1  'x, y, z'
loop_
 _atom_site_type_symbol
 _atom_site_label
 _atom_site_symmetry_multiplicity
 _atom_site_fract_x
 _atom_site_fract_y
 _atom_site_fract_z
 _atom_site_fract_occupancy
 Ba  Ba1  1  0.25000  0.83666  0.73558  1
 Ho  Ho1  1  0.75000  0.46923  0.46959  1
 Ho  Ho2  1  0.75000  0.20409  0.00157  1
 O  O1  1  0.25000  0.17158  0.73610  1
 O  O2  1  0.25000  0.50174  0.73505  1
 O  O3  1  0.25000  0.07362  0.26302  1
 O  O4  1  0.25000  0.59969  0.20814  1
