CIF file written using JARVIS-Tools package.
data_KBeSi
_symmetry_space_group_name_H-M  'P-6m2'
_cell_length_a       3.91206
_cell_length_b       3.91206
_cell_length_c       5.36162
_cell_angle_alpha    90
_cell_angle_beta     90
_cell_angle_gamma    120

_symmetry_Int_Tables_number  187
_chemical_formula_structural  KBeSi
_chemical_formula_sum  KBeSi
_cell_volume  71.06206198254226
_cell_formula_units_Z  1
loop_
  _symmetry_equiv_pos_site_id
 _symmetry_equiv_pos_as_xyz
 1  'x, y, z'
loop_
 _atom_site_type_symbol
 _atom_site_label
 _atom_site_symmetry_multiplicity
 _atom_site_fract_x
 _atom_site_fract_y
 _atom_site_fract_z
 _atom_site_fract_occupancy
 Be  Be1  1  0.00000  0.00000  0.16668  1
 K  K1  1  0.66667  0.33333  0.66668  1
 Si  Si1  1  0.33333  0.66667  0.16664  1
