CIF file written using JARVIS-Tools package.
data_BaTi4O9
_symmetry_space_group_name_H-M  'Pmmn'
_cell_length_a       3.81607
_cell_length_b       6.35653
_cell_length_c       14.6619
_cell_angle_alpha    90
_cell_angle_beta     90
_cell_angle_gamma    90

_symmetry_Int_Tables_number  59
_chemical_formula_structural  BaTi4O9
_chemical_formula_sum  Ba2Ti8O8
_cell_volume  355.6540359632407
_cell_formula_units_Z  2
loop_
  _symmetry_equiv_pos_site_id
 _symmetry_equiv_pos_as_xyz
 1  'x, y, z'
loop_
 _atom_site_type_symbol
 _atom_site_label
 _atom_site_symmetry_multiplicity
 _atom_site_fract_x
 _atom_site_fract_y
 _atom_site_fract_z
 _atom_site_fract_occupancy
 Ba  Ba1  1  0.75000  0.71129  0.25000  1
 Ba  Ba2  1  0.25000  0.28871  0.75000  1
 O  O1  1  0.25000  0.34211  0.25000  1
 O  O2  1  0.75000  0.43996  0.59427  1
 O  O3  1  0.25000  0.56004  0.40573  1
 O  O4  1  0.75000  0.43996  0.90573  1
 O  O5  1  0.25000  0.56004  0.09427  1
 O  O6  1  0.75000  0.04477  0.65161  1
 O  O7  1  0.25000  0.95523  0.34839  1
 O  O8  1  0.75000  0.04477  0.84839  1
 O  O9  1  0.25000  0.95523  0.15161  1
 O  O10  1  0.25000  0.15078  0.51031  1
 O  O11  1  0.75000  0.84922  0.48969  1
 O  O12  1  0.75000  0.65789  0.75000  1
 O  O13  1  0.25000  0.74216  0.60022  1
 O  O14  1  0.75000  0.25784  0.39978  1
 O  O15  1  0.25000  0.74216  0.89978  1
 O  O16  1  0.75000  0.25784  0.10022  1
 O  O17  1  0.25000  0.15078  0.98969  1
 O  O18  1  0.75000  0.84922  0.01031  1
 Ti  Ti1  1  0.75000  0.74825  0.62845  1
 Ti  Ti2  1  0.25000  0.25175  0.37155  1
 Ti  Ti3  1  0.75000  0.74825  0.87155  1
 Ti  Ti4  1  0.25000  0.25175  0.12845  1
 Ti  Ti5  1  0.75000  0.19441  0.53758  1
 Ti  Ti6  1  0.25000  0.80559  0.46242  1
 Ti  Ti7  1  0.75000  0.19441  0.96242  1
 Ti  Ti8  1  0.25000  0.80559  0.03758  1
