CIF file written using JARVIS-Tools package.
data_Mg6GaNi
_symmetry_space_group_name_H-M  'Amm2'
_cell_length_a       6.02833
_cell_length_b       6.02833
_cell_length_c       4.80869
_cell_angle_alpha    90
_cell_angle_beta     90
_cell_angle_gamma    119.058

_symmetry_Int_Tables_number  38
_chemical_formula_structural  Mg6GaNi
_chemical_formula_sum  Mg6GaNi
_cell_volume  152.755098827938
_cell_formula_units_Z  1
loop_
  _symmetry_equiv_pos_site_id
 _symmetry_equiv_pos_as_xyz
 1  'x, y, z'
loop_
 _atom_site_type_symbol
 _atom_site_label
 _atom_site_symmetry_multiplicity
 _atom_site_fract_x
 _atom_site_fract_y
 _atom_site_fract_z
 _atom_site_fract_occupancy
 Ga  Ga1  1  0.33587  0.16413  0.75000  1
 Mg  Mg1  1  0.16409  0.84500  0.25000  1
 Mg  Mg2  1  0.65500  0.33591  0.25000  1
 Mg  Mg3  1  0.66262  0.83738  0.25000  1
 Mg  Mg4  1  0.32946  0.63869  0.75000  1
 Mg  Mg5  1  0.86131  0.17054  0.75000  1
 Mg  Mg6  1  0.83603  0.66397  0.75000  1
 Ni  Ni1  1  0.15562  0.34438  0.25000  1
