CIF file written using JARVIS-Tools package.
data_ScBe2Pb
_symmetry_space_group_name_H-M  'P4/mmm'
_cell_length_a       3.49875
_cell_length_b       3.49875
_cell_length_c       5.92406
_cell_angle_alpha    90
_cell_angle_beta     90
_cell_angle_gamma    90

_symmetry_Int_Tables_number  123
_chemical_formula_structural  ScBe2Pb
_chemical_formula_sum  ScBe2Pb
_cell_volume  72.51789038484407
_cell_formula_units_Z  1
loop_
  _symmetry_equiv_pos_site_id
 _symmetry_equiv_pos_as_xyz
 1  'x, y, z'
loop_
 _atom_site_type_symbol
 _atom_site_label
 _atom_site_symmetry_multiplicity
 _atom_site_fract_x
 _atom_site_fract_y
 _atom_site_fract_z
 _atom_site_fract_occupancy
 Be  Be1  1  0.00000  0.00000  0.69016  1
 Be  Be2  1  0.00000  0.00000  0.30984  1
 Pb  Pb1  1  0.50000  0.50000  0.00000  1
 Sc  Sc1  1  0.50000  0.50000  0.50000  1
