CIF file written using JARVIS-Tools package.
data_Mg3Bi
_symmetry_space_group_name_H-M  'Imm2'
_cell_length_a       3.46374
_cell_length_b       10.6005
_cell_length_c       5.49262
_cell_angle_alpha    90
_cell_angle_beta     90
_cell_angle_gamma    90

_symmetry_Int_Tables_number  44
_chemical_formula_structural  Mg3Bi
_chemical_formula_sum  Mg6Bi2
_cell_volume  201.67546606811223
_cell_formula_units_Z  2
loop_
  _symmetry_equiv_pos_site_id
 _symmetry_equiv_pos_as_xyz
 1  'x, y, z'
loop_
 _atom_site_type_symbol
 _atom_site_label
 _atom_site_symmetry_multiplicity
 _atom_site_fract_x
 _atom_site_fract_y
 _atom_site_fract_z
 _atom_site_fract_occupancy
 Bi  Bi1  1  0.50000  0.50000  0.16802  1
 Bi  Bi2  1  0.00000  0.00000  0.66802  1
 Mg  Mg1  1  0.00000  0.50000  0.66510  1
 Mg  Mg2  1  0.50000  0.74817  0.50011  1
 Mg  Mg3  1  0.00000  0.75183  0.00011  1
 Mg  Mg4  1  0.50000  0.00000  0.16510  1
 Mg  Mg5  1  0.00000  0.24817  0.00011  1
 Mg  Mg6  1  0.50000  0.25183  0.50011  1
