CIF file written using JARVIS-Tools package.
data_NaLiSO4
_symmetry_space_group_name_H-M  'P31c'
_cell_length_a       7.59643
_cell_length_b       7.59643
_cell_length_c       9.8842
_cell_angle_alpha    90
_cell_angle_beta     90
_cell_angle_gamma    120

_symmetry_Int_Tables_number  159
_chemical_formula_structural  NaLiSO4
_chemical_formula_sum  Na6Li6S6O24
_cell_volume  493.9592851956331
_cell_formula_units_Z  6
loop_
  _symmetry_equiv_pos_site_id
 _symmetry_equiv_pos_as_xyz
 1  'x, y, z'
loop_
 _atom_site_type_symbol
 _atom_site_label
 _atom_site_symmetry_multiplicity
 _atom_site_fract_x
 _atom_site_fract_y
 _atom_site_fract_z
 _atom_site_fract_occupancy
 Li  Li1  1  0.75468  0.96222  0.76137  1
 Li  Li2  1  0.96222  0.75468  0.26137  1
 Li  Li3  1  0.24532  0.20754  0.26137  1
 Li  Li4  1  0.79246  0.03778  0.26137  1
 Li  Li5  1  0.20754  0.24532  0.76137  1
 Li  Li6  1  0.03778  0.79246  0.76137  1
 Na  Na1  1  0.54335  0.51690  0.48920  1
 Na  Na2  1  0.02645  0.48310  0.98920  1
 Na  Na3  1  0.45665  0.97355  0.98920  1
 Na  Na4  1  0.97355  0.45665  0.48920  1
 Na  Na5  1  0.48310  0.02645  0.48920  1
 Na  Na6  1  0.51690  0.54335  0.98920  1
 O  O1  1  0.77552  0.22995  0.14322  1
 O  O2  1  0.33333  0.66667  0.84488  1
 O  O3  1  0.22995  0.77552  0.64322  1
 O  O4  1  0.22448  0.45443  0.64322  1
 O  O5  1  0.54557  0.77005  0.64322  1
 O  O6  1  0.45443  0.22448  0.14322  1
 O  O7  1  0.11330  0.90078  0.95204  1
 O  O8  1  0.21252  0.09922  0.45204  1
 O  O9  1  0.90078  0.11330  0.45204  1
 O  O10  1  0.88670  0.78748  0.45204  1
 O  O11  1  0.33333  0.66667  0.11371  1
 O  O12  1  0.66667  0.33333  0.34488  1
 O  O13  1  0.77005  0.54557  0.14322  1
 O  O14  1  0.00000  0.00000  0.65514  1
 O  O15  1  0.68714  0.16113  0.81472  1
 O  O16  1  0.52601  0.83887  0.31472  1
 O  O17  1  0.16113  0.68714  0.31472  1
 O  O18  1  0.31286  0.47399  0.31472  1
 O  O19  1  0.83887  0.52601  0.81472  1
 O  O20  1  0.66667  0.33333  0.61371  1
 O  O21  1  0.47399  0.31286  0.81472  1
 O  O22  1  0.78748  0.88670  0.95204  1
 O  O23  1  0.00000  0.00000  0.15514  1
 O  O24  1  0.09922  0.21252  0.95204  1
 S  S1  1  0.66667  0.33333  0.76336  1
 S  S2  1  0.33333  0.66667  0.26336  1
 S  S3  1  0.00000  0.00000  0.00185  1
 S  S4  1  0.33333  0.66667  0.69542  1
 S  S5  1  0.66667  0.33333  0.19542  1
 S  S6  1  0.00000  0.00000  0.50185  1
