CIF file written using JARVIS-Tools package.
data_Cu2GeS3
_symmetry_space_group_name_H-M  'Imm2'
_cell_length_a       3.81478
_cell_length_b       5.30302
_cell_length_c       6.48782
_cell_angle_alpha    114.123
_cell_angle_beta     107.097
_cell_angle_gamma    90

_symmetry_Int_Tables_number  44
_chemical_formula_structural  Cu2GeS3
_chemical_formula_sum  Cu2GeS3
_cell_volume  113.40133500888803
_cell_formula_units_Z  1
loop_
  _symmetry_equiv_pos_site_id
 _symmetry_equiv_pos_as_xyz
 1  'x, y, z'
loop_
 _atom_site_type_symbol
 _atom_site_label
 _atom_site_symmetry_multiplicity
 _atom_site_fract_x
 _atom_site_fract_y
 _atom_site_fract_z
 _atom_site_fract_occupancy
 Cu  Cu1  1  0.16758  0.42914  0.33516  1
 Cu  Cu2  1  0.83242  0.09398  0.66484  1
 Ge  Ge1  1  0.50000  0.73191  0.00000  1
 S  S1  1  0.33166  0.33246  0.66332  1
 S  S2  1  0.66834  0.66914  0.33668  1
 S  S3  1  0.00000  0.00238  0.00000  1
