CIF file written using JARVIS-Tools package.
data_FeO
_symmetry_space_group_name_H-M  'C2/c'
_cell_length_a       3.03729
_cell_length_b       5.25749
_cell_length_c       5.25772
_cell_angle_alpha    80.407
_cell_angle_beta     90.0039
_cell_angle_gamma    73.2183

_symmetry_Int_Tables_number  15
_chemical_formula_structural  FeO
_chemical_formula_sum  Fe4O4
_cell_volume  79.15507283145375
_cell_formula_units_Z  4
loop_
  _symmetry_equiv_pos_site_id
 _symmetry_equiv_pos_as_xyz
 1  'x, y, z'
loop_
 _atom_site_type_symbol
 _atom_site_label
 _atom_site_symmetry_multiplicity
 _atom_site_fract_x
 _atom_site_fract_y
 _atom_site_fract_z
 _atom_site_fract_occupancy
 Fe  Fe1  1  0.49315  0.00004  0.49997  1
 Fe  Fe2  1  0.75102  0.49999  0.25000  1
 Fe  Fe3  1  0.00684  0.99999  0.00002  1
 Fe  Fe4  1  0.24898  0.49998  0.75000  1
 O  O1  1  0.87096  0.24998  0.62506  1
 O  O2  1  0.37906  0.25002  0.12503  1
 O  O3  1  0.12200  0.74998  0.37497  1
 O  O4  1  0.62799  0.75002  0.87494  1
