CIF file written using JARVIS-Tools package.
data_Ba2OsO4
_symmetry_space_group_name_H-M  'I4/mmm'
_cell_length_a       7.37712
_cell_length_b       7.37712
_cell_length_c       7.37712
_cell_angle_alpha    148.444
_cell_angle_beta     148.444
_cell_angle_gamma    45.2308

_symmetry_Int_Tables_number  139
_chemical_formula_structural  Ba2OsO4
_chemical_formula_sum  Ba2OsO4
_cell_volume  109.60599309371939
_cell_formula_units_Z  1
loop_
  _symmetry_equiv_pos_site_id
 _symmetry_equiv_pos_as_xyz
 1  'x, y, z'
loop_
 _atom_site_type_symbol
 _atom_site_label
 _atom_site_symmetry_multiplicity
 _atom_site_fract_x
 _atom_site_fract_y
 _atom_site_fract_z
 _atom_site_fract_occupancy
 Ba  Ba1  1  0.64702  0.64702  0.00000  1
 Ba  Ba2  1  0.35298  0.35298  0.00000  1
 O  O1  1  0.84476  0.84476  -0.00000  1
 O  O2  1  0.15524  0.15524  0.00000  1
 O  O3  1  0.50000  -0.00000  0.50000  1
 O  O4  1  0.00000  0.50000  0.50000  1
 Os  Os1  1  0.00000  0.00000  0.00000  1
