CIF file written using JARVIS-Tools package.
data_Li5Cu3Sb2O10
_symmetry_space_group_name_H-M  'P-1'
_cell_length_a       5.25223
_cell_length_b       5.54597
_cell_length_c       7.8415
_cell_angle_alpha    102.14
_cell_angle_beta     104.88
_cell_angle_gamma    104.705

_symmetry_Int_Tables_number  2
_chemical_formula_structural  Li5Cu3Sb2O10
_chemical_formula_sum  Li5Cu3Sb2O0
_cell_volume  204.0396253965732
_cell_formula_units_Z  1
loop_
  _symmetry_equiv_pos_site_id
 _symmetry_equiv_pos_as_xyz
 1  'x, y, z'
loop_
 _atom_site_type_symbol
 _atom_site_label
 _atom_site_symmetry_multiplicity
 _atom_site_fract_x
 _atom_site_fract_y
 _atom_site_fract_z
 _atom_site_fract_occupancy
 Cu  Cu1  1  -0.00000  0.50000  0.00000  1
 Cu  Cu2  1  0.71143  0.88621  0.90124  1
 Cu  Cu3  1  0.28857  0.11379  0.09876  1
 Li  Li1  1  0.22691  0.88450  0.37720  1
 Li  Li2  1  0.41152  0.30358  0.80644  1
 Li  Li3  1  0.50000  0.50000  0.50000  1
 Li  Li4  1  0.58848  0.69642  0.19356  1
 Li  Li5  1  0.77309  0.11550  0.62280  1
 O  O1  1  0.78539  0.47581  0.75001  1
 O  O2  1  0.54918  0.11541  0.34407  1
 O  O3  1  0.45082  0.88459  0.65593  1
 O  O4  1  0.21461  0.52419  0.24999  1
 O  O5  1  0.14215  0.34236  0.55549  1
 O  O6  1  0.93845  0.97164  0.17550  1
 O  O7  1  0.06155  0.02836  0.82450  1
 O  O8  1  0.64876  0.33771  0.06972  1
 O  O9  1  0.85785  0.65764  0.44451  1
 O  O10  1  0.35124  0.66229  0.93028  1
 Sb  Sb1  1  0.88955  0.30321  0.30078  1
 Sb  Sb2  1  0.11045  0.69679  0.69922  1
