CIF file written using JARVIS-Tools package.
data_CaH2CClO3
_symmetry_space_group_name_H-M  'C2/m'
_cell_length_a       6.38711
_cell_length_b       6.13815
_cell_length_c       6.38711
_cell_angle_alpha    112.942
_cell_angle_beta     109.9
_cell_angle_gamma    107.252

_symmetry_Int_Tables_number  12
_chemical_formula_structural  CaH2CClO3
_chemical_formula_sum  Ca2H4C2Cl2O6
_cell_volume  188.3124877447195
_cell_formula_units_Z  2
loop_
  _symmetry_equiv_pos_site_id
 _symmetry_equiv_pos_as_xyz
 1  'x, y, z'
loop_
 _atom_site_type_symbol
 _atom_site_label
 _atom_site_symmetry_multiplicity
 _atom_site_fract_x
 _atom_site_fract_y
 _atom_site_fract_z
 _atom_site_fract_occupancy
 C  C1  1  0.39418  0.50000  0.89418  1
 C  C2  1  0.60582  0.50000  0.10582  1
 Ca  Ca1  1  0.86398  0.11391  0.24993  1
 Ca  Ca2  1  0.13602  0.88609  0.75007  1
 Cl  Cl1  1  0.23745  0.59215  0.35470  1
 Cl  Cl2  1  0.76255  0.40785  0.64530  1
 H  H1  1  0.81613  0.15424  0.78669  1
 H  H2  1  0.63246  0.84576  0.66189  1
 H  H3  1  0.18387  0.84576  0.21331  1
 H  H4  1  0.36754  0.15424  0.33811  1
 O  O1  1  0.42803  0.73028  0.93567  1
 O  O2  1  0.20539  0.26972  0.69775  1
 O  O3  1  0.57197  0.26972  0.06433  1
 O  O4  1  0.79461  0.73028  0.30225  1
 O  O5  1  0.80783  0.00000  0.80783  1
 O  O6  1  0.19217  -0.00000  0.19217  1
