CIF file written using JARVIS-Tools package.
data_Rb2VAgS4
_symmetry_space_group_name_H-M  'Fddd'
_cell_length_a       5.80234
_cell_length_b       7.26276
_cell_length_c       11.8593
_cell_angle_alpha    84.3921
_cell_angle_beta     75.8399
_cell_angle_gamma    66.4557

_symmetry_Int_Tables_number  70
_chemical_formula_structural  Rb2VAgS4
_chemical_formula_sum  Rb4V2Ag2S8
_cell_volume  444.2356424313793
_cell_formula_units_Z  2
loop_
  _symmetry_equiv_pos_site_id
 _symmetry_equiv_pos_as_xyz
 1  'x, y, z'
loop_
 _atom_site_type_symbol
 _atom_site_label
 _atom_site_symmetry_multiplicity
 _atom_site_fract_x
 _atom_site_fract_y
 _atom_site_fract_z
 _atom_site_fract_occupancy
 Ag  Ag1  1  0.12500  0.75000  0.75000  1
 Ag  Ag2  1  0.87500  0.25000  0.25000  1
 Rb  Rb1  1  0.44413  0.75000  0.11173  1
 Rb  Rb2  1  0.19413  0.25000  0.61173  1
 Rb  Rb3  1  0.80587  0.75000  0.38827  1
 Rb  Rb4  1  0.55587  0.25000  0.88827  1
 S  S1  1  0.87176  0.55337  0.86230  1
 S  S2  1  0.26594  0.94663  0.86230  1
 S  S3  1  0.57487  0.55337  0.63770  1
 S  S4  1  0.78743  0.94663  0.63770  1
 S  S5  1  0.42513  0.44663  0.36230  1
 S  S6  1  0.21257  0.05337  0.36230  1
 S  S7  1  0.73406  0.05337  0.13770  1
 S  S8  1  0.12824  0.44663  0.13770  1
 V  V1  1  0.62500  0.75000  0.75000  1
 V  V2  1  0.37500  0.25000  0.25000  1
