CIF file written using JARVIS-Tools package.
data_LiTiO2
_symmetry_space_group_name_H-M  'P6_3/mmc'
_cell_length_a       2.86804
_cell_length_b       2.86811
_cell_length_c       10.1247
_cell_angle_alpha    89.9999
_cell_angle_beta     89.9988
_cell_angle_gamma    120

_symmetry_Int_Tables_number  194
_chemical_formula_structural  LiTiO2
_chemical_formula_sum  Li2Ti2O4
_cell_volume  72.12679276600122
_cell_formula_units_Z  2
loop_
  _symmetry_equiv_pos_site_id
 _symmetry_equiv_pos_as_xyz
 1  'x, y, z'
loop_
 _atom_site_type_symbol
 _atom_site_label
 _atom_site_symmetry_multiplicity
 _atom_site_fract_x
 _atom_site_fract_y
 _atom_site_fract_z
 _atom_site_fract_occupancy
 Li  Li1  1  0.00015  0.99952  0.00004  1
 Li  Li2  1  0.00016  0.99948  0.50005  1
 O  O1  1  0.66661  0.33264  0.12837  1
 O  O2  1  0.66661  0.33264  0.37172  1
 O  O3  1  0.33369  0.66643  0.87172  1
 O  O4  1  0.33368  0.66643  0.62837  1
 Ti  Ti1  1  0.66703  0.33312  0.75005  1
 Ti  Ti2  1  0.33326  0.66595  0.25005  1
