CIF file written using JARVIS-Tools package.
data_Li2CrP2O7
_symmetry_space_group_name_H-M  'P2_1'
_cell_length_a       5.19681
_cell_length_b       7.17928
_cell_length_c       8.32245
_cell_angle_alpha    89.9996
_cell_angle_beta     89.9996
_cell_angle_gamma    62.6742

_symmetry_Int_Tables_number  4
_chemical_formula_structural  Li2CrP2O7
_chemical_formula_sum  Li4Cr2P4O4
_cell_volume  275.8561066579961
_cell_formula_units_Z  2
loop_
  _symmetry_equiv_pos_site_id
 _symmetry_equiv_pos_as_xyz
 1  'x, y, z'
loop_
 _atom_site_type_symbol
 _atom_site_label
 _atom_site_symmetry_multiplicity
 _atom_site_fract_x
 _atom_site_fract_y
 _atom_site_fract_z
 _atom_site_fract_occupancy
 Cr  Cr1  1  0.51040  0.28893  0.00158  1
 Cr  Cr2  1  0.48959  0.71107  0.50158  1
 Li  Li1  1  0.22646  0.05974  0.15086  1
 Li  Li2  1  0.49431  0.31771  0.37108  1
 Li  Li3  1  0.50569  0.68229  0.87108  1
 Li  Li4  1  0.77354  0.94026  0.65087  1
 O  O1  1  0.78020  0.14816  0.81454  1
 O  O2  1  0.19296  0.89482  0.66222  1
 O  O3  1  0.30396  0.00357  0.92916  1
 O  O4  1  0.14267  0.25393  0.68996  1
 O  O5  1  0.20911  0.35300  0.18642  1
 O  O6  1  0.80704  0.10518  0.16221  1
 O  O7  1  0.27810  0.49247  0.54141  1
 O  O8  1  0.72189  0.50753  0.04142  1
 O  O9  1  0.85733  0.74607  0.18997  1
 O  O10  1  0.79089  0.64700  0.68642  1
 O  O11  1  0.25011  0.51504  0.84879  1
 O  O12  1  0.69604  0.99643  0.42917  1
 O  O13  1  0.74989  0.48496  0.34880  1
 O  O14  1  0.21980  0.85184  0.31454  1
 P  P1  1  0.89709  0.92580  0.28442  1
 P  P2  1  0.88174  0.51359  0.19148  1
 P  P3  1  0.11826  0.48642  0.69148  1
 P  P4  1  0.10291  0.07420  0.78442  1
