CIF file written using JARVIS-Tools package.
data_Mg6VB
_symmetry_space_group_name_H-M  'Amm2'
_cell_length_a       6.91329
_cell_length_b       6.91329
_cell_length_c       3.32174
_cell_angle_alpha    90
_cell_angle_beta     90
_cell_angle_gamma    95.5046

_symmetry_Int_Tables_number  38
_chemical_formula_structural  Mg6VB
_chemical_formula_sum  Mg6VB
_cell_volume  158.02565158320255
_cell_formula_units_Z  1
loop_
  _symmetry_equiv_pos_site_id
 _symmetry_equiv_pos_as_xyz
 1  'x, y, z'
loop_
 _atom_site_type_symbol
 _atom_site_label
 _atom_site_symmetry_multiplicity
 _atom_site_fract_x
 _atom_site_fract_y
 _atom_site_fract_z
 _atom_site_fract_occupancy
 B  B1  1  0.26396  0.23604  0.75000  1
 Mg  Mg1  1  0.21664  0.95522  0.25000  1
 Mg  Mg2  1  0.54478  0.28336  0.25000  1
 Mg  Mg3  1  0.66078  0.83922  0.25000  1
 Mg  Mg4  1  0.36906  0.60867  0.75000  1
 Mg  Mg5  1  0.89133  0.13094  0.75000  1
 Mg  Mg6  1  0.90832  0.59168  0.75000  1
 V  V1  1  0.14512  0.35488  0.25000  1
