CIF file written using JARVIS-Tools package.
data_CoO2
_symmetry_space_group_name_H-M  'P-3m1'
_cell_length_a       2.82383
_cell_length_b       8.82299
_cell_length_c       2.82379
_cell_angle_alpha    108.698
_cell_angle_beta     60.0084
_cell_angle_gamma    99.2242

_symmetry_Int_Tables_number  164
_chemical_formula_structural  CoO2
_chemical_formula_sum  Co2O4
_cell_volume  57.71714419382188
_cell_formula_units_Z  2
loop_
  _symmetry_equiv_pos_site_id
 _symmetry_equiv_pos_as_xyz
 1  'x, y, z'
loop_
 _atom_site_type_symbol
 _atom_site_label
 _atom_site_symmetry_multiplicity
 _atom_site_fract_x
 _atom_site_fract_y
 _atom_site_fract_z
 _atom_site_fract_occupancy
 Co  Co1  1  0.00036  0.00333  0.00277  1
 Co  Co2  1  0.00032  0.50333  0.50255  1
 O  O1  1  0.66696  0.39257  0.05827  1
 O  O2  1  0.66700  0.89257  0.55849  1
 O  O3  1  0.33370  0.11410  0.44708  1
 O  O4  1  0.33367  0.61410  0.94684  1
