CIF file written using JARVIS-Tools package.
data_Mg6CoW
_symmetry_space_group_name_H-M  'Amm2'
_cell_length_a       6.19558
_cell_length_b       6.19558
_cell_length_c       4.62306
_cell_angle_alpha    90
_cell_angle_beta     90
_cell_angle_gamma    123.934

_symmetry_Int_Tables_number  38
_chemical_formula_structural  Mg6CoW
_chemical_formula_sum  Mg6CoW
_cell_volume  147.23234727618396
_cell_formula_units_Z  1
loop_
  _symmetry_equiv_pos_site_id
 _symmetry_equiv_pos_as_xyz
 1  'x, y, z'
loop_
 _atom_site_type_symbol
 _atom_site_label
 _atom_site_symmetry_multiplicity
 _atom_site_fract_x
 _atom_site_fract_y
 _atom_site_fract_z
 _atom_site_fract_occupancy
 Co  Co1  1  0.20381  0.29619  0.25000  1
 Mg  Mg1  1  0.17928  0.84557  0.25000  1
 Mg  Mg2  1  0.65443  0.32072  0.25000  1
 Mg  Mg3  1  0.67454  0.82546  0.25000  1
 Mg  Mg4  1  0.32096  0.66687  0.75000  1
 Mg  Mg5  1  0.83313  0.17904  0.75000  1
 Mg  Mg6  1  0.82926  0.67074  0.75000  1
 W  W1  1  0.30460  0.19540  0.75000  1
