CIF file written using JARVIS-Tools package.
data_ReN2
_symmetry_space_group_name_H-M  'C2/m'
_cell_length_a       2.84769
_cell_length_b       3.7049
_cell_length_c       5.77087
_cell_angle_alpha    95.607
_cell_angle_beta     90
_cell_angle_gamma    112.601

_symmetry_Int_Tables_number  12
_chemical_formula_structural  ReN2
_chemical_formula_sum  Re2N4
_cell_volume  55.89338946497044
_cell_formula_units_Z  2
loop_
  _symmetry_equiv_pos_site_id
 _symmetry_equiv_pos_as_xyz
 1  'x, y, z'
loop_
 _atom_site_type_symbol
 _atom_site_label
 _atom_site_symmetry_multiplicity
 _atom_site_fract_x
 _atom_site_fract_y
 _atom_site_fract_z
 _atom_site_fract_occupancy
 N  N1  1  0.37276  0.74553  0.13527  1
 N  N2  1  0.62724  0.25447  0.86473  1
 N  N3  1  0.90323  0.80646  0.52913  1
 N  N4  1  0.09677  0.19354  0.47087  1
 Re  Re1  1  0.67488  0.34976  0.23100  1
 Re  Re2  1  0.32512  0.65024  0.76900  1
