CIF file written using JARVIS-Tools package.
data_Rb2LiNbS4
_symmetry_space_group_name_H-M  'P-1'
_cell_length_a       7.04788
_cell_length_b       11.432
_cell_length_c       11.8677
_cell_angle_alpha    71.6282
_cell_angle_beta     87.3799
_cell_angle_gamma    83.0493

_symmetry_Int_Tables_number  2
_chemical_formula_structural  Rb2LiNbS4
_chemical_formula_sum  Rb8Li4Nb4S6
_cell_volume  900.7622397308363
_cell_formula_units_Z  4
loop_
  _symmetry_equiv_pos_site_id
 _symmetry_equiv_pos_as_xyz
 1  'x, y, z'
loop_
 _atom_site_type_symbol
 _atom_site_label
 _atom_site_symmetry_multiplicity
 _atom_site_fract_x
 _atom_site_fract_y
 _atom_site_fract_z
 _atom_site_fract_occupancy
 Li  Li1  1  0.21635  0.51940  0.92861  1
 Li  Li2  1  0.82892  0.99056  0.58561  1
 Li  Li3  1  0.78365  0.48060  0.07139  1
 Li  Li4  1  0.17108  0.00944  0.41439  1
 Nb  Nb1  1  0.78842  0.77080  0.98680  1
 Nb  Nb2  1  0.21158  0.22920  0.01320  1
 Nb  Nb3  1  0.22323  0.72532  0.51406  1
 Nb  Nb4  1  0.77677  0.27468  0.48594  1
 Rb  Rb1  1  0.26548  0.37198  0.27811  1
 Rb  Rb2  1  0.32453  0.90170  0.74818  1
 Rb  Rb3  1  0.67547  0.09830  0.25182  1
 Rb  Rb4  1  0.25050  0.84380  0.14367  1
 Rb  Rb5  1  0.75175  0.65155  0.34811  1
 Rb  Rb6  1  0.74950  0.15620  0.85633  1
 Rb  Rb7  1  0.73452  0.62802  0.72189  1
 Rb  Rb8  1  0.24825  0.34845  0.65189  1
 S  S1  1  0.46630  0.33826  0.00609  1
 S  S2  1  0.75967  0.38073  0.28670  1
 S  S3  1  0.25310  0.59557  0.40063  1
 S  S4  1  0.74690  0.40443  0.59937  1
 S  S5  1  0.93888  0.85344  0.46783  1
 S  S6  1  0.24033  0.61927  0.71330  1
 S  S7  1  0.04153  0.62368  0.06447  1
 S  S8  1  0.95847  0.37632  0.93553  1
 S  S9  1  0.53370  0.66174  0.99391  1
 S  S10  1  0.06112  0.14656  0.53217  1
 S  S11  1  0.16058  0.11565  0.20698  1
 S  S12  1  0.45479  0.85681  0.46529  1
 S  S13  1  0.26610  0.10109  0.89837  1
 S  S14  1  0.54521  0.14319  0.53471  1
 S  S15  1  0.73390  0.89891  0.10163  1
 S  S16  1  0.83942  0.88435  0.79302  1
