CIF file written using JARVIS-Tools package.
data_Nd2Bi
_symmetry_space_group_name_H-M  'I4/mmm'
_cell_length_a       4.61615
_cell_length_b       4.61615
_cell_length_c       9.63369
_cell_angle_alpha    103.862
_cell_angle_beta     103.862
_cell_angle_gamma    90

_symmetry_Int_Tables_number  139
_chemical_formula_structural  Nd2Bi
_chemical_formula_sum  Nd4Bi2
_cell_volume  193.14026394093364
_cell_formula_units_Z  2
loop_
  _symmetry_equiv_pos_site_id
 _symmetry_equiv_pos_as_xyz
 1  'x, y, z'
loop_
 _atom_site_type_symbol
 _atom_site_label
 _atom_site_symmetry_multiplicity
 _atom_site_fract_x
 _atom_site_fract_y
 _atom_site_fract_z
 _atom_site_fract_occupancy
 Bi  Bi1  1  0.63926  0.63926  0.27852  1
 Bi  Bi2  1  0.36074  0.36074  0.72148  1
 Nd  Nd1  1  0.50000  0.00000  0.00000  1
 Nd  Nd2  1  0.00000  0.50000  0.00000  1
 Nd  Nd3  1  0.82089  0.82089  0.64178  1
 Nd  Nd4  1  0.17911  0.17911  0.35822  1
