CIF file written using JARVIS-Tools package.
data_K3Sb7S3O9
_symmetry_space_group_name_H-M  'P6_3'
_cell_length_a       14.4736
_cell_length_b       14.4736
_cell_length_c       5.67282
_cell_angle_alpha    90
_cell_angle_beta     90
_cell_angle_gamma    120

_symmetry_Int_Tables_number  173
_chemical_formula_structural  K3Sb7S3O9
_chemical_formula_sum  K6Sb4S6O8
_cell_volume  1029.161713943928
_cell_formula_units_Z  2
loop_
  _symmetry_equiv_pos_site_id
 _symmetry_equiv_pos_as_xyz
 1  'x, y, z'
loop_
 _atom_site_type_symbol
 _atom_site_label
 _atom_site_symmetry_multiplicity
 _atom_site_fract_x
 _atom_site_fract_y
 _atom_site_fract_z
 _atom_site_fract_occupancy
 K  K1  1  0.70800  0.89758  0.64014  1
 K  K2  1  0.18958  0.29200  0.64014  1
 K  K3  1  0.29200  0.10242  0.14014  1
 K  K4  1  0.89758  0.18958  0.14014  1
 K  K5  1  0.81042  0.70800  0.14014  1
 K  K6  1  0.10242  0.81042  0.64014  1
 O  O1  1  0.71219  0.06476  0.89030  1
 O  O2  1  0.22689  0.34990  0.12615  1
 O  O3  1  0.70378  0.06305  0.38889  1
 O  O4  1  0.12301  0.77311  0.12615  1
 O  O5  1  0.77311  0.65010  0.62615  1
 O  O6  1  0.06476  0.35257  0.39030  1
 O  O7  1  0.35257  0.28781  0.89030  1
 O  O8  1  0.64743  0.71219  0.39030  1
 O  O9  1  0.64073  0.70378  0.88889  1
 O  O10  1  0.93695  0.64073  0.38889  1
 O  O11  1  0.65010  0.87699  0.12615  1
 O  O12  1  0.34990  0.12301  0.62615  1
 O  O13  1  0.06305  0.35927  0.88889  1
 O  O14  1  0.87699  0.22689  0.62615  1
 O  O15  1  0.35927  0.29622  0.38889  1
 O  O16  1  0.93524  0.64743  0.89030  1
 O  O17  1  0.29622  0.93695  0.88889  1
 O  O18  1  0.28781  0.93524  0.39030  1
 S  S1  1  0.46586  0.83576  0.57176  1
 S  S2  1  0.53414  0.16424  0.07176  1
 S  S3  1  0.16424  0.63011  0.57176  1
 S  S4  1  0.83576  0.36989  0.07176  1
 S  S5  1  0.63011  0.46586  0.07176  1
 S  S6  1  0.36989  0.53414  0.57176  1
 Sb  Sb1  1  0.28098  0.83281  0.14599  1
 Sb  Sb2  1  0.55183  0.71902  0.14599  1
 Sb  Sb3  1  0.83281  0.55183  0.64600  1
 Sb  Sb4  1  0.59697  0.98403  0.13383  1
 Sb  Sb5  1  0.01597  0.61294  0.13383  1
 Sb  Sb6  1  0.38706  0.40303  0.13383  1
 Sb  Sb7  1  0.98403  0.38706  0.63383  1
 Sb  Sb8  1  0.61294  0.59697  0.63383  1
 Sb  Sb9  1  0.44817  0.28098  0.64600  1
 Sb  Sb10  1  0.16719  0.44817  0.14599  1
 Sb  Sb11  1  0.71902  0.16719  0.64600  1
 Sb  Sb12  1  0.66667  0.33333  0.25191  1
 Sb  Sb13  1  0.33333  0.66667  0.75191  1
 Sb  Sb14  1  0.40303  0.01597  0.63383  1
