CIF file written using JARVIS-Tools package.
data_Li3SbP2O8
_symmetry_space_group_name_H-M  'C2'
_cell_length_a       5.14638
_cell_length_b       5.14691
_cell_length_c       6.24509
_cell_angle_alpha    88.3672
_cell_angle_beta     88.3496
_cell_angle_gamma    67.3588

_symmetry_Int_Tables_number  5
_chemical_formula_structural  Li3SbP2O8
_chemical_formula_sum  Li3SbP2O8
_cell_volume  152.58050519282745
_cell_formula_units_Z  1
loop_
  _symmetry_equiv_pos_site_id
 _symmetry_equiv_pos_as_xyz
 1  'x, y, z'
loop_
 _atom_site_type_symbol
 _atom_site_label
 _atom_site_symmetry_multiplicity
 _atom_site_fract_x
 _atom_site_fract_y
 _atom_site_fract_z
 _atom_site_fract_occupancy
 Li  Li1  1  0.35079  0.82100  0.29576  1
 Li  Li2  1  0.96922  0.53228  0.50091  1
 Li  Li3  1  0.68096  0.15031  0.70623  1
 O  O1  1  0.74995  0.27861  0.41781  1
 O  O2  1  0.74200  0.21647  0.01500  1
 O  O3  1  0.68257  0.75026  0.73100  1
 O  O4  1  0.25185  0.18671  0.75031  1
 O  O5  1  0.75100  0.81904  0.27096  1
 O  O6  1  0.31465  0.24989  0.25175  1
 O  O7  1  0.28499  0.75951  0.98701  1
 O  O8  1  0.22280  0.75164  0.58420  1
 P  P1  1  0.35591  0.85376  0.76085  1
 P  P2  1  0.64766  0.14565  0.24116  1
 Sb  Sb1  1  0.01171  0.48978  0.00097  1
