CIF file written using JARVIS-Tools package.
data_Mg6NbMo
_symmetry_space_group_name_H-M  'Amm2'
_cell_length_a       6.25169
_cell_length_b       6.25169
_cell_length_c       4.80328
_cell_angle_alpha    90
_cell_angle_beta     90
_cell_angle_gamma    122.58

_symmetry_Int_Tables_number  38
_chemical_formula_structural  Mg6NbMo
_chemical_formula_sum  Mg6NbMo
_cell_volume  158.18927690192322
_cell_formula_units_Z  1
loop_
  _symmetry_equiv_pos_site_id
 _symmetry_equiv_pos_as_xyz
 1  'x, y, z'
loop_
 _atom_site_type_symbol
 _atom_site_label
 _atom_site_symmetry_multiplicity
 _atom_site_fract_x
 _atom_site_fract_y
 _atom_site_fract_z
 _atom_site_fract_occupancy
 Mg  Mg1  1  0.18347  0.83279  0.25000  1
 Mg  Mg2  1  0.66721  0.31653  0.25000  1
 Mg  Mg3  1  0.66972  0.83028  0.25000  1
 Mg  Mg4  1  0.31822  0.66740  0.75000  1
 Mg  Mg5  1  0.83260  0.18178  0.75000  1
 Mg  Mg6  1  0.82821  0.67179  0.75000  1
 Mo  Mo1  1  0.30946  0.19054  0.75000  1
 Nb  Nb1  1  0.19112  0.30888  0.25000  1
