CIF file written using JARVIS-Tools package.
data_CuMoS4N
_symmetry_space_group_name_H-M  'I-4'
_cell_length_a       5.45765
_cell_length_b       6.07666
_cell_length_c       6.07666
_cell_angle_alpha    78.366
_cell_angle_beta     63.3163
_cell_angle_gamma    63.3163

_symmetry_Int_Tables_number  82
_chemical_formula_structural  CuMoS4N
_chemical_formula_sum  CuMoS4N
_cell_volume  160.88824886278493
_cell_formula_units_Z  1
loop_
  _symmetry_equiv_pos_site_id
 _symmetry_equiv_pos_as_xyz
 1  'x, y, z'
loop_
 _atom_site_type_symbol
 _atom_site_label
 _atom_site_symmetry_multiplicity
 _atom_site_fract_x
 _atom_site_fract_y
 _atom_site_fract_z
 _atom_site_fract_occupancy
 Cu  Cu1  1  0.50000  0.00000  0.00000  1
 Mo  Mo1  1  0.00000  0.00000  0.00000  1
 N  N1  1  0.25000  0.50000  0.50000  1
 S  S1  1  0.64287  0.31973  0.91794  1
 S  S2  1  0.88055  0.68027  0.08206  1
 S  S3  1  0.03739  0.08206  0.31973  1
 S  S4  1  0.43918  0.91794  0.68027  1
