CIF file written using JARVIS-Tools package.
data_BaMg6Co
_symmetry_space_group_name_H-M  'Amm2'
_cell_length_a       8.17362
_cell_length_b       8.17362
_cell_length_c       4.46034
_cell_angle_alpha    90
_cell_angle_beta     90
_cell_angle_gamma    135.615

_symmetry_Int_Tables_number  38
_chemical_formula_structural  BaMg6Co
_chemical_formula_sum  BaMg6Co
_cell_volume  208.43466197205095
_cell_formula_units_Z  1
loop_
  _symmetry_equiv_pos_site_id
 _symmetry_equiv_pos_as_xyz
 1  'x, y, z'
loop_
 _atom_site_type_symbol
 _atom_site_label
 _atom_site_symmetry_multiplicity
 _atom_site_fract_x
 _atom_site_fract_y
 _atom_site_fract_z
 _atom_site_fract_occupancy
 Ba  Ba1  1  0.27585  0.22415  0.75000  1
 Co  Co1  1  0.10238  0.39762  0.25000  1
 Mg  Mg1  1  0.21009  0.79666  0.25000  1
 Mg  Mg2  1  0.70334  0.28991  0.25000  1
 Mg  Mg3  1  0.68138  0.81862  0.25000  1
 Mg  Mg4  1  0.31757  0.66127  0.75000  1
 Mg  Mg5  1  0.83873  0.18243  0.75000  1
 Mg  Mg6  1  0.87065  0.62935  0.75000  1
