CIF file written using JARVIS-Tools package.
data_Ca2CuO3
_symmetry_space_group_name_H-M  'Immm'
_cell_length_a       3.2549
_cell_length_b       3.8132
_cell_length_c       6.58828
_cell_angle_alpha    106.822
_cell_angle_beta     104.301
_cell_angle_gamma    89.9999

_symmetry_Int_Tables_number  71
_chemical_formula_structural  Ca2CuO3
_chemical_formula_sum  Ca2CuO3
_cell_volume  75.62077069465228
_cell_formula_units_Z  1
loop_
  _symmetry_equiv_pos_site_id
 _symmetry_equiv_pos_as_xyz
 1  'x, y, z'
loop_
 _atom_site_type_symbol
 _atom_site_label
 _atom_site_symmetry_multiplicity
 _atom_site_fract_x
 _atom_site_fract_y
 _atom_site_fract_z
 _atom_site_fract_occupancy
 Ca  Ca1  1  0.35066  0.85066  0.70133  1
 Ca  Ca2  1  0.64934  0.14934  0.29867  1
 Cu  Cu1  1  -0.00000  0.50000  0.00000  1
 O  O1  1  0.00000  0.00000  0.00000  1
 O  O2  1  0.83907  0.33907  0.67814  1
 O  O3  1  0.16093  0.66093  0.32186  1
