CIF file written using JARVIS-Tools package.
data_BaGe2P2
_symmetry_space_group_name_H-M  'P4_2mc'
_cell_length_a       7.71445
_cell_length_b       7.71445
_cell_length_c       8.59895
_cell_angle_alpha    90
_cell_angle_beta     90
_cell_angle_gamma    90

_symmetry_Int_Tables_number  105
_chemical_formula_structural  BaGe2P2
_chemical_formula_sum  Ba4Ge8P8
_cell_volume  511.7476412541125
_cell_formula_units_Z  4
loop_
  _symmetry_equiv_pos_site_id
 _symmetry_equiv_pos_as_xyz
 1  'x, y, z'
loop_
 _atom_site_type_symbol
 _atom_site_label
 _atom_site_symmetry_multiplicity
 _atom_site_fract_x
 _atom_site_fract_y
 _atom_site_fract_z
 _atom_site_fract_occupancy
 Ba  Ba1  1  0.00000  0.00000  0.99802  1
 Ba  Ba2  1  0.50000  0.00000  0.02685  1
 Ba  Ba3  1  0.00000  0.50000  0.52685  1
 Ba  Ba4  1  0.00000  0.00000  0.49802  1
 Ge  Ge1  1  0.50000  0.16640  0.61514  1
 Ge  Ge2  1  0.83360  0.50000  0.11514  1
 Ge  Ge3  1  0.50000  0.83360  0.61514  1
 Ge  Ge4  1  0.16640  0.50000  0.11514  1
 Ge  Ge5  1  0.33137  0.50000  0.86556  1
 Ge  Ge6  1  0.66863  0.50000  0.86556  1
 Ge  Ge7  1  0.50000  0.66863  0.36556  1
 Ge  Ge8  1  0.50000  0.33137  0.36556  1
 P  P1  1  0.75278  0.76708  0.75653  1
 P  P2  1  0.24722  0.76708  0.75653  1
 P  P3  1  0.76708  0.75278  0.25653  1
 P  P4  1  0.23292  0.24722  0.25653  1
 P  P5  1  0.75278  0.23292  0.75653  1
 P  P6  1  0.76708  0.24722  0.25653  1
 P  P7  1  0.23292  0.75278  0.25653  1
 P  P8  1  0.24722  0.23292  0.75653  1
