CIF file written using JARVIS-Tools package.
data_RbTaP2O8
_symmetry_space_group_name_H-M  'C2/m'
_cell_length_a       5.05712
_cell_length_b       5.05711
_cell_length_c       8.3089
_cell_angle_alpha    86.665
_cell_angle_beta     86.665
_cell_angle_gamma    62.928

_symmetry_Int_Tables_number  12
_chemical_formula_structural  RbTaP2O8
_chemical_formula_sum  RbTaP2O8
_cell_volume  188.77270917608578
_cell_formula_units_Z  1
loop_
  _symmetry_equiv_pos_site_id
 _symmetry_equiv_pos_as_xyz
 1  'x, y, z'
loop_
 _atom_site_type_symbol
 _atom_site_label
 _atom_site_symmetry_multiplicity
 _atom_site_fract_x
 _atom_site_fract_y
 _atom_site_fract_z
 _atom_site_fract_occupancy
 O  O1  1  0.31921  0.31921  0.12295  1
 O  O2  1  0.77668  0.30369  0.66306  1
 O  O3  1  0.22332  0.69631  0.33694  1
 O  O4  1  0.30369  0.77668  0.66306  1
 O  O5  1  0.69631  0.22332  0.33694  1
 O  O6  1  0.68079  0.68079  0.87705  1
 O  O7  1  0.21853  0.21853  0.42109  1
 O  O8  1  0.78147  0.78147  0.57891  1
 P  P1  1  0.63888  0.63888  0.70677  1
 P  P2  1  0.36112  0.36112  0.29323  1
 Rb  Rb1  1  0.00000  0.00000  0.00000  1
 Ta  Ta1  1  0.00000  0.00000  0.50000  1
