CIF file written using JARVIS-Tools package.
data_V2NiSe4
_symmetry_space_group_name_H-M  'C2/m'
_cell_length_a       3.40278
_cell_length_b       6.17607
_cell_length_c       6.70982
_cell_angle_alpha    115.862
_cell_angle_beta     104.689
_cell_angle_gamma    90

_symmetry_Int_Tables_number  12
_chemical_formula_structural  V2NiSe4
_chemical_formula_sum  V2NiSe4
_cell_volume  121.74747908784055
_cell_formula_units_Z  1
loop_
  _symmetry_equiv_pos_site_id
 _symmetry_equiv_pos_as_xyz
 1  'x, y, z'
loop_
 _atom_site_type_symbol
 _atom_site_label
 _atom_site_symmetry_multiplicity
 _atom_site_fract_x
 _atom_site_fract_y
 _atom_site_fract_z
 _atom_site_fract_occupancy
 Ni  Ni1  1  0.00000  0.00000  0.00000  1
 Se  Se1  1  0.63862  0.97727  0.27724  1
 Se  Se2  1  0.10543  0.44710  0.21087  1
 Se  Se3  1  0.36138  0.02273  0.72276  1
 Se  Se4  1  0.89457  0.55290  0.78913  1
 V  V1  1  0.74525  0.68814  0.49051  1
 V  V2  1  0.25475  0.31186  0.50949  1
