CIF file written using JARVIS-Tools package.
data_NaSn2Cl5
_symmetry_space_group_name_H-M  'Pnnm'
_cell_length_a       8.17751
_cell_length_b       8.54384
_cell_length_c       12.0753
_cell_angle_alpha    90
_cell_angle_beta     90
_cell_angle_gamma    90

_symmetry_Int_Tables_number  58
_chemical_formula_structural  NaSn2Cl5
_chemical_formula_sum  Na4Sn8Cl20
_cell_volume  843.6681589973691
_cell_formula_units_Z  4
loop_
  _symmetry_equiv_pos_site_id
 _symmetry_equiv_pos_as_xyz
 1  'x, y, z'
loop_
 _atom_site_type_symbol
 _atom_site_label
 _atom_site_symmetry_multiplicity
 _atom_site_fract_x
 _atom_site_fract_y
 _atom_site_fract_z
 _atom_site_fract_occupancy
 Cl  Cl1  1  0.32936  0.77125  0.79696  1
 Cl  Cl2  1  0.16395  0.50000  0.60120  1
 Cl  Cl3  1  0.50000  0.71647  0.50000  1
 Cl  Cl4  1  0.00000  0.78353  0.00000  1
 Cl  Cl5  1  0.18273  0.00000  0.57365  1
 Cl  Cl6  1  0.00000  0.21647  0.00000  1
 Cl  Cl7  1  0.83605  0.50000  0.39880  1
 Cl  Cl8  1  0.33605  0.00000  0.10120  1
 Cl  Cl9  1  0.17064  0.72875  0.29696  1
 Cl  Cl10  1  0.50000  0.28353  0.50000  1
 Cl  Cl11  1  0.32936  0.22875  0.79696  1
 Cl  Cl12  1  0.67064  0.22875  0.20304  1
 Cl  Cl13  1  0.82936  0.72875  0.70304  1
 Cl  Cl14  1  0.67064  0.77125  0.20304  1
 Cl  Cl15  1  0.68273  0.50000  0.92635  1
 Cl  Cl16  1  0.66395  0.00000  0.89880  1
 Cl  Cl17  1  0.81727  0.00000  0.42635  1
 Cl  Cl18  1  0.31727  0.50000  0.07365  1
 Cl  Cl19  1  0.17064  0.27125  0.29696  1
 Cl  Cl20  1  0.82936  0.27125  0.70304  1
 Na  Na1  1  0.50000  0.75194  0.00000  1
 Na  Na2  1  0.00000  0.74806  0.50000  1
 Na  Na3  1  0.50000  0.24806  0.00000  1
 Na  Na4  1  0.00000  0.25194  0.50000  1
 Sn  Sn1  1  0.96520  0.50000  0.82338  1
 Sn  Sn2  1  0.96649  0.00000  0.82823  1
 Sn  Sn3  1  0.03480  0.50000  0.17662  1
 Sn  Sn4  1  0.53480  0.00000  0.32338  1
 Sn  Sn5  1  0.03351  0.00000  0.17177  1
 Sn  Sn6  1  0.46520  0.00000  0.67662  1
 Sn  Sn7  1  0.53351  0.50000  0.32823  1
 Sn  Sn8  1  0.46649  0.50000  0.67177  1
