CIF file written using JARVIS-Tools package.
data_KMn4O8
_symmetry_space_group_name_H-M  'P1'
_cell_length_a       4.5763
_cell_length_b       5.29024
_cell_length_c       6.89452
_cell_angle_alpha    85.3829
_cell_angle_beta     81.1223
_cell_angle_gamma    67.881

_symmetry_Int_Tables_number  1
_chemical_formula_structural  KMn4O8
_chemical_formula_sum  KMn4O8
_cell_volume  152.73194639907186
_cell_formula_units_Z  1
loop_
  _symmetry_equiv_pos_site_id
 _symmetry_equiv_pos_as_xyz
 1  'x, y, z'
loop_
 _atom_site_type_symbol
 _atom_site_label
 _atom_site_symmetry_multiplicity
 _atom_site_fract_x
 _atom_site_fract_y
 _atom_site_fract_z
 _atom_site_fract_occupancy
 K  K1  1  0.86827  0.43213  0.42524  1
 Mn  Mn1  1  0.04158  0.88889  0.86501  1
 Mn  Mn2  1  0.50336  0.97459  0.67859  1
 Mn  Mn3  1  0.75294  0.40525  0.97333  1
 Mn  Mn4  1  0.47899  0.04184  0.16487  1
 O  O1  1  0.08260  0.07433  0.10167  1
 O  O2  1  0.47920  -0.02947  0.42348  1
 O  O3  1  0.46284  0.39920  0.18820  1
 O  O4  1  0.08862  0.21781  0.74690  1
 O  O5  1  0.93515  0.81505  0.63918  1
 O  O6  1  0.60128  0.12612  0.89599  1
 O  O7  1  0.84757  0.68254  0.05786  1
 O  O8  1  0.47105  0.66362  0.80823  1
