CIF file written using JARVIS-Tools package.
data_UO2F2
_symmetry_space_group_name_H-M  'C2/m'
_cell_length_a       11.2884
_cell_length_b       4.63833
_cell_length_c       5.89632
_cell_angle_alpha    124.851
_cell_angle_beta     163.185
_cell_angle_gamma    53.3473

_symmetry_Int_Tables_number  12
_chemical_formula_structural  UO2F2
_chemical_formula_sum  UO2F2
_cell_volume  71.65051085810664
_cell_formula_units_Z  1
loop_
  _symmetry_equiv_pos_site_id
 _symmetry_equiv_pos_as_xyz
 1  'x, y, z'
loop_
 _atom_site_type_symbol
 _atom_site_label
 _atom_site_symmetry_multiplicity
 _atom_site_fract_x
 _atom_site_fract_y
 _atom_site_fract_z
 _atom_site_fract_occupancy
 F  F1  1  0.12884  0.17803  1.00000  1
 F  F2  1  0.87116  0.82197  0.00000  1
 O  O1  1  0.38599  0.30389  0.00000  1
 O  O2  1  0.61401  0.69611  1.00000  1
 U  U1  1  0.00000  0.00000  0.00000  1
