CIF file written using JARVIS-Tools package.
data_EuInPt4
_symmetry_space_group_name_H-M  'F-43m'
_cell_length_a       5.42361
_cell_length_b       5.42361
_cell_length_c       5.42361
_cell_angle_alpha    60
_cell_angle_beta     60
_cell_angle_gamma    60

_symmetry_Int_Tables_number  216
_chemical_formula_structural  EuInPt4
_chemical_formula_sum  EuInPt4
_cell_volume  112.81049195042416
_cell_formula_units_Z  1
loop_
  _symmetry_equiv_pos_site_id
 _symmetry_equiv_pos_as_xyz
 1  'x, y, z'
loop_
 _atom_site_type_symbol
 _atom_site_label
 _atom_site_symmetry_multiplicity
 _atom_site_fract_x
 _atom_site_fract_y
 _atom_site_fract_z
 _atom_site_fract_occupancy
 Eu  Eu1  1  0.00000  0.00000  0.00000  1
 In  In1  1  0.75000  0.75000  0.75000  1
 Pt  Pt1  1  0.87383  0.37539  0.37539  1
 Pt  Pt2  1  0.37539  0.87383  0.37539  1
 Pt  Pt3  1  0.37539  0.37539  0.87383  1
 Pt  Pt4  1  0.37539  0.37539  0.37539  1
