CIF file written using JARVIS-Tools package.
data_ZnTe
_symmetry_space_group_name_H-M  'P6_422'
_cell_length_a       4.3348
_cell_length_b       4.3348
_cell_length_c       9.8021
_cell_angle_alpha    90
_cell_angle_beta     90
_cell_angle_gamma    120

_symmetry_Int_Tables_number  181
_chemical_formula_structural  ZnTe
_chemical_formula_sum  Zn3Te3
_cell_volume  159.51025468566465
_cell_formula_units_Z  3
loop_
  _symmetry_equiv_pos_site_id
 _symmetry_equiv_pos_as_xyz
 1  'x, y, z'
loop_
 _atom_site_type_symbol
 _atom_site_label
 _atom_site_symmetry_multiplicity
 _atom_site_fract_x
 _atom_site_fract_y
 _atom_site_fract_z
 _atom_site_fract_occupancy
 Te  Te1  1  0.49985  0.49985  0.16663  1
 Te  Te2  1  0.50015  -0.00000  0.49997  1
 Te  Te3  1  -0.00000  0.50015  0.83330  1
 Zn  Zn1  1  0.49971  0.49971  0.66663  1
 Zn  Zn2  1  0.50029  -0.00000  0.99997  1
 Zn  Zn3  1  -0.00000  0.50029  0.33330  1
