CIF file written using JARVIS-Tools package.
data_Mg6CrMo
_symmetry_space_group_name_H-M  'Amm2'
_cell_length_a       6.20613
_cell_length_b       6.20613
_cell_length_c       4.64132
_cell_angle_alpha    90
_cell_angle_beta     90
_cell_angle_gamma    123.305

_symmetry_Int_Tables_number  38
_chemical_formula_structural  Mg6CrMo
_chemical_formula_sum  Mg6CrMo
_cell_volume  149.40440566149383
_cell_formula_units_Z  1
loop_
  _symmetry_equiv_pos_site_id
 _symmetry_equiv_pos_as_xyz
 1  'x, y, z'
loop_
 _atom_site_type_symbol
 _atom_site_label
 _atom_site_symmetry_multiplicity
 _atom_site_fract_x
 _atom_site_fract_y
 _atom_site_fract_z
 _atom_site_fract_occupancy
 Cr  Cr1  1  0.19615  0.30385  0.25000  1
 Mg  Mg1  1  0.18197  0.84032  0.25000  1
 Mg  Mg2  1  0.65968  0.31803  0.25000  1
 Mg  Mg3  1  0.67147  0.82853  0.25000  1
 Mg  Mg4  1  0.31707  0.66203  0.75000  1
 Mg  Mg5  1  0.83797  0.18293  0.75000  1
 Mg  Mg6  1  0.82962  0.67038  0.75000  1
 Mo  Mo1  1  0.30607  0.19393  0.75000  1
