CIF file written using JARVIS-Tools package.
data_CaGa2As2
_symmetry_space_group_name_H-M  'R-3m'
_cell_length_a       4.0263
_cell_length_b       4.0263
_cell_length_c       8.65824
_cell_angle_alpha    76.5549
_cell_angle_beta     76.5549
_cell_angle_gamma    60

_symmetry_Int_Tables_number  166
_chemical_formula_structural  CaGa2As2
_chemical_formula_sum  CaGa2As2
_cell_volume  117.09210666512384
_cell_formula_units_Z  1
loop_
  _symmetry_equiv_pos_site_id
 _symmetry_equiv_pos_as_xyz
 1  'x, y, z'
loop_
 _atom_site_type_symbol
 _atom_site_label
 _atom_site_symmetry_multiplicity
 _atom_site_fract_x
 _atom_site_fract_y
 _atom_site_fract_z
 _atom_site_fract_occupancy
 As  As1  1  0.25744  0.25744  0.22768  1
 As  As2  1  0.74256  0.74256  0.77232  1
 Ca  Ca1  1  0.00000  0.00000  0.00000  1
 Ga  Ga1  1  0.45096  0.45096  0.64712  1
 Ga  Ga2  1  0.54904  0.54904  0.35288  1
