CIF file written using JARVIS-Tools package.
data_CeMg6C
_symmetry_space_group_name_H-M  'Pm'
_cell_length_a       6.89166
_cell_length_b       6.17695
_cell_length_c       4.49885
_cell_angle_alpha    90
_cell_angle_beta     90
_cell_angle_gamma    99.0946

_symmetry_Int_Tables_number  6
_chemical_formula_structural  CeMg6C
_chemical_formula_sum  CeMg6C
_cell_volume  189.10566384849423
_cell_formula_units_Z  1
loop_
  _symmetry_equiv_pos_site_id
 _symmetry_equiv_pos_as_xyz
 1  'x, y, z'
loop_
 _atom_site_type_symbol
 _atom_site_label
 _atom_site_symmetry_multiplicity
 _atom_site_fract_x
 _atom_site_fract_y
 _atom_site_fract_z
 _atom_site_fract_occupancy
 C  C1  1  0.33263  0.10653  0.25000  1
 Ce  Ce1  1  0.12579  0.34044  0.25000  1
 Mg  Mg1  1  0.60945  0.35035  0.25000  1
 Mg  Mg2  1  0.54688  0.86561  0.25000  1
 Mg  Mg3  1  0.26924  0.02011  0.75000  1
 Mg  Mg4  1  0.42422  0.57185  0.75000  1
 Mg  Mg5  1  0.80852  0.10833  0.75000  1
 Mg  Mg6  1  0.88327  0.63679  0.75000  1
