CIF file written using JARVIS-Tools package.
data_Li6FeO5F
_symmetry_space_group_name_H-M  'P1'
_cell_length_a       5.45358
_cell_length_b       5.54068
_cell_length_c       5.52473
_cell_angle_alpha    61.4047
_cell_angle_beta     61.9473
_cell_angle_gamma    60.3016

_symmetry_Int_Tables_number  1
_chemical_formula_structural  Li6FeO5F
_chemical_formula_sum  Li6FeO5F
_cell_volume  121.22656832074978
_cell_formula_units_Z  1
loop_
  _symmetry_equiv_pos_site_id
 _symmetry_equiv_pos_as_xyz
 1  'x, y, z'
loop_
 _atom_site_type_symbol
 _atom_site_label
 _atom_site_symmetry_multiplicity
 _atom_site_fract_x
 _atom_site_fract_y
 _atom_site_fract_z
 _atom_site_fract_occupancy
 F  F1  1  0.77822  0.12927  0.38541  1
 Fe  Fe1  1  0.03610  0.98757  0.96165  1
 Li  Li1  1  0.69221  0.46553  0.05534  1
 Li  Li2  1  0.51179  0.08603  0.74871  1
 Li  Li3  1  0.91400  0.30635  0.50838  1
 Li  Li4  1  0.07755  0.70601  0.47223  1
 Li  Li5  1  0.51825  0.91464  0.26758  1
 Li  Li6  1  0.25652  0.48751  0.92584  1
 O  O1  1  0.35942  0.80863  0.08929  1
 O  O2  1  0.92378  0.66735  0.21184  1
 O  O3  1  0.20951  0.88869  0.64762  1
 O  O4  1  0.10149  0.34110  0.78995  1
 O  O5  1  0.65616  0.21170  0.91861  1
