CIF file written using JARVIS-Tools package.
data_BeCd2Si
_symmetry_space_group_name_H-M  'P4/mmm'
_cell_length_a       5.22565
_cell_length_b       5.22565
_cell_length_c       2.73048
_cell_angle_alpha    90
_cell_angle_beta     90
_cell_angle_gamma    90

_symmetry_Int_Tables_number  123
_chemical_formula_structural  BeCd2Si
_chemical_formula_sum  BeCd2Si
_cell_volume  74.56243192613091
_cell_formula_units_Z  1
loop_
  _symmetry_equiv_pos_site_id
 _symmetry_equiv_pos_as_xyz
 1  'x, y, z'
loop_
 _atom_site_type_symbol
 _atom_site_label
 _atom_site_symmetry_multiplicity
 _atom_site_fract_x
 _atom_site_fract_y
 _atom_site_fract_z
 _atom_site_fract_occupancy
 Be  Be1  1  0.00000  0.00000  0.50000  1
 Cd  Cd1  1  0.50000  0.00000  0.00000  1
 Cd  Cd2  1  0.00000  0.50000  0.00000  1
 Si  Si1  1  0.50000  0.50000  0.50000  1
