CIF file written using JARVIS-Tools package.
data_MnInF3
_symmetry_space_group_name_H-M  'Cm'
_cell_length_a       4.25903
_cell_length_b       4.25891
_cell_length_c       4.25933
_cell_angle_alpha    89.9994
_cell_angle_beta     89.9831
_cell_angle_gamma    89.9955

_symmetry_Int_Tables_number  8
_chemical_formula_structural  MnInF3
_chemical_formula_sum  MnInF3
_cell_volume  77.25915480783331
_cell_formula_units_Z  1
loop_
  _symmetry_equiv_pos_site_id
 _symmetry_equiv_pos_as_xyz
 1  'x, y, z'
loop_
 _atom_site_type_symbol
 _atom_site_label
 _atom_site_symmetry_multiplicity
 _atom_site_fract_x
 _atom_site_fract_y
 _atom_site_fract_z
 _atom_site_fract_occupancy
 F  F1  1  0.48441  0.00001  0.50300  1
 F  F2  1  0.98797  0.50237  0.50294  1
 F  F3  1  0.48439  0.50239  0.99803  1
 In  In1  1  0.99402  0.99603  0.98969  1
 Mn  Mn1  1  0.48921  0.49919  0.49634  1
