CIF file written using JARVIS-Tools package.
data_Ti3Se4
_symmetry_space_group_name_H-M  'C2/m'
_cell_length_a       3.55374
_cell_length_b       6.43837
_cell_length_c       7.03678
_cell_angle_alpha    116.576
_cell_angle_beta     104.626
_cell_angle_gamma    90

_symmetry_Int_Tables_number  12
_chemical_formula_structural  Ti3Se4
_chemical_formula_sum  Ti3Se4
_cell_volume  138.13339986735872
_cell_formula_units_Z  1
loop_
  _symmetry_equiv_pos_site_id
 _symmetry_equiv_pos_as_xyz
 1  'x, y, z'
loop_
 _atom_site_type_symbol
 _atom_site_label
 _atom_site_symmetry_multiplicity
 _atom_site_fract_x
 _atom_site_fract_y
 _atom_site_fract_z
 _atom_site_fract_occupancy
 Se  Se1  1  0.63272  0.96418  0.26544  1
 Se  Se2  1  0.36728  0.03582  0.73456  1
 Se  Se3  1  0.88812  0.55037  0.77623  1
 Se  Se4  1  0.11188  0.44963  0.22377  1
 Ti  Ti1  1  0.00000  0.00000  0.00000  1
 Ti  Ti2  1  0.74824  0.70819  0.49647  1
 Ti  Ti3  1  0.25176  0.29181  0.50353  1
