CIF file written using JARVIS-Tools package.
data_Ce2Ni7P4
_symmetry_space_group_name_H-M  'Pmn2_1'
_cell_length_a       3.78343
_cell_length_b       9.15555
_cell_length_c       10.3687
_cell_angle_alpha    90
_cell_angle_beta     90
_cell_angle_gamma    90

_symmetry_Int_Tables_number  31
_chemical_formula_structural  Ce2Ni7P4
_chemical_formula_sum  Ce4Ni4P8
_cell_volume  359.1664542469219
_cell_formula_units_Z  2
loop_
  _symmetry_equiv_pos_site_id
 _symmetry_equiv_pos_as_xyz
 1  'x, y, z'
loop_
 _atom_site_type_symbol
 _atom_site_label
 _atom_site_symmetry_multiplicity
 _atom_site_fract_x
 _atom_site_fract_y
 _atom_site_fract_z
 _atom_site_fract_occupancy
 Ce  Ce1  1  0.00000  0.05986  0.00189  1
 Ce  Ce2  1  0.50000  0.94014  0.50189  1
 Ce  Ce3  1  0.00000  0.44120  0.77826  1
 Ce  Ce4  1  0.50000  0.55880  0.27826  1
 Ni  Ni1  1  0.00000  0.44099  0.47452  1
 Ni  Ni2  1  0.00000  0.07837  0.31197  1
 Ni  Ni3  1  0.50000  0.92163  0.81197  1
 Ni  Ni4  1  0.00000  0.19194  0.56482  1
 Ni  Ni5  1  0.50000  0.80806  0.06482  1
 Ni  Ni6  1  0.50000  0.59980  0.57772  1
 Ni  Ni7  1  0.00000  0.40020  0.07772  1
 Ni  Ni8  1  0.50000  0.55901  0.97452  1
 Ni  Ni9  1  0.50000  0.24426  0.39877  1
 Ni  Ni10  1  0.00000  0.77973  0.66650  1
 Ni  Ni11  1  0.50000  0.22027  0.16650  1
 Ni  Ni12  1  0.00000  0.81322  0.26626  1
 Ni  Ni13  1  0.50000  0.18678  0.76626  1
 Ni  Ni14  1  0.00000  0.75574  0.89877  1
 P  P1  1  0.50000  0.34442  0.58784  1
 P  P2  1  0.00000  0.68958  0.46487  1
 P  P3  1  0.00000  0.02860  0.71943  1
 P  P4  1  0.50000  0.97140  0.21943  1
 P  P5  1  0.00000  0.31562  0.28245  1
 P  P6  1  0.50000  0.68438  0.78245  1
 P  P7  1  0.00000  0.65558  0.08784  1
 P  P8  1  0.50000  0.31042  0.96487  1
