CIF file written using JARVIS-Tools package.
data_Mg6AlW
_symmetry_space_group_name_H-M  'Amm2'
_cell_length_a       6.15951
_cell_length_b       6.15951
_cell_length_c       4.80186
_cell_angle_alpha    90
_cell_angle_beta     90
_cell_angle_gamma    120.665

_symmetry_Int_Tables_number  38
_chemical_formula_structural  Mg6AlW
_chemical_formula_sum  Mg6AlW
_cell_volume  156.70447501542068
_cell_formula_units_Z  1
loop_
  _symmetry_equiv_pos_site_id
 _symmetry_equiv_pos_as_xyz
 1  'x, y, z'
loop_
 _atom_site_type_symbol
 _atom_site_label
 _atom_site_symmetry_multiplicity
 _atom_site_fract_x
 _atom_site_fract_y
 _atom_site_fract_z
 _atom_site_fract_occupancy
 Al  Al1  1  0.18891  0.31109  0.25000  1
 Mg  Mg1  1  0.17732  0.84756  0.25000  1
 Mg  Mg2  1  0.65244  0.32268  0.25000  1
 Mg  Mg3  1  0.66935  0.83065  0.25000  1
 Mg  Mg4  1  0.32693  0.66764  0.75000  1
 Mg  Mg5  1  0.83236  0.17307  0.75000  1
 Mg  Mg6  1  0.83121  0.66879  0.75000  1
 W  W1  1  0.32148  0.17852  0.75000  1
