CIF file written using JARVIS-Tools package.
data_Mg6TiCo
_symmetry_space_group_name_H-M  'Amm2'
_cell_length_a       6.18469
_cell_length_b       5.81193
_cell_length_c       4.80151
_cell_angle_alpha    90
_cell_angle_beta     90
_cell_angle_gamma    118.025

_symmetry_Int_Tables_number  38
_chemical_formula_structural  Mg6TiCo
_chemical_formula_sum  Mg6TiCo
_cell_volume  152.3519860566771
_cell_formula_units_Z  1
loop_
  _symmetry_equiv_pos_site_id
 _symmetry_equiv_pos_as_xyz
 1  'x, y, z'
loop_
 _atom_site_type_symbol
 _atom_site_label
 _atom_site_symmetry_multiplicity
 _atom_site_fract_x
 _atom_site_fract_y
 _atom_site_fract_z
 _atom_site_fract_occupancy
 Co  Co1  1  0.16698  0.33349  0.25000  1
 Mg  Mg1  1  0.64984  0.32634  0.25000  1
 Mg  Mg2  1  0.64984  0.82349  0.25000  1
 Mg  Mg3  1  0.33030  0.16864  0.75000  1
 Mg  Mg4  1  0.33030  0.66167  0.75000  1
 Mg  Mg5  1  0.87855  0.18927  0.75000  1
 Mg  Mg6  1  0.84694  0.67347  0.75000  1
 Ti  Ti1  1  0.14725  0.82363  0.25000  1
