CIF file written using JARVIS-Tools package.
data_Y2Co2I
_symmetry_space_group_name_H-M  'P6_3/mmc'
_cell_length_a       3.93377
_cell_length_b       3.93376
_cell_length_c       16.8494
_cell_angle_alpha    90
_cell_angle_beta     90
_cell_angle_gamma    120

_symmetry_Int_Tables_number  194
_chemical_formula_structural  Y2Co2I
_chemical_formula_sum  Y4Co4I2
_cell_volume  225.80413564286457
_cell_formula_units_Z  2
loop_
  _symmetry_equiv_pos_site_id
 _symmetry_equiv_pos_as_xyz
 1  'x, y, z'
loop_
 _atom_site_type_symbol
 _atom_site_label
 _atom_site_symmetry_multiplicity
 _atom_site_fract_x
 _atom_site_fract_y
 _atom_site_fract_z
 _atom_site_fract_occupancy
 Co  Co1  1  0.33333  0.66667  0.50198  1
 Co  Co2  1  0.66667  0.33333  0.49802  1
 Co  Co3  1  0.66667  0.33333  0.00198  1
 Co  Co4  1  0.33333  0.66667  0.99802  1
 I  I1  1  0.33333  0.66667  0.25000  1
 I  I2  1  0.66667  0.33333  0.75000  1
 Y  Y1  1  0.00000  0.00000  0.10446  1
 Y  Y2  1  0.00000  0.00000  0.89554  1
 Y  Y3  1  0.00000  0.00000  0.60446  1
 Y  Y4  1  0.00000  0.00000  0.39554  1
