CIF file written using JARVIS-Tools package.
data_MgGa2
_symmetry_space_group_name_H-M  'P6_3/mmc'
_cell_length_a       4.32633
_cell_length_b       4.32633
_cell_length_c       7.04769
_cell_angle_alpha    90
_cell_angle_beta     90
_cell_angle_gamma    120

_symmetry_Int_Tables_number  194
_chemical_formula_structural  MgGa2
_chemical_formula_sum  Mg2Ga4
_cell_volume  114.23944119061787
_cell_formula_units_Z  2
loop_
  _symmetry_equiv_pos_site_id
 _symmetry_equiv_pos_as_xyz
 1  'x, y, z'
loop_
 _atom_site_type_symbol
 _atom_site_label
 _atom_site_symmetry_multiplicity
 _atom_site_fract_x
 _atom_site_fract_y
 _atom_site_fract_z
 _atom_site_fract_occupancy
 Ga  Ga1  1  0.66667  0.33333  0.44628  1
 Ga  Ga2  1  0.33333  0.66667  0.94628  1
 Ga  Ga3  1  0.66667  0.33333  0.05372  1
 Ga  Ga4  1  0.33333  0.66667  0.55372  1
 Mg  Mg1  1  0.00000  0.00000  0.25000  1
 Mg  Mg2  1  0.00000  0.00000  0.75000  1
