CIF file written using JARVIS-Tools package.
data_ThCoSi3
_symmetry_space_group_name_H-M  'I4mm'
_cell_length_a       4.2074
_cell_length_b       4.2074
_cell_length_c       5.60833
_cell_angle_alpha    112.031
_cell_angle_beta     112.031
_cell_angle_gamma    90

_symmetry_Int_Tables_number  107
_chemical_formula_structural  ThCoSi3
_chemical_formula_sum  ThCoSi3
_cell_volume  84.15940421724983
_cell_formula_units_Z  1
loop_
  _symmetry_equiv_pos_site_id
 _symmetry_equiv_pos_as_xyz
 1  'x, y, z'
loop_
 _atom_site_type_symbol
 _atom_site_label
 _atom_site_symmetry_multiplicity
 _atom_site_fract_x
 _atom_site_fract_y
 _atom_site_fract_z
 _atom_site_fract_occupancy
 Co  Co1  1  0.66424  0.66424  0.32848  1
 Si  Si1  1  0.42421  0.42421  0.84842  1
 Si  Si2  1  0.76153  0.26153  0.52306  1
 Si  Si3  1  0.26153  0.76153  0.52306  1
 Th  Th1  1  0.00350  0.00350  0.00699  1
