CIF file written using JARVIS-Tools package.
data_BeCdGe2
_symmetry_space_group_name_H-M  'P4mm'
_cell_length_a       2.93589
_cell_length_b       2.93589
_cell_length_c       8.23996
_cell_angle_alpha    90
_cell_angle_beta     90
_cell_angle_gamma    90

_symmetry_Int_Tables_number  99
_chemical_formula_structural  BeCdGe2
_chemical_formula_sum  BeCdGe2
_cell_volume  71.02409816661216
_cell_formula_units_Z  1
loop_
  _symmetry_equiv_pos_site_id
 _symmetry_equiv_pos_as_xyz
 1  'x, y, z'
loop_
 _atom_site_type_symbol
 _atom_site_label
 _atom_site_symmetry_multiplicity
 _atom_site_fract_x
 _atom_site_fract_y
 _atom_site_fract_z
 _atom_site_fract_occupancy
 Be  Be1  1  0.00000  0.00000  0.48636  1
 Cd  Cd1  1  0.50000  0.50000  0.70957  1
 Ge  Ge1  1  0.00000  0.00000  -0.00065  1
 Ge  Ge2  1  0.50000  0.50000  0.30472  1
