CIF file written using JARVIS-Tools package.
data_CaBeCr2
_symmetry_space_group_name_H-M  'P4mm'
_cell_length_a       3.02658
_cell_length_b       3.02658
_cell_length_c       6.84763
_cell_angle_alpha    90
_cell_angle_beta     90
_cell_angle_gamma    90

_symmetry_Int_Tables_number  99
_chemical_formula_structural  CaBeCr2
_chemical_formula_sum  CaBeCr2
_cell_volume  62.72562906015378
_cell_formula_units_Z  1
loop_
  _symmetry_equiv_pos_site_id
 _symmetry_equiv_pos_as_xyz
 1  'x, y, z'
loop_
 _atom_site_type_symbol
 _atom_site_label
 _atom_site_symmetry_multiplicity
 _atom_site_fract_x
 _atom_site_fract_y
 _atom_site_fract_z
 _atom_site_fract_occupancy
 Be  Be1  1  0.00000  0.00000  0.42541  1
 Ca  Ca1  1  0.50000  0.50000  0.73792  1
 Cr  Cr1  1  0.00000  0.00000  0.08460  1
 Cr  Cr2  1  0.50000  0.50000  0.25207  1
