CIF file written using JARVIS-Tools package.
data_Sc2Be2Pd
_symmetry_space_group_name_H-M  'I4/mmm'
_cell_length_a       8.82446
_cell_length_b       8.82446
_cell_length_c       8.82446
_cell_angle_alpha    160.075
_cell_angle_beta     160.075
_cell_angle_gamma    28.3233

_symmetry_Int_Tables_number  139
_chemical_formula_structural  Sc2Be2Pd
_chemical_formula_sum  Sc2Be2Pd
_cell_volume  79.76538870731771
_cell_formula_units_Z  1
loop_
  _symmetry_equiv_pos_site_id
 _symmetry_equiv_pos_as_xyz
 1  'x, y, z'
loop_
 _atom_site_type_symbol
 _atom_site_label
 _atom_site_symmetry_multiplicity
 _atom_site_fract_x
 _atom_site_fract_y
 _atom_site_fract_z
 _atom_site_fract_occupancy
 Be  Be1  1  0.75000  0.25000  0.50000  1
 Be  Be2  1  0.25000  0.75000  0.50000  1
 Pd  Pd1  1  0.00000  0.00000  0.00000  1
 Sc  Sc1  1  0.60593  0.60593  0.00000  1
 Sc  Sc2  1  0.39407  0.39407  0.00000  1
