CIF file written using JARVIS-Tools package.
data_LiMnPO4
_symmetry_space_group_name_H-M  'Pnma'
_cell_length_a       4.74364
_cell_length_b       6.10925
_cell_length_c       10.4443
_cell_angle_alpha    90
_cell_angle_beta     90
_cell_angle_gamma    90

_symmetry_Int_Tables_number  62
_chemical_formula_structural  LiMnPO4
_chemical_formula_sum  Li4Mn4P4O6
_cell_volume  302.6750148155934
_cell_formula_units_Z  4
loop_
  _symmetry_equiv_pos_site_id
 _symmetry_equiv_pos_as_xyz
 1  'x, y, z'
loop_
 _atom_site_type_symbol
 _atom_site_label
 _atom_site_symmetry_multiplicity
 _atom_site_fract_x
 _atom_site_fract_y
 _atom_site_fract_z
 _atom_site_fract_occupancy
 Li  Li1  1  0.00000  0.00000  0.00000  1
 Li  Li2  1  0.50000  0.00000  0.50000  1
 Li  Li3  1  0.00000  0.50000  0.00000  1
 Li  Li4  1  0.50000  0.50000  0.50000  1
 Mn  Mn1  1  0.46997  0.75000  0.21899  1
 Mn  Mn2  1  0.03003  0.75000  0.71899  1
 Mn  Mn3  1  0.96997  0.25000  0.28101  1
 Mn  Mn4  1  0.53003  0.25000  0.78101  1
 O  O1  1  0.23490  0.75000  0.40616  1
 O  O2  1  0.72164  0.95218  0.83903  1
 O  O3  1  0.72164  0.54782  0.83903  1
 O  O4  1  0.77836  0.54782  0.33903  1
 O  O5  1  0.22164  0.04782  0.66097  1
 O  O6  1  0.27836  0.45218  0.16097  1
 O  O7  1  0.71375  0.75000  0.04662  1
 O  O8  1  0.26510  0.75000  0.90616  1
 O  O9  1  0.28625  0.25000  0.95338  1
 O  O10  1  0.73490  0.25000  0.09384  1
 O  O11  1  0.78625  0.75000  0.54662  1
 O  O12  1  0.22164  0.45218  0.66097  1
 O  O13  1  0.77836  0.95218  0.33903  1
 O  O14  1  0.27836  0.04782  0.16097  1
 O  O15  1  0.21375  0.25000  0.45338  1
 O  O16  1  0.76510  0.25000  0.59384  1
 P  P1  1  0.58845  0.75000  0.90908  1
 P  P2  1  0.91155  0.75000  0.40908  1
 P  P3  1  0.41155  0.25000  0.09092  1
 P  P4  1  0.08845  0.25000  0.59092  1
