CIF file written using JARVIS-Tools package.
data_Bi2SeO5
_symmetry_space_group_name_H-M  'Aem2'
_cell_length_a       5.54492
_cell_length_b       8.67507
_cell_length_c       11.3706
_cell_angle_alpha    90
_cell_angle_beta     90
_cell_angle_gamma    108.638

_symmetry_Int_Tables_number  39
_chemical_formula_structural  Bi2SeO5
_chemical_formula_sum  Bi8Se4O20
_cell_volume  518.269384358848
_cell_formula_units_Z  4
loop_
  _symmetry_equiv_pos_site_id
 _symmetry_equiv_pos_as_xyz
 1  'x, y, z'
loop_
 _atom_site_type_symbol
 _atom_site_label
 _atom_site_symmetry_multiplicity
 _atom_site_fract_x
 _atom_site_fract_y
 _atom_site_fract_z
 _atom_site_fract_occupancy
 Bi  Bi1  1  0.40325  0.82998  0.61297  1
 Bi  Bi2  1  0.90325  0.82998  0.38703  1
 Bi  Bi3  1  0.07327  0.17002  0.61297  1
 Bi  Bi4  1  0.24710  0.50000  0.87658  1
 Bi  Bi5  1  0.74710  0.50000  0.12342  1
 Bi  Bi6  1  0.76313  0.50000  0.61568  1
 Bi  Bi7  1  0.26313  0.50000  0.38432  1
 Bi  Bi8  1  0.57327  0.17002  0.38703  1
 O  O1  1  0.13881  0.50000  0.70056  1
 O  O2  1  0.63881  0.50000  0.29944  1
 O  O3  1  0.06201  0.67356  0.50633  1
 O  O4  1  0.38846  0.32644  0.49367  1
 O  O5  1  0.94073  0.31144  0.20466  1
 O  O6  1  0.88846  0.32644  0.50633  1
 O  O7  1  0.62929  0.68856  0.79534  1
 O  O8  1  0.84467  0.29719  0.92689  1
 O  O9  1  0.12929  0.68856  0.20466  1
 O  O10  1  0.56201  0.67356  0.49367  1
 O  O11  1  0.54748  0.70281  0.07311  1
 O  O12  1  0.26408  -0.00000  0.50000  1
 O  O13  1  0.16975  0.09945  0.26053  1
 O  O14  1  0.44073  0.31144  0.79534  1
 O  O15  1  0.57029  0.90055  0.26053  1
 O  O16  1  0.76408  -0.00000  0.50000  1
 O  O17  1  0.04748  0.70281  0.92689  1
 O  O18  1  0.34467  0.29719  0.07311  1
 O  O19  1  0.07029  0.90055  0.73947  1
 O  O20  1  0.66975  0.09945  0.73947  1
 Se  Se1  1  0.56614  0.17209  0.86353  1
 Se  Se2  1  0.39406  0.82791  0.13647  1
 Se  Se3  1  0.06614  0.17209  0.13647  1
 Se  Se4  1  0.89406  0.82791  0.86353  1
