CIF file written using JARVIS-Tools package.
data_Ti2NbAl
_symmetry_space_group_name_H-M  'Cmcm'
_cell_length_a       5.64293
_cell_length_b       5.64293
_cell_length_c       4.67421
_cell_angle_alpha    90
_cell_angle_beta     90
_cell_angle_gamma    115.181

_symmetry_Int_Tables_number  63
_chemical_formula_structural  Ti2NbAl
_chemical_formula_sum  Ti4Nb2Al2
_cell_volume  134.69529061138414
_cell_formula_units_Z  2
loop_
  _symmetry_equiv_pos_site_id
 _symmetry_equiv_pos_as_xyz
 1  'x, y, z'
loop_
 _atom_site_type_symbol
 _atom_site_label
 _atom_site_symmetry_multiplicity
 _atom_site_fract_x
 _atom_site_fract_y
 _atom_site_fract_z
 _atom_site_fract_occupancy
 Al  Al1  1  0.83732  0.16268  0.75000  1
 Al  Al2  1  0.16268  0.83732  0.25000  1
 Nb  Nb1  1  0.36158  0.63842  0.75000  1
 Nb  Nb2  1  0.63842  0.36158  0.25000  1
 Ti  Ti1  1  0.86099  0.66529  0.75000  1
 Ti  Ti2  1  0.66529  0.86099  0.25000  1
 Ti  Ti3  1  0.13901  0.33471  0.25000  1
 Ti  Ti4  1  0.33471  0.13901  0.75000  1
