CIF file written using JARVIS-Tools package.
data_LiCoSnO4
_symmetry_space_group_name_H-M  'Imma'
_cell_length_a       5.96901
_cell_length_b       5.96901
_cell_length_c       5.92891
_cell_angle_alpha    60.224
_cell_angle_beta     60.2241
_cell_angle_gamma    86.8496

_symmetry_Int_Tables_number  74
_chemical_formula_structural  LiCoSnO4
_chemical_formula_sum  Li2Co2Sn2O8
_cell_volume  153.90925345376982
_cell_formula_units_Z  2
loop_
  _symmetry_equiv_pos_site_id
 _symmetry_equiv_pos_as_xyz
 1  'x, y, z'
loop_
 _atom_site_type_symbol
 _atom_site_label
 _atom_site_symmetry_multiplicity
 _atom_site_fract_x
 _atom_site_fract_y
 _atom_site_fract_z
 _atom_site_fract_occupancy
 Co  Co1  1  0.00000  0.00000  0.50000  1
 Co  Co2  1  0.00000  0.00000  0.00000  1
 Li  Li1  1  -0.00000  0.50000  0.00000  1
 Li  Li2  1  0.50000  -0.00000  0.50000  1
 O  O1  1  0.80143  0.80129  0.94863  1
 O  O2  1  0.23587  0.76415  0.49141  1
 O  O3  1  0.19871  0.19857  0.55137  1
 O  O4  1  0.76415  0.23587  0.99141  1
 O  O5  1  0.23585  0.76413  0.00859  1
 O  O6  1  0.80129  0.80143  0.44863  1
 O  O7  1  0.76413  0.23585  0.50859  1
 O  O8  1  0.19857  0.19871  0.05137  1
 Sn  Sn1  1  -0.00000  0.50000  0.50000  1
 Sn  Sn2  1  0.50000  -0.00000  0.00000  1
