CIF file written using JARVIS-Tools package.
data_As2W
_symmetry_space_group_name_H-M  'C2/m'
_cell_length_a       3.38112
_cell_length_b       4.9089
_cell_length_c       7.00799
_cell_angle_alpha    78.9169
_cell_angle_beta     76.0407
_cell_angle_gamma    69.8556

_symmetry_Int_Tables_number  12
_chemical_formula_structural  As2W
_chemical_formula_sum  As4W2
_cell_volume  105.21201881293067
_cell_formula_units_Z  2
loop_
  _symmetry_equiv_pos_site_id
 _symmetry_equiv_pos_as_xyz
 1  'x, y, z'
loop_
 _atom_site_type_symbol
 _atom_site_label
 _atom_site_symmetry_multiplicity
 _atom_site_fract_x
 _atom_site_fract_y
 _atom_site_fract_z
 _atom_site_fract_occupancy
 As  As1  1  0.40410  0.30093  0.89087  1
 As  As2  1  0.59590  0.69907  0.10913  1
 As  As3  1  0.85396  0.75817  0.53391  1
 As  As4  1  0.14604  0.24183  0.46609  1
 W  W1  1  0.15172  0.89665  0.79992  1
 W  W2  1  0.84828  0.10335  0.20008  1
