CIF file written using JARVIS-Tools package.
data_Li2ZrF6
_symmetry_space_group_name_H-M  'P2_1/c'
_cell_length_a       4.92114
_cell_length_b       7.4966
_cell_length_c       10.9592
_cell_angle_alpha    106.948
_cell_angle_beta     90
_cell_angle_gamma    90

_symmetry_Int_Tables_number  14
_chemical_formula_structural  Li2ZrF6
_chemical_formula_sum  Li8Zr4F24
_cell_volume  386.74564591397507
_cell_formula_units_Z  4
loop_
  _symmetry_equiv_pos_site_id
 _symmetry_equiv_pos_as_xyz
 1  'x, y, z'
loop_
 _atom_site_type_symbol
 _atom_site_label
 _atom_site_symmetry_multiplicity
 _atom_site_fract_x
 _atom_site_fract_y
 _atom_site_fract_z
 _atom_site_fract_occupancy
 F  F1  1  0.75656  0.24894  0.65477  1
 F  F2  1  0.13949  0.75132  0.09859  1
 F  F3  1  0.63750  0.89769  0.17626  1
 F  F4  1  0.63949  0.24868  0.40141  1
 F  F5  1  0.36051  0.75132  0.59859  1
 F  F6  1  0.73149  0.60147  0.84553  1
 F  F7  1  0.23149  0.39853  0.65447  1
 F  F8  1  0.24344  0.75106  0.34523  1
 F  F9  1  0.68580  0.54508  0.07455  1
 F  F10  1  0.72946  0.95541  0.95615  1
 F  F11  1  0.22946  0.04459  0.54385  1
 F  F12  1  0.27054  0.04459  0.04385  1
 F  F13  1  0.77054  0.95541  0.45615  1
 F  F14  1  0.86250  0.89769  0.67626  1
 F  F15  1  0.36250  0.10231  0.82374  1
 F  F16  1  0.76851  0.60147  0.34553  1
 F  F17  1  0.74344  0.24894  0.15477  1
 F  F18  1  0.26851  0.39853  0.15447  1
 F  F19  1  0.25656  0.75106  0.84523  1
 F  F20  1  0.18580  0.45492  0.42545  1
 F  F21  1  0.31420  0.45492  0.92545  1
 F  F22  1  0.81420  0.54508  0.57455  1
 F  F23  1  0.13750  0.10231  0.32374  1
 F  F24  1  0.86051  0.24868  0.90141  1
 Li  Li1  1  0.53247  0.03937  0.66167  1
 Li  Li2  1  0.03247  0.96063  0.83833  1
 Li  Li3  1  0.00107  0.59101  0.19386  1
 Li  Li4  1  0.50107  0.40899  0.30614  1
 Li  Li5  1  0.99893  0.40899  0.80614  1
 Li  Li6  1  0.46753  0.96063  0.33833  1
 Li  Li7  1  0.96753  0.03937  0.16167  1
 Li  Li8  1  0.49893  0.59101  0.69386  1
 Zr  Zr1  1  0.98906  0.25447  0.50153  1
 Zr  Zr2  1  0.51094  0.25447  0.00153  1
 Zr  Zr3  1  0.01094  0.74553  0.49847  1
 Zr  Zr4  1  0.48906  0.74553  0.99847  1
