CIF file written using JARVIS-Tools package.
data_InPd5Se
_symmetry_space_group_name_H-M  'P4/mmm'
_cell_length_a       4.07065
_cell_length_b       4.07065
_cell_length_c       7.17582
_cell_angle_alpha    90
_cell_angle_beta     90
_cell_angle_gamma    90

_symmetry_Int_Tables_number  123
_chemical_formula_structural  InPd5Se
_chemical_formula_sum  InPd5Se
_cell_volume  118.9048605243254
_cell_formula_units_Z  1
loop_
  _symmetry_equiv_pos_site_id
 _symmetry_equiv_pos_as_xyz
 1  'x, y, z'
loop_
 _atom_site_type_symbol
 _atom_site_label
 _atom_site_symmetry_multiplicity
 _atom_site_fract_x
 _atom_site_fract_y
 _atom_site_fract_z
 _atom_site_fract_occupancy
 In  In1  1  0.50000  0.50000  0.00000  1
 Pd  Pd1  1  0.00000  0.00000  0.00000  1
 Pd  Pd2  1  0.50000  0.00000  0.72201  1
 Pd  Pd3  1  0.00000  0.50000  0.72201  1
 Pd  Pd4  1  0.50000  0.00000  0.27799  1
 Pd  Pd5  1  0.00000  0.50000  0.27799  1
 Se  Se1  1  0.00000  0.00000  0.50000  1
