CIF file written using JARVIS-Tools package.
data_AgPd2Pb
_symmetry_space_group_name_H-M  'Immm'
_cell_length_a       10.8579
_cell_length_b       6.13795
_cell_length_c       6.13794
_cell_angle_alpha    46.5115
_cell_angle_beta     27.8108
_cell_angle_gamma    27.8109

_symmetry_Int_Tables_number  71
_chemical_formula_structural  AgPd2Pb
_chemical_formula_sum  AgPd2Pb
_cell_volume  80.28825845449774
_cell_formula_units_Z  1
loop_
  _symmetry_equiv_pos_site_id
 _symmetry_equiv_pos_as_xyz
 1  'x, y, z'
loop_
 _atom_site_type_symbol
 _atom_site_label
 _atom_site_symmetry_multiplicity
 _atom_site_fract_x
 _atom_site_fract_y
 _atom_site_fract_z
 _atom_site_fract_occupancy
 Ag  Ag1  1  0.00000  0.00000  0.00000  1
 Pb  Pb1  1  0.50000  -0.00000  -0.00000  1
 Pd  Pd1  1  0.75156  1.00000  1.00000  1
 Pd  Pd2  1  0.24844  0.00000  0.00000  1
