CIF file written using JARVIS-Tools package.
data_Li3Mn8O4F12
_symmetry_space_group_name_H-M  'C2/m'
_cell_length_a       6.33067
_cell_length_b       10.1356
_cell_length_c       6.08586
_cell_angle_alpha    107.471
_cell_angle_beta     118.729
_cell_angle_gamma    88.4785

_symmetry_Int_Tables_number  12
_chemical_formula_structural  Li3Mn8O4F12
_chemical_formula_sum  Li3Mn8O4F2
_cell_volume  323.3817995880419
_cell_formula_units_Z  1
loop_
  _symmetry_equiv_pos_site_id
 _symmetry_equiv_pos_as_xyz
 1  'x, y, z'
loop_
 _atom_site_type_symbol
 _atom_site_label
 _atom_site_symmetry_multiplicity
 _atom_site_fract_x
 _atom_site_fract_y
 _atom_site_fract_z
 _atom_site_fract_occupancy
 F  F1  1  0.11073  0.86593  0.21051  1
 F  F2  1  0.87724  0.62113  0.74919  1
 F  F3  1  0.39646  0.62779  0.75050  1
 F  F4  1  0.39646  0.62779  0.27374  1
 F  F5  1  0.60354  0.37221  0.24950  1
 F  F6  1  0.60354  0.37221  0.72626  1
 F  F7  1  0.12276  0.37887  0.25081  1
 F  F8  1  0.11081  0.36163  0.73622  1
 F  F9  1  0.88927  0.13407  0.78949  1
 F  F10  1  0.88927  0.13407  0.23386  1
 F  F11  1  0.11073  0.86593  0.76614  1
 F  F12  1  0.88919  0.63837  0.26378  1
 Li  Li1  1  0.00000  0.00000  0.00000  1
 Li  Li2  1  0.20160  0.57824  0.38992  1
 Li  Li3  1  0.79840  0.42176  0.61008  1
 Mn  Mn1  1  0.74490  0.75316  0.00006  1
 Mn  Mn2  1  0.74490  0.75316  0.49800  1
 Mn  Mn3  1  0.24878  0.71808  0.98343  1
 Mn  Mn4  1  0.75122  0.28192  0.01657  1
 Mn  Mn5  1  0.25510  0.24684  -0.00006  1
 Mn  Mn6  1  0.25510  0.24684  0.50200  1
 Mn  Mn7  1  0.50000  0.00000  0.00000  1
 Mn  Mn8  1  0.50000  0.00000  0.50000  1
 O  O1  1  0.64187  0.88766  0.76477  1
 O  O2  1  0.41263  0.13131  0.77197  1
 O  O3  1  0.58737  0.86869  0.22803  1
 O  O4  1  0.35813  0.11234  0.23523  1
