CIF file written using JARVIS-Tools package.
data_V5Sb4
_symmetry_space_group_name_H-M  'I4/m'
_cell_length_a       3.49192
_cell_length_b       7.19984
_cell_length_c       7.19985
_cell_angle_alpha    86.6287
_cell_angle_beta     75.9659
_cell_angle_gamma    75.9659

_symmetry_Int_Tables_number  87
_chemical_formula_structural  V5Sb4
_chemical_formula_sum  V5Sb4
_cell_volume  170.36906157624156
_cell_formula_units_Z  1
loop_
  _symmetry_equiv_pos_site_id
 _symmetry_equiv_pos_as_xyz
 1  'x, y, z'
loop_
 _atom_site_type_symbol
 _atom_site_label
 _atom_site_symmetry_multiplicity
 _atom_site_fract_x
 _atom_site_fract_y
 _atom_site_fract_z
 _atom_site_fract_occupancy
 Sb  Sb1  1  0.06519  0.22343  0.64618  1
 Sb  Sb2  1  0.71137  0.35382  0.22343  1
 Sb  Sb3  1  0.28863  0.64618  0.77657  1
 Sb  Sb4  1  0.93481  0.77657  0.35382  1
 V  V1  1  0.00000  0.00000  0.00000  1
 V  V2  1  0.32007  0.06909  0.29077  1
 V  V3  1  0.61084  0.70923  0.06909  1
 V  V4  1  0.38916  0.29077  0.93091  1
 V  V5  1  0.67993  0.93091  0.70923  1
