CIF file written using JARVIS-Tools package.
data_BeF2
_symmetry_space_group_name_H-M  'I-43m'
_cell_length_a       8.34898
_cell_length_b       8.34898
_cell_length_c       8.34898
_cell_angle_alpha    90
_cell_angle_beta     90
_cell_angle_gamma    90

_symmetry_Int_Tables_number  217
_chemical_formula_structural  BeF2
_chemical_formula_sum  Be2F24
_cell_volume  581.9697499794873
_cell_formula_units_Z  12
loop_
  _symmetry_equiv_pos_site_id
 _symmetry_equiv_pos_as_xyz
 1  'x, y, z'
loop_
 _atom_site_type_symbol
 _atom_site_label
 _atom_site_symmetry_multiplicity
 _atom_site_fract_x
 _atom_site_fract_y
 _atom_site_fract_z
 _atom_site_fract_occupancy
 Be  Be1  1  0.00000  0.75000  0.50000  1
 Be  Be2  1  0.00000  0.50000  0.25000  1
 Be  Be3  1  0.25000  0.50000  0.00000  1
 Be  Be4  1  0.50000  0.00000  0.75000  1
 Be  Be5  1  0.50000  0.00000  0.25000  1
 Be  Be6  1  0.25000  0.00000  0.50000  1
 Be  Be7  1  0.50000  0.25000  0.00000  1
 Be  Be8  1  0.50000  0.75000  0.00000  1
 Be  Be9  1  0.00000  0.50000  0.75000  1
 Be  Be10  1  0.75000  0.00000  0.50000  1
 Be  Be11  1  0.75000  0.50000  0.00000  1
 Be  Be12  1  0.00000  0.25000  0.50000  1
 F  F1  1  0.85786  0.85786  0.55730  1
 F  F2  1  0.05730  0.64214  0.64214  1
 F  F3  1  0.44270  0.85786  0.14214  1
 F  F4  1  0.05730  0.35786  0.35786  1
 F  F5  1  0.85786  0.14214  0.44270  1
 F  F6  1  0.64214  0.64214  0.05730  1
 F  F7  1  0.55730  0.85786  0.85786  1
 F  F8  1  0.64214  0.94270  0.35786  1
 F  F9  1  0.35786  0.94270  0.64214  1
 F  F10  1  0.64214  0.05730  0.64214  1
 F  F11  1  0.14214  0.85786  0.44270  1
 F  F12  1  0.14214  0.44270  0.85786  1
 F  F13  1  0.44270  0.14214  0.85786  1
 F  F14  1  0.14214  0.55730  0.14214  1
 F  F15  1  0.55730  0.14214  0.14214  1
 F  F16  1  0.35786  0.05730  0.35786  1
 F  F17  1  0.14214  0.14214  0.55730  1
 F  F18  1  0.94270  0.64214  0.35786  1
 F  F19  1  0.64214  0.35786  0.94270  1
 F  F20  1  0.94270  0.35786  0.64214  1
 F  F21  1  0.35786  0.64214  0.94270  1
 F  F22  1  0.85786  0.55730  0.85786  1
 F  F23  1  0.85786  0.44270  0.14214  1
 F  F24  1  0.35786  0.35786  0.05730  1
