CIF file written using JARVIS-Tools package.
data_BaMg6B
_symmetry_space_group_name_H-M  'Amm2'
_cell_length_a       8.0481
_cell_length_b       5.94889
_cell_length_c       4.582
_cell_angle_alpha    90
_cell_angle_beta     90
_cell_angle_gamma    111.69

_symmetry_Int_Tables_number  38
_chemical_formula_structural  BaMg6B
_chemical_formula_sum  BaMg6B
_cell_volume  203.8413493161932
_cell_formula_units_Z  1
loop_
  _symmetry_equiv_pos_site_id
 _symmetry_equiv_pos_as_xyz
 1  'x, y, z'
loop_
 _atom_site_type_symbol
 _atom_site_label
 _atom_site_symmetry_multiplicity
 _atom_site_fract_x
 _atom_site_fract_y
 _atom_site_fract_z
 _atom_site_fract_occupancy
 B  B1  1  0.36718  0.93359  0.25000  1
 Ba  Ba1  1  0.08763  0.29381  0.25000  1
 Mg  Mg1  1  0.61189  0.31617  0.25000  1
 Mg  Mg2  1  0.61189  0.79572  0.25000  1
 Mg  Mg3  1  0.34503  0.15442  0.75000  1
 Mg  Mg4  1  0.34503  0.69061  0.75000  1
 Mg  Mg5  1  0.74813  0.12406  0.75000  1
 Mg  Mg6  1  0.88322  0.69161  0.75000  1
