CIF file written using JARVIS-Tools package.
data_Li3BiO3
_symmetry_space_group_name_H-M  'P2_13'
_cell_length_a       7.07485
_cell_length_b       7.07485
_cell_length_c       7.07485
_cell_angle_alpha    90
_cell_angle_beta     90
_cell_angle_gamma    90

_symmetry_Int_Tables_number  198
_chemical_formula_structural  Li3BiO3
_chemical_formula_sum  Li2Bi4O2
_cell_volume  354.12099742179015
_cell_formula_units_Z  4
loop_
  _symmetry_equiv_pos_site_id
 _symmetry_equiv_pos_as_xyz
 1  'x, y, z'
loop_
 _atom_site_type_symbol
 _atom_site_label
 _atom_site_symmetry_multiplicity
 _atom_site_fract_x
 _atom_site_fract_y
 _atom_site_fract_z
 _atom_site_fract_occupancy
 Bi  Bi1  1  0.53696  0.53696  0.53696  1
 Bi  Bi2  1  0.03696  0.96304  0.46304  1
 Bi  Bi3  1  0.46304  0.03696  0.96304  1
 Bi  Bi4  1  0.96304  0.46304  0.03696  1
 Li  Li1  1  0.02061  0.47939  0.52061  1
 Li  Li2  1  0.75676  0.75676  0.75676  1
 Li  Li3  1  0.75631  0.24369  0.74369  1
 Li  Li4  1  0.74369  0.75631  0.24369  1
 Li  Li5  1  0.97939  0.97939  0.97939  1
 Li  Li6  1  0.47939  0.52061  0.02061  1
 Li  Li7  1  0.52061  0.02061  0.47939  1
 Li  Li8  1  0.25676  0.74324  0.24324  1
 Li  Li9  1  0.25631  0.25631  0.25631  1
 Li  Li10  1  0.24369  0.74369  0.75631  1
 Li  Li11  1  0.24324  0.25676  0.74324  1
 Li  Li12  1  0.74324  0.24324  0.25676  1
 O  O1  1  0.74342  0.87744  0.50258  1
 O  O2  1  0.75658  0.12256  0.00258  1
 O  O3  1  0.62256  0.49742  0.24342  1
 O  O4  1  0.49742  0.24342  0.62256  1
 O  O5  1  0.50258  0.74342  0.87744  1
 O  O6  1  0.25658  0.37744  0.99742  1
 O  O7  1  0.24342  0.62256  0.49742  1
 O  O8  1  0.12256  0.00258  0.75658  1
 O  O9  1  0.99742  0.25658  0.37744  1
 O  O10  1  0.87744  0.50258  0.74342  1
 O  O11  1  0.37744  0.99742  0.25658  1
 O  O12  1  0.00258  0.75658  0.12256  1
