CIF file written using JARVIS-Tools package.
data_DyAlGe
_symmetry_space_group_name_H-M  'Cmcm'
_cell_length_a       4.06481
_cell_length_b       5.60784
_cell_length_c       5.76407
_cell_angle_alpha    90
_cell_angle_beta     90
_cell_angle_gamma    111.249

_symmetry_Int_Tables_number  63
_chemical_formula_structural  DyAlGe
_chemical_formula_sum  Dy2Al2Ge2
_cell_volume  122.45801344226537
_cell_formula_units_Z  2
loop_
  _symmetry_equiv_pos_site_id
 _symmetry_equiv_pos_as_xyz
 1  'x, y, z'
loop_
 _atom_site_type_symbol
 _atom_site_label
 _atom_site_symmetry_multiplicity
 _atom_site_fract_x
 _atom_site_fract_y
 _atom_site_fract_z
 _atom_site_fract_occupancy
 Al  Al1  1  0.00000  0.00000  0.50000  1
 Al  Al2  1  0.00000  0.00000  0.00000  1
 Dy  Dy1  1  0.31214  0.62427  0.25000  1
 Dy  Dy2  1  0.68786  0.37573  0.75000  1
 Ge  Ge1  1  0.60913  0.21827  0.25000  1
 Ge  Ge2  1  0.39087  0.78173  0.75000  1
