CIF file written using JARVIS-Tools package.
data_BeCr2Tc
_symmetry_space_group_name_H-M  'I4/mmm'
_cell_length_a       4.83698
_cell_length_b       4.83698
_cell_length_c       4.83698
_cell_angle_alpha    140.232
_cell_angle_beta     140.232
_cell_angle_gamma    57.5016

_symmetry_Int_Tables_number  139
_chemical_formula_structural  BeCr2Tc
_chemical_formula_sum  BeCr2Tc
_cell_volume  45.9101756740222
_cell_formula_units_Z  1
loop_
  _symmetry_equiv_pos_site_id
 _symmetry_equiv_pos_as_xyz
 1  'x, y, z'
loop_
 _atom_site_type_symbol
 _atom_site_label
 _atom_site_symmetry_multiplicity
 _atom_site_fract_x
 _atom_site_fract_y
 _atom_site_fract_z
 _atom_site_fract_occupancy
 Be  Be1  1  0.75000  0.25000  0.50000  1
 Cr  Cr1  1  0.00000  0.00000  0.00000  1
 Cr  Cr2  1  0.50000  0.50000  0.00000  1
 Tc  Tc1  1  0.25000  0.75000  0.50000  1
