CIF file written using JARVIS-Tools package.
data_DyMn2O4
_symmetry_space_group_name_H-M  'R-3m'
_cell_length_a       3.57772
_cell_length_b       3.57772
_cell_length_c       8.41312
_cell_angle_alpha    77.7236
_cell_angle_beta     77.7236
_cell_angle_gamma    59.9999

_symmetry_Int_Tables_number  166
_chemical_formula_structural  DyMn2O4
_chemical_formula_sum  DyMn2O4
_cell_volume  90.40633593387805
_cell_formula_units_Z  1
loop_
  _symmetry_equiv_pos_site_id
 _symmetry_equiv_pos_as_xyz
 1  'x, y, z'
loop_
 _atom_site_type_symbol
 _atom_site_label
 _atom_site_symmetry_multiplicity
 _atom_site_fract_x
 _atom_site_fract_y
 _atom_site_fract_z
 _atom_site_fract_occupancy
 Dy  Dy1  1  0.00000  0.00000  0.00000  1
 Mn  Mn1  1  0.21322  0.21322  0.36034  1
 Mn  Mn2  1  0.78678  0.78678  0.63966  1
 O  O1  1  0.29212  0.29212  0.12363  1
 O  O2  1  0.70788  0.70788  0.87637  1
 O  O3  1  0.12923  0.12923  0.61232  1
 O  O4  1  0.87077  0.87077  0.38768  1
