CIF file written using JARVIS-Tools package.
data_Mg6AlMo
_symmetry_space_group_name_H-M  'Amm2'
_cell_length_a       6.15649
_cell_length_b       5.88318
_cell_length_c       4.92103
_cell_angle_alpha    90
_cell_angle_beta     90
_cell_angle_gamma    118.542

_symmetry_Int_Tables_number  38
_chemical_formula_structural  Mg6AlMo
_chemical_formula_sum  Mg6AlMo
_cell_volume  156.57660375793756
_cell_formula_units_Z  1
loop_
  _symmetry_equiv_pos_site_id
 _symmetry_equiv_pos_as_xyz
 1  'x, y, z'
loop_
 _atom_site_type_symbol
 _atom_site_label
 _atom_site_symmetry_multiplicity
 _atom_site_fract_x
 _atom_site_fract_y
 _atom_site_fract_z
 _atom_site_fract_occupancy
 Al  Al1  1  0.16162  0.33081  0.25000  1
 Mg  Mg1  1  0.65685  0.32910  0.25000  1
 Mg  Mg2  1  0.65685  0.82775  0.25000  1
 Mg  Mg3  1  0.33294  0.15543  0.75000  1
 Mg  Mg4  1  0.33294  0.67751  0.75000  1
 Mg  Mg5  1  0.84859  0.17430  0.75000  1
 Mg  Mg6  1  0.85705  0.67853  0.75000  1
 Mo  Mo1  1  0.15317  0.82658  0.25000  1
