CIF file written using JARVIS-Tools package.
data_GaSe
_symmetry_space_group_name_H-M  'P6_3/mmc'
_cell_length_a       3.80542
_cell_length_b       3.80542
_cell_length_c       16.1581
_cell_angle_alpha    90
_cell_angle_beta     90
_cell_angle_gamma    120

_symmetry_Int_Tables_number  194
_chemical_formula_structural  GaSe
_chemical_formula_sum  Ga4Se4
_cell_volume  202.64049670027148
_cell_formula_units_Z  4
loop_
  _symmetry_equiv_pos_site_id
 _symmetry_equiv_pos_as_xyz
 1  'x, y, z'
loop_
 _atom_site_type_symbol
 _atom_site_label
 _atom_site_symmetry_multiplicity
 _atom_site_fract_x
 _atom_site_fract_y
 _atom_site_fract_z
 _atom_site_fract_occupancy
 Ga  Ga1  1  0.33333  0.66667  0.82598  1
 Ga  Ga2  1  0.66667  0.33333  0.32598  1
 Ga  Ga3  1  0.66667  0.33333  0.17402  1
 Ga  Ga4  1  0.33333  0.66667  0.67402  1
 Se  Se1  1  0.33333  0.66667  0.39858  1
 Se  Se2  1  0.66667  0.33333  0.89858  1
 Se  Se3  1  0.66667  0.33333  0.60142  1
 Se  Se4  1  0.33333  0.66667  0.10142  1
