CIF file written using JARVIS-Tools package.
data_NdCoO3
_symmetry_space_group_name_H-M  'Pnma'
_cell_length_a       5.40793
_cell_length_b       5.36926
_cell_length_c       7.59723
_cell_angle_alpha    90
_cell_angle_beta     90
_cell_angle_gamma    90

_symmetry_Int_Tables_number  62
_chemical_formula_structural  NdCoO3
_chemical_formula_sum  Nd4Co4O2
_cell_volume  220.5975059659897
_cell_formula_units_Z  4
loop_
  _symmetry_equiv_pos_site_id
 _symmetry_equiv_pos_as_xyz
 1  'x, y, z'
loop_
 _atom_site_type_symbol
 _atom_site_label
 _atom_site_symmetry_multiplicity
 _atom_site_fract_x
 _atom_site_fract_y
 _atom_site_fract_z
 _atom_site_fract_occupancy
 Co  Co1  1  0.00000  0.50000  0.00000  1
 Co  Co2  1  0.50000  0.00000  0.50000  1
 Co  Co3  1  0.50000  0.00000  0.00000  1
 Co  Co4  1  0.00000  0.50000  0.50000  1
 Nd  Nd1  1  0.95420  0.00911  0.75000  1
 Nd  Nd2  1  0.54580  0.50911  0.25000  1
 Nd  Nd3  1  0.04580  0.99089  0.25000  1
 Nd  Nd4  1  0.45420  0.49089  0.75000  1
 O  O1  1  0.21150  0.21083  0.95996  1
 O  O2  1  0.78850  0.78917  0.45996  1
 O  O3  1  0.28850  0.71083  0.04004  1
 O  O4  1  0.28850  0.71083  0.45996  1
 O  O5  1  0.78850  0.78917  0.04004  1
 O  O6  1  0.49004  0.07542  0.25000  1
 O  O7  1  0.71150  0.28917  0.95996  1
 O  O8  1  0.71150  0.28917  0.54004  1
 O  O9  1  0.50996  0.92458  0.75000  1
 O  O10  1  0.99004  0.42459  0.25000  1
 O  O11  1  0.21150  0.21083  0.54004  1
 O  O12  1  0.00996  0.57542  0.75000  1
