CIF file written using JARVIS-Tools package.
data_CrB
_symmetry_space_group_name_H-M  'Cmcm'
_cell_length_a       2.91313
_cell_length_b       2.93193
_cell_length_c       4.18848
_cell_angle_alpha    110.487
_cell_angle_beta     90
_cell_angle_gamma    90

_symmetry_Int_Tables_number  63
_chemical_formula_structural  CrB
_chemical_formula_sum  Cr2B2
_cell_volume  33.51144996068304
_cell_formula_units_Z  2
loop_
  _symmetry_equiv_pos_site_id
 _symmetry_equiv_pos_as_xyz
 1  'x, y, z'
loop_
 _atom_site_type_symbol
 _atom_site_label
 _atom_site_symmetry_multiplicity
 _atom_site_fract_x
 _atom_site_fract_y
 _atom_site_fract_z
 _atom_site_fract_occupancy
 B  B1  1  0.75000  0.43607  0.87214  1
 B  B2  1  0.25000  0.56393  0.12786  1
 Cr  Cr1  1  0.75000  0.14597  0.29195  1
 Cr  Cr2  1  0.25000  0.85403  0.70805  1
