CIF file written using JARVIS-Tools package.
data_K2BeGe
_symmetry_space_group_name_H-M  'P4mm'
_cell_length_a       3.50776
_cell_length_b       3.50776
_cell_length_c       9.95718
_cell_angle_alpha    90
_cell_angle_beta     90
_cell_angle_gamma    90

_symmetry_Int_Tables_number  99
_chemical_formula_structural  K2BeGe
_chemical_formula_sum  K2BeGe
_cell_volume  122.51678603323425
_cell_formula_units_Z  1
loop_
  _symmetry_equiv_pos_site_id
 _symmetry_equiv_pos_as_xyz
 1  'x, y, z'
loop_
 _atom_site_type_symbol
 _atom_site_label
 _atom_site_symmetry_multiplicity
 _atom_site_fract_x
 _atom_site_fract_y
 _atom_site_fract_z
 _atom_site_fract_occupancy
 Be  Be1  1  0.00000  0.00000  0.60540  1
 Ge  Ge1  1  0.50000  0.50000  0.65047  1
 K  K1  1  0.00000  0.00000  0.91957  1
 K  K2  1  0.50000  0.50000  0.32456  1
