CIF file written using JARVIS-Tools package.
data_Mg6FeSn
_symmetry_space_group_name_H-M  'Amm2'
_cell_length_a       6.22312
_cell_length_b       6.26119
_cell_length_c       4.88719
_cell_angle_alpha    90
_cell_angle_beta     90
_cell_angle_gamma    120.203

_symmetry_Int_Tables_number  38
_chemical_formula_structural  Mg6FeSn
_chemical_formula_sum  Mg6FeSn
_cell_volume  164.5753945526852
_cell_formula_units_Z  1
loop_
  _symmetry_equiv_pos_site_id
 _symmetry_equiv_pos_as_xyz
 1  'x, y, z'
loop_
 _atom_site_type_symbol
 _atom_site_label
 _atom_site_symmetry_multiplicity
 _atom_site_fract_x
 _atom_site_fract_y
 _atom_site_fract_z
 _atom_site_fract_occupancy
 Fe  Fe1  1  0.16599  0.33300  0.25000  1
 Mg  Mg1  1  0.66900  0.33165  0.25000  1
 Mg  Mg2  1  0.66900  0.83736  0.25000  1
 Mg  Mg3  1  0.32806  0.18059  0.75000  1
 Mg  Mg4  1  0.32806  0.64747  0.75000  1
 Mg  Mg5  1  0.84876  0.17438  0.75000  1
 Mg  Mg6  1  0.82582  0.66291  0.75000  1
 Sn  Sn1  1  0.16531  0.83265  0.25000  1
