CIF file written using JARVIS-Tools package.
data_CeHfMg6
_symmetry_space_group_name_H-M  'Amm2'
_cell_length_a       6.73722
_cell_length_b       6.07309
_cell_length_c       5.17757
_cell_angle_alpha    90
_cell_angle_beta     90
_cell_angle_gamma    116.789

_symmetry_Int_Tables_number  38
_chemical_formula_structural  CeHfMg6
_chemical_formula_sum  CeHfMg6
_cell_volume  189.10672916564414
_cell_formula_units_Z  1
loop_
  _symmetry_equiv_pos_site_id
 _symmetry_equiv_pos_as_xyz
 1  'x, y, z'
loop_
 _atom_site_type_symbol
 _atom_site_label
 _atom_site_symmetry_multiplicity
 _atom_site_fract_x
 _atom_site_fract_y
 _atom_site_fract_z
 _atom_site_fract_occupancy
 Ce  Ce1  1  0.14432  0.32216  0.25000  1
 Hf  Hf1  1  0.16758  0.83379  0.25000  1
 Mg  Mg1  1  0.65136  0.32823  0.25000  1
 Mg  Mg2  1  0.65136  0.82312  0.25000  1
 Mg  Mg3  1  0.34615  0.16975  0.75000  1
 Mg  Mg4  1  0.34615  0.67640  0.75000  1
 Mg  Mg5  1  0.82236  0.16118  0.75000  1
 Mg  Mg6  1  0.87073  0.68536  0.75000  1
