CIF file written using JARVIS-Tools package.
data_TiAl2Cr3C2
_symmetry_space_group_name_H-M  'P3m1'
_cell_length_a       2.899
_cell_length_b       2.899
_cell_length_c       12.8715
_cell_angle_alpha    90
_cell_angle_beta     90
_cell_angle_gamma    120

_symmetry_Int_Tables_number  156
_chemical_formula_structural  TiAl2Cr3C2
_chemical_formula_sum  TiAl2Cr3C2
_cell_volume  93.68165267134883
_cell_formula_units_Z  1
loop_
  _symmetry_equiv_pos_site_id
 _symmetry_equiv_pos_as_xyz
 1  'x, y, z'
loop_
 _atom_site_type_symbol
 _atom_site_label
 _atom_site_symmetry_multiplicity
 _atom_site_fract_x
 _atom_site_fract_y
 _atom_site_fract_z
 _atom_site_fract_occupancy
 Al  Al1  1  0.66667  0.33333  0.24574  1
 Al  Al2  1  0.33333  0.66667  0.76303  1
 C  C1  1  0.00000  0.00000  0.48805  1
 C  C2  1  0.00000  0.00000  0.00357  1
 Cr  Cr1  1  0.33333  0.66667  0.40798  1
 Cr  Cr2  1  0.33333  0.66667  0.08528  1
 Cr  Cr3  1  0.66667  0.33333  0.92212  1
 Ti  Ti1  1  0.66667  0.33333  0.58423  1
