CIF file written using JARVIS-Tools package.
data_MgScSe3
_symmetry_space_group_name_H-M  'C2/m'
_cell_length_a       7.1116
_cell_length_b       7.1116
_cell_length_c       6.45756
_cell_angle_alpha    73.2889
_cell_angle_beta     73.289
_cell_angle_gamma    114.131

_symmetry_Int_Tables_number  12
_chemical_formula_structural  MgScSe3
_chemical_formula_sum  Mg2Sc2Se6
_cell_volume  252.95208302756376
_cell_formula_units_Z  2
loop_
  _symmetry_equiv_pos_site_id
 _symmetry_equiv_pos_as_xyz
 1  'x, y, z'
loop_
 _atom_site_type_symbol
 _atom_site_label
 _atom_site_symmetry_multiplicity
 _atom_site_fract_x
 _atom_site_fract_y
 _atom_site_fract_z
 _atom_site_fract_occupancy
 Mg  Mg1  1  0.33029  0.66971  -0.00000  1
 Mg  Mg2  1  0.66971  0.33029  0.00000  1
 Sc  Sc1  1  0.78130  0.78130  0.23215  1
 Sc  Sc2  1  0.21870  0.21870  0.76785  1
 Se  Se1  1  0.18904  0.88562  0.21705  1
 Se  Se2  1  0.81096  0.11438  0.78295  1
 Se  Se3  1  0.11438  0.81096  0.78295  1
 Se  Se4  1  0.88562  0.18904  0.21705  1
 Se  Se5  1  0.58092  0.58092  0.70537  1
 Se  Se6  1  0.41908  0.41908  0.29463  1
