CIF file written using JARVIS-Tools package.
data_SrHg2
_symmetry_space_group_name_H-M  'Imma'
_cell_length_a       5.08432
_cell_length_b       6.37837
_cell_length_c       6.37837
_cell_angle_alpha    74.2308
_cell_angle_beta     66.5119
_cell_angle_gamma    66.5118

_symmetry_Int_Tables_number  74
_chemical_formula_structural  SrHg2
_chemical_formula_sum  Sr2Hg4
_cell_volume  172.4156282347195
_cell_formula_units_Z  2
loop_
  _symmetry_equiv_pos_site_id
 _symmetry_equiv_pos_as_xyz
 1  'x, y, z'
loop_
 _atom_site_type_symbol
 _atom_site_label
 _atom_site_symmetry_multiplicity
 _atom_site_fract_x
 _atom_site_fract_y
 _atom_site_fract_z
 _atom_site_fract_occupancy
 Hg  Hg1  1  0.83362  0.68360  0.64916  1
 Hg  Hg2  1  0.16638  0.85084  0.81640  1
 Hg  Hg3  1  0.83362  0.14916  0.18360  1
 Hg  Hg4  1  0.16638  0.31640  0.35084  1
 Sr  Sr1  1  0.48547  0.26453  0.76453  1
 Sr  Sr2  1  0.51453  0.73547  0.23547  1
