CIF file written using JARVIS-Tools package.
data_Be2GaW
_symmetry_space_group_name_H-M  'Imm2'
_cell_length_a       4.78315
_cell_length_b       4.78312
_cell_length_c       3.38765
_cell_angle_alpha    69.2602
_cell_angle_beta     69.2603
_cell_angle_gamma    41.7983

_symmetry_Int_Tables_number  44
_chemical_formula_structural  Be2GaW
_chemical_formula_sum  Be2GaW
_cell_volume  47.80205463779487
_cell_formula_units_Z  1
loop_
  _symmetry_equiv_pos_site_id
 _symmetry_equiv_pos_as_xyz
 1  'x, y, z'
loop_
 _atom_site_type_symbol
 _atom_site_label
 _atom_site_symmetry_multiplicity
 _atom_site_fract_x
 _atom_site_fract_y
 _atom_site_fract_z
 _atom_site_fract_occupancy
 Be  Be1  1  0.99689  0.99689  0.00311  1
 Be  Be2  1  0.75549  0.75552  0.74450  1
 Ga  Ga1  1  0.49952  0.49946  0.50051  1
 W  W1  1  0.24810  0.24813  0.25189  1
