CIF file written using JARVIS-Tools package.
data_ZrVF6
_symmetry_space_group_name_H-M  'Fm-3m'
_cell_length_a       5.77685
_cell_length_b       5.77686
_cell_length_c       5.77686
_cell_angle_alpha    60
_cell_angle_beta     60
_cell_angle_gamma    59.9999

_symmetry_Int_Tables_number  225
_chemical_formula_structural  ZrVF6
_chemical_formula_sum  ZrVF6
_cell_volume  136.32007685485965
_cell_formula_units_Z  1
loop_
  _symmetry_equiv_pos_site_id
 _symmetry_equiv_pos_as_xyz
 1  'x, y, z'
loop_
 _atom_site_type_symbol
 _atom_site_label
 _atom_site_symmetry_multiplicity
 _atom_site_fract_x
 _atom_site_fract_y
 _atom_site_fract_z
 _atom_site_fract_occupancy
 F  F1  1  0.75098  0.24902  0.75098  1
 F  F2  1  0.24902  0.75098  0.75098  1
 F  F3  1  0.24902  0.75098  0.24902  1
 F  F4  1  0.24902  0.24902  0.75098  1
 F  F5  1  0.75098  0.75098  0.24902  1
 F  F6  1  0.75098  0.24902  0.24902  1
 V  V1  1  0.50000  0.50000  0.50000  1
 Zr  Zr1  1  0.00000  0.00000  0.00000  1
