CIF file written using JARVIS-Tools package.
data_K2CuAs
_symmetry_space_group_name_H-M  'Cmcm'
_cell_length_a       5.87542
_cell_length_b       6.25551
_cell_length_c       6.25551
_cell_angle_alpha    105.634
_cell_angle_beta     90
_cell_angle_gamma    90

_symmetry_Int_Tables_number  63
_chemical_formula_structural  K2CuAs
_chemical_formula_sum  K4Cu2As2
_cell_volume  221.40740636599665
_cell_formula_units_Z  2
loop_
  _symmetry_equiv_pos_site_id
 _symmetry_equiv_pos_as_xyz
 1  'x, y, z'
loop_
 _atom_site_type_symbol
 _atom_site_label
 _atom_site_symmetry_multiplicity
 _atom_site_fract_x
 _atom_site_fract_y
 _atom_site_fract_z
 _atom_site_fract_occupancy
 As  As1  1  0.25000  0.25519  0.25519  1
 As  As2  1  0.75000  0.74481  0.74481  1
 Cu  Cu1  1  0.50000  0.50000  0.50000  1
 Cu  Cu2  1  0.00000  0.50000  0.50000  1
 K  K1  1  0.25000  0.02322  0.68355  1
 K  K2  1  0.75000  0.97678  0.31645  1
 K  K3  1  0.75000  0.31645  0.97678  1
 K  K4  1  0.25000  0.68355  0.02322  1
