CIF file written using JARVIS-Tools package.
data_Mg6MoW
_symmetry_space_group_name_H-M  'Amm2'
_cell_length_a       6.18342
_cell_length_b       6.18342
_cell_length_c       4.72405
_cell_angle_alpha    90
_cell_angle_beta     90
_cell_angle_gamma    122.842

_symmetry_Int_Tables_number  38
_chemical_formula_structural  Mg6MoW
_chemical_formula_sum  Mg6MoW
_cell_volume  151.75403631214635
_cell_formula_units_Z  1
loop_
  _symmetry_equiv_pos_site_id
 _symmetry_equiv_pos_as_xyz
 1  'x, y, z'
loop_
 _atom_site_type_symbol
 _atom_site_label
 _atom_site_symmetry_multiplicity
 _atom_site_fract_x
 _atom_site_fract_y
 _atom_site_fract_z
 _atom_site_fract_occupancy
 Mg  Mg1  1  0.18315  0.83527  0.25000  1
 Mg  Mg2  1  0.66473  0.31685  0.25000  1
 Mg  Mg3  1  0.67031  0.82969  0.25000  1
 Mg  Mg4  1  0.31723  0.66641  0.75000  1
 Mg  Mg5  1  0.83359  0.18277  0.75000  1
 Mg  Mg6  1  0.82990  0.67010  0.75000  1
 Mo  Mo1  1  0.19071  0.30929  0.25000  1
 W  W1  1  0.31038  0.18962  0.75000  1
