CIF file written using JARVIS-Tools package.
data_Co3B2O6
_symmetry_space_group_name_H-M  'Pnnm'
_cell_length_a       4.61819
_cell_length_b       5.41799
_cell_length_c       8.23097
_cell_angle_alpha    90
_cell_angle_beta     90
_cell_angle_gamma    90

_symmetry_Int_Tables_number  58
_chemical_formula_structural  Co3B2O6
_chemical_formula_sum  Co6B4O2
_cell_volume  205.95005338470304
_cell_formula_units_Z  2
loop_
  _symmetry_equiv_pos_site_id
 _symmetry_equiv_pos_as_xyz
 1  'x, y, z'
loop_
 _atom_site_type_symbol
 _atom_site_label
 _atom_site_symmetry_multiplicity
 _atom_site_fract_x
 _atom_site_fract_y
 _atom_site_fract_z
 _atom_site_fract_occupancy
 B  B1  1  0.03936  0.24904  0.50000  1
 B  B2  1  0.53936  0.25095  0.00000  1
 B  B3  1  0.96064  0.75096  0.50000  1
 B  B4  1  0.46064  0.74904  0.00000  1
 Co  Co1  1  0.00000  0.00000  0.00000  1
 Co  Co2  1  0.50000  0.00000  0.32443  1
 Co  Co3  1  0.00000  0.50000  0.17557  1
 Co  Co4  1  0.50000  0.00000  0.67557  1
 Co  Co5  1  0.00000  0.50000  0.82443  1
 Co  Co6  1  0.50000  0.50000  0.50000  1
 O  O1  1  0.69213  0.20524  0.85746  1
 O  O2  1  0.74935  0.18475  0.50000  1
 O  O3  1  0.69213  0.20524  0.14254  1
 O  O4  1  0.75065  0.68475  0.00000  1
 O  O5  1  0.25065  0.81525  0.50000  1
 O  O6  1  0.30787  0.79476  0.14254  1
 O  O7  1  0.80787  0.70523  0.35746  1
 O  O8  1  0.19213  0.29476  0.64254  1
 O  O9  1  0.80787  0.70523  0.64254  1
 O  O10  1  0.30787  0.79476  0.85746  1
 O  O11  1  0.19213  0.29476  0.35746  1
 O  O12  1  0.24935  0.31526  0.00000  1
