CIF file written using JARVIS-Tools package.
data_SrB2O4
_symmetry_space_group_name_H-M  'Pbcn'
_cell_length_a       4.3746
_cell_length_b       6.52268
_cell_length_c       12.1217
_cell_angle_alpha    90
_cell_angle_beta     90
_cell_angle_gamma    90

_symmetry_Int_Tables_number  60
_chemical_formula_structural  SrB2O4
_chemical_formula_sum  Sr4B8O6
_cell_volume  345.8824385520632
_cell_formula_units_Z  4
loop_
  _symmetry_equiv_pos_site_id
 _symmetry_equiv_pos_as_xyz
 1  'x, y, z'
loop_
 _atom_site_type_symbol
 _atom_site_label
 _atom_site_symmetry_multiplicity
 _atom_site_fract_x
 _atom_site_fract_y
 _atom_site_fract_z
 _atom_site_fract_occupancy
 B  B1  1  0.66922  0.12780  0.19436  1
 B  B2  1  0.33078  0.87220  0.80564  1
 B  B3  1  0.33078  0.62780  0.19436  1
 B  B4  1  0.66922  0.37220  0.80564  1
 B  B5  1  0.16922  0.12780  0.30564  1
 B  B6  1  0.16922  0.37220  0.69436  1
 B  B7  1  0.83078  0.87220  0.69436  1
 B  B8  1  0.83078  0.62780  0.30564  1
 O  O1  1  0.64945  0.85182  0.78857  1
 O  O2  1  0.85055  0.35182  0.71143  1
 O  O3  1  0.73669  0.59651  0.40886  1
 O  O4  1  0.76331  0.40349  0.90886  1
 O  O5  1  0.76331  0.09651  0.09114  1
 O  O6  1  0.73669  0.90349  0.59114  1
 O  O7  1  0.23669  0.59651  0.09114  1
 O  O8  1  0.64945  0.64818  0.21143  1
 O  O9  1  0.14945  0.85182  0.71143  1
 O  O10  1  0.85055  0.14818  0.28857  1
 O  O11  1  0.35055  0.35182  0.78857  1
 O  O12  1  0.26331  0.09651  0.40886  1
 O  O13  1  0.26331  0.40349  0.59114  1
 O  O14  1  0.14945  0.64818  0.28857  1
 O  O15  1  0.23669  0.90349  0.90886  1
 O  O16  1  0.35055  0.14818  0.21143  1
 Sr  Sr1  1  0.76167  0.75000  0.00000  1
 Sr  Sr2  1  0.23833  0.25000  0.00000  1
 Sr  Sr3  1  0.26167  0.75000  0.50000  1
 Sr  Sr4  1  0.73833  0.25000  0.50000  1
