CIF file written using JARVIS-Tools package.
data_Zr2H3Pd
_symmetry_space_group_name_H-M  'I4/mmm'
_cell_length_a       3.24493
_cell_length_b       3.24493
_cell_length_c       6.95541
_cell_angle_alpha    103.489
_cell_angle_beta     103.489
_cell_angle_gamma    90

_symmetry_Int_Tables_number  139
_chemical_formula_structural  Zr2H3Pd
_chemical_formula_sum  Zr2H3Pd
_cell_volume  69.13753834946789
_cell_formula_units_Z  1
loop_
  _symmetry_equiv_pos_site_id
 _symmetry_equiv_pos_as_xyz
 1  'x, y, z'
loop_
 _atom_site_type_symbol
 _atom_site_label
 _atom_site_symmetry_multiplicity
 _atom_site_fract_x
 _atom_site_fract_y
 _atom_site_fract_z
 _atom_site_fract_occupancy
 H  H1  1  0.50000  0.50000  0.00000  1
 H  H2  1  0.25000  0.75000  0.50000  1
 H  H3  1  0.75000  0.25000  0.50000  1
 Pd  Pd1  1  0.00000  0.00000  0.00000  1
 Zr  Zr1  1  0.64522  0.64522  0.29043  1
 Zr  Zr2  1  0.35478  0.35478  0.70957  1
