CIF file written using JARVIS-Tools package.
data_Li3V2Cr2O8
_symmetry_space_group_name_H-M  'C2/m'
_cell_length_a       5.82897
_cell_length_b       5.85578
_cell_length_c       5.82968
_cell_angle_alpha    89.8412
_cell_angle_beta     120.609
_cell_angle_gamma    119.439

_symmetry_Int_Tables_number  12
_chemical_formula_structural  Li3V2Cr2O8
_chemical_formula_sum  Li3V2Cr2O8
_cell_volume  140.77988991184512
_cell_formula_units_Z  1
loop_
  _symmetry_equiv_pos_site_id
 _symmetry_equiv_pos_as_xyz
 1  'x, y, z'
loop_
 _atom_site_type_symbol
 _atom_site_label
 _atom_site_symmetry_multiplicity
 _atom_site_fract_x
 _atom_site_fract_y
 _atom_site_fract_z
 _atom_site_fract_occupancy
 Cr  Cr1  1  0.50000  0.50000  -0.00000  1
 Cr  Cr2  1  0.00000  0.00000  0.00000  1
 Li  Li1  1  0.50000  0.00000  -0.00000  1
 Li  Li2  1  -0.00000  -0.00000  0.50000  1
 Li  Li3  1  -0.00000  0.50000  0.50000  1
 O  O1  1  0.51567  0.73602  0.75992  1
 O  O2  1  0.48398  0.72290  0.23899  1
 O  O3  1  0.97621  0.73612  0.22034  1
 O  O4  1  0.98907  0.74638  0.75740  1
 O  O5  1  0.01093  0.25362  0.24260  1
 O  O6  1  0.02379  0.26388  0.77966  1
 O  O7  1  0.51602  0.27710  0.76101  1
 O  O8  1  0.48433  0.26398  0.24008  1
 V  V1  1  -0.00000  0.50000  -0.00000  1
 V  V2  1  0.50000  0.50000  0.50000  1
