CIF file written using JARVIS-Tools package.
data_VFe2Se4
_symmetry_space_group_name_H-M  'C2/m'
_cell_length_a       3.51383
_cell_length_b       6.26092
_cell_length_c       6.63823
_cell_angle_alpha    117.196
_cell_angle_beta     105.347
_cell_angle_gamma    90

_symmetry_Int_Tables_number  12
_chemical_formula_structural  VFe2Se4
_chemical_formula_sum  VFe2Se4
_cell_volume  124.01104539768822
_cell_formula_units_Z  1
loop_
  _symmetry_equiv_pos_site_id
 _symmetry_equiv_pos_as_xyz
 1  'x, y, z'
loop_
 _atom_site_type_symbol
 _atom_site_label
 _atom_site_symmetry_multiplicity
 _atom_site_fract_x
 _atom_site_fract_y
 _atom_site_fract_z
 _atom_site_fract_occupancy
 Fe  Fe1  1  0.74738  0.69713  0.49475  1
 Fe  Fe2  1  0.25262  0.30287  0.50525  1
 Se  Se1  1  0.63856  0.97705  0.27712  1
 Se  Se2  1  0.36144  0.02295  0.72288  1
 Se  Se3  1  0.88530  0.54111  0.77061  1
 Se  Se4  1  0.11470  0.45889  0.22939  1
 V  V1  1  0.00000  0.00000  0.00000  1
