CIF file written using JARVIS-Tools package.
data_YAgTe2
_symmetry_space_group_name_H-M  'P-42_1m'
_cell_length_a       7.09905
_cell_length_b       7.09905
_cell_length_c       4.692
_cell_angle_alpha    90
_cell_angle_beta     90
_cell_angle_gamma    90

_symmetry_Int_Tables_number  113
_chemical_formula_structural  YAgTe2
_chemical_formula_sum  Y2Ag2Te4
_cell_volume  236.4603569376291
_cell_formula_units_Z  2
loop_
  _symmetry_equiv_pos_site_id
 _symmetry_equiv_pos_as_xyz
 1  'x, y, z'
loop_
 _atom_site_type_symbol
 _atom_site_label
 _atom_site_symmetry_multiplicity
 _atom_site_fract_x
 _atom_site_fract_y
 _atom_site_fract_z
 _atom_site_fract_occupancy
 Ag  Ag1  1  0.00000  0.00000  0.00000  1
 Ag  Ag2  1  0.50000  0.50000  0.00000  1
 Te  Te1  1  0.79761  0.70239  0.29338  1
 Te  Te2  1  0.29761  0.79761  0.70662  1
 Te  Te3  1  0.70239  0.20239  0.70662  1
 Te  Te4  1  0.20239  0.29761  0.29338  1
 Y  Y1  1  0.00000  0.50000  0.80879  1
 Y  Y2  1  0.50000  0.00000  0.19121  1
