CIF file written using JARVIS-Tools package.
data_Ba2HgBi
_symmetry_space_group_name_H-M  'I4/mmm'
_cell_length_a       14.6911
_cell_length_b       10.3848
_cell_length_c       10.385
_cell_angle_alpha    33.5467
_cell_angle_beta     19.4775
_cell_angle_gamma    19.4772

_symmetry_Int_Tables_number  139
_chemical_formula_structural  Ba2HgBi
_chemical_formula_sum  Ba2HgBi
_cell_volume  152.73429398327602
_cell_formula_units_Z  1
loop_
  _symmetry_equiv_pos_site_id
 _symmetry_equiv_pos_as_xyz
 1  'x, y, z'
loop_
 _atom_site_type_symbol
 _atom_site_label
 _atom_site_symmetry_multiplicity
 _atom_site_fract_x
 _atom_site_fract_y
 _atom_site_fract_z
 _atom_site_fract_occupancy
 Ba  Ba1  1  0.74947  0.00040  0.00040  1
 Ba  Ba2  1  0.25053  -0.00040  -0.00040  1
 Bi  Bi1  1  0.49999  0.00000  0.00000  1
 Hg  Hg1  1  0.00001  -0.00001  -0.00001  1
