CIF file written using JARVIS-Tools package.
data_Ca5P3ClO12
_symmetry_space_group_name_H-M  'P6_3/m'
_cell_length_a       9.72393
_cell_length_b       9.72393
_cell_length_c       6.70457
_cell_angle_alpha    90
_cell_angle_beta     90
_cell_angle_gamma    120

_symmetry_Int_Tables_number  176
_chemical_formula_structural  Ca5P3ClO12
_chemical_formula_sum  Ca0P6Cl2O24
_cell_volume  549.0164889921379
_cell_formula_units_Z  2
loop_
  _symmetry_equiv_pos_site_id
 _symmetry_equiv_pos_as_xyz
 1  'x, y, z'
loop_
 _atom_site_type_symbol
 _atom_site_label
 _atom_site_symmetry_multiplicity
 _atom_site_fract_x
 _atom_site_fract_y
 _atom_site_fract_z
 _atom_site_fract_occupancy
 Ca  Ca1  1  0.01373  0.75333  0.75000  1
 Ca  Ca2  1  0.73960  0.98627  0.75000  1
 Ca  Ca3  1  0.66667  0.33333  0.99577  1
 Ca  Ca4  1  0.98627  0.24667  0.25000  1
 Ca  Ca5  1  0.33333  0.66667  0.49577  1
 Ca  Ca6  1  0.33333  0.66667  0.00423  1
 Ca  Ca7  1  0.24667  0.26040  0.75000  1
 Ca  Ca8  1  0.66667  0.33333  0.50423  1
 Ca  Ca9  1  0.26040  0.01373  0.25000  1
 Ca  Ca10  1  0.75333  0.73960  0.25000  1
 Cl  Cl1  1  0.00000  0.00000  0.50000  1
 Cl  Cl2  1  0.00000  0.00000  0.00000  1
 O  O1  1  0.59635  0.46672  0.25000  1
 O  O2  1  0.53328  0.12963  0.25000  1
 O  O3  1  0.12963  0.59635  0.75000  1
 O  O4  1  0.91346  0.64493  0.43588  1
 O  O5  1  0.26853  0.91346  0.56412  1
 O  O6  1  0.91346  0.64493  0.06412  1
 O  O7  1  0.34914  0.49663  0.25000  1
 O  O8  1  0.35507  0.26853  0.06412  1
 O  O9  1  0.50337  0.85251  0.25000  1
 O  O10  1  0.08654  0.35507  0.93588  1
 O  O11  1  0.64493  0.73147  0.56412  1
 O  O12  1  0.49663  0.14749  0.75000  1
 O  O13  1  0.85251  0.34914  0.75000  1
 O  O14  1  0.87037  0.40365  0.25000  1
 O  O15  1  0.73147  0.08654  0.43588  1
 O  O16  1  0.73147  0.08654  0.06412  1
 O  O17  1  0.14749  0.65086  0.25000  1
 O  O18  1  0.64493  0.73147  0.93588  1
 O  O19  1  0.08654  0.35507  0.56412  1
 O  O20  1  0.26853  0.91346  0.93588  1
 O  O21  1  0.46672  0.87037  0.75000  1
 O  O22  1  0.40365  0.53328  0.75000  1
 O  O23  1  0.35507  0.26853  0.43588  1
 O  O24  1  0.65086  0.50337  0.75000  1
 P  P1  1  0.37835  0.96749  0.75000  1
 P  P2  1  0.58915  0.62165  0.75000  1
 P  P3  1  0.03251  0.41085  0.75000  1
 P  P4  1  0.62165  0.03251  0.25000  1
 P  P5  1  0.41085  0.37835  0.25000  1
 P  P6  1  0.96749  0.58915  0.25000  1
