CIF file written using JARVIS-Tools package.
data_Ga2CuO4
_symmetry_space_group_name_H-M  'Fd-3m'
_cell_length_a       5.95564
_cell_length_b       5.9554
_cell_length_c       5.95564
_cell_angle_alpha    120.001
_cell_angle_beta     90
_cell_angle_gamma    59.9987

_symmetry_Int_Tables_number  227
_chemical_formula_structural  Ga2CuO4
_chemical_formula_sum  Ga4Cu2O8
_cell_volume  149.35987380729858
_cell_formula_units_Z  2
loop_
  _symmetry_equiv_pos_site_id
 _symmetry_equiv_pos_as_xyz
 1  'x, y, z'
loop_
 _atom_site_type_symbol
 _atom_site_label
 _atom_site_symmetry_multiplicity
 _atom_site_fract_x
 _atom_site_fract_y
 _atom_site_fract_z
 _atom_site_fract_occupancy
 Cu  Cu1  1  0.75000  0.50000  0.75000  1
 Cu  Cu2  1  0.00000  0.00000  0.00000  1
 Ga  Ga1  1  0.87500  0.75000  0.37500  1
 Ga  Ga2  1  0.37500  0.75000  0.37500  1
 Ga  Ga3  1  0.37500  0.25000  0.87500  1
 Ga  Ga4  1  0.37500  0.25000  0.37500  1
 O  O1  1  0.61348  0.77303  0.61343  1
 O  O2  1  0.61348  0.77303  0.15960  1
 O  O3  1  0.13652  0.72697  0.59040  1
 O  O4  1  0.13652  0.72697  0.13657  1
 O  O5  1  0.13657  0.27303  0.13652  1
 O  O6  1  0.59040  0.27303  0.13652  1
 O  O7  1  0.61343  0.22697  0.61348  1
 O  O8  1  0.15960  0.22697  0.61348  1
