CIF file written using JARVIS-Tools package.
data_Mg6NiW
_symmetry_space_group_name_H-M  'Amm2'
_cell_length_a       6.13858
_cell_length_b       6.13859
_cell_length_c       4.70206
_cell_angle_alpha    90
_cell_angle_beta     90
_cell_angle_gamma    123.117

_symmetry_Int_Tables_number  38
_chemical_formula_structural  Mg6NiW
_chemical_formula_sum  Mg6NiW
_cell_volume  148.40175936805988
_cell_formula_units_Z  1
loop_
  _symmetry_equiv_pos_site_id
 _symmetry_equiv_pos_as_xyz
 1  'x, y, z'
loop_
 _atom_site_type_symbol
 _atom_site_label
 _atom_site_symmetry_multiplicity
 _atom_site_fract_x
 _atom_site_fract_y
 _atom_site_fract_z
 _atom_site_fract_occupancy
 Mg  Mg1  1  0.17717  0.84696  0.25000  1
 Mg  Mg2  1  0.65304  0.32283  0.25000  1
 Mg  Mg3  1  0.67397  0.82603  0.25000  1
 Mg  Mg4  1  0.32192  0.66653  0.75000  1
 Mg  Mg5  1  0.83347  0.17808  0.75000  1
 Mg  Mg6  1  0.82972  0.67028  0.75000  1
 Ni  Ni1  1  0.19978  0.30022  0.25000  1
 W  W1  1  0.31092  0.18908  0.75000  1
