CIF file written using JARVIS-Tools package.
data_Li5Co2O6
_symmetry_space_group_name_H-M  'P1'
_cell_length_a       5.39947
_cell_length_b       5.32066
_cell_length_c       5.49279
_cell_angle_alpha    118.997
_cell_angle_beta     90.3488
_cell_angle_gamma    90.1477

_symmetry_Int_Tables_number  1
_chemical_formula_structural  Li5Co2O6
_chemical_formula_sum  Li5Co2O6
_cell_volume  138.0151538972277
_cell_formula_units_Z  1
loop_
  _symmetry_equiv_pos_site_id
 _symmetry_equiv_pos_as_xyz
 1  'x, y, z'
loop_
 _atom_site_type_symbol
 _atom_site_label
 _atom_site_symmetry_multiplicity
 _atom_site_fract_x
 _atom_site_fract_y
 _atom_site_fract_z
 _atom_site_fract_occupancy
 Co  Co1  1  0.67536  0.30039  0.49912  1
 Co  Co2  1  0.34646  0.65648  0.49522  1
 Li  Li1  1  0.83375  0.65827  0.20444  1
 Li  Li2  1  0.86343  -0.00182  0.83645  1
 Li  Li3  1  0.40825  0.26984  0.89041  1
 Li  Li4  1  0.18389  -0.00194  0.20468  1
 Li  Li5  1  0.08666  0.51915  0.81138  1
 O  O1  1  0.81420  0.02130  0.20054  1
 O  O2  1  0.76765  0.34277  0.83261  1
 O  O3  1  0.70110  0.66830  0.51995  1
 O  O4  1  0.31993  0.30559  0.52419  1
 O  O5  1  0.22387  0.60848  0.17107  1
 O  O6  1  0.21977  0.91817  0.81835  1
