CIF file written using JARVIS-Tools package.
data_NiO
_symmetry_space_group_name_H-M  'Fm-3m'
_cell_length_a       4.1653
_cell_length_b       4.1653
_cell_length_c       4.16599
_cell_angle_alpha    90.0054
_cell_angle_beta     90.0054
_cell_angle_gamma    89.9971

_symmetry_Int_Tables_number  225
_chemical_formula_structural  NiO
_chemical_formula_sum  Ni4O4
_cell_volume  72.27875998468977
_cell_formula_units_Z  4
loop_
  _symmetry_equiv_pos_site_id
 _symmetry_equiv_pos_as_xyz
 1  'x, y, z'
loop_
 _atom_site_type_symbol
 _atom_site_label
 _atom_site_symmetry_multiplicity
 _atom_site_fract_x
 _atom_site_fract_y
 _atom_site_fract_z
 _atom_site_fract_occupancy
 Ni  Ni1  1  0.50000  0.00000  0.50000  1
 Ni  Ni2  1  -0.00000  0.50000  0.50000  1
 Ni  Ni3  1  0.00000  0.00000  0.00000  1
 Ni  Ni4  1  0.50000  0.50000  0.00000  1
 O  O1  1  -0.00000  0.50000  0.00000  1
 O  O2  1  0.50000  -0.00000  0.00000  1
 O  O3  1  0.50000  0.50000  0.50000  1
 O  O4  1  -0.00000  0.00000  0.50000  1
