CIF file written using JARVIS-Tools package.
data_Ta4FeS8
_symmetry_space_group_name_H-M  'P6_3/mmc'
_cell_length_a       6.63362
_cell_length_b       6.63362
_cell_length_c       11.6997
_cell_angle_alpha    90
_cell_angle_beta     90
_cell_angle_gamma    120

_symmetry_Int_Tables_number  194
_chemical_formula_structural  Ta4FeS8
_chemical_formula_sum  Ta8Fe2S6
_cell_volume  445.8688996765191
_cell_formula_units_Z  2
loop_
  _symmetry_equiv_pos_site_id
 _symmetry_equiv_pos_as_xyz
 1  'x, y, z'
loop_
 _atom_site_type_symbol
 _atom_site_label
 _atom_site_symmetry_multiplicity
 _atom_site_fract_x
 _atom_site_fract_y
 _atom_site_fract_z
 _atom_site_fract_occupancy
 Fe  Fe1  1  0.00000  0.00000  0.00000  1
 Fe  Fe2  1  0.00000  0.00000  0.50000  1
 S  S1  1  0.83485  0.66970  0.88441  1
 S  S2  1  0.16515  0.83485  0.11559  1
 S  S3  1  0.66970  0.83485  0.38441  1
 S  S4  1  0.33333  0.66667  0.88832  1
 S  S5  1  0.83485  0.16515  0.88441  1
 S  S6  1  0.66970  0.83485  0.11559  1
 S  S7  1  0.33030  0.16515  0.88441  1
 S  S8  1  0.66667  0.33333  0.38832  1
 S  S9  1  0.83485  0.66970  0.61559  1
 S  S10  1  0.33030  0.16515  0.61559  1
 S  S11  1  0.16515  0.33030  0.38441  1
 S  S12  1  0.33333  0.66667  0.61168  1
 S  S13  1  0.66667  0.33333  0.11168  1
 S  S14  1  0.83485  0.16515  0.61559  1
 S  S15  1  0.16515  0.83485  0.38441  1
 S  S16  1  0.16515  0.33030  0.11559  1
 Ta  Ta1  1  0.00000  0.00000  0.75000  1
 Ta  Ta2  1  0.00000  0.00000  0.25000  1
 Ta  Ta3  1  0.01234  0.50617  0.75000  1
 Ta  Ta4  1  0.50617  0.49383  0.25000  1
 Ta  Ta5  1  0.49383  0.50617  0.75000  1
 Ta  Ta6  1  0.98766  0.49383  0.25000  1
 Ta  Ta7  1  0.50617  0.01234  0.25000  1
 Ta  Ta8  1  0.49383  0.98766  0.75000  1
