CIF file written using JARVIS-Tools package.
data_SrBeSe2
_symmetry_space_group_name_H-M  'Fm-3m'
_cell_length_a       5.01625
_cell_length_b       5.01625
_cell_length_c       5.01625
_cell_angle_alpha    120.001
_cell_angle_beta     120.001
_cell_angle_gamma    89.9979

_symmetry_Int_Tables_number  225
_chemical_formula_structural  SrBeSe2
_chemical_formula_sum  SrBeSe2
_cell_volume  89.25137742575023
_cell_formula_units_Z  1
loop_
  _symmetry_equiv_pos_site_id
 _symmetry_equiv_pos_as_xyz
 1  'x, y, z'
loop_
 _atom_site_type_symbol
 _atom_site_label
 _atom_site_symmetry_multiplicity
 _atom_site_fract_x
 _atom_site_fract_y
 _atom_site_fract_z
 _atom_site_fract_occupancy
 Be  Be1  1  0.75000  0.25000  0.50000  1
 Se  Se1  1  0.00000  0.00000  0.00000  1
 Se  Se2  1  0.50000  0.50000  0.00000  1
 Sr  Sr1  1  0.25000  0.75000  0.50000  1
