CIF file written using JARVIS-Tools package.
data_PrSi
_symmetry_space_group_name_H-M  'Pnma'
_cell_length_a       3.98446
_cell_length_b       5.98536
_cell_length_c       8.35262
_cell_angle_alpha    90
_cell_angle_beta     90
_cell_angle_gamma    90

_symmetry_Int_Tables_number  62
_chemical_formula_structural  PrSi
_chemical_formula_sum  Pr4Si4
_cell_volume  199.1967584303311
_cell_formula_units_Z  4
loop_
  _symmetry_equiv_pos_site_id
 _symmetry_equiv_pos_as_xyz
 1  'x, y, z'
loop_
 _atom_site_type_symbol
 _atom_site_label
 _atom_site_symmetry_multiplicity
 _atom_site_fract_x
 _atom_site_fract_y
 _atom_site_fract_z
 _atom_site_fract_occupancy
 Pr  Pr1  1  0.25000  0.38654  0.67938  1
 Pr  Pr2  1  0.75000  0.61346  0.32062  1
 Pr  Pr3  1  0.75000  0.88654  0.82062  1
 Pr  Pr4  1  0.25000  0.11346  0.17938  1
 Si  Si1  1  0.25000  0.87804  0.53529  1
 Si  Si2  1  0.75000  0.12196  0.46471  1
 Si  Si3  1  0.75000  0.37804  0.96471  1
 Si  Si4  1  0.25000  0.62196  0.03529  1
