CIF file written using JARVIS-Tools package.
data_SbF3
_symmetry_space_group_name_H-M  'Ama2'
_cell_length_a       4.3672
_cell_length_b       4.3672
_cell_length_c       7.15045
_cell_angle_alpha    90
_cell_angle_beta     90
_cell_angle_gamma    113.609

_symmetry_Int_Tables_number  40
_chemical_formula_structural  SbF3
_chemical_formula_sum  Sb2F6
_cell_volume  124.96137015991032
_cell_formula_units_Z  2
loop_
  _symmetry_equiv_pos_site_id
 _symmetry_equiv_pos_as_xyz
 1  'x, y, z'
loop_
 _atom_site_type_symbol
 _atom_site_label
 _atom_site_symmetry_multiplicity
 _atom_site_fract_x
 _atom_site_fract_y
 _atom_site_fract_z
 _atom_site_fract_occupancy
 F  F1  1  0.31536  0.38090  0.25000  1
 F  F2  1  0.38090  0.31536  0.75000  1
 F  F3  1  0.97672  0.58803  0.93215  1
 F  F4  1  0.58803  0.97672  0.06785  1
 F  F5  1  0.97672  0.58803  0.56785  1
 F  F6  1  0.58803  0.97672  0.43215  1
 Sb  Sb1  1  0.20566  0.79059  0.25000  1
 Sb  Sb2  1  0.79059  0.20566  0.75000  1
