CIF file written using JARVIS-Tools package.
data_BaCaI4
_symmetry_space_group_name_H-M  'P4/mmm'
_cell_length_a       5.63728
_cell_length_b       5.63728
_cell_length_c       8.08678
_cell_angle_alpha    90
_cell_angle_beta     90
_cell_angle_gamma    90

_symmetry_Int_Tables_number  123
_chemical_formula_structural  BaCaI4
_chemical_formula_sum  BaCaI4
_cell_volume  256.9893044087427
_cell_formula_units_Z  1
loop_
  _symmetry_equiv_pos_site_id
 _symmetry_equiv_pos_as_xyz
 1  'x, y, z'
loop_
 _atom_site_type_symbol
 _atom_site_label
 _atom_site_symmetry_multiplicity
 _atom_site_fract_x
 _atom_site_fract_y
 _atom_site_fract_z
 _atom_site_fract_occupancy
 Ba  Ba1  1  0.50000  0.50000  0.00000  1
 Ca  Ca1  1  0.00000  0.00000  0.50000  1
 I  I1  1  0.00000  0.50000  0.26469  1
 I  I2  1  0.50000  0.00000  0.26469  1
 I  I3  1  0.00000  0.50000  0.73531  1
 I  I4  1  0.50000  0.00000  0.73531  1
