CIF file written using JARVIS-Tools package.
data_YbSeO3F
_symmetry_space_group_name_H-M  'P2_1/c'
_cell_length_a       6.51389
_cell_length_b       6.83809
_cell_length_c       6.73192
_cell_angle_alpha    90
_cell_angle_beta     89.6168
_cell_angle_gamma    90

_symmetry_Int_Tables_number  14
_chemical_formula_structural  YbSeO3F
_chemical_formula_sum  Yb4Se4O2F4
_cell_volume  299.850244588829
_cell_formula_units_Z  4
loop_
  _symmetry_equiv_pos_site_id
 _symmetry_equiv_pos_as_xyz
 1  'x, y, z'
loop_
 _atom_site_type_symbol
 _atom_site_label
 _atom_site_symmetry_multiplicity
 _atom_site_fract_x
 _atom_site_fract_y
 _atom_site_fract_z
 _atom_site_fract_occupancy
 F  F1  1  0.21390  0.42547  0.06957  1
 F  F2  1  0.21390  0.07453  0.56957  1
 F  F3  1  0.78610  0.92547  0.43043  1
 F  F4  1  0.78610  0.57453  0.93043  1
 O  O1  1  0.50869  0.23661  0.86373  1
 O  O2  1  0.49131  0.73661  0.63627  1
 O  O3  1  0.19594  0.03142  0.18188  1
 O  O4  1  0.13930  0.80210  0.85874  1
 O  O5  1  0.80406  0.53142  0.31812  1
 O  O6  1  0.13930  0.69790  0.35874  1
 O  O7  1  0.86070  0.19790  0.14126  1
 O  O8  1  0.19594  0.46858  0.68188  1
 O  O9  1  0.50869  0.26339  0.36373  1
 O  O10  1  0.86070  0.30210  0.64126  1
 O  O11  1  0.80406  0.96858  0.81812  1
 O  O12  1  0.49131  0.76339  0.13627  1
 Se  Se1  1  0.67035  0.13908  0.68707  1
 Se  Se2  1  0.32965  0.63908  0.81293  1
 Se  Se3  1  0.32965  0.86092  0.31293  1
 Se  Se4  1  0.67035  0.36092  0.18707  1
 Yb  Yb1  1  0.86748  0.67659  0.63174  1
 Yb  Yb2  1  0.86748  0.82341  0.13174  1
 Yb  Yb3  1  0.13252  0.32341  0.36826  1
 Yb  Yb4  1  0.13252  0.17659  0.86826  1
