CIF file written using JARVIS-Tools package.
data_Na3Fe5O9
_symmetry_space_group_name_H-M  'C2/c'
_cell_length_a       5.19555
_cell_length_b       9.05039
_cell_length_c       9.05039
_cell_angle_alpha    84.5609
_cell_angle_beta     90.5708
_cell_angle_gamma    90.5708

_symmetry_Int_Tables_number  15
_chemical_formula_structural  Na3Fe5O9
_chemical_formula_sum  Na6Fe0O8
_cell_volume  423.60992198914477
_cell_formula_units_Z  2
loop_
  _symmetry_equiv_pos_site_id
 _symmetry_equiv_pos_as_xyz
 1  'x, y, z'
loop_
 _atom_site_type_symbol
 _atom_site_label
 _atom_site_symmetry_multiplicity
 _atom_site_fract_x
 _atom_site_fract_y
 _atom_site_fract_z
 _atom_site_fract_occupancy
 Fe  Fe1  1  0.22190  0.19953  0.56805  1
 Fe  Fe2  1  0.78092  0.29662  0.97617  1
 Fe  Fe3  1  0.72190  0.56805  0.19953  1
 Fe  Fe4  1  0.77810  0.80047  0.43195  1
 Fe  Fe5  1  0.27810  0.43195  0.80047  1
 Fe  Fe6  1  0.71908  0.02383  0.70338  1
 Fe  Fe7  1  0.25000  0.06013  0.93987  1
 Fe  Fe8  1  0.75000  0.93987  0.06013  1
 Fe  Fe9  1  0.28092  0.97617  0.29662  1
 Fe  Fe10  1  0.21908  0.70338  0.02383  1
 Na  Na1  1  0.72715  0.68210  0.83818  1
 Na  Na2  1  0.75000  0.41039  0.58961  1
 Na  Na3  1  0.22715  0.83818  0.68210  1
 Na  Na4  1  0.27285  0.31790  0.16182  1
 Na  Na5  1  0.77285  0.16182  0.31790  1
 Na  Na6  1  0.25000  0.58961  0.41039  1
 O  O1  1  0.35884  0.56642  0.16710  1
 O  O2  1  0.75000  0.59585  0.40415  1
 O  O3  1  0.62914  0.91772  0.26253  1
 O  O4  1  0.12914  0.26253  0.91772  1
 O  O5  1  0.37086  0.08228  0.73747  1
 O  O6  1  0.64116  0.43358  0.83290  1
 O  O7  1  0.85884  0.16710  0.56642  1
 O  O8  1  0.87086  0.73747  0.08228  1
 O  O9  1  0.67676  0.83690  0.62352  1
 O  O10  1  0.17676  0.62352  0.83690  1
 O  O11  1  0.32324  0.16310  0.37648  1
 O  O12  1  0.57068  0.12716  0.02624  1
 O  O13  1  0.92932  0.97376  0.87284  1
 O  O14  1  0.42932  0.87284  0.97376  1
 O  O15  1  0.07068  0.02624  0.12716  1
 O  O16  1  0.14116  0.83290  0.43358  1
 O  O17  1  0.82324  0.37648  0.16310  1
 O  O18  1  0.25000  0.40415  0.59585  1
