CIF file written using JARVIS-Tools package.
data_Li5Co2O2F5
_symmetry_space_group_name_H-M  'I4/mmm'
_cell_length_a       2.8995
_cell_length_b       2.8995
_cell_length_c       14.5629
_cell_angle_alpha    95.7133
_cell_angle_beta     84.2867
_cell_angle_gamma    90

_symmetry_Int_Tables_number  139
_chemical_formula_structural  Li5Co2O2F5
_chemical_formula_sum  Li5Co2O2F5
_cell_volume  121.21230301962119
_cell_formula_units_Z  1
loop_
  _symmetry_equiv_pos_site_id
 _symmetry_equiv_pos_as_xyz
 1  'x, y, z'
loop_
 _atom_site_type_symbol
 _atom_site_label
 _atom_site_symmetry_multiplicity
 _atom_site_fract_x
 _atom_site_fract_y
 _atom_site_fract_z
 _atom_site_fract_occupancy
 Co  Co1  1  0.42585  0.57415  0.14829  1
 Co  Co2  1  0.85986  0.14014  0.28028  1
 F  F1  1  0.50560  0.49440  0.98879  1
 F  F2  1  0.78011  0.21989  0.43978  1
 F  F3  1  0.21167  0.78833  0.57666  1
 F  F4  1  0.64286  0.35714  0.71429  1
 F  F5  1  0.07404  0.92596  0.85191  1
 Li  Li1  1  0.00461  0.99539  0.99078  1
 Li  Li2  1  0.28111  0.71889  0.43779  1
 Li  Li3  1  0.71145  0.28855  0.57710  1
 Li  Li4  1  0.14286  0.85714  0.71429  1
 Li  Li5  1  0.57427  0.42573  0.85147  1
 O  O1  1  0.93284  0.06716  0.13431  1
 O  O2  1  0.35287  0.64713  0.29426  1
