CIF file written using JARVIS-Tools package.
data_La6P17Pd6
_symmetry_space_group_name_H-M  'I-43m'
_cell_length_a       9.09625
_cell_length_b       9.09625
_cell_length_c       9.09625
_cell_angle_alpha    109.471
_cell_angle_beta     109.471
_cell_angle_gamma    109.471

_symmetry_Int_Tables_number  217
_chemical_formula_structural  La6P17Pd6
_chemical_formula_sum  La6P7Pd6
_cell_volume  579.3821663681508
_cell_formula_units_Z  1
loop_
  _symmetry_equiv_pos_site_id
 _symmetry_equiv_pos_as_xyz
 1  'x, y, z'
loop_
 _atom_site_type_symbol
 _atom_site_label
 _atom_site_symmetry_multiplicity
 _atom_site_fract_x
 _atom_site_fract_y
 _atom_site_fract_z
 _atom_site_fract_occupancy
 La  La1  1  0.00000  0.28625  0.28625  1
 La  La2  1  0.71375  -0.00000  0.71375  1
 La  La3  1  0.28625  0.00000  0.28625  1
 La  La4  1  0.28625  0.28625  0.00000  1
 La  La5  1  0.71375  0.71375  -0.00000  1
 La  La6  1  -0.00000  0.71375  0.71375  1
 P  P1  1  0.00000  0.00000  0.00000  1
 P  P2  1  0.57920  0.21871  0.21871  1
 P  P3  1  0.63951  0.63951  0.42080  1
 P  P4  1  0.36049  0.78129  -0.00000  1
 P  P5  1  0.00000  0.00000  0.56604  1
 P  P6  1  -0.00000  0.78129  0.36049  1
 P  P7  1  0.78129  0.36049  -0.00000  1
 P  P8  1  0.21871  0.57920  0.21871  1
 P  P9  1  0.78129  -0.00000  0.36049  1
 P  P10  1  0.36049  -0.00000  0.78129  1
 P  P11  1  -0.00000  0.36049  0.78129  1
 P  P12  1  0.42080  0.63951  0.63951  1
 P  P13  1  0.63951  0.42080  0.63951  1
 P  P14  1  0.21871  0.21871  0.57920  1
 P  P15  1  0.43396  0.43396  0.43396  1
 P  P16  1  0.56604  0.00000  0.00000  1
 P  P17  1  0.00000  0.56604  -0.00000  1
 Pd  Pd1  1  0.50000  0.75000  0.25000  1
 Pd  Pd2  1  0.25000  0.75000  0.50000  1
 Pd  Pd3  1  0.75000  0.25000  0.50000  1
 Pd  Pd4  1  0.25000  0.50000  0.75000  1
 Pd  Pd5  1  0.75000  0.50000  0.25000  1
 Pd  Pd6  1  0.50000  0.25000  0.75000  1
