CIF file written using JARVIS-Tools package.
data_TlFeC3NO4
_symmetry_space_group_name_H-M  'P2_13'
_cell_length_a       8.78576
_cell_length_b       8.78576
_cell_length_c       8.78576
_cell_angle_alpha    90
_cell_angle_beta     90
_cell_angle_gamma    90

_symmetry_Int_Tables_number  198
_chemical_formula_structural  TlFeC3NO4
_chemical_formula_sum  Tl4Fe4C2N4O6
_cell_volume  678.1693833448368
_cell_formula_units_Z  4
loop_
  _symmetry_equiv_pos_site_id
 _symmetry_equiv_pos_as_xyz
 1  'x, y, z'
loop_
 _atom_site_type_symbol
 _atom_site_label
 _atom_site_symmetry_multiplicity
 _atom_site_fract_x
 _atom_site_fract_y
 _atom_site_fract_z
 _atom_site_fract_occupancy
 C  C1  1  0.40819  0.85658  0.94082  1
 C  C2  1  0.90819  0.64342  0.05918  1
 C  C3  1  0.59181  0.35658  0.55918  1
 C  C4  1  0.09181  0.14342  0.44082  1
 C  C5  1  0.85658  0.94082  0.40819  1
 C  C6  1  0.94082  0.40819  0.85658  1
 C  C7  1  0.55918  0.59181  0.35658  1
 C  C8  1  0.14342  0.44082  0.09181  1
 C  C9  1  0.05918  0.90819  0.64342  1
 C  C10  1  0.44082  0.09181  0.14342  1
 C  C11  1  0.64342  0.05918  0.90819  1
 C  C12  1  0.35658  0.55918  0.59181  1
 Fe  Fe1  1  0.44368  0.05632  0.94368  1
 Fe  Fe2  1  0.05632  0.94368  0.44368  1
 Fe  Fe3  1  0.94368  0.44368  0.05632  1
 Fe  Fe4  1  0.55632  0.55632  0.55632  1
 N  N1  1  0.33449  0.16551  0.83449  1
 N  N2  1  0.66551  0.66551  0.66551  1
 N  N3  1  0.83449  0.33449  0.16551  1
 N  N4  1  0.16551  0.83449  0.33449  1
 O  O1  1  0.93172  0.38140  0.72662  1
 O  O2  1  0.77338  0.06828  0.88140  1
 O  O3  1  0.06828  0.88140  0.77338  1
 O  O4  1  0.88140  0.77338  0.06828  1
 O  O5  1  0.24434  0.75566  0.25566  1
 O  O6  1  0.75566  0.25566  0.24434  1
 O  O7  1  0.43172  0.11860  0.27338  1
 O  O8  1  0.25566  0.24434  0.75566  1
 O  O9  1  0.11860  0.27338  0.43172  1
 O  O10  1  0.74434  0.74434  0.74434  1
 O  O11  1  0.61860  0.22662  0.56828  1
 O  O12  1  0.22662  0.56828  0.61860  1
 O  O13  1  0.27338  0.43172  0.11860  1
 O  O14  1  0.56828  0.61860  0.22662  1
 O  O15  1  0.38140  0.72662  0.93172  1
 O  O16  1  0.72662  0.93172  0.38140  1
 Tl  Tl1  1  0.43871  0.93871  0.56129  1
 Tl  Tl2  1  0.93871  0.56129  0.43871  1
 Tl  Tl3  1  0.56129  0.43871  0.93871  1
 Tl  Tl4  1  0.06129  0.06129  0.06129  1
