CIF file written using JARVIS-Tools package.
data_Hf2Pt3
_symmetry_space_group_name_H-M  'I4/mmm'
_cell_length_a       3.47986
_cell_length_b       3.47986
_cell_length_c       7.76758
_cell_angle_alpha    102.944
_cell_angle_beta     102.944
_cell_angle_gamma    90.0009

_symmetry_Int_Tables_number  139
_chemical_formula_structural  Hf2Pt3
_chemical_formula_sum  Hf2Pt3
_cell_volume  89.2163331741649
_cell_formula_units_Z  1
loop_
  _symmetry_equiv_pos_site_id
 _symmetry_equiv_pos_as_xyz
 1  'x, y, z'
loop_
 _atom_site_type_symbol
 _atom_site_label
 _atom_site_symmetry_multiplicity
 _atom_site_fract_x
 _atom_site_fract_y
 _atom_site_fract_z
 _atom_site_fract_occupancy
 Hf  Hf1  1  0.38907  0.88907  0.77814  1
 Hf  Hf2  1  0.61093  0.11093  0.22186  1
 Pt  Pt1  1  0.00000  0.50000  0.00000  1
 Pt  Pt2  1  0.80583  0.30583  0.61166  1
 Pt  Pt3  1  0.19417  0.69417  0.38834  1
