CIF file written using JARVIS-Tools package.
data_LiTiSe2O2
_symmetry_space_group_name_H-M  'C2/m'
_cell_length_a       3.45058
_cell_length_b       3.44992
_cell_length_c       9.21994
_cell_angle_alpha    90
_cell_angle_beta     90.1792
_cell_angle_gamma    119.994

_symmetry_Int_Tables_number  12
_chemical_formula_structural  LiTiSe2O2
_chemical_formula_sum  LiTiSe2O2
_cell_volume  95.05715543886707
_cell_formula_units_Z  1
loop_
  _symmetry_equiv_pos_site_id
 _symmetry_equiv_pos_as_xyz
 1  'x, y, z'
loop_
 _atom_site_type_symbol
 _atom_site_label
 _atom_site_symmetry_multiplicity
 _atom_site_fract_x
 _atom_site_fract_y
 _atom_site_fract_z
 _atom_site_fract_occupancy
 Li  Li1  1  -0.00000  0.00000  0.50000  1
 O  O1  1  0.33467  0.66733  0.56405  1
 O  O2  1  0.66533  0.33267  0.43595  1
 Se  Se1  1  0.33531  0.66765  0.17173  1
 Se  Se2  1  0.66469  0.33235  0.82827  1
 Ti  Ti1  1  0.00000  0.00000  0.00000  1
