CIF file written using JARVIS-Tools package.
data_SnN
_symmetry_space_group_name_H-M  'Cmc2_1'
_cell_length_a       3.55692
_cell_length_b       3.55719
_cell_length_c       5.46673
_cell_angle_alpha    89.9826
_cell_angle_beta     89.9742
_cell_angle_gamma    74.201

_symmetry_Int_Tables_number  36
_chemical_formula_structural  SnN
_chemical_formula_sum  Sn2N2
_cell_volume  66.55561716302589
_cell_formula_units_Z  2
loop_
  _symmetry_equiv_pos_site_id
 _symmetry_equiv_pos_as_xyz
 1  'x, y, z'
loop_
 _atom_site_type_symbol
 _atom_site_label
 _atom_site_symmetry_multiplicity
 _atom_site_fract_x
 _atom_site_fract_y
 _atom_site_fract_z
 _atom_site_fract_occupancy
 N  N1  1  0.54344  0.54340  0.54792  1
 N  N2  1  0.21008  0.21003  0.04799  1
 Sn  Sn1  1  0.58734  0.58730  0.95197  1
 Sn  Sn2  1  0.16622  0.16617  0.45201  1
