CIF file written using JARVIS-Tools package.
data_CeMg6Fe
_symmetry_space_group_name_H-M  'Amm2'
_cell_length_a       6.90241
_cell_length_b       6.90241
_cell_length_c       4.6786
_cell_angle_alpha    90
_cell_angle_beta     90
_cell_angle_gamma    126.208

_symmetry_Int_Tables_number  38
_chemical_formula_structural  CeMg6Fe
_chemical_formula_sum  CeMg6Fe
_cell_volume  179.85657080017836
_cell_formula_units_Z  1
loop_
  _symmetry_equiv_pos_site_id
 _symmetry_equiv_pos_as_xyz
 1  'x, y, z'
loop_
 _atom_site_type_symbol
 _atom_site_label
 _atom_site_symmetry_multiplicity
 _atom_site_fract_x
 _atom_site_fract_y
 _atom_site_fract_z
 _atom_site_fract_occupancy
 Ce  Ce1  1  0.28309  0.21691  0.75000  1
 Fe  Fe1  1  0.22693  0.27307  0.25000  1
 Mg  Mg1  1  0.17615  0.84319  0.25000  1
 Mg  Mg2  1  0.65681  0.32385  0.25000  1
 Mg  Mg3  1  0.68538  0.81462  0.25000  1
 Mg  Mg4  1  0.31730  0.69125  0.75000  1
 Mg  Mg5  1  0.80875  0.18270  0.75000  1
 Mg  Mg6  1  0.84559  0.65441  0.75000  1
