CIF file written using JARVIS-Tools package.
data_Li2CuS2
_symmetry_space_group_name_H-M  'C2/m'
_cell_length_a       3.44719
_cell_length_b       4.33525
_cell_length_c       6.21228
_cell_angle_alpha    77.7115
_cell_angle_beta     90.0017
_cell_angle_gamma    113.407

_symmetry_Int_Tables_number  12
_chemical_formula_structural  Li2CuS2
_chemical_formula_sum  Li2CuS2
_cell_volume  82.87597928392711
_cell_formula_units_Z  1
loop_
  _symmetry_equiv_pos_site_id
 _symmetry_equiv_pos_as_xyz
 1  'x, y, z'
loop_
 _atom_site_type_symbol
 _atom_site_label
 _atom_site_symmetry_multiplicity
 _atom_site_fract_x
 _atom_site_fract_y
 _atom_site_fract_z
 _atom_site_fract_occupancy
 Cu  Cu1  1  0.00401  0.00064  0.99448  1
 Li  Li1  1  0.33621  0.66585  0.65544  1
 Li  Li2  1  0.67179  0.33547  0.33367  1
 S  S1  1  0.39561  0.78360  0.24218  1
 S  S2  1  0.61244  0.21776  0.74691  1
