CIF file written using JARVIS-Tools package.
data_Zr4Ni2O
_symmetry_space_group_name_H-M  'Fd-3m'
_cell_length_a       8.64807
_cell_length_b       8.64807
_cell_length_c       8.64807
_cell_angle_alpha    60
_cell_angle_beta     60
_cell_angle_gamma    60

_symmetry_Int_Tables_number  227
_chemical_formula_structural  Zr4Ni2O
_chemical_formula_sum  Zr6Ni8O4
_cell_volume  457.34391704755024
_cell_formula_units_Z  4
loop_
  _symmetry_equiv_pos_site_id
 _symmetry_equiv_pos_as_xyz
 1  'x, y, z'
loop_
 _atom_site_type_symbol
 _atom_site_label
 _atom_site_symmetry_multiplicity
 _atom_site_fract_x
 _atom_site_fract_y
 _atom_site_fract_z
 _atom_site_fract_occupancy
 Ni  Ni1  1  0.71745  0.71745  0.34765  1
 Ni  Ni2  1  0.28255  0.28255  0.28255  1
 Ni  Ni3  1  0.71745  0.34765  0.71745  1
 Ni  Ni4  1  0.34765  0.71745  0.71745  1
 Ni  Ni5  1  0.28255  0.65235  0.28255  1
 Ni  Ni6  1  0.71745  0.71745  0.71745  1
 Ni  Ni7  1  0.28255  0.28255  0.65235  1
 Ni  Ni8  1  0.65235  0.28255  0.28255  1
 O  O1  1  0.00000  0.50000  0.00000  1
 O  O2  1  0.00000  0.00000  0.50000  1
 O  O3  1  0.00000  0.00000  0.00000  1
 O  O4  1  0.50000  0.00000  0.00000  1
 Zr  Zr1  1  0.94064  0.94064  0.30936  1
 Zr  Zr2  1  0.05937  0.69064  0.69063  1
 Zr  Zr3  1  0.30936  0.94064  0.94063  1
 Zr  Zr4  1  0.69063  0.69064  0.05937  1
 Zr  Zr5  1  0.05937  0.05937  0.69064  1
 Zr  Zr6  1  0.05937  0.69064  0.05937  1
 Zr  Zr7  1  0.30936  0.94064  0.30936  1
 Zr  Zr8  1  0.94063  0.30937  0.94063  1
 Zr  Zr9  1  0.50000  0.50000  0.50000  1
 Zr  Zr10  1  0.50000  0.50000  0.00000  1
 Zr  Zr11  1  0.00000  0.50000  0.50000  1
 Zr  Zr12  1  0.50000  0.00000  0.50000  1
 Zr  Zr13  1  0.94063  0.30937  0.30936  1
 Zr  Zr14  1  0.30936  0.30937  0.94063  1
 Zr  Zr15  1  0.69064  0.05937  0.69063  1
 Zr  Zr16  1  0.69064  0.05937  0.05936  1
