CIF file written using JARVIS-Tools package.
data_Ti2H2O3
_symmetry_space_group_name_H-M  'P-3m1'
_cell_length_a       3.11372
_cell_length_b       3.11334
_cell_length_c       8.80427
_cell_angle_alpha    90
_cell_angle_beta     90.0068
_cell_angle_gamma    119.996

_symmetry_Int_Tables_number  164
_chemical_formula_structural  Ti2H2O3
_chemical_formula_sum  Ti2H2O3
_cell_volume  73.91780086803624
_cell_formula_units_Z  1
loop_
  _symmetry_equiv_pos_site_id
 _symmetry_equiv_pos_as_xyz
 1  'x, y, z'
loop_
 _atom_site_type_symbol
 _atom_site_label
 _atom_site_symmetry_multiplicity
 _atom_site_fract_x
 _atom_site_fract_y
 _atom_site_fract_z
 _atom_site_fract_occupancy
 H  H1  1  0.33308  0.66654  0.63171  1
 H  H2  1  0.66692  0.33346  0.36829  1
 O  O1  1  0.33313  0.66656  0.74458  1
 O  O2  1  0.66687  0.33344  0.25542  1
 O  O3  1  0.00000  0.00000  0.00000  1
 Ti  Ti1  1  0.66657  0.33329  0.87699  1
 Ti  Ti2  1  0.33343  0.66671  0.12301  1
