CIF file written using JARVIS-Tools package.
data_BaHI
_symmetry_space_group_name_H-M  'P4/nmm'
_cell_length_a       4.72648
_cell_length_b       4.72648
_cell_length_c       7.77985
_cell_angle_alpha    90
_cell_angle_beta     90
_cell_angle_gamma    90

_symmetry_Int_Tables_number  129
_chemical_formula_structural  BaHI
_chemical_formula_sum  Ba2H2I2
_cell_volume  173.7990600514516
_cell_formula_units_Z  2
loop_
  _symmetry_equiv_pos_site_id
 _symmetry_equiv_pos_as_xyz
 1  'x, y, z'
loop_
 _atom_site_type_symbol
 _atom_site_label
 _atom_site_symmetry_multiplicity
 _atom_site_fract_x
 _atom_site_fract_y
 _atom_site_fract_z
 _atom_site_fract_occupancy
 Ba  Ba1  1  0.50000  0.00000  0.82517  1
 Ba  Ba2  1  0.00000  0.50000  0.17483  1
 H  H1  1  0.50000  0.50000  0.00000  1
 H  H2  1  0.00000  0.00000  0.00000  1
 I  I1  1  0.00000  0.50000  0.65672  1
 I  I2  1  0.50000  0.00000  0.34328  1
