CIF file written using JARVIS-Tools package.
data_KOs2O6
_symmetry_space_group_name_H-M  'P-1'
_cell_length_a       5.62119
_cell_length_b       6.52011
_cell_length_c       7.29537
_cell_angle_alpha    65.4245
_cell_angle_beta     70.8204
_cell_angle_gamma    75.636

_symmetry_Int_Tables_number  2
_chemical_formula_structural  KOs2O6
_chemical_formula_sum  K2Os4O2
_cell_volume  227.72178090821998
_cell_formula_units_Z  2
loop_
  _symmetry_equiv_pos_site_id
 _symmetry_equiv_pos_as_xyz
 1  'x, y, z'
loop_
 _atom_site_type_symbol
 _atom_site_label
 _atom_site_symmetry_multiplicity
 _atom_site_fract_x
 _atom_site_fract_y
 _atom_site_fract_z
 _atom_site_fract_occupancy
 K  K1  1  0.80748  0.30195  0.10768  1
 K  K2  1  0.19252  0.69805  0.89232  1
 O  O1  1  0.30052  0.04090  0.95953  1
 O  O2  1  0.00995  0.89216  0.37342  1
 O  O3  1  0.70029  0.77801  0.76629  1
 O  O4  1  0.89549  0.52147  0.32473  1
 O  O5  1  0.29971  0.22199  0.23371  1
 O  O6  1  0.50808  0.81268  0.46418  1
 O  O7  1  0.49192  0.18732  0.53582  1
 O  O8  1  0.62123  0.39022  0.74296  1
 O  O9  1  0.69948  0.95910  0.04047  1
 O  O10  1  0.99005  0.10784  0.62658  1
 O  O11  1  0.37877  0.60978  0.25704  1
 O  O12  1  0.10451  0.47853  0.67527  1
 Os  Os1  1  0.63661  0.08522  0.76357  1
 Os  Os2  1  0.36339  0.91478  0.23643  1
 Os  Os3  1  0.18674  0.35866  0.45005  1
 Os  Os4  1  0.81326  0.64134  0.54995  1
