CIF file written using JARVIS-Tools package.
data_BeIn2Se
_symmetry_space_group_name_H-M  'I4/mmm'
_cell_length_a       6.15821
_cell_length_b       6.15821
_cell_length_c       6.15821
_cell_angle_alpha    141.168
_cell_angle_beta     141.168
_cell_angle_gamma    56.0835

_symmetry_Int_Tables_number  139
_chemical_formula_structural  BeIn2Se
_chemical_formula_sum  BeIn2Se
_cell_volume  91.11026374187377
_cell_formula_units_Z  1
loop_
  _symmetry_equiv_pos_site_id
 _symmetry_equiv_pos_as_xyz
 1  'x, y, z'
loop_
 _atom_site_type_symbol
 _atom_site_label
 _atom_site_symmetry_multiplicity
 _atom_site_fract_x
 _atom_site_fract_y
 _atom_site_fract_z
 _atom_site_fract_occupancy
 Be  Be1  1  0.75000  0.25000  0.50000  1
 In  In1  1  0.00000  0.00000  0.00000  1
 In  In2  1  0.50000  0.50000  0.00000  1
 Se  Se1  1  0.25000  0.75000  0.50000  1
