CIF file written using JARVIS-Tools package.
data_Ti2Se
_symmetry_space_group_name_H-M  'Pnnm'
_cell_length_a       3.45923
_cell_length_b       11.7572
_cell_length_c       14.517
_cell_angle_alpha    90
_cell_angle_beta     90
_cell_angle_gamma    90

_symmetry_Int_Tables_number  58
_chemical_formula_structural  Ti2Se
_chemical_formula_sum  Ti24Se2
_cell_volume  590.4218326865554
_cell_formula_units_Z  12
loop_
  _symmetry_equiv_pos_site_id
 _symmetry_equiv_pos_as_xyz
 1  'x, y, z'
loop_
 _atom_site_type_symbol
 _atom_site_label
 _atom_site_symmetry_multiplicity
 _atom_site_fract_x
 _atom_site_fract_y
 _atom_site_fract_z
 _atom_site_fract_occupancy
 Se  Se1  1  0.50000  0.25458  0.91418  1
 Se  Se2  1  0.50000  0.81189  0.84947  1
 Se  Se3  1  0.50000  0.06582  0.70587  1
 Se  Se4  1  0.00000  0.43418  0.20587  1
 Se  Se5  1  0.00000  0.68811  0.34947  1
 Se  Se6  1  0.00000  0.24542  0.41418  1
 Se  Se7  1  0.50000  0.93418  0.29413  1
 Se  Se8  1  0.00000  0.56582  0.79413  1
 Se  Se9  1  0.50000  0.18811  0.15053  1
 Se  Se10  1  0.00000  0.75458  0.58582  1
 Se  Se11  1  0.00000  0.31189  0.65053  1
 Se  Se12  1  0.50000  0.74542  0.08582  1
 Ti  Ti1  1  0.50000  0.64283  0.47896  1
 Ti  Ti2  1  0.50000  0.08597  0.42462  1
 Ti  Ti3  1  0.00000  0.88720  0.42634  1
 Ti  Ti4  1  0.50000  0.91403  0.57538  1
 Ti  Ti5  1  0.50000  0.97153  0.10780  1
 Ti  Ti6  1  0.50000  0.61280  0.92634  1
 Ti  Ti7  1  0.50000  0.35717  0.52104  1
 Ti  Ti8  1  0.00000  0.18557  0.79540  1
 Ti  Ti9  1  0.50000  0.68557  0.70460  1
 Ti  Ti10  1  0.00000  0.90712  0.73871  1
 Ti  Ti11  1  0.50000  0.40712  0.76129  1
 Ti  Ti12  1  0.50000  0.31443  0.29540  1
 Ti  Ti13  1  0.00000  0.14283  0.02104  1
 Ti  Ti14  1  0.00000  0.11280  0.57366  1
 Ti  Ti15  1  0.50000  0.38720  0.07366  1
 Ti  Ti16  1  0.50000  0.59288  0.23871  1
 Ti  Ti17  1  0.50000  0.02847  0.89220  1
 Ti  Ti18  1  0.00000  0.52847  0.60780  1
 Ti  Ti19  1  0.00000  0.85717  0.97896  1
 Ti  Ti20  1  0.00000  0.58597  0.07538  1
 Ti  Ti21  1  0.00000  0.81443  0.20460  1
 Ti  Ti22  1  0.00000  0.09288  0.26129  1
 Ti  Ti23  1  0.00000  0.41403  0.92462  1
 Ti  Ti24  1  0.00000  0.47153  0.39220  1
