CIF file written using JARVIS-Tools package.
data_TiGaNi
_symmetry_space_group_name_H-M  'P-62m'
_cell_length_a       6.80136
_cell_length_b       6.80136
_cell_length_c       3.11532
_cell_angle_alpha    90
_cell_angle_beta     90
_cell_angle_gamma    120

_symmetry_Int_Tables_number  189
_chemical_formula_structural  TiGaNi
_chemical_formula_sum  Ti3Ga3Ni3
_cell_volume  124.80302686500531
_cell_formula_units_Z  3
loop_
  _symmetry_equiv_pos_site_id
 _symmetry_equiv_pos_as_xyz
 1  'x, y, z'
loop_
 _atom_site_type_symbol
 _atom_site_label
 _atom_site_symmetry_multiplicity
 _atom_site_fract_x
 _atom_site_fract_y
 _atom_site_fract_z
 _atom_site_fract_occupancy
 Ga  Ga1  1  0.72522  -0.00000  0.00000  1
 Ga  Ga2  1  0.27478  0.27478  0.00000  1
 Ga  Ga3  1  -0.00000  0.72522  0.00000  1
 Ni  Ni1  1  0.00000  0.00000  0.50000  1
 Ni  Ni2  1  0.33333  0.66667  0.00000  1
 Ni  Ni3  1  0.66667  0.33333  0.00000  1
 Ti  Ti1  1  0.39183  -0.00000  0.50000  1
 Ti  Ti2  1  0.60817  0.60817  0.50000  1
 Ti  Ti3  1  -0.00000  0.39183  0.50000  1
