CIF file written using JARVIS-Tools package.
data_Li2CuSnO4
_symmetry_space_group_name_H-M  'I-4m2'
_cell_length_a       5.3564
_cell_length_b       5.35639
_cell_length_c       5.35639
_cell_angle_alpha    133.975
_cell_angle_beta     133.975
_cell_angle_gamma    67.127

_symmetry_Int_Tables_number  119
_chemical_formula_structural  Li2CuSnO4
_chemical_formula_sum  Li2CuSnO4
_cell_volume  78.28286023143455
_cell_formula_units_Z  1
loop_
  _symmetry_equiv_pos_site_id
 _symmetry_equiv_pos_as_xyz
 1  'x, y, z'
loop_
 _atom_site_type_symbol
 _atom_site_label
 _atom_site_symmetry_multiplicity
 _atom_site_fract_x
 _atom_site_fract_y
 _atom_site_fract_z
 _atom_site_fract_occupancy
 Cu  Cu1  1  0.75000  0.25000  0.50000  1
 Li  Li1  1  0.25000  0.75000  0.50000  1
 Li  Li2  1  0.50000  0.50000  -0.00000  1
 O  O1  1  -0.00121  0.49879  0.50000  1
 O  O2  1  0.76847  0.76847  0.00000  1
 O  O3  1  0.50121  0.00121  0.50000  1
 O  O4  1  0.23153  0.23153  0.00000  1
 Sn  Sn1  1  0.00000  0.00000  0.00000  1
