CIF file written using JARVIS-Tools package.
data_Li6FeO3F3
_symmetry_space_group_name_H-M  'R3m'
_cell_length_a       5.33666
_cell_length_b       5.33666
_cell_length_c       5.33665
_cell_angle_alpha    100.132
_cell_angle_beta     100.132
_cell_angle_gamma    100.132

_symmetry_Int_Tables_number  160
_chemical_formula_structural  Li6FeO3F3
_chemical_formula_sum  Li6FeO3F3
_cell_volume  143.88920471966267
_cell_formula_units_Z  1
loop_
  _symmetry_equiv_pos_site_id
 _symmetry_equiv_pos_as_xyz
 1  'x, y, z'
loop_
 _atom_site_type_symbol
 _atom_site_label
 _atom_site_symmetry_multiplicity
 _atom_site_fract_x
 _atom_site_fract_y
 _atom_site_fract_z
 _atom_site_fract_occupancy
 F  F1  1  0.28845  0.89167  0.28845  1
 F  F2  1  0.28845  0.28845  0.89167  1
 F  F3  1  0.89167  0.28845  0.28845  1
 Fe  Fe1  1  0.92850  0.92850  0.92850  1
 Li  Li1  1  0.99943  0.66145  0.35842  1
 Li  Li2  1  0.99943  0.35842  0.66145  1
 Li  Li3  1  0.35842  0.66145  0.99943  1
 Li  Li4  1  0.66145  0.35842  0.99943  1
 Li  Li5  1  0.35842  0.99943  0.66145  1
 Li  Li6  1  0.66145  0.99943  0.35842  1
 O  O1  1  0.10576  0.72929  0.72929  1
 O  O2  1  0.72929  0.72929  0.10576  1
 O  O3  1  0.72929  0.10576  0.72929  1
