CIF file written using JARVIS-Tools package.
data_Rb2Au3
_symmetry_space_group_name_H-M  'Immm'
_cell_length_a       5.0399
_cell_length_b       5.55994
_cell_length_c       6.43863
_cell_angle_alpha    115.579
_cell_angle_beta     113.04
_cell_angle_gamma    90

_symmetry_Int_Tables_number  71
_chemical_formula_structural  Rb2Au3
_chemical_formula_sum  Rb2Au3
_cell_volume  146.61864107551298
_cell_formula_units_Z  1
loop_
  _symmetry_equiv_pos_site_id
 _symmetry_equiv_pos_as_xyz
 1  'x, y, z'
loop_
 _atom_site_type_symbol
 _atom_site_label
 _atom_site_symmetry_multiplicity
 _atom_site_fract_x
 _atom_site_fract_y
 _atom_site_fract_z
 _atom_site_fract_occupancy
 Au  Au1  1  0.50000  0.25324  -0.00000  1
 Au  Au2  1  0.50000  0.74676  0.00000  1
 Au  Au3  1  0.00000  0.00000  0.00000  1
 Rb  Rb1  1  0.80305  0.30305  0.60611  1
 Rb  Rb2  1  0.19695  0.69695  0.39389  1
