CIF file written using JARVIS-Tools package.
data_Mg6NbW
_symmetry_space_group_name_H-M  'Amm2'
_cell_length_a       6.23816
_cell_length_b       6.23817
_cell_length_c       4.80272
_cell_angle_alpha    90
_cell_angle_beta     90
_cell_angle_gamma    122.514

_symmetry_Int_Tables_number  38
_chemical_formula_structural  Mg6NbW
_chemical_formula_sum  Mg6NbW
_cell_volume  157.60188631785115
_cell_formula_units_Z  1
loop_
  _symmetry_equiv_pos_site_id
 _symmetry_equiv_pos_as_xyz
 1  'x, y, z'
loop_
 _atom_site_type_symbol
 _atom_site_label
 _atom_site_symmetry_multiplicity
 _atom_site_fract_x
 _atom_site_fract_y
 _atom_site_fract_z
 _atom_site_fract_occupancy
 Mg  Mg1  1  0.18374  0.83407  0.25000  1
 Mg  Mg2  1  0.66593  0.31626  0.25000  1
 Mg  Mg3  1  0.66934  0.83066  0.25000  1
 Mg  Mg4  1  0.31841  0.66805  0.75000  1
 Mg  Mg5  1  0.83195  0.18159  0.75000  1
 Mg  Mg6  1  0.82883  0.67117  0.75000  1
 Nb  Nb1  1  0.19080  0.30920  0.25000  1
 W  W1  1  0.31099  0.18901  0.75000  1
