CIF file written using JARVIS-Tools package.
data_SrH6C4O7
_symmetry_space_group_name_H-M  'C2/c'
_cell_length_a       7.35878
_cell_length_b       7.35878
_cell_length_c       8.42699
_cell_angle_alpha    82.6948
_cell_angle_beta     97.3052
_cell_angle_gamma    128.7

_symmetry_Int_Tables_number  15
_chemical_formula_structural  SrH6C4O7
_chemical_formula_sum  Sr2H2C8O4
_cell_volume  352.57945766089057
_cell_formula_units_Z  2
loop_
  _symmetry_equiv_pos_site_id
 _symmetry_equiv_pos_as_xyz
 1  'x, y, z'
loop_
 _atom_site_type_symbol
 _atom_site_label
 _atom_site_symmetry_multiplicity
 _atom_site_fract_x
 _atom_site_fract_y
 _atom_site_fract_z
 _atom_site_fract_occupancy
 C  C1  1  0.01319  0.55101  0.87854  1
 C  C2  1  0.96624  0.61328  0.01847  1
 C  C3  1  0.61328  0.96624  0.48153  1
 C  C4  1  0.03376  0.38672  0.98153  1
 C  C5  1  0.38672  0.03376  0.51847  1
 C  C6  1  0.98681  0.44899  0.12146  1
 C  C7  1  0.44899  0.98681  0.37854  1
 C  C8  1  0.55101  0.01319  0.62146  1
 H  H1  1  0.50747  0.88909  0.13821  1
 H  H2  1  0.88909  0.50747  0.36179  1
 H  H3  1  0.86428  0.58711  0.52108  1
 H  H4  1  0.11091  0.49253  0.63821  1
 H  H5  1  0.58711  0.86428  0.97892  1
 H  H6  1  0.41289  0.13572  0.02108  1
 H  H7  1  0.13572  0.41289  0.47892  1
 H  H8  1  0.46119  0.55020  0.17789  1
 H  H9  1  0.55020  0.46119  0.32211  1
 H  H10  1  0.53881  0.44980  0.82211  1
 H  H11  1  0.44980  0.53881  0.67789  1
 H  H12  1  0.49253  0.11091  0.86179  1
 O  O1  1  0.41070  0.41070  0.25000  1
 O  O2  1  0.59479  0.84302  0.09662  1
 O  O3  1  0.84302  0.59479  0.40338  1
 O  O4  1  0.15698  0.40521  0.59662  1
 O  O5  1  0.40521  0.15698  0.90338  1
 O  O6  1  0.58930  0.58930  0.75000  1
 O  O7  1  0.92704  0.75395  0.03374  1
 O  O8  1  0.03030  0.62124  0.73209  1
 O  O9  1  0.07296  0.24605  0.96626  1
 O  O10  1  0.24605  0.07296  0.53374  1
 O  O11  1  0.37876  0.96970  0.23209  1
 O  O12  1  0.96970  0.37876  0.26791  1
 O  O13  1  0.62124  0.03030  0.76791  1
 O  O14  1  0.75395  0.92704  0.46626  1
 Sr  Sr1  1  0.01346  0.01346  0.25000  1
 Sr  Sr2  1  0.98654  0.98654  0.75000  1
