CIF file written using JARVIS-Tools package.
data_HfMg6Ni
_symmetry_space_group_name_H-M  'Amm2'
_cell_length_a       6.33313
_cell_length_b       6.33312
_cell_length_c       4.80678
_cell_angle_alpha    90
_cell_angle_beta     90
_cell_angle_gamma    122.883

_symmetry_Int_Tables_number  38
_chemical_formula_structural  HfMg6Ni
_chemical_formula_sum  HfMg6Ni
_cell_volume  161.90441135106988
_cell_formula_units_Z  1
loop_
  _symmetry_equiv_pos_site_id
 _symmetry_equiv_pos_as_xyz
 1  'x, y, z'
loop_
 _atom_site_type_symbol
 _atom_site_label
 _atom_site_symmetry_multiplicity
 _atom_site_fract_x
 _atom_site_fract_y
 _atom_site_fract_z
 _atom_site_fract_occupancy
 Hf  Hf1  1  0.30781  0.19219  0.75000  1
 Mg  Mg1  1  0.17596  0.83792  0.25000  1
 Mg  Mg2  1  0.66208  0.32404  0.25000  1
 Mg  Mg3  1  0.67488  0.82512  0.25000  1
 Mg  Mg4  1  0.31903  0.67131  0.75000  1
 Mg  Mg5  1  0.82869  0.18097  0.75000  1
 Mg  Mg6  1  0.83381  0.66619  0.75000  1
 Ni  Ni1  1  0.19776  0.30224  0.25000  1
