CIF file written using JARVIS-Tools package.
data_CoGeO3
_symmetry_space_group_name_H-M  'C2/c'
_cell_length_a       5.13649
_cell_length_b       6.65426
_cell_length_c       6.65426
_cell_angle_alpha    85.1153
_cell_angle_beta     82.2212
_cell_angle_gamma    82.2212

_symmetry_Int_Tables_number  15
_chemical_formula_structural  CoGeO3
_chemical_formula_sum  Co4Ge4O2
_cell_volume  222.7548271815051
_cell_formula_units_Z  4
loop_
  _symmetry_equiv_pos_site_id
 _symmetry_equiv_pos_as_xyz
 1  'x, y, z'
loop_
 _atom_site_type_symbol
 _atom_site_label
 _atom_site_symmetry_multiplicity
 _atom_site_fract_x
 _atom_site_fract_y
 _atom_site_fract_z
 _atom_site_fract_occupancy
 Co  Co1  1  0.25000  0.74149  0.25851  1
 Co  Co2  1  0.75000  0.25851  0.74149  1
 Co  Co3  1  0.75000  0.90728  0.09272  1
 Co  Co4  1  0.25000  0.09272  0.90728  1
 Ge  Ge1  1  0.28823  0.20872  0.39749  1
 Ge  Ge2  1  0.71177  0.79128  0.60251  1
 Ge  Ge3  1  0.78823  0.39749  0.20872  1
 Ge  Ge4  1  0.21177  0.60251  0.79128  1
 O  O1  1  0.89963  0.56254  0.70848  1
 O  O2  1  0.39963  0.70848  0.56254  1
 O  O3  1  0.10038  0.43746  0.29152  1
 O  O4  1  0.11411  0.13398  0.63054  1
 O  O5  1  0.38588  0.36946  0.86602  1
 O  O6  1  0.36774  0.03154  0.20488  1
 O  O7  1  0.61412  0.63054  0.13398  1
 O  O8  1  0.60038  0.29152  0.43746  1
 O  O9  1  0.86774  0.20488  0.03154  1
 O  O10  1  0.13226  0.79512  0.96846  1
 O  O11  1  0.88589  0.86602  0.36946  1
 O  O12  1  0.63226  0.96846  0.79512  1
