CIF file written using JARVIS-Tools package.
data_DySnGe
_symmetry_space_group_name_H-M  'Cmcm'
_cell_length_a       4.07176
_cell_length_b       4.27519
_cell_length_c       8.46632
_cell_angle_alpha    104.624
_cell_angle_beta     90
_cell_angle_gamma    90

_symmetry_Int_Tables_number  63
_chemical_formula_structural  DySnGe
_chemical_formula_sum  Dy2Sn2Ge2
_cell_volume  142.60306566225907
_cell_formula_units_Z  2
loop_
  _symmetry_equiv_pos_site_id
 _symmetry_equiv_pos_as_xyz
 1  'x, y, z'
loop_
 _atom_site_type_symbol
 _atom_site_label
 _atom_site_symmetry_multiplicity
 _atom_site_fract_x
 _atom_site_fract_y
 _atom_site_fract_z
 _atom_site_fract_occupancy
 Dy  Dy1  1  0.75000  0.09464  0.18928  1
 Dy  Dy2  1  0.25000  0.90536  0.81072  1
 Ge  Ge1  1  0.75000  0.44653  0.89307  1
 Ge  Ge2  1  0.25000  0.55347  0.10693  1
 Sn  Sn1  1  0.75000  0.74458  0.48916  1
 Sn  Sn2  1  0.25000  0.25542  0.51084  1
