CIF file written using JARVIS-Tools package.
data_NaMg6Si
_symmetry_space_group_name_H-M  'Amm2'
_cell_length_a       6.3643
_cell_length_b       6.31133
_cell_length_c       5.07918
_cell_angle_alpha    90
_cell_angle_beta     90
_cell_angle_gamma    119.725

_symmetry_Int_Tables_number  38
_chemical_formula_structural  NaMg6Si
_chemical_formula_sum  NaMg6Si
_cell_volume  177.17076189114397
_cell_formula_units_Z  1
loop_
  _symmetry_equiv_pos_site_id
 _symmetry_equiv_pos_as_xyz
 1  'x, y, z'
loop_
 _atom_site_type_symbol
 _atom_site_label
 _atom_site_symmetry_multiplicity
 _atom_site_fract_x
 _atom_site_fract_y
 _atom_site_fract_z
 _atom_site_fract_occupancy
 Mg  Mg1  1  0.66778  0.33637  0.25000  1
 Mg  Mg2  1  0.66778  0.83141  0.25000  1
 Mg  Mg3  1  0.32796  0.17143  0.75000  1
 Mg  Mg4  1  0.32796  0.65654  0.75000  1
 Mg  Mg5  1  0.83588  0.16794  0.75000  1
 Mg  Mg6  1  0.82737  0.66369  0.75000  1
 Na  Na1  1  0.16689  0.83344  0.25000  1
 Si  Si1  1  0.17838  0.33919  0.25000  1
