CIF file written using JARVIS-Tools package.
data_LiCu3O3
_symmetry_space_group_name_H-M  'P4mm'
_cell_length_a       2.86317
_cell_length_b       2.86317
_cell_length_c       8.68325
_cell_angle_alpha    90
_cell_angle_beta     90
_cell_angle_gamma    90

_symmetry_Int_Tables_number  99
_chemical_formula_structural  LiCu3O3
_chemical_formula_sum  LiCu3O3
_cell_volume  71.18317296085137
_cell_formula_units_Z  1
loop_
  _symmetry_equiv_pos_site_id
 _symmetry_equiv_pos_as_xyz
 1  'x, y, z'
loop_
 _atom_site_type_symbol
 _atom_site_label
 _atom_site_symmetry_multiplicity
 _atom_site_fract_x
 _atom_site_fract_y
 _atom_site_fract_z
 _atom_site_fract_occupancy
 Cu  Cu1  1  0.00000  0.00000  0.98879  1
 Cu  Cu2  1  0.50000  0.50000  0.23791  1
 Cu  Cu3  1  0.00000  0.00000  0.52914  1
 Li  Li1  1  0.50000  0.50000  0.75504  1
 O  O1  1  0.00000  0.00000  0.78146  1
 O  O2  1  0.00000  0.00000  0.20612  1
 O  O3  1  0.50000  0.50000  0.50155  1
