CIF file written using JARVIS-Tools package.
data_RbMg6Al
_symmetry_space_group_name_H-M  'Amm2'
_cell_length_a       6.77294
_cell_length_b       7.8313
_cell_length_c       4.99113
_cell_angle_alpha    90
_cell_angle_beta     90
_cell_angle_gamma    125.322

_symmetry_Int_Tables_number  38
_chemical_formula_structural  RbMg6Al
_chemical_formula_sum  RbMg6Al
_cell_volume  216.00149426828298
_cell_formula_units_Z  1
loop_
  _symmetry_equiv_pos_site_id
 _symmetry_equiv_pos_as_xyz
 1  'x, y, z'
loop_
 _atom_site_type_symbol
 _atom_site_label
 _atom_site_symmetry_multiplicity
 _atom_site_fract_x
 _atom_site_fract_y
 _atom_site_fract_z
 _atom_site_fract_occupancy
 Al  Al1  1  0.10382  0.30192  0.25000  1
 Mg  Mg1  1  0.72226  0.40148  0.25000  1
 Mg  Mg2  1  0.72237  0.82086  0.25000  1
 Mg  Mg3  1  0.29321  0.20507  0.75000  1
 Mg  Mg4  1  0.29327  0.58814  0.75000  1
 Mg  Mg5  1  0.77378  0.13689  0.75000  1
 Mg  Mg6  1  0.81476  0.65741  0.75000  1
 Rb  Rb1  1  0.27654  0.88823  0.25000  1
