CIF file written using JARVIS-Tools package.
data_V3O4F2
_symmetry_space_group_name_H-M  'P2_1/c'
_cell_length_a       4.63579
_cell_length_b       4.63752
_cell_length_c       9.96794
_cell_angle_alpha    90
_cell_angle_beta     116.455
_cell_angle_gamma    90

_symmetry_Int_Tables_number  14
_chemical_formula_structural  V3O4F2
_chemical_formula_sum  V6O8F4
_cell_volume  191.85622089396728
_cell_formula_units_Z  2
loop_
  _symmetry_equiv_pos_site_id
 _symmetry_equiv_pos_as_xyz
 1  'x, y, z'
loop_
 _atom_site_type_symbol
 _atom_site_label
 _atom_site_symmetry_multiplicity
 _atom_site_fract_x
 _atom_site_fract_y
 _atom_site_fract_z
 _atom_site_fract_occupancy
 F  F1  1  0.96695  0.20711  0.17089  1
 F  F2  1  0.03305  0.79289  0.82911  1
 F  F3  1  0.03305  0.70711  0.32911  1
 F  F4  1  0.96695  0.29289  0.67089  1
 O  O1  1  0.63712  0.31404  0.33039  1
 O  O2  1  0.70874  0.80227  0.50042  1
 O  O3  1  0.36288  0.81404  0.16961  1
 O  O4  1  0.29126  0.30227  0.99958  1
 O  O5  1  0.70874  0.69773  0.00042  1
 O  O6  1  0.36288  0.68596  0.66961  1
 O  O7  1  0.29126  0.19773  0.49958  1
 O  O8  1  0.63712  0.18596  0.83039  1
 V  V1  1  -0.00000  0.50000  0.50000  1
 V  V2  1  0.61037  0.51240  0.15369  1
 V  V3  1  0.38963  0.48760  0.84631  1
 V  V4  1  0.38963  0.01240  0.34631  1
 V  V5  1  0.61037  0.98760  0.65369  1
 V  V6  1  0.00000  0.00000  0.00000  1
