CIF file written using JARVIS-Tools package.
data_BN
_symmetry_space_group_name_H-M  'Imm2'
_cell_length_a       2.66093
_cell_length_b       4.24139
_cell_length_c       4.30612
_cell_angle_alpha    119.504
_cell_angle_beta     107.997
_cell_angle_gamma    90

_symmetry_Int_Tables_number  44
_chemical_formula_structural  BN
_chemical_formula_sum  B3N3
_cell_volume  39.54177639656311
_cell_formula_units_Z  3
loop_
  _symmetry_equiv_pos_site_id
 _symmetry_equiv_pos_as_xyz
 1  'x, y, z'
loop_
 _atom_site_type_symbol
 _atom_site_label
 _atom_site_symmetry_multiplicity
 _atom_site_fract_x
 _atom_site_fract_y
 _atom_site_fract_z
 _atom_site_fract_occupancy
 B  B1  1  -0.00000  0.94940  -0.00000  1
 B  B2  1  0.19243  0.61677  0.38486  1
 B  B3  1  0.80757  0.23191  0.61514  1
 N  N1  1  0.80884  0.60134  0.61768  1
 N  N2  1  0.19116  0.98366  0.38232  1
 N  N3  1  0.00000  0.27693  0.00000  1
