CIF file written using JARVIS-Tools package.
data_SrSiO3
_symmetry_space_group_name_H-M  'P2_1/c'
_cell_length_a       6.11441
_cell_length_b       7.50884
_cell_length_c       12.1658
_cell_angle_alpha    96.4876
_cell_angle_beta     90
_cell_angle_gamma    90

_symmetry_Int_Tables_number  14
_chemical_formula_structural  SrSiO3
_chemical_formula_sum  Sr8Si8O24
_cell_volume  554.9818548611972
_cell_formula_units_Z  8
loop_
  _symmetry_equiv_pos_site_id
 _symmetry_equiv_pos_as_xyz
 1  'x, y, z'
loop_
 _atom_site_type_symbol
 _atom_site_label
 _atom_site_symmetry_multiplicity
 _atom_site_fract_x
 _atom_site_fract_y
 _atom_site_fract_z
 _atom_site_fract_occupancy
 O  O1  1  0.43939  0.77362  0.45755  1
 O  O2  1  0.58720  0.03720  0.34373  1
 O  O3  1  0.82567  0.34466  0.39931  1
 O  O4  1  0.11694  0.84297  0.85196  1
 O  O5  1  0.17609  0.79876  0.23217  1
 O  O6  1  0.87089  0.85168  0.45333  1
 O  O7  1  0.41280  0.96280  0.65627  1
 O  O8  1  0.08720  0.46280  0.15627  1
 O  O9  1  0.67609  0.70124  0.26783  1
 O  O10  1  0.82391  0.20124  0.76783  1
 O  O11  1  0.17433  0.65534  0.60069  1
 O  O12  1  0.93939  0.72638  0.04245  1
 O  O13  1  0.91280  0.53720  0.84373  1
 O  O14  1  0.32391  0.29876  0.73217  1
 O  O15  1  0.32567  0.15534  0.10069  1
 O  O16  1  0.06061  0.27362  0.95755  1
 O  O17  1  0.56061  0.22638  0.54245  1
 O  O18  1  0.67433  0.84466  0.89931  1
 O  O19  1  0.88306  0.15703  0.14804  1
 O  O20  1  0.38306  0.34297  0.35196  1
 O  O21  1  0.37089  0.64832  0.04667  1
 O  O22  1  0.12911  0.14832  0.54667  1
 O  O23  1  0.61694  0.65703  0.64804  1
 O  O24  1  0.62911  0.35168  0.95333  1
 Si  Si1  1  0.85076  0.33162  0.88139  1
 Si  Si2  1  0.58814  0.25147  0.40770  1
 Si  Si3  1  0.41185  0.74853  0.59230  1
 Si  Si4  1  0.08814  0.24853  0.09230  1
 Si  Si5  1  0.91186  0.75147  0.90770  1
 Si  Si6  1  0.14924  0.66838  0.11861  1
 Si  Si7  1  0.64924  0.83162  0.38139  1
 Si  Si8  1  0.35076  0.16838  0.61861  1
 Sr  Sr1  1  0.09889  0.58961  0.37439  1
 Sr  Sr2  1  0.40111  0.08961  0.87439  1
 Sr  Sr3  1  0.59189  0.41580  0.15932  1
 Sr  Sr4  1  0.90811  0.91580  0.65932  1
 Sr  Sr5  1  0.90111  0.41039  0.62561  1
 Sr  Sr6  1  0.59889  0.91039  0.12561  1
 Sr  Sr7  1  0.09189  0.08420  0.34068  1
 Sr  Sr8  1  0.40811  0.58420  0.84068  1
