CIF file written using JARVIS-Tools package.
data_Cu2P7
_symmetry_space_group_name_H-M  'C2/m'
_cell_length_a       7.32284
_cell_length_b       7.35754
_cell_length_c       14.6852
_cell_angle_alpha    76.0586
_cell_angle_beta     75.5623
_cell_angle_gamma    60.1559

_symmetry_Int_Tables_number  12
_chemical_formula_structural  Cu2P7
_chemical_formula_sum  Cu8P28
_cell_volume  658.1470374055193
_cell_formula_units_Z  4
loop_
  _symmetry_equiv_pos_site_id
 _symmetry_equiv_pos_as_xyz
 1  'x, y, z'
loop_
 _atom_site_type_symbol
 _atom_site_label
 _atom_site_symmetry_multiplicity
 _atom_site_fract_x
 _atom_site_fract_y
 _atom_site_fract_z
 _atom_site_fract_occupancy
 Cu  Cu1  1  0.96507  0.71745  0.35241  1
 Cu  Cu2  1  0.28119  0.01014  0.42749  1
 Cu  Cu3  1  0.71881  0.98986  0.57251  1
 Cu  Cu4  1  0.38390  0.43768  0.79452  1
 Cu  Cu5  1  0.03493  0.28255  0.64759  1
 Cu  Cu6  1  0.15634  0.65459  0.03274  1
 Cu  Cu7  1  0.84366  0.34541  0.96726  1
 Cu  Cu8  1  0.61610  0.56232  0.20548  1
 P  P1  1  0.97081  0.36497  0.22332  1
 P  P2  1  0.55910  0.63503  0.77668  1
 P  P3  1  0.02919  0.63503  0.77668  1
 P  P4  1  0.64294  0.16532  0.01937  1
 P  P5  1  0.44090  0.36497  0.22332  1
 P  P6  1  0.65370  0.64979  0.04281  1
 P  P7  1  0.89502  0.41287  0.79709  1
 P  P8  1  0.10498  0.58713  0.20291  1
 P  P9  1  0.44262  0.22150  0.37729  1
 P  P10  1  0.34630  0.35021  0.95719  1
 P  P11  1  0.52867  0.29769  0.64498  1
 P  P12  1  0.22442  0.95789  0.59328  1
 P  P13  1  0.04141  0.77850  0.62271  1
 P  P14  1  0.45953  0.93563  0.82885  1
 P  P15  1  0.47133  0.70231  0.35502  1
 P  P16  1  0.95859  0.22150  0.37729  1
 P  P17  1  0.77558  0.04211  0.40672  1
 P  P18  1  0.17236  0.16532  0.01937  1
 P  P19  1  0.27142  0.54224  0.42165  1
 P  P20  1  0.23531  0.45776  0.57835  1
 P  P21  1  0.72858  0.45776  0.57835  1
 P  P22  1  0.76469  0.54224  0.42165  1
 P  P23  1  0.54047  0.06437  0.17115  1
 P  P24  1  0.77600  0.93563  0.82885  1
 P  P25  1  0.35706  0.83468  0.98063  1
 P  P26  1  0.22400  0.06437  0.17115  1
 P  P27  1  0.55738  0.77850  0.62271  1
 P  P28  1  0.82764  0.83468  0.98063  1
