CIF file written using JARVIS-Tools package.
data_ScBePt4
_symmetry_space_group_name_H-M  'F-43m'
_cell_length_a       5.24509
_cell_length_b       5.24509
_cell_length_c       5.24509
_cell_angle_alpha    60
_cell_angle_beta     60
_cell_angle_gamma    60

_symmetry_Int_Tables_number  216
_chemical_formula_structural  ScBePt4
_chemical_formula_sum  ScBePt4
_cell_volume  102.03403537600315
_cell_formula_units_Z  1
loop_
  _symmetry_equiv_pos_site_id
 _symmetry_equiv_pos_as_xyz
 1  'x, y, z'
loop_
 _atom_site_type_symbol
 _atom_site_label
 _atom_site_symmetry_multiplicity
 _atom_site_fract_x
 _atom_site_fract_y
 _atom_site_fract_z
 _atom_site_fract_occupancy
 Be  Be1  1  0.00000  0.00000  0.00000  1
 Pt  Pt1  1  0.37448  0.37448  0.37448  1
 Pt  Pt2  1  0.37448  0.87657  0.37448  1
 Pt  Pt3  1  0.37448  0.37448  0.87657  1
 Pt  Pt4  1  0.87657  0.37448  0.37448  1
 Sc  Sc1  1  0.75000  0.75000  0.75000  1
