CIF file written using JARVIS-Tools package.
data_KMg6Nb
_symmetry_space_group_name_H-M  'P4/mmm'
_cell_length_a       6.58306
_cell_length_b       9.30961
_cell_length_c       4.52301
_cell_angle_alpha    90
_cell_angle_beta     90
_cell_angle_gamma    134.999

_symmetry_Int_Tables_number  123
_chemical_formula_structural  KMg6Nb
_chemical_formula_sum  KMg6Nb
_cell_volume  196.01244138024688
_cell_formula_units_Z  1
loop_
  _symmetry_equiv_pos_site_id
 _symmetry_equiv_pos_as_xyz
 1  'x, y, z'
loop_
 _atom_site_type_symbol
 _atom_site_label
 _atom_site_symmetry_multiplicity
 _atom_site_fract_x
 _atom_site_fract_y
 _atom_site_fract_z
 _atom_site_fract_occupancy
 K  K1  1  0.24997  0.37498  0.25000  1
 Mg  Mg1  1  0.75002  0.37505  0.25000  1
 Mg  Mg2  1  0.75002  0.87497  0.25000  1
 Mg  Mg3  1  0.25000  0.09425  0.75000  1
 Mg  Mg4  1  0.25000  0.65576  0.75000  1
 Mg  Mg5  1  0.68844  0.09422  0.75000  1
 Mg  Mg6  1  0.81157  0.65578  0.75000  1
 Nb  Nb1  1  0.24999  0.87500  0.25000  1
