CIF file written using JARVIS-Tools package.
data_PrGe2
_symmetry_space_group_name_H-M  'I4_1/amd'
_cell_length_a       4.19383
_cell_length_b       4.19267
_cell_length_c       8.64081
_cell_angle_alpha    104.04
_cell_angle_beta     104.044
_cell_angle_gamma    90

_symmetry_Int_Tables_number  141
_chemical_formula_structural  PrGe2
_chemical_formula_sum  Pr2Ge4
_cell_volume  142.70924212160742
_cell_formula_units_Z  2
loop_
  _symmetry_equiv_pos_site_id
 _symmetry_equiv_pos_as_xyz
 1  'x, y, z'
loop_
 _atom_site_type_symbol
 _atom_site_label
 _atom_site_symmetry_multiplicity
 _atom_site_fract_x
 _atom_site_fract_y
 _atom_site_fract_z
 _atom_site_fract_occupancy
 Ge  Ge1  1  0.04505  0.79505  0.09009  1
 Ge  Ge2  1  0.95495  0.20495  0.90991  1
 Ge  Ge3  1  0.20500  0.95500  0.40999  1
 Ge  Ge4  1  0.79500  0.04500  0.59001  1
 Pr  Pr1  1  0.62501  0.37501  0.25001  1
 Pr  Pr2  1  0.37499  0.62499  0.74999  1
