CIF file written using JARVIS-Tools package.
data_Ga2Ir
_symmetry_space_group_name_H-M  'Cmcm'
_cell_length_a       3.91435
_cell_length_b       6.86807
_cell_length_c       11.0274
_cell_angle_alpha    90
_cell_angle_beta     90
_cell_angle_gamma    106.557

_symmetry_Int_Tables_number  63
_chemical_formula_structural  Ga2Ir
_chemical_formula_sum  Ga2Ir6
_cell_volume  284.16878408140064
_cell_formula_units_Z  6
loop_
  _symmetry_equiv_pos_site_id
 _symmetry_equiv_pos_as_xyz
 1  'x, y, z'
loop_
 _atom_site_type_symbol
 _atom_site_label
 _atom_site_symmetry_multiplicity
 _atom_site_fract_x
 _atom_site_fract_y
 _atom_site_fract_z
 _atom_site_fract_occupancy
 Ga  Ga1  1  0.44211  0.88423  0.60540  1
 Ga  Ga2  1  0.17845  0.35689  0.48127  1
 Ga  Ga3  1  0.55789  0.11577  0.39460  1
 Ga  Ga4  1  0.55789  0.11577  0.10540  1
 Ga  Ga5  1  0.82155  0.64311  0.51873  1
 Ga  Ga6  1  0.04170  0.08339  0.75000  1
 Ga  Ga7  1  0.44211  0.88423  0.89460  1
 Ga  Ga8  1  0.76582  0.53164  0.25000  1
 Ga  Ga9  1  0.95830  0.91661  0.25000  1
 Ga  Ga10  1  0.82155  0.64311  0.98127  1
 Ga  Ga11  1  0.17845  0.35689  0.01873  1
 Ga  Ga12  1  0.23418  0.46836  0.75000  1
 Ir  Ir1  1  0.63996  0.27992  0.87803  1
 Ir  Ir2  1  0.14666  0.29331  0.25000  1
 Ir  Ir3  1  0.63996  0.27992  0.62197  1
 Ir  Ir4  1  0.36004  0.72008  0.37803  1
 Ir  Ir5  1  0.36004  0.72008  0.12197  1
 Ir  Ir6  1  0.85334  0.70669  0.75000  1
