CIF file written using JARVIS-Tools package.
data_K2W2O7
_symmetry_space_group_name_H-M  'P2_1/c'
_cell_length_a       3.89923
_cell_length_b       6.07602
_cell_length_c       13.6911
_cell_angle_alpha    90
_cell_angle_beta     90
_cell_angle_gamma    90.3111

_symmetry_Int_Tables_number  14
_chemical_formula_structural  K2W2O7
_chemical_formula_sum  K4W4O4
_cell_volume  324.3620971542392
_cell_formula_units_Z  2
loop_
  _symmetry_equiv_pos_site_id
 _symmetry_equiv_pos_as_xyz
 1  'x, y, z'
loop_
 _atom_site_type_symbol
 _atom_site_label
 _atom_site_symmetry_multiplicity
 _atom_site_fract_x
 _atom_site_fract_y
 _atom_site_fract_z
 _atom_site_fract_occupancy
 K  K1  1  0.00915  0.33012  0.33123  1
 K  K2  1  0.99085  0.16988  0.83123  1
 K  K3  1  0.99085  0.66988  0.66877  1
 K  K4  1  0.00915  0.83012  0.16877  1
 O  O1  1  0.50389  0.68739  0.30962  1
 O  O2  1  0.50389  0.18739  0.19038  1
 O  O3  1  0.49611  0.31261  0.69038  1
 O  O4  1  0.50285  0.58872  0.08306  1
 O  O5  1  0.49715  0.91128  0.58306  1
 O  O6  1  0.49715  0.41128  0.91694  1
 O  O7  1  0.50285  0.08872  0.41694  1
 O  O8  1  0.50000  0.50000  0.50000  1
 O  O9  1  0.98990  0.72416  0.94409  1
 O  O10  1  0.50000  0.00000  0.00000  1
 O  O11  1  0.01009  0.77584  0.44409  1
 O  O12  1  0.01010  0.27584  0.05591  1
 O  O13  1  0.49611  0.81261  0.80962  1
 O  O14  1  0.98991  0.22416  0.55591  1
 W  W1  1  0.53867  0.78350  0.43269  1
 W  W2  1  0.46133  0.21650  0.56731  1
 W  W3  1  0.53867  0.28350  0.06731  1
 W  W4  1  0.46133  0.71650  0.93269  1
