CIF file written using JARVIS-Tools package.
data_Mg6CoSb
_symmetry_space_group_name_H-M  'Amm2'
_cell_length_a       6.40403
_cell_length_b       6.40403
_cell_length_c       4.77158
_cell_angle_alpha    90
_cell_angle_beta     90
_cell_angle_gamma    121.946

_symmetry_Int_Tables_number  38
_chemical_formula_structural  Mg6CoSb
_chemical_formula_sum  Mg6CoSb
_cell_volume  166.05278284048305
_cell_formula_units_Z  1
loop_
  _symmetry_equiv_pos_site_id
 _symmetry_equiv_pos_as_xyz
 1  'x, y, z'
loop_
 _atom_site_type_symbol
 _atom_site_label
 _atom_site_symmetry_multiplicity
 _atom_site_fract_x
 _atom_site_fract_y
 _atom_site_fract_z
 _atom_site_fract_occupancy
 Co  Co1  1  0.12146  0.37854  0.25000  1
 Mg  Mg1  1  0.16725  0.81284  0.25000  1
 Mg  Mg2  1  0.68716  0.33275  0.25000  1
 Mg  Mg3  1  0.66855  0.83145  0.25000  1
 Mg  Mg4  1  0.32720  0.63620  0.75000  1
 Mg  Mg5  1  0.86380  0.17280  0.75000  1
 Mg  Mg6  1  0.83272  0.66728  0.75000  1
 Sb  Sb1  1  0.33185  0.16815  0.75000  1
