CIF file written using JARVIS-Tools package.
data_Na2CuH4O4
_symmetry_space_group_name_H-M  'Pna2_1'
_cell_length_a       6.70979
_cell_length_b       6.67286
_cell_length_c       9.01835
_cell_angle_alpha    90
_cell_angle_beta     90
_cell_angle_gamma    90

_symmetry_Int_Tables_number  33
_chemical_formula_structural  Na2CuH4O4
_chemical_formula_sum  Na8Cu4H6O6
_cell_volume  403.7832197576563
_cell_formula_units_Z  4
loop_
  _symmetry_equiv_pos_site_id
 _symmetry_equiv_pos_as_xyz
 1  'x, y, z'
loop_
 _atom_site_type_symbol
 _atom_site_label
 _atom_site_symmetry_multiplicity
 _atom_site_fract_x
 _atom_site_fract_y
 _atom_site_fract_z
 _atom_site_fract_occupancy
 Cu  Cu1  1  0.73212  0.99302  0.49874  1
 Cu  Cu2  1  0.76788  0.49302  0.99874  1
 Cu  Cu3  1  0.26788  0.00698  0.99874  1
 Cu  Cu4  1  0.23212  0.50698  0.49874  1
 H  H1  1  0.51181  0.71068  0.09987  1
 H  H2  1  0.48819  0.28932  0.59987  1
 H  H3  1  -0.00105  0.23949  0.90236  1
 H  H4  1  0.00105  0.76051  0.40236  1
 H  H5  1  0.50105  0.73949  0.40236  1
 H  H6  1  0.49895  0.26051  0.90236  1
 H  H7  1  0.26858  0.83573  0.23880  1
 H  H8  1  0.76858  0.66427  0.23880  1
 H  H9  1  0.73142  0.16427  0.73880  1
 H  H10  1  0.59076  0.95766  0.25472  1
 H  H11  1  0.40924  0.04234  0.75472  1
 H  H12  1  0.90924  0.45766  0.75472  1
 H  H13  1  0.09076  0.54234  0.25472  1
 H  H14  1  0.23142  0.33573  0.73880  1
 H  H15  1  0.98819  0.21068  0.59987  1
 H  H16  1  0.01181  0.78932  0.09987  1
 Na  Na1  1  0.99819  0.79500  0.74826  1
 Na  Na2  1  0.74200  0.99432  0.99818  1
 Na  Na3  1  0.24200  0.50568  0.99818  1
 Na  Na4  1  0.75800  0.49432  0.49818  1
 Na  Na5  1  0.49819  0.70500  0.74826  1
 Na  Na6  1  0.50181  0.29500  0.24826  1
 Na  Na7  1  0.00181  0.20500  0.24826  1
 Na  Na8  1  0.25800  0.00568  0.49818  1
 O  O1  1  0.70550  0.02045  0.72171  1
 O  O2  1  0.53229  0.77967  0.50390  1
 O  O3  1  0.76565  0.47751  0.77491  1
 O  O4  1  0.23435  0.52249  0.27491  1
 O  O5  1  0.73435  0.97751  0.27491  1
 O  O6  1  0.79450  0.52045  0.22171  1
 O  O7  1  0.20550  0.47955  0.72171  1
 O  O8  1  0.44772  0.30787  0.49674  1
 O  O9  1  0.29450  0.97955  0.22171  1
 O  O10  1  0.55228  0.69213  0.99674  1
 O  O11  1  0.94772  0.19213  0.49674  1
 O  O12  1  0.05228  0.80787  0.99674  1
 O  O13  1  0.96771  0.27967  0.00390  1
 O  O14  1  0.03229  0.72033  0.50390  1
 O  O15  1  0.26565  0.02249  0.77491  1
 O  O16  1  0.46771  0.22033  0.00390  1
