CIF file written using JARVIS-Tools package.
data_Cu2SiTe3
_symmetry_space_group_name_H-M  'Cc'
_cell_length_a       7.29706
_cell_length_b       7.32728
_cell_length_c       7.33297
_cell_angle_alpha    80.6825
_cell_angle_beta     60.1626
_cell_angle_gamma    71.0094

_symmetry_Int_Tables_number  9
_chemical_formula_structural  Cu2SiTe3
_chemical_formula_sum  Cu4Si2Te6
_cell_volume  321.5919228003025
_cell_formula_units_Z  2
loop_
  _symmetry_equiv_pos_site_id
 _symmetry_equiv_pos_as_xyz
 1  'x, y, z'
loop_
 _atom_site_type_symbol
 _atom_site_label
 _atom_site_symmetry_multiplicity
 _atom_site_fract_x
 _atom_site_fract_y
 _atom_site_fract_z
 _atom_site_fract_occupancy
 Cu  Cu1  1  0.98716  0.00674  0.00334  1
 Cu  Cu2  1  0.34123  0.00118  0.32681  1
 Cu  Cu3  1  0.15711  0.50669  0.66362  1
 Cu  Cu4  1  0.83455  0.50117  0.34019  1
 Si  Si1  1  0.68147  0.98572  0.66322  1
 Si  Si2  1  0.51122  0.48575  0.00373  1
 Te  Te1  1  0.37009  0.87129  0.00132  1
 Te  Te2  1  0.05076  0.87920  0.66328  1
 Te  Te3  1  0.88057  0.37923  0.00367  1
 Te  Te4  1  0.70900  0.87223  0.33712  1
 Te  Te5  1  0.53797  0.37127  0.66564  1
 Te  Te6  1  0.21267  0.37224  0.32982  1
