CIF file written using JARVIS-Tools package.
data_Fe6O7F5
_symmetry_space_group_name_H-M  'P1'
_cell_length_a       5.50127
_cell_length_b       5.45837
_cell_length_c       7.19954
_cell_angle_alpha    71.5493
_cell_angle_beta     71.4868
_cell_angle_gamma    71.7976

_symmetry_Int_Tables_number  1
_chemical_formula_structural  Fe6O7F5
_chemical_formula_sum  Fe6O7F5
_cell_volume  188.99004560534635
_cell_formula_units_Z  1
loop_
  _symmetry_equiv_pos_site_id
 _symmetry_equiv_pos_as_xyz
 1  'x, y, z'
loop_
 _atom_site_type_symbol
 _atom_site_label
 _atom_site_symmetry_multiplicity
 _atom_site_fract_x
 _atom_site_fract_y
 _atom_site_fract_z
 _atom_site_fract_occupancy
 F  F1  1  0.27474  0.71459  0.00718  1
 F  F2  1  0.12787  0.10341  0.69418  1
 F  F3  1  0.06208  0.63712  0.65572  1
 F  F4  1  0.89683  0.89428  0.30047  1
 F  F5  1  0.42451  0.41454  0.37376  1
 Fe  Fe1  1  0.31570  0.30241  0.16016  1
 Fe  Fe2  1  0.00997  0.01361  0.49206  1
 Fe  Fe3  1  0.66305  0.67658  0.83382  1
 Fe  Fe4  1  0.38745  0.32676  0.68987  1
 Fe  Fe5  1  0.65917  0.66236  0.32196  1
 Fe  Fe6  1  0.95558  0.03137  0.99341  1
 O  O1  1  0.67232  0.31540  0.00345  1
 O  O2  1  0.96100  0.35359  0.33593  1
 O  O3  1  0.21948  0.23638  0.96526  1
 O  O4  1  0.75811  0.76807  0.03134  1
 O  O5  1  0.35673  0.95195  0.33685  1
 O  O6  1  0.58333  0.57410  0.63715  1
 O  O7  1  0.67210  0.02348  0.66745  1
