CIF file written using JARVIS-Tools package.
data_LaNdN2
_symmetry_space_group_name_H-M  'R-3m'
_cell_length_a       6.41313
_cell_length_b       6.41313
_cell_length_c       6.41313
_cell_angle_alpha    33.5085
_cell_angle_beta     33.5086
_cell_angle_gamma    33.5085

_symmetry_Int_Tables_number  166
_chemical_formula_structural  LaNdN2
_chemical_formula_sum  LaNdN2
_cell_volume  71.59640487734028
_cell_formula_units_Z  1
loop_
  _symmetry_equiv_pos_site_id
 _symmetry_equiv_pos_as_xyz
 1  'x, y, z'
loop_
 _atom_site_type_symbol
 _atom_site_label
 _atom_site_symmetry_multiplicity
 _atom_site_fract_x
 _atom_site_fract_y
 _atom_site_fract_z
 _atom_site_fract_occupancy
 La  La1  1  0.50000  0.50000  0.50000  1
 N  N1  1  0.25149  0.25149  0.25149  1
 N  N2  1  0.74851  0.74851  0.74851  1
 Nd  Nd1  1  0.00000  0.00000  0.00000  1
