CIF file written using JARVIS-Tools package.
data_CeCoSi3
_symmetry_space_group_name_H-M  'I4mm'
_cell_length_a       4.14105
_cell_length_b       4.14105
_cell_length_c       5.59233
_cell_angle_alpha    111.731
_cell_angle_beta     111.731
_cell_angle_gamma    90

_symmetry_Int_Tables_number  107
_chemical_formula_structural  CeCoSi3
_chemical_formula_sum  CeCoSi3
_cell_volume  81.70229254120078
_cell_formula_units_Z  1
loop_
  _symmetry_equiv_pos_site_id
 _symmetry_equiv_pos_as_xyz
 1  'x, y, z'
loop_
 _atom_site_type_symbol
 _atom_site_label
 _atom_site_symmetry_multiplicity
 _atom_site_fract_x
 _atom_site_fract_y
 _atom_site_fract_z
 _atom_site_fract_occupancy
 Ce  Ce1  1  -0.00013  -0.00013  -0.00025  1
 Co  Co1  1  0.66251  0.66251  0.32502  1
 Si  Si1  1  0.42668  0.42668  0.85337  1
 Si  Si2  1  0.75997  0.25997  0.51993  1
 Si  Si3  1  0.25997  0.75997  0.51993  1
