CIF file written using JARVIS-Tools package.
data_SrAg4Sb2
_symmetry_space_group_name_H-M  'R-3m'
_cell_length_a       4.76904
_cell_length_b       4.76904
_cell_length_c       8.8172
_cell_angle_alpha    74.3096
_cell_angle_beta     74.3096
_cell_angle_gamma    60

_symmetry_Int_Tables_number  166
_chemical_formula_structural  SrAg4Sb2
_chemical_formula_sum  SrAg4Sb2
_cell_volume  164.98407767075688
_cell_formula_units_Z  1
loop_
  _symmetry_equiv_pos_site_id
 _symmetry_equiv_pos_as_xyz
 1  'x, y, z'
loop_
 _atom_site_type_symbol
 _atom_site_label
 _atom_site_symmetry_multiplicity
 _atom_site_fract_x
 _atom_site_fract_y
 _atom_site_fract_z
 _atom_site_fract_occupancy
 Ag  Ag1  1  0.14317  0.14317  0.57048  1
 Ag  Ag2  1  0.85683  0.85683  0.42952  1
 Ag  Ag3  1  0.43502  0.43502  0.69493  1
 Ag  Ag4  1  0.56498  0.56498  0.30507  1
 Sb  Sb1  1  0.25651  0.25651  0.23046  1
 Sb  Sb2  1  0.74349  0.74349  0.76954  1
 Sr  Sr1  1  0.00000  0.00000  0.00000  1
