CIF file written using JARVIS-Tools package.
data_Ba3SrAg4
_symmetry_space_group_name_H-M  'Pm'
_cell_length_a       4.95159
_cell_length_b       6.53013
_cell_length_c       8.51961
_cell_angle_alpha    89.2174
_cell_angle_beta     90
_cell_angle_gamma    90

_symmetry_Int_Tables_number  6
_chemical_formula_structural  Ba3SrAg4
_chemical_formula_sum  Ba3SrAg4
_cell_volume  275.4514900213479
_cell_formula_units_Z  1
loop_
  _symmetry_equiv_pos_site_id
 _symmetry_equiv_pos_as_xyz
 1  'x, y, z'
loop_
 _atom_site_type_symbol
 _atom_site_label
 _atom_site_symmetry_multiplicity
 _atom_site_fract_x
 _atom_site_fract_y
 _atom_site_fract_z
 _atom_site_fract_occupancy
 Ag  Ag1  1  0.50000  0.62133  0.54106  1
 Ag  Ag2  1  0.50000  0.88377  0.02899  1
 Ag  Ag3  1  0.00000  0.36589  0.47312  1
 Ag  Ag4  1  0.00000  0.12585  0.95390  1
 Ba  Ba1  1  0.50000  0.36747  0.18262  1
 Ba  Ba2  1  0.00000  0.86704  0.32144  1
 Ba  Ba3  1  0.00000  0.63420  0.81769  1
 Sr  Sr1  1  0.50000  0.13444  0.68118  1
