CIF file written using JARVIS-Tools package.
data_Cu3BiSe2ClO8
_symmetry_space_group_name_H-M  'Pmmn'
_cell_length_a       6.39052
_cell_length_b       7.21407
_cell_length_c       9.72859
_cell_angle_alpha    90
_cell_angle_beta     90
_cell_angle_gamma    90

_symmetry_Int_Tables_number  59
_chemical_formula_structural  Cu3BiSe2ClO8
_chemical_formula_sum  Cu6Bi2Se4Cl2O6
_cell_volume  448.50421457915576
_cell_formula_units_Z  2
loop_
  _symmetry_equiv_pos_site_id
 _symmetry_equiv_pos_as_xyz
 1  'x, y, z'
loop_
 _atom_site_type_symbol
 _atom_site_label
 _atom_site_symmetry_multiplicity
 _atom_site_fract_x
 _atom_site_fract_y
 _atom_site_fract_z
 _atom_site_fract_occupancy
 Bi  Bi1  1  0.75000  0.74517  0.75000  1
 Bi  Bi2  1  0.25000  0.25483  0.25000  1
 Cl  Cl1  1  0.25000  0.15574  0.75000  1
 Cl  Cl2  1  0.75000  0.84426  0.25000  1
 Cu  Cu1  1  0.00000  0.00000  0.00000  1
 Cu  Cu2  1  0.50000  0.00000  0.00000  1
 Cu  Cu3  1  0.50000  0.00000  0.50000  1
 Cu  Cu4  1  0.00000  0.00000  0.50000  1
 Cu  Cu5  1  0.75000  0.20742  0.75000  1
 Cu  Cu6  1  0.25000  0.79258  0.25000  1
 O  O1  1  0.75000  0.00950  0.88697  1
 O  O2  1  0.46105  0.75012  0.58391  1
 O  O3  1  0.96105  0.24988  0.41609  1
 O  O4  1  0.25000  0.99050  0.11303  1
 O  O5  1  0.75000  0.00950  0.61303  1
 O  O6  1  0.03895  0.75012  0.91609  1
 O  O7  1  0.75000  0.41639  0.61805  1
 O  O8  1  0.25000  0.99050  0.38697  1
 O  O9  1  0.53895  0.24988  0.41609  1
 O  O10  1  0.03895  0.75012  0.58391  1
 O  O11  1  0.96105  0.24988  0.08391  1
 O  O12  1  0.75000  0.41639  0.88195  1
 O  O13  1  0.25000  0.58361  0.11805  1
 O  O14  1  0.53895  0.24988  0.08391  1
 O  O15  1  0.46105  0.75012  0.91609  1
 O  O16  1  0.25000  0.58361  0.38195  1
 Se  Se1  1  0.25000  0.60118  0.55808  1
 Se  Se2  1  0.75000  0.39882  0.44192  1
 Se  Se3  1  0.75000  0.39882  0.05808  1
 Se  Se4  1  0.25000  0.60118  0.94192  1
