CIF file written using JARVIS-Tools package.
data_YbAg2
_symmetry_space_group_name_H-M  'Imma'
_cell_length_a       4.62949
_cell_length_b       5.85756
_cell_length_c       5.85757
_cell_angle_alpha    73.3796
_cell_angle_beta     66.7232
_cell_angle_gamma    66.7233

_symmetry_Int_Tables_number  74
_chemical_formula_structural  YbAg2
_chemical_formula_sum  Yb2Ag4
_cell_volume  132.44089622921786
_cell_formula_units_Z  2
loop_
  _symmetry_equiv_pos_site_id
 _symmetry_equiv_pos_as_xyz
 1  'x, y, z'
loop_
 _atom_site_type_symbol
 _atom_site_label
 _atom_site_symmetry_multiplicity
 _atom_site_fract_x
 _atom_site_fract_y
 _atom_site_fract_z
 _atom_site_fract_occupancy
 Ag  Ag1  1  0.83769  0.12096  0.20366  1
 Ag  Ag2  1  0.16231  0.29633  0.37904  1
 Ag  Ag3  1  0.16231  0.87904  0.79633  1
 Ag  Ag4  1  0.83769  0.70367  0.62096  1
 Yb  Yb1  1  0.54060  0.70940  0.20940  1
 Yb  Yb2  1  0.45940  0.29060  0.79060  1
