CIF file written using JARVIS-Tools package.
data_NpSe3
_symmetry_space_group_name_H-M  'I4/mmm'
_cell_length_a       5.86089
_cell_length_b       5.86089
_cell_length_c       5.86088
_cell_angle_alpha    138.7
_cell_angle_beta     138.7
_cell_angle_gamma    59.8328

_symmetry_Int_Tables_number  139
_chemical_formula_structural  NpSe3
_chemical_formula_sum  NpSe3
_cell_volume  86.80740577516592
_cell_formula_units_Z  1
loop_
  _symmetry_equiv_pos_site_id
 _symmetry_equiv_pos_as_xyz
 1  'x, y, z'
loop_
 _atom_site_type_symbol
 _atom_site_label
 _atom_site_symmetry_multiplicity
 _atom_site_fract_x
 _atom_site_fract_y
 _atom_site_fract_z
 _atom_site_fract_occupancy
 Np  Np1  1  0.00000  0.00000  0.00000  1
 Se  Se1  1  0.75000  0.25000  0.50000  1
 Se  Se2  1  0.25000  0.75000  0.50000  1
 Se  Se3  1  0.50000  0.50000  0.00000  1
