CIF file written using JARVIS-Tools package.
data_ThSi3Ru
_symmetry_space_group_name_H-M  'I4mm'
_cell_length_a       4.27376
_cell_length_b       4.27376
_cell_length_c       5.81813
_cell_angle_alpha    111.548
_cell_angle_beta     111.548
_cell_angle_gamma    90

_symmetry_Int_Tables_number  107
_chemical_formula_structural  ThSi3Ru
_chemical_formula_sum  ThSi3Ru
_cell_volume  90.80890963789372
_cell_formula_units_Z  1
loop_
  _symmetry_equiv_pos_site_id
 _symmetry_equiv_pos_as_xyz
 1  'x, y, z'
loop_
 _atom_site_type_symbol
 _atom_site_label
 _atom_site_symmetry_multiplicity
 _atom_site_fract_x
 _atom_site_fract_y
 _atom_site_fract_z
 _atom_site_fract_occupancy
 Ru  Ru1  1  0.65588  0.65588  0.31176  1
 Si  Si1  1  0.41853  0.41853  0.83706  1
 Si  Si2  1  0.76185  0.26185  0.52371  1
 Si  Si3  1  0.26185  0.76185  0.52371  1
 Th  Th1  1  0.99588  0.99588  0.99177  1
