CIF file written using JARVIS-Tools package.
data_KHfMg6
_symmetry_space_group_name_H-M  'P4/mmm'
_cell_length_a       6.64227
_cell_length_b       9.39589
_cell_length_c       4.6517
_cell_angle_alpha    90
_cell_angle_beta     90
_cell_angle_gamma    135.014

_symmetry_Int_Tables_number  123
_chemical_formula_structural  KHfMg6
_chemical_formula_sum  KHfMg6
_cell_volume  205.23201841999838
_cell_formula_units_Z  1
loop_
  _symmetry_equiv_pos_site_id
 _symmetry_equiv_pos_as_xyz
 1  'x, y, z'
loop_
 _atom_site_type_symbol
 _atom_site_label
 _atom_site_symmetry_multiplicity
 _atom_site_fract_x
 _atom_site_fract_y
 _atom_site_fract_z
 _atom_site_fract_occupancy
 Hf  Hf1  1  0.24999  0.87500  0.25000  1
 K  K1  1  0.24996  0.37498  0.25000  1
 Mg  Mg1  1  0.75001  0.37501  0.25000  1
 Mg  Mg2  1  0.75001  0.87500  0.25000  1
 Mg  Mg3  1  0.25001  0.10026  0.75000  1
 Mg  Mg4  1  0.25001  0.64974  0.75000  1
 Mg  Mg5  1  0.70073  0.10037  0.75000  1
 Mg  Mg6  1  0.79928  0.64964  0.75000  1
