CIF file written using JARVIS-Tools package.
data_BaNa4O3
_symmetry_space_group_name_H-M  'Cc'
_cell_length_a       5.96335
_cell_length_b       9.00774
_cell_length_c       5.6547
_cell_angle_alpha    90.3956
_cell_angle_beta     88.8046
_cell_angle_gamma    109.33

_symmetry_Int_Tables_number  9
_chemical_formula_structural  BaNa4O3
_chemical_formula_sum  Ba2Na8O6
_cell_volume  286.5632694077249
_cell_formula_units_Z  2
loop_
  _symmetry_equiv_pos_site_id
 _symmetry_equiv_pos_as_xyz
 1  'x, y, z'
loop_
 _atom_site_type_symbol
 _atom_site_label
 _atom_site_symmetry_multiplicity
 _atom_site_fract_x
 _atom_site_fract_y
 _atom_site_fract_z
 _atom_site_fract_occupancy
 Ba  Ba1  1  0.16382  0.31212  0.25127  1
 Ba  Ba2  1  0.85170  0.68788  0.75127  1
 Na  Na1  1  0.47170  0.98589  0.77840  1
 Na  Na2  1  -0.00097  0.08333  0.73121  1
 Na  Na3  1  0.31296  0.61472  0.77764  1
 Na  Na4  1  0.33950  0.68956  0.27903  1
 Na  Na5  1  0.64994  0.31044  0.77903  1
 Na  Na6  1  0.48581  0.01411  0.27840  1
 Na  Na7  1  0.91570  0.91667  0.23121  1
 Na  Na8  1  0.69824  0.38528  0.27764  1
 O  O1  1  0.18645  0.83166  0.02547  1
 O  O2  1  0.01186  0.49372  0.52039  1
 O  O3  1  0.35479  0.16834  0.52547  1
 O  O4  1  0.63840  0.84807  0.52928  1
 O  O5  1  0.51814  0.50628  0.02039  1
 O  O6  1  0.79033  0.15193  0.02928  1
