CIF file written using JARVIS-Tools package.
data_HfMg6Mo
_symmetry_space_group_name_H-M  'Amm2'
_cell_length_a       6.33288
_cell_length_b       5.77827
_cell_length_c       5.02297
_cell_angle_alpha    90
_cell_angle_beta     90
_cell_angle_gamma    117.143

_symmetry_Int_Tables_number  38
_chemical_formula_structural  HfMg6Mo
_chemical_formula_sum  HfMg6Mo
_cell_volume  163.56361481894658
_cell_formula_units_Z  1
loop_
  _symmetry_equiv_pos_site_id
 _symmetry_equiv_pos_as_xyz
 1  'x, y, z'
loop_
 _atom_site_type_symbol
 _atom_site_label
 _atom_site_symmetry_multiplicity
 _atom_site_fract_x
 _atom_site_fract_y
 _atom_site_fract_z
 _atom_site_fract_occupancy
 Hf  Hf1  1  0.15045  0.82522  0.25000  1
 Mg  Mg1  1  0.65030  0.32537  0.25000  1
 Mg  Mg2  1  0.65030  0.82494  0.25000  1
 Mg  Mg3  1  0.33237  0.17278  0.75000  1
 Mg  Mg4  1  0.33237  0.65960  0.75000  1
 Mg  Mg5  1  0.87868  0.18934  0.75000  1
 Mg  Mg6  1  0.84925  0.67463  0.75000  1
 Mo  Mo1  1  0.15626  0.32813  0.25000  1
