CIF file written using JARVIS-Tools package.
data_H8C3O2
_symmetry_space_group_name_H-M  'P2_1/c'
_cell_length_a       6.03765
_cell_length_b       7.82959
_cell_length_c       9.03334
_cell_angle_alpha    90
_cell_angle_beta     108.673
_cell_angle_gamma    90

_symmetry_Int_Tables_number  14
_chemical_formula_structural  H8C3O2
_chemical_formula_sum  H32C2O8
_cell_volume  404.54883611516254
_cell_formula_units_Z  4
loop_
  _symmetry_equiv_pos_site_id
 _symmetry_equiv_pos_as_xyz
 1  'x, y, z'
loop_
 _atom_site_type_symbol
 _atom_site_label
 _atom_site_symmetry_multiplicity
 _atom_site_fract_x
 _atom_site_fract_y
 _atom_site_fract_z
 _atom_site_fract_occupancy
 C  C1  1  0.74286  0.16973  0.01239  1
 C  C2  1  0.89417  0.69930  0.26824  1
 C  C3  1  0.75714  0.66973  0.48761  1
 C  C4  1  0.68683  0.58524  0.85321  1
 C  C5  1  0.18683  0.91476  0.35321  1
 C  C6  1  0.31317  0.41476  0.14679  1
 C  C7  1  0.39417  0.80070  0.76824  1
 C  C8  1  0.10583  0.30070  0.73176  1
 C  C9  1  0.60583  0.19930  0.23176  1
 C  C10  1  0.24286  0.33027  0.51239  1
 C  C11  1  0.81317  0.08524  0.64679  1
 C  C12  1  0.25714  0.83027  0.98761  1
 H  H1  1  0.41333  0.79234  0.08450  1
 H  H2  1  0.62745  0.51933  0.94150  1
 H  H3  1  0.39988  0.29785  0.48217  1
 H  H4  1  0.87760  0.57490  0.88477  1
 H  H5  1  0.10012  0.79785  0.01783  1
 H  H6  1  0.89988  0.20215  0.98217  1
 H  H7  1  0.91333  0.70766  0.58450  1
 H  H8  1  0.60678  0.52309  0.73892  1
 H  H9  1  0.08667  0.29234  0.41550  1
 H  H10  1  0.61731  0.05900  0.24412  1
 H  H11  1  0.39322  0.47691  0.26108  1
 H  H12  1  0.58667  0.20766  0.91550  1
 H  H13  1  0.12745  0.98067  0.44150  1
 H  H14  1  0.33573  0.73813  0.65245  1
 H  H15  1  0.12240  0.42510  0.11523  1
 H  H16  1  0.26144  0.96964  0.97043  1
 H  H17  1  0.60012  0.70215  0.51783  1
 H  H18  1  0.76144  0.53036  0.47043  1
 H  H19  1  0.62240  0.07490  0.61523  1
 H  H20  1  0.23856  0.46964  0.52957  1
 H  H21  1  0.37760  0.92510  0.38477  1
 H  H22  1  0.88269  0.55900  0.25588  1
 H  H23  1  0.38269  0.94100  0.75588  1
 H  H24  1  0.10678  0.97691  0.23892  1
 H  H25  1  0.16427  0.23813  0.84755  1
 H  H26  1  0.11731  0.44100  0.74412  1
 H  H27  1  0.73856  0.03036  0.02957  1
 H  H28  1  0.66427  0.26187  0.34755  1
 H  H29  1  0.83573  0.76187  0.15245  1
 H  H30  1  0.37255  0.48067  0.05850  1
 H  H31  1  0.89322  0.02309  0.76108  1
 H  H32  1  0.87255  0.01933  0.55850  1
 O  O1  1  0.36781  0.23599  0.15343  1
 O  O2  1  0.75954  0.25979  0.15391  1
 O  O3  1  0.25954  0.24021  0.65391  1
 O  O4  1  0.24046  0.74021  0.84609  1
 O  O5  1  0.13219  0.73599  0.34657  1
 O  O6  1  0.74046  0.75979  0.34609  1
 O  O7  1  0.63219  0.76401  0.84657  1
 O  O8  1  0.86781  0.26401  0.65343  1
