CIF file written using JARVIS-Tools package.
data_ScSi
_symmetry_space_group_name_H-M  'Cmcm'
_cell_length_a       3.68145
_cell_length_b       3.99879
_cell_length_c       5.34542
_cell_angle_alpha    111.965
_cell_angle_beta     90
_cell_angle_gamma    90

_symmetry_Int_Tables_number  63
_chemical_formula_structural  ScSi
_chemical_formula_sum  Sc2Si2
_cell_volume  72.97968769167753
_cell_formula_units_Z  2
loop_
  _symmetry_equiv_pos_site_id
 _symmetry_equiv_pos_as_xyz
 1  'x, y, z'
loop_
 _atom_site_type_symbol
 _atom_site_label
 _atom_site_symmetry_multiplicity
 _atom_site_fract_x
 _atom_site_fract_y
 _atom_site_fract_z
 _atom_site_fract_occupancy
 Sc  Sc1  1  0.25000  0.86123  0.72246  1
 Sc  Sc2  1  0.75000  0.13877  0.27754  1
 Si  Si1  1  0.25000  0.58248  0.16496  1
 Si  Si2  1  0.75000  0.41752  0.83504  1
