CIF file written using JARVIS-Tools package.
data_Mg6NbSb
_symmetry_space_group_name_H-M  'Amm2'
_cell_length_a       6.24533
_cell_length_b       5.97932
_cell_length_c       5.22466
_cell_angle_alpha    90
_cell_angle_beta     90
_cell_angle_gamma    118.601

_symmetry_Int_Tables_number  38
_chemical_formula_structural  Mg6NbSb
_chemical_formula_sum  Mg6NbSb
_cell_volume  171.2962842823468
_cell_formula_units_Z  1
loop_
  _symmetry_equiv_pos_site_id
 _symmetry_equiv_pos_as_xyz
 1  'x, y, z'
loop_
 _atom_site_type_symbol
 _atom_site_label
 _atom_site_symmetry_multiplicity
 _atom_site_fract_x
 _atom_site_fract_y
 _atom_site_fract_z
 _atom_site_fract_occupancy
 Mg  Mg1  1  0.66188  0.32871  0.25000  1
 Mg  Mg2  1  0.66188  0.83317  0.25000  1
 Mg  Mg3  1  0.33738  0.18013  0.75000  1
 Mg  Mg4  1  0.33738  0.65726  0.75000  1
 Mg  Mg5  1  0.84957  0.17478  0.75000  1
 Mg  Mg6  1  0.83060  0.66530  0.75000  1
 Nb  Nb1  1  0.16136  0.33068  0.25000  1
 Sb  Sb1  1  0.15996  0.82998  0.25000  1
