CIF file written using JARVIS-Tools package.
data_BaP10
_symmetry_space_group_name_H-M  'Cmc2_1'
_cell_length_a       6.52201
_cell_length_b       7.13684
_cell_length_c       12.0649
_cell_angle_alpha    90
_cell_angle_beta     90
_cell_angle_gamma    117.189

_symmetry_Int_Tables_number  36
_chemical_formula_structural  BaP10
_chemical_formula_sum  Ba2P20
_cell_volume  499.52796085023516
_cell_formula_units_Z  2
loop_
  _symmetry_equiv_pos_site_id
 _symmetry_equiv_pos_as_xyz
 1  'x, y, z'
loop_
 _atom_site_type_symbol
 _atom_site_label
 _atom_site_symmetry_multiplicity
 _atom_site_fract_x
 _atom_site_fract_y
 _atom_site_fract_z
 _atom_site_fract_occupancy
 Ba  Ba1  1  0.18600  0.37200  0.00205  1
 Ba  Ba2  1  0.81400  0.62800  0.50205  1
 P  P1  1  0.26992  0.04282  0.81806  1
 P  P2  1  0.38734  0.77467  0.60486  1
 P  P3  1  0.61266  0.22533  0.10486  1
 P  P4  1  0.07151  0.14302  0.55773  1
 P  P5  1  0.92849  0.85698  0.05773  1
 P  P6  1  0.40394  0.80789  0.78496  1
 P  P7  1  0.59606  0.19211  0.28496  1
 P  P8  1  0.80414  0.60827  0.92645  1
 P  P9  1  0.73008  0.95718  0.31806  1
 P  P10  1  0.09426  0.18852  0.27653  1
 P  P11  1  0.55406  0.10812  0.56509  1
 P  P12  1  0.44594  0.89188  0.06509  1
 P  P13  1  0.87396  0.25822  0.66780  1
 P  P14  1  0.12604  0.74178  0.16780  1
 P  P15  1  0.38426  0.25822  0.66780  1
 P  P16  1  0.61574  0.74178  0.16780  1
 P  P17  1  0.77290  0.04282  0.81806  1
 P  P18  1  0.22710  0.95718  0.31806  1
 P  P19  1  0.19586  0.39173  0.42645  1
 P  P20  1  0.90574  0.81148  0.77653  1
