CIF file written using JARVIS-Tools package.
data_YMg2
_symmetry_space_group_name_H-M  'P-3m1'
_cell_length_a       3.36475
_cell_length_b       3.36475
_cell_length_c       16.1762
_cell_angle_alpha    90
_cell_angle_beta     90
_cell_angle_gamma    120

_symmetry_Int_Tables_number  164
_chemical_formula_structural  YMg2
_chemical_formula_sum  Y2Mg4
_cell_volume  158.60340190191766
_cell_formula_units_Z  2
loop_
  _symmetry_equiv_pos_site_id
 _symmetry_equiv_pos_as_xyz
 1  'x, y, z'
loop_
 _atom_site_type_symbol
 _atom_site_label
 _atom_site_symmetry_multiplicity
 _atom_site_fract_x
 _atom_site_fract_y
 _atom_site_fract_z
 _atom_site_fract_occupancy
 Mg  Mg1  1  0.33333  0.66667  0.92147  1
 Mg  Mg2  1  0.66667  0.33333  0.76385  1
 Mg  Mg3  1  0.33333  0.66667  0.23615  1
 Mg  Mg4  1  0.66667  0.33333  0.07853  1
 Y  Y1  1  0.33333  0.66667  0.59042  1
 Y  Y2  1  0.66667  0.33333  0.40958  1
