CIF file written using JARVIS-Tools package.
data_Pr2MoC2
_symmetry_space_group_name_H-M  'P4_2/mnm'
_cell_length_a       5.8526
_cell_length_b       5.8526
_cell_length_c       10.525
_cell_angle_alpha    90
_cell_angle_beta     90
_cell_angle_gamma    90

_symmetry_Int_Tables_number  136
_chemical_formula_structural  Pr2MoC2
_chemical_formula_sum  Pr8Mo4C8
_cell_volume  360.51259202852447
_cell_formula_units_Z  4
loop_
  _symmetry_equiv_pos_site_id
 _symmetry_equiv_pos_as_xyz
 1  'x, y, z'
loop_
 _atom_site_type_symbol
 _atom_site_label
 _atom_site_symmetry_multiplicity
 _atom_site_fract_x
 _atom_site_fract_y
 _atom_site_fract_z
 _atom_site_fract_occupancy
 C  C1  1  0.50000  0.00000  0.00000  1
 C  C2  1  0.00000  0.50000  0.50000  1
 C  C3  1  0.00000  0.50000  0.00000  1
 C  C4  1  0.00000  0.00000  0.85921  1
 C  C5  1  0.50000  0.50000  0.35921  1
 C  C6  1  0.50000  0.50000  0.64079  1
 C  C7  1  0.00000  0.00000  0.14079  1
 C  C8  1  0.50000  0.00000  0.50000  1
 Mo  Mo1  1  0.17614  0.17614  0.00000  1
 Mo  Mo2  1  0.32386  0.67614  0.50000  1
 Mo  Mo3  1  0.67614  0.32386  0.50000  1
 Mo  Mo4  1  0.82386  0.82386  0.00000  1
 Pr  Pr1  1  0.30364  0.69636  0.84380  1
 Pr  Pr2  1  0.80364  0.80364  0.65620  1
 Pr  Pr3  1  0.19636  0.19636  0.65620  1
 Pr  Pr4  1  0.80364  0.80364  0.34380  1
 Pr  Pr5  1  0.30364  0.69636  0.15620  1
 Pr  Pr6  1  0.69636  0.30364  0.15620  1
 Pr  Pr7  1  0.69636  0.30364  0.84380  1
 Pr  Pr8  1  0.19636  0.19636  0.34380  1
