CIF file written using JARVIS-Tools package.
data_Ta2Be2Pb
_symmetry_space_group_name_H-M  'I4/mmm'
_cell_length_a       9.49518
_cell_length_b       9.49518
_cell_length_c       9.49518
_cell_angle_alpha    162.022
_cell_angle_beta     162.022
_cell_angle_gamma    25.531

_symmetry_Int_Tables_number  139
_chemical_formula_structural  Ta2Be2Pb
_chemical_formula_sum  Ta2Be2Pb
_cell_volume  81.52719803070582
_cell_formula_units_Z  1
loop_
  _symmetry_equiv_pos_site_id
 _symmetry_equiv_pos_as_xyz
 1  'x, y, z'
loop_
 _atom_site_type_symbol
 _atom_site_label
 _atom_site_symmetry_multiplicity
 _atom_site_fract_x
 _atom_site_fract_y
 _atom_site_fract_z
 _atom_site_fract_occupancy
 Be  Be1  1  0.75000  0.25000  0.50000  1
 Be  Be2  1  0.25000  0.75000  0.50000  1
 Pb  Pb1  1  0.00000  0.00000  0.00000  1
 Ta  Ta1  1  0.63279  0.63279  -0.00000  1
 Ta  Ta2  1  0.36721  0.36721  0.00000  1
