CIF file written using JARVIS-Tools package.
data_Ca2CoO3
_symmetry_space_group_name_H-M  'C2/m'
_cell_length_a       4.02643
_cell_length_b       4.02643
_cell_length_c       6.90244
_cell_angle_alpha    100.034
_cell_angle_beta     100.034
_cell_angle_gamma    54.1217

_symmetry_Int_Tables_number  12
_chemical_formula_structural  Ca2CoO3
_chemical_formula_sum  Ca2CoO3
_cell_volume  88.91873873043755
_cell_formula_units_Z  1
loop_
  _symmetry_equiv_pos_site_id
 _symmetry_equiv_pos_as_xyz
 1  'x, y, z'
loop_
 _atom_site_type_symbol
 _atom_site_label
 _atom_site_symmetry_multiplicity
 _atom_site_fract_x
 _atom_site_fract_y
 _atom_site_fract_z
 _atom_site_fract_occupancy
 Ca  Ca1  1  0.85914  0.85914  0.77663  1
 Ca  Ca2  1  0.14086  0.14086  0.22337  1
 Co  Co1  1  0.50000  0.50000  0.50000  1
 O  O1  1  0.00000  0.00000  0.50000  1
 O  O2  1  0.45605  0.45605  0.20789  1
 O  O3  1  0.54395  0.54395  0.79211  1
