CIF file written using JARVIS-Tools package.
data_PrAu2
_symmetry_space_group_name_H-M  'Imma'
_cell_length_a       4.70384
_cell_length_b       5.98645
_cell_length_c       5.98645
_cell_angle_alpha    73.3672
_cell_angle_beta     66.8666
_cell_angle_gamma    66.8666

_symmetry_Int_Tables_number  74
_chemical_formula_structural  PrAu2
_chemical_formula_sum  Pr2Au4
_cell_volume  140.8106718467378
_cell_formula_units_Z  2
loop_
  _symmetry_equiv_pos_site_id
 _symmetry_equiv_pos_as_xyz
 1  'x, y, z'
loop_
 _atom_site_type_symbol
 _atom_site_label
 _atom_site_symmetry_multiplicity
 _atom_site_fract_x
 _atom_site_fract_y
 _atom_site_fract_z
 _atom_site_fract_occupancy
 Au  Au1  1  0.16357  0.30772  0.36514  1
 Au  Au2  1  0.83643  0.69228  0.63486  1
 Au  Au3  1  0.16357  0.86514  0.80772  1
 Au  Au4  1  0.83643  0.13486  0.19228  1
 Pr  Pr1  1  0.53072  0.71928  0.21928  1
 Pr  Pr2  1  0.46928  0.28072  0.78072  1
