CIF file written using JARVIS-Tools package.
data_Co2B
_symmetry_space_group_name_H-M  'I4/mcm'
_cell_length_a       4.09969
_cell_length_b       4.09969
_cell_length_c       4.09969
_cell_angle_alpha    105.492
_cell_angle_beta     105.492
_cell_angle_gamma    117.762

_symmetry_Int_Tables_number  140
_chemical_formula_structural  Co2B
_chemical_formula_sum  Co4B2
_cell_volume  52.19921488443
_cell_formula_units_Z  2
loop_
  _symmetry_equiv_pos_site_id
 _symmetry_equiv_pos_as_xyz
 1  'x, y, z'
loop_
 _atom_site_type_symbol
 _atom_site_label
 _atom_site_symmetry_multiplicity
 _atom_site_fract_x
 _atom_site_fract_y
 _atom_site_fract_z
 _atom_site_fract_occupancy
 B  B1  1  0.75000  0.75000  -0.00000  1
 B  B2  1  0.25000  0.25000  -0.00000  1
 Co  Co1  1  0.83307  0.33307  0.16615  1
 Co  Co2  1  0.16693  0.66693  0.83385  1
 Co  Co3  1  0.66693  0.83307  0.50000  1
 Co  Co4  1  0.33307  0.16693  0.50000  1
