CIF file written using JARVIS-Tools package.
data_Mg6AlCr
_symmetry_space_group_name_H-M  'Amm2'
_cell_length_a       6.21581
_cell_length_b       6.2158
_cell_length_c       4.89117
_cell_angle_alpha    90
_cell_angle_beta     90
_cell_angle_gamma    119.926

_symmetry_Int_Tables_number  38
_chemical_formula_structural  Mg6AlCr
_chemical_formula_sum  Mg6AlCr
_cell_volume  163.78079861742194
_cell_formula_units_Z  1
loop_
  _symmetry_equiv_pos_site_id
 _symmetry_equiv_pos_as_xyz
 1  'x, y, z'
loop_
 _atom_site_type_symbol
 _atom_site_label
 _atom_site_symmetry_multiplicity
 _atom_site_fract_x
 _atom_site_fract_y
 _atom_site_fract_z
 _atom_site_fract_occupancy
 Al  Al1  1  0.17589  0.32411  0.25000  1
 Cr  Cr1  1  0.32570  0.17430  0.75000  1
 Mg  Mg1  1  0.17102  0.84271  0.25000  1
 Mg  Mg2  1  0.65729  0.32898  0.25000  1
 Mg  Mg3  1  0.66811  0.83189  0.25000  1
 Mg  Mg4  1  0.33068  0.66232  0.75000  1
 Mg  Mg5  1  0.83768  0.16932  0.75000  1
 Mg  Mg6  1  0.83363  0.66637  0.75000  1
