CIF file written using JARVIS-Tools package.
data_Ba5Er2ZrAl2O13
_symmetry_space_group_name_H-M  'P6_3/mmc'
_cell_length_a       5.98712
_cell_length_b       5.98712
_cell_length_c       25.0649
_cell_angle_alpha    90
_cell_angle_beta     90
_cell_angle_gamma    120

_symmetry_Int_Tables_number  194
_chemical_formula_structural  Ba5Er2ZrAl2O13
_chemical_formula_sum  Ba0Er4Zr2Al4O26
_cell_volume  778.0940898123789
_cell_formula_units_Z  2
loop_
  _symmetry_equiv_pos_site_id
 _symmetry_equiv_pos_as_xyz
 1  'x, y, z'
loop_
 _atom_site_type_symbol
 _atom_site_label
 _atom_site_symmetry_multiplicity
 _atom_site_fract_x
 _atom_site_fract_y
 _atom_site_fract_z
 _atom_site_fract_occupancy
 Al  Al1  1  0.33333  0.66667  0.31933  1
 Al  Al2  1  0.66667  0.33333  0.68067  1
 Al  Al3  1  0.33333  0.66667  0.18067  1
 Al  Al4  1  0.66667  0.33333  0.81933  1
 Ba  Ba1  1  0.00000  0.00000  0.36215  1
 Ba  Ba2  1  0.66667  0.33333  0.95810  1
 Ba  Ba3  1  0.00000  0.00000  0.63785  1
 Ba  Ba4  1  0.00000  0.00000  0.86215  1
 Ba  Ba5  1  0.66667  0.33333  0.54190  1
 Ba  Ba6  1  0.33333  0.66667  0.45810  1
 Ba  Ba7  1  0.00000  0.00000  0.13785  1
 Ba  Ba8  1  0.33333  0.66667  0.04190  1
 Ba  Ba9  1  0.66667  0.33333  0.25000  1
 Ba  Ba10  1  0.33333  0.66667  0.75000  1
 Er  Er1  1  0.33333  0.66667  0.89656  1
 Er  Er2  1  0.66667  0.33333  0.39656  1
 Er  Er3  1  0.33333  0.66667  0.60344  1
 Er  Er4  1  0.66667  0.33333  0.10344  1
 O  O1  1  0.32563  0.16281  0.05023  1
 O  O2  1  0.00951  0.50475  0.15780  1
 O  O3  1  0.83719  0.16281  0.44977  1
 O  O4  1  0.99049  0.49525  0.65780  1
 O  O5  1  0.49525  0.99049  0.15780  1
 O  O6  1  0.83719  0.67437  0.44977  1
 O  O7  1  0.50475  0.49525  0.84220  1
 O  O8  1  0.16281  0.32563  0.55023  1
 O  O9  1  0.33333  0.66667  0.25000  1
 O  O10  1  0.16281  0.83719  0.94977  1
 O  O11  1  0.83719  0.67437  0.05023  1
 O  O12  1  0.83719  0.16281  0.05023  1
 O  O13  1  0.00951  0.50475  0.34220  1
 O  O14  1  0.49525  0.50475  0.34220  1
 O  O15  1  0.32563  0.16281  0.44977  1
 O  O16  1  0.49525  0.50475  0.15780  1
 O  O17  1  0.16281  0.32563  0.94977  1
 O  O18  1  0.50475  0.49525  0.65780  1
 O  O19  1  0.16281  0.83719  0.55023  1
 O  O20  1  0.50475  0.00951  0.84220  1
 O  O21  1  0.67437  0.83719  0.94977  1
 O  O22  1  0.50475  0.00951  0.65780  1
 O  O23  1  0.66667  0.33333  0.75000  1
 O  O24  1  0.67437  0.83719  0.55023  1
 O  O25  1  0.99049  0.49525  0.84220  1
 O  O26  1  0.49525  0.99049  0.34220  1
 Zr  Zr1  1  0.00000  0.00000  0.50000  1
 Zr  Zr2  1  0.00000  0.00000  0.00000  1
