CIF file written using JARVIS-Tools package.
data_LiTiVO4
_symmetry_space_group_name_H-M  'Imma'
_cell_length_a       5.87399
_cell_length_b       5.87398
_cell_length_c       5.90714
_cell_angle_alpha    59.8114
_cell_angle_beta     59.8114
_cell_angle_gamma    89.7478

_symmetry_Int_Tables_number  74
_chemical_formula_structural  LiTiVO4
_chemical_formula_sum  Li2Ti2V2O8
_cell_volume  143.61523583359389
_cell_formula_units_Z  2
loop_
  _symmetry_equiv_pos_site_id
 _symmetry_equiv_pos_as_xyz
 1  'x, y, z'
loop_
 _atom_site_type_symbol
 _atom_site_label
 _atom_site_symmetry_multiplicity
 _atom_site_fract_x
 _atom_site_fract_y
 _atom_site_fract_z
 _atom_site_fract_occupancy
 Li  Li1  1  0.50000  0.50000  0.50000  1
 Li  Li2  1  0.50000  0.50000  0.00000  1
 O  O1  1  0.24063  0.75935  0.47305  1
 O  O2  1  0.75749  0.77547  0.98353  1
 O  O3  1  0.24065  0.75937  0.02695  1
 O  O4  1  0.22453  0.24251  0.51647  1
 O  O5  1  0.77547  0.75749  0.48353  1
 O  O6  1  0.75935  0.24063  0.97305  1
 O  O7  1  0.24251  0.22453  0.01647  1
 O  O8  1  0.75937  0.24065  0.52695  1
 Ti  Ti1  1  0.00000  -0.00000  0.50000  1
 Ti  Ti2  1  0.00000  0.00000  0.00000  1
 V  V1  1  0.00000  0.50000  0.50000  1
 V  V2  1  0.50000  0.00000  -0.00000  1
