CIF file written using JARVIS-Tools package.
data_AlFe2B2
_symmetry_space_group_name_H-M  'Cmmm'
_cell_length_a       2.83778
_cell_length_b       2.91458
_cell_length_c       5.71614
_cell_angle_alpha    104.77
_cell_angle_beta     90
_cell_angle_gamma    90

_symmetry_Int_Tables_number  65
_chemical_formula_structural  AlFe2B2
_chemical_formula_sum  AlFe2B2
_cell_volume  45.715691313669105
_cell_formula_units_Z  1
loop_
  _symmetry_equiv_pos_site_id
 _symmetry_equiv_pos_as_xyz
 1  'x, y, z'
loop_
 _atom_site_type_symbol
 _atom_site_label
 _atom_site_symmetry_multiplicity
 _atom_site_fract_x
 _atom_site_fract_y
 _atom_site_fract_z
 _atom_site_fract_occupancy
 Al  Al1  1  0.00000  0.00000  0.00000  1
 B  B1  1  0.00000  0.79322  0.58644  1
 B  B2  1  0.00000  0.20678  0.41356  1
 Fe  Fe1  1  0.50000  0.64554  0.29109  1
 Fe  Fe2  1  0.50000  0.35446  0.70891  1
