CIF file written using JARVIS-Tools package.
data_CaRu2N2
_symmetry_space_group_name_H-M  'P-3m1'
_cell_length_a       3.19724
_cell_length_b       3.19677
_cell_length_c       7.07355
_cell_angle_alpha    90
_cell_angle_beta     89.993
_cell_angle_gamma    119.995

_symmetry_Int_Tables_number  164
_chemical_formula_structural  CaRu2N2
_chemical_formula_sum  CaRu2N2
_cell_volume  62.614867054083064
_cell_formula_units_Z  1
loop_
  _symmetry_equiv_pos_site_id
 _symmetry_equiv_pos_as_xyz
 1  'x, y, z'
loop_
 _atom_site_type_symbol
 _atom_site_label
 _atom_site_symmetry_multiplicity
 _atom_site_fract_x
 _atom_site_fract_y
 _atom_site_fract_z
 _atom_site_fract_occupancy
 Ca  Ca1  1  0.00000  0.00000  0.50000  1
 N  N1  1  0.66661  0.33331  0.73134  1
 N  N2  1  0.33339  0.66669  0.26866  1
 Ru  Ru1  1  0.66683  0.33341  0.16011  1
 Ru  Ru2  1  0.33317  0.66659  0.83989  1
