CIF file written using JARVIS-Tools package.
data_BeIrOs2
_symmetry_space_group_name_H-M  'P4mm'
_cell_length_a       2.7816
_cell_length_b       2.7816
_cell_length_c       6.62639
_cell_angle_alpha    90
_cell_angle_beta     90
_cell_angle_gamma    90

_symmetry_Int_Tables_number  99
_chemical_formula_structural  BeIrOs2
_chemical_formula_sum  BeIrOs2
_cell_volume  51.27041390402858
_cell_formula_units_Z  1
loop_
  _symmetry_equiv_pos_site_id
 _symmetry_equiv_pos_as_xyz
 1  'x, y, z'
loop_
 _atom_site_type_symbol
 _atom_site_label
 _atom_site_symmetry_multiplicity
 _atom_site_fract_x
 _atom_site_fract_y
 _atom_site_fract_z
 _atom_site_fract_occupancy
 Be  Be1  1  0.00000  0.00000  0.50583  1
 Ir  Ir1  1  0.50000  0.50000  0.71002  1
 Os  Os1  1  0.00000  0.00000  0.00501  1
 Os  Os2  1  0.50000  0.50000  0.27914  1
