CIF file written using JARVIS-Tools package.
data_BaPt2S3
_symmetry_space_group_name_H-M  'P4_12_12'
_cell_length_a       6.83099
_cell_length_b       6.83099
_cell_length_c       12.4436
_cell_angle_alpha    90
_cell_angle_beta     90
_cell_angle_gamma    90

_symmetry_Int_Tables_number  92
_chemical_formula_structural  BaPt2S3
_chemical_formula_sum  Ba4Pt8S2
_cell_volume  580.6474405132228
_cell_formula_units_Z  4
loop_
  _symmetry_equiv_pos_site_id
 _symmetry_equiv_pos_as_xyz
 1  'x, y, z'
loop_
 _atom_site_type_symbol
 _atom_site_label
 _atom_site_symmetry_multiplicity
 _atom_site_fract_x
 _atom_site_fract_y
 _atom_site_fract_z
 _atom_site_fract_occupancy
 Ba  Ba1  1  0.32528  0.32528  0.50000  1
 Ba  Ba2  1  0.82528  0.17472  0.25000  1
 Ba  Ba3  1  0.17472  0.82528  0.75000  1
 Ba  Ba4  1  0.67472  0.67472  0.00000  1
 Pt  Pt1  1  0.74979  0.00739  0.62474  1
 Pt  Pt2  1  0.99261  0.25021  0.87526  1
 Pt  Pt3  1  0.00739  0.74979  0.37526  1
 Pt  Pt4  1  0.50739  0.75021  0.37474  1
 Pt  Pt5  1  0.75021  0.50739  0.62526  1
 Pt  Pt6  1  0.49261  0.24979  0.87474  1
 Pt  Pt7  1  0.25021  0.99261  0.12474  1
 Pt  Pt8  1  0.24979  0.49261  0.12526  1
 S  S1  1  0.25648  0.74352  0.25000  1
 S  S2  1  0.25713  0.84007  0.49647  1
 S  S3  1  0.74352  0.25648  0.75000  1
 S  S4  1  0.75648  0.75648  0.50000  1
 S  S5  1  0.24352  0.24352  0.00000  1
 S  S6  1  0.75713  0.65993  0.25353  1
 S  S7  1  0.24287  0.34007  0.75353  1
 S  S8  1  0.65993  0.75713  0.74647  1
 S  S9  1  0.34007  0.24287  0.24647  1
 S  S10  1  0.84007  0.25713  0.50353  1
 S  S11  1  0.74287  0.15993  0.99647  1
 S  S12  1  0.15993  0.74287  0.00353  1
