CIF file written using JARVIS-Tools package.
data_LiFe6P4
_symmetry_space_group_name_H-M  'Amm2'
_cell_length_a       6.67554
_cell_length_b       3.25075
_cell_length_c       6.66902
_cell_angle_alpha    90
_cell_angle_beta     120.032
_cell_angle_gamma    90

_symmetry_Int_Tables_number  38
_chemical_formula_structural  LiFe6P4
_chemical_formula_sum  LiFe6P4
_cell_volume  125.29168050438457
_cell_formula_units_Z  1
loop_
  _symmetry_equiv_pos_site_id
 _symmetry_equiv_pos_as_xyz
 1  'x, y, z'
loop_
 _atom_site_type_symbol
 _atom_site_label
 _atom_site_symmetry_multiplicity
 _atom_site_fract_x
 _atom_site_fract_y
 _atom_site_fract_z
 _atom_site_fract_occupancy
 Fe  Fe1  1  0.60172  0.50000  0.80058  1
 Fe  Fe2  1  0.19889  0.50000  0.80058  1
 Fe  Fe3  1  0.19949  0.50000  0.39895  1
 Fe  Fe4  1  0.92089  0.00000  0.46102  1
 Fe  Fe5  1  0.54016  0.00000  0.46101  1
 Fe  Fe6  1  0.53898  0.00000  0.07793  1
 Li  Li1  1  0.99977  0.00000  0.99963  1
 P  P1  1  0.33351  0.00000  0.66699  1
 P  P2  1  0.82059  0.50000  0.64115  1
 P  P3  1  0.82161  0.50000  0.17941  1
 P  P4  1  0.35781  0.50000  0.17940  1
