CIF file written using JARVIS-Tools package.
data_ZrCl2
_symmetry_space_group_name_H-M  'R3m'
_cell_length_a       6.75522
_cell_length_b       6.75522
_cell_length_c       6.75523
_cell_angle_alpha    29.2313
_cell_angle_beta     29.2313
_cell_angle_gamma    29.2313

_symmetry_Int_Tables_number  160
_chemical_formula_structural  ZrCl2
_chemical_formula_sum  ZrCl2
_cell_volume  65.04217380821741
_cell_formula_units_Z  1
loop_
  _symmetry_equiv_pos_site_id
 _symmetry_equiv_pos_as_xyz
 1  'x, y, z'
loop_
 _atom_site_type_symbol
 _atom_site_label
 _atom_site_symmetry_multiplicity
 _atom_site_fract_x
 _atom_site_fract_y
 _atom_site_fract_z
 _atom_site_fract_occupancy
 Cl  Cl1  1  0.42207  0.42207  0.42207  1
 Cl  Cl2  1  0.24477  0.24477  0.24477  1
 Zr  Zr1  1  0.00007  0.00007  0.00007  1
