CIF file written using JARVIS-Tools package.
data_NaMg6Fe
_symmetry_space_group_name_H-M  'P4/mmm'
_cell_length_a       7.43327
_cell_length_b       10.5124
_cell_length_c       3.18478
_cell_angle_alpha    90
_cell_angle_beta     90
_cell_angle_gamma    135

_symmetry_Int_Tables_number  123
_chemical_formula_structural  NaMg6Fe
_chemical_formula_sum  NaMg6Fe
_cell_volume  175.9735666106388
_cell_formula_units_Z  1
loop_
  _symmetry_equiv_pos_site_id
 _symmetry_equiv_pos_as_xyz
 1  'x, y, z'
loop_
 _atom_site_type_symbol
 _atom_site_label
 _atom_site_symmetry_multiplicity
 _atom_site_fract_x
 _atom_site_fract_y
 _atom_site_fract_z
 _atom_site_fract_occupancy
 Fe  Fe1  1  0.25038  0.37519  0.25000  1
 Mg  Mg1  1  0.74966  0.37482  0.25000  1
 Mg  Mg2  1  0.74966  0.87484  0.25000  1
 Mg  Mg3  1  0.24978  0.16583  0.75000  1
 Mg  Mg4  1  0.24976  0.58394  0.75000  1
 Mg  Mg5  1  0.83215  0.16607  0.75000  1
 Mg  Mg6  1  0.66838  0.58419  0.75000  1
 Na  Na1  1  0.25023  0.87512  0.25000  1
