CIF file written using JARVIS-Tools package.
data_K2SeO4
_symmetry_space_group_name_H-M  'Pnma'
_cell_length_a       5.96457
_cell_length_b       7.63488
_cell_length_c       10.4228
_cell_angle_alpha    90
_cell_angle_beta     90
_cell_angle_gamma    90

_symmetry_Int_Tables_number  62
_chemical_formula_structural  K2SeO4
_chemical_formula_sum  K8Se4O6
_cell_volume  474.64155791551053
_cell_formula_units_Z  4
loop_
  _symmetry_equiv_pos_site_id
 _symmetry_equiv_pos_as_xyz
 1  'x, y, z'
loop_
 _atom_site_type_symbol
 _atom_site_label
 _atom_site_symmetry_multiplicity
 _atom_site_fract_x
 _atom_site_fract_y
 _atom_site_fract_z
 _atom_site_fract_occupancy
 K  K1  1  0.75000  0.16192  0.91804  1
 K  K2  1  0.25000  0.83808  0.08196  1
 K  K3  1  0.75000  0.66192  0.58196  1
 K  K4  1  0.25000  0.33808  0.41804  1
 K  K5  1  0.75000  -0.00429  0.29535  1
 K  K6  1  0.25000  0.00429  0.70465  1
 K  K7  1  0.75000  0.49571  0.20465  1
 K  K8  1  0.25000  0.50429  0.79535  1
 O  O1  1  0.75000  0.31128  0.43285  1
 O  O2  1  0.25000  0.68872  0.56715  1
 O  O3  1  0.75000  0.81128  0.06715  1
 O  O4  1  0.75000  0.50442  0.92669  1
 O  O5  1  0.75000  0.00442  0.57331  1
 O  O6  1  0.25000  0.99558  0.42669  1
 O  O7  1  0.97892  0.79330  0.84258  1
 O  O8  1  0.25000  0.18872  0.93285  1
 O  O9  1  0.47892  0.20670  0.15742  1
 O  O10  1  0.52108  0.79330  0.84258  1
 O  O11  1  0.02108  0.70670  0.34258  1
 O  O12  1  0.25000  0.49558  0.07331  1
 O  O13  1  0.97892  0.29330  0.65742  1
 O  O14  1  0.02108  0.20670  0.15742  1
 O  O15  1  0.52108  0.29330  0.65742  1
 O  O16  1  0.47892  0.70670  0.34258  1
 Se  Se1  1  0.25000  0.77771  0.41962  1
 Se  Se2  1  0.25000  0.27771  0.08038  1
 Se  Se3  1  0.75000  0.72229  0.91962  1
 Se  Se4  1  0.75000  0.22229  0.58038  1
