CIF file written using JARVIS-Tools package.
data_Rb2SnO3
_symmetry_space_group_name_H-M  'Cmc2_1'
_cell_length_a       6.52528
_cell_length_b       6.52528
_cell_length_c       5.82734
_cell_angle_alpha    90
_cell_angle_beta     90
_cell_angle_gamma    110.067

_symmetry_Int_Tables_number  36
_chemical_formula_structural  Rb2SnO3
_chemical_formula_sum  Rb4Sn2O6
_cell_volume  233.059904294552
_cell_formula_units_Z  2
loop_
  _symmetry_equiv_pos_site_id
 _symmetry_equiv_pos_as_xyz
 1  'x, y, z'
loop_
 _atom_site_type_symbol
 _atom_site_label
 _atom_site_symmetry_multiplicity
 _atom_site_fract_x
 _atom_site_fract_y
 _atom_site_fract_z
 _atom_site_fract_occupancy
 O  O1  1  0.13350  0.87960  0.49294  1
 O  O2  1  0.12040  0.86650  0.99294  1
 O  O3  1  0.65102  0.65102  0.71865  1
 O  O4  1  0.34898  0.34898  0.21865  1
 O  O5  1  0.86650  0.12040  0.99294  1
 O  O6  1  0.87960  0.13350  0.49294  1
 Rb  Rb1  1  0.48286  0.80474  0.24797  1
 Rb  Rb2  1  0.19526  0.51714  0.74797  1
 Rb  Rb3  1  0.51714  0.19526  0.74797  1
 Rb  Rb4  1  0.80474  0.48286  0.24797  1
 Sn  Sn1  1  0.91206  0.91206  0.73955  1
 Sn  Sn2  1  0.08794  0.08794  0.23955  1
