CIF file written using JARVIS-Tools package.
data_Ti2CuNi
_symmetry_space_group_name_H-M  'Pmm2'
_cell_length_a       2.70874
_cell_length_b       4.36096
_cell_length_c       4.67171
_cell_angle_alpha    90
_cell_angle_beta     90
_cell_angle_gamma    90

_symmetry_Int_Tables_number  25
_chemical_formula_structural  Ti2CuNi
_chemical_formula_sum  Ti2CuNi
_cell_volume  55.185672544276095
_cell_formula_units_Z  1
loop_
  _symmetry_equiv_pos_site_id
 _symmetry_equiv_pos_as_xyz
 1  'x, y, z'
loop_
 _atom_site_type_symbol
 _atom_site_label
 _atom_site_symmetry_multiplicity
 _atom_site_fract_x
 _atom_site_fract_y
 _atom_site_fract_z
 _atom_site_fract_occupancy
 Cu  Cu1  1  0.00000  0.50000  0.31989  1
 Ni  Ni1  1  0.00000  0.00000  0.68151  1
 Ti  Ti1  1  0.50000  0.00000  0.20574  1
 Ti  Ti2  1  0.50000  0.50000  0.79286  1
