CIF file written using JARVIS-Tools package.
data_Mg6CuSb
_symmetry_space_group_name_H-M  'Amm2'
_cell_length_a       6.48271
_cell_length_b       6.48271
_cell_length_c       4.96453
_cell_angle_alpha    90
_cell_angle_beta     90
_cell_angle_gamma    123.543

_symmetry_Int_Tables_number  38
_chemical_formula_structural  Mg6CuSb
_chemical_formula_sum  Mg6CuSb
_cell_volume  173.892361571386
_cell_formula_units_Z  1
loop_
  _symmetry_equiv_pos_site_id
 _symmetry_equiv_pos_as_xyz
 1  'x, y, z'
loop_
 _atom_site_type_symbol
 _atom_site_label
 _atom_site_symmetry_multiplicity
 _atom_site_fract_x
 _atom_site_fract_y
 _atom_site_fract_z
 _atom_site_fract_occupancy
 Cu  Cu1  1  0.10865  0.39135  0.25000  1
 Mg  Mg1  1  0.16816  0.82625  0.25000  1
 Mg  Mg2  1  0.67375  0.33184  0.25000  1
 Mg  Mg3  1  0.67089  0.82911  0.25000  1
 Mg  Mg4  1  0.33612  0.63846  0.75000  1
 Mg  Mg5  1  0.86154  0.16388  0.75000  1
 Mg  Mg6  1  0.83418  0.66582  0.75000  1
 Sb  Sb1  1  0.34669  0.15331  0.75000  1
