CIF file written using JARVIS-Tools package.
data_Yb2Mg
_symmetry_space_group_name_H-M  'C2/m'
_cell_length_a       3.70824
_cell_length_b       6.39506
_cell_length_c       9.41471
_cell_angle_alpha    68.394
_cell_angle_beta     90
_cell_angle_gamma    106.854

_symmetry_Int_Tables_number  12
_chemical_formula_structural  Yb2Mg
_chemical_formula_sum  Yb4Mg2
_cell_volume  197.22630439535692
_cell_formula_units_Z  2
loop_
  _symmetry_equiv_pos_site_id
 _symmetry_equiv_pos_as_xyz
 1  'x, y, z'
loop_
 _atom_site_type_symbol
 _atom_site_label
 _atom_site_symmetry_multiplicity
 _atom_site_fract_x
 _atom_site_fract_y
 _atom_site_fract_z
 _atom_site_fract_occupancy
 Mg  Mg1  1  0.05452  0.10905  0.44299  1
 Mg  Mg2  1  0.66770  0.33539  0.61257  1
 Yb  Yb1  1  0.02236  0.04472  0.93603  1
 Yb  Yb2  1  0.69986  0.39973  0.11953  1
 Yb  Yb3  1  0.36988  0.73976  0.32153  1
 Yb  Yb4  1  0.35234  0.70469  0.73402  1
