CIF file written using JARVIS-Tools package.
data_SrNiO2
_symmetry_space_group_name_H-M  'Cmcm'
_cell_length_a       3.66764
_cell_length_b       3.76379
_cell_length_c       8.35546
_cell_angle_alpha    90
_cell_angle_beta     102.678
_cell_angle_gamma    90

_symmetry_Int_Tables_number  63
_chemical_formula_structural  SrNiO2
_chemical_formula_sum  Sr2Ni2O4
_cell_volume  112.52845161888521
_cell_formula_units_Z  2
loop_
  _symmetry_equiv_pos_site_id
 _symmetry_equiv_pos_as_xyz
 1  'x, y, z'
loop_
 _atom_site_type_symbol
 _atom_site_label
 _atom_site_symmetry_multiplicity
 _atom_site_fract_x
 _atom_site_fract_y
 _atom_site_fract_z
 _atom_site_fract_occupancy
 Ni  Ni1  1  0.06410  0.75000  0.12820  1
 Ni  Ni2  1  0.93590  0.25000  0.87180  1
 O  O1  1  0.18015  0.75000  0.36030  1
 O  O2  1  0.81985  0.25000  0.63970  1
 O  O3  1  0.94833  0.75000  0.89666  1
 O  O4  1  0.05167  0.25000  0.10334  1
 Sr  Sr1  1  0.33311  0.75000  0.66622  1
 Sr  Sr2  1  0.66689  0.25000  0.33379  1
