CIF file written using JARVIS-Tools package.
data_NaMg6Al
_symmetry_space_group_name_H-M  'Amm2'
_cell_length_a       6.41165
_cell_length_b       6.41165
_cell_length_c       5.13352
_cell_angle_alpha    90
_cell_angle_beta     90
_cell_angle_gamma    119.761

_symmetry_Int_Tables_number  38
_chemical_formula_structural  NaMg6Al
_chemical_formula_sum  NaMg6Al
_cell_volume  183.2007463389673
_cell_formula_units_Z  1
loop_
  _symmetry_equiv_pos_site_id
 _symmetry_equiv_pos_as_xyz
 1  'x, y, z'
loop_
 _atom_site_type_symbol
 _atom_site_label
 _atom_site_symmetry_multiplicity
 _atom_site_fract_x
 _atom_site_fract_y
 _atom_site_fract_z
 _atom_site_fract_occupancy
 Al  Al1  1  0.16232  0.33768  0.25000  1
 Mg  Mg1  1  0.16308  0.82926  0.25000  1
 Mg  Mg2  1  0.67074  0.33692  0.25000  1
 Mg  Mg3  1  0.66681  0.83319  0.25000  1
 Mg  Mg4  1  0.32951  0.65964  0.75000  1
 Mg  Mg5  1  0.84036  0.17049  0.75000  1
 Mg  Mg6  1  0.83472  0.66528  0.75000  1
 Na  Na1  1  0.33248  0.16752  0.75000  1
