CIF file written using JARVIS-Tools package.
data_AlBPbO4
_symmetry_space_group_name_H-M  'Pnma'
_cell_length_a       5.79842
_cell_length_b       6.85755
_cell_length_c       8.23183
_cell_angle_alpha    90
_cell_angle_beta     90
_cell_angle_gamma    90

_symmetry_Int_Tables_number  62
_chemical_formula_structural  AlBPbO4
_chemical_formula_sum  Al4B4Pb4O6
_cell_volume  327.3215510045478
_cell_formula_units_Z  4
loop_
  _symmetry_equiv_pos_site_id
 _symmetry_equiv_pos_as_xyz
 1  'x, y, z'
loop_
 _atom_site_type_symbol
 _atom_site_label
 _atom_site_symmetry_multiplicity
 _atom_site_fract_x
 _atom_site_fract_y
 _atom_site_fract_z
 _atom_site_fract_occupancy
 Al  Al1  1  0.00000  0.50000  0.50000  1
 Al  Al2  1  0.00000  0.00000  0.00000  1
 Al  Al3  1  0.50000  0.00000  0.00000  1
 Al  Al4  1  0.50000  0.50000  0.50000  1
 B  B1  1  0.75000  0.72801  0.24271  1
 B  B2  1  0.75000  0.22801  0.25729  1
 B  B3  1  0.25000  0.77199  0.74271  1
 B  B4  1  0.25000  0.27199  0.75729  1
 O  O1  1  0.95607  0.67460  0.31602  1
 O  O2  1  0.25000  0.89624  0.10721  1
 O  O3  1  0.04393  0.32540  0.68398  1
 O  O4  1  0.95607  0.17460  0.18398  1
 O  O5  1  0.45607  0.32540  0.68398  1
 O  O6  1  0.25000  0.39624  0.39279  1
 O  O7  1  0.25000  0.17045  0.90298  1
 O  O8  1  0.75000  0.10376  0.89279  1
 O  O9  1  0.54393  0.17460  0.18398  1
 O  O10  1  0.54393  0.67460  0.31602  1
 O  O11  1  0.25000  0.67045  0.59702  1
 O  O12  1  0.75000  0.60376  0.60721  1
 O  O13  1  0.75000  0.32955  0.40298  1
 O  O14  1  0.75000  0.82955  0.09702  1
 O  O15  1  0.04393  0.82540  0.81602  1
 O  O16  1  0.45607  0.82540  0.81602  1
 Pb  Pb1  1  0.25000  0.04843  0.35988  1
 Pb  Pb2  1  0.25000  0.54843  0.14012  1
 Pb  Pb3  1  0.75000  0.95157  0.64012  1
 Pb  Pb4  1  0.75000  0.45157  0.85988  1
