CIF file written using JARVIS-Tools package.
data_CoSb2
_symmetry_space_group_name_H-M  'Pnnm'
_cell_length_a       3.447
_cell_length_b       5.59331
_cell_length_c       6.43557
_cell_angle_alpha    90
_cell_angle_beta     90
_cell_angle_gamma    90

_symmetry_Int_Tables_number  58
_chemical_formula_structural  CoSb2
_chemical_formula_sum  Co2Sb4
_cell_volume  124.078661407521
_cell_formula_units_Z  2
loop_
  _symmetry_equiv_pos_site_id
 _symmetry_equiv_pos_as_xyz
 1  'x, y, z'
loop_
 _atom_site_type_symbol
 _atom_site_label
 _atom_site_symmetry_multiplicity
 _atom_site_fract_x
 _atom_site_fract_y
 _atom_site_fract_z
 _atom_site_fract_occupancy
 Co  Co1  1  0.00000  0.00000  0.00000  1
 Co  Co2  1  0.50000  0.50000  0.50000  1
 Sb  Sb1  1  0.00000  0.20257  0.35678  1
 Sb  Sb2  1  0.00000  0.79743  0.64322  1
 Sb  Sb3  1  0.50000  0.70257  0.14322  1
 Sb  Sb4  1  0.50000  0.29743  0.85678  1
