CIF file written using JARVIS-Tools package.
data_MnBe2Cl2
_symmetry_space_group_name_H-M  'I4/mmm'
_cell_length_a       4.82577
_cell_length_b       4.82577
_cell_length_c       4.82577
_cell_angle_alpha    124.003
_cell_angle_beta     124.003
_cell_angle_gamma    83.1957

_symmetry_Int_Tables_number  139
_chemical_formula_structural  MnBe2Cl2
_chemical_formula_sum  MnBe2Cl2
_cell_volume  74.08483723094773
_cell_formula_units_Z  1
loop_
  _symmetry_equiv_pos_site_id
 _symmetry_equiv_pos_as_xyz
 1  'x, y, z'
loop_
 _atom_site_type_symbol
 _atom_site_label
 _atom_site_symmetry_multiplicity
 _atom_site_fract_x
 _atom_site_fract_y
 _atom_site_fract_z
 _atom_site_fract_occupancy
 Be  Be1  1  0.75000  0.25000  0.50000  1
 Be  Be2  1  0.25000  0.75000  0.50000  1
 Cl  Cl1  1  0.69703  0.69703  0.00000  1
 Cl  Cl2  1  0.30297  0.30297  0.00000  1
 Mn  Mn1  1  0.00000  0.00000  0.00000  1
