CIF file written using JARVIS-Tools package.
data_AlGaCl4
_symmetry_space_group_name_H-M  'P2_1/c'
_cell_length_a       7.15073
_cell_length_b       9.41732
_cell_length_c       9.49205
_cell_angle_alpha    90
_cell_angle_beta     90
_cell_angle_gamma    90.1314

_symmetry_Int_Tables_number  14
_chemical_formula_structural  AlGaCl4
_chemical_formula_sum  Al4Ga4Cl6
_cell_volume  639.198935477122
_cell_formula_units_Z  4
loop_
  _symmetry_equiv_pos_site_id
 _symmetry_equiv_pos_as_xyz
 1  'x, y, z'
loop_
 _atom_site_type_symbol
 _atom_site_label
 _atom_site_symmetry_multiplicity
 _atom_site_fract_x
 _atom_site_fract_y
 _atom_site_fract_z
 _atom_site_fract_occupancy
 Al  Al1  1  0.25008  0.68297  0.49978  1
 Al  Al2  1  0.24992  0.81703  0.99978  1
 Al  Al3  1  0.74992  0.31703  0.50022  1
 Al  Al4  1  0.75008  0.18297  0.00022  1
 Cl  Cl1  1  0.51002  0.31558  0.04410  1
 Cl  Cl2  1  0.98998  0.18442  0.54410  1
 Cl  Cl3  1  0.48998  0.68442  0.95590  1
 Cl  Cl4  1  0.16900  0.55330  0.67782  1
 Cl  Cl5  1  0.33069  0.55349  0.32161  1
 Cl  Cl6  1  0.16931  0.94651  0.82161  1
 Cl  Cl7  1  0.01002  0.81558  0.45590  1
 Cl  Cl8  1  0.83069  0.05349  0.17839  1
 Cl  Cl9  1  0.00903  0.68442  0.04367  1
 Cl  Cl10  1  -0.00903  0.31558  -0.04367  1
 Cl  Cl11  1  0.66931  0.44651  0.67839  1
 Cl  Cl12  1  0.50903  0.18442  0.45633  1
 Cl  Cl13  1  0.83100  0.44670  0.32218  1
 Cl  Cl14  1  0.66900  0.05330  0.82218  1
 Cl  Cl15  1  0.49097  0.81558  0.54367  1
 Cl  Cl16  1  0.33100  0.94670  0.17782  1
 Ga  Ga1  1  0.32379  0.25018  0.75012  1
 Ga  Ga2  1  0.17621  0.24982  0.25012  1
 Ga  Ga3  1  0.67621  0.74982  0.24988  1
 Ga  Ga4  1  0.82379  0.75018  0.74988  1
