CIF file written using JARVIS-Tools package.
data_MgHg5
_symmetry_space_group_name_H-M  'R32'
_cell_length_a       6.0794
_cell_length_b       6.07941
_cell_length_c       5.90941
_cell_angle_alpha    120.956
_cell_angle_beta     59.0438
_cell_angle_gamma    120

_symmetry_Int_Tables_number  155
_chemical_formula_structural  MgHg5
_chemical_formula_sum  MgHg5
_cell_volume  152.16760934434504
_cell_formula_units_Z  1
loop_
  _symmetry_equiv_pos_site_id
 _symmetry_equiv_pos_as_xyz
 1  'x, y, z'
loop_
 _atom_site_type_symbol
 _atom_site_label
 _atom_site_symmetry_multiplicity
 _atom_site_fract_x
 _atom_site_fract_y
 _atom_site_fract_z
 _atom_site_fract_occupancy
 Hg  Hg1  1  0.94612  0.00000  1.00000  1
 Hg  Hg2  1  0.72055  0.38721  1.00000  1
 Hg  Hg3  1  0.33334  0.61279  -0.00000  1
 Hg  Hg4  1  0.18930  0.14403  0.43209  1
 Hg  Hg5  1  0.47736  0.85597  0.56791  1
 Mg  Mg1  1  0.83333  0.50000  0.50000  1
