CIF file written using JARVIS-Tools package.
data_NaHfMg6
_symmetry_space_group_name_H-M  'P-6m2'
_cell_length_a       6.46107
_cell_length_b       6.46107
_cell_length_c       5.10877
_cell_angle_alpha    90
_cell_angle_beta     90
_cell_angle_gamma    120.008

_symmetry_Int_Tables_number  187
_chemical_formula_structural  NaHfMg6
_chemical_formula_sum  NaHfMg6
_cell_volume  184.68111773798043
_cell_formula_units_Z  1
loop_
  _symmetry_equiv_pos_site_id
 _symmetry_equiv_pos_as_xyz
 1  'x, y, z'
loop_
 _atom_site_type_symbol
 _atom_site_label
 _atom_site_symmetry_multiplicity
 _atom_site_fract_x
 _atom_site_fract_y
 _atom_site_fract_z
 _atom_site_fract_occupancy
 Hf  Hf1  1  0.41668  0.08332  0.75000  1
 Mg  Mg1  1  0.09353  0.92182  0.25000  1
 Mg  Mg2  1  0.57818  0.40647  0.25000  1
 Mg  Mg3  1  0.57820  0.92180  0.25000  1
 Mg  Mg4  1  0.42481  0.58738  0.75000  1
 Mg  Mg5  1  0.91262  0.07519  0.75000  1
 Mg  Mg6  1  0.91267  0.58733  0.75000  1
 Na  Na1  1  0.08330  0.41670  0.25000  1
