CIF file written using JARVIS-Tools package.
data_Mg6GaCo
_symmetry_space_group_name_H-M  'Amm2'
_cell_length_a       6.05513
_cell_length_b       6.16302
_cell_length_c       4.72817
_cell_angle_alpha    90
_cell_angle_beta     90
_cell_angle_gamma    120.591

_symmetry_Int_Tables_number  38
_chemical_formula_structural  Mg6GaCo
_chemical_formula_sum  Mg6GaCo
_cell_volume  151.88787267387946
_cell_formula_units_Z  1
loop_
  _symmetry_equiv_pos_site_id
 _symmetry_equiv_pos_as_xyz
 1  'x, y, z'
loop_
 _atom_site_type_symbol
 _atom_site_label
 _atom_site_symmetry_multiplicity
 _atom_site_fract_x
 _atom_site_fract_y
 _atom_site_fract_z
 _atom_site_fract_occupancy
 Co  Co1  1  0.16416  0.33208  0.25000  1
 Ga  Ga1  1  0.16605  0.83303  0.25000  1
 Mg  Mg1  1  0.67001  0.33303  0.25000  1
 Mg  Mg2  1  0.67001  0.83698  0.25000  1
 Mg  Mg3  1  0.32148  0.17252  0.75000  1
 Mg  Mg4  1  0.32148  0.64896  0.75000  1
 Mg  Mg5  1  0.84956  0.17478  0.75000  1
 Mg  Mg6  1  0.83726  0.66863  0.75000  1
