CIF file written using JARVIS-Tools package.
data_CaH4N6O2
_symmetry_space_group_name_H-M  'P2_1/c'
_cell_length_a       11.4969
_cell_length_b       6.06051
_cell_length_c       7.88931
_cell_angle_alpha    90
_cell_angle_beta     107.901
_cell_angle_gamma    90

_symmetry_Int_Tables_number  14
_chemical_formula_structural  CaH4N6O2
_chemical_formula_sum  Ca4H6N24O8
_cell_volume  523.0908514377405
_cell_formula_units_Z  4
loop_
  _symmetry_equiv_pos_site_id
 _symmetry_equiv_pos_as_xyz
 1  'x, y, z'
loop_
 _atom_site_type_symbol
 _atom_site_label
 _atom_site_symmetry_multiplicity
 _atom_site_fract_x
 _atom_site_fract_y
 _atom_site_fract_z
 _atom_site_fract_occupancy
 Ca  Ca1  1  0.51214  0.74594  0.17983  1
 Ca  Ca2  1  0.01214  0.75406  0.67983  1
 Ca  Ca3  1  0.48786  0.25406  0.82017  1
 Ca  Ca4  1  0.98786  0.24594  0.32017  1
 H  H1  1  0.20266  0.04137  0.61278  1
 H  H2  1  0.37098  0.70419  0.79650  1
 H  H3  1  0.87098  0.79581  0.29650  1
 H  H4  1  0.62902  0.29581  0.20350  1
 H  H5  1  0.29734  0.54137  0.88722  1
 H  H6  1  0.79734  0.95863  0.38722  1
 H  H7  1  0.70266  0.45863  0.11278  1
 H  H8  1  0.12902  0.20419  0.70350  1
 H  H9  1  0.30382  0.01973  0.99267  1
 H  H10  1  0.80382  0.48027  0.49267  1
 H  H11  1  0.69618  0.98027  0.00733  1
 H  H12  1  0.39065  0.19621  0.12024  1
 H  H13  1  0.89065  0.30379  0.62024  1
 H  H14  1  0.60935  0.80379  0.87976  1
 H  H15  1  0.10935  0.69621  0.37976  1
 H  H16  1  0.19618  0.51973  0.50733  1
 N  N1  1  0.64587  0.07192  0.34851  1
 N  N2  1  0.87315  0.60305  0.01228  1
 N  N3  1  0.35413  0.92808  0.65149  1
 N  N4  1  0.85413  0.57192  0.15149  1
 N  N5  1  0.40011  0.41505  0.25895  1
 N  N6  1  0.62685  0.10305  0.48772  1
 N  N7  1  0.59989  0.58495  0.74105  1
 N  N8  1  0.09989  0.91505  0.24105  1
 N  N9  1  0.12685  0.39695  0.98772  1
 N  N10  1  0.37315  0.89695  0.51228  1
 N  N11  1  0.14587  0.42808  0.84851  1
 N  N12  1  0.90011  0.08495  0.75895  1
 N  N13  1  0.65943  0.61162  0.48043  1
 N  N14  1  0.89155  0.62779  0.87628  1
 N  N15  1  0.62976  0.60040  0.61094  1
 N  N16  1  0.37024  0.39960  0.38906  1
 N  N17  1  0.60845  0.12779  0.62372  1
 N  N18  1  0.10845  0.37221  0.12372  1
 N  N19  1  0.39155  0.87221  0.37628  1
 N  N20  1  0.12976  0.89960  0.11094  1
 N  N21  1  0.34057  0.38838  0.51957  1
 N  N22  1  0.84057  0.11162  0.01957  1
 N  N23  1  0.15943  0.88838  0.98043  1
 N  N24  1  0.87024  0.10040  0.88906  1
 O  O1  1  0.38207  0.58938  0.89299  1
 O  O2  1  0.88207  0.91062  0.39299  1
 O  O3  1  0.61793  0.41062  0.10701  1
 O  O4  1  0.11793  0.08938  0.60701  1
 O  O5  1  0.38843  0.08255  0.02542  1
 O  O6  1  0.88843  0.41745  0.52542  1
 O  O7  1  0.61157  0.91745  0.97458  1
 O  O8  1  0.11157  0.58255  0.47458  1
