CIF file written using JARVIS-Tools package.
data_Tc2P3
_symmetry_space_group_name_H-M  'C2/m'
_cell_length_a       3.13238
_cell_length_b       6.42381
_cell_length_c       7.78018
_cell_angle_alpha    78.9523
_cell_angle_beta     78.3868
_cell_angle_gamma    75.8886

_symmetry_Int_Tables_number  12
_chemical_formula_structural  Tc2P3
_chemical_formula_sum  Tc4P6
_cell_volume  147.03496587164224
_cell_formula_units_Z  2
loop_
  _symmetry_equiv_pos_site_id
 _symmetry_equiv_pos_as_xyz
 1  'x, y, z'
loop_
 _atom_site_type_symbol
 _atom_site_label
 _atom_site_symmetry_multiplicity
 _atom_site_fract_x
 _atom_site_fract_y
 _atom_site_fract_z
 _atom_site_fract_occupancy
 P  P1  1  0.09838  0.43253  0.37071  1
 P  P2  1  0.90162  0.56747  0.62929  1
 P  P3  1  0.41056  0.85676  0.32212  1
 P  P4  1  0.58944  0.14324  0.67788  1
 P  P5  1  0.88829  0.18323  0.04019  1
 P  P6  1  0.11171  0.81677  0.95981  1
 Tc  Tc1  1  0.36549  0.41351  0.85550  1
 Tc  Tc2  1  0.63451  0.58649  0.14450  1
 Tc  Tc3  1  0.25028  0.86323  0.63622  1
 Tc  Tc4  1  0.74972  0.13677  0.36378  1
