CIF file written using JARVIS-Tools package.
data_KMoO3
_symmetry_space_group_name_H-M  'Pm-3m'
_cell_length_a       3.94078
_cell_length_b       3.9409
_cell_length_c       3.94082
_cell_angle_alpha    90.0019
_cell_angle_beta     90.0051
_cell_angle_gamma    90

_symmetry_Int_Tables_number  221
_chemical_formula_structural  KMoO3
_chemical_formula_sum  KMoO3
_cell_volume  61.201906856844154
_cell_formula_units_Z  1
loop_
  _symmetry_equiv_pos_site_id
 _symmetry_equiv_pos_as_xyz
 1  'x, y, z'
loop_
 _atom_site_type_symbol
 _atom_site_label
 _atom_site_symmetry_multiplicity
 _atom_site_fract_x
 _atom_site_fract_y
 _atom_site_fract_z
 _atom_site_fract_occupancy
 K  K1  1  0.98802  -0.00000  0.99800  1
 Mo  Mo1  1  0.48799  0.50000  0.49800  1
 O  O1  1  0.48800  -0.00000  0.49802  1
 O  O2  1  0.98800  0.50001  0.49798  1
 O  O3  1  0.48799  0.49999  0.99801  1
