CIF file written using JARVIS-Tools package.
data_Na3LuSi2O7
_symmetry_space_group_name_H-M  'P6_3/m'
_cell_length_a       9.38474
_cell_length_b       9.38474
_cell_length_c       13.6861
_cell_angle_alpha    90
_cell_angle_beta     90
_cell_angle_gamma    120

_symmetry_Int_Tables_number  176
_chemical_formula_structural  Na3LuSi2O7
_chemical_formula_sum  Na8Lu6Si2O42
_cell_volume  1043.8895768624197
_cell_formula_units_Z  6
loop_
  _symmetry_equiv_pos_site_id
 _symmetry_equiv_pos_as_xyz
 1  'x, y, z'
loop_
 _atom_site_type_symbol
 _atom_site_label
 _atom_site_symmetry_multiplicity
 _atom_site_fract_x
 _atom_site_fract_y
 _atom_site_fract_z
 _atom_site_fract_occupancy
 Lu  Lu1  1  0.66667  0.33333  0.51963  1
 Lu  Lu2  1  0.66667  0.33333  0.98037  1
 Lu  Lu3  1  0.00000  0.00000  0.25000  1
 Lu  Lu4  1  0.33333  0.66667  0.01963  1
 Lu  Lu5  1  0.33333  0.66667  0.48037  1
 Lu  Lu6  1  0.00000  0.00000  0.75000  1
 Na  Na1  1  0.33155  0.31658  0.91053  1
 Na  Na2  1  0.31658  0.98503  0.41053  1
 Na  Na3  1  0.33155  0.31658  0.58947  1
 Na  Na4  1  0.66845  0.68342  0.08947  1
 Na  Na5  1  0.01497  0.33155  0.41053  1
 Na  Na6  1  0.68342  0.01497  0.91053  1
 Na  Na7  1  0.98503  0.66845  0.58947  1
 Na  Na8  1  0.66667  0.33333  0.75000  1
 Na  Na9  1  0.00000  0.00000  0.00000  1
 Na  Na10  1  0.01497  0.33155  0.08947  1
 Na  Na11  1  0.68342  0.01497  0.58947  1
 Na  Na12  1  0.66845  0.68342  0.41053  1
 Na  Na13  1  0.31658  0.98503  0.08947  1
 Na  Na14  1  0.33333  0.66667  0.25000  1
 Na  Na15  1  0.66667  0.33333  0.25000  1
 Na  Na16  1  0.00000  0.00000  0.50000  1
 Na  Na17  1  0.33333  0.66667  0.75000  1
 Na  Na18  1  0.98503  0.66845  0.91053  1
 O  O1  1  0.44266  0.27018  0.06297  1
 O  O2  1  0.27018  0.82752  0.56297  1
 O  O3  1  0.85108  0.80368  0.85911  1
 O  O4  1  0.17248  0.44266  0.56297  1
 O  O5  1  0.48366  0.87231  0.38019  1
 O  O6  1  0.31979  0.89750  0.75000  1
 O  O7  1  0.80368  0.95260  0.14089  1
 O  O8  1  0.19632  0.04740  0.64089  1
 O  O9  1  0.72982  0.17248  0.43703  1
 O  O10  1  0.17248  0.44266  0.93703  1
 O  O11  1  0.72982  0.17248  0.06297  1
 O  O12  1  0.61135  0.48366  0.61981  1
 O  O13  1  0.44266  0.27018  0.43703  1
 O  O14  1  0.80368  0.95260  0.35911  1
 O  O15  1  0.87231  0.38865  0.88019  1
 O  O16  1  0.68021  0.10250  0.25000  1
 O  O17  1  0.82752  0.55734  0.43703  1
 O  O18  1  0.87231  0.38865  0.61981  1
 O  O19  1  0.55734  0.72982  0.93703  1
 O  O20  1  0.51634  0.12769  0.88019  1
 O  O21  1  0.04740  0.85108  0.14089  1
 O  O22  1  0.57771  0.68021  0.75000  1
 O  O23  1  0.12769  0.61135  0.38019  1
 O  O24  1  0.95260  0.14892  0.85911  1
 O  O25  1  0.27018  0.82752  0.93703  1
 O  O26  1  0.14892  0.19632  0.14089  1
 O  O27  1  0.89750  0.57771  0.25000  1
 O  O28  1  0.61135  0.48366  0.88019  1
 O  O29  1  0.38865  0.51634  0.11981  1
 O  O30  1  0.10250  0.42229  0.75000  1
 O  O31  1  0.19632  0.04740  0.85911  1
 O  O32  1  0.48366  0.87231  0.11981  1
 O  O33  1  0.82752  0.55734  0.06297  1
 O  O34  1  0.04740  0.85108  0.35911  1
 O  O35  1  0.12769  0.61135  0.11981  1
 O  O36  1  0.95260  0.14892  0.64089  1
 O  O37  1  0.55734  0.72982  0.56297  1
 O  O38  1  0.42229  0.31979  0.25000  1
 O  O39  1  0.14892  0.19632  0.35911  1
 O  O40  1  0.38865  0.51634  0.38019  1
 O  O41  1  0.85108  0.80368  0.64089  1
 O  O42  1  0.51634  0.12769  0.61981  1
 Si  Si1  1  0.32800  0.98120  0.63978  1
 Si  Si2  1  0.98120  0.65321  0.13978  1
 Si  Si3  1  0.65321  0.67200  0.86022  1
 Si  Si4  1  0.67200  0.01880  0.13978  1
 Si  Si5  1  0.34679  0.32800  0.36022  1
 Si  Si6  1  0.01880  0.34679  0.63978  1
 Si  Si7  1  0.32800  0.98120  0.86022  1
 Si  Si8  1  0.67200  0.01880  0.36022  1
 Si  Si9  1  0.34679  0.32800  0.13978  1
 Si  Si10  1  0.65321  0.67200  0.63978  1
 Si  Si11  1  0.98120  0.65321  0.36022  1
 Si  Si12  1  0.01880  0.34679  0.86022  1
