CIF file written using JARVIS-Tools package.
data_Sr5As3ClO12
_symmetry_space_group_name_H-M  'P6_3/m'
_cell_length_a       10.2688
_cell_length_b       10.2688
_cell_length_c       7.3199
_cell_angle_alpha    90
_cell_angle_beta     90
_cell_angle_gamma    120

_symmetry_Int_Tables_number  176
_chemical_formula_structural  Sr5As3ClO12
_chemical_formula_sum  Sr0As6Cl2O24
_cell_volume  668.4638437160986
_cell_formula_units_Z  2
loop_
  _symmetry_equiv_pos_site_id
 _symmetry_equiv_pos_as_xyz
 1  'x, y, z'
loop_
 _atom_site_type_symbol
 _atom_site_label
 _atom_site_symmetry_multiplicity
 _atom_site_fract_x
 _atom_site_fract_y
 _atom_site_fract_z
 _atom_site_fract_occupancy
 As  As1  1  0.62600  0.03230  0.25000  1
 As  As2  1  0.59370  0.62600  0.75000  1
 As  As3  1  0.03230  0.40630  0.75000  1
 As  As4  1  0.96770  0.59370  0.25000  1
 As  As5  1  0.37400  0.96770  0.75000  1
 As  As6  1  0.40630  0.37400  0.25000  1
 Cl  Cl1  1  0.00000  0.00000  0.50000  1
 Cl  Cl2  1  0.00000  0.00000  0.00000  1
 O  O1  1  0.25811  0.90326  0.56226  1
 O  O2  1  0.74189  0.09674  0.43774  1
 O  O3  1  0.09674  0.35486  0.93774  1
 O  O4  1  0.39944  0.52649  0.75000  1
 O  O5  1  0.09674  0.35486  0.56226  1
 O  O6  1  0.84037  0.32828  0.75000  1
 O  O7  1  0.35486  0.25811  0.06226  1
 O  O8  1  0.12706  0.60056  0.75000  1
 O  O9  1  0.74189  0.09674  0.06226  1
 O  O10  1  0.51209  0.84037  0.25000  1
 O  O11  1  0.60056  0.47351  0.25000  1
 O  O12  1  0.90326  0.64514  0.06226  1
 O  O13  1  0.47351  0.87294  0.75000  1
 O  O14  1  0.15963  0.67172  0.25000  1
 O  O15  1  0.35486  0.25811  0.43774  1
 O  O16  1  0.52649  0.12706  0.25000  1
 O  O17  1  0.87294  0.39944  0.25000  1
 O  O18  1  0.32828  0.48791  0.25000  1
 O  O19  1  0.64514  0.74189  0.93774  1
 O  O20  1  0.48791  0.15963  0.75000  1
 O  O21  1  0.25811  0.90326  0.93774  1
 O  O22  1  0.67172  0.51209  0.75000  1
 O  O23  1  0.90326  0.64514  0.43774  1
 O  O24  1  0.64514  0.74189  0.56226  1
 Sr  Sr1  1  0.25155  0.24946  0.75000  1
 Sr  Sr2  1  0.33333  0.66667  0.49842  1
 Sr  Sr3  1  0.75054  0.00209  0.75000  1
 Sr  Sr4  1  -0.00209  0.74845  0.75000  1
 Sr  Sr5  1  0.00209  0.25155  0.25000  1
 Sr  Sr6  1  0.66667  0.33333  0.50158  1
 Sr  Sr7  1  0.74845  0.75054  0.25000  1
 Sr  Sr8  1  0.24946  -0.00209  0.25000  1
 Sr  Sr9  1  0.66667  0.33333  0.99842  1
 Sr  Sr10  1  0.33333  0.66667  0.00158  1
