CIF file written using JARVIS-Tools package.
data_EuAl2Cl8
_symmetry_space_group_name_H-M  'P2/c'
_cell_length_a       6.80073
_cell_length_b       6.45415
_cell_length_c       13.0023
_cell_angle_alpha    91.8217
_cell_angle_beta     90
_cell_angle_gamma    90

_symmetry_Int_Tables_number  13
_chemical_formula_structural  EuAl2Cl8
_chemical_formula_sum  Eu2Al4Cl6
_cell_volume  570.4185909743074
_cell_formula_units_Z  2
loop_
  _symmetry_equiv_pos_site_id
 _symmetry_equiv_pos_as_xyz
 1  'x, y, z'
loop_
 _atom_site_type_symbol
 _atom_site_label
 _atom_site_symmetry_multiplicity
 _atom_site_fract_x
 _atom_site_fract_y
 _atom_site_fract_z
 _atom_site_fract_occupancy
 Al  Al1  1  0.25805  0.66556  0.91243  1
 Al  Al2  1  0.25805  0.33444  0.58757  1
 Al  Al3  1  0.74195  0.33444  0.08757  1
 Al  Al4  1  0.74195  0.66556  0.41243  1
 Cl  Cl1  1  0.49151  0.76648  0.32169  1
 Cl  Cl2  1  0.84557  0.35471  0.37147  1
 Cl  Cl3  1  0.33902  0.28908  0.42698  1
 Cl  Cl4  1  0.33902  0.71092  0.07302  1
 Cl  Cl5  1  0.66098  0.71092  0.57302  1
 Cl  Cl6  1  0.66098  0.28908  0.92698  1
 Cl  Cl7  1  0.99854  0.84097  0.87134  1
 Cl  Cl8  1  0.00146  0.84097  0.37134  1
 Cl  Cl9  1  0.99854  0.15903  0.62866  1
 Cl  Cl10  1  0.50849  0.76648  0.82169  1
 Cl  Cl11  1  0.00146  0.15903  0.12866  1
 Cl  Cl12  1  0.49151  0.23352  0.17831  1
 Cl  Cl13  1  0.15443  0.64529  0.62853  1
 Cl  Cl14  1  0.15443  0.35471  0.87147  1
 Cl  Cl15  1  0.84557  0.64529  0.12853  1
 Cl  Cl16  1  0.50849  0.23352  0.67831  1
 Eu  Eu1  1  0.82411  0.50000  0.75000  1
 Eu  Eu2  1  0.17589  0.50000  0.25000  1
