CIF file written using JARVIS-Tools package.
data_Mg6TiB
_symmetry_space_group_name_H-M  'Amm2'
_cell_length_a       6.67059
_cell_length_b       6.6706
_cell_length_c       3.60505
_cell_angle_alpha    90
_cell_angle_beta     90
_cell_angle_gamma    98.5316

_symmetry_Int_Tables_number  38
_chemical_formula_structural  Mg6TiB
_chemical_formula_sum  Mg6TiB
_cell_volume  158.6381691652759
_cell_formula_units_Z  1
loop_
  _symmetry_equiv_pos_site_id
 _symmetry_equiv_pos_as_xyz
 1  'x, y, z'
loop_
 _atom_site_type_symbol
 _atom_site_label
 _atom_site_symmetry_multiplicity
 _atom_site_fract_x
 _atom_site_fract_y
 _atom_site_fract_z
 _atom_site_fract_occupancy
 B  B1  1  0.26223  0.23777  0.75000  1
 Mg  Mg1  1  0.20715  0.94387  0.25000  1
 Mg  Mg2  1  0.55613  0.29285  0.25000  1
 Mg  Mg3  1  0.67020  0.82980  0.25000  1
 Mg  Mg4  1  0.38252  0.61463  0.75000  1
 Mg  Mg5  1  0.88537  0.11748  0.75000  1
 Mg  Mg6  1  0.90160  0.59840  0.75000  1
 Ti  Ti1  1  0.13480  0.36520  0.25000  1
