CIF file written using JARVIS-Tools package.
data_Ti4H3
_symmetry_space_group_name_H-M  'P-42m'
_cell_length_a       4.19889
_cell_length_b       4.19889
_cell_length_c       4.42626
_cell_angle_alpha    90
_cell_angle_beta     90
_cell_angle_gamma    90

_symmetry_Int_Tables_number  111
_chemical_formula_structural  Ti4H3
_chemical_formula_sum  Ti4H3
_cell_volume  78.03776010729771
_cell_formula_units_Z  1
loop_
  _symmetry_equiv_pos_site_id
 _symmetry_equiv_pos_as_xyz
 1  'x, y, z'
loop_
 _atom_site_type_symbol
 _atom_site_label
 _atom_site_symmetry_multiplicity
 _atom_site_fract_x
 _atom_site_fract_y
 _atom_site_fract_z
 _atom_site_fract_occupancy
 H  H1  1  0.00000  0.00000  0.00000  1
 H  H2  1  0.00000  0.00000  0.50000  1
 H  H3  1  0.50000  0.50000  0.00000  1
 Ti  Ti1  1  0.25587  0.25587  0.26287  1
 Ti  Ti2  1  0.74413  0.74413  0.26287  1
 Ti  Ti3  1  0.74413  0.25587  0.73713  1
 Ti  Ti4  1  0.25587  0.74413  0.73713  1
