CIF file written using JARVIS-Tools package.
data_Si2Os
_symmetry_space_group_name_H-M  'C2/m'
_cell_length_a       3.04137
_cell_length_b       4.63169
_cell_length_c       6.80835
_cell_angle_alpha    80.0684
_cell_angle_beta     77.0937
_cell_angle_gamma    70.833

_symmetry_Int_Tables_number  12
_chemical_formula_structural  Si2Os
_chemical_formula_sum  Si4Os2
_cell_volume  87.78851909363406
_cell_formula_units_Z  2
loop_
  _symmetry_equiv_pos_site_id
 _symmetry_equiv_pos_as_xyz
 1  'x, y, z'
loop_
 _atom_site_type_symbol
 _atom_site_label
 _atom_site_symmetry_multiplicity
 _atom_site_fract_x
 _atom_site_fract_y
 _atom_site_fract_z
 _atom_site_fract_occupancy
 Os  Os1  1  0.15571  0.89138  0.79719  1
 Os  Os2  1  0.84429  0.10862  0.20281  1
 Si  Si1  1  0.39563  0.31356  0.89518  1
 Si  Si2  1  0.60437  0.68644  0.10482  1
 Si  Si3  1  0.85833  0.75468  0.52866  1
 Si  Si4  1  0.14167  0.24532  0.47134  1
