CIF file written using JARVIS-Tools package.
data_Mg6VFe
_symmetry_space_group_name_H-M  'Amm2'
_cell_length_a       6.22373
_cell_length_b       6.22374
_cell_length_c       4.71271
_cell_angle_alpha    90
_cell_angle_beta     90
_cell_angle_gamma    122.531

_symmetry_Int_Tables_number  38
_chemical_formula_structural  Mg6VFe
_chemical_formula_sum  Mg6VFe
_cell_volume  153.90464572791143
_cell_formula_units_Z  1
loop_
  _symmetry_equiv_pos_site_id
 _symmetry_equiv_pos_as_xyz
 1  'x, y, z'
loop_
 _atom_site_type_symbol
 _atom_site_label
 _atom_site_symmetry_multiplicity
 _atom_site_fract_x
 _atom_site_fract_y
 _atom_site_fract_z
 _atom_site_fract_occupancy
 Fe  Fe1  1  0.19655  0.30345  0.25000  1
 Mg  Mg1  1  0.17690  0.84202  0.25000  1
 Mg  Mg2  1  0.65798  0.32310  0.25000  1
 Mg  Mg3  1  0.67092  0.82908  0.25000  1
 Mg  Mg4  1  0.32021  0.66169  0.75000  1
 Mg  Mg5  1  0.83831  0.17979  0.75000  1
 Mg  Mg6  1  0.83174  0.66826  0.75000  1
 V  V1  1  0.30739  0.19261  0.75000  1
