CIF file written using JARVIS-Tools package.
data_NaV6O11
_symmetry_space_group_name_H-M  'P6_3/mmc'
_cell_length_a       5.6744
_cell_length_b       5.67441
_cell_length_c       13.6426
_cell_angle_alpha    90
_cell_angle_beta     90
_cell_angle_gamma    120

_symmetry_Int_Tables_number  194
_chemical_formula_structural  NaV6O11
_chemical_formula_sum  Na2V2O22
_cell_volume  380.42393171090697
_cell_formula_units_Z  2
loop_
  _symmetry_equiv_pos_site_id
 _symmetry_equiv_pos_as_xyz
 1  'x, y, z'
loop_
 _atom_site_type_symbol
 _atom_site_label
 _atom_site_symmetry_multiplicity
 _atom_site_fract_x
 _atom_site_fract_y
 _atom_site_fract_z
 _atom_site_fract_occupancy
 Na  Na1  1  0.66667  0.33333  0.75000  1
 Na  Na2  1  0.33333  0.66667  0.25000  1
 O  O1  1  0.83463  0.16537  0.57453  1
 O  O2  1  0.16537  0.83463  0.42547  1
 O  O3  1  0.16537  0.33074  0.42547  1
 O  O4  1  0.86684  0.13316  0.75000  1
 O  O5  1  0.26631  0.13316  0.75000  1
 O  O6  1  0.83463  0.66926  0.57453  1
 O  O7  1  0.16537  0.33074  0.07453  1
 O  O8  1  0.33074  0.16537  0.92547  1
 O  O9  1  0.13316  0.26631  0.25000  1
 O  O10  1  0.13316  0.86684  0.25000  1
 O  O11  1  0.66667  0.33333  0.40072  1
 O  O12  1  0.73369  0.86684  0.25000  1
 O  O13  1  0.16537  0.83463  0.07453  1
 O  O14  1  0.66926  0.83463  0.42547  1
 O  O15  1  0.66667  0.33333  0.09928  1
 O  O16  1  0.66926  0.83463  0.07453  1
 O  O17  1  0.83463  0.66926  0.92547  1
 O  O18  1  0.33074  0.16537  0.57453  1
 O  O19  1  0.83463  0.16537  0.92547  1
 O  O20  1  0.86684  0.73369  0.75000  1
 O  O21  1  0.33333  0.66667  0.90072  1
 O  O22  1  0.33333  0.66667  0.59928  1
 V  V1  1  0.00000  0.00000  0.35071  1
 V  V2  1  0.50000  0.00000  0.00000  1
 V  V3  1  0.00000  0.00000  0.14929  1
 V  V4  1  0.00000  0.00000  0.64929  1
 V  V5  1  0.50000  0.50000  0.00000  1
 V  V6  1  -0.00000  0.50000  0.50000  1
 V  V7  1  0.00000  0.00000  0.85071  1
 V  V8  1  -0.00000  0.50000  0.00000  1
 V  V9  1  0.66667  0.33333  0.25000  1
 V  V10  1  0.33333  0.66667  0.75000  1
 V  V11  1  0.50000  0.00000  0.50000  1
 V  V12  1  0.50000  0.50000  0.50000  1
