CIF file written using JARVIS-Tools package.
data_FeS
_symmetry_space_group_name_H-M  'P-62c'
_cell_length_a       5.84656
_cell_length_b       5.84656
_cell_length_c       10.5458
_cell_angle_alpha    90
_cell_angle_beta     90
_cell_angle_gamma    120

_symmetry_Int_Tables_number  190
_chemical_formula_structural  FeS
_chemical_formula_sum  Fe2S2
_cell_volume  312.18505929707436
_cell_formula_units_Z  12
loop_
  _symmetry_equiv_pos_site_id
 _symmetry_equiv_pos_as_xyz
 1  'x, y, z'
loop_
 _atom_site_type_symbol
 _atom_site_label
 _atom_site_symmetry_multiplicity
 _atom_site_fract_x
 _atom_site_fract_y
 _atom_site_fract_z
 _atom_site_fract_occupancy
 Fe  Fe1  1  0.40512  0.06798  0.11484  1
 Fe  Fe2  1  0.59488  0.66286  0.61484  1
 Fe  Fe3  1  0.33714  0.93202  0.61484  1
 Fe  Fe4  1  0.06798  0.40512  0.61484  1
 Fe  Fe5  1  0.40512  0.06798  0.38516  1
 Fe  Fe6  1  0.06798  0.40512  0.88516  1
 Fe  Fe7  1  0.66286  0.59488  0.38516  1
 Fe  Fe8  1  0.33714  0.93202  0.88516  1
 Fe  Fe9  1  0.66286  0.59488  0.11484  1
 Fe  Fe10  1  0.93202  0.33714  0.11484  1
 Fe  Fe11  1  0.93202  0.33714  0.38516  1
 Fe  Fe12  1  0.59488  0.66286  0.88516  1
 S  S1  1  0.32482  0.35131  0.75000  1
 S  S2  1  0.64869  0.97352  0.75000  1
 S  S3  1  0.97352  0.64869  0.25000  1
 S  S4  1  0.35131  0.32482  0.25000  1
 S  S5  1  0.67518  0.02648  0.25000  1
 S  S6  1  0.66667  0.33333  0.96442  1
 S  S7  1  0.33333  0.66667  0.46442  1
 S  S8  1  0.33333  0.66667  0.03558  1
 S  S9  1  0.02648  0.67518  0.75000  1
 S  S10  1  0.00000  0.00000  0.50000  1
 S  S11  1  0.66667  0.33333  0.53558  1
 S  S12  1  0.00000  0.00000  0.00000  1
