CIF file written using JARVIS-Tools package.
data_TmSi2Ru2
_symmetry_space_group_name_H-M  'I4/mmm'
_cell_length_a       4.17811
_cell_length_b       4.1781
_cell_length_c       5.58381
_cell_angle_alpha    111.97
_cell_angle_beta     111.97
_cell_angle_gamma    89.9999

_symmetry_Int_Tables_number  139
_chemical_formula_structural  TmSi2Ru2
_chemical_formula_sum  TmSi2Ru2
_cell_volume  82.71296513415858
_cell_formula_units_Z  1
loop_
  _symmetry_equiv_pos_site_id
 _symmetry_equiv_pos_as_xyz
 1  'x, y, z'
loop_
 _atom_site_type_symbol
 _atom_site_label
 _atom_site_symmetry_multiplicity
 _atom_site_fract_x
 _atom_site_fract_y
 _atom_site_fract_z
 _atom_site_fract_occupancy
 Ru  Ru1  1  0.75000  0.25000  0.50000  1
 Ru  Ru2  1  0.25000  0.75000  0.50000  1
 Si  Si1  1  0.36990  0.36990  0.73979  1
 Si  Si2  1  0.63010  0.63010  0.26021  1
 Tm  Tm1  1  0.00000  0.00000  0.00000  1
