CIF file written using JARVIS-Tools package.
data_BaCuSe2O6
_symmetry_space_group_name_H-M  'Pmn2_1'
_cell_length_a       5.24241
_cell_length_b       9.00253
_cell_length_c       13.4537
_cell_angle_alpha    90
_cell_angle_beta     90
_cell_angle_gamma    90

_symmetry_Int_Tables_number  31
_chemical_formula_structural  BaCuSe2O6
_chemical_formula_sum  Ba4Cu4Se8O24
_cell_volume  634.9467909460099
_cell_formula_units_Z  4
loop_
  _symmetry_equiv_pos_site_id
 _symmetry_equiv_pos_as_xyz
 1  'x, y, z'
loop_
 _atom_site_type_symbol
 _atom_site_label
 _atom_site_symmetry_multiplicity
 _atom_site_fract_x
 _atom_site_fract_y
 _atom_site_fract_z
 _atom_site_fract_occupancy
 Ba  Ba1  1  0.00287  0.75460  0.29799  1
 Ba  Ba2  1  -0.00287  0.25460  0.20201  1
 Ba  Ba3  1  0.00287  0.75460  0.70201  1
 Ba  Ba4  1  -0.00287  0.25460  0.79799  1
 Cu  Cu1  1  0.54215  0.04582  0.63240  1
 Cu  Cu2  1  0.45785  0.54582  0.86760  1
 Cu  Cu3  1  0.45785  0.54582  0.13240  1
 Cu  Cu4  1  0.54215  0.04582  0.36760  1
 O  O1  1  0.79913  0.46605  0.66475  1
 O  O2  1  0.01906  0.56527  0.10316  1
 O  O3  1  0.31614  0.50475  0.26982  1
 O  O4  1  0.79913  0.46605  0.33525  1
 O  O5  1  0.14579  0.72314  0.50000  1
 O  O6  1  0.85421  0.22314  0.00000  1
 O  O7  1  0.54147  0.83284  0.60522  1
 O  O8  1  0.58494  0.60820  0.00000  1
 O  O9  1  0.45853  0.33284  0.89478  1
 O  O10  1  0.68386  0.00475  0.76982  1
 O  O11  1  0.20087  0.96605  0.16475  1
 O  O12  1  0.68386  0.00475  0.23018  1
 O  O13  1  0.20087  0.96605  0.83525  1
 O  O14  1  0.41506  0.10820  0.50000  1
 O  O15  1  0.52798  0.74050  0.18890  1
 O  O16  1  0.31614  0.50475  0.73018  1
 O  O17  1  0.45853  0.33284  0.10522  1
 O  O18  1  0.47202  0.24050  0.31110  1
 O  O19  1  0.01906  0.56527  0.89684  1
 O  O20  1  0.52798  0.74050  0.81110  1
 O  O21  1  0.98094  0.06527  0.39684  1
 O  O22  1  0.47202  0.24050  0.68890  1
 O  O23  1  0.98094  0.06527  0.60316  1
 O  O24  1  0.54147  0.83284  0.39478  1
 Se  Se1  1  0.07819  0.15944  0.50000  1
 Se  Se2  1  0.52987  0.22828  0.00000  1
 Se  Se3  1  0.50570  0.91828  0.86247  1
 Se  Se4  1  0.50570  0.91828  0.13753  1
 Se  Se5  1  0.49430  0.41828  0.36247  1
 Se  Se6  1  0.47013  0.72828  0.50000  1
 Se  Se7  1  0.49430  0.41828  0.63753  1
 Se  Se8  1  0.92181  0.65944  0.00000  1
