CIF file written using JARVIS-Tools package.
data_Nd3Al3Si3N2O12
_symmetry_space_group_name_H-M  'C2'
_cell_length_a       8.12349
_cell_length_b       7.9489
_cell_length_c       4.92281
_cell_angle_alpha    90.8926
_cell_angle_beta     90
_cell_angle_gamma    120.729

_symmetry_Int_Tables_number  5
_chemical_formula_structural  Nd3Al3Si3N2O12
_chemical_formula_sum  Nd3Al3Si3N2O2
_cell_volume  273.20203320263545
_cell_formula_units_Z  1
loop_
  _symmetry_equiv_pos_site_id
 _symmetry_equiv_pos_as_xyz
 1  'x, y, z'
loop_
 _atom_site_type_symbol
 _atom_site_label
 _atom_site_symmetry_multiplicity
 _atom_site_fract_x
 _atom_site_fract_y
 _atom_site_fract_z
 _atom_site_fract_occupancy
 Al  Al1  1  0.01343  0.77775  0.52540  1
 Al  Al2  1  0.00241  0.00000  0.00000  1
 Al  Al3  1  0.23568  0.22225  0.47460  1
 N  N1  1  0.54044  0.83961  0.68521  1
 N  N2  1  0.70083  0.16039  0.31479  1
 Nd  Nd1  1  0.98829  0.40870  0.00546  1
 Nd  Nd2  1  0.57959  0.59130  0.99454  1
 Nd  Nd3  1  0.41639  0.00000  0.00000  1
 O  O1  1  0.84640  0.54755  0.33632  1
 O  O2  1  0.15633  0.68302  0.67830  1
 O  O3  1  0.10558  0.23511  0.19626  1
 O  O4  1  0.32231  0.66409  0.20807  1
 O  O5  1  0.14176  0.93331  0.25142  1
 O  O6  1  0.20845  0.06669  0.74858  1
 O  O7  1  0.65822  0.33591  0.79193  1
 O  O8  1  0.78773  0.87823  0.26469  1
 O  O9  1  0.87048  0.76489  0.80374  1
 O  O10  1  0.29885  0.45245  0.66368  1
 O  O11  1  0.47332  0.31698  0.32170  1
 O  O12  1  0.90950  0.12177  0.73531  1
 Si  Si1  1  0.73888  0.00000  0.50000  1
 Si  Si2  1  0.67133  0.33752  0.45849  1
 Si  Si3  1  0.33381  0.66248  0.54151  1
