CIF file written using JARVIS-Tools package.
data_Cd3B2O6
_symmetry_space_group_name_H-M  'Pnnm'
_cell_length_a       4.82697
_cell_length_b       6.04684
_cell_length_c       9.11182
_cell_angle_alpha    90
_cell_angle_beta     90
_cell_angle_gamma    90

_symmetry_Int_Tables_number  58
_chemical_formula_structural  Cd3B2O6
_chemical_formula_sum  Cd6B4O2
_cell_volume  265.9547572955058
_cell_formula_units_Z  2
loop_
  _symmetry_equiv_pos_site_id
 _symmetry_equiv_pos_as_xyz
 1  'x, y, z'
loop_
 _atom_site_type_symbol
 _atom_site_label
 _atom_site_symmetry_multiplicity
 _atom_site_fract_x
 _atom_site_fract_y
 _atom_site_fract_z
 _atom_site_fract_occupancy
 B  B1  1  0.03353  0.23986  0.50000  1
 B  B2  1  0.53353  0.26014  0.00000  1
 B  B3  1  0.96647  0.76014  0.50000  1
 B  B4  1  0.46647  0.73986  0.00000  1
 Cd  Cd1  1  0.00000  0.00000  0.00000  1
 Cd  Cd2  1  0.50000  0.00000  0.68921  1
 Cd  Cd3  1  0.00000  0.50000  0.81079  1
 Cd  Cd4  1  0.50000  0.00000  0.31079  1
 Cd  Cd5  1  0.00000  0.50000  0.18921  1
 Cd  Cd6  1  0.50000  0.50000  0.50000  1
 O  O1  1  0.32185  0.78210  0.86966  1
 O  O2  1  0.17815  0.28210  0.63034  1
 O  O3  1  0.67815  0.21790  0.86966  1
 O  O4  1  0.25791  0.32132  0.00000  1
 O  O5  1  0.75791  0.17868  0.50000  1
 O  O6  1  0.67815  0.21790  0.13034  1
 O  O7  1  0.82185  0.71790  0.63034  1
 O  O8  1  0.17815  0.28210  0.36966  1
 O  O9  1  0.82185  0.71790  0.36966  1
 O  O10  1  0.32185  0.78210  0.13034  1
 O  O11  1  0.24209  0.82132  0.50000  1
 O  O12  1  0.74209  0.67868  0.00000  1
