CIF file written using JARVIS-Tools package.
data_Nd2AlNi2
_symmetry_space_group_name_H-M  'Immm'
_cell_length_a       4.21531
_cell_length_b       5.56142
_cell_length_c       5.56142
_cell_angle_alpha    59.7087
_cell_angle_beta     67.7297
_cell_angle_gamma    67.7297

_symmetry_Int_Tables_number  71
_chemical_formula_structural  Nd2AlNi2
_chemical_formula_sum  Nd2AlNi2
_cell_volume  101.26055120908029
_cell_formula_units_Z  1
loop_
  _symmetry_equiv_pos_site_id
 _symmetry_equiv_pos_as_xyz
 1  'x, y, z'
loop_
 _atom_site_type_symbol
 _atom_site_label
 _atom_site_symmetry_multiplicity
 _atom_site_fract_x
 _atom_site_fract_y
 _atom_site_fract_z
 _atom_site_fract_occupancy
 Al  Al1  1  0.00000  0.00000  0.00000  1
 Nd  Nd1  1  0.20187  0.29813  0.29813  1
 Nd  Nd2  1  0.79813  0.70187  0.70187  1
 Ni  Ni1  1  0.50000  0.26408  0.73592  1
 Ni  Ni2  1  0.50000  0.73592  0.26408  1
