CIF file written using JARVIS-Tools package.
data_Li2BiS2
_symmetry_space_group_name_H-M  'Immm'
_cell_length_a       3.93755
_cell_length_b       7.31773
_cell_length_c       4.01309
_cell_angle_alpha    74.0884
_cell_angle_beta     90.0003
_cell_angle_gamma    74.3956

_symmetry_Int_Tables_number  71
_chemical_formula_structural  Li2BiS2
_chemical_formula_sum  Li2BiS2
_cell_volume  106.76361484331119
_cell_formula_units_Z  1
loop_
  _symmetry_equiv_pos_site_id
 _symmetry_equiv_pos_as_xyz
 1  'x, y, z'
loop_
 _atom_site_type_symbol
 _atom_site_label
 _atom_site_symmetry_multiplicity
 _atom_site_fract_x
 _atom_site_fract_y
 _atom_site_fract_z
 _atom_site_fract_occupancy
 Bi  Bi1  1  0.99063  0.00123  0.99719  1
 Li  Li1  1  0.73380  0.51494  0.74068  1
 Li  Li2  1  0.24747  0.48753  0.25437  1
 S  S1  1  0.13942  0.70374  0.64619  1
 S  S2  1  0.84186  0.29871  0.34873  1
