CIF file written using JARVIS-Tools package.
data_Y2GaNi2
_symmetry_space_group_name_H-M  'Immm'
_cell_length_a       4.16966
_cell_length_b       5.33906
_cell_length_c       5.33906
_cell_angle_alpha    60.8661
_cell_angle_beta     67.0152
_cell_angle_gamma    67.0152

_symmetry_Int_Tables_number  71
_chemical_formula_structural  Y2GaNi2
_chemical_formula_sum  Y2GaNi2
_cell_volume  92.56386518450178
_cell_formula_units_Z  1
loop_
  _symmetry_equiv_pos_site_id
 _symmetry_equiv_pos_as_xyz
 1  'x, y, z'
loop_
 _atom_site_type_symbol
 _atom_site_label
 _atom_site_symmetry_multiplicity
 _atom_site_fract_x
 _atom_site_fract_y
 _atom_site_fract_z
 _atom_site_fract_occupancy
 Ga  Ga1  1  0.00000  0.00000  0.00000  1
 Ni  Ni1  1  0.50000  0.27198  0.72802  1
 Ni  Ni2  1  0.50000  0.72802  0.27198  1
 Y  Y1  1  0.20370  0.29630  0.29630  1
 Y  Y2  1  0.79630  0.70370  0.70370  1
