CIF file written using JARVIS-Tools package.
data_LiCo3O6
_symmetry_space_group_name_H-M  'C2/m'
_cell_length_a       4.87572
_cell_length_b       4.86895
_cell_length_c       5.02071
_cell_angle_alpha    99.3247
_cell_angle_beta     108.881
_cell_angle_gamma    59.954

_symmetry_Int_Tables_number  12
_chemical_formula_structural  LiCo3O6
_chemical_formula_sum  LiCo3O6
_cell_volume  97.62177587037334
_cell_formula_units_Z  1
loop_
  _symmetry_equiv_pos_site_id
 _symmetry_equiv_pos_as_xyz
 1  'x, y, z'
loop_
 _atom_site_type_symbol
 _atom_site_label
 _atom_site_symmetry_multiplicity
 _atom_site_fract_x
 _atom_site_fract_y
 _atom_site_fract_z
 _atom_site_fract_occupancy
 Co  Co1  1  0.49720  0.00561  0.50000  1
 Co  Co2  1  0.16667  0.66667  0.50000  1
 Co  Co3  1  0.83614  0.32773  0.50000  1
 Li  Li1  1  0.66667  0.66667  0.00000  1
 O  O1  1  0.24080  0.99416  0.70489  1
 O  O2  1  0.09253  0.33917  0.29511  1
 O  O3  1  0.76504  0.99416  0.29511  1
 O  O4  1  0.56829  0.33917  0.70489  1
 O  O5  1  0.43858  0.66667  0.29996  1
 O  O6  1  0.89475  0.66667  0.70004  1
