CIF file written using JARVIS-Tools package.
data_Mg6NiB
_symmetry_space_group_name_H-M  'Amm2'
_cell_length_a       5.94676
_cell_length_b       8.21805
_cell_length_c       4.06123
_cell_angle_alpha    90
_cell_angle_beta     90
_cell_angle_gamma    133.709

_symmetry_Int_Tables_number  38
_chemical_formula_structural  Mg6NiB
_chemical_formula_sum  Mg6NiB
_cell_volume  143.46936488792
_cell_formula_units_Z  1
loop_
  _symmetry_equiv_pos_site_id
 _symmetry_equiv_pos_as_xyz
 1  'x, y, z'
loop_
 _atom_site_type_symbol
 _atom_site_label
 _atom_site_symmetry_multiplicity
 _atom_site_fract_x
 _atom_site_fract_y
 _atom_site_fract_z
 _atom_site_fract_occupancy
 B  B1  1  0.03148  0.76574  0.25000  1
 Mg  Mg1  1  0.77736  0.37921  0.25000  1
 Mg  Mg2  1  0.77735  0.89814  0.25000  1
 Mg  Mg3  1  0.26309  0.05649  0.75000  1
 Mg  Mg4  1  0.26310  0.70661  0.75000  1
 Mg  Mg5  1  0.93171  0.21585  0.75000  1
 Mg  Mg6  1  0.66620  0.58309  0.75000  1
 Ni  Ni1  1  0.28971  0.39486  0.25000  1
