CIF file written using JARVIS-Tools package.
data_BaMg6C
_symmetry_space_group_name_H-M  'Amm2'
_cell_length_a       8.00703
_cell_length_b       8.00703
_cell_length_c       3.46787
_cell_angle_alpha    90
_cell_angle_beta     90
_cell_angle_gamma    119.244

_symmetry_Int_Tables_number  38
_chemical_formula_structural  BaMg6C
_chemical_formula_sum  BaMg6C
_cell_volume  193.99714128817925
_cell_formula_units_Z  1
loop_
  _symmetry_equiv_pos_site_id
 _symmetry_equiv_pos_as_xyz
 1  'x, y, z'
loop_
 _atom_site_type_symbol
 _atom_site_label
 _atom_site_symmetry_multiplicity
 _atom_site_fract_x
 _atom_site_fract_y
 _atom_site_fract_z
 _atom_site_fract_occupancy
 Ba  Ba1  1  0.15231  0.34769  0.25000  1
 C  C1  1  0.39812  0.10188  0.75000  1
 Mg  Mg1  1  0.20227  0.95617  0.25000  1
 Mg  Mg2  1  0.54383  0.29773  0.25000  1
 Mg  Mg3  1  0.71358  0.78642  0.25000  1
 Mg  Mg4  1  0.36752  0.79044  0.75000  1
 Mg  Mg5  1  0.70956  0.13248  0.75000  1
 Mg  Mg6  1  0.91279  0.58721  0.75000  1
