CIF file written using JARVIS-Tools package.
data_K2Li3FeO4
_symmetry_space_group_name_H-M  'P2_1/c'
_cell_length_a       5.548
_cell_length_b       8.74056
_cell_length_c       10.3595
_cell_angle_alpha    90
_cell_angle_beta     98.5981
_cell_angle_gamma    90

_symmetry_Int_Tables_number  14
_chemical_formula_structural  K2Li3FeO4
_chemical_formula_sum  K8Li2Fe4O6
_cell_volume  496.71572367646985
_cell_formula_units_Z  4
loop_
  _symmetry_equiv_pos_site_id
 _symmetry_equiv_pos_as_xyz
 1  'x, y, z'
loop_
 _atom_site_type_symbol
 _atom_site_label
 _atom_site_symmetry_multiplicity
 _atom_site_fract_x
 _atom_site_fract_y
 _atom_site_fract_z
 _atom_site_fract_occupancy
 Fe  Fe1  1  0.16267  0.71318  0.06292  1
 Fe  Fe2  1  0.33733  0.21318  0.43708  1
 Fe  Fe3  1  0.83733  0.28682  0.93708  1
 Fe  Fe4  1  0.66267  0.78682  0.56292  1
 K  K1  1  0.84321  0.99276  0.13848  1
 K  K2  1  0.15679  0.00724  0.86152  1
 K  K3  1  0.34321  0.50724  0.63848  1
 K  K4  1  0.61187  0.77390  0.89200  1
 K  K5  1  0.88813  0.27390  0.60800  1
 K  K6  1  0.38813  0.22610  0.10800  1
 K  K7  1  0.11187  0.72610  0.39200  1
 K  K8  1  0.65679  0.49276  0.36152  1
 Li  Li1  1  0.57866  0.73803  0.19979  1
 Li  Li2  1  0.69858  0.50621  0.07051  1
 Li  Li3  1  0.19858  0.99379  0.57051  1
 Li  Li4  1  0.07866  0.76197  0.69979  1
 Li  Li5  1  0.10589  0.46786  0.20248  1
 Li  Li6  1  0.39411  0.96786  0.29752  1
 Li  Li7  1  0.89411  0.53214  0.79752  1
 Li  Li8  1  0.60589  0.03214  0.70248  1
 Li  Li9  1  0.92134  0.23803  0.30021  1
 Li  Li10  1  0.80142  0.00621  0.42949  1
 Li  Li11  1  0.42134  0.26197  0.80021  1
 Li  Li12  1  0.30142  0.49379  0.92949  1
 O  O1  1  0.11945  0.04856  0.37751  1
 O  O2  1  0.38055  0.54856  0.12249  1
 O  O3  1  0.88055  0.95144  0.62249  1
 O  O4  1  0.61945  0.45144  0.87751  1
 O  O5  1  0.83635  0.60453  0.61544  1
 O  O6  1  0.66365  0.10453  0.88456  1
 O  O7  1  0.61334  0.81030  0.37849  1
 O  O8  1  0.88615  0.67524  0.14521  1
 O  O9  1  0.38666  0.18970  0.62151  1
 O  O10  1  0.61385  0.17524  0.35479  1
 O  O11  1  0.38615  0.82476  0.64521  1
 O  O12  1  0.11385  0.32476  0.85479  1
 O  O13  1  0.16365  0.39547  0.38456  1
 O  O14  1  0.33635  0.89547  0.11544  1
 O  O15  1  0.11334  0.68970  0.87849  1
 O  O16  1  0.88666  0.31030  0.12151  1
