CIF file written using JARVIS-Tools package.
data_Pr2InAu2
_symmetry_space_group_name_H-M  'P4/mbm'
_cell_length_a       8.15177
_cell_length_b       8.15177
_cell_length_c       3.92531
_cell_angle_alpha    90
_cell_angle_beta     90
_cell_angle_gamma    90

_symmetry_Int_Tables_number  127
_chemical_formula_structural  Pr2InAu2
_chemical_formula_sum  Pr4In2Au4
_cell_volume  260.8418048993756
_cell_formula_units_Z  2
loop_
  _symmetry_equiv_pos_site_id
 _symmetry_equiv_pos_as_xyz
 1  'x, y, z'
loop_
 _atom_site_type_symbol
 _atom_site_label
 _atom_site_symmetry_multiplicity
 _atom_site_fract_x
 _atom_site_fract_y
 _atom_site_fract_z
 _atom_site_fract_occupancy
 Au  Au1  1  0.12683  0.62683  0.00000  1
 Au  Au2  1  0.87317  0.37317  0.00000  1
 Au  Au3  1  0.62683  0.87317  0.00000  1
 Au  Au4  1  0.37317  0.12683  0.00000  1
 In  In1  1  0.00000  0.00000  0.00000  1
 In  In2  1  0.50000  0.50000  0.00000  1
 Pr  Pr1  1  0.67286  0.17286  0.50000  1
 Pr  Pr2  1  0.32714  0.82714  0.50000  1
 Pr  Pr3  1  0.17286  0.32714  0.50000  1
 Pr  Pr4  1  0.82714  0.67286  0.50000  1
