CIF file written using JARVIS-Tools package.
data_Ga2Te3
_symmetry_space_group_name_H-M  'R-3m'
_cell_length_a       4.18243
_cell_length_b       4.18243
_cell_length_c       9.40545
_cell_angle_alpha    77.1534
_cell_angle_beta     77.1534
_cell_angle_gamma    59.9999

_symmetry_Int_Tables_number  166
_chemical_formula_structural  Ga2Te3
_chemical_formula_sum  Ga2Te3
_cell_volume  137.70855320468965
_cell_formula_units_Z  1
loop_
  _symmetry_equiv_pos_site_id
 _symmetry_equiv_pos_as_xyz
 1  'x, y, z'
loop_
 _atom_site_type_symbol
 _atom_site_label
 _atom_site_symmetry_multiplicity
 _atom_site_fract_x
 _atom_site_fract_y
 _atom_site_fract_z
 _atom_site_fract_occupancy
 Ga  Ga1  1  0.19431  0.19431  0.41706  1
 Ga  Ga2  1  0.80569  0.80569  0.58294  1
 Te  Te1  1  0.00000  0.00000  0.00000  1
 Te  Te2  1  0.41253  0.41253  0.76241  1
 Te  Te3  1  0.58747  0.58747  0.23759  1
