data_image0
_chemical_formula_structural       Cu4S4Ti
_chemical_formula_sum              "Cu4 S4 Ti1"
_cell_length_a       6.54036
_cell_length_b       5.44717
_cell_length_c       5.44717
_cell_angle_alpha    90
_cell_angle_beta     114.609
_cell_angle_gamma    114.609

_space_group_name_H-M_alt    "P 1"
_space_group_IT_number       1

loop_
  _space_group_symop_operation_xyz
  'x, y, z'

loop_
  _atom_site_type_symbol
  _atom_site_label
  _atom_site_symmetry_multiplicity
  _atom_site_fract_x
  _atom_site_fract_y
  _atom_site_fract_z
  _atom_site_occupancy
  Cu  Cu1       1.0  0.00000  0.50000  0.00000  1.0000
  Cu  Cu2       1.0  0.52000  0.26000  0.26000  1.0000
  Cu  Cu3       1.0  0.00000  0.00000  0.50000  1.0000
  Cu  Cu4       1.0  0.48000  0.74000  0.74000  1.0000
  S   S1        1.0  0.74800  0.63000  0.11800  1.0000
  S   S2        1.0  0.25200  0.37000  0.37000  1.0000
  S   S3        1.0  0.74800  0.11800  0.63000  1.0000
  S   S4        1.0  0.25200  0.88200  0.88200  1.0000
  Ti  Ti1       1.0  0.00000  0.00000  0.00000  1.0000
