CIF file written using JARVIS-Tools package.
data_Mg6FeSi
_symmetry_space_group_name_H-M  'Amm2'
_cell_length_a       6.07653
_cell_length_b       6.07653
_cell_length_c       4.71982
_cell_angle_alpha    90
_cell_angle_beta     90
_cell_angle_gamma    119.681

_symmetry_Int_Tables_number  38
_chemical_formula_structural  Mg6FeSi
_chemical_formula_sum  Mg6FeSi
_cell_volume  151.40954387562516
_cell_formula_units_Z  1
loop_
  _symmetry_equiv_pos_site_id
 _symmetry_equiv_pos_as_xyz
 1  'x, y, z'
loop_
 _atom_site_type_symbol
 _atom_site_label
 _atom_site_symmetry_multiplicity
 _atom_site_fract_x
 _atom_site_fract_y
 _atom_site_fract_z
 _atom_site_fract_occupancy
 Fe  Fe1  1  0.18288  0.31712  0.25000  1
 Mg  Mg1  1  0.16863  0.84350  0.25000  1
 Mg  Mg2  1  0.65650  0.33137  0.25000  1
 Mg  Mg3  1  0.66551  0.83449  0.25000  1
 Mg  Mg4  1  0.32669  0.64800  0.75000  1
 Mg  Mg5  1  0.85200  0.17331  0.75000  1
 Mg  Mg6  1  0.83232  0.66768  0.75000  1
 Si  Si1  1  0.31547  0.18453  0.75000  1
