CIF file written using JARVIS-Tools package.
data_Mo2SBr2
_symmetry_space_group_name_H-M  'Cmcm'
_cell_length_a       6.65805
_cell_length_b       9.34533
_cell_length_c       12.0464
_cell_angle_alpha    90
_cell_angle_beta     90
_cell_angle_gamma    110.868

_symmetry_Int_Tables_number  63
_chemical_formula_structural  Mo2SBr2
_chemical_formula_sum  Mo2S6Br2
_cell_volume  700.3773469826104
_cell_formula_units_Z  6
loop_
  _symmetry_equiv_pos_site_id
 _symmetry_equiv_pos_as_xyz
 1  'x, y, z'
loop_
 _atom_site_type_symbol
 _atom_site_label
 _atom_site_symmetry_multiplicity
 _atom_site_fract_x
 _atom_site_fract_y
 _atom_site_fract_z
 _atom_site_fract_occupancy
 Br  Br1  1  0.89531  0.30259  0.43526  1
 Br  Br2  1  0.10469  0.69741  0.56474  1
 Br  Br3  1  0.59272  0.69741  0.06474  1
 Br  Br4  1  0.89531  0.30259  0.06474  1
 Br  Br5  1  0.59272  0.69741  0.43526  1
 Br  Br6  1  0.40728  0.30259  0.93526  1
 Br  Br7  1  0.02420  0.63830  0.25000  1
 Br  Br8  1  0.97580  0.36170  0.75000  1
 Br  Br9  1  0.10469  0.69741  0.93526  1
 Br  Br10  1  0.61411  0.63830  0.75000  1
 Br  Br11  1  0.40728  0.30259  0.56474  1
 Br  Br12  1  0.38589  0.36170  0.25000  1
 Mo  Mo1  1  0.00862  0.84759  0.10137  1
 Mo  Mo2  1  0.25566  0.00000  0.93875  1
 Mo  Mo3  1  0.16103  0.15241  0.39863  1
 Mo  Mo4  1  0.99138  0.15241  0.60137  1
 Mo  Mo5  1  0.83897  0.84759  0.89863  1
 Mo  Mo6  1  0.99138  0.15241  0.89863  1
 Mo  Mo7  1  0.74434  0.00000  0.06125  1
 Mo  Mo8  1  0.74434  0.00000  0.43875  1
 Mo  Mo9  1  0.25566  0.00000  0.56125  1
 Mo  Mo10  1  0.83897  0.84759  0.60137  1
 Mo  Mo11  1  0.16103  0.15241  0.10137  1
 Mo  Mo12  1  0.00862  0.84759  0.39863  1
 S  S1  1  0.38346  0.00000  0.12879  1
 S  S2  1  0.08929  0.00000  0.75000  1
 S  S3  1  0.91071  0.00000  0.25000  1
 S  S4  1  0.61654  0.00000  0.62879  1
 S  S5  1  0.38346  0.00000  0.37121  1
 S  S6  1  0.61654  0.00000  0.87121  1
