CIF file written using JARVIS-Tools package.
data_DyCu2
_symmetry_space_group_name_H-M  'Imma'
_cell_length_a       4.27281
_cell_length_b       5.43951
_cell_length_c       5.43951
_cell_angle_alpha    77.2286
_cell_angle_beta     66.8739
_cell_angle_gamma    66.8739

_symmetry_Int_Tables_number  74
_chemical_formula_structural  DyCu2
_chemical_formula_sum  Dy2Cu4
_cell_volume  106.58910920017885
_cell_formula_units_Z  2
loop_
  _symmetry_equiv_pos_site_id
 _symmetry_equiv_pos_as_xyz
 1  'x, y, z'
loop_
 _atom_site_type_symbol
 _atom_site_label
 _atom_site_symmetry_multiplicity
 _atom_site_fract_x
 _atom_site_fract_y
 _atom_site_fract_z
 _atom_site_fract_occupancy
 Cu  Cu1  1  0.16490  0.28880  0.38140  1
 Cu  Cu2  1  0.83510  0.71120  0.61860  1
 Cu  Cu3  1  0.83510  0.11860  0.21120  1
 Cu  Cu4  1  0.16490  0.88140  0.78880  1
 Dy  Dy1  1  0.54046  0.70954  0.20954  1
 Dy  Dy2  1  0.45954  0.29046  0.79046  1
