CIF file written using JARVIS-Tools package.
data_YCl3
_symmetry_space_group_name_H-M  'C2/m'
_cell_length_a       6.3262
_cell_length_b       6.83804
_cell_length_c       6.83803
_cell_angle_alpha    119.801
_cell_angle_beta     100.488
_cell_angle_gamma    100.488

_symmetry_Int_Tables_number  12
_chemical_formula_structural  YCl3
_chemical_formula_sum  Y2Cl6
_cell_volume  239.18131679475636
_cell_formula_units_Z  2
loop_
  _symmetry_equiv_pos_site_id
 _symmetry_equiv_pos_as_xyz
 1  'x, y, z'
loop_
 _atom_site_type_symbol
 _atom_site_label
 _atom_site_symmetry_multiplicity
 _atom_site_fract_x
 _atom_site_fract_y
 _atom_site_fract_z
 _atom_site_fract_occupancy
 Cl  Cl1  1  0.24555  0.93560  0.58229  1
 Cl  Cl2  1  0.75445  0.41771  0.06440  1
 Cl  Cl3  1  0.74569  0.77628  0.77628  1
 Cl  Cl4  1  0.25431  0.22372  0.22372  1
 Cl  Cl5  1  0.24555  0.58229  0.93560  1
 Cl  Cl6  1  0.75445  0.06440  0.41771  1
 Y  Y1  1  -0.00000  0.16626  0.83374  1
 Y  Y2  1  0.00000  0.83374  0.16626  1
