CIF file written using JARVIS-Tools package.
data_CeMg6Mo
_symmetry_space_group_name_H-M  'Amm2'
_cell_length_a       6.6065
_cell_length_b       5.73482
_cell_length_c       5.13855
_cell_angle_alpha    90
_cell_angle_beta     90
_cell_angle_gamma    115.724

_symmetry_Int_Tables_number  38
_chemical_formula_structural  CeMg6Mo
_chemical_formula_sum  CeMg6Mo
_cell_volume  175.3914425048796
_cell_formula_units_Z  1
loop_
  _symmetry_equiv_pos_site_id
 _symmetry_equiv_pos_as_xyz
 1  'x, y, z'
loop_
 _atom_site_type_symbol
 _atom_site_label
 _atom_site_symmetry_multiplicity
 _atom_site_fract_x
 _atom_site_fract_y
 _atom_site_fract_z
 _atom_site_fract_occupancy
 Ce  Ce1  1  0.14085  0.32042  0.25000  1
 Mg  Mg1  1  0.64589  0.32329  0.25000  1
 Mg  Mg2  1  0.64589  0.82259  0.25000  1
 Mg  Mg3  1  0.34023  0.16217  0.75000  1
 Mg  Mg4  1  0.34023  0.67807  0.75000  1
 Mg  Mg5  1  0.82231  0.16116  0.75000  1
 Mg  Mg6  1  0.89899  0.69949  0.75000  1
 Mo  Mo1  1  0.16561  0.83280  0.25000  1
