CIF file written using JARVIS-Tools package.
data_Yb2TeO2
_symmetry_space_group_name_H-M  'P-3m1'
_cell_length_a       3.71705
_cell_length_b       3.71586
_cell_length_c       8.34977
_cell_angle_alpha    89.9991
_cell_angle_beta     90
_cell_angle_gamma    120.01

_symmetry_Int_Tables_number  164
_chemical_formula_structural  Yb2TeO2
_chemical_formula_sum  Yb2TeO2
_cell_volume  99.86584569138998
_cell_formula_units_Z  1
loop_
  _symmetry_equiv_pos_site_id
 _symmetry_equiv_pos_as_xyz
 1  'x, y, z'
loop_
 _atom_site_type_symbol
 _atom_site_label
 _atom_site_symmetry_multiplicity
 _atom_site_fract_x
 _atom_site_fract_y
 _atom_site_fract_z
 _atom_site_fract_occupancy
 O  O1  1  0.33322  0.66659  0.61497  1
 O  O2  1  0.66663  0.33341  0.38503  1
 Te  Te1  1  0.00011  0.00000  0.00000  1
 Yb  Yb1  1  0.33324  0.66663  0.34521  1
 Yb  Yb2  1  0.66661  0.33337  0.65479  1
