CIF file written using JARVIS-Tools package.
data_Y4ZrBe
_symmetry_space_group_name_H-M  'F-43m'
_cell_length_a       6.18662
_cell_length_b       6.18662
_cell_length_c       6.18662
_cell_angle_alpha    60
_cell_angle_beta     60
_cell_angle_gamma    60

_symmetry_Int_Tables_number  216
_chemical_formula_structural  Y4ZrBe
_chemical_formula_sum  Y4ZrBe
_cell_volume  167.43446585884084
_cell_formula_units_Z  1
loop_
  _symmetry_equiv_pos_site_id
 _symmetry_equiv_pos_as_xyz
 1  'x, y, z'
loop_
 _atom_site_type_symbol
 _atom_site_label
 _atom_site_symmetry_multiplicity
 _atom_site_fract_x
 _atom_site_fract_y
 _atom_site_fract_z
 _atom_site_fract_occupancy
 Be  Be1  1  0.00000  0.00000  0.00000  1
 Y  Y1  1  0.12623  0.62459  0.62459  1
 Y  Y2  1  0.62459  0.62459  0.62459  1
 Y  Y3  1  0.62459  0.12623  0.62459  1
 Y  Y4  1  0.62459  0.62459  0.12623  1
 Zr  Zr1  1  0.25000  0.25000  0.25000  1
