CIF file written using JARVIS-Tools package.
data_Mg6CoSn
_symmetry_space_group_name_H-M  'Amm2'
_cell_length_a       6.18443
_cell_length_b       6.18442
_cell_length_c       4.82545
_cell_angle_alpha    90
_cell_angle_beta     90
_cell_angle_gamma    119.838

_symmetry_Int_Tables_number  38
_chemical_formula_structural  Mg6CoSn
_chemical_formula_sum  Mg6CoSn
_cell_volume  160.0941121168991
_cell_formula_units_Z  1
loop_
  _symmetry_equiv_pos_site_id
 _symmetry_equiv_pos_as_xyz
 1  'x, y, z'
loop_
 _atom_site_type_symbol
 _atom_site_label
 _atom_site_symmetry_multiplicity
 _atom_site_fract_x
 _atom_site_fract_y
 _atom_site_fract_z
 _atom_site_fract_occupancy
 Co  Co1  1  0.14647  0.35353  0.25000  1
 Mg  Mg1  1  0.16344  0.81925  0.25000  1
 Mg  Mg2  1  0.68075  0.33656  0.25000  1
 Mg  Mg3  1  0.66669  0.83331  0.25000  1
 Mg  Mg4  1  0.32527  0.64346  0.75000  1
 Mg  Mg5  1  0.85654  0.17473  0.75000  1
 Mg  Mg6  1  0.83138  0.66862  0.75000  1
 Sn  Sn1  1  0.32945  0.17055  0.75000  1
