CIF file written using JARVIS-Tools package.
data_Ce3Mg
_symmetry_space_group_name_H-M  'I4/mmm'
_cell_length_a       4.72216
_cell_length_b       4.72216
_cell_length_c       9.58225
_cell_angle_alpha    90
_cell_angle_beta     90
_cell_angle_gamma    90

_symmetry_Int_Tables_number  139
_chemical_formula_structural  Ce3Mg
_chemical_formula_sum  Ce6Mg2
_cell_volume  213.6723627111817
_cell_formula_units_Z  2
loop_
  _symmetry_equiv_pos_site_id
 _symmetry_equiv_pos_as_xyz
 1  'x, y, z'
loop_
 _atom_site_type_symbol
 _atom_site_label
 _atom_site_symmetry_multiplicity
 _atom_site_fract_x
 _atom_site_fract_y
 _atom_site_fract_z
 _atom_site_fract_occupancy
 Ce  Ce1  1  0.50000  0.50000  0.00000  1
 Ce  Ce2  1  0.50000  0.00000  0.25000  1
 Ce  Ce3  1  0.00000  0.50000  0.25000  1
 Ce  Ce4  1  0.00000  0.00000  0.50000  1
 Ce  Ce5  1  0.00000  0.50000  0.75000  1
 Ce  Ce6  1  0.50000  0.00000  0.75000  1
 Mg  Mg1  1  0.00000  0.00000  0.00000  1
 Mg  Mg2  1  0.50000  0.50000  0.50000  1
