CIF file written using JARVIS-Tools package.
data_Sr2RhF7
_symmetry_space_group_name_H-M  'P2_1/c'
_cell_length_a       5.52681
_cell_length_b       8.67125
_cell_length_c       11.7358
_cell_angle_alpha    90
_cell_angle_beta     90
_cell_angle_gamma    90.7341

_symmetry_Int_Tables_number  14
_chemical_formula_structural  Sr2RhF7
_chemical_formula_sum  Sr8Rh4F28
_cell_volume  562.3874928646499
_cell_formula_units_Z  4
loop_
  _symmetry_equiv_pos_site_id
 _symmetry_equiv_pos_as_xyz
 1  'x, y, z'
loop_
 _atom_site_type_symbol
 _atom_site_label
 _atom_site_symmetry_multiplicity
 _atom_site_fract_x
 _atom_site_fract_y
 _atom_site_fract_z
 _atom_site_fract_occupancy
 F  F1  1  0.51441  0.18701  0.27631  1
 F  F2  1  0.58113  0.10302  0.60135  1
 F  F3  1  0.48559  0.81299  0.72369  1
 F  F4  1  0.58113  0.60302  0.89865  1
 F  F5  1  0.86675  0.82450  0.01570  1
 F  F6  1  0.61718  0.12604  0.05397  1
 F  F7  1  0.38282  0.37396  0.55397  1
 F  F8  1  0.38282  0.87396  0.94603  1
 F  F9  1  0.98928  0.28738  0.72674  1
 F  F10  1  0.61718  0.62604  0.44603  1
 F  F11  1  0.13325  0.67550  0.51570  1
 F  F12  1  0.13325  0.17550  0.98430  1
 F  F13  1  0.86675  0.32450  0.48430  1
 F  F14  1  0.89410  0.48911  0.10545  1
 F  F15  1  0.10590  0.01089  0.60545  1
 F  F16  1  0.10590  0.51089  0.89455  1
 F  F17  1  0.89410  0.98911  0.39455  1
 F  F18  1  0.01072  0.71262  0.27326  1
 F  F19  1  0.48559  0.31299  0.77631  1
 F  F20  1  0.98928  0.78738  0.77326  1
 F  F21  1  0.51441  0.68701  0.22369  1
 F  F22  1  0.01072  0.21262  0.22674  1
 F  F23  1  0.23802  0.45690  0.33536  1
 F  F24  1  0.76198  0.54310  0.66464  1
 F  F25  1  0.23802  0.95690  0.16464  1
 F  F26  1  0.41887  0.39698  0.10135  1
 F  F27  1  0.76198  0.04310  0.83536  1
 F  F28  1  0.41887  0.89698  0.39865  1
 Rh  Rh1  1  0.68796  0.32084  0.63256  1
 Rh  Rh2  1  0.31204  0.17916  0.13256  1
 Rh  Rh3  1  0.31204  0.67916  0.36744  1
 Rh  Rh4  1  0.68796  0.82084  0.86744  1
 Sr  Sr1  1  0.23498  0.05479  0.79226  1
 Sr  Sr2  1  0.76502  0.44521  0.29226  1
 Sr  Sr3  1  0.76502  0.94521  0.20774  1
 Sr  Sr4  1  0.23498  0.55479  0.70774  1
 Sr  Sr5  1  0.77398  0.34558  0.94036  1
 Sr  Sr6  1  0.22602  0.15442  0.44036  1
 Sr  Sr7  1  0.22602  0.65442  0.05964  1
 Sr  Sr8  1  0.77398  0.84558  0.55964  1
