CIF file written using JARVIS-Tools package.
data_PdI2
_symmetry_space_group_name_H-M  'Pnnm'
_cell_length_a       3.92127
_cell_length_b       6.60596
_cell_length_c       7.73958
_cell_angle_alpha    90
_cell_angle_beta     90
_cell_angle_gamma    90

_symmetry_Int_Tables_number  58
_chemical_formula_structural  PdI2
_chemical_formula_sum  Pd2I4
_cell_volume  200.48427474592182
_cell_formula_units_Z  2
loop_
  _symmetry_equiv_pos_site_id
 _symmetry_equiv_pos_as_xyz
 1  'x, y, z'
loop_
 _atom_site_type_symbol
 _atom_site_label
 _atom_site_symmetry_multiplicity
 _atom_site_fract_x
 _atom_site_fract_y
 _atom_site_fract_z
 _atom_site_fract_occupancy
 I  I1  1  0.00000  0.28617  0.35498  1
 I  I2  1  0.50000  0.78617  0.14502  1
 I  I3  1  0.50000  0.21383  0.85498  1
 I  I4  1  0.00000  0.71383  0.64502  1
 Pd  Pd1  1  0.00000  0.00000  0.00000  1
 Pd  Pd2  1  0.50000  0.50000  0.50000  1
