CIF file written using JARVIS-Tools package.
data_Mn3O4F2
_symmetry_space_group_name_H-M  'Pmn2_1'
_cell_length_a       4.53856
_cell_length_b       4.56481
_cell_length_c       9.06877
_cell_angle_alpha    90
_cell_angle_beta     90
_cell_angle_gamma    90.0001

_symmetry_Int_Tables_number  31
_chemical_formula_structural  Mn3O4F2
_chemical_formula_sum  Mn6O8F4
_cell_volume  187.88391820724618
_cell_formula_units_Z  2
loop_
  _symmetry_equiv_pos_site_id
 _symmetry_equiv_pos_as_xyz
 1  'x, y, z'
loop_
 _atom_site_type_symbol
 _atom_site_label
 _atom_site_symmetry_multiplicity
 _atom_site_fract_x
 _atom_site_fract_y
 _atom_site_fract_z
 _atom_site_fract_occupancy
 F  F1  1  0.79846  0.20523  0.16328  1
 F  F2  1  0.29847  0.29476  0.00338  1
 F  F3  1  0.79846  0.20524  0.50338  1
 F  F4  1  0.29847  0.29477  0.66328  1
 Mn  Mn1  1  0.49496  0.53066  0.49245  1
 Mn  Mn2  1  0.99497  0.96934  0.99245  1
 Mn  Mn3  1  0.49496  0.53065  0.17421  1
 Mn  Mn4  1  0.02636  0.99544  0.33333  1
 Mn  Mn5  1  0.99497  0.96935  0.67421  1
 Mn  Mn6  1  0.52636  0.50456  0.83333  1
 O  O1  1  0.80568  0.17968  0.83333  1
 O  O2  1  0.30567  0.32033  0.33333  1
 O  O3  1  0.69149  0.68815  0.66194  1
 O  O4  1  0.19149  0.81185  0.16194  1
 O  O5  1  0.19149  0.81186  0.50473  1
 O  O6  1  0.19813  0.78666  0.83333  1
 O  O7  1  0.69149  0.68814  0.00473  1
 O  O8  1  0.69813  0.71334  0.33333  1
