CIF file written using JARVIS-Tools package.
data_BaAl2Cl8
_symmetry_space_group_name_H-M  'P2/c'
_cell_length_a       7.19959
_cell_length_b       7.39379
_cell_length_c       12.5434
_cell_angle_alpha    102.43
_cell_angle_beta     90
_cell_angle_gamma    90

_symmetry_Int_Tables_number  13
_chemical_formula_structural  BaAl2Cl8
_chemical_formula_sum  Ba2Al4Cl6
_cell_volume  652.0602341946727
_cell_formula_units_Z  2
loop_
  _symmetry_equiv_pos_site_id
 _symmetry_equiv_pos_as_xyz
 1  'x, y, z'
loop_
 _atom_site_type_symbol
 _atom_site_label
 _atom_site_symmetry_multiplicity
 _atom_site_fract_x
 _atom_site_fract_y
 _atom_site_fract_z
 _atom_site_fract_occupancy
 Al  Al1  1  0.28309  0.71092  0.94624  1
 Al  Al2  1  0.28309  0.28908  0.55376  1
 Al  Al3  1  0.71691  0.28908  0.05376  1
 Al  Al4  1  0.71691  0.71092  0.44624  1
 Ba  Ba1  1  0.13640  0.50000  0.25000  1
 Ba  Ba2  1  0.86360  0.50000  0.75000  1
 Cl  Cl1  1  0.79421  0.42085  0.39823  1
 Cl  Cl2  1  0.28570  0.20696  0.37778  1
 Cl  Cl3  1  0.28570  0.79304  0.12222  1
 Cl  Cl4  1  0.71430  0.79304  0.62222  1
 Cl  Cl5  1  0.71430  0.20696  0.87778  1
 Cl  Cl6  1  0.08095  0.86268  0.87308  1
 Cl  Cl7  1  0.91905  0.86268  0.37308  1
 Cl  Cl8  1  0.44286  0.75739  0.38810  1
 Cl  Cl9  1  0.55714  0.75739  0.88810  1
 Cl  Cl10  1  0.91905  0.13732  0.12692  1
 Cl  Cl11  1  0.44286  0.24261  0.11190  1
 Cl  Cl12  1  0.20579  0.57915  0.60177  1
 Cl  Cl13  1  0.20579  0.42085  0.89823  1
 Cl  Cl14  1  0.79421  0.57915  0.10177  1
 Cl  Cl15  1  0.55714  0.24261  0.61190  1
 Cl  Cl16  1  0.08095  0.13732  0.62692  1
