CIF file written using JARVIS-Tools package.
data_NaMnO2
_symmetry_space_group_name_H-M  'C2/m'
_cell_length_a       2.87529
_cell_length_b       3.21615
_cell_length_c       5.54103
_cell_angle_alpha    78.3211
_cell_angle_beta     74.9641
_cell_angle_gamma    63.4482

_symmetry_Int_Tables_number  12
_chemical_formula_structural  NaMnO2
_chemical_formula_sum  NaMnO2
_cell_volume  44.04407794957075
_cell_formula_units_Z  1
loop_
  _symmetry_equiv_pos_site_id
 _symmetry_equiv_pos_as_xyz
 1  'x, y, z'
loop_
 _atom_site_type_symbol
 _atom_site_label
 _atom_site_symmetry_multiplicity
 _atom_site_fract_x
 _atom_site_fract_y
 _atom_site_fract_z
 _atom_site_fract_occupancy
 Mn  Mn1  1  -0.00000  0.00000  0.00000  1
 Na  Na1  1  0.50000  0.50000  0.50000  1
 O  O1  1  0.29729  0.19759  0.20783  1
 O  O2  1  0.70271  0.80241  0.79217  1
