CIF file written using JARVIS-Tools package.
data_SrGe2
_symmetry_space_group_name_H-M  'Pnma'
_cell_length_a       6.58047
_cell_length_b       8.77464
_cell_length_c       11.2006
_cell_angle_alpha    90
_cell_angle_beta     90
_cell_angle_gamma    90

_symmetry_Int_Tables_number  62
_chemical_formula_structural  SrGe2
_chemical_formula_sum  Sr8Ge6
_cell_volume  646.7386467916681
_cell_formula_units_Z  8
loop_
  _symmetry_equiv_pos_site_id
 _symmetry_equiv_pos_as_xyz
 1  'x, y, z'
loop_
 _atom_site_type_symbol
 _atom_site_label
 _atom_site_symmetry_multiplicity
 _atom_site_fract_x
 _atom_site_fract_y
 _atom_site_fract_z
 _atom_site_fract_occupancy
 Ge  Ge1  1  0.75000  0.80280  0.04873  1
 Ge  Ge2  1  0.44622  0.69478  0.34970  1
 Ge  Ge3  1  0.55378  0.80522  0.84970  1
 Ge  Ge4  1  0.05378  0.19478  0.15030  1
 Ge  Ge5  1  0.05378  0.69478  0.34970  1
 Ge  Ge6  1  0.55378  0.30522  0.65030  1
 Ge  Ge7  1  0.44622  0.19478  0.15030  1
 Ge  Ge8  1  0.94622  0.80522  0.84970  1
 Ge  Ge9  1  0.75000  0.56030  0.90834  1
 Ge  Ge10  1  0.25000  0.43970  0.09166  1
 Ge  Ge11  1  0.94622  0.30522  0.65030  1
 Ge  Ge12  1  0.25000  0.93970  0.40834  1
 Ge  Ge13  1  0.25000  0.19720  0.95127  1
 Ge  Ge14  1  0.75000  0.30280  0.45127  1
 Ge  Ge15  1  0.25000  0.69720  0.54873  1
 Ge  Ge16  1  0.75000  0.06030  0.59166  1
 Sr  Sr1  1  0.25000  0.01509  0.69483  1
 Sr  Sr2  1  0.25000  0.34905  0.40688  1
 Sr  Sr3  1  0.75000  0.65095  0.59312  1
 Sr  Sr4  1  0.25000  0.84905  0.09312  1
 Sr  Sr5  1  0.75000  0.15095  0.90688  1
 Sr  Sr6  1  0.25000  0.51509  0.80517  1
 Sr  Sr7  1  0.75000  0.48491  0.19483  1
 Sr  Sr8  1  0.75000  0.98491  0.30517  1
