CIF file written using JARVIS-Tools package.
data_LiFeOF2
_symmetry_space_group_name_H-M  'C2/c'
_cell_length_a       6.40028
_cell_length_b       6.40028
_cell_length_c       4.99385
_cell_angle_alpha    83.5702
_cell_angle_beta     96.4298
_cell_angle_gamma    95.4702

_symmetry_Int_Tables_number  15
_chemical_formula_structural  LiFeOF2
_chemical_formula_sum  Li4Fe4O4F8
_cell_volume  201.28952400885117
_cell_formula_units_Z  4
loop_
  _symmetry_equiv_pos_site_id
 _symmetry_equiv_pos_as_xyz
 1  'x, y, z'
loop_
 _atom_site_type_symbol
 _atom_site_label
 _atom_site_symmetry_multiplicity
 _atom_site_fract_x
 _atom_site_fract_y
 _atom_site_fract_z
 _atom_site_fract_occupancy
 F  F1  1  0.52763  0.28420  0.13541  1
 F  F2  1  0.71580  0.47237  0.63541  1
 F  F3  1  0.35087  0.12801  0.60682  1
 F  F4  1  0.64913  0.87199  0.39318  1
 F  F5  1  0.28420  0.52763  0.36459  1
 F  F6  1  0.87199  0.64913  0.10682  1
 F  F7  1  0.12801  0.35087  0.89318  1
 F  F8  1  0.47237  0.71580  0.86459  1
 Fe  Fe1  1  0.07083  0.07083  0.75000  1
 Fe  Fe2  1  0.75227  0.75227  0.75000  1
 Fe  Fe3  1  0.24773  0.24773  0.25000  1
 Fe  Fe4  1  0.92917  0.92917  0.25000  1
 Li  Li1  1  0.22651  0.59854  0.69146  1
 Li  Li2  1  0.77349  0.40146  0.30854  1
 Li  Li3  1  0.59854  0.22651  0.80854  1
 Li  Li4  1  0.40146  0.77349  0.19146  1
 O  O1  1  0.19078  0.98446  0.11482  1
 O  O2  1  0.98446  0.19078  0.38518  1
 O  O3  1  0.01554  0.80922  0.61482  1
 O  O4  1  0.80922  0.01554  0.88518  1
