CIF file written using JARVIS-Tools package.
data_AlPdO3
_symmetry_space_group_name_H-M  'P6_3/mmc'
_cell_length_a       3.20523
_cell_length_b       3.20523
_cell_length_c       11.8681
_cell_angle_alpha    90
_cell_angle_beta     90
_cell_angle_gamma    120

_symmetry_Int_Tables_number  194
_chemical_formula_structural  AlPdO3
_chemical_formula_sum  Al2Pd2O6
_cell_volume  105.59222231404515
_cell_formula_units_Z  2
loop_
  _symmetry_equiv_pos_site_id
 _symmetry_equiv_pos_as_xyz
 1  'x, y, z'
loop_
 _atom_site_type_symbol
 _atom_site_label
 _atom_site_symmetry_multiplicity
 _atom_site_fract_x
 _atom_site_fract_y
 _atom_site_fract_z
 _atom_site_fract_occupancy
 Al  Al1  1  0.33333  0.66667  0.25000  1
 Al  Al2  1  0.66667  0.33333  0.75000  1
 O  O1  1  0.33333  0.66667  0.08719  1
 O  O2  1  0.33333  0.66667  0.41281  1
 O  O3  1  0.00000  0.00000  0.25000  1
 O  O4  1  0.00000  0.00000  0.75000  1
 O  O5  1  0.66667  0.33333  0.58719  1
 O  O6  1  0.66667  0.33333  0.91281  1
 Pd  Pd1  1  0.00000  0.00000  0.00000  1
 Pd  Pd2  1  0.00000  0.00000  0.50000  1
