CIF file written using JARVIS-Tools package.
data_TbNaMnWO6
_symmetry_space_group_name_H-M  'P2_1'
_cell_length_a       5.30772
_cell_length_b       5.44958
_cell_length_c       7.6875
_cell_angle_alpha    90
_cell_angle_beta     90.1337
_cell_angle_gamma    90

_symmetry_Int_Tables_number  4
_chemical_formula_structural  TbNaMnWO6
_chemical_formula_sum  Tb2Na2Mn2W2O2
_cell_volume  222.35895924545602
_cell_formula_units_Z  2
loop_
  _symmetry_equiv_pos_site_id
 _symmetry_equiv_pos_as_xyz
 1  'x, y, z'
loop_
 _atom_site_type_symbol
 _atom_site_label
 _atom_site_symmetry_multiplicity
 _atom_site_fract_x
 _atom_site_fract_y
 _atom_site_fract_z
 _atom_site_fract_occupancy
 Mn  Mn1  1  0.24793  0.72274  0.75173  1
 Mn  Mn2  1  0.75207  0.22274  0.24827  1
 Na  Na1  1  0.75567  0.69122  0.99818  1
 Na  Na2  1  0.24433  0.19122  0.00182  1
 O  O1  1  0.04538  0.42821  0.21898  1
 O  O2  1  0.95462  0.92821  0.78102  1
 O  O3  1  0.84155  0.19823  0.50133  1
 O  O4  1  0.46220  0.01479  0.69479  1
 O  O5  1  0.94959  0.92905  0.21974  1
 O  O6  1  0.53780  0.51479  0.30521  1
 O  O7  1  0.68344  0.23863  0.00387  1
 O  O8  1  0.15845  0.69823  0.49867  1
 O  O9  1  0.31656  0.73863  -0.00387  1
 O  O10  1  0.45440  0.00966  0.30537  1
 O  O11  1  0.05041  0.42905  0.78026  1
 O  O12  1  0.54560  0.50966  0.69463  1
 Tb  Tb1  1  0.26315  0.28005  0.50084  1
 Tb  Tb2  1  0.73685  0.78005  0.49916  1
 W  W1  1  0.75949  0.22302  0.76849  1
 W  W2  1  0.24051  0.72302  0.23151  1
