CIF file written using JARVIS-Tools package.
data_K3NO4
_symmetry_space_group_name_H-M  'Pnma'
_cell_length_a       5.68121
_cell_length_b       7.94937
_cell_length_c       10.9097
_cell_angle_alpha    90
_cell_angle_beta     90
_cell_angle_gamma    90

_symmetry_Int_Tables_number  62
_chemical_formula_structural  K3NO4
_chemical_formula_sum  K2N4O6
_cell_volume  492.7033503592987
_cell_formula_units_Z  4
loop_
  _symmetry_equiv_pos_site_id
 _symmetry_equiv_pos_as_xyz
 1  'x, y, z'
loop_
 _atom_site_type_symbol
 _atom_site_label
 _atom_site_symmetry_multiplicity
 _atom_site_fract_x
 _atom_site_fract_y
 _atom_site_fract_z
 _atom_site_fract_occupancy
 K  K1  1  0.62824  0.75000  0.93056  1
 K  K2  1  0.37176  0.25000  0.06944  1
 K  K3  1  0.87176  0.75000  0.43056  1
 K  K4  1  0.17638  0.99242  0.85624  1
 K  K5  1  0.67638  0.00758  0.64376  1
 K  K6  1  0.82362  0.49242  0.14376  1
 K  K7  1  0.32362  0.50758  0.35624  1
 K  K8  1  0.82362  0.00758  0.14376  1
 K  K9  1  0.32362  0.99242  0.35624  1
 K  K10  1  0.17638  0.50758  0.85624  1
 K  K11  1  0.67638  0.49242  0.64376  1
 K  K12  1  0.12824  0.25000  0.56944  1
 N  N1  1  0.71568  0.25000  0.38364  1
 N  N2  1  0.78432  0.25000  0.88364  1
 N  N3  1  0.28432  0.75000  0.61636  1
 N  N4  1  0.21568  0.75000  0.11636  1
 O  O1  1  0.35503  0.89516  0.10857  1
 O  O2  1  0.40768  0.75000  0.72767  1
 O  O3  1  0.44806  0.75000  0.51916  1
 O  O4  1  0.94806  0.25000  0.98084  1
 O  O5  1  0.55194  0.25000  0.48084  1
 O  O6  1  0.05194  0.75000  0.01916  1
 O  O7  1  0.90768  0.25000  0.77233  1
 O  O8  1  0.09232  0.75000  0.22767  1
 O  O9  1  0.14497  0.89516  0.60857  1
 O  O10  1  0.64497  0.10484  0.89143  1
 O  O11  1  0.85503  0.39516  0.39143  1
 O  O12  1  0.35503  0.60484  0.10857  1
 O  O13  1  0.85503  0.10484  0.39143  1
 O  O14  1  0.59232  0.25000  0.27233  1
 O  O15  1  0.64497  0.39516  0.89143  1
 O  O16  1  0.14497  0.60484  0.60857  1
