CIF file written using JARVIS-Tools package.
data_LiCrP2O7
_symmetry_space_group_name_H-M  'Cc'
_cell_length_a       5.20683
_cell_length_b       5.20683
_cell_length_c       8.95746
_cell_angle_alpha    82.2692
_cell_angle_beta     97.7308
_cell_angle_gamma    76.14

_symmetry_Int_Tables_number  9
_chemical_formula_structural  LiCrP2O7
_chemical_formula_sum  Li2Cr2P4O4
_cell_volume  230.09735958501247
_cell_formula_units_Z  2
loop_
  _symmetry_equiv_pos_site_id
 _symmetry_equiv_pos_as_xyz
 1  'x, y, z'
loop_
 _atom_site_type_symbol
 _atom_site_label
 _atom_site_symmetry_multiplicity
 _atom_site_fract_x
 _atom_site_fract_y
 _atom_site_fract_z
 _atom_site_fract_occupancy
 Cr  Cr1  1  0.67599  0.67588  0.50000  1
 Cr  Cr2  1  0.32412  0.32401  -0.00000  1
 Li  Li1  1  0.69733  0.69801  0.00018  1
 Li  Li2  1  0.30199  0.30267  0.50018  1
 O  O1  1  0.39233  0.90355  0.60904  1
 O  O2  1  0.05241  0.62099  0.61109  1
 O  O3  1  0.90334  0.39264  0.39093  1
 O  O4  1  0.09645  0.60767  0.10904  1
 O  O5  1  0.37901  0.94759  0.11109  1
 O  O6  1  0.37932  0.61757  0.85853  1
 O  O7  1  0.99947  0.99960  0.74985  1
 O  O8  1  0.00040  0.00053  0.24985  1
 O  O9  1  0.60736  0.09666  0.89093  1
 O  O10  1  0.38243  0.62068  0.35853  1
 O  O11  1  0.94807  0.37825  0.88889  1
 O  O12  1  0.61740  0.37937  0.14153  1
 O  O13  1  0.62063  0.38260  0.64153  1
 O  O14  1  0.62175  0.05193  0.38889  1
 P  P1  1  0.77294  0.21613  0.29704  1
 P  P2  1  0.78387  0.22706  0.79704  1
 P  P3  1  0.22728  0.78390  0.20293  1
 P  P4  1  0.21610  0.77272  0.70293  1
