CIF file written using JARVIS-Tools package.
data_KZr2P3O12
_symmetry_space_group_name_H-M  'R-3c'
_cell_length_a       9.507
_cell_length_b       9.507
_cell_length_c       9.507
_cell_angle_alpha    55.2876
_cell_angle_beta     55.2876
_cell_angle_gamma    55.2876

_symmetry_Int_Tables_number  167
_chemical_formula_structural  KZr2P3O12
_chemical_formula_sum  K2Zr4P6O24
_cell_volume  541.0583868677808
_cell_formula_units_Z  2
loop_
  _symmetry_equiv_pos_site_id
 _symmetry_equiv_pos_as_xyz
 1  'x, y, z'
loop_
 _atom_site_type_symbol
 _atom_site_label
 _atom_site_symmetry_multiplicity
 _atom_site_fract_x
 _atom_site_fract_y
 _atom_site_fract_z
 _atom_site_fract_occupancy
 K  K1  1  0.00000  0.00000  0.00000  1
 K  K2  1  0.50000  0.50000  0.50000  1
 O  O1  1  0.23979  0.98910  0.36704  1
 O  O2  1  0.98910  0.36704  0.23979  1
 O  O3  1  0.06919  0.29408  0.92255  1
 O  O4  1  0.93081  0.70592  0.07745  1
 O  O5  1  0.92255  0.06919  0.29408  1
 O  O6  1  0.57745  0.20592  0.43081  1
 O  O7  1  0.20592  0.43081  0.57745  1
 O  O8  1  0.43081  0.57745  0.20592  1
 O  O9  1  0.48910  0.73979  0.86704  1
 O  O10  1  0.70592  0.07745  0.93081  1
 O  O11  1  0.07745  0.93081  0.70592  1
 O  O12  1  0.42255  0.79408  0.56919  1
 O  O13  1  0.79408  0.56919  0.42255  1
 O  O14  1  0.56919  0.42255  0.79408  1
 O  O15  1  0.26021  0.13296  0.51090  1
 O  O16  1  0.51090  0.26021  0.13296  1
 O  O17  1  0.13296  0.51090  0.26021  1
 O  O18  1  0.63296  0.76021  0.01090  1
 O  O19  1  0.29408  0.92255  0.06919  1
 O  O20  1  0.36704  0.23979  0.98910  1
 O  O21  1  0.86704  0.48910  0.73979  1
 O  O22  1  0.76021  0.01090  0.63296  1
 O  O23  1  0.01090  0.63296  0.76021  1
 O  O24  1  0.73979  0.86704  0.48910  1
 P  P1  1  0.53693  0.25000  0.96307  1
 P  P2  1  0.96307  0.53693  0.25000  1
 P  P3  1  0.25000  0.96307  0.53693  1
 P  P4  1  0.03693  0.46307  0.75000  1
 P  P5  1  0.75000  0.03693  0.46307  1
 P  P6  1  0.46307  0.75000  0.03693  1
 Zr  Zr1  1  0.64885  0.64885  0.64885  1
 Zr  Zr2  1  0.85115  0.85115  0.85115  1
 Zr  Zr3  1  0.35115  0.35115  0.35115  1
 Zr  Zr4  1  0.14885  0.14885  0.14885  1
