CIF file written using JARVIS-Tools package.
data_Be2VFe
_symmetry_space_group_name_H-M  'P4/mmm'
_cell_length_a       2.4889
_cell_length_b       2.4889
_cell_length_c       6.55898
_cell_angle_alpha    90
_cell_angle_beta     90
_cell_angle_gamma    90

_symmetry_Int_Tables_number  123
_chemical_formula_structural  Be2VFe
_chemical_formula_sum  Be2VFe
_cell_volume  40.63025460127595
_cell_formula_units_Z  1
loop_
  _symmetry_equiv_pos_site_id
 _symmetry_equiv_pos_as_xyz
 1  'x, y, z'
loop_
 _atom_site_type_symbol
 _atom_site_label
 _atom_site_symmetry_multiplicity
 _atom_site_fract_x
 _atom_site_fract_y
 _atom_site_fract_z
 _atom_site_fract_occupancy
 Be  Be1  1  0.00000  0.00000  0.76897  1
 Be  Be2  1  0.00000  0.00000  0.23103  1
 Fe  Fe1  1  0.50000  0.50000  0.00000  1
 V  V1  1  0.50000  0.50000  0.50000  1
