CIF file written using JARVIS-Tools package.
data_VOF
_symmetry_space_group_name_H-M  'Cmmm'
_cell_length_a       4.70412
_cell_length_b       4.70411
_cell_length_c       2.99051
_cell_angle_alpha    90
_cell_angle_beta     90
_cell_angle_gamma    94.6948

_symmetry_Int_Tables_number  65
_chemical_formula_structural  VOF
_chemical_formula_sum  V2O2F2
_cell_volume  65.95428852978277
_cell_formula_units_Z  2
loop_
  _symmetry_equiv_pos_site_id
 _symmetry_equiv_pos_as_xyz
 1  'x, y, z'
loop_
 _atom_site_type_symbol
 _atom_site_label
 _atom_site_symmetry_multiplicity
 _atom_site_fract_x
 _atom_site_fract_y
 _atom_site_fract_z
 _atom_site_fract_occupancy
 F  F1  1  0.20081  0.79919  0.50000  1
 F  F2  1  0.79919  0.20081  0.50000  1
 O  O1  1  0.29806  0.29806  -0.00000  1
 O  O2  1  0.70194  0.70194  0.00000  1
 V  V1  1  0.00000  0.00000  0.00000  1
 V  V2  1  0.50000  0.50000  0.50000  1
