CIF file written using JARVIS-Tools package.
data_LiMg6Nb
_symmetry_space_group_name_H-M  'P4/mmm'
_cell_length_a       6.11529
_cell_length_b       8.63945
_cell_length_c       4.46015
_cell_angle_alpha    90
_cell_angle_beta     90
_cell_angle_gamma    134.941

_symmetry_Int_Tables_number  123
_chemical_formula_structural  LiMg6Nb
_chemical_formula_sum  LiMg6Nb
_cell_volume  166.7950026678792
_cell_formula_units_Z  1
loop_
  _symmetry_equiv_pos_site_id
 _symmetry_equiv_pos_as_xyz
 1  'x, y, z'
loop_
 _atom_site_type_symbol
 _atom_site_label
 _atom_site_symmetry_multiplicity
 _atom_site_fract_x
 _atom_site_fract_y
 _atom_site_fract_z
 _atom_site_fract_occupancy
 Li  Li1  1  0.24997  0.37498  0.25000  1
 Mg  Mg1  1  0.75000  0.37500  0.25000  1
 Mg  Mg2  1  0.75000  0.87500  0.25000  1
 Mg  Mg3  1  0.25001  0.11665  0.75000  1
 Mg  Mg4  1  0.25001  0.63336  0.75000  1
 Mg  Mg5  1  0.73175  0.11587  0.75000  1
 Mg  Mg6  1  0.76826  0.63413  0.75000  1
 Nb  Nb1  1  0.25000  0.87500  0.25000  1
