CIF file written using JARVIS-Tools package.
data_SrNdFeO4
_symmetry_space_group_name_H-M  'I4mm'
_cell_length_a       6.95062
_cell_length_b       6.95063
_cell_length_c       6.95062
_cell_angle_alpha    148.663
_cell_angle_beta     148.663
_cell_angle_gamma    44.9079

_symmetry_Int_Tables_number  107
_chemical_formula_structural  SrNdFeO4
_chemical_formula_sum  SrNdFeO4
_cell_volume  90.5426800208018
_cell_formula_units_Z  1
loop_
  _symmetry_equiv_pos_site_id
 _symmetry_equiv_pos_as_xyz
 1  'x, y, z'
loop_
 _atom_site_type_symbol
 _atom_site_label
 _atom_site_symmetry_multiplicity
 _atom_site_fract_x
 _atom_site_fract_y
 _atom_site_fract_z
 _atom_site_fract_occupancy
 Fe  Fe1  1  0.00055  0.00055  0.00000  1
 Nd  Nd1  1  0.35769  0.35769  0.00000  1
 O  O1  1  0.83340  0.83340  0.00000  1
 O  O2  1  0.17702  0.17702  -0.00000  1
 O  O3  1  0.99386  0.49386  0.50000  1
 O  O4  1  0.49386  0.99386  0.50000  1
 Sr  Sr1  1  0.64360  0.64360  0.00000  1
