CIF file written using JARVIS-Tools package.
data_Mg6CrNi
_symmetry_space_group_name_H-M  'Amm2'
_cell_length_a       5.86274
_cell_length_b       5.86274
_cell_length_c       4.62011
_cell_angle_alpha    90
_cell_angle_beta     90
_cell_angle_gamma    106.743

_symmetry_Int_Tables_number  38
_chemical_formula_structural  Mg6CrNi
_chemical_formula_sum  Mg6CrNi
_cell_volume  152.0692954514518
_cell_formula_units_Z  1
loop_
  _symmetry_equiv_pos_site_id
 _symmetry_equiv_pos_as_xyz
 1  'x, y, z'
loop_
 _atom_site_type_symbol
 _atom_site_label
 _atom_site_symmetry_multiplicity
 _atom_site_fract_x
 _atom_site_fract_y
 _atom_site_fract_z
 _atom_site_fract_occupancy
 Cr  Cr1  1  0.39915  0.10085  0.75000  1
 Mg  Mg1  1  0.13309  0.90148  0.25000  1
 Mg  Mg2  1  0.59852  0.36691  0.25000  1
 Mg  Mg3  1  0.61893  0.88107  0.25000  1
 Mg  Mg4  1  0.34555  0.58077  0.75000  1
 Mg  Mg5  1  0.91923  0.15445  0.75000  1
 Mg  Mg6  1  0.87131  0.62869  0.75000  1
 Ni  Ni1  1  0.11421  0.38579  0.25000  1
