CIF file written using JARVIS-Tools package.
data_BaMg6C
_symmetry_space_group_name_H-M  'Amm2'
_cell_length_a       10.6674
_cell_length_b       5.72741
_cell_length_c       3.5768
_cell_angle_alpha    90
_cell_angle_beta     90
_cell_angle_gamma    105.572

_symmetry_Int_Tables_number  38
_chemical_formula_structural  BaMg6C
_chemical_formula_sum  BaMg6C
_cell_volume  210.5078231861778
_cell_formula_units_Z  1
loop_
  _symmetry_equiv_pos_site_id
 _symmetry_equiv_pos_as_xyz
 1  'x, y, z'
loop_
 _atom_site_type_symbol
 _atom_site_label
 _atom_site_symmetry_multiplicity
 _atom_site_fract_x
 _atom_site_fract_y
 _atom_site_fract_z
 _atom_site_fract_occupancy
 Ba  Ba1  1  0.07394  0.28697  0.25000  1
 C  C1  1  0.41083  0.95542  0.25000  1
 Mg  Mg1  1  0.58551  0.29047  0.25000  1
 Mg  Mg2  1  0.58551  0.79504  0.25000  1
 Mg  Mg3  1  0.35699  0.15915  0.75000  1
 Mg  Mg4  1  0.35699  0.69784  0.75000  1
 Mg  Mg5  1  0.78236  0.14118  0.75000  1
 Mg  Mg6  1  0.84787  0.67393  0.75000  1
