CIF file written using JARVIS-Tools package.
data_B2Ru
_symmetry_space_group_name_H-M  'Pmmn'
_cell_length_a       2.88
_cell_length_b       4.06356
_cell_length_c       4.66699
_cell_angle_alpha    90
_cell_angle_beta     90
_cell_angle_gamma    90

_symmetry_Int_Tables_number  59
_chemical_formula_structural  B2Ru
_chemical_formula_sum  B4Ru2
_cell_volume  54.617973174311715
_cell_formula_units_Z  2
loop_
  _symmetry_equiv_pos_site_id
 _symmetry_equiv_pos_as_xyz
 1  'x, y, z'
loop_
 _atom_site_type_symbol
 _atom_site_label
 _atom_site_symmetry_multiplicity
 _atom_site_fract_x
 _atom_site_fract_y
 _atom_site_fract_z
 _atom_site_fract_occupancy
 B  B1  1  0.00000  0.36363  0.30554  1
 B  B2  1  0.50000  0.63637  0.19446  1
 B  B3  1  0.00000  0.36363  0.69446  1
 B  B4  1  0.50000  0.63637  0.80554  1
 Ru  Ru1  1  0.00000  0.84800  0.50000  1
 Ru  Ru2  1  0.50000  0.15200  0.00000  1
