CIF file written using JARVIS-Tools package.
data_Li6ZrBeF12
_symmetry_space_group_name_H-M  'I4_1/amd'
_cell_length_a       6.58896
_cell_length_b       6.58896
_cell_length_c       10.3675
_cell_angle_alpha    108.528
_cell_angle_beta     108.528
_cell_angle_gamma    90

_symmetry_Int_Tables_number  141
_chemical_formula_structural  Li6ZrBeF12
_chemical_formula_sum  Li2Zr2Be2F24
_cell_volume  402.09053173037046
_cell_formula_units_Z  2
loop_
  _symmetry_equiv_pos_site_id
 _symmetry_equiv_pos_as_xyz
 1  'x, y, z'
loop_
 _atom_site_type_symbol
 _atom_site_label
 _atom_site_symmetry_multiplicity
 _atom_site_fract_x
 _atom_site_fract_y
 _atom_site_fract_z
 _atom_site_fract_occupancy
 Be  Be1  1  0.62500  0.87500  0.75000  1
 Be  Be2  1  0.37500  0.12500  0.25000  1
 F  F1  1  0.21062  0.23161  0.92124  1
 F  F2  1  0.57427  0.63041  0.64853  1
 F  F3  1  0.88510  0.42225  0.84449  1
 F  F4  1  0.48188  0.92573  0.85147  1
 F  F5  1  0.11490  0.57775  0.15551  1
 F  F6  1  0.54061  0.57775  0.15551  1
 F  F7  1  0.45939  0.42225  0.84449  1
 F  F8  1  0.73161  0.71062  0.42124  1
 F  F9  1  0.81038  0.28938  0.57876  1
 F  F10  1  0.18962  0.71062  0.42124  1
 F  F11  1  0.21062  0.68962  0.92124  1
 F  F12  1  0.78938  0.76839  0.07876  1
 F  F13  1  0.07775  0.61490  0.65551  1
 F  F14  1  0.57427  0.01812  0.64853  1
 F  F15  1  0.42573  0.36959  0.35147  1
 F  F16  1  0.13041  0.07427  0.14853  1
 F  F17  1  0.86959  0.92573  0.85147  1
 F  F18  1  0.51812  0.07427  0.14853  1
 F  F19  1  0.07775  0.04061  0.65551  1
 F  F20  1  0.26839  0.28938  0.57876  1
 F  F21  1  0.92225  0.95939  0.34449  1
 F  F22  1  0.92225  0.38510  0.34449  1
 F  F23  1  0.42573  0.98188  0.35147  1
 F  F24  1  0.78938  0.31038  0.07876  1
 Li  Li1  1  0.73366  0.00000  0.50000  1
 Li  Li2  1  0.39670  0.64670  0.29340  1
 Li  Li3  1  0.26634  0.50000  0.50000  1
 Li  Li4  1  0.50000  0.76634  -0.00000  1
 Li  Li5  1  0.73366  0.50000  0.50000  1
 Li  Li6  1  -0.00000  0.76634  -0.00000  1
 Li  Li7  1  0.26634  -0.00000  0.50000  1
 Li  Li8  1  0.50000  0.23366  0.00000  1
 Li  Li9  1  0.60330  0.35330  0.70660  1
 Li  Li10  1  0.14670  0.89670  0.79340  1
 Li  Li11  1  0.00000  0.23366  0.00000  1
 Li  Li12  1  0.85330  0.10330  0.20660  1
 Zr  Zr1  1  0.87500  0.62500  0.25000  1
 Zr  Zr2  1  0.12500  0.37500  0.75000  1
