CIF file written using JARVIS-Tools package.
data_CeScSi
_symmetry_space_group_name_H-M  'I4/mmm'
_cell_length_a       4.22206
_cell_length_b       4.22206
_cell_length_c       8.4327
_cell_angle_alpha    104.498
_cell_angle_beta     104.498
_cell_angle_gamma    90

_symmetry_Int_Tables_number  139
_chemical_formula_structural  CeScSi
_chemical_formula_sum  Ce2Sc2Si2
_cell_volume  140.58352920046528
_cell_formula_units_Z  2
loop_
  _symmetry_equiv_pos_site_id
 _symmetry_equiv_pos_as_xyz
 1  'x, y, z'
loop_
 _atom_site_type_symbol
 _atom_site_label
 _atom_site_symmetry_multiplicity
 _atom_site_fract_x
 _atom_site_fract_y
 _atom_site_fract_z
 _atom_site_fract_occupancy
 Ce  Ce1  1  0.67897  0.67897  0.35794  1
 Ce  Ce2  1  0.32103  0.32103  0.64206  1
 Sc  Sc1  1  0.50000  0.00000  0.00000  1
 Sc  Sc2  1  0.00000  0.50000  0.00000  1
 Si  Si1  1  0.87626  0.87626  0.75253  1
 Si  Si2  1  0.12374  0.12374  0.24747  1
