CIF file written using JARVIS-Tools package.
data_LiNbVO4
_symmetry_space_group_name_H-M  'Imma'
_cell_length_a       6.07884
_cell_length_b       6.03842
_cell_length_c       6.03842
_cell_angle_alpha    59.2149
_cell_angle_beta     59.7783
_cell_angle_gamma    59.7783

_symmetry_Int_Tables_number  74
_chemical_formula_structural  LiNbVO4
_chemical_formula_sum  Li2Nb2V2O8
_cell_volume  155.2609391403741
_cell_formula_units_Z  2
loop_
  _symmetry_equiv_pos_site_id
 _symmetry_equiv_pos_as_xyz
 1  'x, y, z'
loop_
 _atom_site_type_symbol
 _atom_site_label
 _atom_site_symmetry_multiplicity
 _atom_site_fract_x
 _atom_site_fract_y
 _atom_site_fract_z
 _atom_site_fract_occupancy
 Li  Li1  1  0.12281  0.12719  0.12719  1
 Li  Li2  1  0.87719  0.87281  0.87281  1
 Nb  Nb1  1  -0.00000  0.50000  0.50000  1
 Nb  Nb2  1  0.50000  0.50000  0.50000  1
 O  O1  1  0.25957  0.26050  0.26050  1
 O  O2  1  0.26025  0.24964  0.72987  1
 O  O3  1  0.26025  0.72987  0.24964  1
 O  O4  1  0.71943  0.26050  0.26050  1
 O  O5  1  0.28057  0.73950  0.73950  1
 O  O6  1  0.73975  0.75036  0.27013  1
 O  O7  1  0.73975  0.27013  0.75036  1
 O  O8  1  0.74043  0.73950  0.73950  1
 V  V1  1  0.50000  -0.00000  0.50000  1
 V  V2  1  0.50000  0.50000  -0.00000  1
