CIF file written using JARVIS-Tools package.
data_SmFeO3
_symmetry_space_group_name_H-M  'Pnma'
_cell_length_a       5.32733
_cell_length_b       5.56607
_cell_length_c       7.5906
_cell_angle_alpha    90
_cell_angle_beta     90
_cell_angle_gamma    90

_symmetry_Int_Tables_number  62
_chemical_formula_structural  SmFeO3
_chemical_formula_sum  Sm4Fe4O2
_cell_volume  225.07889166196847
_cell_formula_units_Z  4
loop_
  _symmetry_equiv_pos_site_id
 _symmetry_equiv_pos_as_xyz
 1  'x, y, z'
loop_
 _atom_site_type_symbol
 _atom_site_label
 _atom_site_symmetry_multiplicity
 _atom_site_fract_x
 _atom_site_fract_y
 _atom_site_fract_z
 _atom_site_fract_occupancy
 Fe  Fe1  1  0.00000  0.50000  0.00000  1
 Fe  Fe2  1  0.50000  0.00000  0.00000  1
 Fe  Fe3  1  0.50000  0.00000  0.50000  1
 Fe  Fe4  1  0.00000  0.50000  0.50000  1
 O  O1  1  0.91661  0.51801  0.75000  1
 O  O2  1  0.20359  0.20423  0.54391  1
 O  O3  1  0.79641  0.79577  0.04391  1
 O  O4  1  0.29641  0.70423  0.95609  1
 O  O5  1  0.29641  0.70423  0.54391  1
 O  O6  1  0.79641  0.79577  0.45609  1
 O  O7  1  0.20359  0.20423  0.95609  1
 O  O8  1  0.58339  0.01801  0.75000  1
 O  O9  1  0.70359  0.29577  0.45609  1
 O  O10  1  0.08339  0.48199  0.25000  1
 O  O11  1  0.41661  0.98199  0.25000  1
 O  O12  1  0.70359  0.29577  0.04391  1
 Sm  Sm1  1  0.01462  0.93819  0.75000  1
 Sm  Sm2  1  0.48538  0.43819  0.75000  1
 Sm  Sm3  1  0.98538  0.06181  0.25000  1
 Sm  Sm4  1  0.51462  0.56181  0.25000  1
