CIF file written using JARVIS-Tools package.
data_HfTi3
_symmetry_space_group_name_H-M  'P6_3/mmc'
_cell_length_a       6.00005
_cell_length_b       6.00006
_cell_length_c       4.71182
_cell_angle_alpha    90
_cell_angle_beta     90
_cell_angle_gamma    120

_symmetry_Int_Tables_number  194
_chemical_formula_structural  HfTi3
_chemical_formula_sum  Hf2Ti6
_cell_volume  146.90253045683352
_cell_formula_units_Z  2
loop_
  _symmetry_equiv_pos_site_id
 _symmetry_equiv_pos_as_xyz
 1  'x, y, z'
loop_
 _atom_site_type_symbol
 _atom_site_label
 _atom_site_symmetry_multiplicity
 _atom_site_fract_x
 _atom_site_fract_y
 _atom_site_fract_z
 _atom_site_fract_occupancy
 Hf  Hf1  1  0.33333  0.66667  0.75000  1
 Hf  Hf2  1  0.66667  0.33333  0.25000  1
 Ti  Ti1  1  0.16098  0.32197  0.25000  1
 Ti  Ti2  1  0.67803  0.83902  0.25000  1
 Ti  Ti3  1  0.16098  0.83902  0.25000  1
 Ti  Ti4  1  0.83902  0.67803  0.75000  1
 Ti  Ti5  1  0.32197  0.16098  0.75000  1
 Ti  Ti6  1  0.83902  0.16098  0.75000  1
