CIF file written using JARVIS-Tools package.
data_BaMn4O8
_symmetry_space_group_name_H-M  'I4/m'
_cell_length_a       3.09072
_cell_length_b       7.01561
_cell_length_c       7.01655
_cell_angle_alpha    87.2041
_cell_angle_beta     77.2797
_cell_angle_gamma    77.273

_symmetry_Int_Tables_number  87
_chemical_formula_structural  BaMn4O8
_chemical_formula_sum  BaMn4O8
_cell_volume  144.76177163926218
_cell_formula_units_Z  1
loop_
  _symmetry_equiv_pos_site_id
 _symmetry_equiv_pos_as_xyz
 1  'x, y, z'
loop_
 _atom_site_type_symbol
 _atom_site_label
 _atom_site_symmetry_multiplicity
 _atom_site_fract_x
 _atom_site_fract_y
 _atom_site_fract_z
 _atom_site_fract_occupancy
 Ba  Ba1  1  0.50000  0.00000  0.00000  1
 Mn  Mn1  1  0.65109  0.18454  0.51334  1
 Mn  Mn2  1  0.34891  0.81546  0.48666  1
 Mn  Mn3  1  0.16433  0.48675  0.18452  1
 Mn  Mn4  1  0.83568  0.51325  0.81547  1
 O  O1  1  0.45740  0.37541  0.70989  1
 O  O2  1  0.54260  0.62459  0.29011  1
 O  O3  1  0.83299  0.70965  0.62436  1
 O  O4  1  0.16701  0.29035  0.37564  1
 O  O5  1  0.84994  0.95536  0.34476  1
 O  O6  1  0.19476  0.65525  0.95519  1
 O  O7  1  0.15006  0.04464  0.65524  1
 O  O8  1  0.80524  0.34475  0.04481  1
