CIF file written using JARVIS-Tools package.
data_SmMg2Bi2
_symmetry_space_group_name_H-M  'P-3m1'
_cell_length_a       4.8221
_cell_length_b       4.82222
_cell_length_c       7.43565
_cell_angle_alpha    90
_cell_angle_beta     89.9992
_cell_angle_gamma    120.001

_symmetry_Int_Tables_number  164
_chemical_formula_structural  SmMg2Bi2
_chemical_formula_sum  SmMg2Bi2
_cell_volume  149.7369487303665
_cell_formula_units_Z  1
loop_
  _symmetry_equiv_pos_site_id
 _symmetry_equiv_pos_as_xyz
 1  'x, y, z'
loop_
 _atom_site_type_symbol
 _atom_site_label
 _atom_site_symmetry_multiplicity
 _atom_site_fract_x
 _atom_site_fract_y
 _atom_site_fract_z
 _atom_site_fract_occupancy
 Bi  Bi1  1  0.33333  0.66666  0.24212  1
 Bi  Bi2  1  0.66667  0.33334  0.75788  1
 Mg  Mg1  1  0.33335  0.66667  0.64410  1
 Mg  Mg2  1  0.66665  0.33333  0.35590  1
 Sm  Sm1  1  0.00000  0.00000  0.00000  1
