CIF file written using JARVIS-Tools package.
data_NaMg6Cr
_symmetry_space_group_name_H-M  'Amm2'
_cell_length_a       6.34123
_cell_length_b       6.53347
_cell_length_c       5.10321
_cell_angle_alpha    90
_cell_angle_beta     90
_cell_angle_gamma    121.008

_symmetry_Int_Tables_number  38
_chemical_formula_structural  NaMg6Cr
_chemical_formula_sum  NaMg6Cr
_cell_volume  181.21325694139466
_cell_formula_units_Z  1
loop_
  _symmetry_equiv_pos_site_id
 _symmetry_equiv_pos_as_xyz
 1  'x, y, z'
loop_
 _atom_site_type_symbol
 _atom_site_label
 _atom_site_symmetry_multiplicity
 _atom_site_fract_x
 _atom_site_fract_y
 _atom_site_fract_z
 _atom_site_fract_occupancy
 Cr  Cr1  1  0.17193  0.83596  0.25000  1
 Mg  Mg1  1  0.67216  0.33535  0.25000  1
 Mg  Mg2  1  0.67216  0.83680  0.25000  1
 Mg  Mg3  1  0.32411  0.14895  0.75000  1
 Mg  Mg4  1  0.32411  0.67516  0.75000  1
 Mg  Mg5  1  0.82450  0.16225  0.75000  1
 Mg  Mg6  1  0.83457  0.66729  0.75000  1
 Na  Na1  1  0.17647  0.33824  0.25000  1
