CIF file written using JARVIS-Tools package.
data_Mg6NbBi
_symmetry_space_group_name_H-M  'Amm2'
_cell_length_a       6.28504
_cell_length_b       6.28503
_cell_length_c       5.06976
_cell_angle_alpha    90
_cell_angle_beta     90
_cell_angle_gamma    118.011

_symmetry_Int_Tables_number  38
_chemical_formula_structural  Mg6NbBi
_chemical_formula_sum  Mg6NbBi
_cell_volume  176.80407821914167
_cell_formula_units_Z  1
loop_
  _symmetry_equiv_pos_site_id
 _symmetry_equiv_pos_as_xyz
 1  'x, y, z'
loop_
 _atom_site_type_symbol
 _atom_site_label
 _atom_site_symmetry_multiplicity
 _atom_site_fract_x
 _atom_site_fract_y
 _atom_site_fract_z
 _atom_site_fract_occupancy
 Bi  Bi1  1  0.33181  0.16819  0.75000  1
 Mg  Mg1  1  0.15568  0.81901  0.25000  1
 Mg  Mg2  1  0.68099  0.34432  0.25000  1
 Mg  Mg3  1  0.66252  0.83748  0.25000  1
 Mg  Mg4  1  0.33060  0.65581  0.75000  1
 Mg  Mg5  1  0.84419  0.16940  0.75000  1
 Mg  Mg6  1  0.83428  0.66572  0.75000  1
 Nb  Nb1  1  0.15995  0.34005  0.25000  1
