CIF file written using JARVIS-Tools package.
data_NiB2W2
_symmetry_space_group_name_H-M  'Immm'
_cell_length_a       3.20951
_cell_length_b       4.52683
_cell_length_c       4.52683
_cell_angle_alpha    60.8033
_cell_angle_beta     69.2372
_cell_angle_gamma    69.2372

_symmetry_Int_Tables_number  71
_chemical_formula_structural  NiB2W2
_chemical_formula_sum  NiB2W2
_cell_volume  52.34012390512392
_cell_formula_units_Z  1
loop_
  _symmetry_equiv_pos_site_id
 _symmetry_equiv_pos_as_xyz
 1  'x, y, z'
loop_
 _atom_site_type_symbol
 _atom_site_label
 _atom_site_symmetry_multiplicity
 _atom_site_fract_x
 _atom_site_fract_y
 _atom_site_fract_z
 _atom_site_fract_occupancy
 B  B1  1  0.50000  0.29915  0.70085  1
 B  B2  1  0.50000  0.70085  0.29915  1
 Ni  Ni1  1  0.00000  0.00000  0.00000  1
 W  W1  1  0.20061  0.29939  0.29939  1
 W  W2  1  0.79939  0.70061  0.70061  1
