CIF file written using JARVIS-Tools package.
data_Li4Mn5NbO12
_symmetry_space_group_name_H-M  'C2/m'
_cell_length_a       5.07331
_cell_length_b       5.0733
_cell_length_c       10.5019
_cell_angle_alpha    100.044
_cell_angle_beta     100.044
_cell_angle_gamma    114.659

_symmetry_Int_Tables_number  12
_chemical_formula_structural  Li4Mn5NbO12
_chemical_formula_sum  Li4Mn5NbO2
_cell_volume  232.47763164703596
_cell_formula_units_Z  1
loop_
  _symmetry_equiv_pos_site_id
 _symmetry_equiv_pos_as_xyz
 1  'x, y, z'
loop_
 _atom_site_type_symbol
 _atom_site_label
 _atom_site_symmetry_multiplicity
 _atom_site_fract_x
 _atom_site_fract_y
 _atom_site_fract_z
 _atom_site_fract_occupancy
 Li  Li1  1  0.29227  0.63833  0.73056  1
 Li  Li2  1  0.36167  0.70773  0.26944  1
 Li  Li3  1  0.63833  0.29227  0.73056  1
 Li  Li4  1  0.70773  0.36167  0.26944  1
 Mn  Mn1  1  0.16482  0.83518  0.50000  1
 Mn  Mn2  1  0.33549  0.66451  -0.00000  1
 Mn  Mn3  1  0.50000  0.50000  0.50000  1
 Mn  Mn4  1  0.66451  0.33549  0.00000  1
 Mn  Mn5  1  0.83518  0.16482  0.50000  1
 Nb  Nb1  1  0.00000  0.00000  0.00000  1
 O  O1  1  0.75811  0.10977  0.11232  1
 O  O2  1  0.24189  0.89023  0.88768  1
 O  O3  1  0.14279  0.48471  0.38966  1
 O  O4  1  0.51529  0.85721  0.61034  1
 O  O5  1  0.10977  0.75811  0.11232  1
 O  O6  1  0.85721  0.51529  0.61034  1
 O  O7  1  0.59700  0.59700  0.89406  1
 O  O8  1  0.76474  0.76474  0.40165  1
 O  O9  1  0.48471  0.14279  0.38966  1
 O  O10  1  0.23526  0.23526  0.59835  1
 O  O11  1  0.40300  0.40300  0.10594  1
 O  O12  1  0.89023  0.24189  0.88768  1
