CIF file written using JARVIS-Tools package.
data_CrCl3
_symmetry_space_group_name_H-M  'C2/m'
_cell_length_a       5.97928
_cell_length_b       5.97927
_cell_length_c       6.06776
_cell_angle_alpha    99.2284
_cell_angle_beta     99.2283
_cell_angle_gamma    119.971

_symmetry_Int_Tables_number  12
_chemical_formula_structural  CrCl3
_chemical_formula_sum  Cr2Cl6
_cell_volume  178.005039582636
_cell_formula_units_Z  2
loop_
  _symmetry_equiv_pos_site_id
 _symmetry_equiv_pos_as_xyz
 1  'x, y, z'
loop_
 _atom_site_type_symbol
 _atom_site_label
 _atom_site_symmetry_multiplicity
 _atom_site_fract_x
 _atom_site_fract_y
 _atom_site_fract_z
 _atom_site_fract_occupancy
 Cl  Cl1  1  0.07236  0.42500  0.76880  1
 Cl  Cl2  1  0.57500  0.92764  0.23120  1
 Cl  Cl3  1  0.77833  0.77833  0.76608  1
 Cl  Cl4  1  0.22167  0.22167  0.23392  1
 Cl  Cl5  1  0.42500  0.07236  0.76880  1
 Cl  Cl6  1  0.92764  0.57500  0.23120  1
 Cr  Cr1  1  0.16655  0.83345  0.00000  1
 Cr  Cr2  1  0.83345  0.16655  -0.00000  1
