CIF file written using JARVIS-Tools package.
data_Zr2Be2Ga
_symmetry_space_group_name_H-M  'I4/mmm'
_cell_length_a       9.12008
_cell_length_b       9.12008
_cell_length_c       9.12008
_cell_angle_alpha    161.043
_cell_angle_beta     161.043
_cell_angle_gamma    26.9339

_symmetry_Int_Tables_number  139
_chemical_formula_structural  Zr2Be2Ga
_chemical_formula_sum  Zr2Be2Ga
_cell_volume  80.01928413288569
_cell_formula_units_Z  1
loop_
  _symmetry_equiv_pos_site_id
 _symmetry_equiv_pos_as_xyz
 1  'x, y, z'
loop_
 _atom_site_type_symbol
 _atom_site_label
 _atom_site_symmetry_multiplicity
 _atom_site_fract_x
 _atom_site_fract_y
 _atom_site_fract_z
 _atom_site_fract_occupancy
 Be  Be1  1  0.75000  0.25000  0.50000  1
 Be  Be2  1  0.25000  0.75000  0.50000  1
 Ga  Ga1  1  0.00000  0.00000  0.00000  1
 Zr  Zr1  1  0.61250  0.61250  0.00000  1
 Zr  Zr2  1  0.38750  0.38750  -0.00000  1
