CIF file written using JARVIS-Tools package.
data_BeCN2
_symmetry_space_group_name_H-M  'I-42d'
_cell_length_a       3.76536
_cell_length_b       3.76536
_cell_length_c       4.39482
_cell_angle_alpha    115.365
_cell_angle_beta     115.365
_cell_angle_gamma    89.9999

_symmetry_Int_Tables_number  122
_chemical_formula_structural  BeCN2
_chemical_formula_sum  Be2C2N4
_cell_volume  49.57307765036515
_cell_formula_units_Z  2
loop_
  _symmetry_equiv_pos_site_id
 _symmetry_equiv_pos_as_xyz
 1  'x, y, z'
loop_
 _atom_site_type_symbol
 _atom_site_label
 _atom_site_symmetry_multiplicity
 _atom_site_fract_x
 _atom_site_fract_y
 _atom_site_fract_z
 _atom_site_fract_occupancy
 Be  Be1  1  0.00000  0.00000  0.00000  1
 Be  Be2  1  0.25000  0.75000  0.50000  1
 C  C1  1  0.50000  0.50000  0.00000  1
 C  C2  1  0.75000  0.25000  0.50000  1
 N  N1  1  0.42044  0.37500  0.25000  1
 N  N2  1  0.12500  0.57956  0.75000  1
 N  N3  1  0.62500  0.17044  0.75000  1
 N  N4  1  0.82956  0.87500  0.25000  1
