CIF file written using JARVIS-Tools package.
data_In2Co3S2
_symmetry_space_group_name_H-M  'R-3m'
_cell_length_a       5.48191
_cell_length_b       5.4819
_cell_length_c       5.48191
_cell_angle_alpha    58.2312
_cell_angle_beta     58.2312
_cell_angle_gamma    58.2312

_symmetry_Int_Tables_number  166
_chemical_formula_structural  In2Co3S2
_chemical_formula_sum  In2Co3S2
_cell_volume  111.76678636326477
_cell_formula_units_Z  1
loop_
  _symmetry_equiv_pos_site_id
 _symmetry_equiv_pos_as_xyz
 1  'x, y, z'
loop_
 _atom_site_type_symbol
 _atom_site_label
 _atom_site_symmetry_multiplicity
 _atom_site_fract_x
 _atom_site_fract_y
 _atom_site_fract_z
 _atom_site_fract_occupancy
 Co  Co1  1  0.50000  0.00000  0.00000  1
 Co  Co2  1  -0.00000  0.00000  0.50000  1
 Co  Co3  1  0.00000  0.50000  0.00000  1
 In  In1  1  0.50000  0.50000  0.50000  1
 In  In2  1  0.00000  0.00000  0.00000  1
 S  S1  1  0.27789  0.27789  0.27789  1
 S  S2  1  0.72211  0.72211  0.72211  1
