CIF file written using JARVIS-Tools package.
data_PI3
_symmetry_space_group_name_H-M  'P6_3'
_cell_length_a       7.08865
_cell_length_b       7.08865
_cell_length_c       7.27537
_cell_angle_alpha    90
_cell_angle_beta     90
_cell_angle_gamma    120

_symmetry_Int_Tables_number  173
_chemical_formula_structural  PI3
_chemical_formula_sum  P2I6
_cell_volume  316.6015258646564
_cell_formula_units_Z  2
loop_
  _symmetry_equiv_pos_site_id
 _symmetry_equiv_pos_as_xyz
 1  'x, y, z'
loop_
 _atom_site_type_symbol
 _atom_site_label
 _atom_site_symmetry_multiplicity
 _atom_site_fract_x
 _atom_site_fract_y
 _atom_site_fract_z
 _atom_site_fract_occupancy
 I  I1  1  0.33646  0.31333  0.49977  1
 I  I2  1  0.66354  0.68667  -0.00023  1
 I  I3  1  0.31333  0.97688  -0.00023  1
 I  I4  1  0.97688  0.66354  0.49977  1
 I  I5  1  0.68667  0.02312  0.49977  1
 I  I6  1  0.02312  0.33646  -0.00023  1
 P  P1  1  0.66667  0.33333  0.64669  1
 P  P2  1  0.33333  0.66667  0.14669  1
