CIF file written using JARVIS-Tools package.
data_CeHfMg6
_symmetry_space_group_name_H-M  'Amm2'
_cell_length_a       6.63019
_cell_length_b       6.6302
_cell_length_c       5.03425
_cell_angle_alpha    90
_cell_angle_beta     90
_cell_angle_gamma    121.258

_symmetry_Int_Tables_number  38
_chemical_formula_structural  CeHfMg6
_chemical_formula_sum  CeHfMg6
_cell_volume  189.17779752477628
_cell_formula_units_Z  1
loop_
  _symmetry_equiv_pos_site_id
 _symmetry_equiv_pos_as_xyz
 1  'x, y, z'
loop_
 _atom_site_type_symbol
 _atom_site_label
 _atom_site_symmetry_multiplicity
 _atom_site_fract_x
 _atom_site_fract_y
 _atom_site_fract_z
 _atom_site_fract_occupancy
 Ce  Ce1  1  0.18995  0.31005  0.25000  1
 Hf  Hf1  1  0.31411  0.18589  0.75000  1
 Mg  Mg1  1  0.18417  0.83205  0.25000  1
 Mg  Mg2  1  0.66795  0.31583  0.25000  1
 Mg  Mg3  1  0.66734  0.83266  0.25000  1
 Mg  Mg4  1  0.32784  0.67879  0.75000  1
 Mg  Mg5  1  0.82121  0.17216  0.75000  1
 Mg  Mg6  1  0.82744  0.67256  0.75000  1
