CIF file written using JARVIS-Tools package.
data_BeGe2P
_symmetry_space_group_name_H-M  'I4/mmm'
_cell_length_a       5.647
_cell_length_b       5.647
_cell_length_c       5.647
_cell_angle_alpha    142.362
_cell_angle_beta     142.362
_cell_angle_gamma    54.2839

_symmetry_Int_Tables_number  139
_chemical_formula_structural  BeGe2P
_chemical_formula_sum  BeGe2P
_cell_volume  66.69911287511442
_cell_formula_units_Z  1
loop_
  _symmetry_equiv_pos_site_id
 _symmetry_equiv_pos_as_xyz
 1  'x, y, z'
loop_
 _atom_site_type_symbol
 _atom_site_label
 _atom_site_symmetry_multiplicity
 _atom_site_fract_x
 _atom_site_fract_y
 _atom_site_fract_z
 _atom_site_fract_occupancy
 Be  Be1  1  0.75000  0.25000  0.50000  1
 Ge  Ge1  1  0.00000  0.00000  0.00000  1
 Ge  Ge2  1  0.50000  0.50000  0.00000  1
 P  P1  1  0.25000  0.75000  0.50000  1
