CIF file written using JARVIS-Tools package.
data_Mg6CoSn
_symmetry_space_group_name_H-M  'Amm2'
_cell_length_a       6.18751
_cell_length_b       6.28917
_cell_length_c       4.79267
_cell_angle_alpha    90
_cell_angle_beta     90
_cell_angle_gamma    120.545

_symmetry_Int_Tables_number  38
_chemical_formula_structural  Mg6CoSn
_chemical_formula_sum  Mg6CoSn
_cell_volume  160.62261386984156
_cell_formula_units_Z  1
loop_
  _symmetry_equiv_pos_site_id
 _symmetry_equiv_pos_as_xyz
 1  'x, y, z'
loop_
 _atom_site_type_symbol
 _atom_site_label
 _atom_site_symmetry_multiplicity
 _atom_site_fract_x
 _atom_site_fract_y
 _atom_site_fract_z
 _atom_site_fract_occupancy
 Co  Co1  1  0.15932  0.32966  0.25000  1
 Mg  Mg1  1  0.67349  0.33261  0.25000  1
 Mg  Mg2  1  0.67349  0.84089  0.25000  1
 Mg  Mg3  1  0.32496  0.18355  0.75000  1
 Mg  Mg4  1  0.32496  0.64141  0.75000  1
 Mg  Mg5  1  0.85049  0.17525  0.75000  1
 Mg  Mg6  1  0.82482  0.66241  0.75000  1
 Sn  Sn1  1  0.16847  0.83423  0.25000  1
