CIF file written using JARVIS-Tools package.
data_MoO2
_symmetry_space_group_name_H-M  'P6_3/mmc'
_cell_length_a       2.82995
_cell_length_b       2.82995
_cell_length_c       9.98525
_cell_angle_alpha    90
_cell_angle_beta     90
_cell_angle_gamma    120.001

_symmetry_Int_Tables_number  194
_chemical_formula_structural  MoO2
_chemical_formula_sum  Mo2O4
_cell_volume  69.25408903098361
_cell_formula_units_Z  2
loop_
  _symmetry_equiv_pos_site_id
 _symmetry_equiv_pos_as_xyz
 1  'x, y, z'
loop_
 _atom_site_type_symbol
 _atom_site_label
 _atom_site_symmetry_multiplicity
 _atom_site_fract_x
 _atom_site_fract_y
 _atom_site_fract_z
 _atom_site_fract_occupancy
 Mo  Mo1  1  0.66666  0.33334  0.75000  1
 Mo  Mo2  1  0.33334  0.66666  0.25000  1
 O  O1  1  0.66667  0.33333  0.12748  1
 O  O2  1  0.33333  0.66667  0.87252  1
 O  O3  1  0.33333  0.66667  0.62748  1
 O  O4  1  0.66667  0.33333  0.37252  1
