CIF file written using JARVIS-Tools package.
data_Bi3Pt3O11
_symmetry_space_group_name_H-M  'Pn-3'
_cell_length_a       9.48338
_cell_length_b       9.48338
_cell_length_c       9.48338
_cell_angle_alpha    90
_cell_angle_beta     90
_cell_angle_gamma    90

_symmetry_Int_Tables_number  201
_chemical_formula_structural  Bi3Pt3O11
_chemical_formula_sum  Bi2Pt2O44
_cell_volume  852.8840246704623
_cell_formula_units_Z  4
loop_
  _symmetry_equiv_pos_site_id
 _symmetry_equiv_pos_as_xyz
 1  'x, y, z'
loop_
 _atom_site_type_symbol
 _atom_site_label
 _atom_site_symmetry_multiplicity
 _atom_site_fract_x
 _atom_site_fract_y
 _atom_site_fract_z
 _atom_site_fract_occupancy
 Bi  Bi1  1  0.11668  0.38332  0.11668  1
 Bi  Bi2  1  0.38332  0.38332  0.38332  1
 Bi  Bi3  1  0.61668  0.88332  0.88332  1
 Bi  Bi4  1  0.88332  0.61668  0.88332  1
 Bi  Bi5  1  0.11668  0.11668  0.38332  1
 Bi  Bi6  1  0.00000  0.00000  0.00000  1
 Bi  Bi7  1  0.38332  0.11668  0.11668  1
 Bi  Bi8  1  0.88332  0.88332  0.61668  1
 Bi  Bi9  1  0.50000  0.50000  0.00000  1
 Bi  Bi10  1  0.00000  0.50000  0.50000  1
 Bi  Bi11  1  0.61668  0.61668  0.61668  1
 Bi  Bi12  1  0.50000  0.00000  0.50000  1
 O  O1  1  0.85311  0.85311  0.85311  1
 O  O2  1  0.08152  0.46139  0.74535  1
 O  O3  1  0.75000  0.10522  0.75000  1
 O  O4  1  0.14689  0.35311  0.35311  1
 O  O5  1  0.46139  0.75465  0.41848  1
 O  O6  1  0.25465  0.91848  0.53861  1
 O  O7  1  0.74535  0.08152  0.46139  1
 O  O8  1  0.24535  0.58152  0.53861  1
 O  O9  1  0.25465  0.58152  0.96139  1
 O  O10  1  0.58152  0.96139  0.25465  1
 O  O11  1  0.64689  0.64689  0.85311  1
 O  O12  1  0.25000  0.25000  0.89478  1
 O  O13  1  0.41848  0.46139  0.75465  1
 O  O14  1  0.08152  0.03861  0.75465  1
 O  O15  1  0.96139  0.25465  0.58152  1
 O  O16  1  0.75000  0.75000  0.39478  1
 O  O17  1  0.41848  0.03861  0.74535  1
 O  O18  1  0.89478  0.25000  0.25000  1
 O  O19  1  0.85311  0.64689  0.64689  1
 O  O20  1  0.75465  0.41848  0.46139  1
 O  O21  1  0.91848  0.96139  0.24535  1
 O  O22  1  0.53861  0.24535  0.58152  1
 O  O23  1  0.74535  0.41848  0.03861  1
 O  O24  1  0.64689  0.85311  0.64689  1
 O  O25  1  0.10522  0.75000  0.75000  1
 O  O26  1  0.14689  0.14689  0.14689  1
 O  O27  1  0.39478  0.75000  0.75000  1
 O  O28  1  0.35311  0.35311  0.14689  1
 O  O29  1  0.25000  0.25000  0.60522  1
 O  O30  1  0.24535  0.91848  0.96139  1
 O  O31  1  0.03861  0.74535  0.41848  1
 O  O32  1  0.58152  0.53861  0.24535  1
 O  O33  1  0.75465  0.08152  0.03861  1
 O  O34  1  0.03861  0.75465  0.08152  1
 O  O35  1  0.60522  0.25000  0.25000  1
 O  O36  1  0.53861  0.25465  0.91848  1
 O  O37  1  0.35311  0.14689  0.35311  1
 O  O38  1  0.75000  0.39478  0.75000  1
 O  O39  1  0.75000  0.75000  0.10522  1
 O  O40  1  0.91848  0.53861  0.25465  1
 O  O41  1  0.25000  0.60522  0.25000  1
 O  O42  1  0.96139  0.24535  0.91848  1
 O  O43  1  0.25000  0.89478  0.25000  1
 O  O44  1  0.46139  0.74535  0.08152  1
 Pt  Pt1  1  0.90799  0.75000  0.25000  1
 Pt  Pt2  1  0.75000  0.40799  0.25000  1
 Pt  Pt3  1  0.25000  0.75000  0.09201  1
 Pt  Pt4  1  0.75000  0.25000  0.59201  1
 Pt  Pt5  1  0.40799  0.25000  0.75000  1
 Pt  Pt6  1  0.25000  0.90799  0.75000  1
 Pt  Pt7  1  0.25000  0.75000  0.40799  1
 Pt  Pt8  1  0.25000  0.59201  0.75000  1
 Pt  Pt9  1  0.59201  0.75000  0.25000  1
 Pt  Pt10  1  0.75000  0.09201  0.25000  1
 Pt  Pt11  1  0.09201  0.25000  0.75000  1
 Pt  Pt12  1  0.75000  0.25000  0.90799  1
