CIF file written using JARVIS-Tools package.
data_CeAl3Cu
_symmetry_space_group_name_H-M  'I4mm'
_cell_length_a       4.24308
_cell_length_b       4.24308
_cell_length_c       6.07602
_cell_angle_alpha    110.436
_cell_angle_beta     110.436
_cell_angle_gamma    90

_symmetry_Int_Tables_number  107
_chemical_formula_structural  CeAl3Cu
_chemical_formula_sum  CeAl3Cu
_cell_volume  95.12436623618983
_cell_formula_units_Z  1
loop_
  _symmetry_equiv_pos_site_id
 _symmetry_equiv_pos_as_xyz
 1  'x, y, z'
loop_
 _atom_site_type_symbol
 _atom_site_label
 _atom_site_symmetry_multiplicity
 _atom_site_fract_x
 _atom_site_fract_y
 _atom_site_fract_z
 _atom_site_fract_occupancy
 Al  Al1  1  0.39305  0.39305  0.78610  1
 Al  Al2  1  0.73467  0.23467  0.46933  1
 Al  Al3  1  0.23467  0.73467  0.46933  1
 Ce  Ce1  1  0.98411  0.98411  0.96822  1
 Cu  Cu1  1  0.61780  0.61780  0.23560  1
