CIF file written using JARVIS-Tools package.
data_HfMg6Mo
_symmetry_space_group_name_H-M  'Amm2'
_cell_length_a       6.33941
_cell_length_b       6.33941
_cell_length_c       4.88193
_cell_angle_alpha    90
_cell_angle_beta     90
_cell_angle_gamma    122.647

_symmetry_Int_Tables_number  38
_chemical_formula_structural  HfMg6Mo
_chemical_formula_sum  HfMg6Mo
_cell_volume  165.1980255613046
_cell_formula_units_Z  1
loop_
  _symmetry_equiv_pos_site_id
 _symmetry_equiv_pos_as_xyz
 1  'x, y, z'
loop_
 _atom_site_type_symbol
 _atom_site_label
 _atom_site_symmetry_multiplicity
 _atom_site_fract_x
 _atom_site_fract_y
 _atom_site_fract_z
 _atom_site_fract_occupancy
 Hf  Hf1  1  0.30162  0.19838  0.75000  1
 Mg  Mg1  1  0.17987  0.82844  0.25000  1
 Mg  Mg2  1  0.67156  0.32013  0.25000  1
 Mg  Mg3  1  0.67442  0.82558  0.25000  1
 Mg  Mg4  1  0.31623  0.67207  0.75000  1
 Mg  Mg5  1  0.82793  0.18377  0.75000  1
 Mg  Mg6  1  0.83031  0.66969  0.75000  1
 Mo  Mo1  1  0.19806  0.30194  0.25000  1
