CIF file written using JARVIS-Tools package.
data_Ni2H
_symmetry_space_group_name_H-M  'R-3m'
_cell_length_a       4.42943
_cell_length_b       4.42944
_cell_length_c       4.42943
_cell_angle_alpha    33.4585
_cell_angle_beta     33.4584
_cell_angle_gamma    33.4584

_symmetry_Int_Tables_number  166
_chemical_formula_structural  Ni2H
_chemical_formula_sum  Ni2H
_cell_volume  23.525841659957322
_cell_formula_units_Z  1
loop_
  _symmetry_equiv_pos_site_id
 _symmetry_equiv_pos_as_xyz
 1  'x, y, z'
loop_
 _atom_site_type_symbol
 _atom_site_label
 _atom_site_symmetry_multiplicity
 _atom_site_fract_x
 _atom_site_fract_y
 _atom_site_fract_z
 _atom_site_fract_occupancy
 H  H1  1  0.50000  0.50000  0.50000  1
 Ni  Ni1  1  0.25299  0.25299  0.25299  1
 Ni  Ni2  1  0.74701  0.74701  0.74701  1
