CIF file written using JARVIS-Tools package.
data_Mn6O5F7
_symmetry_space_group_name_H-M  'C2'
_cell_length_a       4.68243
_cell_length_b       4.68243
_cell_length_c       9.32242
_cell_angle_alpha    89.9765
_cell_angle_beta     89.9765
_cell_angle_gamma    94.1304

_symmetry_Int_Tables_number  5
_chemical_formula_structural  Mn6O5F7
_chemical_formula_sum  Mn6O5F7
_cell_volume  203.86495733662056
_cell_formula_units_Z  1
loop_
  _symmetry_equiv_pos_site_id
 _symmetry_equiv_pos_as_xyz
 1  'x, y, z'
loop_
 _atom_site_type_symbol
 _atom_site_label
 _atom_site_symmetry_multiplicity
 _atom_site_fract_x
 _atom_site_fract_y
 _atom_site_fract_z
 _atom_site_fract_occupancy
 F  F1  1  0.83044  0.19825  0.82335  1
 F  F2  1  0.77599  0.22401  0.50000  1
 F  F3  1  0.71758  0.72217  0.67973  1
 F  F4  1  0.27783  0.28242  0.32027  1
 F  F5  1  0.21186  0.81065  0.83429  1
 F  F6  1  0.18935  0.78814  0.16571  1
 F  F7  1  0.80175  0.16956  0.17665  1
 Mn  Mn1  1  0.00480  0.99520  0.00000  1
 Mn  Mn2  1  0.47334  0.52666  0.50000  1
 Mn  Mn3  1  0.50851  0.49718  0.15803  1
 Mn  Mn4  1  0.50282  0.49149  0.84197  1
 Mn  Mn5  1  0.03952  0.02297  0.65898  1
 Mn  Mn6  1  0.97703  0.96048  0.34102  1
 O  O1  1  0.67193  0.68236  0.33132  1
 O  O2  1  0.31158  0.29461  0.00130  1
 O  O3  1  0.18262  0.81738  0.50000  1
 O  O4  1  0.70539  0.68842  0.99870  1
 O  O5  1  0.31764  0.32807  0.66868  1
