data_image0
_chemical_formula_structural       BaDy2NiO5
_chemical_formula_sum              "Ba1 Dy2 Ni1 O5"
_cell_length_a       6.61982
_cell_length_b       3.75447
_cell_length_c       5.75578
_cell_angle_alpha    90
_cell_angle_beta     115.769
_cell_angle_gamma    106.474

_space_group_name_H-M_alt    "P 1"
_space_group_IT_number       1

loop_
  _space_group_symop_operation_xyz
  'x, y, z'

loop_
  _atom_site_type_symbol
  _atom_site_label
  _atom_site_symmetry_multiplicity
  _atom_site_fract_x
  _atom_site_fract_y
  _atom_site_fract_z
  _atom_site_occupancy
  Ba  Ba1       1.0  0.00000  0.50000  0.50000  1.0000
  Dy  Dy1       1.0  0.40600  0.70300  0.20300  1.0000
  Dy  Dy2       1.0  0.59400  0.29700  0.79700  1.0000
  Ni  Ni1       1.0  0.00000  0.00000  0.00000  1.0000
  O   O1        1.0  0.00000  0.50000  0.00000  1.0000
  O   O2        1.0  0.70300  0.85100  0.09230  1.0000
  O   O3        1.0  0.29700  0.14900  0.39000  1.0000
  O   O4        1.0  0.70300  0.85100  0.61000  1.0000
  O   O5        1.0  0.29700  0.14900  0.90800  1.0000
