CIF file written using JARVIS-Tools package.
data_La2FeSe2O2
_symmetry_space_group_name_H-M  'C2/m'
_cell_length_a       3.98956
_cell_length_b       6.01499
_cell_length_c       6.73941
_cell_angle_alpha    68.5033
_cell_angle_beta     72.7832
_cell_angle_gamma    70.632

_symmetry_Int_Tables_number  12
_chemical_formula_structural  La2FeSe2O2
_chemical_formula_sum  La2FeSe2O2
_cell_volume  139.12881457582023
_cell_formula_units_Z  1
loop_
  _symmetry_equiv_pos_site_id
 _symmetry_equiv_pos_as_xyz
 1  'x, y, z'
loop_
 _atom_site_type_symbol
 _atom_site_label
 _atom_site_symmetry_multiplicity
 _atom_site_fract_x
 _atom_site_fract_y
 _atom_site_fract_z
 _atom_site_fract_occupancy
 Fe  Fe1  1  0.00000  0.00000  0.00000  1
 La  La1  1  0.80773  0.64279  0.74175  1
 La  La2  1  0.19227  0.35721  0.25825  1
 O  O1  1  0.19193  0.69538  0.92076  1
 O  O2  1  0.80807  0.30462  0.07924  1
 Se  Se1  1  0.55745  0.20217  0.68293  1
 Se  Se2  1  0.44255  0.79783  0.31707  1
