CIF file written using JARVIS-Tools package.
data_BaLiAlF6
_symmetry_space_group_name_H-M  'P2_1/c'
_cell_length_a       5.4033
_cell_length_b       8.50259
_cell_length_c       10.0745
_cell_angle_alpha    90
_cell_angle_beta     90
_cell_angle_gamma    90.6005

_symmetry_Int_Tables_number  14
_chemical_formula_structural  BaLiAlF6
_chemical_formula_sum  Ba4Li4Al4F24
_cell_volume  462.8190164808372
_cell_formula_units_Z  4
loop_
  _symmetry_equiv_pos_site_id
 _symmetry_equiv_pos_as_xyz
 1  'x, y, z'
loop_
 _atom_site_type_symbol
 _atom_site_label
 _atom_site_symmetry_multiplicity
 _atom_site_fract_x
 _atom_site_fract_y
 _atom_site_fract_z
 _atom_site_fract_occupancy
 Al  Al1  1  0.76535  0.22983  0.08428  1
 Al  Al2  1  0.23465  0.27017  0.58428  1
 Al  Al3  1  0.76535  0.72983  0.41572  1
 Al  Al4  1  0.23465  0.77017  0.91572  1
 Ba  Ba1  1  0.69843  0.50082  0.80790  1
 Ba  Ba2  1  0.30157  -0.00082  0.30790  1
 Ba  Ba3  1  0.69843  0.00082  0.69210  1
 Ba  Ba4  1  0.30157  0.49918  0.19210  1
 F  F1  1  0.32413  0.47354  0.59675  1
 F  F2  1  0.11315  0.79227  0.08651  1
 F  F3  1  0.88685  0.70773  0.58651  1
 F  F4  1  0.07283  0.19406  0.14672  1
 F  F5  1  0.88685  0.20773  0.91349  1
 F  F6  1  0.11315  0.29227  0.41349  1
 F  F7  1  0.16632  0.55764  0.91010  1
 F  F8  1  0.37827  0.24625  0.74953  1
 F  F9  1  0.83368  0.44236  0.08990  1
 F  F10  1  0.16632  0.05764  0.58990  1
 F  F11  1  0.92717  0.80594  0.85328  1
 F  F12  1  0.67587  0.02646  0.09675  1
 F  F13  1  0.32413  0.97354  0.90325  1
 F  F14  1  0.47420  0.29217  0.00717  1
 F  F15  1  0.52580  0.70783  0.99283  1
 F  F16  1  0.47420  0.79217  0.49283  1
 F  F17  1  0.07283  0.69406  0.35328  1
 F  F18  1  0.52580  0.20783  0.50717  1
 F  F19  1  0.62173  0.25375  0.24953  1
 F  F20  1  0.62173  0.75375  0.25047  1
 F  F21  1  0.37827  0.74625  0.75047  1
 F  F22  1  0.67587  0.52646  0.40325  1
 F  F23  1  0.92717  0.30594  0.64672  1
 F  F24  1  0.83368  0.94236  0.41010  1
 Li  Li1  1  0.23418  0.67980  0.58443  1
 Li  Li2  1  0.76582  0.82020  0.08443  1
 Li  Li3  1  0.76582  0.32020  0.41557  1
 Li  Li4  1  0.23418  0.17980  0.91557  1
