CIF file written using JARVIS-Tools package.
data_MgF2
_symmetry_space_group_name_H-M  'P4_2/mnm'
_cell_length_a       3.0685
_cell_length_b       4.64228
_cell_length_c       4.64679
_cell_angle_alpha    90
_cell_angle_beta     90
_cell_angle_gamma    90

_symmetry_Int_Tables_number  136
_chemical_formula_structural  MgF2
_chemical_formula_sum  Mg2F4
_cell_volume  66.19265178654466
_cell_formula_units_Z  2
loop_
  _symmetry_equiv_pos_site_id
 _symmetry_equiv_pos_as_xyz
 1  'x, y, z'
loop_
 _atom_site_type_symbol
 _atom_site_label
 _atom_site_symmetry_multiplicity
 _atom_site_fract_x
 _atom_site_fract_y
 _atom_site_fract_z
 _atom_site_fract_occupancy
 F  F1  1  0.50000  0.80263  0.19715  1
 F  F2  1  0.50000  0.19737  0.80285  1
 F  F3  1  0.00000  0.30263  0.30285  1
 F  F4  1  0.00000  0.69737  0.69715  1
 Mg  Mg1  1  0.50000  0.50000  0.50000  1
 Mg  Mg2  1  0.00000  0.00000  0.00000  1
