CIF file written using JARVIS-Tools package.
data_NaSi3BO8
_symmetry_space_group_name_H-M  'P-1'
_cell_length_a       7.23141
_cell_length_b       7.49631
_cell_length_c       6.86492
_cell_angle_alpha    79.4013
_cell_angle_beta     106.858
_cell_angle_gamma    64.2242

_symmetry_Int_Tables_number  2
_chemical_formula_structural  NaSi3BO8
_chemical_formula_sum  Na2Si6B2O6
_cell_volume  299.23990990401506
_cell_formula_units_Z  2
loop_
  _symmetry_equiv_pos_site_id
 _symmetry_equiv_pos_as_xyz
 1  'x, y, z'
loop_
 _atom_site_type_symbol
 _atom_site_label
 _atom_site_symmetry_multiplicity
 _atom_site_fract_x
 _atom_site_fract_y
 _atom_site_fract_z
 _atom_site_fract_occupancy
 B  B1  1  0.17085  0.14758  0.22171  1
 B  B2  1  0.82915  0.85242  0.77829  1
 Na  Na1  1  0.73723  0.24665  0.86841  1
 Na  Na2  1  0.26277  0.75335  0.13159  1
 O  O1  1  0.85774  0.87210  0.99558  1
 O  O2  1  0.14226  0.12790  0.00442  1
 O  O3  1  0.93650  0.32621  0.58277  1
 O  O4  1  0.56553  0.39433  0.27535  1
 O  O5  1  0.05985  0.75182  0.78707  1
 O  O6  1  0.94015  0.24818  0.21293  1
 O  O7  1  0.43447  0.60567  0.72465  1
 O  O8  1  0.64897  0.02115  0.23349  1
 O  O9  1  0.72554  0.72820  0.72785  1
 O  O10  1  0.27446  0.27180  0.27215  1
 O  O11  1  0.70688  0.65244  0.20311  1
 O  O12  1  0.35103  0.97885  0.76651  1
 O  O13  1  0.68769  0.07429  0.61745  1
 O  O14  1  0.31231  0.92571  0.38255  1
 O  O15  1  0.29312  0.34756  0.79689  1
 O  O16  1  0.06350  0.67379  0.41723  1
 Si  Si1  1  0.54296  0.18378  0.35387  1
 Si  Si2  1  0.45704  0.81622  0.64613  1
 Si  Si3  1  0.80003  0.40024  0.31966  1
 Si  Si4  1  0.19997  0.59976  0.68034  1
 Si  Si5  1  0.81572  0.80453  0.20882  1
 Si  Si6  1  0.18428  0.19547  0.79118  1
