CIF file written using JARVIS-Tools package.
data_SrLiMg6
_symmetry_space_group_name_H-M  'Amm2'
_cell_length_a       7.21947
_cell_length_b       6.3474
_cell_length_c       5.13261
_cell_angle_alpha    90
_cell_angle_beta     90
_cell_angle_gamma    116.079

_symmetry_Int_Tables_number  38
_chemical_formula_structural  SrLiMg6
_chemical_formula_sum  SrLiMg6
_cell_volume  211.25619705156672
_cell_formula_units_Z  1
loop_
  _symmetry_equiv_pos_site_id
 _symmetry_equiv_pos_as_xyz
 1  'x, y, z'
loop_
 _atom_site_type_symbol
 _atom_site_label
 _atom_site_symmetry_multiplicity
 _atom_site_fract_x
 _atom_site_fract_y
 _atom_site_fract_z
 _atom_site_fract_occupancy
 Li  Li1  1  0.23713  0.36857  0.25000  1
 Mg  Mg1  1  0.63283  0.30819  0.25000  1
 Mg  Mg2  1  0.63283  0.82464  0.25000  1
 Mg  Mg3  1  0.35736  0.17952  0.75000  1
 Mg  Mg4  1  0.35736  0.67784  0.75000  1
 Mg  Mg5  1  0.90332  0.20166  0.75000  1
 Mg  Mg6  1  0.77088  0.63544  0.75000  1
 Sr  Sr1  1  0.10827  0.80413  0.25000  1
