CIF file written using JARVIS-Tools package.
data_BaV2CdO7
_symmetry_space_group_name_H-M  'Pnma'
_cell_length_a       5.75514
_cell_length_b       7.45886
_cell_length_c       15.5154
_cell_angle_alpha    90
_cell_angle_beta     90
_cell_angle_gamma    90

_symmetry_Int_Tables_number  62
_chemical_formula_structural  BaV2CdO7
_chemical_formula_sum  Ba4V8Cd4O28
_cell_volume  666.0289963233779
_cell_formula_units_Z  4
loop_
  _symmetry_equiv_pos_site_id
 _symmetry_equiv_pos_as_xyz
 1  'x, y, z'
loop_
 _atom_site_type_symbol
 _atom_site_label
 _atom_site_symmetry_multiplicity
 _atom_site_fract_x
 _atom_site_fract_y
 _atom_site_fract_z
 _atom_site_fract_occupancy
 Ba  Ba1  1  0.25000  0.14271  0.28787  1
 Ba  Ba2  1  0.25000  0.35729  0.78787  1
 Ba  Ba3  1  0.75000  0.85729  0.71213  1
 Ba  Ba4  1  0.75000  0.64271  0.21213  1
 Cd  Cd1  1  0.25000  0.38041  0.05113  1
 Cd  Cd2  1  0.75000  0.61959  0.94887  1
 Cd  Cd3  1  0.75000  0.88041  0.44887  1
 Cd  Cd4  1  0.25000  0.11959  0.55113  1
 O  O1  1  0.75000  0.44284  0.53596  1
 O  O2  1  0.99042  0.33709  0.94220  1
 O  O3  1  0.49042  0.66291  0.05780  1
 O  O4  1  0.00958  0.83709  0.55780  1
 O  O5  1  0.50958  0.16291  0.44220  1
 O  O6  1  0.00958  0.66291  0.05780  1
 O  O7  1  0.51100  0.19835  0.65133  1
 O  O8  1  0.25000  0.55716  0.46404  1
 O  O9  1  0.50958  0.33709  0.94220  1
 O  O10  1  0.98900  0.19835  0.65133  1
 O  O11  1  0.48900  0.80165  0.34867  1
 O  O12  1  0.25000  0.57904  0.65144  1
 O  O13  1  0.49042  0.83709  0.55780  1
 O  O14  1  0.25000  0.94284  0.96404  1
 O  O15  1  0.75000  0.05716  0.03596  1
 O  O16  1  0.51100  0.30165  0.15133  1
 O  O17  1  0.75000  0.42096  0.34856  1
 O  O18  1  0.98900  0.30165  0.15133  1
 O  O19  1  0.01100  0.69835  0.84867  1
 O  O20  1  0.75000  0.07904  0.84856  1
 O  O21  1  0.48900  0.69835  0.84867  1
 O  O22  1  0.25000  0.97949  0.77502  1
 O  O23  1  0.75000  0.02051  0.22498  1
 O  O24  1  0.01100  0.80165  0.34867  1
 O  O25  1  0.25000  0.52051  0.27502  1
 O  O26  1  0.99042  0.16291  0.44220  1
 O  O27  1  0.25000  0.92096  0.15144  1
 O  O28  1  0.75000  0.47949  0.72498  1
 V  V1  1  0.25000  0.66447  0.35826  1
 V  V2  1  0.25000  0.83553  0.85826  1
 V  V3  1  0.75000  0.16447  0.14174  1
 V  V4  1  0.25000  0.69552  0.55978  1
 V  V5  1  0.75000  0.19552  0.94022  1
 V  V6  1  0.25000  0.80448  0.05978  1
 V  V7  1  0.75000  0.30448  0.44022  1
 V  V8  1  0.75000  0.33553  0.64174  1
