CIF file written using JARVIS-Tools package.
data_Li2CoBO4
_symmetry_space_group_name_H-M  'C222_1'
_cell_length_a       4.99762
_cell_length_b       4.99762
_cell_length_c       5.99738
_cell_angle_alpha    90
_cell_angle_beta     90
_cell_angle_gamma    88.1302

_symmetry_Int_Tables_number  20
_chemical_formula_structural  Li2CoBO4
_chemical_formula_sum  Li4Co2B2O8
_cell_volume  149.7122503201967
_cell_formula_units_Z  2
loop_
  _symmetry_equiv_pos_site_id
 _symmetry_equiv_pos_as_xyz
 1  'x, y, z'
loop_
 _atom_site_type_symbol
 _atom_site_label
 _atom_site_symmetry_multiplicity
 _atom_site_fract_x
 _atom_site_fract_y
 _atom_site_fract_z
 _atom_site_fract_occupancy
 B  B1  1  0.31729  0.68271  0.00000  1
 B  B2  1  0.68271  0.31729  0.50000  1
 Co  Co1  1  0.18159  0.18159  0.25000  1
 Co  Co2  1  0.81841  0.81841  0.75000  1
 Li  Li1  1  0.32583  0.67417  0.50000  1
 Li  Li2  1  0.19127  0.19127  0.75000  1
 Li  Li3  1  0.80873  0.80873  0.25000  1
 Li  Li4  1  0.67417  0.32583  0.00000  1
 O  O1  1  0.20454  0.80652  0.20620  1
 O  O2  1  0.19348  0.79546  0.79380  1
 O  O3  1  0.28016  0.38723  0.00669  1
 O  O4  1  0.61277  0.71984  0.99331  1
 O  O5  1  0.38723  0.28016  0.49331  1
 O  O6  1  0.71984  0.61277  0.50669  1
 O  O7  1  0.79546  0.19348  0.70620  1
 O  O8  1  0.80652  0.20454  0.29380  1
