CIF file written using JARVIS-Tools package.
data_K2MgCuF6
_symmetry_space_group_name_H-M  'P4/mmm'
_cell_length_a       4.03006
_cell_length_b       4.03006
_cell_length_c       8.06103
_cell_angle_alpha    90
_cell_angle_beta     90
_cell_angle_gamma    90

_symmetry_Int_Tables_number  123
_chemical_formula_structural  K2MgCuF6
_chemical_formula_sum  K2MgCuF6
_cell_volume  130.92219712207108
_cell_formula_units_Z  1
loop_
  _symmetry_equiv_pos_site_id
 _symmetry_equiv_pos_as_xyz
 1  'x, y, z'
loop_
 _atom_site_type_symbol
 _atom_site_label
 _atom_site_symmetry_multiplicity
 _atom_site_fract_x
 _atom_site_fract_y
 _atom_site_fract_z
 _atom_site_fract_occupancy
 Cu  Cu1  1  0.00000  0.00000  0.00000  1
 F  F1  1  0.00000  0.00000  0.25210  1
 F  F2  1  0.00000  0.00000  0.74790  1
 F  F3  1  0.00000  0.50000  0.00000  1
 F  F4  1  0.00000  0.50000  0.50000  1
 F  F5  1  0.50000  0.00000  0.00000  1
 F  F6  1  0.50000  0.00000  0.50000  1
 K  K1  1  0.50000  0.50000  0.24730  1
 K  K2  1  0.50000  0.50000  0.75270  1
 Mg  Mg1  1  0.00000  0.00000  0.50000  1
