CIF file written using JARVIS-Tools package.
data_CdHgC4S4N4
_symmetry_space_group_name_H-M  'I-4'
_cell_length_a       4.05295
_cell_length_b       8.43731
_cell_length_c       8.43829
_cell_angle_alpha    86.6905
_cell_angle_beta     76.0898
_cell_angle_gamma    76.0975

_symmetry_Int_Tables_number  82
_chemical_formula_structural  CdHgC4S4N4
_chemical_formula_sum  CdHgC4S4N4
_cell_volume  271.8879253015126
_cell_formula_units_Z  1
loop_
  _symmetry_equiv_pos_site_id
 _symmetry_equiv_pos_as_xyz
 1  'x, y, z'
loop_
 _atom_site_type_symbol
 _atom_site_label
 _atom_site_symmetry_multiplicity
 _atom_site_fract_x
 _atom_site_fract_y
 _atom_site_fract_z
 _atom_site_fract_occupancy
 C  C1  1  0.11727  0.64747  0.82895  1
 C  C2  1  0.23550  0.17105  0.64747  1
 C  C3  1  0.59347  0.35253  0.17105  1
 C  C4  1  0.05376  0.82897  0.35251  1
 Cd  Cd1  1  0.75007  0.49996  0.49994  1
 Hg  Hg1  1  -0.00004  0.00001  0.00001  1
 N  N1  1  0.97518  0.70709  0.40301  1
 N  N2  1  0.31788  0.59689  0.70713  1
 N  N3  1  0.08529  0.29280  0.59687  1
 N  N4  1  0.62184  0.40303  0.29286  1
 S  S1  1  0.16569  0.99840  0.28464  1
 S  S2  1  0.44929  0.00179  0.71549  1
 S  S3  1  0.83569  0.71542  0.99832  1
 S  S4  1  0.54913  0.28460  0.00174  1
