CIF file written using JARVIS-Tools package.
data_YbNaS2
_symmetry_space_group_name_H-M  'R-3m'
_cell_length_a       6.85008
_cell_length_b       6.85009
_cell_length_c       6.85009
_cell_angle_alpha    34.2135
_cell_angle_beta     34.2134
_cell_angle_gamma    34.2134

_symmetry_Int_Tables_number  166
_chemical_formula_structural  YbNaS2
_chemical_formula_sum  YbNaS2
_cell_volume  90.6160373766733
_cell_formula_units_Z  1
loop_
  _symmetry_equiv_pos_site_id
 _symmetry_equiv_pos_as_xyz
 1  'x, y, z'
loop_
 _atom_site_type_symbol
 _atom_site_label
 _atom_site_symmetry_multiplicity
 _atom_site_fract_x
 _atom_site_fract_y
 _atom_site_fract_z
 _atom_site_fract_occupancy
 Na  Na1  1  0.50000  0.50000  0.50000  1
 S  S1  1  0.25510  0.25510  0.25510  1
 S  S2  1  0.74490  0.74490  0.74490  1
 Yb  Yb1  1  0.00000  0.00000  0.00000  1
