CIF file written using JARVIS-Tools package.
data_Li2NiO2
_symmetry_space_group_name_H-M  'R-3m'
_cell_length_a       3.05352
_cell_length_b       3.05348
_cell_length_c       6.32182
_cell_angle_alpha    76.0299
_cell_angle_beta     90.0005
_cell_angle_gamma    59.9994

_symmetry_Int_Tables_number  166
_chemical_formula_structural  Li2NiO2
_chemical_formula_sum  Li2NiO2
_cell_volume  49.02275655469987
_cell_formula_units_Z  1
loop_
  _symmetry_equiv_pos_site_id
 _symmetry_equiv_pos_as_xyz
 1  'x, y, z'
loop_
 _atom_site_type_symbol
 _atom_site_label
 _atom_site_symmetry_multiplicity
 _atom_site_fract_x
 _atom_site_fract_y
 _atom_site_fract_z
 _atom_site_fract_occupancy
 Li  Li1  1  0.76569  0.46863  0.29712  1
 Li  Li2  1  0.23431  0.53137  0.70288  1
 Ni  Ni1  1  0.00000  0.00000  0.00000  1
 O  O1  1  0.60088  0.79823  0.80258  1
 O  O2  1  0.39912  0.20177  0.19742  1
