CIF file written using JARVIS-Tools package.
data_Mg6NbNi
_symmetry_space_group_name_H-M  'Amm2'
_cell_length_a       6.24655
_cell_length_b       6.24655
_cell_length_c       4.75737
_cell_angle_alpha    90
_cell_angle_beta     90
_cell_angle_gamma    123.48

_symmetry_Int_Tables_number  38
_chemical_formula_structural  Mg6NbNi
_chemical_formula_sum  Mg6NbNi
_cell_volume  154.8300280616336
_cell_formula_units_Z  1
loop_
  _symmetry_equiv_pos_site_id
 _symmetry_equiv_pos_as_xyz
 1  'x, y, z'
loop_
 _atom_site_type_symbol
 _atom_site_label
 _atom_site_symmetry_multiplicity
 _atom_site_fract_x
 _atom_site_fract_y
 _atom_site_fract_z
 _atom_site_fract_occupancy
 Mg  Mg1  1  0.17837  0.84290  0.25000  1
 Mg  Mg2  1  0.65710  0.32163  0.25000  1
 Mg  Mg3  1  0.67598  0.82402  0.25000  1
 Mg  Mg4  1  0.32029  0.66907  0.75000  1
 Mg  Mg5  1  0.83093  0.17971  0.75000  1
 Mg  Mg6  1  0.83130  0.66870  0.75000  1
 Nb  Nb1  1  0.30816  0.19184  0.75000  1
 Ni  Ni1  1  0.19787  0.30213  0.25000  1
