CIF file written using JARVIS-Tools package.
data_NaMg6Cd
_symmetry_space_group_name_H-M  'Amm2'
_cell_length_a       6.46145
_cell_length_b       6.46145
_cell_length_c       5.15294
_cell_angle_alpha    90
_cell_angle_beta     90
_cell_angle_gamma    119.966

_symmetry_Int_Tables_number  38
_chemical_formula_structural  NaMg6Cd
_chemical_formula_sum  NaMg6Cd
_cell_volume  186.37865518766478
_cell_formula_units_Z  1
loop_
  _symmetry_equiv_pos_site_id
 _symmetry_equiv_pos_as_xyz
 1  'x, y, z'
loop_
 _atom_site_type_symbol
 _atom_site_label
 _atom_site_symmetry_multiplicity
 _atom_site_fract_x
 _atom_site_fract_y
 _atom_site_fract_z
 _atom_site_fract_occupancy
 Cd  Cd1  1  0.33566  0.16434  0.75000  1
 Mg  Mg1  1  0.16860  0.83480  0.25000  1
 Mg  Mg2  1  0.66520  0.33140  0.25000  1
 Mg  Mg3  1  0.66472  0.83528  0.25000  1
 Mg  Mg4  1  0.33606  0.67172  0.75000  1
 Mg  Mg5  1  0.82828  0.16394  0.75000  1
 Mg  Mg6  1  0.83184  0.66816  0.75000  1
 Na  Na1  1  0.16964  0.33036  0.25000  1
