CIF file written using JARVIS-Tools package.
data_TaSe2
_symmetry_space_group_name_H-M  'C2'
_cell_length_a       3.4826
_cell_length_b       3.46823
_cell_length_c       6.82254
_cell_angle_alpha    82.5052
_cell_angle_beta     74.9422
_cell_angle_gamma    59.8629

_symmetry_Int_Tables_number  5
_chemical_formula_structural  TaSe2
_chemical_formula_sum  TaSe2
_cell_volume  68.81974798113683
_cell_formula_units_Z  1
loop_
  _symmetry_equiv_pos_site_id
 _symmetry_equiv_pos_as_xyz
 1  'x, y, z'
loop_
 _atom_site_type_symbol
 _atom_site_label
 _atom_site_symmetry_multiplicity
 _atom_site_fract_x
 _atom_site_fract_y
 _atom_site_fract_z
 _atom_site_fract_occupancy
 Se  Se1  1  0.87739  0.50394  0.74530  1
 Se  Se2  1  0.61867  0.50394  0.25470  1
 Ta  Ta1  1  0.08194  0.83612  -0.00000  1
