CIF file written using JARVIS-Tools package.
data_BiI3O9
_symmetry_space_group_name_H-M  'P2_1/c'
_cell_length_a       5.90585
_cell_length_b       8.88504
_cell_length_c       15.2474
_cell_angle_alpha    97.1455
_cell_angle_beta     90
_cell_angle_gamma    90

_symmetry_Int_Tables_number  14
_chemical_formula_structural  BiI3O9
_chemical_formula_sum  Bi4I2O36
_cell_volume  793.8730383676045
_cell_formula_units_Z  4
loop_
  _symmetry_equiv_pos_site_id
 _symmetry_equiv_pos_as_xyz
 1  'x, y, z'
loop_
 _atom_site_type_symbol
 _atom_site_label
 _atom_site_symmetry_multiplicity
 _atom_site_fract_x
 _atom_site_fract_y
 _atom_site_fract_z
 _atom_site_fract_occupancy
 Bi  Bi1  1  0.72957  0.95796  0.60150  1
 Bi  Bi2  1  0.77043  0.45796  0.10150  1
 Bi  Bi3  1  0.22957  0.54204  0.89850  1
 Bi  Bi4  1  0.27043  0.04204  0.39850  1
 I  I1  1  0.40168  0.88393  0.79869  1
 I  I2  1  0.85516  0.83681  0.97718  1
 I  I3  1  0.31313  0.72281  0.15044  1
 I  I4  1  0.18687  0.22281  0.65044  1
 I  I5  1  0.35516  0.66319  0.52282  1
 I  I6  1  0.68687  0.27719  0.84956  1
 I  I7  1  0.64484  0.33681  0.47718  1
 I  I8  1  0.14484  0.16319  0.02282  1
 I  I9  1  0.90168  0.61607  0.70131  1
 I  I10  1  0.09832  0.38393  0.29869  1
 I  I11  1  0.81313  0.77719  0.34956  1
 I  I12  1  0.59832  0.11607  0.20131  1
 O  O1  1  0.47230  0.28361  0.37641  1
 O  O2  1  0.49593  0.26315  0.13353  1
 O  O3  1  -0.00407  0.23685  0.36647  1
 O  O4  1  0.50407  0.73685  0.86647  1
 O  O5  1  0.61403  0.93125  0.32852  1
 O  O6  1  0.00407  0.76315  0.63353  1
 O  O7  1  0.02770  0.78361  0.87641  1
 O  O8  1  0.94356  0.14653  0.70744  1
 O  O9  1  0.91925  0.86013  0.45853  1
 O  O10  1  0.41925  0.63987  0.04147  1
 O  O11  1  0.08075  0.13987  0.54147  1
 O  O12  1  0.58075  0.36013  0.95853  1
 O  O13  1  0.05644  0.85347  0.29256  1
 O  O14  1  0.55644  0.64653  0.20744  1
 O  O15  1  0.90498  0.44946  0.61673  1
 O  O16  1  0.52770  0.71639  0.62359  1
 O  O17  1  0.40498  0.05054  0.88327  1
 O  O18  1  0.88597  0.43125  0.82852  1
 O  O19  1  0.59502  0.94946  0.11673  1
 O  O20  1  0.38597  0.06875  0.67148  1
 O  O21  1  0.90896  0.08775  0.94721  1
 O  O22  1  0.40896  0.41225  0.55279  1
 O  O23  1  0.09104  0.91225  0.05279  1
 O  O24  1  0.59104  0.58775  0.44721  1
 O  O25  1  0.09304  0.35758  0.99229  1
 O  O26  1  0.59304  0.14242  0.50771  1
 O  O27  1  0.90696  0.64242  0.00771  1
 O  O28  1  0.40696  0.85758  0.49229  1
 O  O29  1  0.97230  0.21639  0.12359  1
 O  O30  1  0.31120  0.08578  0.24342  1
 O  O31  1  0.44356  0.35347  0.79256  1
 O  O32  1  0.81120  0.41422  0.25658  1
 O  O33  1  0.68880  0.91422  0.75658  1
 O  O34  1  0.18880  0.58578  0.74342  1
 O  O35  1  0.09502  0.55054  0.38327  1
 O  O36  1  0.11403  0.56875  0.17148  1
