CIF file written using JARVIS-Tools package.
data_HfMg6Zr
_symmetry_space_group_name_H-M  'Amm2'
_cell_length_a       6.4763
_cell_length_b       6.47631
_cell_length_c       5.02982
_cell_angle_alpha    90
_cell_angle_beta     90
_cell_angle_gamma    121.978

_symmetry_Int_Tables_number  38
_chemical_formula_structural  HfMg6Zr
_chemical_formula_sum  HfMg6Zr
_cell_volume  178.95067709980557
_cell_formula_units_Z  1
loop_
  _symmetry_equiv_pos_site_id
 _symmetry_equiv_pos_as_xyz
 1  'x, y, z'
loop_
 _atom_site_type_symbol
 _atom_site_label
 _atom_site_symmetry_multiplicity
 _atom_site_fract_x
 _atom_site_fract_y
 _atom_site_fract_z
 _atom_site_fract_occupancy
 Hf  Hf1  1  0.31026  0.18974  0.75000  1
 Mg  Mg1  1  0.18151  0.83105  0.25000  1
 Mg  Mg2  1  0.66895  0.31849  0.25000  1
 Mg  Mg3  1  0.67157  0.82843  0.25000  1
 Mg  Mg4  1  0.31863  0.66921  0.75000  1
 Mg  Mg5  1  0.83079  0.18137  0.75000  1
 Mg  Mg6  1  0.82841  0.67159  0.75000  1
 Zr  Zr1  1  0.18988  0.31012  0.25000  1
