CIF file written using JARVIS-Tools package.
data_ScAgO3
_symmetry_space_group_name_H-M  'Cmmm'
_cell_length_a       3.19145
_cell_length_b       6.44076
_cell_length_c       6.44083
_cell_angle_alpha    76.1967
_cell_angle_beta     89.9996
_cell_angle_gamma    89.9948

_symmetry_Int_Tables_number  65
_chemical_formula_structural  ScAgO3
_chemical_formula_sum  Sc2Ag2O6
_cell_volume  128.57010546552925
_cell_formula_units_Z  2
loop_
  _symmetry_equiv_pos_site_id
 _symmetry_equiv_pos_as_xyz
 1  'x, y, z'
loop_
 _atom_site_type_symbol
 _atom_site_label
 _atom_site_symmetry_multiplicity
 _atom_site_fract_x
 _atom_site_fract_y
 _atom_site_fract_z
 _atom_site_fract_occupancy
 Ag  Ag1  1  0.50000  0.50070  0.50029  1
 Ag  Ag2  1  0.50000  0.00065  0.00033  1
 O  O1  1  0.49996  0.18936  0.53740  1
 O  O2  1  0.50001  0.46359  0.81163  1
 O  O3  1  0.00001  0.86530  0.86495  1
 O  O4  1  -0.00001  0.13604  0.13569  1
 O  O5  1  0.50005  0.81205  0.46318  1
 O  O6  1  0.49999  0.53781  0.18894  1
 Sc  Sc1  1  0.00000  0.00069  0.50033  1
 Sc  Sc2  1  -0.00000  0.50065  0.00030  1
