CIF file written using JARVIS-Tools package.
data_RbPPbS4
_symmetry_space_group_name_H-M  'P2_12_12_1'
_cell_length_a       6.51204
_cell_length_b       6.74947
_cell_length_c       17.1772
_cell_angle_alpha    90
_cell_angle_beta     90
_cell_angle_gamma    90

_symmetry_Int_Tables_number  19
_chemical_formula_structural  RbPPbS4
_chemical_formula_sum  Rb4P4Pb4S6
_cell_volume  754.986606233258
_cell_formula_units_Z  4
loop_
  _symmetry_equiv_pos_site_id
 _symmetry_equiv_pos_as_xyz
 1  'x, y, z'
loop_
 _atom_site_type_symbol
 _atom_site_label
 _atom_site_symmetry_multiplicity
 _atom_site_fract_x
 _atom_site_fract_y
 _atom_site_fract_z
 _atom_site_fract_occupancy
 P  P1  1  0.22104  0.01128  0.34748  1
 P  P2  1  0.27896  0.98872  0.84748  1
 P  P3  1  0.72104  0.48872  0.65252  1
 P  P4  1  0.77896  0.51128  0.15252  1
 Pb  Pb1  1  0.71368  0.97587  0.27103  1
 Pb  Pb2  1  0.28632  0.47587  0.22897  1
 Pb  Pb3  1  0.78632  0.02413  0.77103  1
 Pb  Pb4  1  0.21368  0.52413  0.72897  1
 Rb  Rb1  1  0.00665  0.00497  0.04211  1
 Rb  Rb2  1  0.99335  0.50497  0.45789  1
 Rb  Rb3  1  0.50665  0.49503  0.95789  1
 Rb  Rb4  1  0.49335  0.99503  0.54211  1
 S  S1  1  0.96180  0.00738  0.41515  1
 S  S2  1  0.34974  0.96693  0.72969  1
 S  S3  1  0.53820  0.99262  0.91515  1
 S  S4  1  0.40528  0.24927  0.37388  1
 S  S5  1  0.90528  0.25073  0.62612  1
 S  S6  1  0.88991  0.74177  0.63272  1
 S  S7  1  0.15026  0.03307  0.22969  1
 S  S8  1  0.38991  0.75823  0.36728  1
 S  S9  1  0.65026  0.46693  0.77031  1
 S  S10  1  0.09472  0.75073  0.87388  1
 S  S11  1  0.59472  0.74927  0.12612  1
 S  S12  1  0.84974  0.53307  0.27031  1
 S  S13  1  0.03820  0.50738  0.08485  1
 S  S14  1  0.46180  0.49262  0.58485  1
 S  S15  1  0.11009  0.24177  0.86728  1
 S  S16  1  0.61009  0.25823  0.13272  1
