CIF file written using JARVIS-Tools package.
data_Y2MnNiO6
_symmetry_space_group_name_H-M  'P2_1/c'
_cell_length_a       5.22432
_cell_length_b       5.5816
_cell_length_c       7.49271
_cell_angle_alpha    90
_cell_angle_beta     89.4237
_cell_angle_gamma    90

_symmetry_Int_Tables_number  14
_chemical_formula_structural  Y2MnNiO6
_chemical_formula_sum  Y4Mn2Ni2O2
_cell_volume  218.4766269469052
_cell_formula_units_Z  2
loop_
  _symmetry_equiv_pos_site_id
 _symmetry_equiv_pos_as_xyz
 1  'x, y, z'
loop_
 _atom_site_type_symbol
 _atom_site_label
 _atom_site_symmetry_multiplicity
 _atom_site_fract_x
 _atom_site_fract_y
 _atom_site_fract_z
 _atom_site_fract_occupancy
 Mn  Mn1  1  0.00000  0.50000  0.50000  1
 Mn  Mn2  1  0.50000  0.00000  -0.00000  1
 Ni  Ni1  1  0.00000  0.50000  0.00000  1
 Ni  Ni2  1  0.50000  0.00000  0.50000  1
 O  O1  1  0.89427  0.53334  0.74403  1
 O  O2  1  0.30101  0.68794  0.55108  1
 O  O3  1  0.80101  0.81206  0.05108  1
 O  O4  1  0.69899  0.31206  0.44892  1
 O  O5  1  0.18245  0.20634  0.55509  1
 O  O6  1  0.31755  0.70634  0.94491  1
 O  O7  1  0.81755  0.79366  0.44491  1
 O  O8  1  0.39427  0.96666  0.24403  1
 O  O9  1  0.19899  0.18794  0.94892  1
 O  O10  1  0.10573  0.46666  0.25597  1
 O  O11  1  0.60573  0.03334  0.75597  1
 O  O12  1  0.68245  0.29366  0.05509  1
 Y  Y1  1  0.51982  0.57427  0.25083  1
 Y  Y2  1  0.48018  0.42573  0.74917  1
 Y  Y3  1  0.01982  0.92573  0.75083  1
 Y  Y4  1  0.98018  0.07427  0.24917  1
