CIF file written using JARVIS-Tools package.
data_Ca3Nb4O12F2
_symmetry_space_group_name_H-M  'P4_332'
_cell_length_a       10.5628
_cell_length_b       10.5628
_cell_length_c       10.5628
_cell_angle_alpha    90
_cell_angle_beta     90
_cell_angle_gamma    90

_symmetry_Int_Tables_number  212
_chemical_formula_structural  Ca3Nb4O12F2
_chemical_formula_sum  Ca2Nb6O48F8
_cell_volume  1178.5218430172217
_cell_formula_units_Z  4
loop_
  _symmetry_equiv_pos_site_id
 _symmetry_equiv_pos_as_xyz
 1  'x, y, z'
loop_
 _atom_site_type_symbol
 _atom_site_label
 _atom_site_symmetry_multiplicity
 _atom_site_fract_x
 _atom_site_fract_y
 _atom_site_fract_z
 _atom_site_fract_occupancy
 Ca  Ca1  1  0.87500  0.86465  0.61465  1
 Ca  Ca2  1  0.12500  0.36465  0.88535  1
 Ca  Ca3  1  0.88535  0.12500  0.36465  1
 Ca  Ca4  1  0.86465  0.61465  0.87500  1
 Ca  Ca5  1  0.37500  0.63535  0.38535  1
 Ca  Ca6  1  0.61465  0.87500  0.86465  1
 Ca  Ca7  1  0.63535  0.38535  0.37500  1
 Ca  Ca8  1  0.62500  0.13535  0.11465  1
 Ca  Ca9  1  0.11465  0.62500  0.13535  1
 Ca  Ca10  1  0.13535  0.11465  0.62500  1
 Ca  Ca11  1  0.38535  0.37500  0.63535  1
 Ca  Ca12  1  0.36465  0.88535  0.12500  1
 F  F1  1  0.23924  0.26076  0.73924  1
 F  F2  1  0.73924  0.23924  0.26076  1
 F  F3  1  0.26076  0.73924  0.23924  1
 F  F4  1  0.48924  0.48924  0.48924  1
 F  F5  1  0.01076  0.51076  0.98924  1
 F  F6  1  0.51076  0.98924  0.01076  1
 F  F7  1  0.98924  0.01076  0.51076  1
 F  F8  1  0.76076  0.76076  0.76076  1
 Nb  Nb1  1  0.37500  0.87500  0.62500  1
 Nb  Nb2  1  0.12359  0.87359  0.87500  1
 Nb  Nb3  1  0.87641  0.37359  0.62500  1
 Nb  Nb4  1  0.62500  0.37500  0.87500  1
 Nb  Nb5  1  0.62359  0.62641  0.12500  1
 Nb  Nb6  1  0.62500  0.87641  0.37359  1
 Nb  Nb7  1  0.12500  0.12500  0.12500  1
 Nb  Nb8  1  0.12500  0.62359  0.62641  1
 Nb  Nb9  1  0.37641  0.12641  0.37500  1
 Nb  Nb10  1  0.87500  0.12359  0.87359  1
 Nb  Nb11  1  0.87359  0.87500  0.12359  1
 Nb  Nb12  1  0.37359  0.62500  0.87641  1
 Nb  Nb13  1  0.87500  0.62500  0.37500  1
 Nb  Nb14  1  0.62641  0.12500  0.62359  1
 Nb  Nb15  1  0.37500  0.37641  0.12641  1
 Nb  Nb16  1  0.12641  0.37500  0.37641  1
 O  O1  1  0.49456  0.69875  0.00225  1
 O  O2  1  0.06180  0.24167  0.26046  1
 O  O3  1  0.98954  0.00833  0.18820  1
 O  O4  1  0.05125  0.74456  0.75225  1
 O  O5  1  0.50544  0.19875  0.49775  1
 O  O6  1  0.99167  0.68820  0.51046  1
 O  O7  1  0.74167  0.23954  0.93820  1
 O  O8  1  0.73954  0.56180  0.25833  1
 O  O9  1  0.80125  0.99775  0.99456  1
 O  O10  1  0.93820  0.74167  0.23954  1
 O  O11  1  0.00544  0.30125  0.50225  1
 O  O12  1  0.30125  0.50225  0.00544  1
 O  O13  1  0.75833  0.76046  0.43820  1
 O  O14  1  0.25544  0.25225  0.44875  1
 O  O15  1  0.25225  0.44875  0.25544  1
 O  O16  1  0.49775  0.50544  0.19875  1
 O  O17  1  0.99456  0.80125  0.99775  1
 O  O18  1  0.24167  0.26046  0.06180  1
 O  O19  1  0.50225  0.00544  0.30125  1
 O  O20  1  0.49167  0.81180  0.48954  1
 O  O21  1  0.43820  0.75833  0.76046  1
 O  O22  1  0.00225  0.49456  0.69875  1
 O  O23  1  0.48954  0.49167  0.81180  1
 O  O24  1  0.25833  0.73954  0.56180  1
 O  O25  1  0.56180  0.25833  0.73954  1
 O  O26  1  0.18820  0.98954  0.00833  1
 O  O27  1  0.24456  0.74775  0.94875  1
 O  O28  1  0.74456  0.75225  0.05125  1
 O  O29  1  0.75225  0.05125  0.74456  1
 O  O30  1  0.23954  0.93820  0.74167  1
 O  O31  1  0.99775  0.99456  0.80125  1
 O  O32  1  0.19875  0.49775  0.50544  1
 O  O33  1  0.44875  0.25544  0.25225  1
 O  O34  1  0.31180  0.01046  0.50833  1
 O  O35  1  0.55125  0.75544  0.24775  1
 O  O36  1  0.94875  0.24456  0.74775  1
 O  O37  1  0.26046  0.06180  0.24167  1
 O  O38  1  0.74775  0.94875  0.24456  1
 O  O39  1  0.51046  0.99167  0.68820  1
 O  O40  1  0.50833  0.31180  0.01046  1
 O  O41  1  0.81180  0.48954  0.49167  1
 O  O42  1  0.00833  0.18820  0.98954  1
 O  O43  1  0.69875  0.00225  0.49456  1
 O  O44  1  0.76046  0.43820  0.75833  1
 O  O45  1  0.68820  0.51046  0.99167  1
 O  O46  1  0.24775  0.55125  0.75544  1
 O  O47  1  0.75544  0.24775  0.55125  1
 O  O48  1  0.01046  0.50833  0.31180  1
