CIF file written using JARVIS-Tools package.
data_Co3Sn2S2
_symmetry_space_group_name_H-M  'R-3m'
_cell_length_a       5.38518
_cell_length_b       5.38518
_cell_length_c       5.38517
_cell_angle_alpha    60.1784
_cell_angle_beta     60.1784
_cell_angle_gamma    60.1785

_symmetry_Int_Tables_number  166
_chemical_formula_structural  Co3Sn2S2
_chemical_formula_sum  Co3Sn2S2
_cell_volume  110.87581577882733
_cell_formula_units_Z  1
loop_
  _symmetry_equiv_pos_site_id
 _symmetry_equiv_pos_as_xyz
 1  'x, y, z'
loop_
 _atom_site_type_symbol
 _atom_site_label
 _atom_site_symmetry_multiplicity
 _atom_site_fract_x
 _atom_site_fract_y
 _atom_site_fract_z
 _atom_site_fract_occupancy
 Co  Co1  1  0.00000  0.50000  0.00000  1
 Co  Co2  1  0.50000  -0.00000  0.00000  1
 Co  Co3  1  -0.00000  0.00000  0.50000  1
 S  S1  1  0.71909  0.71909  0.71909  1
 S  S2  1  0.28091  0.28091  0.28091  1
 Sn  Sn1  1  0.50000  0.50000  0.50000  1
 Sn  Sn2  1  0.00000  0.00000  0.00000  1
