CIF file written using JARVIS-Tools package.
data_KFeS2
_symmetry_space_group_name_H-M  'C2/c'
_cell_length_a       5.15139
_cell_length_b       6.50181
_cell_length_c       6.50182
_cell_angle_alpha    116.345
_cell_angle_beta     101.672
_cell_angle_gamma    101.672

_symmetry_Int_Tables_number  15
_chemical_formula_structural  KFeS2
_chemical_formula_sum  K2Fe2S4
_cell_volume  180.2189778168668
_cell_formula_units_Z  2
loop_
  _symmetry_equiv_pos_site_id
 _symmetry_equiv_pos_as_xyz
 1  'x, y, z'
loop_
 _atom_site_type_symbol
 _atom_site_label
 _atom_site_symmetry_multiplicity
 _atom_site_fract_x
 _atom_site_fract_y
 _atom_site_fract_z
 _atom_site_fract_occupancy
 Fe  Fe1  1  0.25000  -0.00027  0.00027  1
 Fe  Fe2  1  0.75000  0.00027  -0.00027  1
 K  K1  1  0.75000  0.64187  0.35813  1
 K  K2  1  0.25000  0.35813  0.64187  1
 S  S1  1  0.40129  0.91683  0.69817  1
 S  S2  1  0.09871  0.30183  0.08317  1
 S  S3  1  0.90129  0.69817  0.91683  1
 S  S4  1  0.59871  0.08317  0.30183  1
