CIF file written using JARVIS-Tools package.
data_MgCoGe
_symmetry_space_group_name_H-M  'P4/nmm'
_cell_length_a       3.90124
_cell_length_b       3.90124
_cell_length_c       6.10526
_cell_angle_alpha    90
_cell_angle_beta     90
_cell_angle_gamma    90

_symmetry_Int_Tables_number  129
_chemical_formula_structural  MgCoGe
_chemical_formula_sum  Mg2Co2Ge2
_cell_volume  92.92001533319532
_cell_formula_units_Z  2
loop_
  _symmetry_equiv_pos_site_id
 _symmetry_equiv_pos_as_xyz
 1  'x, y, z'
loop_
 _atom_site_type_symbol
 _atom_site_label
 _atom_site_symmetry_multiplicity
 _atom_site_fract_x
 _atom_site_fract_y
 _atom_site_fract_z
 _atom_site_fract_occupancy
 Co  Co1  1  0.75000  0.25000  0.00000  1
 Co  Co2  1  0.25000  0.75000  0.00000  1
 Ge  Ge1  1  0.75000  0.75000  0.77212  1
 Ge  Ge2  1  0.25000  0.25000  0.22788  1
 Mg  Mg1  1  0.75000  0.75000  0.31789  1
 Mg  Mg2  1  0.25000  0.25000  0.68211  1
