CIF file written using JARVIS-Tools package.
data_Mn2B4W
_symmetry_space_group_name_H-M  'Immm'
_cell_length_a       3.01783
_cell_length_b       3.10789
_cell_length_c       6.77874
_cell_angle_alpha    103.252
_cell_angle_beta     102.862
_cell_angle_gamma    90

_symmetry_Int_Tables_number  71
_chemical_formula_structural  Mn2B4W
_chemical_formula_sum  Mn2B4W
_cell_volume  60.245335866506764
_cell_formula_units_Z  1
loop_
  _symmetry_equiv_pos_site_id
 _symmetry_equiv_pos_as_xyz
 1  'x, y, z'
loop_
 _atom_site_type_symbol
 _atom_site_label
 _atom_site_symmetry_multiplicity
 _atom_site_fract_x
 _atom_site_fract_y
 _atom_site_fract_z
 _atom_site_fract_occupancy
 B  B1  1  0.35220  0.35220  0.70439  1
 B  B2  1  0.64780  0.64780  0.29561  1
 B  B3  1  0.92755  0.42755  0.85511  1
 B  B4  1  0.07245  0.57245  0.14489  1
 Mn  Mn1  1  0.18624  0.18624  0.37248  1
 Mn  Mn2  1  0.81376  0.81376  0.62752  1
 W  W1  1  0.50000  0.00000  0.00000  1
