CIF file written using JARVIS-Tools package.
data_KBeBr2
_symmetry_space_group_name_H-M  'Fm-3m'
_cell_length_a       5.31181
_cell_length_b       5.31181
_cell_length_c       5.31181
_cell_angle_alpha    119.995
_cell_angle_beta     119.995
_cell_angle_gamma    90.0084

_symmetry_Int_Tables_number  225
_chemical_formula_structural  KBeBr2
_chemical_formula_sum  KBeBr2
_cell_volume  105.98514896955217
_cell_formula_units_Z  1
loop_
  _symmetry_equiv_pos_site_id
 _symmetry_equiv_pos_as_xyz
 1  'x, y, z'
loop_
 _atom_site_type_symbol
 _atom_site_label
 _atom_site_symmetry_multiplicity
 _atom_site_fract_x
 _atom_site_fract_y
 _atom_site_fract_z
 _atom_site_fract_occupancy
 Be  Be1  1  0.75000  0.25000  0.50000  1
 Br  Br1  1  0.00000  0.00000  0.00000  1
 Br  Br2  1  0.50000  0.50000  0.00000  1
 K  K1  1  0.25000  0.75000  0.50000  1
