CIF file written using JARVIS-Tools package.
data_Mg6TiFe
_symmetry_space_group_name_H-M  'Amm2'
_cell_length_a       6.26595
_cell_length_b       6.26595
_cell_length_c       4.74979
_cell_angle_alpha    90
_cell_angle_beta     90
_cell_angle_gamma    122.356

_symmetry_Int_Tables_number  38
_chemical_formula_structural  Mg6TiFe
_chemical_formula_sum  Mg6TiFe
_cell_volume  157.53249477715033
_cell_formula_units_Z  1
loop_
  _symmetry_equiv_pos_site_id
 _symmetry_equiv_pos_as_xyz
 1  'x, y, z'
loop_
 _atom_site_type_symbol
 _atom_site_label
 _atom_site_symmetry_multiplicity
 _atom_site_fract_x
 _atom_site_fract_y
 _atom_site_fract_z
 _atom_site_fract_occupancy
 Fe  Fe1  1  0.19562  0.30438  0.25000  1
 Mg  Mg1  1  0.17721  0.84154  0.25000  1
 Mg  Mg2  1  0.65846  0.32279  0.25000  1
 Mg  Mg3  1  0.67147  0.82853  0.25000  1
 Mg  Mg4  1  0.31892  0.66237  0.75000  1
 Mg  Mg5  1  0.83763  0.18108  0.75000  1
 Mg  Mg6  1  0.83257  0.66743  0.75000  1
 Ti  Ti1  1  0.30812  0.19188  0.75000  1
