CIF file written using JARVIS-Tools package.
data_NbPSe
_symmetry_space_group_name_H-M  'Immm'
_cell_length_a       3.51806
_cell_length_b       4.8879
_cell_length_c       6.9527
_cell_angle_alpha    110.58
_cell_angle_beta     104.655
_cell_angle_gamma    90

_symmetry_Int_Tables_number  71
_chemical_formula_structural  NbPSe
_chemical_formula_sum  Nb2P2Se2
_cell_volume  107.76392720293758
_cell_formula_units_Z  2
loop_
  _symmetry_equiv_pos_site_id
 _symmetry_equiv_pos_as_xyz
 1  'x, y, z'
loop_
 _atom_site_type_symbol
 _atom_site_label
 _atom_site_symmetry_multiplicity
 _atom_site_fract_x
 _atom_site_fract_y
 _atom_site_fract_z
 _atom_site_fract_occupancy
 Nb  Nb1  1  0.88345  0.38345  0.76690  1
 Nb  Nb2  1  0.11655  0.61655  0.23310  1
 P  P1  1  0.50000  0.76524  0.00000  1
 P  P2  1  0.50000  0.23476  -0.00000  1
 Se  Se1  1  0.21286  0.21286  0.42571  1
 Se  Se2  1  0.78714  0.78714  0.57429  1
