CIF file written using JARVIS-Tools package.
data_Ba3ScCO3F7
_symmetry_space_group_name_H-M  'Cmcm'
_cell_length_a       5.96774
_cell_length_b       8.93451
_cell_length_c       8.9345
_cell_angle_alpha    99.3907
_cell_angle_beta     90
_cell_angle_gamma    90

_symmetry_Int_Tables_number  63
_chemical_formula_structural  Ba3ScCO3F7
_chemical_formula_sum  Ba6Sc2C2O6F4
_cell_volume  469.9932382041272
_cell_formula_units_Z  2
loop_
  _symmetry_equiv_pos_site_id
 _symmetry_equiv_pos_as_xyz
 1  'x, y, z'
loop_
 _atom_site_type_symbol
 _atom_site_label
 _atom_site_symmetry_multiplicity
 _atom_site_fract_x
 _atom_site_fract_y
 _atom_site_fract_z
 _atom_site_fract_occupancy
 Ba  Ba1  1  0.25000  0.84425  0.60239  1
 Ba  Ba2  1  0.75000  0.60239  0.84425  1
 Ba  Ba3  1  0.25000  0.39761  0.15575  1
 Ba  Ba4  1  0.75000  0.09431  0.90569  1
 Ba  Ba5  1  0.25000  0.90569  0.09431  1
 Ba  Ba6  1  0.75000  0.15575  0.39761  1
 C  C1  1  0.75000  0.53839  0.46161  1
 C  C2  1  0.25000  0.46161  0.53839  1
 F  F1  1  0.00305  0.11587  0.64163  1
 F  F2  1  0.99695  0.64163  0.11587  1
 F  F3  1  0.25000  0.11436  0.88564  1
 F  F4  1  0.75000  0.88564  0.11436  1
 F  F5  1  0.50000  0.83913  0.83913  1
 F  F6  1  0.50305  0.64163  0.11587  1
 F  F7  1  0.00305  0.35837  0.88413  1
 F  F8  1  0.49695  0.35837  0.88413  1
 F  F9  1  0.50000  0.16087  0.16087  1
 F  F10  1  0.99695  0.88413  0.35837  1
 F  F11  1  0.50305  0.88413  0.35837  1
 F  F12  1  0.00000  0.16087  0.16087  1
 F  F13  1  0.49695  0.11587  0.64163  1
 F  F14  1  0.00000  0.83913  0.83913  1
 O  O1  1  0.25000  0.50669  0.68565  1
 O  O2  1  0.75000  0.68565  0.50669  1
 O  O3  1  0.75000  0.44492  0.55508  1
 O  O4  1  0.25000  0.31435  0.49331  1
 O  O5  1  0.75000  0.49331  0.31435  1
 O  O6  1  0.25000  0.55508  0.44492  1
 Sc  Sc1  1  0.75000  0.73174  0.26826  1
 Sc  Sc2  1  0.25000  0.26826  0.73174  1
