CIF file written using JARVIS-Tools package.
data_La4Se3O4
_symmetry_space_group_name_H-M  'Amm2'
_cell_length_a       4.11136
_cell_length_b       6.91142
_cell_length_c       8.57161
_cell_angle_alpha    90
_cell_angle_beta     90
_cell_angle_gamma    107.303

_symmetry_Int_Tables_number  38
_chemical_formula_structural  La4Se3O4
_chemical_formula_sum  La4Se3O4
_cell_volume  232.54216150117827
_cell_formula_units_Z  1
loop_
  _symmetry_equiv_pos_site_id
 _symmetry_equiv_pos_as_xyz
 1  'x, y, z'
loop_
 _atom_site_type_symbol
 _atom_site_label
 _atom_site_symmetry_multiplicity
 _atom_site_fract_x
 _atom_site_fract_y
 _atom_site_fract_z
 _atom_site_fract_occupancy
 La  La1  1  0.68557  0.37114  0.76264  1
 La  La2  1  0.68557  0.37114  0.23736  1
 La  La3  1  0.01691  0.03382  0.50000  1
 La  La4  1  0.00017  0.00035  0.00000  1
 O  O1  1  0.61585  0.23171  0.50000  1
 O  O2  1  0.58761  0.17523  0.00000  1
 O  O3  1  0.08962  0.17924  0.75595  1
 O  O4  1  0.08962  0.17924  0.24405  1
 Se  Se1  1  0.35791  0.71582  0.35111  1
 Se  Se2  1  0.35791  0.71582  0.64889  1
 Se  Se3  1  0.31204  0.62408  0.00000  1
