CIF file written using JARVIS-Tools package.
data_Na2SnC4O8
_symmetry_space_group_name_H-M  'C2/c'
_cell_length_a       5.59722
_cell_length_b       5.92012
_cell_length_c       13.1107
_cell_angle_alpha    81.9753
_cell_angle_beta     77.6752
_cell_angle_gamma    61.7886

_symmetry_Int_Tables_number  15
_chemical_formula_structural  Na2SnC4O8
_chemical_formula_sum  Na4Sn2C8O6
_cell_volume  373.62988162536993
_cell_formula_units_Z  2
loop_
  _symmetry_equiv_pos_site_id
 _symmetry_equiv_pos_as_xyz
 1  'x, y, z'
loop_
 _atom_site_type_symbol
 _atom_site_label
 _atom_site_symmetry_multiplicity
 _atom_site_fract_x
 _atom_site_fract_y
 _atom_site_fract_z
 _atom_site_fract_occupancy
 C  C1  1  0.57101  0.41813  0.61103  1
 C  C2  1  0.42899  0.58187  0.38897  1
 C  C3  1  0.31316  0.68108  0.63528  1
 C  C4  1  0.37048  0.18109  0.13528  1
 C  C5  1  0.62952  0.81891  0.86472  1
 C  C6  1  0.68684  0.31892  0.36472  1
 C  C7  1  0.60016  0.08187  0.88897  1
 C  C8  1  0.39984  0.91813  0.11103  1
 Na  Na1  1  0.82696  0.32689  0.05142  1
 Na  Na2  1  0.79474  0.82689  0.55142  1
 Na  Na3  1  0.20526  0.17311  0.44858  1
 Na  Na4  1  0.17304  0.67311  0.94858  1
 O  O1  1  0.54100  0.17400  0.18779  1
 O  O2  1  0.66698  0.11952  0.40195  1
 O  O3  1  0.21255  0.58060  0.43944  1
 O  O4  1  0.45900  0.82600  0.81221  1
 O  O5  1  0.39804  0.28375  0.85928  1
 O  O6  1  0.81155  0.61952  0.90195  1
 O  O7  1  0.18845  0.38048  0.09805  1
 O  O8  1  0.76741  0.08060  0.93944  1
 O  O9  1  0.60196  0.71625  0.14072  1
 O  O10  1  0.45892  0.78375  0.35927  1
 O  O11  1  0.09722  0.67400  0.68779  1
 O  O12  1  0.90278  0.32600  0.31221  1
 O  O13  1  0.33302  0.88048  0.59805  1
 O  O14  1  0.54108  0.21625  0.64073  1
 O  O15  1  0.23259  0.91940  0.06056  1
 O  O16  1  0.78745  0.41940  0.56056  1
 Sn  Sn1  1  0.14650  0.25000  0.75000  1
 Sn  Sn2  1  0.85350  0.75000  0.25000  1
