CIF file written using JARVIS-Tools package.
data_Tl2CO3
_symmetry_space_group_name_H-M  'C2/m'
_cell_length_a       5.45051
_cell_length_b       6.76169
_cell_length_c       7.17842
_cell_angle_alpha    65.6905
_cell_angle_beta     67.6823
_cell_angle_gamma    66.2354

_symmetry_Int_Tables_number  12
_chemical_formula_structural  Tl2CO3
_chemical_formula_sum  Tl4C2O6
_cell_volume  213.28203195298994
_cell_formula_units_Z  2
loop_
  _symmetry_equiv_pos_site_id
 _symmetry_equiv_pos_as_xyz
 1  'x, y, z'
loop_
 _atom_site_type_symbol
 _atom_site_label
 _atom_site_symmetry_multiplicity
 _atom_site_fract_x
 _atom_site_fract_y
 _atom_site_fract_z
 _atom_site_fract_occupancy
 C  C1  1  0.34007  0.12666  0.19333  1
 C  C2  1  0.65993  0.87334  0.80667  1
 O  O1  1  0.33727  0.95918  0.36637  1
 O  O2  1  0.66273  0.04082  0.63363  1
 O  O3  1  0.54877  0.21203  0.10410  1
 O  O4  1  0.86479  0.78793  0.89584  1
 O  O5  1  0.45123  0.78797  0.89590  1
 O  O6  1  0.13521  0.21207  0.10416  1
 Tl  Tl1  1  0.91779  0.86122  0.30327  1
 Tl  Tl2  1  0.08221  0.13878  0.69673  1
 Tl  Tl3  1  0.36414  0.51015  0.76158  1
 Tl  Tl4  1  0.63586  0.48985  0.23842  1
