CIF file written using JARVIS-Tools package.
data_NbTeBr3
_symmetry_space_group_name_H-M  'P2/c'
_cell_length_a       6.67213
_cell_length_b       7.1807
_cell_length_c       12.6974
_cell_angle_alpha    90
_cell_angle_beta     97.6727
_cell_angle_gamma    90

_symmetry_Int_Tables_number  13
_chemical_formula_structural  NbTeBr3
_chemical_formula_sum  Nb4Te4Br2
_cell_volume  602.8919436669846
_cell_formula_units_Z  4
loop_
  _symmetry_equiv_pos_site_id
 _symmetry_equiv_pos_as_xyz
 1  'x, y, z'
loop_
 _atom_site_type_symbol
 _atom_site_label
 _atom_site_symmetry_multiplicity
 _atom_site_fract_x
 _atom_site_fract_y
 _atom_site_fract_z
 _atom_site_fract_occupancy
 Br  Br1  1  0.25547  0.45213  0.30374  1
 Br  Br2  1  0.84690  0.31951  0.45438  1
 Br  Br3  1  0.84690  0.68049  0.95438  1
 Br  Br4  1  0.15310  0.68049  0.54562  1
 Br  Br5  1  0.63826  0.21224  0.93854  1
 Br  Br6  1  0.36174  0.21224  0.56146  1
 Br  Br7  1  0.36174  0.78776  0.06146  1
 Br  Br8  1  0.63826  0.78776  0.43854  1
 Br  Br9  1  0.15310  0.31951  0.04562  1
 Br  Br10  1  0.25547  0.54787  0.80374  1
 Br  Br11  1  0.74453  0.45213  0.19626  1
 Br  Br12  1  0.74453  0.54787  0.69626  1
 Nb  Nb1  1  0.93077  0.64788  0.35286  1
 Nb  Nb2  1  0.06923  0.64788  0.14714  1
 Nb  Nb3  1  0.06923  0.35212  0.64714  1
 Nb  Nb4  1  0.93077  0.35212  0.85286  1
 Te  Te1  1  0.81039  0.06403  0.69463  1
 Te  Te2  1  0.18961  0.93597  0.30537  1
 Te  Te3  1  0.81039  0.93597  0.19463  1
 Te  Te4  1  0.18961  0.06403  0.80537  1
