CIF file written using JARVIS-Tools package.
data_CeMg6Mo
_symmetry_space_group_name_H-M  'Amm2'
_cell_length_a       6.65372
_cell_length_b       6.65372
_cell_length_c       4.77583
_cell_angle_alpha    90
_cell_angle_beta     90
_cell_angle_gamma    122.859

_symmetry_Int_Tables_number  38
_chemical_formula_structural  CeMg6Mo
_chemical_formula_sum  CeMg6Mo
_cell_volume  177.60700165141648
_cell_formula_units_Z  1
loop_
  _symmetry_equiv_pos_site_id
 _symmetry_equiv_pos_as_xyz
 1  'x, y, z'
loop_
 _atom_site_type_symbol
 _atom_site_label
 _atom_site_symmetry_multiplicity
 _atom_site_fract_x
 _atom_site_fract_y
 _atom_site_fract_z
 _atom_site_fract_occupancy
 Ce  Ce1  1  0.20711  0.29289  0.25000  1
 Mg  Mg1  1  0.18100  0.82001  0.25000  1
 Mg  Mg2  1  0.67999  0.31900  0.25000  1
 Mg  Mg3  1  0.66063  0.83937  0.25000  1
 Mg  Mg4  1  0.32515  0.67689  0.75000  1
 Mg  Mg5  1  0.82311  0.17485  0.75000  1
 Mg  Mg6  1  0.82166  0.67834  0.75000  1
 Mo  Mo1  1  0.30136  0.19864  0.75000  1
