CIF file written using JARVIS-Tools package.
data_Sr2CoBr2O2
_symmetry_space_group_name_H-M  'I4/mmm'
_cell_length_a       3.92368
_cell_length_b       3.92367
_cell_length_c       9.47683
_cell_angle_alpha    101.948
_cell_angle_beta     101.948
_cell_angle_gamma    90

_symmetry_Int_Tables_number  139
_chemical_formula_structural  Sr2CoBr2O2
_chemical_formula_sum  Sr2CoBr2O2
_cell_volume  139.50545481054746
_cell_formula_units_Z  1
loop_
  _symmetry_equiv_pos_site_id
 _symmetry_equiv_pos_as_xyz
 1  'x, y, z'
loop_
 _atom_site_type_symbol
 _atom_site_label
 _atom_site_symmetry_multiplicity
 _atom_site_fract_x
 _atom_site_fract_y
 _atom_site_fract_z
 _atom_site_fract_occupancy
 Br  Br1  1  0.17850  0.17850  0.35701  1
 Br  Br2  1  0.82150  0.82150  0.64299  1
 Co  Co1  1  0.00000  0.00000  0.00000  1
 O  O1  1  0.00000  0.50000  0.00000  1
 O  O2  1  0.50000  -0.00000  0.00000  1
 Sr  Sr1  1  0.40362  0.40362  0.80724  1
 Sr  Sr2  1  0.59638  0.59638  0.19276  1
