CIF file written using JARVIS-Tools package.
data_CaZn
_symmetry_space_group_name_H-M  'Pm-3m'
_cell_length_a       5.16401
_cell_length_b       5.164
_cell_length_c       6.32636
_cell_angle_alpha    90
_cell_angle_beta     90
_cell_angle_gamma    120

_symmetry_Int_Tables_number  221
_chemical_formula_structural  CaZn
_chemical_formula_sum  Ca3Zn3
_cell_volume  146.10282835700966
_cell_formula_units_Z  3
loop_
  _symmetry_equiv_pos_site_id
 _symmetry_equiv_pos_as_xyz
 1  'x, y, z'
loop_
 _atom_site_type_symbol
 _atom_site_label
 _atom_site_symmetry_multiplicity
 _atom_site_fract_x
 _atom_site_fract_y
 _atom_site_fract_z
 _atom_site_fract_occupancy
 Ca  Ca1  1  0.00000  0.00000  0.00000  1
 Ca  Ca2  1  0.66667  0.33333  0.33333  1
 Ca  Ca3  1  0.33333  0.66667  0.66667  1
 Zn  Zn1  1  0.33333  0.66667  0.16667  1
 Zn  Zn2  1  0.00000  0.00000  0.50000  1
 Zn  Zn3  1  0.66667  0.33333  0.83333  1
