CIF file written using JARVIS-Tools package.
data_Mg6CrNi
_symmetry_space_group_name_H-M  'Amm2'
_cell_length_a       6.06185
_cell_length_b       6.03988
_cell_length_c       4.79354
_cell_angle_alpha    90
_cell_angle_beta     90
_cell_angle_gamma    119.88

_symmetry_Int_Tables_number  38
_chemical_formula_structural  Mg6CrNi
_chemical_formula_sum  Mg6CrNi
_cell_volume  152.17549432026627
_cell_formula_units_Z  1
loop_
  _symmetry_equiv_pos_site_id
 _symmetry_equiv_pos_as_xyz
 1  'x, y, z'
loop_
 _atom_site_type_symbol
 _atom_site_label
 _atom_site_symmetry_multiplicity
 _atom_site_fract_x
 _atom_site_fract_y
 _atom_site_fract_z
 _atom_site_fract_occupancy
 Cr  Cr1  1  0.16286  0.83143  0.25000  1
 Mg  Mg1  1  0.66424  0.33304  0.25000  1
 Mg  Mg2  1  0.66424  0.83119  0.25000  1
 Mg  Mg3  1  0.32407  0.16684  0.75000  1
 Mg  Mg4  1  0.32407  0.65723  0.75000  1
 Mg  Mg5  1  0.85462  0.17731  0.75000  1
 Mg  Mg6  1  0.84556  0.67278  0.75000  1
 Ni  Ni1  1  0.16035  0.33017  0.25000  1
