CIF file written using JARVIS-Tools package.
data_U2Re2C3
_symmetry_space_group_name_H-M  'C2/m'
_cell_length_a       3.05071
_cell_length_b       5.51922
_cell_length_c       6.00937
_cell_angle_alpha    104.156
_cell_angle_beta     104.704
_cell_angle_gamma    90

_symmetry_Int_Tables_number  12
_chemical_formula_structural  U2Re2C3
_chemical_formula_sum  U2Re2C3
_cell_volume  94.68912817454546
_cell_formula_units_Z  1
loop_
  _symmetry_equiv_pos_site_id
 _symmetry_equiv_pos_as_xyz
 1  'x, y, z'
loop_
 _atom_site_type_symbol
 _atom_site_label
 _atom_site_symmetry_multiplicity
 _atom_site_fract_x
 _atom_site_fract_y
 _atom_site_fract_z
 _atom_site_fract_occupancy
 C  C1  1  0.00000  0.50000  0.00000  1
 C  C2  1  0.25059  0.75970  0.50118  1
 C  C3  1  0.74941  0.24030  0.49882  1
 Re  Re1  1  0.84705  0.63716  0.69410  1
 Re  Re2  1  0.15295  0.36284  0.30590  1
 U  U1  1  0.60188  0.83268  0.20377  1
 U  U2  1  0.39812  0.16732  0.79623  1
