CIF file written using JARVIS-Tools package.
data_USnPd
_symmetry_space_group_name_H-M  'P6_3/mmc'
_cell_length_a       4.98526
_cell_length_b       4.98526
_cell_length_c       5.80646
_cell_angle_alpha    90
_cell_angle_beta     90
_cell_angle_gamma    120

_symmetry_Int_Tables_number  194
_chemical_formula_structural  USnPd
_chemical_formula_sum  U2Sn2Pd2
_cell_volume  124.97350027846137
_cell_formula_units_Z  2
loop_
  _symmetry_equiv_pos_site_id
 _symmetry_equiv_pos_as_xyz
 1  'x, y, z'
loop_
 _atom_site_type_symbol
 _atom_site_label
 _atom_site_symmetry_multiplicity
 _atom_site_fract_x
 _atom_site_fract_y
 _atom_site_fract_z
 _atom_site_fract_occupancy
 Pd  Pd1  1  0.33333  0.66667  0.01981  1
 Pd  Pd2  1  0.66667  0.33333  0.51981  1
 Sn  Sn1  1  0.33334  0.66666  0.51980  1
 Sn  Sn2  1  0.66666  0.33334  0.01980  1
 U  U1  1  -0.00000  0.00000  0.26980  1
 U  U2  1  0.00000  -0.00000  0.76980  1
