CIF file written using JARVIS-Tools package.
data_LiFe2O3
_symmetry_space_group_name_H-M  'P-3m1'
_cell_length_a       2.98381
_cell_length_b       2.98576
_cell_length_c       7.33057
_cell_angle_alpha    89.9354
_cell_angle_beta     89.9998
_cell_angle_gamma    119.978

_symmetry_Int_Tables_number  164
_chemical_formula_structural  LiFe2O3
_chemical_formula_sum  LiFe2O3
_cell_volume  56.57074356758875
_cell_formula_units_Z  1
loop_
  _symmetry_equiv_pos_site_id
 _symmetry_equiv_pos_as_xyz
 1  'x, y, z'
loop_
 _atom_site_type_symbol
 _atom_site_label
 _atom_site_symmetry_multiplicity
 _atom_site_fract_x
 _atom_site_fract_y
 _atom_site_fract_z
 _atom_site_fract_occupancy
 Fe  Fe1  1  0.66625  0.33250  0.82273  1
 Fe  Fe2  1  0.33374  0.66750  0.17726  1
 Li  Li1  1  0.00001  -0.00000  0.50000  1
 O  O1  1  -0.00005  -0.00000  0.00000  1
 O  O2  1  0.33294  0.66592  0.67584  1
 O  O3  1  0.66709  0.33409  0.32416  1
