CIF file written using JARVIS-Tools package.
data_LiTiMnF6
_symmetry_space_group_name_H-M  'P321'
_cell_length_a       8.76201
_cell_length_b       8.76202
_cell_length_c       4.71369
_cell_angle_alpha    90
_cell_angle_beta     90
_cell_angle_gamma    120

_symmetry_Int_Tables_number  150
_chemical_formula_structural  LiTiMnF6
_chemical_formula_sum  Li3Ti3Mn3F8
_cell_volume  313.4001585115071
_cell_formula_units_Z  3
loop_
  _symmetry_equiv_pos_site_id
 _symmetry_equiv_pos_as_xyz
 1  'x, y, z'
loop_
 _atom_site_type_symbol
 _atom_site_label
 _atom_site_symmetry_multiplicity
 _atom_site_fract_x
 _atom_site_fract_y
 _atom_site_fract_z
 _atom_site_fract_occupancy
 F  F1  1  0.44075  0.22239  0.72728  1
 F  F2  1  0.10988  0.88959  0.76244  1
 F  F3  1  0.88959  0.10988  0.23756  1
 F  F4  1  0.11041  0.22029  0.76244  1
 F  F5  1  0.55925  0.78164  0.27272  1
 F  F6  1  0.77971  0.89012  0.76244  1
 F  F7  1  0.57800  0.46679  0.26992  1
 F  F8  1  0.42200  0.88879  0.73008  1
 F  F9  1  0.11121  0.53321  0.73008  1
 F  F10  1  0.88879  0.42200  0.26992  1
 F  F11  1  0.53321  0.11121  0.26992  1
 F  F12  1  0.21836  0.77761  0.27272  1
 F  F13  1  0.22239  0.44075  0.27272  1
 F  F14  1  0.46679  0.57800  0.73008  1
 F  F15  1  0.77761  0.21836  0.72728  1
 F  F16  1  0.22029  0.11041  0.23756  1
 F  F17  1  0.89012  0.77971  0.23756  1
 F  F18  1  0.78164  0.55925  0.72728  1
 Li  Li1  1  0.66667  0.33333  0.50287  1
 Li  Li2  1  0.33333  0.66667  0.49713  1
 Li  Li3  1  0.00000  0.00000  0.00000  1
 Mn  Mn1  1  -0.00000  0.64293  0.00000  1
 Mn  Mn2  1  0.35707  0.35707  0.00000  1
 Mn  Mn3  1  0.64293  0.00000  0.00000  1
 Ti  Ti1  1  0.31144  0.00000  0.50000  1
 Ti  Ti2  1  0.68856  0.68856  0.50000  1
 Ti  Ti3  1  -0.00000  0.31144  0.50000  1
