CIF file written using JARVIS-Tools package.
data_CaMg6Zn
_symmetry_space_group_name_H-M  'Amm2'
_cell_length_a       6.84021
_cell_length_b       6.20966
_cell_length_c       5.02774
_cell_angle_alpha    90
_cell_angle_beta     90
_cell_angle_gamma    116.997

_symmetry_Int_Tables_number  38
_chemical_formula_structural  CaMg6Zn
_chemical_formula_sum  CaMg6Zn
_cell_volume  190.28436673068646
_cell_formula_units_Z  1
loop_
  _symmetry_equiv_pos_site_id
 _symmetry_equiv_pos_as_xyz
 1  'x, y, z'
loop_
 _atom_site_type_symbol
 _atom_site_label
 _atom_site_symmetry_multiplicity
 _atom_site_fract_x
 _atom_site_fract_y
 _atom_site_fract_z
 _atom_site_fract_occupancy
 Ca  Ca1  1  0.12509  0.31254  0.25000  1
 Mg  Mg1  1  0.63852  0.32359  0.25000  1
 Mg  Mg2  1  0.63852  0.81492  0.25000  1
 Mg  Mg3  1  0.34179  0.16943  0.75000  1
 Mg  Mg4  1  0.34178  0.67236  0.75000  1
 Mg  Mg5  1  0.80144  0.15073  0.75000  1
 Mg  Mg6  1  0.88313  0.69157  0.75000  1
 Zn  Zn1  1  0.22975  0.86487  0.25000  1
