CIF file written using JARVIS-Tools package.
data_Li4Be3As3ClO12
_symmetry_space_group_name_H-M  'P-43n'
_cell_length_a       8.27969
_cell_length_b       8.27969
_cell_length_c       8.27969
_cell_angle_alpha    90
_cell_angle_beta     90
_cell_angle_gamma    90

_symmetry_Int_Tables_number  218
_chemical_formula_structural  Li4Be3As3ClO12
_chemical_formula_sum  Li8Be6As6Cl2O24
_cell_volume  567.6001221775977
_cell_formula_units_Z  2
loop_
  _symmetry_equiv_pos_site_id
 _symmetry_equiv_pos_as_xyz
 1  'x, y, z'
loop_
 _atom_site_type_symbol
 _atom_site_label
 _atom_site_symmetry_multiplicity
 _atom_site_fract_x
 _atom_site_fract_y
 _atom_site_fract_z
 _atom_site_fract_occupancy
 As  As1  1  0.00000  0.75000  0.50000  1
 As  As2  1  0.50000  0.00000  0.25000  1
 As  As3  1  0.00000  0.25000  0.50000  1
 As  As4  1  0.25000  0.50000  0.00000  1
 As  As5  1  0.75000  0.50000  0.00000  1
 As  As6  1  0.50000  0.00000  0.75000  1
 Be  Be1  1  0.75000  0.00000  0.50000  1
 Be  Be2  1  0.00000  0.50000  0.75000  1
 Be  Be3  1  0.50000  0.25000  0.00000  1
 Be  Be4  1  0.50000  0.75000  0.00000  1
 Be  Be5  1  0.25000  0.00000  0.50000  1
 Be  Be6  1  0.00000  0.50000  0.25000  1
 Cl  Cl1  1  0.00000  0.00000  0.00000  1
 Cl  Cl2  1  0.50000  0.50000  0.50000  1
 Li  Li1  1  0.83051  0.83051  0.16949  1
 Li  Li2  1  0.16949  0.83051  0.83051  1
 Li  Li3  1  0.33051  0.66949  0.33051  1
 Li  Li4  1  0.83051  0.16949  0.83051  1
 Li  Li5  1  0.66949  0.66949  0.66949  1
 Li  Li6  1  0.16949  0.16949  0.16949  1
 Li  Li7  1  0.33051  0.33051  0.66949  1
 Li  Li8  1  0.66949  0.33051  0.33051  1
 O  O1  1  0.85856  0.86593  0.40239  1
 O  O2  1  0.35856  0.09761  0.63407  1
 O  O3  1  0.86593  0.40239  0.85856  1
 O  O4  1  0.86593  0.59761  0.14144  1
 O  O5  1  0.59761  0.85856  0.13407  1
 O  O6  1  0.14144  0.13407  0.40239  1
 O  O7  1  0.13407  0.40239  0.14144  1
 O  O8  1  0.36593  0.64144  0.09761  1
 O  O9  1  0.90239  0.36593  0.35856  1
 O  O10  1  0.35856  0.90239  0.36593  1
 O  O11  1  0.09761  0.36593  0.64144  1
 O  O12  1  0.09761  0.63407  0.35856  1
 O  O13  1  0.40239  0.14144  0.13407  1
 O  O14  1  0.90239  0.63407  0.64144  1
 O  O15  1  0.40239  0.85856  0.86593  1
 O  O16  1  0.64144  0.09761  0.36593  1
 O  O17  1  0.63407  0.35856  0.09761  1
 O  O18  1  0.85856  0.13407  0.59761  1
 O  O19  1  0.64144  0.90239  0.63407  1
 O  O20  1  0.63407  0.64144  0.90239  1
 O  O21  1  0.59761  0.14144  0.86593  1
 O  O22  1  0.13407  0.59761  0.85856  1
 O  O23  1  0.36593  0.35856  0.90239  1
 O  O24  1  0.14144  0.86593  0.59761  1
