CIF file written using JARVIS-Tools package.
data_LiSbTe3O12
_symmetry_space_group_name_H-M  'P1'
_cell_length_a       5.04646
_cell_length_b       5.33933
_cell_length_c       7.35457
_cell_angle_alpha    85.7092
_cell_angle_beta     89.9615
_cell_angle_gamma    89.9617

_symmetry_Int_Tables_number  1
_chemical_formula_structural  LiSbTe3O12
_chemical_formula_sum  LiSbTe3O2
_cell_volume  197.61154867278566
_cell_formula_units_Z  1
loop_
  _symmetry_equiv_pos_site_id
 _symmetry_equiv_pos_as_xyz
 1  'x, y, z'
loop_
 _atom_site_type_symbol
 _atom_site_label
 _atom_site_symmetry_multiplicity
 _atom_site_fract_x
 _atom_site_fract_y
 _atom_site_fract_z
 _atom_site_fract_occupancy
 Li  Li1  1  0.00092  0.42081  0.21266  1
 O  O1  1  0.68514  0.19189  0.57734  1
 O  O2  1  0.87280  0.02999  0.25967  1
 O  O3  1  0.66564  0.82896  0.93596  1
 O  O4  1  0.14315  0.00526  0.74772  1
 O  O5  1  0.81978  0.68563  0.57495  1
 O  O6  1  0.63869  0.51737  0.25495  1
 O  O7  1  0.18420  0.68537  0.07574  1
 O  O8  1  0.35695  0.50396  0.75058  1
 O  O9  1  0.18489  0.32565  0.43634  1
 O  O10  1  0.30862  0.20726  0.07685  1
 O  O11  1  0.82351  0.33986  0.94956  1
 O  O12  1  0.31701  0.82104  0.43205  1
 Sb  Sb1  1  0.99746  0.00275  0.99787  1
 Te  Te1  1  0.50233  0.50777  0.50588  1
 Te  Te2  1  0.00110  0.00196  0.50745  1
 Te  Te3  1  0.49783  0.51007  0.99723  1
