CIF file written using JARVIS-Tools package.
data_Zr2SeN2
_symmetry_space_group_name_H-M  'P-3m1'
_cell_length_a       3.66007
_cell_length_b       3.66008
_cell_length_c       6.6781
_cell_angle_alpha    90
_cell_angle_beta     90
_cell_angle_gamma    120

_symmetry_Int_Tables_number  164
_chemical_formula_structural  Zr2SeN2
_chemical_formula_sum  Zr2SeN2
_cell_volume  77.47520638738372
_cell_formula_units_Z  1
loop_
  _symmetry_equiv_pos_site_id
 _symmetry_equiv_pos_as_xyz
 1  'x, y, z'
loop_
 _atom_site_type_symbol
 _atom_site_label
 _atom_site_symmetry_multiplicity
 _atom_site_fract_x
 _atom_site_fract_y
 _atom_site_fract_z
 _atom_site_fract_occupancy
 N  N1  1  0.66667  0.33333  0.36846  1
 N  N2  1  0.33333  0.66667  0.63154  1
 Se  Se1  1  0.00000  0.00000  0.00000  1
 Zr  Zr1  1  0.66667  0.33333  0.69630  1
 Zr  Zr2  1  0.33333  0.66667  0.30370  1
