CIF file written using JARVIS-Tools package.
data_KTiO3
_symmetry_space_group_name_H-M  'P4mm'
_cell_length_a       3.73006
_cell_length_b       3.73012
_cell_length_c       5.38574
_cell_angle_alpha    89.9994
_cell_angle_beta     89.9991
_cell_angle_gamma    90.0034

_symmetry_Int_Tables_number  99
_chemical_formula_structural  KTiO3
_chemical_formula_sum  KTiO3
_cell_volume  74.93504759140626
_cell_formula_units_Z  1
loop_
  _symmetry_equiv_pos_site_id
 _symmetry_equiv_pos_as_xyz
 1  'x, y, z'
loop_
 _atom_site_type_symbol
 _atom_site_label
 _atom_site_symmetry_multiplicity
 _atom_site_fract_x
 _atom_site_fract_y
 _atom_site_fract_z
 _atom_site_fract_occupancy
 K  K1  1  -0.00000  0.00000  0.00663  1
 O  O1  1  -0.00001  0.50000  0.60764  1
 O  O2  1  0.50000  -0.00000  0.60764  1
 O  O3  1  0.50000  0.50000  0.17705  1
 Ti  Ti1  1  0.50000  0.50000  0.49843  1
