CIF file written using JARVIS-Tools package.
data_Mg6NbCr
_symmetry_space_group_name_H-M  'Amm2'
_cell_length_a       6.20996
_cell_length_b       5.69984
_cell_length_c       4.90799
_cell_angle_alpha    90
_cell_angle_beta     90
_cell_angle_gamma    117.318

_symmetry_Int_Tables_number  38
_chemical_formula_structural  Mg6NbCr
_chemical_formula_sum  Mg6NbCr
_cell_volume  154.34782388956486
_cell_formula_units_Z  1
loop_
  _symmetry_equiv_pos_site_id
 _symmetry_equiv_pos_as_xyz
 1  'x, y, z'
loop_
 _atom_site_type_symbol
 _atom_site_label
 _atom_site_symmetry_multiplicity
 _atom_site_fract_x
 _atom_site_fract_y
 _atom_site_fract_z
 _atom_site_fract_occupancy
 Cr  Cr1  1  0.15800  0.82900  0.25000  1
 Mg  Mg1  1  0.64877  0.32437  0.25000  1
 Mg  Mg2  1  0.64877  0.82439  0.25000  1
 Mg  Mg3  1  0.33103  0.16425  0.75000  1
 Mg  Mg4  1  0.33103  0.66678  0.75000  1
 Mg  Mg5  1  0.85556  0.17778  0.75000  1
 Mg  Mg6  1  0.87963  0.68982  0.75000  1
 Nb  Nb1  1  0.14721  0.32361  0.25000  1
