CIF file written using JARVIS-Tools package.
data_H6CN2O3
_symmetry_space_group_name_H-M  'Pbcn'
_cell_length_a       6.5539
_cell_length_b       4.80006
_cell_length_c       12.7762
_cell_angle_alpha    90
_cell_angle_beta     90
_cell_angle_gamma    90

_symmetry_Int_Tables_number  60
_chemical_formula_structural  H6CN2O3
_chemical_formula_sum  H24C4N8O2
_cell_volume  401.92748085797996
_cell_formula_units_Z  4
loop_
  _symmetry_equiv_pos_site_id
 _symmetry_equiv_pos_as_xyz
 1  'x, y, z'
loop_
 _atom_site_type_symbol
 _atom_site_label
 _atom_site_symmetry_multiplicity
 _atom_site_fract_x
 _atom_site_fract_y
 _atom_site_fract_z
 _atom_site_fract_occupancy
 C  C1  1  0.75000  0.50000  0.37865  1
 C  C2  1  0.25000  0.00000  0.12135  1
 C  C3  1  0.25000  0.50000  0.62135  1
 C  C4  1  0.75000  0.00000  0.87865  1
 H  H1  1  0.64271  0.19335  0.74492  1
 H  H2  1  0.05311  0.16916  0.63485  1
 H  H3  1  0.55311  0.33084  0.86515  1
 H  H4  1  0.14271  0.19335  0.25508  1
 H  H5  1  0.64271  0.30665  0.24492  1
 H  H6  1  0.14271  0.30665  0.75508  1
 H  H7  1  0.35729  0.80665  0.25508  1
 H  H8  1  0.85729  0.80665  0.74492  1
 H  H9  1  0.35729  0.69335  0.75508  1
 H  H10  1  0.94689  0.66916  0.86515  1
 H  H11  1  0.85729  0.69335  0.24492  1
 H  H12  1  0.19044  0.24312  0.45344  1
 H  H13  1  0.69044  0.25688  0.04656  1
 H  H14  1  0.80956  0.74312  0.04656  1
 H  H15  1  0.30956  0.75688  0.45344  1
 H  H16  1  0.80956  0.75688  0.54656  1
 H  H17  1  0.30956  0.74312  0.95344  1
 H  H18  1  0.44689  0.83084  0.63485  1
 H  H19  1  0.69044  0.24312  0.54656  1
 H  H20  1  0.05311  0.33084  0.13485  1
 H  H21  1  0.55311  0.16916  0.36515  1
 H  H22  1  0.94689  0.83084  0.36515  1
 H  H23  1  0.44689  0.66916  0.13485  1
 H  H24  1  0.19044  0.25688  0.95344  1
 N  N1  1  0.36092  0.68762  0.67475  1
 N  N2  1  0.63908  0.18762  0.82525  1
 N  N3  1  0.13908  0.31238  0.67475  1
 N  N4  1  0.86092  0.81238  0.82525  1
 N  N5  1  0.36092  0.81238  0.17475  1
 N  N6  1  0.63908  0.31238  0.32525  1
 N  N7  1  0.13908  0.18762  0.17475  1
 N  N8  1  0.86092  0.68762  0.32525  1
 O  O1  1  0.25000  0.50000  0.52085  1
 O  O2  1  0.25000  0.00000  0.02085  1
 O  O3  1  0.65641  0.08448  0.59783  1
 O  O4  1  0.15641  0.41552  0.90217  1
 O  O5  1  0.34359  0.58448  0.90217  1
 O  O6  1  0.84359  0.91552  0.59783  1
 O  O7  1  0.34359  0.91552  0.40217  1
 O  O8  1  0.84359  0.58448  0.09783  1
 O  O9  1  0.65641  0.41552  0.09783  1
 O  O10  1  0.15641  0.08448  0.40217  1
 O  O11  1  0.75000  0.00000  0.97915  1
 O  O12  1  0.75000  0.50000  0.47915  1
