CIF file written using JARVIS-Tools package.
data_Sr2IrO4
_symmetry_space_group_name_H-M  'I4_1/acd'
_cell_length_a       5.50142
_cell_length_b       5.50141
_cell_length_c       13.662
_cell_angle_alpha    101.615
_cell_angle_beta     101.615
_cell_angle_gamma    90

_symmetry_Int_Tables_number  142
_chemical_formula_structural  Sr2IrO4
_chemical_formula_sum  Sr8Ir4O6
_cell_volume  396.37066153919227
_cell_formula_units_Z  4
loop_
  _symmetry_equiv_pos_site_id
 _symmetry_equiv_pos_as_xyz
 1  'x, y, z'
loop_
 _atom_site_type_symbol
 _atom_site_label
 _atom_site_symmetry_multiplicity
 _atom_site_fract_x
 _atom_site_fract_y
 _atom_site_fract_z
 _atom_site_fract_occupancy
 Ir  Ir1  1  0.62500  0.87500  0.75000  1
 Ir  Ir2  1  0.87500  0.62500  0.25000  1
 Ir  Ir3  1  0.12500  0.37500  0.75000  1
 Ir  Ir4  1  0.37500  0.12500  0.25000  1
 O  O1  1  0.81475  0.56475  0.75000  1
 O  O2  1  0.20495  0.45495  0.90990  1
 O  O3  1  0.54505  0.79505  0.59010  1
 O  O4  1  0.29505  0.04505  0.09010  1
 O  O5  1  0.04505  0.29505  0.59010  1
 O  O6  1  0.79505  0.54505  0.09010  1
 O  O7  1  0.45495  0.20495  0.40990  1
 O  O8  1  0.70495  0.95495  0.90990  1
 O  O9  1  0.93525  0.06475  0.75000  1
 O  O10  1  0.18525  0.43525  0.25000  1
 O  O11  1  0.56475  0.81475  0.25000  1
 O  O12  1  0.43525  0.18525  0.75000  1
 O  O13  1  0.95495  0.70495  0.40990  1
 O  O14  1  0.68525  0.31475  0.25000  1
 O  O15  1  0.06475  0.93525  0.25000  1
 O  O16  1  0.31475  0.68525  0.75000  1
 Sr  Sr1  1  0.80000  0.05000  0.10001  1
 Sr  Sr2  1  0.55000  0.30000  0.60001  1
 Sr  Sr3  1  0.70000  0.45000  0.89999  1
 Sr  Sr4  1  0.95000  0.20000  0.39999  1
 Sr  Sr5  1  0.05000  0.80000  0.60001  1
 Sr  Sr6  1  0.30000  0.55000  0.10001  1
 Sr  Sr7  1  0.45000  0.70000  0.39999  1
 Sr  Sr8  1  0.20000  0.95000  0.89999  1
