CIF file written using JARVIS-Tools package.
data_AlH3
_symmetry_space_group_name_H-M  'R-3c'
_cell_length_a       4.72691
_cell_length_b       4.7269
_cell_length_c       4.7269
_cell_angle_alpha    56.5086
_cell_angle_beta     56.5086
_cell_angle_gamma    56.5086

_symmetry_Int_Tables_number  167
_chemical_formula_structural  AlH3
_chemical_formula_sum  Al2H6
_cell_volume  68.65548339755745
_cell_formula_units_Z  2
loop_
  _symmetry_equiv_pos_site_id
 _symmetry_equiv_pos_as_xyz
 1  'x, y, z'
loop_
 _atom_site_type_symbol
 _atom_site_label
 _atom_site_symmetry_multiplicity
 _atom_site_fract_x
 _atom_site_fract_y
 _atom_site_fract_z
 _atom_site_fract_occupancy
 Al  Al1  1  0.50000  0.50000  0.50000  1
 Al  Al2  1  0.00000  0.00000  0.00000  1
 H  H1  1  0.37685  0.75000  0.12315  1
 H  H2  1  0.75000  0.12315  0.37685  1
 H  H3  1  0.87685  0.62315  0.25000  1
 H  H4  1  0.25000  0.87685  0.62315  1
 H  H5  1  0.62315  0.25000  0.87685  1
 H  H6  1  0.12315  0.37685  0.75000  1
