CIF file written using JARVIS-Tools package.
data_NaInBr4
_symmetry_space_group_name_H-M  'P2_12_12_1'
_cell_length_a       6.76722
_cell_length_b       10.4216
_cell_length_c       10.8617
_cell_angle_alpha    90
_cell_angle_beta     90
_cell_angle_gamma    90

_symmetry_Int_Tables_number  19
_chemical_formula_structural  NaInBr4
_chemical_formula_sum  Na4In4Br6
_cell_volume  766.0281399414607
_cell_formula_units_Z  4
loop_
  _symmetry_equiv_pos_site_id
 _symmetry_equiv_pos_as_xyz
 1  'x, y, z'
loop_
 _atom_site_type_symbol
 _atom_site_label
 _atom_site_symmetry_multiplicity
 _atom_site_fract_x
 _atom_site_fract_y
 _atom_site_fract_z
 _atom_site_fract_occupancy
 Br  Br1  1  0.07039  0.19622  0.36487  1
 Br  Br2  1  0.90426  0.49683  0.54141  1
 Br  Br3  1  0.57039  0.80378  0.13513  1
 Br  Br4  1  0.42961  0.69622  0.63513  1
 Br  Br5  1  0.44174  0.49261  0.32731  1
 Br  Br6  1  0.55826  0.00739  0.82731  1
 Br  Br7  1  0.05826  0.99261  0.67269  1
 Br  Br8  1  0.10075  0.79777  0.34073  1
 Br  Br9  1  0.94174  0.50739  0.17269  1
 Br  Br10  1  0.39925  0.29777  0.65927  1
 Br  Br11  1  0.60075  0.20223  0.15927  1
 Br  Br12  1  0.59574  -0.00317  0.45859  1
 Br  Br13  1  0.09574  0.00317  0.04141  1
 Br  Br14  1  0.89925  0.70223  0.84073  1
 Br  Br15  1  0.40426  0.50317  0.95859  1
 Br  Br16  1  0.92961  0.30378  0.86487  1
 In  In1  1  0.28144  0.49253  0.53905  1
 In  In2  1  0.71856  0.00747  0.03905  1
 In  In3  1  0.78144  0.50747  0.96095  1
 In  In4  1  0.21856  0.99253  0.46095  1
 Na  Na1  1  0.69400  0.71817  0.39711  1
 Na  Na2  1  0.19400  0.28183  0.10289  1
 Na  Na3  1  0.80600  0.21817  0.60289  1
 Na  Na4  1  0.30600  0.78183  0.89711  1
