CIF file written using JARVIS-Tools package.
data_TeWS
_symmetry_space_group_name_H-M  'P3m1'
_cell_length_a       3.36894
_cell_length_b       3.36895
_cell_length_c       23.6695
_cell_angle_alpha    90.0004
_cell_angle_beta     90
_cell_angle_gamma    120

_symmetry_Int_Tables_number  156
_chemical_formula_structural  TeWS
_chemical_formula_sum  Te2W2S2
_cell_volume  232.65265508015958
_cell_formula_units_Z  2
loop_
  _symmetry_equiv_pos_site_id
 _symmetry_equiv_pos_as_xyz
 1  'x, y, z'
loop_
 _atom_site_type_symbol
 _atom_site_label
 _atom_site_symmetry_multiplicity
 _atom_site_fract_x
 _atom_site_fract_y
 _atom_site_fract_z
 _atom_site_fract_occupancy
 S  S1  1  0.66664  0.33328  0.08670  1
 S  S2  1  0.66665  0.33329  0.21498  1
 Te  Te1  1  0.33336  0.66671  0.53131  1
 Te  Te2  1  0.33335  0.66671  0.37074  1
 W  W1  1  0.33331  0.66662  0.15087  1
 W  W2  1  0.66669  0.33338  0.45100  1
