CIF file written using JARVIS-Tools package.
data_YbAl2Ni
_symmetry_space_group_name_H-M  'Cmcm'
_cell_length_a       4.10358
_cell_length_b       5.27251
_cell_length_c       7.14402
_cell_angle_alpha    90
_cell_angle_beta     90
_cell_angle_gamma    112.902

_symmetry_Int_Tables_number  63
_chemical_formula_structural  YbAl2Ni
_chemical_formula_sum  Yb2Al4Ni2
_cell_volume  142.3852886241457
_cell_formula_units_Z  2
loop_
  _symmetry_equiv_pos_site_id
 _symmetry_equiv_pos_as_xyz
 1  'x, y, z'
loop_
 _atom_site_type_symbol
 _atom_site_label
 _atom_site_symmetry_multiplicity
 _atom_site_fract_x
 _atom_site_fract_y
 _atom_site_fract_z
 _atom_site_fract_occupancy
 Al  Al1  1  0.16020  0.32040  0.94406  1
 Al  Al2  1  0.83980  0.67960  0.05594  1
 Al  Al3  1  0.83980  0.67960  0.44406  1
 Al  Al4  1  0.16020  0.32040  0.55594  1
 Ni  Ni1  1  0.28099  0.56199  0.25000  1
 Ni  Ni2  1  0.71901  0.43801  0.75000  1
 Yb  Yb1  1  0.55420  0.10841  0.25000  1
 Yb  Yb2  1  0.44580  0.89159  0.75000  1
