CIF file written using JARVIS-Tools package.
data_LiO2
_symmetry_space_group_name_H-M  'C2/m'
_cell_length_a       4.12811
_cell_length_b       4.23511
_cell_length_c       4.23511
_cell_angle_alpha    87.603
_cell_angle_beta     120.372
_cell_angle_gamma    120.372

_symmetry_Int_Tables_number  12
_chemical_formula_structural  LiO2
_chemical_formula_sum  Li2O4
_cell_volume  52.79128223996783
_cell_formula_units_Z  2
loop_
  _symmetry_equiv_pos_site_id
 _symmetry_equiv_pos_as_xyz
 1  'x, y, z'
loop_
 _atom_site_type_symbol
 _atom_site_label
 _atom_site_symmetry_multiplicity
 _atom_site_fract_x
 _atom_site_fract_y
 _atom_site_fract_z
 _atom_site_fract_occupancy
 Li  Li1  1  0.50000  0.74936  0.25064  1
 Li  Li2  1  0.50000  0.25064  0.74936  1
 O  O1  1  0.00000  0.78726  0.21274  1
 O  O2  1  0.00000  0.21274  0.78726  1
 O  O3  1  0.42275  0.21379  0.21379  1
 O  O4  1  0.57725  0.78621  0.78621  1
