CIF file written using JARVIS-Tools package.
data_VInCuO5
_symmetry_space_group_name_H-M  'P2_1/c'
_cell_length_a       6.21883
_cell_length_b       8.86188
_cell_length_c       15.378
_cell_angle_alpha    106.608
_cell_angle_beta     90
_cell_angle_gamma    90

_symmetry_Int_Tables_number  14
_chemical_formula_structural  VInCuO5
_chemical_formula_sum  V8In8Cu8O40
_cell_volume  812.1376899746232
_cell_formula_units_Z  8
loop_
  _symmetry_equiv_pos_site_id
 _symmetry_equiv_pos_as_xyz
 1  'x, y, z'
loop_
 _atom_site_type_symbol
 _atom_site_label
 _atom_site_symmetry_multiplicity
 _atom_site_fract_x
 _atom_site_fract_y
 _atom_site_fract_z
 _atom_site_fract_occupancy
 Cu  Cu1  1  0.61157  0.71352  0.66378  1
 Cu  Cu2  1  0.11157  0.28648  0.83622  1
 Cu  Cu3  1  0.35264  0.06601  0.93381  1
 Cu  Cu4  1  0.14736  0.06601  0.43381  1
 Cu  Cu5  1  0.85264  0.93399  0.56619  1
 Cu  Cu6  1  0.64736  0.93399  0.06619  1
 Cu  Cu7  1  0.88843  0.71352  0.16378  1
 Cu  Cu8  1  0.38843  0.28648  0.33622  1
 In  In1  1  0.38959  0.70354  0.15186  1
 In  In2  1  0.11927  0.37559  0.04683  1
 In  In3  1  0.88959  0.29646  0.34814  1
 In  In4  1  0.11041  0.70354  0.65186  1
 In  In5  1  0.61927  0.62441  0.45317  1
 In  In6  1  0.38073  0.37559  0.54683  1
 In  In7  1  0.88073  0.62441  0.95317  1
 In  In8  1  0.61041  0.29646  0.84814  1
 O  O1  1  0.82828  0.71306  0.57052  1
 O  O2  1  0.12431  0.94462  0.64333  1
 O  O3  1  0.62431  0.05538  0.85667  1
 O  O4  1  0.88248  0.15053  0.56234  1
 O  O5  1  0.12404  0.72183  0.24853  1
 O  O6  1  0.37569  0.94462  0.14333  1
 O  O7  1  0.15409  0.13703  0.05057  1
 O  O8  1  0.07498  0.02825  0.84927  1
 O  O9  1  0.59068  0.55238  0.86601  1
 O  O10  1  0.61752  0.15053  0.06234  1
 O  O11  1  0.63808  0.42023  0.64339  1
 O  O12  1  0.10541  0.62964  0.06622  1
 O  O13  1  0.89459  0.37036  0.93378  1
 O  O14  1  0.17172  0.28694  0.42948  1
 O  O15  1  0.86192  0.42023  0.14339  1
 O  O16  1  0.57498  0.97175  0.65073  1
 O  O17  1  0.84591  0.86297  0.94943  1
 O  O18  1  0.67172  0.71306  0.07052  1
 O  O19  1  0.90932  0.55238  0.36601  1
 O  O20  1  0.36192  0.57977  0.35661  1
 O  O21  1  0.15342  0.23378  0.24738  1
 O  O22  1  0.65409  0.86297  0.44943  1
 O  O23  1  0.11752  0.84947  0.43766  1
 O  O24  1  0.38248  0.84947  0.93766  1
 O  O25  1  0.87569  0.05538  0.35667  1
 O  O26  1  0.37596  0.72183  0.74853  1
 O  O27  1  0.84658  0.76622  0.75262  1
 O  O28  1  0.62404  0.27817  0.25147  1
 O  O29  1  0.92502  0.97175  0.15073  1
 O  O30  1  0.42502  0.02825  0.34927  1
 O  O31  1  0.09068  0.44762  0.63399  1
 O  O32  1  0.39459  0.62964  0.56622  1
 O  O33  1  0.60541  0.37036  0.43378  1
 O  O34  1  0.13808  0.57977  0.85661  1
 O  O35  1  0.34658  0.23378  0.74738  1
 O  O36  1  0.32828  0.28694  0.92948  1
 O  O37  1  0.34591  0.13703  0.55057  1
 O  O38  1  0.65342  0.76622  0.25262  1
 O  O39  1  0.40932  0.44762  0.13399  1
 O  O40  1  0.87596  0.27817  0.75147  1
 V  V1  1  0.37406  0.67607  0.85318  1
 V  V2  1  0.12594  0.67607  0.35318  1
 V  V3  1  0.62594  0.32393  0.14682  1
 V  V4  1  0.87406  0.32393  0.64682  1
 V  V5  1  0.34652  0.06960  0.64762  1
 V  V6  1  0.84652  0.93040  0.85238  1
 V  V7  1  0.65348  0.93040  0.35238  1
 V  V8  1  0.15348  0.06960  0.14762  1
