CIF file written using JARVIS-Tools package.
data_K2BePb
_symmetry_space_group_name_H-M  'P4/mmm'
_cell_length_a       6.29736
_cell_length_b       6.29736
_cell_length_c       3.45304
_cell_angle_alpha    90
_cell_angle_beta     90
_cell_angle_gamma    90

_symmetry_Int_Tables_number  123
_chemical_formula_structural  K2BePb
_chemical_formula_sum  K2BePb
_cell_volume  136.93641235218448
_cell_formula_units_Z  1
loop_
  _symmetry_equiv_pos_site_id
 _symmetry_equiv_pos_as_xyz
 1  'x, y, z'
loop_
 _atom_site_type_symbol
 _atom_site_label
 _atom_site_symmetry_multiplicity
 _atom_site_fract_x
 _atom_site_fract_y
 _atom_site_fract_z
 _atom_site_fract_occupancy
 Be  Be1  1  0.00000  0.00000  0.50000  1
 K  K1  1  0.50000  0.00000  0.00000  1
 K  K2  1  0.00000  0.50000  0.00000  1
 Pb  Pb1  1  0.50000  0.50000  0.50000  1
