CIF file written using JARVIS-Tools package.
data_Ba2VP2O9
_symmetry_space_group_name_H-M  'C2/c'
_cell_length_a       5.50164
_cell_length_b       9.27238
_cell_length_c       9.49513
_cell_angle_alpha    109.454
_cell_angle_beta     90
_cell_angle_gamma    107.258

_symmetry_Int_Tables_number  15
_chemical_formula_structural  Ba2VP2O9
_chemical_formula_sum  Ba4V2P4O8
_cell_volume  433.5310881299726
_cell_formula_units_Z  2
loop_
  _symmetry_equiv_pos_site_id
 _symmetry_equiv_pos_as_xyz
 1  'x, y, z'
loop_
 _atom_site_type_symbol
 _atom_site_label
 _atom_site_symmetry_multiplicity
 _atom_site_fract_x
 _atom_site_fract_y
 _atom_site_fract_z
 _atom_site_fract_occupancy
 Ba  Ba1  1  0.70952  0.32432  0.57667  1
 Ba  Ba2  1  0.34677  0.67567  0.92332  1
 Ba  Ba3  1  0.67110  0.32433  0.07668  1
 Ba  Ba4  1  0.38519  0.67568  0.42333  1
 O  O1  1  0.07384  0.88964  0.81450  1
 O  O2  1  0.97539  0.38207  0.85217  1
 O  O3  1  0.91097  0.79170  0.03373  1
 O  O4  1  0.39394  -0.00000  0.50000  1
 O  O5  1  0.06926  0.66134  0.19175  1
 O  O6  1  0.87217  0.88965  0.31450  1
 O  O7  1  0.64838  0.66140  0.69176  1
 O  O8  1  0.11927  0.20830  0.96627  1
 O  O9  1  0.98252  0.11035  0.68550  1
 O  O10  1  0.66242  0.00000  0.00000  1
 O  O11  1  0.18420  0.11036  0.18550  1
 O  O12  1  0.40792  0.33866  0.80825  1
 O  O13  1  0.98698  0.33860  0.30824  1
 O  O14  1  0.46297  0.38210  0.35217  1
 O  O15  1  0.08086  0.61790  0.64783  1
 O  O16  1  0.14539  0.20830  0.46627  1
 O  O17  1  0.93709  0.79170  0.53373  1
 O  O18  1  0.59331  0.61793  0.14783  1
 P  P1  1  0.92886  0.73855  0.67519  1
 P  P2  1  0.12745  0.26146  0.82481  1
 P  P3  1  0.86599  0.73854  0.17519  1
 P  P4  1  0.19031  0.26145  0.32481  1
 V  V1  1  0.09269  -0.00000  0.50000  1
 V  V2  1  0.96366  0.00000  0.00000  1
