CIF file written using JARVIS-Tools package.
data_Ba2GaP4HO14
_symmetry_space_group_name_H-M  'P-1'
_cell_length_a       4.81234
_cell_length_b       7.58317
_cell_length_c       8.61341
_cell_angle_alpha    107.96
_cell_angle_beta     97.3418
_cell_angle_gamma    105.136

_symmetry_Int_Tables_number  2
_chemical_formula_structural  Ba2GaP4HO14
_chemical_formula_sum  Ba2GaP4HO4
_cell_volume  281.1122112964147
_cell_formula_units_Z  1
loop_
  _symmetry_equiv_pos_site_id
 _symmetry_equiv_pos_as_xyz
 1  'x, y, z'
loop_
 _atom_site_type_symbol
 _atom_site_label
 _atom_site_symmetry_multiplicity
 _atom_site_fract_x
 _atom_site_fract_y
 _atom_site_fract_z
 _atom_site_fract_occupancy
 Ba  Ba1  1  0.14471  0.47516  0.74085  1
 Ba  Ba2  1  0.85529  0.52484  0.25915  1
 Ga  Ga1  1  0.00000  0.00000  0.00000  1
 H  H1  1  -0.00000  0.00000  0.50000  1
 O  O1  1  0.26536  0.83960  0.99416  1
 O  O2  1  0.33562  0.67008  0.53095  1
 O  O3  1  0.66438  0.32992  0.46905  1
 O  O4  1  0.21620  0.13498  0.86655  1
 O  O5  1  0.15404  0.14914  0.48919  1
 O  O6  1  0.42002  0.95845  0.31187  1
 O  O7  1  0.24919  0.20728  0.21711  1
 O  O8  1  0.75081  0.79272  0.78289  1
 O  O9  1  0.84596  0.85086  0.51081  1
 O  O10  1  0.34409  0.60891  0.13986  1
 O  O11  1  0.78380  0.86502  0.13345  1
 O  O12  1  0.57998  0.04155  0.68813  1
 O  O13  1  0.65591  0.39109  0.86014  1
 O  O14  1  0.73464  0.16040  0.00584  1
 P  P1  1  0.54369  0.18519  0.86143  1
 P  P2  1  0.37346  0.17184  0.37541  1
 P  P3  1  0.62654  0.82816  0.62459  1
 P  P4  1  0.45631  0.81481  0.13857  1
