CIF file written using JARVIS-Tools package.
data_Ho2InNi2
_symmetry_space_group_name_H-M  'Cmmm'
_cell_length_a       3.6257
_cell_length_b       3.88783
_cell_length_c       7.35724
_cell_angle_alpha    105.32
_cell_angle_beta     90
_cell_angle_gamma    90

_symmetry_Int_Tables_number  65
_chemical_formula_structural  Ho2InNi2
_chemical_formula_sum  Ho2InNi2
_cell_volume  100.02303204502482
_cell_formula_units_Z  1
loop_
  _symmetry_equiv_pos_site_id
 _symmetry_equiv_pos_as_xyz
 1  'x, y, z'
loop_
 _atom_site_type_symbol
 _atom_site_label
 _atom_site_symmetry_multiplicity
 _atom_site_fract_x
 _atom_site_fract_y
 _atom_site_fract_z
 _atom_site_fract_occupancy
 Ho  Ho1  1  0.50000  0.63858  0.27716  1
 Ho  Ho2  1  0.50000  0.36142  0.72284  1
 In  In1  1  0.00000  0.00000  0.00000  1
 Ni  Ni1  1  0.00000  0.80174  0.60348  1
 Ni  Ni2  1  0.00000  0.19826  0.39652  1
