CIF file written using JARVIS-Tools package.
data_Fe4OF7
_symmetry_space_group_name_H-M  'Imm2'
_cell_length_a       5.73649
_cell_length_b       5.73649
_cell_length_c       5.73649
_cell_angle_alpha    74.2332
_cell_angle_beta     107.763
_cell_angle_gamma    64.9631

_symmetry_Int_Tables_number  44
_chemical_formula_structural  Fe4OF7
_chemical_formula_sum  Fe4OF7
_cell_volume  144.23904138914247
_cell_formula_units_Z  1
loop_
  _symmetry_equiv_pos_site_id
 _symmetry_equiv_pos_as_xyz
 1  'x, y, z'
loop_
 _atom_site_type_symbol
 _atom_site_label
 _atom_site_symmetry_multiplicity
 _atom_site_fract_x
 _atom_site_fract_y
 _atom_site_fract_z
 _atom_site_fract_occupancy
 F  F1  1  0.04622  0.75000  0.79622  1
 F  F2  1  0.50284  0.79272  0.70167  1
 F  F3  1  0.99439  0.30117  0.70167  1
 F  F4  1  0.99439  0.70728  0.29556  1
 F  F5  1  0.50284  0.19883  0.29556  1
 F  F6  1  0.97075  0.25000  0.22075  1
 F  F7  1  0.43914  0.75000  0.18914  1
 Fe  Fe1  1  0.74344  0.75000  0.49344  1
 Fe  Fe2  1  0.27361  0.25000  0.52361  1
 Fe  Fe3  1  0.51179  0.47986  0.99165  1
 Fe  Fe4  1  0.97151  0.02014  0.99165  1
 O  O1  1  0.54909  0.25000  0.79909  1
