CIF file written using JARVIS-Tools package.
data_NbSe2
_symmetry_space_group_name_H-M  'P6_3/mmc'
_cell_length_a       3.48766
_cell_length_b       3.48766
_cell_length_c       13.0234
_cell_angle_alpha    90
_cell_angle_beta     90
_cell_angle_gamma    119.999

_symmetry_Int_Tables_number  194
_chemical_formula_structural  NbSe2
_chemical_formula_sum  Nb2Se4
_cell_volume  137.19260931017865
_cell_formula_units_Z  2
loop_
  _symmetry_equiv_pos_site_id
 _symmetry_equiv_pos_as_xyz
 1  'x, y, z'
loop_
 _atom_site_type_symbol
 _atom_site_label
 _atom_site_symmetry_multiplicity
 _atom_site_fract_x
 _atom_site_fract_y
 _atom_site_fract_z
 _atom_site_fract_occupancy
 Nb  Nb1  1  0.66664  0.33336  0.75000  1
 Nb  Nb2  1  0.33336  0.66664  0.25000  1
 Se  Se1  1  0.66670  0.33330  0.12066  1
 Se  Se2  1  0.33330  0.66670  0.87934  1
 Se  Se3  1  0.33330  0.66670  0.62066  1
 Se  Se4  1  0.66670  0.33330  0.37934  1
