CIF file written using JARVIS-Tools package.
data_Mg6GaMo
_symmetry_space_group_name_H-M  'Amm2'
_cell_length_a       6.12882
_cell_length_b       5.87432
_cell_length_c       4.91544
_cell_angle_alpha    90
_cell_angle_beta     90
_cell_angle_gamma    118.636

_symmetry_Int_Tables_number  38
_chemical_formula_structural  Mg6GaMo
_chemical_formula_sum  Mg6GaMo
_cell_volume  155.32307124766388
_cell_formula_units_Z  1
loop_
  _symmetry_equiv_pos_site_id
 _symmetry_equiv_pos_as_xyz
 1  'x, y, z'
loop_
 _atom_site_type_symbol
 _atom_site_label
 _atom_site_symmetry_multiplicity
 _atom_site_fract_x
 _atom_site_fract_y
 _atom_site_fract_z
 _atom_site_fract_occupancy
 Ga  Ga1  1  0.16128  0.83064  0.25000  1
 Mg  Mg1  1  0.65667  0.32731  0.25000  1
 Mg  Mg2  1  0.65667  0.82937  0.25000  1
 Mg  Mg3  1  0.33329  0.17732  0.75000  1
 Mg  Mg4  1  0.33329  0.65597  0.75000  1
 Mg  Mg5  1  0.85488  0.17744  0.75000  1
 Mg  Mg6  1  0.85092  0.67546  0.75000  1
 Mo  Mo1  1  0.15298  0.32649  0.25000  1
