CIF file written using JARVIS-Tools package.
data_BaO2
_symmetry_space_group_name_H-M  'I4/mmm'
_cell_length_a       3.84023
_cell_length_b       3.84024
_cell_length_c       4.39959
_cell_angle_alpha    115.876
_cell_angle_beta     115.876
_cell_angle_gamma    90

_symmetry_Int_Tables_number  139
_chemical_formula_structural  BaO2
_chemical_formula_sum  BaO2
_cell_volume  51.04972564792142
_cell_formula_units_Z  1
loop_
  _symmetry_equiv_pos_site_id
 _symmetry_equiv_pos_as_xyz
 1  'x, y, z'
loop_
 _atom_site_type_symbol
 _atom_site_label
 _atom_site_symmetry_multiplicity
 _atom_site_fract_x
 _atom_site_fract_y
 _atom_site_fract_z
 _atom_site_fract_occupancy
 Ba  Ba1  1  0.00000  0.00000  0.00000  1
 O  O1  1  0.39122  0.39122  0.78244  1
 O  O2  1  0.60878  0.60878  0.21756  1
