CIF file written using JARVIS-Tools package.
data_Sb2MoSe
_symmetry_space_group_name_H-M  'P2_1/c'
_cell_length_a       6.60668
_cell_length_b       6.61657
_cell_length_c       18.6544
_cell_angle_alpha    94.2519
_cell_angle_beta     90
_cell_angle_gamma    90

_symmetry_Int_Tables_number  14
_chemical_formula_structural  Sb2MoSe
_chemical_formula_sum  Sb6Mo8Se8
_cell_volume  813.2074682922356
_cell_formula_units_Z  8
loop_
  _symmetry_equiv_pos_site_id
 _symmetry_equiv_pos_as_xyz
 1  'x, y, z'
loop_
 _atom_site_type_symbol
 _atom_site_label
 _atom_site_symmetry_multiplicity
 _atom_site_fract_x
 _atom_site_fract_y
 _atom_site_fract_z
 _atom_site_fract_occupancy
 Mo  Mo1  1  0.37467  0.32754  0.49425  1
 Mo  Mo2  1  0.87551  0.32780  0.49436  1
 Mo  Mo3  1  0.37551  0.67220  0.00564  1
 Mo  Mo4  1  0.12449  0.67220  0.50564  1
 Mo  Mo5  1  0.62449  0.32780  0.99436  1
 Mo  Mo6  1  0.62533  0.67246  0.50575  1
 Mo  Mo7  1  0.12533  0.32754  0.99425  1
 Mo  Mo8  1  0.87467  0.67246  0.00575  1
 Sb  Sb1  1  0.62472  0.92383  0.92483  1
 Sb  Sb2  1  0.40027  0.79598  0.27261  1
 Sb  Sb3  1  0.90027  0.20402  0.22739  1
 Sb  Sb4  1  0.59973  0.20402  0.72739  1
 Sb  Sb5  1  0.12472  0.07617  0.57517  1
 Sb  Sb6  1  0.85020  0.79572  0.27239  1
 Sb  Sb7  1  0.37528  0.07617  0.07517  1
 Sb  Sb8  1  0.09973  0.79598  0.77261  1
 Sb  Sb9  1  0.12491  0.92396  0.92510  1
 Sb  Sb10  1  0.62491  0.07604  0.57490  1
 Sb  Sb11  1  0.87509  0.07604  0.07490  1
 Sb  Sb12  1  0.87528  0.92383  0.42483  1
 Sb  Sb13  1  0.64980  0.79572  0.77239  1
 Sb  Sb14  1  0.14980  0.20428  0.72761  1
 Sb  Sb15  1  0.35020  0.20428  0.22761  1
 Sb  Sb16  1  0.37509  0.92396  0.42510  1
 Se  Se1  1  0.37501  0.41126  0.89932  1
 Se  Se2  1  0.87482  0.41057  0.89945  1
 Se  Se3  1  0.37482  0.58943  0.60055  1
 Se  Se4  1  0.12518  0.58943  0.10055  1
 Se  Se5  1  0.62518  0.41057  0.39945  1
 Se  Se6  1  0.62499  0.58874  0.10068  1
 Se  Se7  1  0.12499  0.41126  0.39932  1
 Se  Se8  1  0.87501  0.58874  0.60068  1
