CIF file written using JARVIS-Tools package.
data_BaMnP2O7
_symmetry_space_group_name_H-M  'P-1'
_cell_length_a       5.48014
_cell_length_b       7.25293
_cell_length_c       7.62612
_cell_angle_alpha    102.436
_cell_angle_beta     90.9302
_cell_angle_gamma    93.7075

_symmetry_Int_Tables_number  2
_chemical_formula_structural  BaMnP2O7
_chemical_formula_sum  Ba2Mn2P4O4
_cell_volume  295.242973774012
_cell_formula_units_Z  2
loop_
  _symmetry_equiv_pos_site_id
 _symmetry_equiv_pos_as_xyz
 1  'x, y, z'
loop_
 _atom_site_type_symbol
 _atom_site_label
 _atom_site_symmetry_multiplicity
 _atom_site_fract_x
 _atom_site_fract_y
 _atom_site_fract_z
 _atom_site_fract_occupancy
 Ba  Ba1  1  0.78088  0.22862  0.06866  1
 Ba  Ba2  1  0.21912  0.77138  0.93134  1
 Mn  Mn1  1  0.79354  0.38146  0.60452  1
 Mn  Mn2  1  0.20646  0.61854  0.39548  1
 O  O1  1  0.45365  0.73179  0.60517  1
 O  O2  1  0.77413  0.00471  0.73316  1
 O  O3  1  0.22587  -0.00471  0.26684  1
 O  O4  1  0.09659  0.32806  0.40117  1
 O  O5  1  0.90341  0.67194  0.59883  1
 O  O6  1  0.73359  0.87626  0.40083  1
 O  O7  1  0.26641  0.12374  0.59917  1
 O  O8  1  0.06374  0.38942  0.80524  1
 O  O9  1  0.47321  0.60659  0.19798  1
 O  O10  1  0.93626  0.61058  0.19476  1
 O  O11  1  0.28183  0.15050  0.93583  1
 O  O12  1  0.71817  0.84950  0.06417  1
 O  O13  1  0.54635  0.26821  0.39483  1
 O  O14  1  0.52679  0.39341  0.80202  1
 P  P1  1  0.71258  0.73114  0.20626  1
 P  P2  1  0.28742  0.26886  0.79374  1
 P  P3  1  0.71335  0.82409  0.59778  1
 P  P4  1  0.28665  0.17591  0.40222  1
