CIF file written using JARVIS-Tools package.
data_SiO2
_symmetry_space_group_name_H-M  'C2/c'
_cell_length_a       4.85254
_cell_length_b       7.33713
_cell_length_c       7.355
_cell_angle_alpha    72.6861
_cell_angle_beta     70.7384
_cell_angle_gamma    70.6897

_symmetry_Int_Tables_number  15
_chemical_formula_structural  SiO2
_chemical_formula_sum  Si6O2
_cell_volume  228.01641066602835
_cell_formula_units_Z  6
loop_
  _symmetry_equiv_pos_site_id
 _symmetry_equiv_pos_as_xyz
 1  'x, y, z'
loop_
 _atom_site_type_symbol
 _atom_site_label
 _atom_site_symmetry_multiplicity
 _atom_site_fract_x
 _atom_site_fract_y
 _atom_site_fract_z
 _atom_site_fract_occupancy
 O  O1  1  0.37123  0.23955  0.18124  1
 O  O2  1  0.82796  0.05744  0.81964  1
 O  O3  1  0.29496  0.55744  0.31964  1
 O  O4  1  0.17204  0.94256  0.18036  1
 O  O5  1  0.26716  0.21432  0.56953  1
 O  O6  1  0.05101  0.28568  0.93047  1
 O  O7  1  0.20798  0.73955  0.68124  1
 O  O8  1  0.70504  0.44256  0.68036  1
 O  O9  1  0.79202  0.26045  0.31876  1
 O  O10  1  0.94899  0.71432  0.06953  1
 O  O11  1  0.73284  0.78568  0.43047  1
 O  O12  1  0.62877  0.76045  0.81876  1
 Si  Si1  1  0.96285  0.25000  0.75000  1
 Si  Si2  1  0.42815  0.31864  0.34871  1
 Si  Si3  1  0.09550  0.18136  0.15129  1
 Si  Si4  1  0.57185  0.68136  0.65129  1
 Si  Si5  1  0.90450  0.81864  0.84871  1
 Si  Si6  1  0.03715  0.75000  0.25000  1
