CIF file written using JARVIS-Tools package.
data_B2Os
_symmetry_space_group_name_H-M  'Pmmn'
_cell_length_a       2.89928
_cell_length_b       4.10815
_cell_length_c       4.71359
_cell_angle_alpha    90
_cell_angle_beta     90
_cell_angle_gamma    90

_symmetry_Int_Tables_number  59
_chemical_formula_structural  B2Os
_chemical_formula_sum  B4Os2
_cell_volume  56.14213725349892
_cell_formula_units_Z  2
loop_
  _symmetry_equiv_pos_site_id
 _symmetry_equiv_pos_as_xyz
 1  'x, y, z'
loop_
 _atom_site_type_symbol
 _atom_site_label
 _atom_site_symmetry_multiplicity
 _atom_site_fract_x
 _atom_site_fract_y
 _atom_site_fract_z
 _atom_site_fract_occupancy
 B  B1  1  0.00000  0.36168  0.80689  1
 B  B2  1  0.50000  0.63832  0.69311  1
 B  B3  1  0.00000  0.36168  0.19311  1
 B  B4  1  0.50000  0.63832  0.30689  1
 Os  Os1  1  0.00000  0.84421  0.00000  1
 Os  Os2  1  0.50000  0.15579  0.50000  1
