CIF file written using JARVIS-Tools package.
data_Li2Tl
_symmetry_space_group_name_H-M  'Cmcm'
_cell_length_a       4.68757
_cell_length_b       4.79931
_cell_length_c       5.55944
_cell_angle_alpha    90
_cell_angle_beta     114.935
_cell_angle_gamma    90

_symmetry_Int_Tables_number  63
_chemical_formula_structural  Li2Tl
_chemical_formula_sum  Li4Tl2
_cell_volume  113.4129971121749
_cell_formula_units_Z  2
loop_
  _symmetry_equiv_pos_site_id
 _symmetry_equiv_pos_as_xyz
 1  'x, y, z'
loop_
 _atom_site_type_symbol
 _atom_site_label
 _atom_site_symmetry_multiplicity
 _atom_site_fract_x
 _atom_site_fract_y
 _atom_site_fract_z
 _atom_site_fract_occupancy
 Li  Li1  1  0.24300  0.75000  0.48600  1
 Li  Li2  1  0.75700  0.25000  0.51400  1
 Li  Li3  1  0.58184  0.75000  0.16368  1
 Li  Li4  1  0.41816  0.25000  0.83632  1
 Tl  Tl1  1  0.90138  0.75000  0.80275  1
 Tl  Tl2  1  0.09862  0.25000  0.19725  1
