CIF file written using JARVIS-Tools package.
data_LiMg6Al
_symmetry_space_group_name_H-M  'Amm2'
_cell_length_a       6.26265
_cell_length_b       6.26265
_cell_length_c       5.01867
_cell_angle_alpha    90
_cell_angle_beta     90
_cell_angle_gamma    119.817

_symmetry_Int_Tables_number  38
_chemical_formula_structural  LiMg6Al
_chemical_formula_sum  LiMg6Al
_cell_volume  170.77902858559315
_cell_formula_units_Z  1
loop_
  _symmetry_equiv_pos_site_id
 _symmetry_equiv_pos_as_xyz
 1  'x, y, z'
loop_
 _atom_site_type_symbol
 _atom_site_label
 _atom_site_symmetry_multiplicity
 _atom_site_fract_x
 _atom_site_fract_y
 _atom_site_fract_z
 _atom_site_fract_occupancy
 Al  Al1  1  0.16873  0.33127  0.25000  1
 Li  Li1  1  0.33049  0.16951  0.75000  1
 Mg  Mg1  1  0.16769  0.83984  0.25000  1
 Mg  Mg2  1  0.66016  0.33231  0.25000  1
 Mg  Mg3  1  0.66689  0.83311  0.25000  1
 Mg  Mg4  1  0.33152  0.66037  0.75000  1
 Mg  Mg5  1  0.83963  0.16848  0.75000  1
 Mg  Mg6  1  0.83489  0.66511  0.75000  1
