CIF file written using JARVIS-Tools package.
data_HoSi3Ir
_symmetry_space_group_name_H-M  'I4mm'
_cell_length_a       4.2075
_cell_length_b       4.2075
_cell_length_c       5.73409
_cell_angle_alpha    111.524
_cell_angle_beta     111.524
_cell_angle_gamma    90

_symmetry_Int_Tables_number  107
_chemical_formula_structural  HoSi3Ir
_chemical_formula_sum  HoSi3Ir
_cell_volume  86.77787856821145
_cell_formula_units_Z  1
loop_
  _symmetry_equiv_pos_site_id
 _symmetry_equiv_pos_as_xyz
 1  'x, y, z'
loop_
 _atom_site_type_symbol
 _atom_site_label
 _atom_site_symmetry_multiplicity
 _atom_site_fract_x
 _atom_site_fract_y
 _atom_site_fract_z
 _atom_site_fract_occupancy
 Ho  Ho1  1  0.99838  0.99838  0.99676  1
 Ir  Ir1  1  0.65189  0.65189  0.30378  1
 Si  Si1  1  0.41405  0.41405  0.82810  1
 Si  Si2  1  0.76484  0.26484  0.52968  1
 Si  Si3  1  0.26484  0.76484  0.52968  1
