CIF file written using JARVIS-Tools package.
data_LiFeO3
_symmetry_space_group_name_H-M  'C2/m'
_cell_length_a       2.80128
_cell_length_b       5.85356
_cell_length_c       6.38854
_cell_angle_alpha    101.95
_cell_angle_beta     102.665
_cell_angle_gamma    90

_symmetry_Int_Tables_number  12
_chemical_formula_structural  LiFeO3
_chemical_formula_sum  Li2Fe2O6
_cell_volume  99.8789600746425
_cell_formula_units_Z  2
loop_
  _symmetry_equiv_pos_site_id
 _symmetry_equiv_pos_as_xyz
 1  'x, y, z'
loop_
 _atom_site_type_symbol
 _atom_site_label
 _atom_site_symmetry_multiplicity
 _atom_site_fract_x
 _atom_site_fract_y
 _atom_site_fract_z
 _atom_site_fract_occupancy
 Fe  Fe1  1  0.00167  0.98247  0.00332  1
 Fe  Fe2  1  0.66501  0.35086  0.33001  1
 Li  Li1  1  0.33333  0.16667  0.66667  1
 Li  Li2  1  0.33333  0.66667  0.66666  1
 O  O1  1  0.80809  0.40724  0.61616  1
 O  O2  1  0.16042  0.12017  0.32083  1
 O  O3  1  0.85858  0.92610  0.71717  1
 O  O4  1  0.15545  0.54283  0.31091  1
 O  O5  1  0.50625  0.21316  0.01251  1
 O  O6  1  0.51121  0.79050  0.02242  1
