CIF file written using JARVIS-Tools package.
data_Er3P6Pd20
_symmetry_space_group_name_H-M  'Fm-3m'
_cell_length_a       8.66583
_cell_length_b       8.66583
_cell_length_c       8.66583
_cell_angle_alpha    60
_cell_angle_beta     60
_cell_angle_gamma    60

_symmetry_Int_Tables_number  225
_chemical_formula_structural  Er3P6Pd20
_chemical_formula_sum  Er3P6Pd20
_cell_volume  460.16784029165024
_cell_formula_units_Z  1
loop_
  _symmetry_equiv_pos_site_id
 _symmetry_equiv_pos_as_xyz
 1  'x, y, z'
loop_
 _atom_site_type_symbol
 _atom_site_label
 _atom_site_symmetry_multiplicity
 _atom_site_fract_x
 _atom_site_fract_y
 _atom_site_fract_z
 _atom_site_fract_occupancy
 Er  Er1  1  0.00000  0.00000  0.00000  1
 Er  Er2  1  0.75000  0.75000  0.75000  1
 Er  Er3  1  0.25000  0.25000  0.25000  1
 P  P1  1  0.26364  0.26364  0.73636  1
 P  P2  1  0.73636  0.26364  0.73636  1
 P  P3  1  0.26364  0.73636  0.73636  1
 P  P4  1  0.73636  0.26364  0.26364  1
 P  P5  1  0.73636  0.73636  0.26364  1
 P  P6  1  0.26364  0.73636  0.26364  1
 Pd  Pd1  1  0.61664  0.61664  0.15009  1
 Pd  Pd2  1  0.00000  0.00000  0.34518  1
 Pd  Pd3  1  0.65482  0.34518  0.00000  1
 Pd  Pd4  1  -0.00000  0.65482  0.34518  1
 Pd  Pd5  1  0.65482  -0.00000  0.00000  1
 Pd  Pd6  1  0.34518  0.00000  0.65482  1
 Pd  Pd7  1  0.38336  0.38336  0.84991  1
 Pd  Pd8  1  0.84991  0.38336  0.38336  1
 Pd  Pd9  1  0.61664  0.15009  0.61664  1
 Pd  Pd10  1  0.65482  -0.00000  0.34518  1
 Pd  Pd11  1  0.00000  0.34518  -0.00000  1
 Pd  Pd12  1  0.15009  0.61664  0.61664  1
 Pd  Pd13  1  0.00000  0.34518  0.65482  1
 Pd  Pd14  1  0.38336  0.38336  0.38336  1
 Pd  Pd15  1  0.61664  0.61664  0.61664  1
 Pd  Pd16  1  0.38336  0.84991  0.38336  1
 Pd  Pd17  1  -0.00000  0.65482  0.00000  1
 Pd  Pd18  1  -0.00000  -0.00000  0.65482  1
 Pd  Pd19  1  0.34518  0.65482  -0.00000  1
 Pd  Pd20  1  0.34518  0.00000  -0.00000  1
