CIF file written using JARVIS-Tools package.
data_CaCo2As2
_symmetry_space_group_name_H-M  'I4/mmm'
_cell_length_a       3.99673
_cell_length_b       3.99673
_cell_length_c       5.91304
_cell_angle_alpha    109.753
_cell_angle_beta     109.753
_cell_angle_gamma    90

_symmetry_Int_Tables_number  139
_chemical_formula_structural  CaCo2As2
_chemical_formula_sum  CaCo2As2
_cell_volume  82.96723186021151
_cell_formula_units_Z  1
loop_
  _symmetry_equiv_pos_site_id
 _symmetry_equiv_pos_as_xyz
 1  'x, y, z'
loop_
 _atom_site_type_symbol
 _atom_site_label
 _atom_site_symmetry_multiplicity
 _atom_site_fract_x
 _atom_site_fract_y
 _atom_site_fract_z
 _atom_site_fract_occupancy
 As  As1  1  0.36537  0.36537  0.73073  1
 As  As2  1  0.63463  0.63463  0.26927  1
 Ca  Ca1  1  0.00000  0.00000  0.00000  1
 Co  Co1  1  0.25000  0.75000  0.50000  1
 Co  Co2  1  0.75000  0.25000  0.50000  1
