CIF file written using JARVIS-Tools package.
data_Mg6ZrBi
_symmetry_space_group_name_H-M  'Amm2'
_cell_length_a       6.3958
_cell_length_b       6.3958
_cell_length_c       4.68141
_cell_angle_alpha    90
_cell_angle_beta     90
_cell_angle_gamma    103.114

_symmetry_Int_Tables_number  38
_chemical_formula_structural  Mg6ZrBi
_chemical_formula_sum  Mg6ZrBi
_cell_volume  186.50495914574356
_cell_formula_units_Z  1
loop_
  _symmetry_equiv_pos_site_id
 _symmetry_equiv_pos_as_xyz
 1  'x, y, z'
loop_
 _atom_site_type_symbol
 _atom_site_label
 _atom_site_symmetry_multiplicity
 _atom_site_fract_x
 _atom_site_fract_y
 _atom_site_fract_z
 _atom_site_fract_occupancy
 Bi  Bi1  1  0.32459  0.17541  0.75000  1
 Mg  Mg1  1  0.15641  0.87079  0.25000  1
 Mg  Mg2  1  0.62921  0.34359  0.25000  1
 Mg  Mg3  1  0.67469  0.82531  0.25000  1
 Mg  Mg4  1  0.38414  0.67334  0.75000  1
 Mg  Mg5  1  0.82666  0.11586  0.75000  1
 Mg  Mg6  1  0.89136  0.60864  0.75000  1
 Zr  Zr1  1  0.11294  0.38706  0.25000  1
