CIF file written using JARVIS-Tools package.
data_LiMg2
_symmetry_space_group_name_H-M  'P-62m'
_cell_length_a       5.4566
_cell_length_b       5.4566
_cell_length_c       5.01957
_cell_angle_alpha    90
_cell_angle_beta     90
_cell_angle_gamma    120

_symmetry_Int_Tables_number  189
_chemical_formula_structural  LiMg2
_chemical_formula_sum  Li2Mg4
_cell_volume  129.43189839566773
_cell_formula_units_Z  2
loop_
  _symmetry_equiv_pos_site_id
 _symmetry_equiv_pos_as_xyz
 1  'x, y, z'
loop_
 _atom_site_type_symbol
 _atom_site_label
 _atom_site_symmetry_multiplicity
 _atom_site_fract_x
 _atom_site_fract_y
 _atom_site_fract_z
 _atom_site_fract_occupancy
 Li  Li1  1  0.66667  0.33333  0.50000  1
 Li  Li2  1  0.33333  0.66667  0.50000  1
 Mg  Mg1  1  0.66135  0.00000  0.00000  1
 Mg  Mg2  1  0.33865  0.33865  0.00000  1
 Mg  Mg3  1  0.00000  0.66135  0.00000  1
 Mg  Mg4  1  0.00000  0.00000  0.50000  1
