CIF file written using JARVIS-Tools package.
data_W3O
_symmetry_space_group_name_H-M  'Pm-3n'
_cell_length_a       4.88433
_cell_length_b       4.88433
_cell_length_c       4.88433
_cell_angle_alpha    90
_cell_angle_beta     90
_cell_angle_gamma    90

_symmetry_Int_Tables_number  223
_chemical_formula_structural  W3O
_chemical_formula_sum  W6O2
_cell_volume  116.52420383876388
_cell_formula_units_Z  2
loop_
  _symmetry_equiv_pos_site_id
 _symmetry_equiv_pos_as_xyz
 1  'x, y, z'
loop_
 _atom_site_type_symbol
 _atom_site_label
 _atom_site_symmetry_multiplicity
 _atom_site_fract_x
 _atom_site_fract_y
 _atom_site_fract_z
 _atom_site_fract_occupancy
 O  O1  1  0.50000  0.50000  0.50000  1
 O  O2  1  0.00000  0.00000  0.00000  1
 W  W1  1  0.75000  0.50000  0.00000  1
 W  W2  1  0.50000  0.00000  0.75000  1
 W  W3  1  0.00000  0.75000  0.50000  1
 W  W4  1  0.25000  0.50000  0.00000  1
 W  W5  1  0.50000  0.00000  0.25000  1
 W  W6  1  0.00000  0.25000  0.50000  1
