CIF file written using JARVIS-Tools package.
data_In2Te3
_symmetry_space_group_name_H-M  'R-3m'
_cell_length_a       4.344
_cell_length_b       4.344
_cell_length_c       9.96621
_cell_angle_alpha    77.4121
_cell_angle_beta     77.4121
_cell_angle_gamma    60.0001

_symmetry_Int_Tables_number  166
_chemical_formula_structural  In2Te3
_chemical_formula_sum  In2Te3
_cell_volume  157.62791458793328
_cell_formula_units_Z  1
loop_
  _symmetry_equiv_pos_site_id
 _symmetry_equiv_pos_as_xyz
 1  'x, y, z'
loop_
 _atom_site_type_symbol
 _atom_site_label
 _atom_site_symmetry_multiplicity
 _atom_site_fract_x
 _atom_site_fract_y
 _atom_site_fract_z
 _atom_site_fract_occupancy
 In  In1  1  0.40086  0.40086  0.79742  1
 In  In2  1  0.59914  0.59914  0.20258  1
 Te  Te1  1  0.78680  0.78680  0.63959  1
 Te  Te2  1  0.21320  0.21320  0.36041  1
 Te  Te3  1  0.00000  0.00000  0.00000  1
