CIF file written using JARVIS-Tools package.
data_Nd3CuGeSe7
_symmetry_space_group_name_H-M  'P6_3'
_cell_length_a       10.6125
_cell_length_b       10.6125
_cell_length_c       6.13322
_cell_angle_alpha    90
_cell_angle_beta     90
_cell_angle_gamma    120

_symmetry_Int_Tables_number  173
_chemical_formula_structural  Nd3CuGeSe7
_chemical_formula_sum  Nd6Cu2Ge2Se4
_cell_volume  598.207496502854
_cell_formula_units_Z  2
loop_
  _symmetry_equiv_pos_site_id
 _symmetry_equiv_pos_as_xyz
 1  'x, y, z'
loop_
 _atom_site_type_symbol
 _atom_site_label
 _atom_site_symmetry_multiplicity
 _atom_site_fract_x
 _atom_site_fract_y
 _atom_site_fract_z
 _atom_site_fract_occupancy
 Cu  Cu1  1  0.00000  0.00000  0.71753  1
 Cu  Cu2  1  0.00000  0.00000  0.21753  1
 Ge  Ge1  1  0.66667  0.33333  0.83149  1
 Ge  Ge2  1  0.33333  0.66667  0.33149  1
 Nd  Nd1  1  0.35593  0.13127  0.24871  1
 Nd  Nd2  1  0.86873  0.22466  0.24871  1
 Nd  Nd3  1  0.77534  0.64407  0.24871  1
 Nd  Nd4  1  0.64407  0.86873  0.74871  1
 Nd  Nd5  1  0.22466  0.35593  0.74871  1
 Nd  Nd6  1  0.13127  0.77534  0.74871  1
 Se  Se1  1  0.66667  0.33333  0.44754  1
 Se  Se2  1  0.74191  0.90405  0.22939  1
 Se  Se3  1  0.16215  0.25809  0.22939  1
 Se  Se4  1  0.90405  0.16215  0.72939  1
 Se  Se5  1  0.57819  0.09644  0.99125  1
 Se  Se6  1  0.48175  0.57819  0.49125  1
 Se  Se7  1  0.90356  0.48175  0.99125  1
 Se  Se8  1  0.42181  0.90356  0.49125  1
 Se  Se9  1  0.09595  0.83785  0.22939  1
 Se  Se10  1  0.51825  0.42181  0.99125  1
 Se  Se11  1  0.33333  0.66667  0.94754  1
 Se  Se12  1  0.09644  0.51825  0.49125  1
 Se  Se13  1  0.25809  0.09595  0.72939  1
 Se  Se14  1  0.83785  0.74191  0.72939  1
