CIF file written using JARVIS-Tools package.
data_CuAg2O2
_symmetry_space_group_name_H-M  'I4/mmm'
_cell_length_a       4.03763
_cell_length_b       4.03806
_cell_length_c       5.09224
_cell_angle_alpha    113.361
_cell_angle_beta     113.365
_cell_angle_gamma    90.0028

_symmetry_Int_Tables_number  139
_chemical_formula_structural  CuAg2O2
_chemical_formula_sum  CuAg2O2
_cell_volume  68.73959530310962
_cell_formula_units_Z  1
loop_
  _symmetry_equiv_pos_site_id
 _symmetry_equiv_pos_as_xyz
 1  'x, y, z'
loop_
 _atom_site_type_symbol
 _atom_site_label
 _atom_site_symmetry_multiplicity
 _atom_site_fract_x
 _atom_site_fract_y
 _atom_site_fract_z
 _atom_site_fract_occupancy
 Ag  Ag1  1  0.24998  0.74999  0.49998  1
 Ag  Ag2  1  0.75002  0.25001  0.50002  1
 Cu  Cu1  1  0.00000  0.00000  0.00000  1
 O  O1  1  -0.00000  0.50000  -0.00000  1
 O  O2  1  0.50000  0.00000  0.00000  1
