CIF file written using JARVIS-Tools package.
data_Ge4PbO9
_symmetry_space_group_name_H-M  'P321'
_cell_length_a       11.5105
_cell_length_b       11.5105
_cell_length_c       4.82361
_cell_angle_alpha    90
_cell_angle_beta     90
_cell_angle_gamma    120

_symmetry_Int_Tables_number  150
_chemical_formula_structural  Ge4PbO9
_chemical_formula_sum  Ge2Pb3O27
_cell_volume  553.4642050351142
_cell_formula_units_Z  3
loop_
  _symmetry_equiv_pos_site_id
 _symmetry_equiv_pos_as_xyz
 1  'x, y, z'
loop_
 _atom_site_type_symbol
 _atom_site_label
 _atom_site_symmetry_multiplicity
 _atom_site_fract_x
 _atom_site_fract_y
 _atom_site_fract_z
 _atom_site_fract_occupancy
 Ge  Ge1  1  0.66667  0.33333  0.11480  1
 Ge  Ge2  1  0.81956  0.81956  0.50000  1
 Ge  Ge3  1  0.00000  0.18044  0.50000  1
 Ge  Ge4  1  0.18044  0.00000  0.50000  1
 Ge  Ge5  1  0.85109  0.34249  0.60496  1
 Ge  Ge6  1  0.65751  0.50860  0.60496  1
 Ge  Ge7  1  0.49140  0.14891  0.60496  1
 Ge  Ge8  1  0.50860  0.65751  0.39504  1
 Ge  Ge9  1  0.14891  0.49140  0.39504  1
 Ge  Ge10  1  0.33333  0.66667  0.88520  1
 Ge  Ge11  1  0.00000  0.00000  0.00000  1
 Ge  Ge12  1  0.34249  0.85109  0.39504  1
 O  O1  1  0.67540  0.78219  0.28642  1
 O  O2  1  0.32460  0.10679  0.71358  1
 O  O3  1  0.89321  0.21781  0.71358  1
 O  O4  1  0.78219  0.67540  0.71358  1
 O  O5  1  0.21781  0.89321  0.28642  1
 O  O6  1  0.10679  0.32460  0.28642  1
 O  O7  1  0.09531  0.15441  0.76135  1
 O  O8  1  0.90469  0.05910  0.23865  1
 O  O9  1  0.94090  0.84559  0.23865  1
 O  O10  1  0.05910  0.90469  0.76135  1
 O  O11  1  0.84559  0.94090  0.76135  1
 O  O12  1  0.15441  0.09531  0.23865  1
 O  O13  1  -0.00000  0.49115  0.50000  1
 O  O14  1  0.48984  0.75145  0.66404  1
 O  O15  1  0.42336  0.82052  0.11505  1
 O  O16  1  0.73840  0.24855  0.33596  1
 O  O17  1  0.51016  0.26160  0.33596  1
 O  O18  1  0.17948  0.60284  0.11505  1
 O  O19  1  0.39716  0.57664  0.11505  1
 O  O20  1  0.26160  0.51016  0.66404  1
 O  O21  1  0.57664  0.39716  0.88495  1
 O  O22  1  0.82052  0.42336  0.88495  1
 O  O23  1  0.60284  0.17948  0.88495  1
 O  O24  1  0.49115  0.00000  0.50000  1
 O  O25  1  0.24855  0.73840  0.66404  1
 O  O26  1  0.75145  0.48984  0.33596  1
 O  O27  1  0.50885  0.50885  0.50000  1
 Pb  Pb1  1  0.32607  0.32607  0.00000  1
 Pb  Pb2  1  0.00000  0.67393  0.00000  1
 Pb  Pb3  1  0.67393  0.00000  0.00000  1
