CIF file written using JARVIS-Tools package.
data_Al2ZnS4
_symmetry_space_group_name_H-M  'R3m'
_cell_length_a       3.68059
_cell_length_b       3.68059
_cell_length_c       12.0467
_cell_angle_alpha    81.2129
_cell_angle_beta     81.2129
_cell_angle_gamma    60.0002

_symmetry_Int_Tables_number  160
_chemical_formula_structural  Al2ZnS4
_chemical_formula_sum  Al2ZnS4
_cell_volume  139.11361428042417
_cell_formula_units_Z  1
loop_
  _symmetry_equiv_pos_site_id
 _symmetry_equiv_pos_as_xyz
 1  'x, y, z'
loop_
 _atom_site_type_symbol
 _atom_site_label
 _atom_site_symmetry_multiplicity
 _atom_site_fract_x
 _atom_site_fract_y
 _atom_site_fract_z
 _atom_site_fract_occupancy
 Al  Al1  1  0.00056  0.00056  0.99831  1
 Al  Al2  1  0.23104  0.23104  0.30689  1
 S  S1  1  0.12592  0.12592  0.62225  1
 S  S2  1  0.87330  0.87330  0.38009  1
 S  S3  1  0.69920  0.69920  0.90240  1
 S  S4  1  0.29437  0.29437  0.11690  1
 Zn  Zn1  1  0.77161  0.77161  0.68516  1
