CIF file written using JARVIS-Tools package.
data_CeMg5
_symmetry_space_group_name_H-M  'P-6m2'
_cell_length_a       3.16846
_cell_length_b       3.16845
_cell_length_c       16.1905
_cell_angle_alpha    90
_cell_angle_beta     90
_cell_angle_gamma    120

_symmetry_Int_Tables_number  187
_chemical_formula_structural  CeMg5
_chemical_formula_sum  CeMg5
_cell_volume  140.7621447236548
_cell_formula_units_Z  1
loop_
  _symmetry_equiv_pos_site_id
 _symmetry_equiv_pos_as_xyz
 1  'x, y, z'
loop_
 _atom_site_type_symbol
 _atom_site_label
 _atom_site_symmetry_multiplicity
 _atom_site_fract_x
 _atom_site_fract_y
 _atom_site_fract_z
 _atom_site_fract_occupancy
 Ce  Ce1  1  0.66667  0.33333  0.00000  1
 Mg  Mg1  1  0.00000  0.00000  0.82022  1
 Mg  Mg2  1  0.66667  0.33333  0.65956  1
 Mg  Mg3  1  0.00000  0.00000  0.50000  1
 Mg  Mg4  1  0.66667  0.33333  0.34044  1
 Mg  Mg5  1  0.00000  0.00000  0.17978  1
