CIF file written using JARVIS-Tools package.
data_KCaBi
_symmetry_space_group_name_H-M  'P4/nmm'
_cell_length_a       5.35964
_cell_length_b       5.35964
_cell_length_c       8.41081
_cell_angle_alpha    90
_cell_angle_beta     90
_cell_angle_gamma    90

_symmetry_Int_Tables_number  129
_chemical_formula_structural  KCaBi
_chemical_formula_sum  K2Ca2Bi2
_cell_volume  241.60667391910948
_cell_formula_units_Z  2
loop_
  _symmetry_equiv_pos_site_id
 _symmetry_equiv_pos_as_xyz
 1  'x, y, z'
loop_
 _atom_site_type_symbol
 _atom_site_label
 _atom_site_symmetry_multiplicity
 _atom_site_fract_x
 _atom_site_fract_y
 _atom_site_fract_z
 _atom_site_fract_occupancy
 Bi  Bi1  1  0.25000  0.25000  0.28876  1
 Bi  Bi2  1  0.75000  0.75000  0.71124  1
 Ca  Ca1  1  0.25000  0.75000  0.50000  1
 Ca  Ca2  1  0.75000  0.25000  0.50000  1
 K  K1  1  0.25000  0.25000  0.86433  1
 K  K2  1  0.75000  0.75000  0.13567  1
