CIF file written using JARVIS-Tools package.
data_MnIn2Se4
_symmetry_space_group_name_H-M  'R3m'
_cell_length_a       4.12868
_cell_length_b       4.12868
_cell_length_c       13.2508
_cell_angle_alpha    81.0374
_cell_angle_beta     81.0374
_cell_angle_gamma    60

_symmetry_Int_Tables_number  160
_chemical_formula_structural  MnIn2Se4
_chemical_formula_sum  MnIn2Se4
_cell_volume  192.4207808283148
_cell_formula_units_Z  1
loop_
  _symmetry_equiv_pos_site_id
 _symmetry_equiv_pos_as_xyz
 1  'x, y, z'
loop_
 _atom_site_type_symbol
 _atom_site_label
 _atom_site_symmetry_multiplicity
 _atom_site_fract_x
 _atom_site_fract_y
 _atom_site_fract_z
 _atom_site_fract_occupancy
 In  In1  1  0.00331  0.00331  0.99008  1
 In  In2  1  0.22963  0.22963  0.31110  1
 Mn  Mn1  1  0.77152  0.77152  0.68545  1
 Se  Se1  1  0.12307  0.12307  0.63078  1
 Se  Se2  1  0.86624  0.86624  0.40129  1
 Se  Se3  1  0.70592  0.70592  0.88223  1
 Se  Se4  1  0.29631  0.29631  0.11107  1
