CIF file written using JARVIS-Tools package.
data_Mg6NiMo
_symmetry_space_group_name_H-M  'Amm2'
_cell_length_a       6.08465
_cell_length_b       5.84232
_cell_length_c       4.72532
_cell_angle_alpha    90
_cell_angle_beta     90
_cell_angle_gamma    118.691

_symmetry_Int_Tables_number  38
_chemical_formula_structural  Mg6NiMo
_chemical_formula_sum  Mg6NiMo
_cell_volume  147.3537052296122
_cell_formula_units_Z  1
loop_
  _symmetry_equiv_pos_site_id
 _symmetry_equiv_pos_as_xyz
 1  'x, y, z'
loop_
 _atom_site_type_symbol
 _atom_site_label
 _atom_site_symmetry_multiplicity
 _atom_site_fract_x
 _atom_site_fract_y
 _atom_site_fract_z
 _atom_site_fract_occupancy
 Mg  Mg1  1  0.65003  0.32597  0.25000  1
 Mg  Mg2  1  0.65003  0.82406  0.25000  1
 Mg  Mg3  1  0.32902  0.15975  0.75000  1
 Mg  Mg4  1  0.32902  0.66928  0.75000  1
 Mg  Mg5  1  0.87483  0.18741  0.75000  1
 Mg  Mg6  1  0.85315  0.67658  0.75000  1
 Mo  Mo1  1  0.14646  0.82323  0.25000  1
 Ni  Ni1  1  0.16746  0.33373  0.25000  1
