CIF file written using JARVIS-Tools package.
data_KBeIn2
_symmetry_space_group_name_H-M  'F-43m'
_cell_length_a       5.20688
_cell_length_b       5.20688
_cell_length_c       5.20688
_cell_angle_alpha    120.044
_cell_angle_beta     120.044
_cell_angle_gamma    89.9243

_symmetry_Int_Tables_number  216
_chemical_formula_structural  KBeIn2
_chemical_formula_sum  KBeIn2
_cell_volume  99.75377418430605
_cell_formula_units_Z  1
loop_
  _symmetry_equiv_pos_site_id
 _symmetry_equiv_pos_as_xyz
 1  'x, y, z'
loop_
 _atom_site_type_symbol
 _atom_site_label
 _atom_site_symmetry_multiplicity
 _atom_site_fract_x
 _atom_site_fract_y
 _atom_site_fract_z
 _atom_site_fract_occupancy
 Be  Be1  1  0.75000  0.25000  0.50000  1
 In  In1  1  0.00000  0.00000  0.00000  1
 In  In2  1  0.25000  0.75000  0.50000  1
 K  K1  1  0.50000  0.50000  0.00000  1
