CIF file written using JARVIS-Tools package.
data_SiC
_symmetry_space_group_name_H-M  'P6_3mc'
_cell_length_a       3.09978
_cell_length_b       3.09978
_cell_length_c       10.1514
_cell_angle_alpha    90
_cell_angle_beta     90
_cell_angle_gamma    120

_symmetry_Int_Tables_number  186
_chemical_formula_structural  SiC
_chemical_formula_sum  Si4C4
_cell_volume  84.4733174477137
_cell_formula_units_Z  4
loop_
  _symmetry_equiv_pos_site_id
 _symmetry_equiv_pos_as_xyz
 1  'x, y, z'
loop_
 _atom_site_type_symbol
 _atom_site_label
 _atom_site_symmetry_multiplicity
 _atom_site_fract_x
 _atom_site_fract_y
 _atom_site_fract_z
 _atom_site_fract_occupancy
 C  C1  1  0.66667  0.33333  0.74983  1
 C  C2  1  0.33333  0.66667  0.24983  1
 C  C3  1  0.00000  0.00000  0.50048  1
 C  C4  1  0.00000  0.00000  0.00048  1
 Si  Si1  1  0.66667  0.33333  0.93785  1
 Si  Si2  1  0.33333  0.66667  0.43785  1
 Si  Si3  1  0.00000  0.00000  0.68785  1
 Si  Si4  1  0.00000  0.00000  0.18785  1
