CIF file written using JARVIS-Tools package.
data_Ce2Zn2Cu5
_symmetry_space_group_name_H-M  'R-3m'
_cell_length_a       12.9885
_cell_length_b       12.9885
_cell_length_c       12.9885
_cell_angle_alpha    23.1595
_cell_angle_beta     23.1595
_cell_angle_gamma    23.1595

_symmetry_Int_Tables_number  166
_chemical_formula_structural  Ce2Zn2Cu5
_chemical_formula_sum  Ce4Zn4Cu0
_cell_volume  297.5142187465078
_cell_formula_units_Z  2
loop_
  _symmetry_equiv_pos_site_id
 _symmetry_equiv_pos_as_xyz
 1  'x, y, z'
loop_
 _atom_site_type_symbol
 _atom_site_label
 _atom_site_symmetry_multiplicity
 _atom_site_fract_x
 _atom_site_fract_y
 _atom_site_fract_z
 _atom_site_fract_occupancy
 Ce  Ce1  1  0.94524  0.94524  0.94524  1
 Ce  Ce2  1  0.15298  0.15298  0.15298  1
 Ce  Ce3  1  0.84702  0.84702  0.84702  1
 Ce  Ce4  1  0.05476  0.05476  0.05476  1
 Cu  Cu1  1  0.72272  0.72272  0.72272  1
 Cu  Cu2  1  0.88941  0.39153  0.39153  1
 Cu  Cu3  1  0.60847  0.60847  0.11059  1
 Cu  Cu4  1  0.60847  0.11059  0.60847  1
 Cu  Cu5  1  0.39153  0.39153  0.88941  1
 Cu  Cu6  1  0.39153  0.88941  0.39153  1
 Cu  Cu7  1  0.38844  0.38844  0.38844  1
 Cu  Cu8  1  0.27728  0.27728  0.27728  1
 Cu  Cu9  1  0.11059  0.60847  0.60847  1
 Cu  Cu10  1  0.61156  0.61156  0.61156  1
 Zn  Zn1  1  0.00000  0.50000  0.50000  1
 Zn  Zn2  1  0.50000  0.50000  -0.00000  1
 Zn  Zn3  1  0.50000  0.50000  0.50000  1
 Zn  Zn4  1  0.50000  -0.00000  0.50000  1
