CIF file written using JARVIS-Tools package.
data_MnGa2S4
_symmetry_space_group_name_H-M  'I-4'
_cell_length_a       5.41359
_cell_length_b       5.41359
_cell_length_c       6.44191
_cell_angle_alpha    114.846
_cell_angle_beta     114.846
_cell_angle_gamma    90.0001

_symmetry_Int_Tables_number  82
_chemical_formula_structural  MnGa2S4
_chemical_formula_sum  MnGa2S4
_cell_volume  151.84531986009054
_cell_formula_units_Z  1
loop_
  _symmetry_equiv_pos_site_id
 _symmetry_equiv_pos_as_xyz
 1  'x, y, z'
loop_
 _atom_site_type_symbol
 _atom_site_label
 _atom_site_symmetry_multiplicity
 _atom_site_fract_x
 _atom_site_fract_y
 _atom_site_fract_z
 _atom_site_fract_occupancy
 Ga  Ga1  1  0.25000  0.75000  0.50000  1
 Ga  Ga2  1  0.00000  0.00000  0.00000  1
 Mn  Mn1  1  0.75000  0.25000  0.50000  1
 S  S1  1  0.86976  0.85524  0.23597  1
 S  S2  1  0.61927  0.13024  0.76403  1
 S  S3  1  0.14476  0.63379  0.76403  1
 S  S4  1  0.36621  0.38073  0.23597  1
