CIF file written using JARVIS-Tools package.
data_Li8FeO5F
_symmetry_space_group_name_H-M  'P1'
_cell_length_a       5.30668
_cell_length_b       5.37263
_cell_length_c       5.82976
_cell_angle_alpha    91.2832
_cell_angle_beta     114.906
_cell_angle_gamma    116.547

_symmetry_Int_Tables_number  1
_chemical_formula_structural  Li8FeO5F
_chemical_formula_sum  Li8FeO5F
_cell_volume  130.23697359124458
_cell_formula_units_Z  1
loop_
  _symmetry_equiv_pos_site_id
 _symmetry_equiv_pos_as_xyz
 1  'x, y, z'
loop_
 _atom_site_type_symbol
 _atom_site_label
 _atom_site_symmetry_multiplicity
 _atom_site_fract_x
 _atom_site_fract_y
 _atom_site_fract_z
 _atom_site_fract_occupancy
 F  F1  1  0.54269  0.43359  0.27633  1
 Fe  Fe1  1  0.92526  0.94526  0.96442  1
 Li  Li1  1  0.24763  0.47053  0.35645  1
 Li  Li2  1  0.12412  0.23067  0.66002  1
 Li  Li3  1  0.40183  0.89282  0.63483  1
 Li  Li4  1  0.73188  0.35393  0.02169  1
 Li  Li5  1  0.29836  0.67968  0.97262  1
 Li  Li6  1  0.57665  0.09642  0.34563  1
 Li  Li7  1  0.90290  0.79607  0.36727  1
 Li  Li8  1  0.75753  0.51706  0.64647  1
 O  O1  1  0.50668  0.59764  0.76255  1
 O  O2  1  0.87206  0.10523  0.24467  1
 O  O3  1  0.16469  0.76410  0.23569  1
 O  O4  1  0.82261  0.22112  0.75668  1
 O  O5  1  0.12510  0.89586  0.75469  1
