CIF file written using JARVIS-Tools package.
data_K6Pb2O5
_symmetry_space_group_name_H-M  'P-1'
_cell_length_a       6.39264
_cell_length_b       7.6147
_cell_length_c       12.4956
_cell_angle_alpha    78.9773
_cell_angle_beta     84.0725
_cell_angle_gamma    88.2129

_symmetry_Int_Tables_number  2
_chemical_formula_structural  K6Pb2O5
_chemical_formula_sum  K2Pb4O0
_cell_volume  593.8069759614526
_cell_formula_units_Z  2
loop_
  _symmetry_equiv_pos_site_id
 _symmetry_equiv_pos_as_xyz
 1  'x, y, z'
loop_
 _atom_site_type_symbol
 _atom_site_label
 _atom_site_symmetry_multiplicity
 _atom_site_fract_x
 _atom_site_fract_y
 _atom_site_fract_z
 _atom_site_fract_occupancy
 K  K1  1  0.78101  0.70171  0.12477  1
 K  K2  1  0.69552  0.51527  0.87640  1
 K  K3  1  0.30448  0.48473  0.12360  1
 K  K4  1  0.68417  0.04985  0.87728  1
 K  K5  1  0.07976  0.59206  0.61571  1
 K  K6  1  0.92024  0.40794  0.38429  1
 K  K7  1  0.31583  0.95015  0.12272  1
 K  K8  1  0.43544  0.60990  0.36477  1
 K  K9  1  0.21899  0.29829  0.87523  1
 K  K10  1  0.41120  0.13278  0.37406  1
 K  K11  1  0.58880  0.86722  0.62594  1
 K  K12  1  0.56456  0.39010  0.63523  1
 O  O1  1  0.48376  0.75620  0.97589  1
 O  O2  1  0.37774  0.61479  0.75717  1
 O  O3  1  0.62226  0.38521  0.24283  1
 O  O4  1  0.25384  0.32616  0.51923  1
 O  O5  1  0.74616  0.67384  0.48077  1
 O  O6  1  0.51624  0.24380  0.02411  1
 O  O7  1  0.91598  0.30661  0.74199  1
 O  O8  1  0.64629  0.94670  0.24427  1
 O  O9  1  0.08402  0.69339  0.25801  1
 O  O10  1  0.35371  0.05330  0.75573  1
 Pb  Pb1  1  0.08463  0.12700  0.64465  1
 Pb  Pb2  1  0.76290  0.21125  0.13463  1
 Pb  Pb3  1  0.23710  0.78875  0.86537  1
 Pb  Pb4  1  0.91537  0.87300  0.35535  1
