CIF file written using JARVIS-Tools package.
data_Hg
_symmetry_space_group_name_H-M  'Fmmm'
_cell_length_a       6.48777
_cell_length_b       6.12292
_cell_length_c       3.27316
_cell_angle_alpha    81.2283
_cell_angle_beta     68.8636
_cell_angle_gamma    29.9082

_symmetry_Int_Tables_number  69
_chemical_formula_structural  Hg
_chemical_formula_sum  Hg2
_cell_volume  56.775218084288575
_cell_formula_units_Z  2
loop_
  _symmetry_equiv_pos_site_id
 _symmetry_equiv_pos_as_xyz
 1  'x, y, z'
loop_
 _atom_site_type_symbol
 _atom_site_label
 _atom_site_symmetry_multiplicity
 _atom_site_fract_x
 _atom_site_fract_y
 _atom_site_fract_z
 _atom_site_fract_occupancy
 Hg  Hg1  1  0.36871  0.36871  0.63129  1
 Hg  Hg2  1  0.63129  0.63129  0.36871  1
