CIF file written using JARVIS-Tools package.
data_CrAu4
_symmetry_space_group_name_H-M  'I4/m'
_cell_length_a       4.07175
_cell_length_b       5.0434
_cell_length_c       5.0434
_cell_angle_alpha    80.6218
_cell_angle_beta     66.1922
_cell_angle_gamma    66.1922

_symmetry_Int_Tables_number  87
_chemical_formula_structural  CrAu4
_chemical_formula_sum  CrAu4
_cell_volume  86.69196742683943
_cell_formula_units_Z  1
loop_
  _symmetry_equiv_pos_site_id
 _symmetry_equiv_pos_as_xyz
 1  'x, y, z'
loop_
 _atom_site_type_symbol
 _atom_site_label
 _atom_site_symmetry_multiplicity
 _atom_site_fract_x
 _atom_site_fract_y
 _atom_site_fract_z
 _atom_site_fract_occupancy
 Au  Au1  1  0.60231  0.60164  0.19374  1
 Au  Au2  1  0.39769  0.39836  0.80626  1
 Au  Au3  1  0.20395  0.19374  0.39836  1
 Au  Au4  1  0.79605  0.80626  0.60164  1
 Cr  Cr1  1  0.00000  0.00000  0.00000  1
