CIF file written using JARVIS-Tools package.
data_Mg6NbGa
_symmetry_space_group_name_H-M  'Amm2'
_cell_length_a       6.22984
_cell_length_b       6.22984
_cell_length_c       4.83377
_cell_angle_alpha    90
_cell_angle_beta     90
_cell_angle_gamma    119.721

_symmetry_Int_Tables_number  38
_chemical_formula_structural  Mg6NbGa
_chemical_formula_sum  Mg6NbGa
_cell_volume  162.92454965337777
_cell_formula_units_Z  1
loop_
  _symmetry_equiv_pos_site_id
 _symmetry_equiv_pos_as_xyz
 1  'x, y, z'
loop_
 _atom_site_type_symbol
 _atom_site_label
 _atom_site_symmetry_multiplicity
 _atom_site_fract_x
 _atom_site_fract_y
 _atom_site_fract_z
 _atom_site_fract_occupancy
 Ga  Ga1  1  0.31351  0.18649  0.75000  1
 Mg  Mg1  1  0.17155  0.83301  0.25000  1
 Mg  Mg2  1  0.66699  0.32845  0.25000  1
 Mg  Mg3  1  0.66781  0.83219  0.25000  1
 Mg  Mg4  1  0.33046  0.65717  0.75000  1
 Mg  Mg5  1  0.84283  0.16954  0.75000  1
 Mg  Mg6  1  0.83334  0.66666  0.75000  1
 Nb  Nb1  1  0.17351  0.32649  0.25000  1
