CIF file written using JARVIS-Tools package.
data_U2TiH3
_symmetry_space_group_name_H-M  'P6/mmm'
_cell_length_a       3.7065
_cell_length_b       4.76757
_cell_length_c       4.76427
_cell_angle_alpha    120.023
_cell_angle_beta     90
_cell_angle_gamma    90

_symmetry_Int_Tables_number  191
_chemical_formula_structural  U2TiH3
_chemical_formula_sum  U2TiH3
_cell_volume  72.89336001091493
_cell_formula_units_Z  1
loop_
  _symmetry_equiv_pos_site_id
 _symmetry_equiv_pos_as_xyz
 1  'x, y, z'
loop_
 _atom_site_type_symbol
 _atom_site_label
 _atom_site_symmetry_multiplicity
 _atom_site_fract_x
 _atom_site_fract_y
 _atom_site_fract_z
 _atom_site_fract_occupancy
 H  H1  1  0.00000  0.50002  0.50004  1
 H  H2  1  0.00000  0.99998  0.49996  1
 H  H3  1  0.00000  0.49999  0.00000  1
 Ti  Ti1  1  0.00000  0.99996  0.00000  1
 U  U1  1  0.50000  0.33323  0.66650  1
 U  U2  1  0.50000  0.66672  0.33350  1
