CIF file written using JARVIS-Tools package.
data_Ca2MgPd2
_symmetry_space_group_name_H-M  'Immm'
_cell_length_a       4.31968
_cell_length_b       5.73983
_cell_length_c       5.73983
_cell_angle_alpha    62.293
_cell_angle_beta     67.8959
_cell_angle_gamma    67.8959

_symmetry_Int_Tables_number  71
_chemical_formula_structural  Ca2MgPd2
_chemical_formula_sum  Ca2MgPd2
_cell_volume  113.1649384014747
_cell_formula_units_Z  1
loop_
  _symmetry_equiv_pos_site_id
 _symmetry_equiv_pos_as_xyz
 1  'x, y, z'
loop_
 _atom_site_type_symbol
 _atom_site_label
 _atom_site_symmetry_multiplicity
 _atom_site_fract_x
 _atom_site_fract_y
 _atom_site_fract_z
 _atom_site_fract_occupancy
 Ca  Ca1  1  0.80041  0.69959  0.69959  1
 Ca  Ca2  1  0.19959  0.30041  0.30041  1
 Mg  Mg1  1  0.00000  0.00000  0.00000  1
 Pd  Pd1  1  0.50000  0.26521  0.73479  1
 Pd  Pd2  1  0.50000  0.73479  0.26521  1
