CIF file written using JARVIS-Tools package.
data_SmNi2Sb2
_symmetry_space_group_name_H-M  'I4/mmm'
_cell_length_a       4.34185
_cell_length_b       4.34184
_cell_length_c       6.17289
_cell_angle_alpha    110.591
_cell_angle_beta     110.591
_cell_angle_gamma    90.0001

_symmetry_Int_Tables_number  139
_chemical_formula_structural  SmNi2Sb2
_chemical_formula_sum  SmNi2Sb2
_cell_volume  100.95521641296082
_cell_formula_units_Z  1
loop_
  _symmetry_equiv_pos_site_id
 _symmetry_equiv_pos_as_xyz
 1  'x, y, z'
loop_
 _atom_site_type_symbol
 _atom_site_label
 _atom_site_symmetry_multiplicity
 _atom_site_fract_x
 _atom_site_fract_y
 _atom_site_fract_z
 _atom_site_fract_occupancy
 Ni  Ni1  1  0.75000  0.25000  0.50000  1
 Ni  Ni2  1  0.25000  0.75000  0.50000  1
 Sb  Sb1  1  0.36528  0.36528  0.73056  1
 Sb  Sb2  1  0.63472  0.63472  0.26944  1
 Sm  Sm1  1  0.00000  0.00000  0.00000  1
