CIF file written using JARVIS-Tools package.
data_K2SnHgTe4
_symmetry_space_group_name_H-M  'I-42m'
_cell_length_a       7.13201
_cell_length_b       7.132
_cell_length_c       7.132
_cell_angle_alpha    105.648
_cell_angle_beta     105.648
_cell_angle_gamma    117.422

_symmetry_Int_Tables_number  121
_chemical_formula_structural  K2SnHgTe4
_chemical_formula_sum  K2SnHgTe4
_cell_volume  275.1769877326696
_cell_formula_units_Z  1
loop_
  _symmetry_equiv_pos_site_id
 _symmetry_equiv_pos_as_xyz
 1  'x, y, z'
loop_
 _atom_site_type_symbol
 _atom_site_label
 _atom_site_symmetry_multiplicity
 _atom_site_fract_x
 _atom_site_fract_y
 _atom_site_fract_z
 _atom_site_fract_occupancy
 Hg  Hg1  1  0.50000  0.50000  -0.00000  1
 K  K1  1  0.50000  0.00000  0.50000  1
 K  K2  1  -0.00000  0.50000  0.50000  1
 Sn  Sn1  1  0.00000  0.00000  0.00000  1
 Te  Te1  1  0.58141  0.94246  -0.00000  1
 Te  Te2  1  0.94246  0.58141  -0.00000  1
 Te  Te3  1  0.05754  0.05754  0.63895  1
 Te  Te4  1  0.41859  0.41859  0.36105  1
