CIF file written using JARVIS-Tools package.
data_NpSi
_symmetry_space_group_name_H-M  'Pnma'
_cell_length_a       2.5974
_cell_length_b       5.52889
_cell_length_c       9.59631
_cell_angle_alpha    90
_cell_angle_beta     90
_cell_angle_gamma    90

_symmetry_Int_Tables_number  62
_chemical_formula_structural  NpSi
_chemical_formula_sum  Np4Si4
_cell_volume  137.81031118228927
_cell_formula_units_Z  4
loop_
  _symmetry_equiv_pos_site_id
 _symmetry_equiv_pos_as_xyz
 1  'x, y, z'
loop_
 _atom_site_type_symbol
 _atom_site_label
 _atom_site_symmetry_multiplicity
 _atom_site_fract_x
 _atom_site_fract_y
 _atom_site_fract_z
 _atom_site_fract_occupancy
 Np  Np1  1  0.25000  0.43275  0.72776  1
 Np  Np2  1  0.75000  0.56725  0.27224  1
 Np  Np3  1  0.75000  0.93275  0.77224  1
 Np  Np4  1  0.25000  0.06725  0.22776  1
 Si  Si1  1  0.25000  0.80506  0.50999  1
 Si  Si2  1  0.75000  0.19494  0.49001  1
 Si  Si3  1  0.75000  0.30506  0.99001  1
 Si  Si4  1  0.25000  0.69494  0.00999  1
