CIF file written using JARVIS-Tools package.
data_NaMg6Cr
_symmetry_space_group_name_H-M  'Amm2'
_cell_length_a       6.37833
_cell_length_b       6.37833
_cell_length_c       5.13521
_cell_angle_alpha    90
_cell_angle_beta     90
_cell_angle_gamma    119.707

_symmetry_Int_Tables_number  38
_chemical_formula_structural  NaMg6Cr
_chemical_formula_sum  NaMg6Cr
_cell_volume  181.4590197369249
_cell_formula_units_Z  1
loop_
  _symmetry_equiv_pos_site_id
 _symmetry_equiv_pos_as_xyz
 1  'x, y, z'
loop_
 _atom_site_type_symbol
 _atom_site_label
 _atom_site_symmetry_multiplicity
 _atom_site_fract_x
 _atom_site_fract_y
 _atom_site_fract_z
 _atom_site_fract_occupancy
 Cr  Cr1  1  0.34318  0.15682  0.75000  1
 Mg  Mg1  1  0.17116  0.84828  0.25000  1
 Mg  Mg2  1  0.65172  0.32884  0.25000  1
 Mg  Mg3  1  0.66522  0.83478  0.25000  1
 Mg  Mg4  1  0.33669  0.66945  0.75000  1
 Mg  Mg5  1  0.83055  0.16331  0.75000  1
 Mg  Mg6  1  0.83567  0.66433  0.75000  1
 Na  Na1  1  0.16580  0.33420  0.25000  1
