CIF file written using JARVIS-Tools package.
data_Mg6TiGa
_symmetry_space_group_name_H-M  'Amm2'
_cell_length_a       6.28368
_cell_length_b       6.28368
_cell_length_c       4.82552
_cell_angle_alpha    90
_cell_angle_beta     90
_cell_angle_gamma    120.29

_symmetry_Int_Tables_number  38
_chemical_formula_structural  Mg6TiGa
_chemical_formula_sum  Mg6TiGa
_cell_volume  164.52309611693138
_cell_formula_units_Z  1
loop_
  _symmetry_equiv_pos_site_id
 _symmetry_equiv_pos_as_xyz
 1  'x, y, z'
loop_
 _atom_site_type_symbol
 _atom_site_label
 _atom_site_symmetry_multiplicity
 _atom_site_fract_x
 _atom_site_fract_y
 _atom_site_fract_z
 _atom_site_fract_occupancy
 Ga  Ga1  1  0.31472  0.18528  0.75000  1
 Mg  Mg1  1  0.17186  0.83269  0.25000  1
 Mg  Mg2  1  0.66731  0.32814  0.25000  1
 Mg  Mg3  1  0.66747  0.83253  0.25000  1
 Mg  Mg4  1  0.32889  0.65868  0.75000  1
 Mg  Mg5  1  0.84132  0.17111  0.75000  1
 Mg  Mg6  1  0.83084  0.66916  0.75000  1
 Ti  Ti1  1  0.17759  0.32241  0.25000  1
