CIF file written using JARVIS-Tools package.
data_Mg6NbCu
_symmetry_space_group_name_H-M  'Amm2'
_cell_length_a       6.25682
_cell_length_b       5.96952
_cell_length_c       4.78979
_cell_angle_alpha    90
_cell_angle_beta     90
_cell_angle_gamma    118.492

_symmetry_Int_Tables_number  38
_chemical_formula_structural  Mg6NbCu
_chemical_formula_sum  Mg6NbCu
_cell_volume  157.23134196738928
_cell_formula_units_Z  1
loop_
  _symmetry_equiv_pos_site_id
 _symmetry_equiv_pos_as_xyz
 1  'x, y, z'
loop_
 _atom_site_type_symbol
 _atom_site_label
 _atom_site_symmetry_multiplicity
 _atom_site_fract_x
 _atom_site_fract_y
 _atom_site_fract_z
 _atom_site_fract_occupancy
 Cu  Cu1  1  0.17890  0.33945  0.25000  1
 Mg  Mg1  1  0.64648  0.32363  0.25000  1
 Mg  Mg2  1  0.64648  0.82285  0.25000  1
 Mg  Mg3  1  0.33229  0.16055  0.75000  1
 Mg  Mg4  1  0.33229  0.67174  0.75000  1
 Mg  Mg5  1  0.87672  0.18836  0.75000  1
 Mg  Mg6  1  0.84336  0.67168  0.75000  1
 Nb  Nb1  1  0.14347  0.82173  0.25000  1
