CIF file written using JARVIS-Tools package.
data_LiHf2Be
_symmetry_space_group_name_H-M  'I-4m2'
_cell_length_a       5.15034
_cell_length_b       5.15034
_cell_length_c       5.15034
_cell_angle_alpha    135.612
_cell_angle_beta     135.612
_cell_angle_gamma    64.5801

_symmetry_Int_Tables_number  119
_chemical_formula_structural  LiHf2Be
_chemical_formula_sum  LiHf2Be
_cell_volume  65.91636231554561
_cell_formula_units_Z  1
loop_
  _symmetry_equiv_pos_site_id
 _symmetry_equiv_pos_as_xyz
 1  'x, y, z'
loop_
 _atom_site_type_symbol
 _atom_site_label
 _atom_site_symmetry_multiplicity
 _atom_site_fract_x
 _atom_site_fract_y
 _atom_site_fract_z
 _atom_site_fract_occupancy
 Be  Be1  1  0.75000  0.25000  0.50000  1
 Hf  Hf1  1  0.00000  0.00000  0.00000  1
 Hf  Hf2  1  0.25000  0.75000  0.50000  1
 Li  Li1  1  0.50000  0.50000  0.00000  1
