CIF file written using JARVIS-Tools package.
data_BeF2
_symmetry_space_group_name_H-M  'P6_222'
_cell_length_a       4.91002
_cell_length_b       4.91002
_cell_length_c       5.39259
_cell_angle_alpha    90
_cell_angle_beta     90
_cell_angle_gamma    120

_symmetry_Int_Tables_number  180
_chemical_formula_structural  BeF2
_chemical_formula_sum  Be3F6
_cell_volume  112.58838152764376
_cell_formula_units_Z  3
loop_
  _symmetry_equiv_pos_site_id
 _symmetry_equiv_pos_as_xyz
 1  'x, y, z'
loop_
 _atom_site_type_symbol
 _atom_site_label
 _atom_site_symmetry_multiplicity
 _atom_site_fract_x
 _atom_site_fract_y
 _atom_site_fract_z
 _atom_site_fract_occupancy
 Be  Be1  1  -0.00000  0.50000  0.66667  1
 Be  Be2  1  0.50000  0.00000  0.00000  1
 Be  Be3  1  0.50000  0.50000  0.33333  1
 F  F1  1  0.79102  0.58204  0.50000  1
 F  F2  1  0.20898  0.79102  0.83333  1
 F  F3  1  0.79102  0.20898  0.83333  1
 F  F4  1  0.41796  0.20898  0.16667  1
 F  F5  1  0.58204  0.79102  0.16667  1
 F  F6  1  0.20898  0.41796  0.50000  1
