CIF file written using JARVIS-Tools package.
data_YSi2Ru2
_symmetry_space_group_name_H-M  'I4/mmm'
_cell_length_a       4.19365
_cell_length_b       4.19365
_cell_length_c       5.6315
_cell_angle_alpha    111.86
_cell_angle_beta     111.86
_cell_angle_gamma    90

_symmetry_Int_Tables_number  139
_chemical_formula_structural  YSi2Ru2
_chemical_formula_sum  YSi2Ru2
_cell_volume  84.19690083431011
_cell_formula_units_Z  1
loop_
  _symmetry_equiv_pos_site_id
 _symmetry_equiv_pos_as_xyz
 1  'x, y, z'
loop_
 _atom_site_type_symbol
 _atom_site_label
 _atom_site_symmetry_multiplicity
 _atom_site_fract_x
 _atom_site_fract_y
 _atom_site_fract_z
 _atom_site_fract_occupancy
 Ru  Ru1  1  0.25000  0.75000  0.50000  1
 Ru  Ru2  1  0.75000  0.25000  0.50000  1
 Si  Si1  1  0.63157  0.63157  0.26314  1
 Si  Si2  1  0.36843  0.36843  0.73686  1
 Y  Y1  1  0.00000  0.00000  0.00000  1
