CIF file written using JARVIS-Tools package.
data_BC5
_symmetry_space_group_name_H-M  'Imm2'
_cell_length_a       2.50811
_cell_length_b       3.73188
_cell_length_c       4.46935
_cell_angle_alpha    114.677
_cell_angle_beta     106.296
_cell_angle_gamma    90

_symmetry_Int_Tables_number  44
_chemical_formula_structural  BC5
_chemical_formula_sum  BC5
_cell_volume  36.15504391675177
_cell_formula_units_Z  1
loop_
  _symmetry_equiv_pos_site_id
 _symmetry_equiv_pos_as_xyz
 1  'x, y, z'
loop_
 _atom_site_type_symbol
 _atom_site_label
 _atom_site_symmetry_multiplicity
 _atom_site_fract_x
 _atom_site_fract_y
 _atom_site_fract_z
 _atom_site_fract_occupancy
 B  B1  1  0.50000  0.52434  0.00000  1
 C  C1  1  0.67225  0.45593  0.34450  1
 C  C2  1  0.32775  0.11143  0.65550  1
 C  C3  1  0.16838  0.21026  0.33676  1
 C  C4  1  0.83162  0.87351  0.66324  1
 C  C5  1  0.00000  0.82462  0.00000  1
