CIF file written using JARVIS-Tools package.
data_Mg6TiB
_symmetry_space_group_name_H-M  'Amm2'
_cell_length_a       6.69792
_cell_length_b       5.61206
_cell_length_c       4.45156
_cell_angle_alpha    90
_cell_angle_beta     90
_cell_angle_gamma    114.768

_symmetry_Int_Tables_number  38
_chemical_formula_structural  Mg6TiB
_chemical_formula_sum  Mg6TiB
_cell_volume  151.9383476490364
_cell_formula_units_Z  1
loop_
  _symmetry_equiv_pos_site_id
 _symmetry_equiv_pos_as_xyz
 1  'x, y, z'
loop_
 _atom_site_type_symbol
 _atom_site_label
 _atom_site_symmetry_multiplicity
 _atom_site_fract_x
 _atom_site_fract_y
 _atom_site_fract_z
 _atom_site_fract_occupancy
 B  B1  1  0.23973  0.86987  0.25000  1
 Mg  Mg1  1  0.61870  0.31048  0.25000  1
 Mg  Mg2  1  0.61870  0.80822  0.25000  1
 Mg  Mg3  1  0.32578  0.16013  0.75000  1
 Mg  Mg4  1  0.32578  0.66565  0.75000  1
 Mg  Mg5  1  0.83178  0.16589  0.75000  1
 Mg  Mg6  1  0.90926  0.70463  0.75000  1
 Ti  Ti1  1  0.13027  0.31513  0.25000  1
