CIF file written using JARVIS-Tools package.
data_TbSn2
_symmetry_space_group_name_H-M  'Cmcm'
_cell_length_a       4.35458
_cell_length_b       4.43045
_cell_length_c       8.54415
_cell_angle_alpha    105.027
_cell_angle_beta     90
_cell_angle_gamma    90

_symmetry_Int_Tables_number  63
_chemical_formula_structural  TbSn2
_chemical_formula_sum  Tb2Sn4
_cell_volume  159.20352028820818
_cell_formula_units_Z  2
loop_
  _symmetry_equiv_pos_site_id
 _symmetry_equiv_pos_as_xyz
 1  'x, y, z'
loop_
 _atom_site_type_symbol
 _atom_site_label
 _atom_site_symmetry_multiplicity
 _atom_site_fract_x
 _atom_site_fract_y
 _atom_site_fract_z
 _atom_site_fract_occupancy
 Sn  Sn1  1  0.75000  0.43723  0.87446  1
 Sn  Sn2  1  0.25000  0.56277  0.12554  1
 Sn  Sn3  1  0.75000  0.74878  0.49756  1
 Sn  Sn4  1  0.25000  0.25122  0.50244  1
 Tb  Tb1  1  0.75000  0.09934  0.19867  1
 Tb  Tb2  1  0.25000  0.90066  0.80133  1
