CIF file written using JARVIS-Tools package.
data_Ga2CoS4
_symmetry_space_group_name_H-M  'I-4'
_cell_length_a       5.249
_cell_length_b       5.249
_cell_length_c       6.40409
_cell_angle_alpha    114.193
_cell_angle_beta     114.193
_cell_angle_gamma    90.0001

_symmetry_Int_Tables_number  82
_chemical_formula_structural  Ga2CoS4
_chemical_formula_sum  Ga2CoS4
_cell_volume  143.78954811726834
_cell_formula_units_Z  1
loop_
  _symmetry_equiv_pos_site_id
 _symmetry_equiv_pos_as_xyz
 1  'x, y, z'
loop_
 _atom_site_type_symbol
 _atom_site_label
 _atom_site_symmetry_multiplicity
 _atom_site_fract_x
 _atom_site_fract_y
 _atom_site_fract_z
 _atom_site_fract_occupancy
 Co  Co1  1  0.00000  0.00000  0.00000  1
 Ga  Ga1  1  0.50000  0.50000  -0.00000  1
 Ga  Ga2  1  0.25000  0.75000  0.50000  1
 S  S1  1  0.87255  0.89256  0.25705  1
 S  S2  1  0.38450  0.36449  0.25705  1
 S  S3  1  0.63551  0.12745  0.74295  1
 S  S4  1  0.10744  0.61550  0.74295  1
