CIF file written using JARVIS-Tools package.
data_BaSm2NiO5
_symmetry_space_group_name_H-M  'Immm'
_cell_length_a       3.79152
_cell_length_b       5.89307
_cell_length_c       6.803
_cell_angle_alpha    115.666
_cell_angle_beta     106.18
_cell_angle_gamma    90

_symmetry_Int_Tables_number  71
_chemical_formula_structural  BaSm2NiO5
_chemical_formula_sum  BaSm2NiO5
_cell_volume  130.29406235806135
_cell_formula_units_Z  1
loop_
  _symmetry_equiv_pos_site_id
 _symmetry_equiv_pos_as_xyz
 1  'x, y, z'
loop_
 _atom_site_type_symbol
 _atom_site_label
 _atom_site_symmetry_multiplicity
 _atom_site_fract_x
 _atom_site_fract_y
 _atom_site_fract_z
 _atom_site_fract_occupancy
 Ba  Ba1  1  0.00000  0.00000  0.00000  1
 Ni  Ni1  1  0.50000  0.50000  0.00000  1
 O  O1  1  -0.00000  0.50000  0.00000  1
 O  O2  1  0.35359  0.59538  0.70718  1
 O  O3  1  0.64641  0.40462  0.29282  1
 O  O4  1  0.64641  0.88820  0.29282  1
 O  O5  1  0.35359  0.11180  0.70718  1
 Sm  Sm1  1  0.79843  0.29843  0.59685  1
 Sm  Sm2  1  0.20157  0.70157  0.40315  1
