CIF file written using JARVIS-Tools package.
data_NiGePt2
_symmetry_space_group_name_H-M  'Fmmm'
_cell_length_a       5.3837
_cell_length_b       5.3837
_cell_length_c       5.4501
_cell_angle_alpha    118.459
_cell_angle_beta     118.459
_cell_angle_gamma    92.0164

_symmetry_Int_Tables_number  69
_chemical_formula_structural  NiGePt2
_chemical_formula_sum  Ni2Ge2Pt4
_cell_volume  114.85195846766568
_cell_formula_units_Z  2
loop_
  _symmetry_equiv_pos_site_id
 _symmetry_equiv_pos_as_xyz
 1  'x, y, z'
loop_
 _atom_site_type_symbol
 _atom_site_label
 _atom_site_symmetry_multiplicity
 _atom_site_fract_x
 _atom_site_fract_y
 _atom_site_fract_z
 _atom_site_fract_occupancy
 Ge  Ge1  1  0.76574  0.76574  0.53149  1
 Ge  Ge2  1  0.23426  0.23426  0.46851  1
 Ni  Ni1  1  0.19841  0.80159  -0.00000  1
 Ni  Ni2  1  0.80159  0.19841  0.00000  1
 Pt  Pt1  1  0.69673  0.69673  -0.00000  1
 Pt  Pt2  1  0.75000  0.25000  0.50000  1
 Pt  Pt3  1  0.30327  0.30327  0.00000  1
 Pt  Pt4  1  0.25000  0.75000  0.50000  1
