CIF file written using JARVIS-Tools package.
data_Mg6CuMo
_symmetry_space_group_name_H-M  'Amm2'
_cell_length_a       6.07801
_cell_length_b       6.03436
_cell_length_c       4.7499
_cell_angle_alpha    90
_cell_angle_beta     90
_cell_angle_gamma    119.763

_symmetry_Int_Tables_number  38
_chemical_formula_structural  Mg6CuMo
_chemical_formula_sum  Mg6CuMo
_cell_volume  151.2315539700695
_cell_formula_units_Z  1
loop_
  _symmetry_equiv_pos_site_id
 _symmetry_equiv_pos_as_xyz
 1  'x, y, z'
loop_
 _atom_site_type_symbol
 _atom_site_label
 _atom_site_symmetry_multiplicity
 _atom_site_fract_x
 _atom_site_fract_y
 _atom_site_fract_z
 _atom_site_fract_occupancy
 Cu  Cu1  1  0.16846  0.33423  0.25000  1
 Mg  Mg1  1  0.65734  0.33059  0.25000  1
 Mg  Mg2  1  0.65734  0.82674  0.25000  1
 Mg  Mg3  1  0.32463  0.15440  0.75000  1
 Mg  Mg4  1  0.32463  0.67023  0.75000  1
 Mg  Mg5  1  0.86001  0.18000  0.75000  1
 Mg  Mg6  1  0.85184  0.67592  0.75000  1
 Mo  Mo1  1  0.15577  0.82788  0.25000  1
