CIF file written using JARVIS-Tools package.
data_EuI2
_symmetry_space_group_name_H-M  'Pbca'
_cell_length_a       7.28618
_cell_length_b       8.1995
_cell_length_c       13.9593
_cell_angle_alpha    90
_cell_angle_beta     90
_cell_angle_gamma    90

_symmetry_Int_Tables_number  61
_chemical_formula_structural  EuI2
_chemical_formula_sum  Eu8I6
_cell_volume  833.9675627427232
_cell_formula_units_Z  8
loop_
  _symmetry_equiv_pos_site_id
 _symmetry_equiv_pos_as_xyz
 1  'x, y, z'
loop_
 _atom_site_type_symbol
 _atom_site_label
 _atom_site_symmetry_multiplicity
 _atom_site_fract_x
 _atom_site_fract_y
 _atom_site_fract_z
 _atom_site_fract_occupancy
 Eu  Eu1  1  0.17163  0.44982  0.59510  1
 Eu  Eu2  1  0.32837  0.94982  0.40490  1
 Eu  Eu3  1  0.82837  0.55018  0.40490  1
 Eu  Eu4  1  0.17163  0.94982  0.90490  1
 Eu  Eu5  1  0.67163  0.05018  0.59510  1
 Eu  Eu6  1  0.67163  0.55018  0.90490  1
 Eu  Eu7  1  0.32837  0.44982  0.09510  1
 Eu  Eu8  1  0.82837  0.05018  0.09510  1
 I  I1  1  0.70442  0.38471  0.20426  1
 I  I2  1  0.98200  0.20495  0.45332  1
 I  I3  1  0.51800  0.20495  0.95332  1
 I  I4  1  0.29558  0.61529  0.79574  1
 I  I5  1  0.20442  0.11529  0.20426  1
 I  I6  1  0.20442  0.61529  0.29574  1
 I  I7  1  0.51800  0.70495  0.54668  1
 I  I8  1  0.29558  0.11529  0.70426  1
 I  I9  1  0.48200  0.29505  0.45332  1
 I  I10  1  0.48200  0.79505  0.04668  1
 I  I11  1  0.79558  0.38471  0.70426  1
 I  I12  1  0.70442  0.88471  0.29574  1
 I  I13  1  0.01800  0.79505  0.54668  1
 I  I14  1  0.01800  0.29505  0.95332  1
 I  I15  1  0.98200  0.70495  0.04668  1
 I  I16  1  0.79558  0.88471  0.79574  1
