CIF file written using JARVIS-Tools package.
data_SrY2S4
_symmetry_space_group_name_H-M  'Pnma'
_cell_length_a       3.98729
_cell_length_b       11.9785
_cell_length_c       14.333
_cell_angle_alpha    90
_cell_angle_beta     90
_cell_angle_gamma    90

_symmetry_Int_Tables_number  62
_chemical_formula_structural  SrY2S4
_chemical_formula_sum  Sr4Y8S6
_cell_volume  684.563821109251
_cell_formula_units_Z  4
loop_
  _symmetry_equiv_pos_site_id
 _symmetry_equiv_pos_as_xyz
 1  'x, y, z'
loop_
 _atom_site_type_symbol
 _atom_site_label
 _atom_site_symmetry_multiplicity
 _atom_site_fract_x
 _atom_site_fract_y
 _atom_site_fract_z
 _atom_site_fract_occupancy
 S  S1  1  0.75000  0.47816  0.78393  1
 S  S2  1  0.75000  0.36874  0.02669  1
 S  S3  1  0.25000  0.13126  0.52669  1
 S  S4  1  0.75000  0.86874  0.47331  1
 S  S5  1  0.75000  0.29209  0.32474  1
 S  S6  1  0.25000  0.70791  0.67526  1
 S  S7  1  0.75000  0.79209  0.17526  1
 S  S8  1  0.25000  0.20791  0.82474  1
 S  S9  1  0.75000  0.58593  0.42099  1
 S  S10  1  0.25000  0.41407  0.57901  1
 S  S11  1  0.75000  0.08593  0.07901  1
 S  S12  1  0.25000  0.91407  0.92099  1
 S  S13  1  0.25000  0.63126  0.97331  1
 S  S14  1  0.25000  0.02184  0.28393  1
 S  S15  1  0.25000  0.52184  0.21607  1
 S  S16  1  0.75000  0.97816  0.71607  1
 Sr  Sr1  1  0.25000  0.75734  0.33806  1
 Sr  Sr2  1  0.75000  0.24266  0.66194  1
 Sr  Sr3  1  0.25000  0.25734  0.16194  1
 Sr  Sr4  1  0.75000  0.74266  0.83806  1
 Y  Y1  1  0.25000  0.41937  0.89918  1
 Y  Y2  1  0.25000  0.43110  0.39024  1
 Y  Y3  1  0.75000  0.56890  0.60976  1
 Y  Y4  1  0.25000  0.93110  0.10976  1
 Y  Y5  1  0.75000  0.06890  0.89024  1
 Y  Y6  1  0.25000  0.91937  0.60082  1
 Y  Y7  1  0.75000  0.08063  0.39918  1
 Y  Y8  1  0.75000  0.58063  0.10082  1
