CIF file written using JARVIS-Tools package.
data_MoW2S6
_symmetry_space_group_name_H-M  'Cm'
_cell_length_a       3.19418
_cell_length_b       3.19416
_cell_length_c       18.8522
_cell_angle_alpha    85.0984
_cell_angle_beta     90
_cell_angle_gamma    120

_symmetry_Int_Tables_number  8
_chemical_formula_structural  MoW2S6
_chemical_formula_sum  MoW2S6
_cell_volume  165.76153182616065
_cell_formula_units_Z  1
loop_
  _symmetry_equiv_pos_site_id
 _symmetry_equiv_pos_as_xyz
 1  'x, y, z'
loop_
 _atom_site_type_symbol
 _atom_site_label
 _atom_site_symmetry_multiplicity
 _atom_site_fract_x
 _atom_site_fract_y
 _atom_site_fract_z
 _atom_site_fract_occupancy
 Mo  Mo1  1  0.44472  0.88944  0.01337  1
 S  S1  1  0.30569  0.61138  0.43063  1
 S  S2  1  0.80612  0.61223  0.92992  1
 S  S3  1  0.58291  0.16582  0.59694  1
 S  S4  1  0.74998  0.49996  0.09684  1
 S  S5  1  0.52643  0.05286  0.76481  1
 S  S6  1  0.36217  0.72434  0.26273  1
 W  W1  1  0.22132  0.44264  0.68091  1
 W  W2  1  0.66726  0.33453  0.34668  1
