CIF file written using JARVIS-Tools package.
data_Nd3Au4
_symmetry_space_group_name_H-M  'R-3'
_cell_length_a       8.2633
_cell_length_b       8.26331
_cell_length_c       8.26331
_cell_angle_alpha    113.974
_cell_angle_beta     113.974
_cell_angle_gamma    113.974

_symmetry_Int_Tables_number  148
_chemical_formula_structural  Nd3Au4
_chemical_formula_sum  Nd6Au8
_cell_volume  343.4610340233137
_cell_formula_units_Z  2
loop_
  _symmetry_equiv_pos_site_id
 _symmetry_equiv_pos_as_xyz
 1  'x, y, z'
loop_
 _atom_site_type_symbol
 _atom_site_label
 _atom_site_symmetry_multiplicity
 _atom_site_fract_x
 _atom_site_fract_y
 _atom_site_fract_z
 _atom_site_fract_occupancy
 Au  Au1  1  0.43802  0.76643  0.92731  1
 Au  Au2  1  0.92731  0.43802  0.76643  1
 Au  Au3  1  0.76643  0.92731  0.43802  1
 Au  Au4  1  0.56198  0.23357  0.07269  1
 Au  Au5  1  0.07269  0.56198  0.23357  1
 Au  Au6  1  0.23357  0.07269  0.56198  1
 Au  Au7  1  0.50000  0.50000  0.50000  1
 Au  Au8  1  0.00000  0.00000  0.00000  1
 Nd  Nd1  1  0.27190  0.39932  0.01593  1
 Nd  Nd2  1  0.01593  0.27190  0.39932  1
 Nd  Nd3  1  0.39932  0.01593  0.27190  1
 Nd  Nd4  1  0.72810  0.60068  0.98407  1
 Nd  Nd5  1  0.98407  0.72810  0.60068  1
 Nd  Nd6  1  0.60068  0.98407  0.72810  1
