CIF file written using JARVIS-Tools package.
data_RbC2
_symmetry_space_group_name_H-M  'I4/mmm'
_cell_length_a       4.53718
_cell_length_b       4.53718
_cell_length_c       7.56648
_cell_angle_alpha    90
_cell_angle_beta     90
_cell_angle_gamma    90

_symmetry_Int_Tables_number  139
_chemical_formula_structural  RbC2
_chemical_formula_sum  Rb2C4
_cell_volume  155.76355552454993
_cell_formula_units_Z  2
loop_
  _symmetry_equiv_pos_site_id
 _symmetry_equiv_pos_as_xyz
 1  'x, y, z'
loop_
 _atom_site_type_symbol
 _atom_site_label
 _atom_site_symmetry_multiplicity
 _atom_site_fract_x
 _atom_site_fract_y
 _atom_site_fract_z
 _atom_site_fract_occupancy
 C  C1  1  0.00000  0.50000  0.66662  1
 C  C2  1  0.50000  0.00000  0.33338  1
 C  C3  1  0.00000  0.50000  0.83318  1
 C  C4  1  0.50000  0.00000  0.16682  1
 Rb  Rb1  1  0.00000  0.50000  0.24998  1
 Rb  Rb2  1  0.50000  0.00000  0.75002  1
