CIF file written using JARVIS-Tools package.
data_U5Ge4
_symmetry_space_group_name_H-M  'P6_3/mcm'
_cell_length_a       8.64729
_cell_length_b       8.64729
_cell_length_c       5.82049
_cell_angle_alpha    90
_cell_angle_beta     90
_cell_angle_gamma    120

_symmetry_Int_Tables_number  193
_chemical_formula_structural  U5Ge4
_chemical_formula_sum  U0Ge8
_cell_volume  376.92076902266945
_cell_formula_units_Z  2
loop_
  _symmetry_equiv_pos_site_id
 _symmetry_equiv_pos_as_xyz
 1  'x, y, z'
loop_
 _atom_site_type_symbol
 _atom_site_label
 _atom_site_symmetry_multiplicity
 _atom_site_fract_x
 _atom_site_fract_y
 _atom_site_fract_z
 _atom_site_fract_occupancy
 Ge  Ge1  1  0.00000  0.00000  0.50000  1
 Ge  Ge2  1  0.37277  0.37277  0.25000  1
 Ge  Ge3  1  -0.00000  0.62723  0.25000  1
 Ge  Ge4  1  0.00000  0.37277  0.75000  1
 Ge  Ge5  1  0.62723  0.62723  0.75000  1
 Ge  Ge6  1  0.62723  0.00000  0.25000  1
 Ge  Ge7  1  0.00000  0.00000  0.00000  1
 Ge  Ge8  1  0.37277  0.00000  0.75000  1
 U  U1  1  0.28942  0.00000  0.25000  1
 U  U2  1  0.33333  0.66667  0.00000  1
 U  U3  1  0.33333  0.66667  0.50000  1
 U  U4  1  0.71058  0.71058  0.25000  1
 U  U5  1  0.28942  0.28942  0.75000  1
 U  U6  1  -0.00000  0.71058  0.75000  1
 U  U7  1  0.00000  0.28942  0.25000  1
 U  U8  1  0.71058  0.00000  0.75000  1
 U  U9  1  0.66667  0.33333  0.00000  1
 U  U10  1  0.66667  0.33333  0.50000  1
