CIF file written using JARVIS-Tools package.
data_ZnS
_symmetry_space_group_name_H-M  'P3m1'
_cell_length_a       3.83927
_cell_length_b       3.83928
_cell_length_c       44.011
_cell_angle_alpha    90
_cell_angle_beta     90
_cell_angle_gamma    120

_symmetry_Int_Tables_number  156
_chemical_formula_structural  ZnS
_chemical_formula_sum  Zn4S4
_cell_volume  561.810079133625
_cell_formula_units_Z  14
loop_
  _symmetry_equiv_pos_site_id
 _symmetry_equiv_pos_as_xyz
 1  'x, y, z'
loop_
 _atom_site_type_symbol
 _atom_site_label
 _atom_site_symmetry_multiplicity
 _atom_site_fract_x
 _atom_site_fract_y
 _atom_site_fract_z
 _atom_site_fract_occupancy
 S  S1  1  0.33333  0.66667  0.12498  1
 S  S2  1  0.33333  0.66667  0.83944  1
 S  S3  1  0.66667  0.33333  0.98230  1
 S  S4  1  0.66667  0.33333  0.19630  1
 S  S5  1  0.33333  0.66667  0.33917  1
 S  S6  1  0.66667  0.33333  0.76810  1
 S  S7  1  0.33333  0.66667  0.69651  1
 S  S8  1  0.00000  0.00000  0.26761  1
 S  S9  1  0.33333  0.66667  0.55336  1
 S  S10  1  0.00000  0.00000  0.41052  1
 S  S11  1  0.00000  0.00000  0.05366  1
 S  S12  1  0.66667  0.33333  0.48182  1
 S  S13  1  0.66667  0.33333  0.62494  1
 S  S14  1  0.00000  0.00000  0.91075  1
 Zn  Zn1  1  0.66667  0.33333  0.14284  1
 Zn  Zn2  1  0.33333  0.66667  0.07152  1
 Zn  Zn3  1  0.66667  0.33333  0.57140  1
 Zn  Zn4  1  0.00000  0.00000  0.21416  1
 Zn  Zn5  1  0.66667  0.33333  0.71454  1
 Zn  Zn6  1  0.00000  0.00000  0.85729  1
 Zn  Zn7  1  0.00000  0.00000  0.35708  1
 Zn  Zn8  1  0.00000  0.00000  0.00022  1
 Zn  Zn9  1  0.66667  0.33333  0.42837  1
 Zn  Zn10  1  0.66667  0.33333  0.92873  1
 Zn  Zn11  1  0.33333  0.66667  0.28560  1
 Zn  Zn12  1  0.33333  0.66667  0.49980  1
 Zn  Zn13  1  0.33333  0.66667  0.78600  1
 Zn  Zn14  1  0.33333  0.66667  0.64297  1
