CIF file written using JARVIS-Tools package.
data_HfMg6Nb
_symmetry_space_group_name_H-M  'Amm2'
_cell_length_a       6.42197
_cell_length_b       5.86088
_cell_length_c       5.07089
_cell_angle_alpha    90
_cell_angle_beta     90
_cell_angle_gamma    117.15

_symmetry_Int_Tables_number  38
_chemical_formula_structural  HfMg6Nb
_chemical_formula_sum  HfMg6Nb
_cell_volume  169.8307754935079
_cell_formula_units_Z  1
loop_
  _symmetry_equiv_pos_site_id
 _symmetry_equiv_pos_as_xyz
 1  'x, y, z'
loop_
 _atom_site_type_symbol
 _atom_site_label
 _atom_site_symmetry_multiplicity
 _atom_site_fract_x
 _atom_site_fract_y
 _atom_site_fract_z
 _atom_site_fract_occupancy
 Hf  Hf1  1  0.15104  0.82551  0.25000  1
 Mg  Mg1  1  0.65096  0.32537  0.25000  1
 Mg  Mg2  1  0.65096  0.82559  0.25000  1
 Mg  Mg3  1  0.33403  0.17095  0.75000  1
 Mg  Mg4  1  0.33403  0.66307  0.75000  1
 Mg  Mg5  1  0.87057  0.18530  0.75000  1
 Mg  Mg6  1  0.85121  0.67560  0.75000  1
 Nb  Nb1  1  0.15721  0.32860  0.25000  1
