CIF file written using JARVIS-Tools package.
data_K3NO3
_symmetry_space_group_name_H-M  'I4cm'
_cell_length_a       7.13697
_cell_length_b       7.13696
_cell_length_c       7.22158
_cell_angle_alpha    119.613
_cell_angle_beta     119.613
_cell_angle_gamma    90

_symmetry_Int_Tables_number  108
_chemical_formula_structural  K3NO3
_chemical_formula_sum  K6N2O6
_cell_volume  263.11480256692334
_cell_formula_units_Z  2
loop_
  _symmetry_equiv_pos_site_id
 _symmetry_equiv_pos_as_xyz
 1  'x, y, z'
loop_
 _atom_site_type_symbol
 _atom_site_label
 _atom_site_symmetry_multiplicity
 _atom_site_fract_x
 _atom_site_fract_y
 _atom_site_fract_z
 _atom_site_fract_occupancy
 K  K1  1  0.69838  0.19838  0.02812  1
 K  K2  1  0.82974  0.69838  0.02812  1
 K  K3  1  0.19838  0.32974  0.02812  1
 K  K4  1  0.32974  0.82974  0.02812  1
 K  K5  1  0.75328  0.75328  0.50655  1
 K  K6  1  0.25328  0.25328  0.50655  1
 N  N1  1  0.28681  0.78681  0.57362  1
 N  N2  1  0.78681  0.28681  0.57362  1
 O  O1  1  0.82679  0.11165  0.43843  1
 O  O2  1  0.61165  0.32679  0.43843  1
 O  O3  1  0.49936  0.49936  0.99873  1
 O  O4  1  0.99936  0.99936  0.99873  1
 O  O5  1  0.32679  0.82679  0.43843  1
 O  O6  1  0.11165  0.61165  0.43843  1
