CIF file written using JARVIS-Tools package.
data_Mg6CrB
_symmetry_space_group_name_H-M  'Amm2'
_cell_length_a       6.93709
_cell_length_b       6.93709
_cell_length_c       3.2631
_cell_angle_alpha    90
_cell_angle_beta     90
_cell_angle_gamma    94.8846

_symmetry_Int_Tables_number  38
_chemical_formula_structural  Mg6CrB
_chemical_formula_sum  Mg6CrB
_cell_volume  156.46065958530522
_cell_formula_units_Z  1
loop_
  _symmetry_equiv_pos_site_id
 _symmetry_equiv_pos_as_xyz
 1  'x, y, z'
loop_
 _atom_site_type_symbol
 _atom_site_label
 _atom_site_symmetry_multiplicity
 _atom_site_fract_x
 _atom_site_fract_y
 _atom_site_fract_z
 _atom_site_fract_occupancy
 B  B1  1  0.26386  0.23614  0.75000  1
 Cr  Cr1  1  0.14876  0.35124  0.25000  1
 Mg  Mg1  1  0.21618  0.95497  0.25000  1
 Mg  Mg2  1  0.54503  0.28382  0.25000  1
 Mg  Mg3  1  0.65887  0.84113  0.25000  1
 Mg  Mg4  1  0.36311  0.60722  0.75000  1
 Mg  Mg5  1  0.89278  0.13689  0.75000  1
 Mg  Mg6  1  0.91141  0.58859  0.75000  1
