CIF file written using JARVIS-Tools package.
data_CoH6C2O6
_symmetry_space_group_name_H-M  'P2_1/c'
_cell_length_a       6.96383
_cell_length_b       8.5969
_cell_length_c       9.26069
_cell_angle_alpha    98.3944
_cell_angle_beta     90
_cell_angle_gamma    90

_symmetry_Int_Tables_number  14
_chemical_formula_structural  CoH6C2O6
_chemical_formula_sum  Co4H24C8O24
_cell_volume  548.4730527652702
_cell_formula_units_Z  4
loop_
  _symmetry_equiv_pos_site_id
 _symmetry_equiv_pos_as_xyz
 1  'x, y, z'
loop_
 _atom_site_type_symbol
 _atom_site_label
 _atom_site_symmetry_multiplicity
 _atom_site_fract_x
 _atom_site_fract_y
 _atom_site_fract_z
 _atom_site_fract_occupancy
 C  C1  1  0.70424  0.02332  0.78549  1
 C  C2  1  0.79576  0.02332  0.28549  1
 C  C3  1  0.60325  0.67100  0.56975  1
 C  C4  1  0.10325  0.32900  0.93025  1
 C  C5  1  0.89675  0.67100  0.06975  1
 C  C6  1  0.29576  0.97668  0.21451  1
 C  C7  1  0.20424  0.97668  0.71451  1
 C  C8  1  0.39675  0.32900  0.43025  1
 Co  Co1  1  0.50000  -0.00000  0.50000  1
 Co  Co2  1  0.00000  0.50000  0.50000  1
 Co  Co3  1  0.00000  0.00000  0.00000  1
 Co  Co4  1  0.50000  0.50000  -0.00000  1
 H  H1  1  0.23759  0.09261  0.26078  1
 H  H2  1  0.95999  0.32892  0.87843  1
 H  H3  1  0.54001  0.32892  0.37843  1
 H  H4  1  0.04001  0.67108  0.12157  1
 H  H5  1  0.73759  0.90739  0.23922  1
 H  H6  1  0.65669  0.46468  0.72646  1
 H  H7  1  0.15669  0.53532  0.77354  1
 H  H8  1  0.39442  0.79105  0.97875  1
 H  H9  1  0.34331  0.53532  0.27354  1
 H  H10  1  0.84331  0.46468  0.22646  1
 H  H11  1  0.26241  0.09261  0.76078  1
 H  H12  1  0.09494  0.70669  0.73450  1
 H  H13  1  0.59494  0.29331  0.76550  1
 H  H14  1  0.76241  0.90739  0.73922  1
 H  H15  1  0.60558  0.20895  0.02125  1
 H  H16  1  0.89442  0.20895  0.52125  1
 H  H17  1  0.88065  0.76102  0.44400  1
 H  H18  1  0.45999  0.67108  0.62157  1
 H  H19  1  0.10558  0.79105  0.47875  1
 H  H20  1  0.38065  0.23898  0.05600  1
 H  H21  1  0.11935  0.23898  0.55600  1
 H  H22  1  0.61935  0.76102  0.94400  1
 H  H23  1  0.90506  0.29331  0.26550  1
 H  H24  1  0.40506  0.70669  0.23450  1
 O  O1  1  0.40844  0.90749  0.29182  1
 O  O2  1  0.38151  0.59494  0.19269  1
 O  O3  1  0.88151  0.40506  0.30731  1
 O  O4  1  0.48715  0.71930  0.91998  1
 O  O5  1  0.98715  0.28070  0.58002  1
 O  O6  1  0.51285  0.28070  0.08002  1
 O  O7  1  0.01285  0.71930  0.41998  1
 O  O8  1  0.59156  0.09251  0.70818  1
 O  O9  1  0.61849  0.40506  0.80731  1
 O  O10  1  0.11849  0.59494  0.69269  1
 O  O11  1  0.75588  0.08190  0.91372  1
 O  O12  1  0.85497  0.78270  -0.00135  1
 O  O13  1  0.24412  0.91810  0.08628  1
 O  O14  1  0.74412  0.08190  0.41372  1
 O  O15  1  0.14503  0.21730  0.00135  1
 O  O16  1  0.64503  0.78270  0.49865  1
 O  O17  1  0.35497  0.21730  0.50135  1
 O  O18  1  0.78277  0.55954  0.08675  1
 O  O19  1  0.28277  0.44046  0.41325  1
 O  O20  1  0.21723  0.44046  0.91325  1
 O  O21  1  0.71723  0.55954  0.58675  1
 O  O22  1  0.90844  0.09251  0.20818  1
 O  O23  1  0.25588  0.91810  0.58628  1
 O  O24  1  0.09156  0.90749  0.79182  1
