CIF file written using JARVIS-Tools package.
data_Be2WCl
_symmetry_space_group_name_H-M  'P4mm'
_cell_length_a       2.83348
_cell_length_b       2.83348
_cell_length_c       7.59229
_cell_angle_alpha    90
_cell_angle_beta     90
_cell_angle_gamma    90

_symmetry_Int_Tables_number  99
_chemical_formula_structural  Be2WCl
_chemical_formula_sum  Be2WCl
_cell_volume  60.955322746576854
_cell_formula_units_Z  1
loop_
  _symmetry_equiv_pos_site_id
 _symmetry_equiv_pos_as_xyz
 1  'x, y, z'
loop_
 _atom_site_type_symbol
 _atom_site_label
 _atom_site_symmetry_multiplicity
 _atom_site_fract_x
 _atom_site_fract_y
 _atom_site_fract_z
 _atom_site_fract_occupancy
 Be  Be1  1  0.00000  0.00000  0.00599  1
 Be  Be2  1  0.50000  0.50000  0.12813  1
 Cl  Cl1  1  0.00000  0.00000  0.56784  1
 W  W1  1  0.50000  0.50000  0.79803  1
