CIF file written using JARVIS-Tools package.
data_NaCaBe2
_symmetry_space_group_name_H-M  'P4/mmm'
_cell_length_a       3.40208
_cell_length_b       3.40208
_cell_length_c       7.20441
_cell_angle_alpha    90
_cell_angle_beta     90
_cell_angle_gamma    90

_symmetry_Int_Tables_number  123
_chemical_formula_structural  NaCaBe2
_chemical_formula_sum  NaCaBe2
_cell_volume  83.38472454894247
_cell_formula_units_Z  1
loop_
  _symmetry_equiv_pos_site_id
 _symmetry_equiv_pos_as_xyz
 1  'x, y, z'
loop_
 _atom_site_type_symbol
 _atom_site_label
 _atom_site_symmetry_multiplicity
 _atom_site_fract_x
 _atom_site_fract_y
 _atom_site_fract_z
 _atom_site_fract_occupancy
 Be  Be1  1  0.00000  0.00000  0.75615  1
 Be  Be2  1  0.00000  0.00000  0.24385  1
 Ca  Ca1  1  0.50000  0.50000  0.00000  1
 Na  Na1  1  0.50000  0.50000  0.50000  1
