CIF file written using JARVIS-Tools package.
data_Nb2VSe4
_symmetry_space_group_name_H-M  'C2/m'
_cell_length_a       3.51883
_cell_length_b       6.37065
_cell_length_c       7.11483
_cell_angle_alpha    114.733
_cell_angle_beta     104.317
_cell_angle_gamma    90

_symmetry_Int_Tables_number  12
_chemical_formula_structural  Nb2VSe4
_chemical_formula_sum  Nb2VSe4
_cell_volume  139.39105742070504
_cell_formula_units_Z  1
loop_
  _symmetry_equiv_pos_site_id
 _symmetry_equiv_pos_as_xyz
 1  'x, y, z'
loop_
 _atom_site_type_symbol
 _atom_site_label
 _atom_site_symmetry_multiplicity
 _atom_site_fract_x
 _atom_site_fract_y
 _atom_site_fract_z
 _atom_site_fract_occupancy
 Nb  Nb1  1  0.74303  0.67832  0.48607  1
 Nb  Nb2  1  0.25697  0.32168  0.51393  1
 Se  Se1  1  0.09944  0.44284  0.19887  1
 Se  Se2  1  0.90056  0.55716  0.80113  1
 Se  Se3  1  0.36464  0.02542  0.72928  1
 Se  Se4  1  0.63536  0.97458  0.27072  1
 V  V1  1  0.00000  0.00000  0.00000  1
