CIF file written using JARVIS-Tools package.
data_Fe2O3F
_symmetry_space_group_name_H-M  'Amm2'
_cell_length_a       4.38179
_cell_length_b       4.38179
_cell_length_c       2.85967
_cell_angle_alpha    90
_cell_angle_beta     90
_cell_angle_gamma    93.4714

_symmetry_Int_Tables_number  38
_chemical_formula_structural  Fe2O3F
_chemical_formula_sum  Fe2O3F
_cell_volume  54.805168675346835
_cell_formula_units_Z  1
loop_
  _symmetry_equiv_pos_site_id
 _symmetry_equiv_pos_as_xyz
 1  'x, y, z'
loop_
 _atom_site_type_symbol
 _atom_site_label
 _atom_site_symmetry_multiplicity
 _atom_site_fract_x
 _atom_site_fract_y
 _atom_site_fract_z
 _atom_site_fract_occupancy
 F  F1  1  0.80351  0.19649  0.50000  1
 Fe  Fe1  1  0.02337  0.97663  0.00000  1
 Fe  Fe2  1  0.47915  0.52085  0.50000  1
 O  O1  1  0.19863  0.80137  0.50000  1
 O  O2  1  0.30063  0.30529  0.00000  1
 O  O3  1  0.69471  0.69937  0.00000  1
