CIF file written using JARVIS-Tools package.
data_CaMg6Ni
_symmetry_space_group_name_H-M  'Amm2'
_cell_length_a       6.9168
_cell_length_b       6.9168
_cell_length_c       4.76256
_cell_angle_alpha    90
_cell_angle_beta     90
_cell_angle_gamma    127.048

_symmetry_Int_Tables_number  38
_chemical_formula_structural  CaMg6Ni
_chemical_formula_sum  CaMg6Ni
_cell_volume  181.85424957275316
_cell_formula_units_Z  1
loop_
  _symmetry_equiv_pos_site_id
 _symmetry_equiv_pos_as_xyz
 1  'x, y, z'
loop_
 _atom_site_type_symbol
 _atom_site_label
 _atom_site_symmetry_multiplicity
 _atom_site_fract_x
 _atom_site_fract_y
 _atom_site_fract_z
 _atom_site_fract_occupancy
 Ca  Ca1  1  0.20322  0.29678  0.25000  1
 Mg  Mg1  1  0.17784  0.83378  0.25000  1
 Mg  Mg2  1  0.66622  0.32216  0.25000  1
 Mg  Mg3  1  0.65007  0.84993  0.25000  1
 Mg  Mg4  1  0.30912  0.69548  0.75000  1
 Mg  Mg5  1  0.80452  0.19088  0.75000  1
 Mg  Mg6  1  0.81081  0.68919  0.75000  1
 Ni  Ni1  1  0.37821  0.12179  0.75000  1
