CIF file written using JARVIS-Tools package.
data_SmP3H5NO10
_symmetry_space_group_name_H-M  'P-1'
_cell_length_a       7.01745
_cell_length_b       7.74669
_cell_length_c       8.63504
_cell_angle_alpha    106.704
_cell_angle_beta     106.415
_cell_angle_gamma    82.4097

_symmetry_Int_Tables_number  2
_chemical_formula_structural  SmP3H5NO10
_chemical_formula_sum  Sm2P6H0N2O20
_cell_volume  430.62258415277876
_cell_formula_units_Z  2
loop_
  _symmetry_equiv_pos_site_id
 _symmetry_equiv_pos_as_xyz
 1  'x, y, z'
loop_
 _atom_site_type_symbol
 _atom_site_label
 _atom_site_symmetry_multiplicity
 _atom_site_fract_x
 _atom_site_fract_y
 _atom_site_fract_z
 _atom_site_fract_occupancy
 H  H1  1  0.68754  0.80254  0.57898  1
 H  H2  1  0.10524  0.74842  0.54995  1
 H  H3  1  0.19347  0.81832  0.41489  1
 H  H4  1  0.89476  0.25158  0.45005  1
 H  H5  1  0.31246  0.19746  0.42102  1
 H  H6  1  0.80653  0.18168  0.58511  1
 H  H7  1  0.85200  0.39771  0.62614  1
 H  H8  1  0.34403  0.69432  0.53944  1
 H  H9  1  0.65597  0.30568  0.46056  1
 H  H10  1  0.14800  0.60229  0.37386  1
 N  N1  1  0.19745  0.71488  0.47001  1
 N  N2  1  0.80255  0.28512  0.52999  1
 O  O1  1  0.72042  0.93871  0.25223  1
 O  O2  1  0.13423  0.42577  0.12991  1
 O  O3  1  0.86577  0.57423  0.87009  1
 O  O4  1  0.46565  0.36806  0.07673  1
 O  O5  1  0.53435  0.63194  0.92327  1
 O  O6  1  0.41353  0.29660  0.33658  1
 O  O7  1  0.58647  0.70340  0.66342  1
 O  O8  1  0.27790  0.09901  0.04965  1
 O  O9  1  0.04393  0.84903  0.16289  1
 O  O10  1  0.86819  0.16571  0.17699  1
 O  O11  1  0.13181  0.83429  0.82301  1
 O  O12  1  0.72210  0.90099  0.95035  1
 O  O13  1  0.27958  0.06129  0.74777  1
 O  O14  1  0.25231  0.14493  0.49247  1
 O  O15  1  0.45044  0.75387  0.25625  1
 O  O16  1  0.80162  0.60746  0.25432  1
 O  O17  1  0.19838  0.39254  0.74568  1
 O  O18  1  0.74769  0.85507  0.50753  1
 O  O19  1  0.95607  0.15097  0.83711  1
 O  O20  1  0.54956  0.24613  0.74375  1
 P  P1  1  0.32776  0.22791  0.68680  1
 P  P2  1  0.67224  0.77209  0.31320  1
 P  P3  1  0.14503  0.03493  0.85993  1
 P  P4  1  0.85497  0.96507  0.14007  1
 P  P5  1  0.32897  0.30573  0.15808  1
 P  P6  1  0.67103  0.69427  0.84192  1
 Sm  Sm1  1  0.22776  0.63082  0.99222  1
 Sm  Sm2  1  0.77224  0.36918  0.00778  1
