CIF file written using JARVIS-Tools package.
data_Sm2Sb
_symmetry_space_group_name_H-M  'I4/mmm'
_cell_length_a       4.49371
_cell_length_b       4.49371
_cell_length_c       9.29174
_cell_angle_alpha    103.994
_cell_angle_beta     103.994
_cell_angle_gamma    90

_symmetry_Int_Tables_number  139
_chemical_formula_structural  Sm2Sb
_chemical_formula_sum  Sm4Sb2
_cell_volume  176.31961643380154
_cell_formula_units_Z  2
loop_
  _symmetry_equiv_pos_site_id
 _symmetry_equiv_pos_as_xyz
 1  'x, y, z'
loop_
 _atom_site_type_symbol
 _atom_site_label
 _atom_site_symmetry_multiplicity
 _atom_site_fract_x
 _atom_site_fract_y
 _atom_site_fract_z
 _atom_site_fract_occupancy
 Sb  Sb1  1  0.63938  0.63938  0.27877  1
 Sb  Sb2  1  0.36062  0.36062  0.72123  1
 Sm  Sm1  1  0.50000  0.00000  0.00000  1
 Sm  Sm2  1  0.00000  0.50000  0.00000  1
 Sm  Sm3  1  0.82151  0.82151  0.64301  1
 Sm  Sm4  1  0.17849  0.17849  0.35699  1
