CIF file written using JARVIS-Tools package.
data_Na2BeGe2O6
_symmetry_space_group_name_H-M  'Fdd2'
_cell_length_a       7.17716
_cell_length_b       11.4184
_cell_length_c       11.4251
_cell_angle_alpha    84.3348
_cell_angle_beta     71.6937
_cell_angle_gamma    71.6826

_symmetry_Int_Tables_number  43
_chemical_formula_structural  Na2BeGe2O6
_chemical_formula_sum  Na2Be6Ge2O36
_cell_volume  843.8748360385472
_cell_formula_units_Z  6
loop_
  _symmetry_equiv_pos_site_id
 _symmetry_equiv_pos_as_xyz
 1  'x, y, z'
loop_
 _atom_site_type_symbol
 _atom_site_label
 _atom_site_symmetry_multiplicity
 _atom_site_fract_x
 _atom_site_fract_y
 _atom_site_fract_z
 _atom_site_fract_occupancy
 Be  Be1  1  0.36117  0.66236  0.64421  1
 Be  Be2  1  0.58226  0.16236  0.14421  1
 Be  Be3  1  0.99462  0.33764  0.64421  1
 Be  Be4  1  0.88373  0.50000  0.23255  1
 Be  Be5  1  0.63373  0.00000  0.73255  1
 Be  Be6  1  0.27353  0.83764  0.14421  1
 Ge  Ge1  1  0.66816  0.29720  0.34322  1
 Ge  Ge2  1  0.29627  0.36999  0.02726  1
 Ge  Ge3  1  0.67647  0.63001  0.02726  1
 Ge  Ge4  1  0.98862  0.70280  0.34322  1
 Ge  Ge5  1  0.21535  0.20280  0.84322  1
 Ge  Ge6  1  0.94142  0.79720  0.84322  1
 Ge  Ge7  1  0.34628  0.00000  0.30743  1
 Ge  Ge8  1  0.59628  0.50000  0.80743  1
 Ge  Ge9  1  0.00015  0.00000  0.99970  1
 Ge  Ge10  1  0.25015  0.50000  0.49970  1
 Ge  Ge11  1  0.55648  0.86999  0.52726  1
 Ge  Ge12  1  0.91626  0.13001  0.52726  1
 Na  Na1  1  0.74230  0.50000  0.51541  1
 Na  Na2  1  0.49230  0.00000  0.01541  1
 Na  Na3  1  0.38523  0.15596  0.55175  1
 Na  Na4  1  0.50691  0.68524  0.32892  1
 Na  Na5  1  0.72893  0.18524  0.82892  1
 Na  Na6  1  0.79118  0.34404  0.05175  1
 Na  Na7  1  0.15707  0.65596  0.05175  1
 Na  Na8  1  0.44215  0.81476  0.82892  1
 Na  Na9  1  0.06302  0.84404  0.55175  1
 Na  Na10  1  0.85787  0.00000  0.28426  1
 Na  Na11  1  0.10787  0.50000  0.78426  1
 Na  Na12  1  0.16417  0.31476  0.32892  1
 O  O1  1  0.74061  0.51682  0.90699  1
 O  O2  1  0.17412  0.29097  0.71494  1
 O  O3  1  0.35240  0.48318  0.90699  1
 O  O4  1  0.70498  0.88930  0.82921  1
 O  O5  1  0.08558  0.01682  0.40699  1
 O  O6  1  0.11094  0.70903  0.71494  1
 O  O7  1  0.06996  0.79097  0.21494  1
 O  O8  1  0.83213  0.80861  0.47016  1
 O  O9  1  0.08899  0.86916  0.89762  1
 O  O10  1  0.01339  0.13084  0.89762  1
 O  O11  1  0.20816  0.63084  0.39762  1
 O  O12  1  0.39422  0.36916  0.39762  1
 O  O13  1  0.69771  0.19139  0.47016  1
 O  O14  1  0.89074  0.69139  0.97016  1
 O  O15  1  0.13909  0.30861  0.97016  1
 O  O16  1  0.71509  0.20903  0.21494  1
 O  O17  1  0.50744  0.98318  0.40699  1
 O  O18  1  0.36616  0.13564  0.22491  1
 O  O19  1  0.41663  0.76682  0.53542  1
 O  O20  1  0.13193  0.45930  0.15686  1
 O  O21  1  0.40894  0.86436  0.22491  1
 O  O22  1  0.50191  0.95930  0.65686  1
 O  O23  1  0.52330  0.63564  0.72491  1
 O  O24  1  0.75179  0.36436  0.72491  1
 O  O25  1  0.43345  0.73318  0.03542  1
 O  O26  1  0.53113  0.26682  0.03542  1
 O  O27  1  0.39900  0.52905  0.58165  1
 O  O28  1  0.04795  0.23318  0.53542  1
 O  O29  1  0.71121  0.54070  0.15686  1
 O  O30  1  0.01935  0.47095  0.58165  1
 O  O31  1  0.17805  0.97095  0.08165  1
 O  O32  1  0.74030  0.02905  0.08165  1
 O  O33  1  0.84428  0.61070  0.32921  1
 O  O34  1  0.82651  0.38930  0.32921  1
 O  O35  1  0.84123  0.04070  0.65686  1
 O  O36  1  0.46581  0.11070  0.82921  1
