CIF file written using JARVIS-Tools package.
data_MgAl2Si2
_symmetry_space_group_name_H-M  'P-3m1'
_cell_length_a       4.094
_cell_length_b       4.094
_cell_length_c       6.72964
_cell_angle_alpha    90
_cell_angle_beta     90
_cell_angle_gamma    120

_symmetry_Int_Tables_number  164
_chemical_formula_structural  MgAl2Si2
_chemical_formula_sum  MgAl2Si2
_cell_volume  97.6828590904357
_cell_formula_units_Z  1
loop_
  _symmetry_equiv_pos_site_id
 _symmetry_equiv_pos_as_xyz
 1  'x, y, z'
loop_
 _atom_site_type_symbol
 _atom_site_label
 _atom_site_symmetry_multiplicity
 _atom_site_fract_x
 _atom_site_fract_y
 _atom_site_fract_z
 _atom_site_fract_occupancy
 Al  Al1  1  0.33333  0.66667  0.63409  1
 Al  Al2  1  0.66667  0.33333  0.36591  1
 Mg  Mg1  1  0.00000  0.00000  0.00000  1
 Si  Si1  1  0.33333  0.66667  0.24353  1
 Si  Si2  1  0.66667  0.33333  0.75647  1
