CIF file written using JARVIS-Tools package.
data_Ba4NaRu3O12
_symmetry_space_group_name_H-M  'P6_3mc'
_cell_length_a       5.83213
_cell_length_b       5.83212
_cell_length_c       19.2249
_cell_angle_alpha    90
_cell_angle_beta     90
_cell_angle_gamma    120

_symmetry_Int_Tables_number  186
_chemical_formula_structural  Ba4NaRu3O12
_chemical_formula_sum  Ba8Na2Ru6O24
_cell_volume  566.3026674461555
_cell_formula_units_Z  2
loop_
  _symmetry_equiv_pos_site_id
 _symmetry_equiv_pos_as_xyz
 1  'x, y, z'
loop_
 _atom_site_type_symbol
 _atom_site_label
 _atom_site_symmetry_multiplicity
 _atom_site_fract_x
 _atom_site_fract_y
 _atom_site_fract_z
 _atom_site_fract_occupancy
 Ba  Ba1  1  0.00000  0.00000  0.11682  1
 Ba  Ba2  1  0.00000  0.00000  0.61682  1
 Ba  Ba3  1  0.33333  0.66667  0.37258  1
 Ba  Ba4  1  0.66667  0.33333  0.87258  1
 Ba  Ba5  1  0.66667  0.33333  0.49682  1
 Ba  Ba6  1  0.33333  0.66667  0.99682  1
 Ba  Ba7  1  0.33333  0.66667  0.74578  1
 Ba  Ba8  1  0.66667  0.33333  0.24578  1
 Na  Na1  1  0.66667  0.33333  0.05944  1
 Na  Na2  1  0.33333  0.66667  0.55944  1
 O  O1  1  0.69137  0.84568  0.86468  1
 O  O2  1  0.66841  0.83420  0.24477  1
 O  O3  1  0.84568  0.15432  0.36468  1
 O  O4  1  0.15432  0.84568  0.86468  1
 O  O5  1  0.15432  0.30863  0.86468  1
 O  O6  1  0.30863  0.15432  0.36468  1
 O  O7  1  0.83420  0.16580  0.74477  1
 O  O8  1  0.16580  0.83420  0.24477  1
 O  O9  1  0.97350  0.48675  0.62827  1
 O  O10  1  0.33159  0.16580  0.74477  1
 O  O11  1  0.84407  0.15593  0.98836  1
 O  O12  1  0.16580  0.33159  0.24477  1
 O  O13  1  0.83420  0.66841  0.74477  1
 O  O14  1  0.31185  0.15593  0.98836  1
 O  O15  1  0.02650  0.51325  0.12827  1
 O  O16  1  0.15593  0.84407  0.48836  1
 O  O17  1  0.84407  0.68815  0.98836  1
 O  O18  1  0.51325  0.48675  0.62827  1
 O  O19  1  0.84568  0.69137  0.36468  1
 O  O20  1  0.48675  0.97350  0.12827  1
 O  O21  1  0.51325  0.02650  0.62827  1
 O  O22  1  0.15593  0.31185  0.48836  1
 O  O23  1  0.68815  0.84407  0.48836  1
 O  O24  1  0.48675  0.51325  0.12827  1
 Ru  Ru1  1  0.00000  0.00000  0.93476  1
 Ru  Ru2  1  0.00000  0.00000  0.29987  1
 Ru  Ru3  1  0.00000  0.00000  0.79987  1
 Ru  Ru4  1  0.00000  0.00000  0.43476  1
 Ru  Ru5  1  0.66667  0.33333  0.68367  1
 Ru  Ru6  1  0.33333  0.66667  0.18367  1
