CIF file written using JARVIS-Tools package.
data_LuAu4
_symmetry_space_group_name_H-M  'I4/m'
_cell_length_a       4.15387
_cell_length_b       5.19146
_cell_length_c       5.19146
_cell_angle_alpha    80.7899
_cell_angle_beta     66.4175
_cell_angle_gamma    66.4175

_symmetry_Int_Tables_number  87
_chemical_formula_structural  LuAu4
_chemical_formula_sum  LuAu4
_cell_volume  94.03353589928516
_cell_formula_units_Z  1
loop_
  _symmetry_equiv_pos_site_id
 _symmetry_equiv_pos_as_xyz
 1  'x, y, z'
loop_
 _atom_site_type_symbol
 _atom_site_label
 _atom_site_symmetry_multiplicity
 _atom_site_fract_x
 _atom_site_fract_y
 _atom_site_fract_z
 _atom_site_fract_occupancy
 Au  Au1  1  0.60134  0.59970  0.19762  1
 Au  Au2  1  0.39866  0.40030  0.80238  1
 Au  Au3  1  0.20104  0.19762  0.40030  1
 Au  Au4  1  0.79896  0.80238  0.59970  1
 Lu  Lu1  1  0.00000  0.00000  0.00000  1
