CIF file written using JARVIS-Tools package.
data_Ho5Mg
_symmetry_space_group_name_H-M  'R32'
_cell_length_a       6.49706
_cell_length_b       6.49707
_cell_length_c       6.49707
_cell_angle_alpha    55.317
_cell_angle_beta     55.317
_cell_angle_gamma    55.317

_symmetry_Int_Tables_number  155
_chemical_formula_structural  Ho5Mg
_chemical_formula_sum  Ho5Mg
_cell_volume  172.82383479763254
_cell_formula_units_Z  1
loop_
  _symmetry_equiv_pos_site_id
 _symmetry_equiv_pos_as_xyz
 1  'x, y, z'
loop_
 _atom_site_type_symbol
 _atom_site_label
 _atom_site_symmetry_multiplicity
 _atom_site_fract_x
 _atom_site_fract_y
 _atom_site_fract_z
 _atom_site_fract_occupancy
 Ho  Ho1  1  0.50000  0.15995  0.84005  1
 Ho  Ho2  1  0.15995  0.84005  0.50000  1
 Ho  Ho3  1  0.84005  0.50000  0.15995  1
 Ho  Ho4  1  0.33296  0.33296  0.33296  1
 Ho  Ho5  1  0.66704  0.66704  0.66704  1
 Mg  Mg1  1  0.00000  0.00000  0.00000  1
