CIF file written using JARVIS-Tools package.
data_Co3OF5
_symmetry_space_group_name_H-M  'C2/m'
_cell_length_a       4.63022
_cell_length_b       4.63022
_cell_length_c       9.2818
_cell_angle_alpha    89.5226
_cell_angle_beta     89.5226
_cell_angle_gamma    92.1047

_symmetry_Int_Tables_number  12
_chemical_formula_structural  Co3OF5
_chemical_formula_sum  Co6O2F0
_cell_volume  198.84321732868554
_cell_formula_units_Z  2
loop_
  _symmetry_equiv_pos_site_id
 _symmetry_equiv_pos_as_xyz
 1  'x, y, z'
loop_
 _atom_site_type_symbol
 _atom_site_label
 _atom_site_symmetry_multiplicity
 _atom_site_fract_x
 _atom_site_fract_y
 _atom_site_fract_z
 _atom_site_fract_occupancy
 Co  Co1  1  0.96222  0.96222  0.00443  1
 Co  Co2  1  0.03778  0.03778  0.32890  1
 Co  Co3  1  0.00000  0.00000  0.66667  1
 Co  Co4  1  0.50000  0.50000  0.16667  1
 Co  Co5  1  0.50277  0.50277  0.84502  1
 Co  Co6  1  0.49723  0.49723  0.48831  1
 F  F1  1  0.78768  0.18500  0.83413  1
 F  F2  1  0.18500  0.78768  0.83413  1
 F  F3  1  0.21232  0.81500  0.49921  1
 F  F4  1  0.20509  0.79491  0.16667  1
 F  F5  1  0.30574  0.30574  0.66903  1
 F  F6  1  0.79491  0.20509  0.16667  1
 F  F7  1  0.72560  0.72560  0.33151  1
 F  F8  1  0.27440  0.27440  0.00182  1
 F  F9  1  0.69426  0.69426  0.66430  1
 F  F10  1  0.81500  0.21232  0.49921  1
 O  O1  1  0.67649  0.67649  0.00787  1
 O  O2  1  0.32351  0.32351  0.32546  1
