CIF file written using JARVIS-Tools package.
data_BaNaMg6
_symmetry_space_group_name_H-M  'Amm2'
_cell_length_a       7.50507
_cell_length_b       7.50506
_cell_length_c       5.26223
_cell_angle_alpha    90
_cell_angle_beta     90
_cell_angle_gamma    126.987

_symmetry_Int_Tables_number  38
_chemical_formula_structural  BaNaMg6
_chemical_formula_sum  BaNaMg6
_cell_volume  236.7569657082414
_cell_formula_units_Z  1
loop_
  _symmetry_equiv_pos_site_id
 _symmetry_equiv_pos_as_xyz
 1  'x, y, z'
loop_
 _atom_site_type_symbol
 _atom_site_label
 _atom_site_symmetry_multiplicity
 _atom_site_fract_x
 _atom_site_fract_y
 _atom_site_fract_z
 _atom_site_fract_occupancy
 Ba  Ba1  1  0.30048  0.19952  0.75000  1
 Mg  Mg1  1  0.18091  0.82789  0.25000  1
 Mg  Mg2  1  0.67211  0.31909  0.25000  1
 Mg  Mg3  1  0.71010  0.78990  0.25000  1
 Mg  Mg4  1  0.33725  0.71022  0.75000  1
 Mg  Mg5  1  0.78978  0.16275  0.75000  1
 Mg  Mg6  1  0.87732  0.62268  0.75000  1
 Na  Na1  1  0.13204  0.36796  0.25000  1
