CIF file written using JARVIS-Tools package.
data_ScZnPt
_symmetry_space_group_name_H-M  'Cmcm'
_cell_length_a       4.2806
_cell_length_b       5.06862
_cell_length_c       5.29794
_cell_angle_alpha    90
_cell_angle_beta     90
_cell_angle_gamma    114.978

_symmetry_Int_Tables_number  63
_chemical_formula_structural  ScZnPt
_chemical_formula_sum  Sc2Zn2Pt2
_cell_volume  104.19693517161517
_cell_formula_units_Z  2
loop_
  _symmetry_equiv_pos_site_id
 _symmetry_equiv_pos_as_xyz
 1  'x, y, z'
loop_
 _atom_site_type_symbol
 _atom_site_label
 _atom_site_symmetry_multiplicity
 _atom_site_fract_x
 _atom_site_fract_y
 _atom_site_fract_z
 _atom_site_fract_occupancy
 Pt  Pt1  1  0.60404  0.20809  0.25000  1
 Pt  Pt2  1  0.39596  0.79191  0.75000  1
 Sc  Sc1  1  0.29180  0.58360  0.25000  1
 Sc  Sc2  1  0.70820  0.41640  0.75000  1
 Zn  Zn1  1  0.00000  0.00000  0.50000  1
 Zn  Zn2  1  0.00000  0.00000  0.00000  1
