CIF file written using JARVIS-Tools package.
data_Mg6TiNi
_symmetry_space_group_name_H-M  'Amm2'
_cell_length_a       6.25047
_cell_length_b       6.25047
_cell_length_c       4.73794
_cell_angle_alpha    90
_cell_angle_beta     90
_cell_angle_gamma    122.617

_symmetry_Int_Tables_number  38
_chemical_formula_structural  Mg6TiNi
_chemical_formula_sum  Mg6TiNi
_cell_volume  155.91054427068363
_cell_formula_units_Z  1
loop_
  _symmetry_equiv_pos_site_id
 _symmetry_equiv_pos_as_xyz
 1  'x, y, z'
loop_
 _atom_site_type_symbol
 _atom_site_label
 _atom_site_symmetry_multiplicity
 _atom_site_fract_x
 _atom_site_fract_y
 _atom_site_fract_z
 _atom_site_fract_occupancy
 Mg  Mg1  1  0.17545  0.84416  0.25000  1
 Mg  Mg2  1  0.65584  0.32455  0.25000  1
 Mg  Mg3  1  0.67245  0.82755  0.25000  1
 Mg  Mg4  1  0.31976  0.66378  0.75000  1
 Mg  Mg5  1  0.83622  0.18024  0.75000  1
 Mg  Mg6  1  0.83299  0.66701  0.75000  1
 Ni  Ni1  1  0.19862  0.30138  0.25000  1
 Ti  Ti1  1  0.30867  0.19133  0.75000  1
