CIF file written using JARVIS-Tools package.
data_FeSn2
_symmetry_space_group_name_H-M  'I4/mcm'
_cell_length_a       5.35378
_cell_length_b       5.36171
_cell_length_c       5.3617
_cell_angle_alpha    75.5661
_cell_angle_beta     60.0489
_cell_angle_gamma    60.0488

_symmetry_Int_Tables_number  140
_chemical_formula_structural  FeSn2
_chemical_formula_sum  Fe2Sn4
_cell_volume  115.54604437005798
_cell_formula_units_Z  2
loop_
  _symmetry_equiv_pos_site_id
 _symmetry_equiv_pos_as_xyz
 1  'x, y, z'
loop_
 _atom_site_type_symbol
 _atom_site_label
 _atom_site_symmetry_multiplicity
 _atom_site_fract_x
 _atom_site_fract_y
 _atom_site_fract_z
 _atom_site_fract_occupancy
 Fe  Fe1  1  0.75000  0.00000  -0.00000  1
 Fe  Fe2  1  0.25000  0.00000  -0.00000  1
 Sn  Sn1  1  0.66244  0.17512  0.50000  1
 Sn  Sn2  1  0.83756  0.50000  0.82488  1
 Sn  Sn3  1  0.33756  0.82488  0.50000  1
 Sn  Sn4  1  0.16244  0.50000  0.17512  1
