CIF file written using JARVIS-Tools package.
data_LiTaSiO5
_symmetry_space_group_name_H-M  'P2_1/c'
_cell_length_a       7.51741
_cell_length_b       7.5258
_cell_length_c       7.91723
_cell_angle_alpha    90
_cell_angle_beta     90
_cell_angle_gamma    119.58

_symmetry_Int_Tables_number  14
_chemical_formula_structural  LiTaSiO5
_chemical_formula_sum  Li4Ta4Si4O20
_cell_volume  389.5376025184363
_cell_formula_units_Z  4
loop_
  _symmetry_equiv_pos_site_id
 _symmetry_equiv_pos_as_xyz
 1  'x, y, z'
loop_
 _atom_site_type_symbol
 _atom_site_label
 _atom_site_symmetry_multiplicity
 _atom_site_fract_x
 _atom_site_fract_y
 _atom_site_fract_z
 _atom_site_fract_occupancy
 Li  Li1  1  0.75113  0.30865  0.43422  1
 Li  Li2  1  0.24887  0.69135  0.56578  1
 Li  Li3  1  0.75113  0.80865  0.06578  1
 Li  Li4  1  0.24887  0.19135  0.93422  1
 O  O1  1  0.24503  0.43513  0.49304  1
 O  O2  1  0.73936  0.41127  0.98946  1
 O  O3  1  0.75105  0.25279  0.67181  1
 O  O4  1  0.94463  0.35047  0.24203  1
 O  O5  1  0.26064  0.08873  0.48946  1
 O  O6  1  0.73936  0.91127  0.51054  1
 O  O7  1  0.75105  0.75279  0.82819  1
 O  O8  1  0.55733  0.14817  0.24554  1
 O  O9  1  0.94463  0.85047  0.25797  1
 O  O10  1  0.24895  0.74721  0.32819  1
 O  O11  1  0.44267  0.85183  0.75446  1
 O  O12  1  0.75497  0.06487  0.99304  1
 O  O13  1  0.75497  0.56487  0.50696  1
 O  O14  1  0.26064  0.58873  0.01054  1
 O  O15  1  0.44267  0.35183  0.74554  1
 O  O16  1  0.05537  0.14953  0.74203  1
 O  O17  1  0.24503  0.93513  0.00696  1
 O  O18  1  0.05537  0.64953  0.75797  1
 O  O19  1  0.24895  0.24721  0.17181  1
 O  O20  1  0.55733  0.64817  0.25446  1
 Si  Si1  1  0.25043  0.75950  0.88793  1
 Si  Si2  1  0.25043  0.25950  0.61207  1
 Si  Si3  1  0.74957  0.24050  0.11207  1
 Si  Si4  1  0.74957  0.74050  0.38793  1
 Ta  Ta1  1  0.25157  0.49253  0.23945  1
 Ta  Ta2  1  0.25157  0.99253  0.26055  1
 Ta  Ta3  1  0.74843  0.50747  0.76055  1
 Ta  Ta4  1  0.74843  0.00747  0.73945  1
