CIF file written using JARVIS-Tools package.
data_In2Se3
_symmetry_space_group_name_H-M  'R-3m'
_cell_length_a       4.15754
_cell_length_b       4.15754
_cell_length_c       8.91383
_cell_angle_alpha    76.514
_cell_angle_beta     76.514
_cell_angle_gamma    59.9999

_symmetry_Int_Tables_number  166
_chemical_formula_structural  In2Se3
_chemical_formula_sum  In2Se3
_cell_volume  128.50566278315233
_cell_formula_units_Z  1
loop_
  _symmetry_equiv_pos_site_id
 _symmetry_equiv_pos_as_xyz
 1  'x, y, z'
loop_
 _atom_site_type_symbol
 _atom_site_label
 _atom_site_symmetry_multiplicity
 _atom_site_fract_x
 _atom_site_fract_y
 _atom_site_fract_z
 _atom_site_fract_occupancy
 In  In1  1  0.20775  0.20775  0.37676  1
 In  In2  1  0.79225  0.79225  0.62324  1
 Se  Se1  1  0.40136  0.40136  0.79593  1
 Se  Se2  1  0.59864  0.59864  0.20407  1
 Se  Se3  1  0.00000  0.00000  0.00000  1
