CIF file written using JARVIS-Tools package.
data_Nb4CoPt3
_symmetry_space_group_name_H-M  'Pmm2'
_cell_length_a       2.80437
_cell_length_b       4.61884
_cell_length_c       9.95409
_cell_angle_alpha    90
_cell_angle_beta     90
_cell_angle_gamma    90

_symmetry_Int_Tables_number  25
_chemical_formula_structural  Nb4CoPt3
_chemical_formula_sum  Nb4CoPt3
_cell_volume  128.9348163825059
_cell_formula_units_Z  1
loop_
  _symmetry_equiv_pos_site_id
 _symmetry_equiv_pos_as_xyz
 1  'x, y, z'
loop_
 _atom_site_type_symbol
 _atom_site_label
 _atom_site_symmetry_multiplicity
 _atom_site_fract_x
 _atom_site_fract_y
 _atom_site_fract_z
 _atom_site_fract_occupancy
 Co  Co1  1  0.50000  0.50000  0.15798  1
 Nb  Nb1  1  0.00000  0.50000  0.39860  1
 Nb  Nb2  1  0.00000  0.50000  0.92059  1
 Nb  Nb3  1  0.00000  0.00000  0.09763  1
 Nb  Nb4  1  0.00000  0.00000  0.58837  1
 Pt  Pt1  1  0.50000  0.50000  0.66248  1
 Pt  Pt2  1  0.50000  0.00000  0.33449  1
 Pt  Pt3  1  0.50000  0.00000  0.83986  1
