CIF file written using JARVIS-Tools package.
data_NaMnBi
_symmetry_space_group_name_H-M  'P4/nmm'
_cell_length_a       4.50527
_cell_length_b       4.50527
_cell_length_c       7.63699
_cell_angle_alpha    90
_cell_angle_beta     90
_cell_angle_gamma    90

_symmetry_Int_Tables_number  129
_chemical_formula_structural  NaMnBi
_chemical_formula_sum  Na2Mn2Bi2
_cell_volume  155.0114542170072
_cell_formula_units_Z  2
loop_
  _symmetry_equiv_pos_site_id
 _symmetry_equiv_pos_as_xyz
 1  'x, y, z'
loop_
 _atom_site_type_symbol
 _atom_site_label
 _atom_site_symmetry_multiplicity
 _atom_site_fract_x
 _atom_site_fract_y
 _atom_site_fract_z
 _atom_site_fract_occupancy
 Bi  Bi1  1  0.00000  0.50000  0.22834  1
 Bi  Bi2  1  0.50000  0.00000  0.77166  1
 Mn  Mn1  1  0.50000  0.50000  0.00000  1
 Mn  Mn2  1  0.00000  0.00000  0.00000  1
 Na  Na1  1  0.00000  0.50000  0.65925  1
 Na  Na2  1  0.50000  0.00000  0.34075  1
