CIF file written using JARVIS-Tools package.
data_MnVCuO4
_symmetry_space_group_name_H-M  'Cmcm'
_cell_length_a       5.23788
_cell_length_b       5.23788
_cell_length_c       6.3524
_cell_angle_alpha    90
_cell_angle_beta     90
_cell_angle_gamma    112.312

_symmetry_Int_Tables_number  63
_chemical_formula_structural  MnVCuO4
_chemical_formula_sum  Mn2V2Cu2O8
_cell_volume  161.23250277344704
_cell_formula_units_Z  2
loop_
  _symmetry_equiv_pos_site_id
 _symmetry_equiv_pos_as_xyz
 1  'x, y, z'
loop_
 _atom_site_type_symbol
 _atom_site_label
 _atom_site_symmetry_multiplicity
 _atom_site_fract_x
 _atom_site_fract_y
 _atom_site_fract_z
 _atom_site_fract_occupancy
 Cu  Cu1  1  0.66896  0.33104  0.75000  1
 Cu  Cu2  1  0.33104  0.66896  0.25000  1
 Mn  Mn1  1  0.00000  0.00000  0.00000  1
 Mn  Mn2  1  0.00000  0.00000  0.50000  1
 O  O1  1  0.23984  0.76016  0.97108  1
 O  O2  1  0.76016  0.23984  0.47108  1
 O  O3  1  0.76016  0.23984  0.02892  1
 O  O4  1  0.23984  0.76016  0.52892  1
 O  O5  1  0.22794  0.27087  0.75000  1
 O  O6  1  0.77206  0.72913  0.25000  1
 O  O7  1  0.72913  0.77206  0.75000  1
 O  O8  1  0.27087  0.22794  0.25000  1
 V  V1  1  0.35810  0.64190  0.75000  1
 V  V2  1  0.64190  0.35810  0.25000  1
