CIF file written using JARVIS-Tools package.
data_Zr
_symmetry_space_group_name_H-M  'Ibam'
_cell_length_a       5.40256
_cell_length_b       5.85424
_cell_length_c       5.85424
_cell_angle_alpha    90.6597
_cell_angle_beta     62.5236
_cell_angle_gamma    62.5236

_symmetry_Int_Tables_number  72
_chemical_formula_structural  Zr
_chemical_formula_sum  Zr6
_cell_volume  139.6951783335033
_cell_formula_units_Z  6
loop_
  _symmetry_equiv_pos_site_id
 _symmetry_equiv_pos_as_xyz
 1  'x, y, z'
loop_
 _atom_site_type_symbol
 _atom_site_label
 _atom_site_symmetry_multiplicity
 _atom_site_fract_x
 _atom_site_fract_y
 _atom_site_fract_z
 _atom_site_fract_occupancy
 Zr  Zr1  1  0.75000  0.74999  0.25001  1
 Zr  Zr2  1  0.25000  0.25001  0.74999  1
 Zr  Zr3  1  0.42586  0.32369  0.17628  1
 Zr  Zr4  1  0.07414  0.82372  0.67631  1
 Zr  Zr5  1  0.57414  0.67631  0.82372  1
 Zr  Zr6  1  0.92586  0.17628  0.32369  1
