CIF file written using JARVIS-Tools package.
data_BaIn
_symmetry_space_group_name_H-M  'Cmcm'
_cell_length_a       5.69353
_cell_length_b       7.47553
_cell_length_c       7.47552
_cell_angle_alpha    113.173
_cell_angle_beta     90
_cell_angle_gamma    90

_symmetry_Int_Tables_number  63
_chemical_formula_structural  BaIn
_chemical_formula_sum  Ba4In4
_cell_volume  292.5038690627156
_cell_formula_units_Z  4
loop_
  _symmetry_equiv_pos_site_id
 _symmetry_equiv_pos_as_xyz
 1  'x, y, z'
loop_
 _atom_site_type_symbol
 _atom_site_label
 _atom_site_symmetry_multiplicity
 _atom_site_fract_x
 _atom_site_fract_y
 _atom_site_fract_z
 _atom_site_fract_occupancy
 Ba  Ba1  1  0.25000  0.32605  0.67395  1
 Ba  Ba2  1  0.75000  0.67395  0.32605  1
 Ba  Ba3  1  0.25000  0.87230  0.12770  1
 Ba  Ba4  1  0.75000  0.12770  0.87230  1
 In  In1  1  0.75000  0.21230  0.37831  1
 In  In2  1  0.25000  0.78770  0.62169  1
 In  In3  1  0.25000  0.37831  0.21230  1
 In  In4  1  0.75000  0.62169  0.78770  1
