CIF file written using JARVIS-Tools package.
data_BeCo2Sb
_symmetry_space_group_name_H-M  'I-4m2'
_cell_length_a       4.62941
_cell_length_b       4.62941
_cell_length_c       4.62941
_cell_angle_alpha    134.463
_cell_angle_beta     134.463
_cell_angle_gamma    66.3657

_symmetry_Int_Tables_number  119
_chemical_formula_structural  BeCo2Sb
_chemical_formula_sum  BeCo2Sb
_cell_volume  49.74662590161238
_cell_formula_units_Z  1
loop_
  _symmetry_equiv_pos_site_id
 _symmetry_equiv_pos_as_xyz
 1  'x, y, z'
loop_
 _atom_site_type_symbol
 _atom_site_label
 _atom_site_symmetry_multiplicity
 _atom_site_fract_x
 _atom_site_fract_y
 _atom_site_fract_z
 _atom_site_fract_occupancy
 Be  Be1  1  0.75000  0.25000  0.50000  1
 Co  Co1  1  0.00000  0.00000  0.00000  1
 Co  Co2  1  0.25000  0.75000  0.50000  1
 Sb  Sb1  1  0.50000  0.50000  0.00000  1
