CIF file written using JARVIS-Tools package.
data_Ba2CaV2CuF14
_symmetry_space_group_name_H-M  'C2/c'
_cell_length_a       5.40276
_cell_length_b       7.47653
_cell_length_c       14.9075
_cell_angle_alpha    92.1316
_cell_angle_beta     90
_cell_angle_gamma    111.181

_symmetry_Int_Tables_number  15
_chemical_formula_structural  Ba2CaV2CuF14
_chemical_formula_sum  Ba4Ca2V4Cu2F28
_cell_volume  561.0427950802207
_cell_formula_units_Z  2
loop_
  _symmetry_equiv_pos_site_id
 _symmetry_equiv_pos_as_xyz
 1  'x, y, z'
loop_
 _atom_site_type_symbol
 _atom_site_label
 _atom_site_symmetry_multiplicity
 _atom_site_fract_x
 _atom_site_fract_y
 _atom_site_fract_z
 _atom_site_fract_occupancy
 Ba  Ba1  1  0.74337  0.62803  0.87682  1
 Ba  Ba2  1  0.88466  0.62803  0.37682  1
 Ba  Ba3  1  0.11534  0.37197  0.62318  1
 Ba  Ba4  1  0.25663  0.37197  0.12318  1
 Ca  Ca1  1  0.57200  -0.00000  0.25000  1
 Ca  Ca2  1  0.42800  0.00000  0.75000  1
 Cu  Cu1  1  0.50000  0.00000  0.00000  1
 Cu  Cu2  1  0.50000  -0.00000  0.50000  1
 F  F1  1  0.83170  0.24548  0.79228  1
 F  F2  1  0.28150  0.18136  0.48218  1
 F  F3  1  0.12833  0.71290  0.54717  1
 F  F4  1  0.34396  0.51245  0.40038  1
 F  F5  1  0.95789  0.31990  0.27688  1
 F  F6  1  0.91613  0.98980  0.34519  1
 F  F7  1  0.37506  0.89513  0.38097  1
 F  F8  1  0.58458  0.71290  0.04717  1
 F  F9  1  0.07367  0.98980  0.84519  1
 F  F10  1  0.10014  0.81864  0.01782  1
 F  F11  1  0.52007  0.89513  0.88097  1
 F  F12  1  0.08387  0.01020  0.65481  1
 F  F13  1  0.62494  0.10487  0.61903  1
 F  F14  1  0.41378  0.24548  0.29228  1
 F  F15  1  0.41542  0.28710  0.95283  1
 F  F16  1  0.89986  0.18136  0.98218  1
 F  F17  1  0.36201  0.31990  0.77688  1
 F  F18  1  0.16849  0.51245  0.90038  1
 F  F19  1  0.04211  0.68010  0.72312  1
 F  F20  1  0.47993  0.10487  0.11903  1
 F  F21  1  0.63799  0.68010  0.22312  1
 F  F22  1  0.58622  0.75452  0.70772  1
 F  F23  1  0.16830  0.75452  0.20772  1
 F  F24  1  0.65604  0.48755  0.59962  1
 F  F25  1  0.83151  0.48755  0.09962  1
 F  F26  1  0.87167  0.28710  0.45283  1
 F  F27  1  0.92633  0.01020  0.15481  1
 F  F28  1  0.71850  0.81864  0.51782  1
 V  V1  1  0.14163  0.24828  0.37647  1
 V  V2  1  0.89334  0.75172  0.12353  1
 V  V3  1  0.85837  0.75172  0.62353  1
 V  V4  1  0.10666  0.24828  0.87647  1
