CIF file written using JARVIS-Tools package.
data_V3O4F2
_symmetry_space_group_name_H-M  'P-1'
_cell_length_a       5.47793
_cell_length_b       5.50948
_cell_length_c       7.21544
_cell_angle_alpha    72.0645
_cell_angle_beta     71.2343
_cell_angle_gamma    73.3123

_symmetry_Int_Tables_number  2
_chemical_formula_structural  V3O4F2
_chemical_formula_sum  V6O8F4
_cell_volume  191.84606607496707
_cell_formula_units_Z  2
loop_
  _symmetry_equiv_pos_site_id
 _symmetry_equiv_pos_as_xyz
 1  'x, y, z'
loop_
 _atom_site_type_symbol
 _atom_site_label
 _atom_site_symmetry_multiplicity
 _atom_site_fract_x
 _atom_site_fract_y
 _atom_site_fract_z
 _atom_site_fract_occupancy
 F  F1  1  0.12375  0.53285  0.17331  1
 F  F2  1  0.87625  0.46715  0.82669  1
 F  F3  1  0.26152  0.25874  0.53926  1
 F  F4  1  0.73848  0.74126  0.46074  1
 O  O1  1  0.93349  0.94385  0.86306  1
 O  O2  1  0.20369  0.79324  0.50190  1
 O  O3  1  0.06651  0.05615  0.13694  1
 O  O4  1  0.39719  0.39322  0.80202  1
 O  O5  1  0.60281  0.60678  0.19798  1
 O  O6  1  0.48267  0.85839  0.83037  1
 O  O7  1  0.51733  0.14161  0.16963  1
 O  O8  1  0.79631  0.20676  0.49810  1
 V  V1  1  0.80401  0.86272  0.14247  1
 V  V2  1  0.84211  0.86792  0.66303  1
 V  V3  1  0.15789  0.13208  0.33697  1
 V  V4  1  0.50000  0.50000  0.50000  1
 V  V5  1  0.19599  0.13728  0.85753  1
 V  V6  1  0.50000  0.50000  -0.00000  1
