CIF file written using JARVIS-Tools package.
data_Hf2SN2
_symmetry_space_group_name_H-M  'Immm'
_cell_length_a       3.50824
_cell_length_b       4.13863
_cell_length_c       6.33254
_cell_angle_alpha    109.073
_cell_angle_beta     106.081
_cell_angle_gamma    90

_symmetry_Int_Tables_number  71
_chemical_formula_structural  Hf2SN2
_chemical_formula_sum  Hf2SN2
_cell_volume  83.08049022620271
_cell_formula_units_Z  1
loop_
  _symmetry_equiv_pos_site_id
 _symmetry_equiv_pos_as_xyz
 1  'x, y, z'
loop_
 _atom_site_type_symbol
 _atom_site_label
 _atom_site_symmetry_multiplicity
 _atom_site_fract_x
 _atom_site_fract_y
 _atom_site_fract_z
 _atom_site_fract_occupancy
 Hf  Hf1  1  0.67387  0.17387  0.34774  1
 Hf  Hf2  1  0.32613  0.82613  0.65226  1
 N  N1  1  0.27926  0.27926  0.55852  1
 N  N2  1  0.72074  0.72074  0.44148  1
 S  S1  1  0.00000  0.00000  0.00000  1
