CIF file written using JARVIS-Tools package.
data_In2Ag2GeS6
_symmetry_space_group_name_H-M  'Cc'
_cell_length_a       7.16528
_cell_length_b       7.16529
_cell_length_c       12.34
_cell_angle_alpha    73.0453
_cell_angle_beta     73.0453
_cell_angle_gamma    60.6159

_symmetry_Int_Tables_number  9
_chemical_formula_structural  In2Ag2GeS6
_chemical_formula_sum  In4Ag4Ge2S2
_cell_volume  519.5971492617822
_cell_formula_units_Z  2
loop_
  _symmetry_equiv_pos_site_id
 _symmetry_equiv_pos_as_xyz
 1  'x, y, z'
loop_
 _atom_site_type_symbol
 _atom_site_label
 _atom_site_symmetry_multiplicity
 _atom_site_fract_x
 _atom_site_fract_y
 _atom_site_fract_z
 _atom_site_fract_occupancy
 Ag  Ag1  1  0.80486  0.98841  0.24374  1
 Ag  Ag2  1  0.80871  0.38554  0.59118  1
 Ag  Ag3  1  0.38554  0.80871  0.09118  1
 Ag  Ag4  1  0.98841  0.80486  0.74374  1
 Ge  Ge1  1  0.93252  0.40731  0.99912  1
 Ge  Ge2  1  0.40731  0.93252  0.49912  1
 In  In1  1  0.32128  0.51433  0.43983  1
 In  In2  1  0.16785  0.30199  0.24375  1
 In  In3  1  0.30199  0.16785  0.74375  1
 In  In4  1  0.51433  0.32128  0.93983  1
 S  S1  1  0.08681  0.09791  0.44292  1
 S  S2  1  0.60275  0.11640  0.44997  1
 S  S3  1  0.16564  0.64747  0.25862  1
 S  S4  1  0.82933  0.36073  0.18964  1
 S  S5  1  0.51720  0.06018  0.12865  1
 S  S6  1  0.06018  0.51720  0.62865  1
 S  S7  1  0.11640  0.60275  0.94997  1
 S  S8  1  0.36073  0.82933  0.68964  1
 S  S9  1  0.64747  0.16564  0.75862  1
 S  S10  1  0.60837  0.63342  0.41976  1
 S  S11  1  0.63342  0.60837  0.91976  1
 S  S12  1  0.09791  0.08681  0.94292  1
