CIF file written using JARVIS-Tools package.
data_Dy3CuGeS7
_symmetry_space_group_name_H-M  'P6_3'
_cell_length_a       9.84285
_cell_length_b       9.84284
_cell_length_c       5.80937
_cell_angle_alpha    90
_cell_angle_beta     90
_cell_angle_gamma    120

_symmetry_Int_Tables_number  173
_chemical_formula_structural  Dy3CuGeS7
_chemical_formula_sum  Dy6Cu2Ge2S4
_cell_volume  487.4175388468258
_cell_formula_units_Z  2
loop_
  _symmetry_equiv_pos_site_id
 _symmetry_equiv_pos_as_xyz
 1  'x, y, z'
loop_
 _atom_site_type_symbol
 _atom_site_label
 _atom_site_symmetry_multiplicity
 _atom_site_fract_x
 _atom_site_fract_y
 _atom_site_fract_z
 _atom_site_fract_occupancy
 Cu  Cu1  1  0.00000  0.00000  0.69644  1
 Cu  Cu2  1  0.00000  0.00000  0.19644  1
 Dy  Dy1  1  0.35808  0.13501  0.25521  1
 Dy  Dy2  1  0.13501  0.77694  0.75521  1
 Dy  Dy3  1  0.22306  0.35808  0.75521  1
 Dy  Dy4  1  0.64192  0.86499  0.75521  1
 Dy  Dy5  1  0.86499  0.22306  0.25521  1
 Dy  Dy6  1  0.77694  0.64192  0.25521  1
 Ge  Ge1  1  0.66667  0.33333  0.83568  1
 Ge  Ge2  1  0.33333  0.66667  0.33568  1
 S  S1  1  0.42372  0.90403  0.49827  1
 S  S2  1  0.89846  0.15960  0.71707  1
 S  S3  1  0.48031  0.57628  0.49827  1
 S  S4  1  0.90403  0.48031  0.99827  1
 S  S5  1  0.09597  0.51969  0.49827  1
 S  S6  1  0.10154  0.84040  0.21707  1
 S  S7  1  0.66667  0.33333  0.45553  1
 S  S8  1  0.15960  0.26115  0.21707  1
 S  S9  1  0.73885  0.89846  0.21707  1
 S  S10  1  0.33333  0.66667  0.95553  1
 S  S11  1  0.57628  0.09597  0.99827  1
 S  S12  1  0.84040  0.73885  0.71707  1
 S  S13  1  0.51969  0.42372  0.99827  1
 S  S14  1  0.26115  0.10154  0.71707  1
