CIF file written using JARVIS-Tools package.
data_K2MnP2S6
_symmetry_space_group_name_H-M  'P2_1/c'
_cell_length_a       6.18698
_cell_length_b       7.2819
_cell_length_c       12.143
_cell_angle_alpha    90
_cell_angle_beta     90
_cell_angle_gamma    102.483

_symmetry_Int_Tables_number  14
_chemical_formula_structural  K2MnP2S6
_chemical_formula_sum  K4Mn2P4S2
_cell_volume  534.1436477421996
_cell_formula_units_Z  2
loop_
  _symmetry_equiv_pos_site_id
 _symmetry_equiv_pos_as_xyz
 1  'x, y, z'
loop_
 _atom_site_type_symbol
 _atom_site_label
 _atom_site_symmetry_multiplicity
 _atom_site_fract_x
 _atom_site_fract_y
 _atom_site_fract_z
 _atom_site_fract_occupancy
 K  K1  1  0.77870  0.46692  0.68883  1
 K  K2  1  0.72130  0.03308  0.18883  1
 K  K3  1  0.22130  0.53308  0.31117  1
 K  K4  1  0.27870  0.96692  0.81117  1
 Mn  Mn1  1  0.50000  0.50000  0.00000  1
 Mn  Mn2  1  0.00000  0.00000  0.50000  1
 P  P1  1  0.48496  0.13868  0.46400  1
 P  P2  1  0.01504  0.36132  0.96400  1
 P  P3  1  0.51504  0.86132  0.53600  1
 P  P4  1  0.98496  0.63868  0.03600  1
 S  S1  1  0.28405  0.07235  0.32996  1
 S  S2  1  0.69317  0.23470  0.93637  1
 S  S3  1  0.19317  0.73470  0.56363  1
 S  S4  1  0.30683  0.76530  0.06363  1
 S  S5  1  0.80683  0.26530  0.43637  1
 S  S6  1  0.78405  0.57235  0.17004  1
 S  S7  1  0.32052  0.25795  0.57999  1
 S  S8  1  0.17948  0.24205  0.07999  1
 S  S9  1  0.71595  0.92765  0.67004  1
 S  S10  1  0.67948  0.74205  0.42001  1
 S  S11  1  0.82052  0.75795  0.92001  1
 S  S12  1  0.21595  0.42765  0.82996  1
