CIF file written using JARVIS-Tools package.
data_YbBeF4
_symmetry_space_group_name_H-M  'P-1'
_cell_length_a       7.6765
_cell_length_b       6.83495
_cell_length_c       5.5327
_cell_angle_alpha    100.846
_cell_angle_beta     99.4407
_cell_angle_gamma    93.2285

_symmetry_Int_Tables_number  2
_chemical_formula_structural  YbBeF4
_chemical_formula_sum  Yb4Be4F6
_cell_volume  280.1039218670269
_cell_formula_units_Z  4
loop_
  _symmetry_equiv_pos_site_id
 _symmetry_equiv_pos_as_xyz
 1  'x, y, z'
loop_
 _atom_site_type_symbol
 _atom_site_label
 _atom_site_symmetry_multiplicity
 _atom_site_fract_x
 _atom_site_fract_y
 _atom_site_fract_z
 _atom_site_fract_occupancy
 Be  Be1  1  0.81618  0.53306  0.24137  1
 Be  Be2  1  0.18382  0.46694  0.75863  1
 Be  Be3  1  0.80515  0.38426  0.71093  1
 Be  Be4  1  0.19485  0.61574  0.28907  1
 F  F1  1  0.27407  0.52750  0.04762  1
 F  F2  1  0.18990  0.84150  0.32506  1
 F  F3  1  0.27384  0.58168  0.57221  1
 F  F4  1  0.56457  0.82548  0.49096  1
 F  F5  1  0.41840  0.16852  0.05197  1
 F  F6  1  0.01835  0.46365  0.24020  1
 F  F7  1  -0.01835  0.53635  0.75980  1
 F  F8  1  0.88363  0.08228  0.13396  1
 F  F9  1  0.81010  0.15851  0.67494  1
 F  F10  1  0.72616  0.41832  0.42778  1
 F  F11  1  0.11637  0.91772  0.86604  1
 F  F12  1  0.72594  0.47251  0.95237  1
 F  F13  1  0.58160  0.83148  0.94804  1
 F  F14  1  0.84961  0.75472  0.35490  1
 F  F15  1  0.43543  0.17452  0.50904  1
 F  F16  1  0.15039  0.24528  0.64510  1
 Yb  Yb1  1  0.63565  0.05338  0.28829  1
 Yb  Yb2  1  0.17785  0.14685  0.22550  1
 Yb  Yb3  1  0.36435  0.94662  0.71171  1
 Yb  Yb4  1  0.82215  0.85314  0.77450  1
