CIF file written using JARVIS-Tools package.
data_NdSi3Os
_symmetry_space_group_name_H-M  'I4mm'
_cell_length_a       4.28443
_cell_length_b       4.28443
_cell_length_c       5.84689
_cell_angle_alpha    111.493
_cell_angle_beta     111.493
_cell_angle_gamma    90

_symmetry_Int_Tables_number  107
_chemical_formula_structural  NdSi3Os
_chemical_formula_sum  NdSi3Os
_cell_volume  91.7962170873167
_cell_formula_units_Z  1
loop_
  _symmetry_equiv_pos_site_id
 _symmetry_equiv_pos_as_xyz
 1  'x, y, z'
loop_
 _atom_site_type_symbol
 _atom_site_label
 _atom_site_symmetry_multiplicity
 _atom_site_fract_x
 _atom_site_fract_y
 _atom_site_fract_z
 _atom_site_fract_occupancy
 Nd  Nd1  1  0.99825  0.99825  0.99650  1
 Os  Os1  1  0.65499  0.65499  0.30998  1
 Si  Si1  1  0.41972  0.41972  0.83944  1
 Si  Si2  1  0.76052  0.26052  0.52104  1
 Si  Si3  1  0.26052  0.76052  0.52104  1
