CIF file written using JARVIS-Tools package.
data_MgMn2O4
_symmetry_space_group_name_H-M  'P2/m'
_cell_length_a       2.88498
_cell_length_b       5.16658
_cell_length_c       4.80779
_cell_angle_alpha    108.084
_cell_angle_beta     90.0001
_cell_angle_gamma    89.9986

_symmetry_Int_Tables_number  10
_chemical_formula_structural  MgMn2O4
_chemical_formula_sum  MgMn2O4
_cell_volume  68.12256869282518
_cell_formula_units_Z  1
loop_
  _symmetry_equiv_pos_site_id
 _symmetry_equiv_pos_as_xyz
 1  'x, y, z'
loop_
 _atom_site_type_symbol
 _atom_site_label
 _atom_site_symmetry_multiplicity
 _atom_site_fract_x
 _atom_site_fract_y
 _atom_site_fract_z
 _atom_site_fract_occupancy
 Mg  Mg1  1  0.50000  0.50000  0.99999  1
 Mn  Mn1  1  0.00000  0.00000  0.00001  1
 Mn  Mn2  1  0.50000  -0.00001  0.49999  1
 O  O1  1  0.49999  0.21519  0.22797  1
 O  O2  1  -0.00001  0.23215  0.74892  1
 O  O3  1  0.00001  0.76783  0.25107  1
 O  O4  1  0.50001  0.78482  0.77204  1
