CIF file written using JARVIS-Tools package.
data_MgZn
_symmetry_space_group_name_H-M  'P3m1'
_cell_length_a       3.11639
_cell_length_b       3.1164
_cell_length_c       13.3837
_cell_angle_alpha    90
_cell_angle_beta     90
_cell_angle_gamma    120

_symmetry_Int_Tables_number  156
_chemical_formula_structural  MgZn
_chemical_formula_sum  Mg3Zn3
_cell_volume  112.56714386844943
_cell_formula_units_Z  3
loop_
  _symmetry_equiv_pos_site_id
 _symmetry_equiv_pos_as_xyz
 1  'x, y, z'
loop_
 _atom_site_type_symbol
 _atom_site_label
 _atom_site_symmetry_multiplicity
 _atom_site_fract_x
 _atom_site_fract_y
 _atom_site_fract_z
 _atom_site_fract_occupancy
 Mg  Mg1  1  0.00000  0.00000  0.00722  1
 Mg  Mg2  1  0.00000  0.00000  0.67688  1
 Mg  Mg3  1  0.33333  0.66667  0.48317  1
 Zn  Zn1  1  0.33333  0.66667  0.84193  1
 Zn  Zn2  1  0.00000  0.00000  0.31892  1
 Zn  Zn3  1  0.33333  0.66667  0.17187  1
