CIF file written using JARVIS-Tools package.
data_AgPdF6
_symmetry_space_group_name_H-M  'P-1'
_cell_length_a       5.01755
_cell_length_b       5.03259
_cell_length_c       10.1294
_cell_angle_alpha    76.1039
_cell_angle_beta     76.3393
_cell_angle_gamma    60.3271

_symmetry_Int_Tables_number  2
_chemical_formula_structural  AgPdF6
_chemical_formula_sum  Ag2Pd2F2
_cell_volume  213.63777042708352
_cell_formula_units_Z  2
loop_
  _symmetry_equiv_pos_site_id
 _symmetry_equiv_pos_as_xyz
 1  'x, y, z'
loop_
 _atom_site_type_symbol
 _atom_site_label
 _atom_site_symmetry_multiplicity
 _atom_site_fract_x
 _atom_site_fract_y
 _atom_site_fract_z
 _atom_site_fract_occupancy
 Ag  Ag1  1  0.50000  0.50000  0.50000  1
 Ag  Ag2  1  0.00000  0.00000  0.00000  1
 F  F1  1  0.93632  0.50944  0.36603  1
 F  F2  1  0.06368  0.49056  0.63397  1
 F  F3  1  0.61785  0.94621  0.13282  1
 F  F4  1  0.38215  0.05379  0.86718  1
 F  F5  1  0.67083  0.42833  0.86558  1
 F  F6  1  0.32917  0.57167  0.13442  1
 F  F7  1  0.01141  0.70956  0.86753  1
 F  F8  1  -0.01141  0.29044  0.13247  1
 F  F9  1  0.44105  0.82306  0.63224  1
 F  F10  1  0.55895  0.17694  0.36776  1
 F  F11  1  0.78687  0.11096  0.63371  1
 F  F12  1  0.21313  0.88904  0.36629  1
 Pd  Pd1  1  0.27558  0.23148  0.24997  1
 Pd  Pd2  1  0.72442  0.76852  0.75003  1
