CIF file written using JARVIS-Tools package.
data_BeSiOs
_symmetry_space_group_name_H-M  'P3m1'
_cell_length_a       2.80971
_cell_length_b       2.80971
_cell_length_c       5.60015
_cell_angle_alpha    90
_cell_angle_beta     90
_cell_angle_gamma    120

_symmetry_Int_Tables_number  156
_chemical_formula_structural  BeSiOs
_chemical_formula_sum  BeSiOs
_cell_volume  38.287256269735266
_cell_formula_units_Z  1
loop_
  _symmetry_equiv_pos_site_id
 _symmetry_equiv_pos_as_xyz
 1  'x, y, z'
loop_
 _atom_site_type_symbol
 _atom_site_label
 _atom_site_symmetry_multiplicity
 _atom_site_fract_x
 _atom_site_fract_y
 _atom_site_fract_z
 _atom_site_fract_occupancy
 Be  Be1  1  0.00000  0.00000  0.00541  1
 Os  Os1  1  0.66667  0.33333  0.32690  1
 Si  Si1  1  0.33333  0.66667  0.66769  1
