CIF file written using JARVIS-Tools package.
data_HfGeSe
_symmetry_space_group_name_H-M  'P4/nmm'
_cell_length_a       3.73053
_cell_length_b       3.73053
_cell_length_c       8.21028
_cell_angle_alpha    90
_cell_angle_beta     90
_cell_angle_gamma    90

_symmetry_Int_Tables_number  129
_chemical_formula_structural  HfGeSe
_chemical_formula_sum  Hf2Ge2Se2
_cell_volume  114.26131038396395
_cell_formula_units_Z  2
loop_
  _symmetry_equiv_pos_site_id
 _symmetry_equiv_pos_as_xyz
 1  'x, y, z'
loop_
 _atom_site_type_symbol
 _atom_site_label
 _atom_site_symmetry_multiplicity
 _atom_site_fract_x
 _atom_site_fract_y
 _atom_site_fract_z
 _atom_site_fract_occupancy
 Ge  Ge1  1  0.50000  0.50000  0.00000  1
 Ge  Ge2  1  0.00000  0.00000  0.00000  1
 Hf  Hf1  1  0.50000  0.00000  0.73790  1
 Hf  Hf2  1  0.00000  0.50000  0.26210  1
 Se  Se1  1  0.00000  0.50000  0.62063  1
 Se  Se2  1  0.50000  0.00000  0.37937  1
