CIF file written using JARVIS-Tools package.
data_NdCu2
_symmetry_space_group_name_H-M  'P6/mmm'
_cell_length_a       4.29583
_cell_length_b       5.68917
_cell_length_c       5.68917
_cell_angle_alpha    81.932
_cell_angle_beta     67.8184
_cell_angle_gamma    67.8184

_symmetry_Int_Tables_number  191
_chemical_formula_structural  NdCu2
_chemical_formula_sum  Nd2Cu4
_cell_volume  119.22193452877052
_cell_formula_units_Z  2
loop_
  _symmetry_equiv_pos_site_id
 _symmetry_equiv_pos_as_xyz
 1  'x, y, z'
loop_
 _atom_site_type_symbol
 _atom_site_label
 _atom_site_symmetry_multiplicity
 _atom_site_fract_x
 _atom_site_fract_y
 _atom_site_fract_z
 _atom_site_fract_occupancy
 Cu  Cu1  1  0.16666  0.33322  0.33346  1
 Cu  Cu2  1  0.83334  0.66678  0.66654  1
 Cu  Cu3  1  0.83334  0.16654  0.16678  1
 Cu  Cu4  1  0.16666  0.83346  0.83322  1
 Nd  Nd1  1  0.50009  0.74991  0.24991  1
 Nd  Nd2  1  0.49991  0.25009  0.75009  1
