CIF file written using JARVIS-Tools package.
data_Sn4SI6
_symmetry_space_group_name_H-M  'C2/m'
_cell_length_a       4.43562
_cell_length_b       7.48229
_cell_length_c       25.4611
_cell_angle_alpha    93.1696
_cell_angle_beta     90
_cell_angle_gamma    107.242

_symmetry_Int_Tables_number  12
_chemical_formula_structural  Sn4SI6
_chemical_formula_sum  Sn8S2I2
_cell_volume  805.6908053482105
_cell_formula_units_Z  2
loop_
  _symmetry_equiv_pos_site_id
 _symmetry_equiv_pos_as_xyz
 1  'x, y, z'
loop_
 _atom_site_type_symbol
 _atom_site_label
 _atom_site_symmetry_multiplicity
 _atom_site_fract_x
 _atom_site_fract_y
 _atom_site_fract_z
 _atom_site_fract_occupancy
 I  I1  1  0.36108  0.72216  0.16619  1
 I  I2  1  0.06647  0.13295  0.08257  1
 I  I3  1  0.14228  0.28456  0.52609  1
 I  I4  1  0.85772  0.71544  0.47391  1
 I  I5  1  0.18324  0.36648  0.68212  1
 I  I6  1  0.81676  0.63352  0.31788  1
 I  I7  1  0.43955  0.87910  0.60065  1
 I  I8  1  0.56045  0.12090  0.39935  1
 I  I9  1  0.89872  0.79744  0.75243  1
 I  I10  1  0.93353  0.86705  0.91743  1
 I  I11  1  0.63892  0.27784  0.83381  1
 I  I12  1  0.10128  0.20256  0.24757  1
 S  S1  1  0.77593  0.55185  0.05231  1
 S  S2  1  0.22407  0.44815  0.94769  1
 Sn  Sn1  1  0.29753  0.59506  0.85372  1
 Sn  Sn2  1  0.70247  0.40494  0.14628  1
 Sn  Sn3  1  0.22230  0.44461  0.41593  1
 Sn  Sn4  1  0.77770  0.55539  0.58407  1
 Sn  Sn5  1  0.36994  0.73987  0.01714  1
 Sn  Sn6  1  0.63006  0.26013  0.98286  1
 Sn  Sn7  1  0.53710  0.07420  0.71568  1
 Sn  Sn8  1  0.46290  0.92580  0.28432  1
