CIF file written using JARVIS-Tools package.
data_AgBiTe3Pb
_symmetry_space_group_name_H-M  'Imm2'
_cell_length_a       7.71486
_cell_length_b       7.71486
_cell_length_c       7.71486
_cell_angle_alpha    146.26
_cell_angle_beta     131.365
_cell_angle_gamma    60.5

_symmetry_Int_Tables_number  44
_chemical_formula_structural  AgBiTe3Pb
_chemical_formula_sum  AgBiTe3Pb
_cell_volume  189.60544641110172
_cell_formula_units_Z  1
loop_
  _symmetry_equiv_pos_site_id
 _symmetry_equiv_pos_as_xyz
 1  'x, y, z'
loop_
 _atom_site_type_symbol
 _atom_site_label
 _atom_site_symmetry_multiplicity
 _atom_site_fract_x
 _atom_site_fract_y
 _atom_site_fract_z
 _atom_site_fract_occupancy
 Ag  Ag1  1  0.00212  0.00212  -0.00000  1
 Bi  Bi1  1  0.32786  0.32786  0.00000  1
 Pb  Pb1  1  0.67402  0.67402  -0.00000  1
 Te  Te1  1  0.49296  0.99296  0.50000  1
 Te  Te2  1  0.15556  0.65556  0.50000  1
 Te  Te3  1  0.84748  0.34748  0.50000  1
