CIF file written using JARVIS-Tools package.
data_Er2Mg2Ru
_symmetry_space_group_name_H-M  'I4/mmm'
_cell_length_a       3.36697
_cell_length_b       3.36697
_cell_length_c       10.4884
_cell_angle_alpha    99.2365
_cell_angle_beta     99.2365
_cell_angle_gamma    90

_symmetry_Int_Tables_number  139
_chemical_formula_structural  Er2Mg2Ru
_chemical_formula_sum  Er2Mg2Ru
_cell_volume  115.79772897347154
_cell_formula_units_Z  1
loop_
  _symmetry_equiv_pos_site_id
 _symmetry_equiv_pos_as_xyz
 1  'x, y, z'
loop_
 _atom_site_type_symbol
 _atom_site_label
 _atom_site_symmetry_multiplicity
 _atom_site_fract_x
 _atom_site_fract_y
 _atom_site_fract_z
 _atom_site_fract_occupancy
 Er  Er1  1  0.57986  0.57986  0.15972  1
 Er  Er2  1  0.42014  0.42014  0.84028  1
 Mg  Mg1  1  0.79880  0.79880  0.59759  1
 Mg  Mg2  1  0.20120  0.20120  0.40241  1
 Ru  Ru1  1  0.00000  0.00000  0.00000  1
