CIF file written using JARVIS-Tools package.
data_Be2GePt
_symmetry_space_group_name_H-M  'P4mm'
_cell_length_a       3.22372
_cell_length_b       3.22372
_cell_length_c       4.86972
_cell_angle_alpha    90
_cell_angle_beta     90
_cell_angle_gamma    90

_symmetry_Int_Tables_number  99
_chemical_formula_structural  Be2GePt
_chemical_formula_sum  Be2GePt
_cell_volume  50.60807096389196
_cell_formula_units_Z  1
loop_
  _symmetry_equiv_pos_site_id
 _symmetry_equiv_pos_as_xyz
 1  'x, y, z'
loop_
 _atom_site_type_symbol
 _atom_site_label
 _atom_site_symmetry_multiplicity
 _atom_site_fract_x
 _atom_site_fract_y
 _atom_site_fract_z
 _atom_site_fract_occupancy
 Be  Be1  1  0.00000  0.00000  -0.00707  1
 Be  Be2  1  0.50000  0.50000  0.24574  1
 Ge  Ge1  1  0.00000  0.00000  0.47778  1
 Pt  Pt1  1  0.50000  0.50000  0.78356  1
