CIF file written using JARVIS-Tools package.
data_Tl4SiSe4
_symmetry_space_group_name_H-M  'C2/c'
_cell_length_a       6.99672
_cell_length_b       6.99671
_cell_length_c       25.0167
_cell_angle_alpha    91.2976
_cell_angle_beta     97.6275
_cell_angle_gamma    116.388

_symmetry_Int_Tables_number  15
_chemical_formula_structural  Tl4SiSe4
_chemical_formula_sum  Tl6Si4Se6
_cell_volume  1082.7563520364329
_cell_formula_units_Z  4
loop_
  _symmetry_equiv_pos_site_id
 _symmetry_equiv_pos_as_xyz
 1  'x, y, z'
loop_
 _atom_site_type_symbol
 _atom_site_label
 _atom_site_symmetry_multiplicity
 _atom_site_fract_x
 _atom_site_fract_y
 _atom_site_fract_z
 _atom_site_fract_occupancy
 Se  Se1  1  0.98558  0.39582  0.29010  1
 Se  Se2  1  0.60947  0.41769  0.58293  1
 Se  Se3  1  0.01442  0.60418  0.70990  1
 Se  Se4  1  0.01815  0.71009  0.11779  1
 Se  Se5  1  0.90770  0.09964  0.61779  1
 Se  Se6  1  0.98185  0.28991  0.88221  1
 Se  Se7  1  0.39427  0.30451  0.79010  1
 Se  Se8  1  0.79353  0.33799  0.42275  1
 Se  Se9  1  0.58476  0.62922  0.92275  1
 Se  Se10  1  0.66524  0.97346  0.08293  1
 Se  Se11  1  0.39053  0.58231  0.41707  1
 Se  Se12  1  0.33476  0.02654  0.91707  1
 Se  Se13  1  0.41524  0.37078  0.07725  1
 Se  Se14  1  0.60573  0.69549  0.20990  1
 Se  Se15  1  0.20647  0.66201  0.57725  1
 Se  Se16  1  0.09230  0.90036  0.38221  1
 Si  Si1  1  0.06447  0.55962  0.37652  1
 Si  Si2  1  0.31690  0.31205  0.87652  1
 Si  Si3  1  0.68310  0.68795  0.12348  1
 Si  Si4  1  0.93553  0.44038  0.62348  1
 Tl  Tl1  1  0.84983  0.72884  0.50029  1
 Tl  Tl2  1  0.27145  0.65046  0.00029  1
 Tl  Tl3  1  0.15017  0.27116  0.49971  1
 Tl  Tl4  1  0.43320  0.32838  0.32177  1
 Tl  Tl5  1  0.50661  0.11143  0.17823  1
 Tl  Tl6  1  0.56680  0.67162  0.67823  1
 Tl  Tl7  1  0.49339  0.88857  0.82177  1
 Tl  Tl8  1  0.10345  0.33175  0.16404  1
 Tl  Tl9  1  0.89655  0.66825  0.83596  1
 Tl  Tl10  1  0.33229  0.06059  0.66404  1
 Tl  Tl11  1  0.00000  0.00000  0.00000  1
 Tl  Tl12  1  0.50000  -0.00000  0.50000  1
 Tl  Tl13  1  0.08209  0.83209  0.25000  1
 Tl  Tl14  1  0.91791  0.16791  0.75000  1
 Tl  Tl15  1  0.66771  0.93941  0.33596  1
 Tl  Tl16  1  0.72855  0.34954  -0.00029  1
