CIF file written using JARVIS-Tools package.
data_ScTlO2
_symmetry_space_group_name_H-M  'P6_3/mmc'
_cell_length_a       3.25495
_cell_length_b       3.25496
_cell_length_c       12.8659
_cell_angle_alpha    90.0004
_cell_angle_beta     90
_cell_angle_gamma    120

_symmetry_Int_Tables_number  194
_chemical_formula_structural  ScTlO2
_chemical_formula_sum  Sc2Tl2O4
_cell_volume  118.0488309954892
_cell_formula_units_Z  2
loop_
  _symmetry_equiv_pos_site_id
 _symmetry_equiv_pos_as_xyz
 1  'x, y, z'
loop_
 _atom_site_type_symbol
 _atom_site_label
 _atom_site_symmetry_multiplicity
 _atom_site_fract_x
 _atom_site_fract_y
 _atom_site_fract_z
 _atom_site_fract_occupancy
 O  O1  1  0.99993  0.00006  0.33226  1
 O  O2  1  0.99992  0.00008  0.66774  1
 O  O3  1  0.66660  0.33342  0.83226  1
 O  O4  1  0.66659  0.33338  0.16774  1
 Sc  Sc1  1  0.33325  0.66673  0.25000  1
 Sc  Sc2  1  0.33326  0.66677  0.75000  1
 Tl  Tl1  1  0.00025  0.99980  0.00000  1
 Tl  Tl2  1  0.66690  0.33307  0.50000  1
