CIF file written using JARVIS-Tools package.
data_Mg6NiC
_symmetry_space_group_name_H-M  'Amm2'
_cell_length_a       6.66471
_cell_length_b       6.66471
_cell_length_c       3.45481
_cell_angle_alpha    90
_cell_angle_beta     90
_cell_angle_gamma    108.496

_symmetry_Int_Tables_number  38
_chemical_formula_structural  Mg6NiC
_chemical_formula_sum  Mg6NiC
_cell_volume  145.53033142950602
_cell_formula_units_Z  1
loop_
  _symmetry_equiv_pos_site_id
 _symmetry_equiv_pos_as_xyz
 1  'x, y, z'
loop_
 _atom_site_type_symbol
 _atom_site_label
 _atom_site_symmetry_multiplicity
 _atom_site_fract_x
 _atom_site_fract_y
 _atom_site_fract_z
 _atom_site_fract_occupancy
 C  C1  1  0.33886  0.16114  0.75000  1
 Mg  Mg1  1  0.22175  0.92961  0.25000  1
 Mg  Mg2  1  0.57039  0.27825  0.25000  1
 Mg  Mg3  1  0.64710  0.85290  0.25000  1
 Mg  Mg4  1  0.33921  0.51299  0.75000  1
 Mg  Mg5  1  0.98701  0.16079  0.75000  1
 Mg  Mg6  1  0.86727  0.63273  0.75000  1
 Ni  Ni1  1  0.02841  0.47159  0.25000  1
