CIF file written using JARVIS-Tools package.
data_BaMg6Mo
_symmetry_space_group_name_H-M  'Amm2'
_cell_length_a       8.17661
_cell_length_b       8.1766
_cell_length_c       4.75977
_cell_angle_alpha    90
_cell_angle_beta     90
_cell_angle_gamma    135.831

_symmetry_Int_Tables_number  38
_chemical_formula_structural  BaMg6Mo
_chemical_formula_sum  BaMg6Mo
_cell_volume  221.73054129964189
_cell_formula_units_Z  1
loop_
  _symmetry_equiv_pos_site_id
 _symmetry_equiv_pos_as_xyz
 1  'x, y, z'
loop_
 _atom_site_type_symbol
 _atom_site_label
 _atom_site_symmetry_multiplicity
 _atom_site_fract_x
 _atom_site_fract_y
 _atom_site_fract_z
 _atom_site_fract_occupancy
 Ba  Ba1  1  0.22299  0.27701  0.25000  1
 Mg  Mg1  1  0.18075  0.82836  0.25000  1
 Mg  Mg2  1  0.67164  0.31925  0.25000  1
 Mg  Mg3  1  0.60770  0.89230  0.25000  1
 Mg  Mg4  1  0.28706  0.69635  0.75000  1
 Mg  Mg5  1  0.80365  0.21294  0.75000  1
 Mg  Mg6  1  0.83443  0.66557  0.75000  1
 Mo  Mo1  1  0.39178  0.10822  0.75000  1
