CIF file written using JARVIS-Tools package.
data_SrNiO3
_symmetry_space_group_name_H-M  'Amm2'
_cell_length_a       5.42051
_cell_length_b       3.83321
_cell_length_c       3.83334
_cell_angle_alpha    89.9931
_cell_angle_beta     89.995
_cell_angle_gamma    44.9942

_symmetry_Int_Tables_number  38
_chemical_formula_structural  SrNiO3
_chemical_formula_sum  SrNiO3
_cell_volume  56.31461205514301
_cell_formula_units_Z  1
loop_
  _symmetry_equiv_pos_site_id
 _symmetry_equiv_pos_as_xyz
 1  'x, y, z'
loop_
 _atom_site_type_symbol
 _atom_site_label
 _atom_site_symmetry_multiplicity
 _atom_site_fract_x
 _atom_site_fract_y
 _atom_site_fract_z
 _atom_site_fract_occupancy
 Ni  Ni1  1  0.49861  0.00621  0.00294  1
 O  O1  1  0.49841  0.01003  0.50533  1
 O  O2  1  0.49824  0.50870  0.00702  1
 O  O3  1  0.99845  0.51005  0.00702  1
 Sr  Sr1  1  0.99846  0.00818  0.50499  1
