CIF file written using JARVIS-Tools package.
data_TaVH4
_symmetry_space_group_name_H-M  'R-3m'
_cell_length_a       5.38306
_cell_length_b       5.38306
_cell_length_c       5.38305
_cell_angle_alpha    33.6608
_cell_angle_beta     33.6609
_cell_angle_gamma    33.6609

_symmetry_Int_Tables_number  166
_chemical_formula_structural  TaVH4
_chemical_formula_sum  TaVH4
_cell_volume  42.69289431786934
_cell_formula_units_Z  1
loop_
  _symmetry_equiv_pos_site_id
 _symmetry_equiv_pos_as_xyz
 1  'x, y, z'
loop_
 _atom_site_type_symbol
 _atom_site_label
 _atom_site_symmetry_multiplicity
 _atom_site_fract_x
 _atom_site_fract_y
 _atom_site_fract_z
 _atom_site_fract_occupancy
 H  H1  1  0.61960  0.61960  0.61960  1
 H  H2  1  0.12931  0.12931  0.12931  1
 H  H3  1  0.87069  0.87069  0.87069  1
 H  H4  1  0.38040  0.38040  0.38040  1
 Ta  Ta1  1  0.00000  0.00000  0.00000  1
 V  V1  1  0.50000  0.50000  0.50000  1
