CIF file written using JARVIS-Tools package.
data_Mg6CoMo
_symmetry_space_group_name_H-M  'Amm2'
_cell_length_a       6.07276
_cell_length_b       5.76825
_cell_length_c       4.7434
_cell_angle_alpha    90
_cell_angle_beta     90
_cell_angle_gamma    118.355

_symmetry_Int_Tables_number  38
_chemical_formula_structural  Mg6CoMo
_chemical_formula_sum  Mg6CoMo
_cell_volume  146.2227437451972
_cell_formula_units_Z  1
loop_
  _symmetry_equiv_pos_site_id
 _symmetry_equiv_pos_as_xyz
 1  'x, y, z'
loop_
 _atom_site_type_symbol
 _atom_site_label
 _atom_site_symmetry_multiplicity
 _atom_site_fract_x
 _atom_site_fract_y
 _atom_site_fract_z
 _atom_site_fract_occupancy
 Co  Co1  1  0.16122  0.33061  0.25000  1
 Mg  Mg1  1  0.65033  0.32578  0.25000  1
 Mg  Mg2  1  0.65033  0.82455  0.25000  1
 Mg  Mg3  1  0.32961  0.16172  0.75000  1
 Mg  Mg4  1  0.32961  0.66789  0.75000  1
 Mg  Mg5  1  0.87663  0.18831  0.75000  1
 Mg  Mg6  1  0.85604  0.67802  0.75000  1
 Mo  Mo1  1  0.14623  0.82312  0.25000  1
