CIF file written using JARVIS-Tools package.
data_ErNi5
_symmetry_space_group_name_H-M  'P6/mmm'
_cell_length_a       3.95547
_cell_length_b       4.83919
_cell_length_c       4.83933
_cell_angle_alpha    119.999
_cell_angle_beta     90
_cell_angle_gamma    90

_symmetry_Int_Tables_number  191
_chemical_formula_structural  ErNi5
_chemical_formula_sum  ErNi5
_cell_volume  80.22131294497024
_cell_formula_units_Z  1
loop_
  _symmetry_equiv_pos_site_id
 _symmetry_equiv_pos_as_xyz
 1  'x, y, z'
loop_
 _atom_site_type_symbol
 _atom_site_label
 _atom_site_symmetry_multiplicity
 _atom_site_fract_x
 _atom_site_fract_y
 _atom_site_fract_z
 _atom_site_fract_occupancy
 Er  Er1  1  0.00000  0.99998  0.00000  1
 Ni  Ni1  1  0.50000  0.49999  0.00000  1
 Ni  Ni2  1  0.50000  0.49999  0.50001  1
 Ni  Ni3  1  0.50000  0.99999  0.49999  1
 Ni  Ni4  1  0.00000  0.33331  0.66667  1
 Ni  Ni5  1  0.00000  0.66664  0.33333  1
