CIF file written using JARVIS-Tools package.
data_BeZnPd
_symmetry_space_group_name_H-M  'P3m1'
_cell_length_a       2.79466
_cell_length_b       2.79466
_cell_length_c       5.84922
_cell_angle_alpha    90
_cell_angle_beta     90
_cell_angle_gamma    120

_symmetry_Int_Tables_number  156
_chemical_formula_structural  BeZnPd
_chemical_formula_sum  BeZnPd
_cell_volume  39.56280433786781
_cell_formula_units_Z  1
loop_
  _symmetry_equiv_pos_site_id
 _symmetry_equiv_pos_as_xyz
 1  'x, y, z'
loop_
 _atom_site_type_symbol
 _atom_site_label
 _atom_site_symmetry_multiplicity
 _atom_site_fract_x
 _atom_site_fract_y
 _atom_site_fract_z
 _atom_site_fract_occupancy
 Be  Be1  1  0.00000  0.00000  0.98481  1
 Pd  Pd1  1  0.33333  0.66667  0.69613  1
 Zn  Zn1  1  0.66667  0.33333  0.31906  1
