CIF file written using JARVIS-Tools package.
data_Mg6TiBi
_symmetry_space_group_name_H-M  'Amm2'
_cell_length_a       6.38904
_cell_length_b       6.13825
_cell_length_c       5.2649
_cell_angle_alpha    90
_cell_angle_beta     90
_cell_angle_gamma    118.71

_symmetry_Int_Tables_number  38
_chemical_formula_structural  Mg6TiBi
_chemical_formula_sum  Mg6TiBi
_cell_volume  181.09318565173106
_cell_formula_units_Z  1
loop_
  _symmetry_equiv_pos_site_id
 _symmetry_equiv_pos_as_xyz
 1  'x, y, z'
loop_
 _atom_site_type_symbol
 _atom_site_label
 _atom_site_symmetry_multiplicity
 _atom_site_fract_x
 _atom_site_fract_y
 _atom_site_fract_z
 _atom_site_fract_occupancy
 Bi  Bi1  1  0.16181  0.83090  0.25000  1
 Mg  Mg1  1  0.66437  0.32957  0.25000  1
 Mg  Mg2  1  0.66437  0.83480  0.25000  1
 Mg  Mg3  1  0.33935  0.18170  0.75000  1
 Mg  Mg4  1  0.33935  0.65764  0.75000  1
 Mg  Mg5  1  0.84590  0.17295  0.75000  1
 Mg  Mg6  1  0.82103  0.66052  0.75000  1
 Ti  Ti1  1  0.16381  0.33190  0.25000  1
