CIF file written using JARVIS-Tools package.
data_Mg6MoC
_symmetry_space_group_name_H-M  'Amm2'
_cell_length_a       7.35065
_cell_length_b       7.35065
_cell_length_c       3.20007
_cell_angle_alpha    90
_cell_angle_beta     90
_cell_angle_gamma    95.1993

_symmetry_Int_Tables_number  38
_chemical_formula_structural  Mg6MoC
_chemical_formula_sum  Mg6MoC
_cell_volume  172.19505117576165
_cell_formula_units_Z  1
loop_
  _symmetry_equiv_pos_site_id
 _symmetry_equiv_pos_as_xyz
 1  'x, y, z'
loop_
 _atom_site_type_symbol
 _atom_site_label
 _atom_site_symmetry_multiplicity
 _atom_site_fract_x
 _atom_site_fract_y
 _atom_site_fract_z
 _atom_site_fract_occupancy
 C  C1  1  0.10614  0.39386  0.75000  1
 Mg  Mg1  1  0.23384  0.91321  0.25000  1
 Mg  Mg2  1  0.58679  0.26616  0.25000  1
 Mg  Mg3  1  0.65677  0.84323  0.25000  1
 Mg  Mg4  1  0.38598  0.58198  0.75000  1
 Mg  Mg5  1  0.91802  0.11402  0.75000  1
 Mg  Mg6  1  0.90489  0.59511  0.75000  1
 Mo  Mo1  1  0.20756  0.29244  0.25000  1
