CIF file written using JARVIS-Tools package.
data_Na3CrBAsO7
_symmetry_space_group_name_H-M  'P2_1/m'
_cell_length_a       5.29237
_cell_length_b       6.6511
_cell_length_c       9.05005
_cell_angle_alpha    90
_cell_angle_beta     91.8345
_cell_angle_gamma    90

_symmetry_Int_Tables_number  11
_chemical_formula_structural  Na3CrBAsO7
_chemical_formula_sum  Na6Cr2B2As2O4
_cell_volume  318.39895520321664
_cell_formula_units_Z  2
loop_
  _symmetry_equiv_pos_site_id
 _symmetry_equiv_pos_as_xyz
 1  'x, y, z'
loop_
 _atom_site_type_symbol
 _atom_site_label
 _atom_site_symmetry_multiplicity
 _atom_site_fract_x
 _atom_site_fract_y
 _atom_site_fract_z
 _atom_site_fract_occupancy
 As  As1  1  0.71388  0.25000  0.57617  1
 As  As2  1  0.28612  0.75000  0.42383  1
 B  B1  1  0.72076  0.75000  0.93603  1
 B  B2  1  0.27924  0.25000  0.06397  1
 Cr  Cr1  1  0.78071  0.75000  0.67286  1
 Cr  Cr2  1  0.21929  0.25000  0.32714  1
 Na  Na1  1  0.23640  0.75000  0.07292  1
 Na  Na2  1  0.24701  0.00136  0.75367  1
 Na  Na3  1  0.24701  0.49864  0.75367  1
 Na  Na4  1  0.75299  0.50136  0.24633  1
 Na  Na5  1  0.75299  0.99864  0.24633  1
 Na  Na6  1  0.76360  0.25000  0.92708  1
 O  O1  1  0.20887  0.55166  0.30825  1
 O  O2  1  0.95748  0.75000  0.86949  1
 O  O3  1  0.04252  0.25000  0.13051  1
 O  O4  1  0.47397  0.25000  0.17352  1
 O  O5  1  0.20887  0.94834  0.30825  1
 O  O6  1  0.68549  0.75000  0.08219  1
 O  O7  1  0.52603  0.75000  0.82648  1
 O  O8  1  0.12729  0.75000  0.58478  1
 O  O9  1  0.39178  0.25000  0.53376  1
 O  O10  1  0.79113  0.44834  0.69175  1
 O  O11  1  0.79113  0.05166  0.69175  1
 O  O12  1  0.60822  0.75000  0.46624  1
 O  O13  1  0.87271  0.25000  0.41522  1
 O  O14  1  0.31451  0.25000  0.91781  1
