CIF file written using JARVIS-Tools package.
data_Zr2Cu
_symmetry_space_group_name_H-M  'C2/m'
_cell_length_a       3.24077
_cell_length_b       5.53986
_cell_length_c       7.05832
_cell_angle_alpha    80.4249
_cell_angle_beta     76.7282
_cell_angle_gamma    72.9926

_symmetry_Int_Tables_number  12
_chemical_formula_structural  Zr2Cu
_chemical_formula_sum  Zr4Cu2
_cell_volume  117.27065055492108
_cell_formula_units_Z  2
loop_
  _symmetry_equiv_pos_site_id
 _symmetry_equiv_pos_as_xyz
 1  'x, y, z'
loop_
 _atom_site_type_symbol
 _atom_site_label
 _atom_site_symmetry_multiplicity
 _atom_site_fract_x
 _atom_site_fract_y
 _atom_site_fract_z
 _atom_site_fract_occupancy
 Cu  Cu1  1  0.63610  0.87773  0.85006  1
 Cu  Cu2  1  0.36390  0.12227  0.14994  1
 Zr  Zr1  1  0.92443  0.31180  0.83935  1
 Zr  Zr2  1  0.07557  0.68820  0.16065  1
 Zr  Zr3  1  0.34253  0.75881  0.55613  1
 Zr  Zr4  1  0.65747  0.24119  0.44387  1
