CIF file written using JARVIS-Tools package.
data_BaS3
_symmetry_space_group_name_H-M  'P-42_1m'
_cell_length_a       6.93349
_cell_length_b       6.93349
_cell_length_c       4.18134
_cell_angle_alpha    90
_cell_angle_beta     90
_cell_angle_gamma    90

_symmetry_Int_Tables_number  113
_chemical_formula_structural  BaS3
_chemical_formula_sum  Ba2S6
_cell_volume  201.0111863700841
_cell_formula_units_Z  2
loop_
  _symmetry_equiv_pos_site_id
 _symmetry_equiv_pos_as_xyz
 1  'x, y, z'
loop_
 _atom_site_type_symbol
 _atom_site_label
 _atom_site_symmetry_multiplicity
 _atom_site_fract_x
 _atom_site_fract_y
 _atom_site_fract_z
 _atom_site_fract_occupancy
 Ba  Ba1  1  0.50000  0.50000  0.00000  1
 Ba  Ba2  1  0.00000  0.00000  0.00000  1
 S  S1  1  0.82011  0.67989  0.47858  1
 S  S2  1  0.32011  0.82011  0.52142  1
 S  S3  1  0.00000  0.50000  0.20671  1
 S  S4  1  0.50000  0.00000  0.79329  1
 S  S5  1  0.17989  0.32011  0.47858  1
 S  S6  1  0.67989  0.17989  0.52142  1
