CIF file written using JARVIS-Tools package.
data_Na3CoN6O12
_symmetry_space_group_name_H-M  'R-3'
_cell_length_a       6.68701
_cell_length_b       6.687
_cell_length_c       6.68701
_cell_angle_alpha    71.5107
_cell_angle_beta     71.5106
_cell_angle_gamma    71.5107

_symmetry_Int_Tables_number  148
_chemical_formula_structural  Na3CoN6O12
_chemical_formula_sum  Na3CoN6O2
_cell_volume  261.0318198950123
_cell_formula_units_Z  1
loop_
  _symmetry_equiv_pos_site_id
 _symmetry_equiv_pos_as_xyz
 1  'x, y, z'
loop_
 _atom_site_type_symbol
 _atom_site_label
 _atom_site_symmetry_multiplicity
 _atom_site_fract_x
 _atom_site_fract_y
 _atom_site_fract_z
 _atom_site_fract_occupancy
 Co  Co1  1  0.00000  0.00000  0.00000  1
 N  N1  1  0.20393  0.18662  0.82888  1
 N  N2  1  0.79607  0.81338  0.17112  1
 N  N3  1  0.82888  0.20393  0.18662  1
 N  N4  1  0.81338  0.17112  0.79607  1
 N  N5  1  0.17112  0.79607  0.81338  1
 N  N6  1  0.18662  0.82888  0.20393  1
 Na  Na1  1  0.73468  0.73468  0.73468  1
 Na  Na2  1  0.50000  0.50000  0.50000  1
 Na  Na3  1  0.26532  0.26532  0.26532  1
 O  O1  1  0.23777  0.62625  0.23597  1
 O  O2  1  0.08641  0.69705  0.74674  1
 O  O3  1  0.69705  0.74673  0.08641  1
 O  O4  1  0.74674  0.08641  0.69705  1
 O  O5  1  0.91359  0.30295  0.25326  1
 O  O6  1  0.37375  0.76403  0.76223  1
 O  O7  1  0.76403  0.76223  0.37375  1
 O  O8  1  0.62625  0.23597  0.23777  1
 O  O9  1  0.76223  0.37375  0.76403  1
 O  O10  1  0.30295  0.25326  0.91359  1
 O  O11  1  0.23597  0.23777  0.62625  1
 O  O12  1  0.25326  0.91359  0.30295  1
