CIF file written using JARVIS-Tools package.
data_Pb2IO2
_symmetry_space_group_name_H-M  'I4/mmm'
_cell_length_a       7.46065
_cell_length_b       7.46065
_cell_length_c       7.46065
_cell_angle_alpha    148.405
_cell_angle_beta     148.405
_cell_angle_gamma    45.2882

_symmetry_Int_Tables_number  139
_chemical_formula_structural  Pb2IO2
_chemical_formula_sum  Pb2IO2
_cell_volume  113.62013769284474
_cell_formula_units_Z  1
loop_
  _symmetry_equiv_pos_site_id
 _symmetry_equiv_pos_as_xyz
 1  'x, y, z'
loop_
 _atom_site_type_symbol
 _atom_site_label
 _atom_site_symmetry_multiplicity
 _atom_site_fract_x
 _atom_site_fract_y
 _atom_site_fract_z
 _atom_site_fract_occupancy
 I  I1  1  0.00000  0.00000  0.00000  1
 O  O1  1  0.75000  0.25000  0.50000  1
 O  O2  1  0.25000  0.75000  0.50000  1
 Pb  Pb1  1  0.33731  0.33731  -0.00000  1
 Pb  Pb2  1  0.66269  0.66269  0.00000  1
