CIF file written using JARVIS-Tools package.
data_LiAl3Si9N14O2
_symmetry_space_group_name_H-M  'P1'
_cell_length_a       5.70901
_cell_length_b       7.88005
_cell_length_c       7.89178
_cell_angle_alpha    60.3306
_cell_angle_beta     89.8444
_cell_angle_gamma    89.8915

_symmetry_Int_Tables_number  1
_chemical_formula_structural  LiAl3Si9N14O2
_chemical_formula_sum  LiAl3Si9N4O2
_cell_volume  308.48299865616605
_cell_formula_units_Z  1
loop_
  _symmetry_equiv_pos_site_id
 _symmetry_equiv_pos_as_xyz
 1  'x, y, z'
loop_
 _atom_site_type_symbol
 _atom_site_label
 _atom_site_symmetry_multiplicity
 _atom_site_fract_x
 _atom_site_fract_y
 _atom_site_fract_z
 _atom_site_fract_occupancy
 Al  Al1  1  0.54205  0.75480  0.16626  1
 Al  Al2  1  0.84294  0.42401  0.49661  1
 Al  Al3  1  0.34042  0.57575  0.90925  1
 Li  Li1  1  0.28537  0.33304  0.33864  1
 N  N1  1  0.06543  0.94796  0.39398  1
 N  N2  1  0.04193  0.99729  0.00383  1
 N  N3  1  0.91854  0.33158  0.32486  1
 N  N4  1  0.54415  0.01445  0.98783  1
 N  N5  1  0.54092  0.34466  0.58793  1
 N  N6  1  0.56374  0.05319  0.34295  1
 N  N7  1  0.79569  0.31674  0.00061  1
 N  N8  1  0.28022  0.66871  0.32052  1
 N  N9  1  0.29779  0.99146  0.68536  1
 N  N10  1  0.41500  0.66930  0.65302  1
 N  N11  1  0.07301  0.38728  0.67211  1
 N  N12  1  0.29185  0.30928  0.01933  1
 N  N13  1  0.79913  0.01336  0.67657  1
 N  N14  1  0.05333  0.66323  0.95424  1
 O  O1  1  0.58075  0.59521  0.05956  1
 O  O2  1  0.80574  0.69024  0.31466  1
 Si  Si1  1  0.05105  0.83235  0.25288  1
 Si  Si2  1  0.85181  0.48250  0.08053  1
 Si  Si3  1  0.54309  0.17107  0.08217  1
 Si  Si4  1  0.84032  0.08319  0.42863  1
 Si  Si5  1  0.54009  0.09353  0.74129  1
 Si  Si6  1  0.34206  0.91051  0.51432  1
 Si  Si7  1  0.03985  0.91592  0.83249  1
 Si  Si8  1  0.33184  0.51218  0.57093  1
 Si  Si9  1  0.05069  0.25055  0.92197  1
