CIF file written using JARVIS-Tools package.
data_Sr2MnWO6
_symmetry_space_group_name_H-M  'P2_1/c'
_cell_length_a       5.66984
_cell_length_b       5.68192
_cell_length_c       7.97623
_cell_angle_alpha    90.0766
_cell_angle_beta     90
_cell_angle_gamma    90

_symmetry_Int_Tables_number  14
_chemical_formula_structural  Sr2MnWO6
_chemical_formula_sum  Sr4Mn2W2O2
_cell_volume  256.95896515728106
_cell_formula_units_Z  2
loop_
  _symmetry_equiv_pos_site_id
 _symmetry_equiv_pos_as_xyz
 1  'x, y, z'
loop_
 _atom_site_type_symbol
 _atom_site_label
 _atom_site_symmetry_multiplicity
 _atom_site_fract_x
 _atom_site_fract_y
 _atom_site_fract_z
 _atom_site_fract_occupancy
 Mn  Mn1  1  0.00000  0.50000  -0.00000  1
 Mn  Mn2  1  0.50000  -0.00000  0.50000  1
 O  O1  1  0.99113  0.55819  0.25854  1
 O  O2  1  0.76821  0.21204  0.03072  1
 O  O3  1  0.73179  0.71204  0.53072  1
 O  O4  1  0.23179  0.78796  0.96928  1
 O  O5  1  0.21406  0.76637  0.53001  1
 O  O6  1  0.71406  0.73363  0.96999  1
 O  O7  1  0.78594  0.23363  0.46999  1
 O  O8  1  0.28594  0.26637  0.03001  1
 O  O9  1  0.50887  0.05819  0.75854  1
 O  O10  1  0.00887  0.44181  0.74146  1
 O  O11  1  0.49113  0.94181  0.24146  1
 O  O12  1  0.26821  0.28796  0.46928  1
 Sr  Sr1  1  0.02134  0.00338  0.25047  1
 Sr  Sr2  1  0.52134  0.49662  0.24953  1
 Sr  Sr3  1  0.47866  0.50338  0.75047  1
 Sr  Sr4  1  0.97866  0.99662  0.74953  1
 W  W1  1  0.00000  0.50000  0.50000  1
 W  W2  1  0.50000  0.00000  0.00000  1
