CIF file written using JARVIS-Tools package.
data_CaMg2
_symmetry_space_group_name_H-M  'P-62m'
_cell_length_a       6.10765
_cell_length_b       6.10765
_cell_length_c       5.30475
_cell_angle_alpha    90
_cell_angle_beta     90
_cell_angle_gamma    120

_symmetry_Int_Tables_number  189
_chemical_formula_structural  CaMg2
_chemical_formula_sum  Ca2Mg4
_cell_volume  171.37383951234077
_cell_formula_units_Z  2
loop_
  _symmetry_equiv_pos_site_id
 _symmetry_equiv_pos_as_xyz
 1  'x, y, z'
loop_
 _atom_site_type_symbol
 _atom_site_label
 _atom_site_symmetry_multiplicity
 _atom_site_fract_x
 _atom_site_fract_y
 _atom_site_fract_z
 _atom_site_fract_occupancy
 Ca  Ca1  1  0.33333  0.66667  0.50000  1
 Ca  Ca2  1  0.66667  0.33333  0.50000  1
 Mg  Mg1  1  0.69635  0.00000  0.00000  1
 Mg  Mg2  1  0.00000  0.69635  0.00000  1
 Mg  Mg3  1  0.30365  0.30365  0.00000  1
 Mg  Mg4  1  0.00000  0.00000  0.50000  1
