CIF file written using JARVIS-Tools package.
data_LiFeF4
_symmetry_space_group_name_H-M  'P2/c'
_cell_length_a       4.43502
_cell_length_b       5.47914
_cell_length_c       4.97267
_cell_angle_alpha    90
_cell_angle_beta     92.8463
_cell_angle_gamma    90

_symmetry_Int_Tables_number  13
_chemical_formula_structural  LiFeF4
_chemical_formula_sum  Li2Fe2F8
_cell_volume  120.68721620756963
_cell_formula_units_Z  2
loop_
  _symmetry_equiv_pos_site_id
 _symmetry_equiv_pos_as_xyz
 1  'x, y, z'
loop_
 _atom_site_type_symbol
 _atom_site_label
 _atom_site_symmetry_multiplicity
 _atom_site_fract_x
 _atom_site_fract_y
 _atom_site_fract_z
 _atom_site_fract_occupancy
 F  F1  1  0.22370  0.11525  0.93048  1
 F  F2  1  0.22370  0.88475  0.43048  1
 F  F3  1  0.25185  0.63460  0.91108  1
 F  F4  1  0.25185  0.36540  0.41108  1
 F  F5  1  0.74815  0.63460  0.58892  1
 F  F6  1  0.74815  0.36540  0.08892  1
 F  F7  1  0.77630  0.11525  0.56952  1
 F  F8  1  0.77630  0.88475  0.06952  1
 Fe  Fe1  1  -0.00000  0.86155  0.75000  1
 Fe  Fe2  1  -0.00000  0.13845  0.25000  1
 Li  Li1  1  0.50000  0.37543  0.75000  1
 Li  Li2  1  0.50000  0.62457  0.25000  1
