CIF file written using JARVIS-Tools package.
data_Hg3SO6
_symmetry_space_group_name_H-M  'P3_1'
_cell_length_a       7.14448
_cell_length_b       7.14448
_cell_length_c       10.1594
_cell_angle_alpha    90
_cell_angle_beta     90
_cell_angle_gamma    120

_symmetry_Int_Tables_number  144
_chemical_formula_structural  Hg3SO6
_chemical_formula_sum  Hg9S3O8
_cell_volume  449.09720123098583
_cell_formula_units_Z  3
loop_
  _symmetry_equiv_pos_site_id
 _symmetry_equiv_pos_as_xyz
 1  'x, y, z'
loop_
 _atom_site_type_symbol
 _atom_site_label
 _atom_site_symmetry_multiplicity
 _atom_site_fract_x
 _atom_site_fract_y
 _atom_site_fract_z
 _atom_site_fract_occupancy
 Hg  Hg1  1  0.31176  0.81085  0.98003  1
 Hg  Hg2  1  0.50163  0.18878  0.67507  1
 Hg  Hg3  1  0.68715  0.49837  0.34174  1
 Hg  Hg4  1  0.81122  0.31285  0.00840  1
 Hg  Hg5  1  0.18915  0.50091  0.31336  1
 Hg  Hg6  1  -0.00012  0.70174  0.66059  1
 Hg  Hg7  1  0.70187  0.00012  0.32725  1
 Hg  Hg8  1  0.49909  0.68824  0.64669  1
 Hg  Hg9  1  0.29826  0.29813  0.99392  1
 O  O1  1  0.15070  0.47862  0.04512  1
 O  O2  1  0.23424  0.85417  0.22910  1
 O  O3  1  0.61993  0.76576  0.89577  1
 O  O4  1  0.79364  0.06329  0.58738  1
 O  O5  1  0.26965  0.20636  0.25404  1
 O  O6  1  0.93671  0.73035  0.92071  1
 O  O7  1  0.32792  0.84930  0.71178  1
 O  O8  1  0.52138  0.67208  0.37845  1
 O  O9  1  0.93769  0.33237  0.76151  1
 O  O10  1  0.89404  0.99054  0.05776  1
 O  O11  1  0.66763  0.60532  0.09484  1
 O  O12  1  0.48427  0.15489  0.94424  1
 O  O13  1  0.14583  0.38007  0.56244  1
 O  O14  1  0.84511  0.32937  0.27757  1
 O  O15  1  0.00946  0.90350  0.39110  1
 O  O16  1  0.09650  0.10596  0.72443  1
 O  O17  1  0.39468  0.06231  0.42817  1
 O  O18  1  0.67063  0.51573  0.61090  1
 S  S1  1  0.78176  0.77577  0.99305  1
 S  S2  1  0.99401  0.21824  0.65971  1
 S  S3  1  0.22423  0.00599  0.32638  1
