CIF file written using JARVIS-Tools package.
data_LiCo3OF5
_symmetry_space_group_name_H-M  'P1'
_cell_length_a       5.95895
_cell_length_b       6.06252
_cell_length_c       6.11243
_cell_angle_alpha    92.6026
_cell_angle_beta     92.1555
_cell_angle_gamma    92.4468

_symmetry_Int_Tables_number  1
_chemical_formula_structural  LiCo3OF5
_chemical_formula_sum  Li2Co6O2F0
_cell_volume  220.21733694710016
_cell_formula_units_Z  2
loop_
  _symmetry_equiv_pos_site_id
 _symmetry_equiv_pos_as_xyz
 1  'x, y, z'
loop_
 _atom_site_type_symbol
 _atom_site_label
 _atom_site_symmetry_multiplicity
 _atom_site_fract_x
 _atom_site_fract_y
 _atom_site_fract_z
 _atom_site_fract_occupancy
 Co  Co1  1  0.27735  0.10015  0.56150  1
 Co  Co2  1  0.92896  0.45504  0.75603  1
 Co  Co3  1  0.40974  0.72753  0.91016  1
 Co  Co4  1  0.56253  0.23906  0.10304  1
 Co  Co5  1  0.06762  0.57785  0.23572  1
 Co  Co6  1  0.75036  0.94897  0.42694  1
 F  F1  1  0.67823  0.89271  0.05989  1
 F  F2  1  0.90756  0.28936  0.09773  1
 F  F3  1  0.45217  0.80036  0.59901  1
 F  F4  1  0.41770  0.54019  0.19768  1
 F  F5  1  0.08057  0.93496  0.32302  1
 F  F6  1  0.31456  0.08777  0.90484  1
 F  F7  1  0.92803  0.10288  0.69473  1
 F  F8  1  0.59194  0.44054  0.81663  1
 F  F9  1  0.18115  0.41936  0.52877  1
 F  F10  1  0.81736  0.61663  0.46155  1
 Li  Li1  1  0.50664  0.49950  0.49419  1
 Li  Li2  1  0.99523  0.98876  0.98664  1
 O  O1  1  0.54129  0.16944  0.40176  1
 O  O2  1  0.09102  0.66894  0.94018  1
