CIF file written using JARVIS-Tools package.
data_Cr3SbP4O16
_symmetry_space_group_name_H-M  'Pm'
_cell_length_a       4.80777
_cell_length_b       5.77452
_cell_length_c       9.96291
_cell_angle_alpha    90
_cell_angle_beta     90.1887
_cell_angle_gamma    90

_symmetry_Int_Tables_number  6
_chemical_formula_structural  Cr3SbP4O16
_chemical_formula_sum  Cr3SbP4O6
_cell_volume  276.59463564065766
_cell_formula_units_Z  1
loop_
  _symmetry_equiv_pos_site_id
 _symmetry_equiv_pos_as_xyz
 1  'x, y, z'
loop_
 _atom_site_type_symbol
 _atom_site_label
 _atom_site_symmetry_multiplicity
 _atom_site_fract_x
 _atom_site_fract_y
 _atom_site_fract_z
 _atom_site_fract_occupancy
 Cr  Cr1  1  0.42420  0.50000  0.22744  1
 Cr  Cr2  1  0.57530  0.00000  0.77841  1
 Cr  Cr3  1  0.93196  0.00000  0.26332  1
 O  O1  1  0.16443  0.00000  0.43316  1
 O  O2  1  0.33689  0.79782  0.65351  1
 O  O3  1  0.33689  0.20218  0.65351  1
 O  O4  1  0.71461  0.71105  0.32199  1
 O  O5  1  0.29700  0.50000  0.90645  1
 O  O6  1  0.22013  0.79287  0.16174  1
 O  O7  1  0.17376  0.50000  0.37992  1
 O  O8  1  0.31560  0.00000  0.93437  1
 O  O9  1  0.67785  0.50000  0.07746  1
 O  O10  1  0.75110  0.71275  0.85552  1
 O  O11  1  0.22013  0.20713  0.16174  1
 O  O12  1  0.68630  0.00000  0.11032  1
 O  O13  1  0.86473  0.00000  0.63949  1
 O  O14  1  0.71461  0.28895  0.32199  1
 O  O15  1  0.75110  0.28725  0.85552  1
 O  O16  1  0.77448  0.50000  0.54344  1
 P  P1  1  0.85882  0.50000  0.39831  1
 P  P2  1  0.61073  0.50000  0.92865  1
 P  P3  1  0.37309  0.00000  0.08553  1
 P  P4  1  0.16092  0.00000  0.58511  1
 Sb  Sb1  1  0.06538  0.50000  0.72311  1
