CIF file written using JARVIS-Tools package.
data_MnCrNi4Sn2
_symmetry_space_group_name_H-M  'R-3m'
_cell_length_a       7.39155
_cell_length_b       7.39155
_cell_length_c       7.39155
_cell_angle_alpha    33.5676
_cell_angle_beta     33.5676
_cell_angle_gamma    33.5676

_symmetry_Int_Tables_number  166
_chemical_formula_structural  MnCrNi4Sn2
_chemical_formula_sum  MnCrNi4Sn2
_cell_volume  109.97237521828346
_cell_formula_units_Z  1
loop_
  _symmetry_equiv_pos_site_id
 _symmetry_equiv_pos_as_xyz
 1  'x, y, z'
loop_
 _atom_site_type_symbol
 _atom_site_label
 _atom_site_symmetry_multiplicity
 _atom_site_fract_x
 _atom_site_fract_y
 _atom_site_fract_z
 _atom_site_fract_occupancy
 Cr  Cr1  1  0.00000  0.00000  0.00000  1
 Mn  Mn1  1  0.50000  0.50000  0.50000  1
 Ni  Ni1  1  0.62333  0.62333  0.62333  1
 Ni  Ni2  1  0.12657  0.12657  0.12657  1
 Ni  Ni3  1  0.87343  0.87343  0.87343  1
 Ni  Ni4  1  0.37667  0.37667  0.37667  1
 Sn  Sn1  1  0.25127  0.25127  0.25127  1
 Sn  Sn2  1  0.74873  0.74873  0.74873  1
