CIF file written using JARVIS-Tools package.
data_Cu8O
_symmetry_space_group_name_H-M  'Cmmm'
_cell_length_a       4.43158
_cell_length_b       4.43158
_cell_length_c       5.49879
_cell_angle_alpha    90
_cell_angle_beta     90
_cell_angle_gamma    90.6568

_symmetry_Int_Tables_number  65
_chemical_formula_structural  Cu8O
_chemical_formula_sum  Cu8O
_cell_volume  107.9830667911051
_cell_formula_units_Z  1
loop_
  _symmetry_equiv_pos_site_id
 _symmetry_equiv_pos_as_xyz
 1  'x, y, z'
loop_
 _atom_site_type_symbol
 _atom_site_label
 _atom_site_symmetry_multiplicity
 _atom_site_fract_x
 _atom_site_fract_y
 _atom_site_fract_z
 _atom_site_fract_occupancy
 Cu  Cu1  1  0.40081  0.17857  0.50000  1
 Cu  Cu2  1  0.82143  0.59919  0.50000  1
 Cu  Cu3  1  0.42395  0.20182  0.00000  1
 Cu  Cu4  1  0.79818  0.57605  0.00000  1
 Cu  Cu5  1  0.88791  0.11209  0.27419  1
 Cu  Cu6  1  0.88791  0.11209  0.72581  1
 Cu  Cu7  1  0.33433  0.66567  0.72579  1
 Cu  Cu8  1  0.33433  0.66567  0.27421  1
 O  O1  1  0.11116  0.88884  0.00000  1
