CIF file written using JARVIS-Tools package.
data_LiV3O8
_symmetry_space_group_name_H-M  'Pm'
_cell_length_a       6.79062
_cell_length_b       3.59135
_cell_length_c       12.4714
_cell_angle_alpha    90
_cell_angle_beta     106.241
_cell_angle_gamma    90

_symmetry_Int_Tables_number  6
_chemical_formula_structural  LiV3O8
_chemical_formula_sum  Li2V6O6
_cell_volume  292.0084519698837
_cell_formula_units_Z  2
loop_
  _symmetry_equiv_pos_site_id
 _symmetry_equiv_pos_as_xyz
 1  'x, y, z'
loop_
 _atom_site_type_symbol
 _atom_site_label
 _atom_site_symmetry_multiplicity
 _atom_site_fract_x
 _atom_site_fract_y
 _atom_site_fract_z
 _atom_site_fract_occupancy
 Li  Li1  1  0.53568  0.50000  0.95910  1
 Li  Li2  1  0.31813  0.50000  0.69548  1
 O  O1  1  0.19481  0.00000  0.16855  1
 O  O2  1  0.33595  0.50000  0.04800  1
 O  O3  1  0.61720  0.50000  0.54414  1
 O  O4  1  0.66837  0.00000  0.94892  1
 O  O5  1  0.86582  0.00000  0.68519  1
 O  O6  1  0.04822  0.00000  0.92621  1
 O  O7  1  0.51225  0.50000  0.27469  1
 O  O8  1  0.76463  0.00000  0.17221  1
 O  O9  1  0.25869  0.50000  0.83352  1
 O  O10  1  0.19243  0.50000  0.54051  1
 O  O11  1  0.95302  0.50000  0.06223  1
 O  O12  1  0.15043  0.50000  0.31508  1
 O  O13  1  0.49663  0.00000  0.72434  1
 O  O14  1  0.41565  0.00000  0.44729  1
 O  O15  1  0.85508  0.00000  0.46125  1
 O  O16  1  0.80854  0.50000  0.82941  1
 V  V1  1  0.74104  0.00000  0.79814  1
 V  V2  1  0.32298  0.50000  0.44895  1
 V  V3  1  0.87946  0.00000  0.07617  1
 V  V4  1  0.13062  0.50000  0.92886  1
 V  V5  1  0.70759  0.00000  0.54080  1
 V  V6  1  0.27861  0.50000  0.19887  1
