CIF file written using JARVIS-Tools package.
data_Bi3ClO4
_symmetry_space_group_name_H-M  'P4/mmm'
_cell_length_a       5.59525
_cell_length_b       5.59535
_cell_length_c       9.91874
_cell_angle_alpha    106.383
_cell_angle_beta     106.383
_cell_angle_gamma    90

_symmetry_Int_Tables_number  123
_chemical_formula_structural  Bi3ClO4
_chemical_formula_sum  Bi6Cl2O8
_cell_volume  284.75569243526706
_cell_formula_units_Z  2
loop_
  _symmetry_equiv_pos_site_id
 _symmetry_equiv_pos_as_xyz
 1  'x, y, z'
loop_
 _atom_site_type_symbol
 _atom_site_label
 _atom_site_symmetry_multiplicity
 _atom_site_fract_x
 _atom_site_fract_y
 _atom_site_fract_z
 _atom_site_fract_occupancy
 Bi  Bi1  1  0.10712  0.60713  0.71426  1
 Bi  Bi2  1  0.60714  0.10713  0.71426  1
 Bi  Bi3  1  0.89288  0.39287  0.28574  1
 Bi  Bi4  1  0.39286  0.89287  0.28574  1
 Bi  Bi5  1  0.25001  0.25000  0.00000  1
 Bi  Bi6  1  0.74999  0.75000  -0.00000  1
 Cl  Cl1  1  0.50000  0.50000  0.50000  1
 Cl  Cl2  1  0.00000  0.00000  0.50000  1
 O  O1  1  0.58214  0.08214  0.16427  1
 O  O2  1  0.41788  0.41786  0.83573  1
 O  O3  1  0.41786  0.91786  0.83573  1
 O  O4  1  0.58212  0.58214  0.16427  1
 O  O5  1  0.08215  0.58215  0.16428  1
 O  O6  1  0.91785  0.41785  0.83572  1
 O  O7  1  0.91787  0.91785  0.83572  1
 O  O8  1  0.08213  0.08215  0.16428  1
