CIF file written using JARVIS-Tools package.
data_YbAlB4
_symmetry_space_group_name_H-M  'Pmmm'
_cell_length_a       3.13623
_cell_length_b       3.59738
_cell_length_c       5.38976
_cell_angle_alpha    90
_cell_angle_beta     90
_cell_angle_gamma    90

_symmetry_Int_Tables_number  47
_chemical_formula_structural  YbAlB4
_chemical_formula_sum  YbAlB4
_cell_volume  60.808563353667694
_cell_formula_units_Z  1
loop_
  _symmetry_equiv_pos_site_id
 _symmetry_equiv_pos_as_xyz
 1  'x, y, z'
loop_
 _atom_site_type_symbol
 _atom_site_label
 _atom_site_symmetry_multiplicity
 _atom_site_fract_x
 _atom_site_fract_y
 _atom_site_fract_z
 _atom_site_fract_occupancy
 Al  Al1  1  0.50000  0.00000  0.50000  1
 B  B1  1  0.50000  0.50000  0.18287  1
 B  B2  1  0.50000  0.50000  0.81713  1
 B  B3  1  0.00000  0.50000  0.34173  1
 B  B4  1  0.00000  0.50000  0.65827  1
 Yb  Yb1  1  0.00000  0.00000  0.00000  1
