CIF file written using JARVIS-Tools package.
data_CaMnGe
_symmetry_space_group_name_H-M  'P4/nmm'
_cell_length_a       4.01107
_cell_length_b       4.01107
_cell_length_c       7.42908
_cell_angle_alpha    90
_cell_angle_beta     90
_cell_angle_gamma    90

_symmetry_Int_Tables_number  129
_chemical_formula_structural  CaMnGe
_chemical_formula_sum  Ca2Mn2Ge2
_cell_volume  119.52446301146392
_cell_formula_units_Z  2
loop_
  _symmetry_equiv_pos_site_id
 _symmetry_equiv_pos_as_xyz
 1  'x, y, z'
loop_
 _atom_site_type_symbol
 _atom_site_label
 _atom_site_symmetry_multiplicity
 _atom_site_fract_x
 _atom_site_fract_y
 _atom_site_fract_z
 _atom_site_fract_occupancy
 Ca  Ca1  1  0.00000  0.50000  0.33213  1
 Ca  Ca2  1  0.50000  0.00000  0.66787  1
 Ge  Ge1  1  0.00000  0.50000  0.79832  1
 Ge  Ge2  1  0.50000  0.00000  0.20168  1
 Mn  Mn1  1  0.50000  0.50000  0.00000  1
 Mn  Mn2  1  0.00000  0.00000  0.00000  1
