CIF file written using JARVIS-Tools package.
data_Ca2B3H13O13
_symmetry_space_group_name_H-M  'P-1'
_cell_length_a       7.95468
_cell_length_b       9.84537
_cell_length_c       7.25001
_cell_angle_alpha    110.757
_cell_angle_beta     94.8278
_cell_angle_gamma    107.769

_symmetry_Int_Tables_number  2
_chemical_formula_structural  Ca2B3H13O13
_chemical_formula_sum  Ca4B6H26O26
_cell_volume  493.67931919107207
_cell_formula_units_Z  2
loop_
  _symmetry_equiv_pos_site_id
 _symmetry_equiv_pos_as_xyz
 1  'x, y, z'
loop_
 _atom_site_type_symbol
 _atom_site_label
 _atom_site_symmetry_multiplicity
 _atom_site_fract_x
 _atom_site_fract_y
 _atom_site_fract_z
 _atom_site_fract_occupancy
 B  B1  1  0.71667  0.97332  0.36465  1
 B  B2  1  0.28333  0.02668  0.63535  1
 B  B3  1  0.76180  0.71163  0.31061  1
 B  B4  1  0.23820  0.28837  0.68939  1
 B  B5  1  0.46914  0.71102  0.13872  1
 B  B6  1  0.53086  0.28898  0.86128  1
 Ca  Ca1  1  0.91771  0.96512  0.74114  1
 Ca  Ca2  1  0.08229  0.03488  0.25886  1
 Ca  Ca3  1  0.88687  0.32959  0.58131  1
 Ca  Ca4  1  0.11313  0.67041  0.41869  1
 H  H1  1  0.37140  0.91380  0.36995  1
 H  H2  1  0.74989  0.05697  0.13569  1
 H  H3  1  0.25011  0.94303  0.86431  1
 H  H4  1  0.74413  0.59367  0.50719  1
 H  H5  1  0.62860  0.08620  0.63005  1
 H  H6  1  0.49855  0.56879  0.86795  1
 H  H7  1  0.22374  0.53354  0.02324  1
 H  H8  1  0.77626  0.46646  0.97676  1
 H  H9  1  0.25587  0.40633  0.49281  1
 H  H10  1  0.78884  0.77380  0.93398  1
 H  H11  1  0.09488  0.29472  0.91512  1
 H  H12  1  0.50145  0.43121  0.13205  1
 H  H13  1  0.90512  0.70528  0.08488  1
 H  H14  1  0.21116  0.22620  0.06602  1
 H  H15  1  0.14691  0.63030  0.85021  1
 H  H16  1  0.56217  0.00394  0.83479  1
 H  H17  1  0.43783  0.99606  0.16521  1
 H  H18  1  0.99034  0.69050  0.80890  1
 H  H19  1  0.00966  0.30950  0.19110  1
 H  H20  1  0.43007  0.14208  0.10838  1
 H  H21  1  0.56819  0.35112  0.34544  1
 H  H22  1  0.43181  0.64888  0.65456  1
 H  H23  1  0.54291  0.37689  0.57786  1
 H  H24  1  0.56993  0.85792  0.89162  1
 H  H25  1  0.45709  0.62311  0.42214  1
 H  H26  1  0.85309  0.36970  0.14979  1
 O  O1  1  0.63198  0.39411  0.48807  1
 O  O2  1  0.13237  0.35797  0.83337  1
 O  O3  1  0.86763  0.64203  0.16663  1
 O  O4  1  0.18278  0.30810  0.50085  1
 O  O5  1  0.17091  0.12111  0.63966  1
 O  O6  1  0.80245  0.08966  0.28032  1
 O  O7  1  0.19755  0.91034  0.71968  1
 O  O8  1  0.26039  0.92672  0.41866  1
 O  O9  1  0.73961  0.07328  0.58134  1
 O  O10  1  0.56489  0.63933  0.24047  1
 O  O11  1  0.82909  0.87889  0.36034  1
 O  O12  1  0.81722  0.69190  0.49915  1
 O  O13  1  0.07951  0.18131  0.05164  1
 O  O14  1  0.92049  0.81869  0.94836  1
 O  O15  1  0.72684  0.35571  0.87521  1
 O  O16  1  0.04910  0.61041  0.73962  1
 O  O17  1  0.35797  0.04533  0.12199  1
 O  O18  1  0.64203  0.95467  0.87801  1
 O  O19  1  0.47034  0.11908  0.74421  1
 O  O20  1  0.52966  0.88092  0.25579  1
 O  O21  1  0.48788  0.31907  0.06893  1
 O  O22  1  0.51212  0.68093  0.93107  1
 O  O23  1  0.95090  0.38959  0.26038  1
 O  O24  1  0.43511  0.36067  0.75953  1
 O  O25  1  0.27316  0.64429  0.12479  1
 O  O26  1  0.36802  0.60589  0.51193  1
