CIF file written using JARVIS-Tools package.
data_LuTaO4
_symmetry_space_group_name_H-M  'C2/c'
_cell_length_a       5.04448
_cell_length_b       5.23769
_cell_length_c       6.42177
_cell_angle_alpha    111.837
_cell_angle_beta     110.828
_cell_angle_gamma    95.2346

_symmetry_Int_Tables_number  15
_chemical_formula_structural  LuTaO4
_chemical_formula_sum  Lu2Ta2O8
_cell_volume  142.23734478442276
_cell_formula_units_Z  2
loop_
  _symmetry_equiv_pos_site_id
 _symmetry_equiv_pos_as_xyz
 1  'x, y, z'
loop_
 _atom_site_type_symbol
 _atom_site_label
 _atom_site_symmetry_multiplicity
 _atom_site_fract_x
 _atom_site_fract_y
 _atom_site_fract_z
 _atom_site_fract_occupancy
 Lu  Lu1  1  0.38112  0.63112  0.26224  1
 Lu  Lu2  1  0.61888  0.36888  0.73776  1
 O  O1  1  0.00359  0.78290  0.06211  1
 O  O2  1  0.55853  0.27922  0.06211  1
 O  O3  1  0.99641  0.21710  0.93789  1
 O  O4  1  0.44147  0.72078  0.93789  1
 O  O5  1  0.21505  0.37590  0.42551  1
 O  O6  1  0.71046  0.04961  0.42551  1
 O  O7  1  0.78495  0.62410  0.57449  1
 O  O8  1  0.28954  0.95039  0.57449  1
 Ta  Ta1  1  0.85393  0.10393  0.20787  1
 Ta  Ta2  1  0.14607  0.89607  0.79213  1
