CIF file written using JARVIS-Tools package.
data_ErMnO3
_symmetry_space_group_name_H-M  'Pnma'
_cell_length_a       5.22993
_cell_length_b       5.64436
_cell_length_c       7.52011
_cell_angle_alpha    90
_cell_angle_beta     90
_cell_angle_gamma    90

_symmetry_Int_Tables_number  62
_chemical_formula_structural  ErMnO3
_chemical_formula_sum  Er4Mn4O2
_cell_volume  221.9902591506374
_cell_formula_units_Z  4
loop_
  _symmetry_equiv_pos_site_id
 _symmetry_equiv_pos_as_xyz
 1  'x, y, z'
loop_
 _atom_site_type_symbol
 _atom_site_label
 _atom_site_symmetry_multiplicity
 _atom_site_fract_x
 _atom_site_fract_y
 _atom_site_fract_z
 _atom_site_fract_occupancy
 Er  Er1  1  0.97940  0.07718  0.25000  1
 Er  Er2  1  0.52060  0.57718  0.25000  1
 Er  Er3  1  0.02060  0.92282  0.75000  1
 Er  Er4  1  0.47940  0.42282  0.75000  1
 Mn  Mn1  1  0.50000  0.00000  0.00000  1
 Mn  Mn2  1  0.00000  0.50000  0.00000  1
 Mn  Mn3  1  0.00000  0.50000  0.50000  1
 Mn  Mn4  1  0.50000  0.00000  0.50000  1
 O  O1  1  0.19394  0.18867  0.55755  1
 O  O2  1  0.80606  0.81133  0.05755  1
 O  O3  1  0.30606  0.68867  0.94245  1
 O  O4  1  0.30606  0.68867  0.55755  1
 O  O5  1  0.80606  0.81133  0.44245  1
 O  O6  1  0.38465  0.96096  0.25000  1
 O  O7  1  0.69394  0.31133  0.05755  1
 O  O8  1  0.69394  0.31133  0.44245  1
 O  O9  1  0.11535  0.46096  0.25000  1
 O  O10  1  0.88465  0.53904  0.75000  1
 O  O11  1  0.19394  0.18867  0.94245  1
 O  O12  1  0.61535  0.03904  0.75000  1
