CIF file written using JARVIS-Tools package.
data_BaSb3
_symmetry_space_group_name_H-M  'C2/m'
_cell_length_a       6.54724
_cell_length_b       6.93991
_cell_length_c       6.9399
_cell_angle_alpha    76.3939
_cell_angle_beta     72.5352
_cell_angle_gamma    72.5352

_symmetry_Int_Tables_number  12
_chemical_formula_structural  BaSb3
_chemical_formula_sum  Ba2Sb6
_cell_volume  283.25169950130174
_cell_formula_units_Z  2
loop_
  _symmetry_equiv_pos_site_id
 _symmetry_equiv_pos_as_xyz
 1  'x, y, z'
loop_
 _atom_site_type_symbol
 _atom_site_label
 _atom_site_symmetry_multiplicity
 _atom_site_fract_x
 _atom_site_fract_y
 _atom_site_fract_z
 _atom_site_fract_occupancy
 Ba  Ba1  1  0.17849  0.66473  0.66473  1
 Ba  Ba2  1  0.82151  0.33527  0.33527  1
 Sb  Sb1  1  0.29594  0.14390  0.57986  1
 Sb  Sb2  1  0.70406  0.42014  0.85610  1
 Sb  Sb3  1  0.27035  0.01481  0.01481  1
 Sb  Sb4  1  0.72965  0.98519  0.98519  1
 Sb  Sb5  1  0.29594  0.57986  0.14390  1
 Sb  Sb6  1  0.70406  0.85610  0.42014  1
