CIF file written using JARVIS-Tools package.
data_Li2CrO2
_symmetry_space_group_name_H-M  'C2/m'
_cell_length_a       3.51597
_cell_length_b       3.51596
_cell_length_c       5.44914
_cell_angle_alpha    77.1682
_cell_angle_beta     77.1686
_cell_angle_gamma    48.038

_symmetry_Int_Tables_number  12
_chemical_formula_structural  Li2CrO2
_chemical_formula_sum  Li2CrO2
_cell_volume  48.58684004963343
_cell_formula_units_Z  1
loop_
  _symmetry_equiv_pos_site_id
 _symmetry_equiv_pos_as_xyz
 1  'x, y, z'
loop_
 _atom_site_type_symbol
 _atom_site_label
 _atom_site_symmetry_multiplicity
 _atom_site_fract_x
 _atom_site_fract_y
 _atom_site_fract_z
 _atom_site_fract_occupancy
 Cr  Cr1  1  0.00001  -0.00001  0.00000  1
 Li  Li1  1  0.32656  0.32657  0.63343  1
 Li  Li2  1  0.67343  0.67344  0.36657  1
 O  O1  1  0.39776  0.39777  0.26287  1
 O  O2  1  0.60224  0.60223  0.73713  1
