CIF file written using JARVIS-Tools package.
data_Hf3N2
_symmetry_space_group_name_H-M  'R-3m'
_cell_length_a       7.99694
_cell_length_b       7.99695
_cell_length_c       7.99694
_cell_angle_alpha    23.1779
_cell_angle_beta     23.1778
_cell_angle_gamma    23.1778

_symmetry_Int_Tables_number  166
_chemical_formula_structural  Hf3N2
_chemical_formula_sum  Hf3N2
_cell_volume  69.544200244978
_cell_formula_units_Z  1
loop_
  _symmetry_equiv_pos_site_id
 _symmetry_equiv_pos_as_xyz
 1  'x, y, z'
loop_
 _atom_site_type_symbol
 _atom_site_label
 _atom_site_symmetry_multiplicity
 _atom_site_fract_x
 _atom_site_fract_y
 _atom_site_fract_z
 _atom_site_fract_occupancy
 Hf  Hf1  1  0.77957  0.77957  0.77957  1
 Hf  Hf2  1  0.22043  0.22043  0.22043  1
 Hf  Hf3  1  0.00000  0.00000  0.00000  1
 N  N1  1  0.61169  0.61169  0.61169  1
 N  N2  1  0.38831  0.38831  0.38831  1
