CIF file written using JARVIS-Tools package.
data_SnP
_symmetry_space_group_name_H-M  'I4mm'
_cell_length_a       3.88645
_cell_length_b       3.88645
_cell_length_c       4.11037
_cell_angle_alpha    118.214
_cell_angle_beta     118.214
_cell_angle_gamma    90.0001

_symmetry_Int_Tables_number  107
_chemical_formula_structural  SnP
_chemical_formula_sum  SnP
_cell_volume  46.1684918797519
_cell_formula_units_Z  1
loop_
  _symmetry_equiv_pos_site_id
 _symmetry_equiv_pos_as_xyz
 1  'x, y, z'
loop_
 _atom_site_type_symbol
 _atom_site_label
 _atom_site_symmetry_multiplicity
 _atom_site_fract_x
 _atom_site_fract_y
 _atom_site_fract_z
 _atom_site_fract_occupancy
 P  P1  1  0.43007  0.43007  0.86015  1
 Sn  Sn1  1  0.99793  0.99793  0.99585  1
