CIF file written using JARVIS-Tools package.
data_FeAs2
_symmetry_space_group_name_H-M  'Pnnm'
_cell_length_a       2.91165
_cell_length_b       5.3134
_cell_length_c       6.00693
_cell_angle_alpha    90
_cell_angle_beta     90
_cell_angle_gamma    90

_symmetry_Int_Tables_number  58
_chemical_formula_structural  FeAs2
_chemical_formula_sum  Fe2As4
_cell_volume  92.93174259062445
_cell_formula_units_Z  2
loop_
  _symmetry_equiv_pos_site_id
 _symmetry_equiv_pos_as_xyz
 1  'x, y, z'
loop_
 _atom_site_type_symbol
 _atom_site_label
 _atom_site_symmetry_multiplicity
 _atom_site_fract_x
 _atom_site_fract_y
 _atom_site_fract_z
 _atom_site_fract_occupancy
 As  As1  1  0.00000  0.17996  0.36133  1
 As  As2  1  0.00000  0.82004  0.63867  1
 As  As3  1  0.50000  0.67996  0.13867  1
 As  As4  1  0.50000  0.32004  0.86133  1
 Fe  Fe1  1  0.00000  0.00000  0.00000  1
 Fe  Fe2  1  0.50000  0.50000  0.50000  1
