CIF file written using JARVIS-Tools package.
data_CrRh2Se4
_symmetry_space_group_name_H-M  'C2/m'
_cell_length_a       3.71683
_cell_length_b       6.54714
_cell_length_c       6.60123
_cell_angle_alpha    118.493
_cell_angle_beta     106.351
_cell_angle_gamma    90

_symmetry_Int_Tables_number  12
_chemical_formula_structural  CrRh2Se4
_chemical_formula_sum  CrRh2Se4
_cell_volume  133.74180790492713
_cell_formula_units_Z  1
loop_
  _symmetry_equiv_pos_site_id
 _symmetry_equiv_pos_as_xyz
 1  'x, y, z'
loop_
 _atom_site_type_symbol
 _atom_site_label
 _atom_site_symmetry_multiplicity
 _atom_site_fract_x
 _atom_site_fract_y
 _atom_site_fract_z
 _atom_site_fract_occupancy
 Cr  Cr1  1  0.00000  0.00000  0.00000  1
 Rh  Rh1  1  0.74093  0.72556  0.48187  1
 Rh  Rh2  1  0.25907  0.27444  0.51813  1
 Se  Se1  1  0.63016  0.96642  0.26031  1
 Se  Se2  1  0.36984  0.03358  0.73969  1
 Se  Se3  1  0.87423  0.54349  0.74845  1
 Se  Se4  1  0.12577  0.45651  0.25155  1
