CIF file written using JARVIS-Tools package.
data_Li4Mn3SbP4O16
_symmetry_space_group_name_H-M  'Pm'
_cell_length_a       4.74249
_cell_length_b       6.19295
_cell_length_c       11.0709
_cell_angle_alpha    90
_cell_angle_beta     94.0598
_cell_angle_gamma    90

_symmetry_Int_Tables_number  6
_chemical_formula_structural  Li4Mn3SbP4O16
_chemical_formula_sum  Li4Mn3SbP4O6
_cell_volume  324.3349606518547
_cell_formula_units_Z  1
loop_
  _symmetry_equiv_pos_site_id
 _symmetry_equiv_pos_as_xyz
 1  'x, y, z'
loop_
 _atom_site_type_symbol
 _atom_site_label
 _atom_site_symmetry_multiplicity
 _atom_site_fract_x
 _atom_site_fract_y
 _atom_site_fract_z
 _atom_site_fract_occupancy
 Li  Li1  1  0.01814  0.25662  0.98764  1
 Li  Li2  1  0.01814  0.74338  0.98764  1
 Li  Li3  1  0.46379  0.75958  0.51972  1
 Li  Li4  1  0.46379  0.24042  0.51972  1
 Mn  Mn1  1  0.01557  0.00000  0.72439  1
 Mn  Mn2  1  0.52780  0.00000  0.19129  1
 Mn  Mn3  1  0.52409  0.50000  0.78851  1
 O  O1  1  0.15884  0.50000  0.47839  1
 O  O2  1  0.77254  0.19356  0.34867  1
 O  O3  1  0.19415  0.70043  0.67299  1
 O  O4  1  0.22395  0.00000  0.43832  1
 O  O5  1  0.27638  0.00000  0.89840  1
 O  O6  1  0.33744  0.29153  0.13334  1
 O  O7  1  0.19415  0.29957  0.67299  1
 O  O8  1  0.28333  0.50000  0.94121  1
 O  O9  1  0.74892  0.00000  0.03205  1
 O  O10  1  0.72751  0.50000  0.60724  1
 O  O11  1  0.72093  0.19897  0.83459  1
 O  O12  1  0.76525  0.50000  0.05926  1
 O  O13  1  0.33744  0.70847  0.13334  1
 O  O14  1  0.77254  0.80644  0.34867  1
 O  O15  1  0.72093  0.80103  0.83459  1
 O  O16  1  0.76831  0.00000  0.55031  1
 P  P1  1  0.05102  0.50000  0.60899  1
 P  P2  1  0.44345  0.50000  0.06995  1
 P  P3  1  0.59970  0.00000  0.90178  1
 P  P4  1  0.90298  0.00000  0.42629  1
 Sb  Sb1  1  0.96891  0.50000  0.28974  1
