CIF file written using JARVIS-Tools package.
data_TiS2
_symmetry_space_group_name_H-M  'P6_3/mmc'
_cell_length_a       3.35181
_cell_length_b       3.35181
_cell_length_c       12.0124
_cell_angle_alpha    90
_cell_angle_beta     90
_cell_angle_gamma    120.001

_symmetry_Int_Tables_number  194
_chemical_formula_structural  TiS2
_chemical_formula_sum  Ti2S4
_cell_volume  116.8737778430118
_cell_formula_units_Z  2
loop_
  _symmetry_equiv_pos_site_id
 _symmetry_equiv_pos_as_xyz
 1  'x, y, z'
loop_
 _atom_site_type_symbol
 _atom_site_label
 _atom_site_symmetry_multiplicity
 _atom_site_fract_x
 _atom_site_fract_y
 _atom_site_fract_z
 _atom_site_fract_occupancy
 S  S1  1  0.66669  0.33331  0.12515  1
 S  S2  1  0.33331  0.66669  0.87485  1
 S  S3  1  0.33331  0.66669  0.62515  1
 S  S4  1  0.66669  0.33331  0.37485  1
 Ti  Ti1  1  0.66664  0.33336  0.75000  1
 Ti  Ti2  1  0.33336  0.66664  0.25000  1
