CIF file written using JARVIS-Tools package.
data_LiMg6W
_symmetry_space_group_name_H-M  'P-6m2'
_cell_length_a       6.09851
_cell_length_b       6.09851
_cell_length_c       4.90442
_cell_angle_alpha    90
_cell_angle_beta     90
_cell_angle_gamma    119.989

_symmetry_Int_Tables_number  187
_chemical_formula_structural  LiMg6W
_chemical_formula_sum  LiMg6W
_cell_volume  157.9841317253027
_cell_formula_units_Z  1
loop_
  _symmetry_equiv_pos_site_id
 _symmetry_equiv_pos_as_xyz
 1  'x, y, z'
loop_
 _atom_site_type_symbol
 _atom_site_label
 _atom_site_symmetry_multiplicity
 _atom_site_fract_x
 _atom_site_fract_y
 _atom_site_fract_z
 _atom_site_fract_occupancy
 Li  Li1  1  0.08339  0.41661  0.25000  1
 Mg  Mg1  1  0.10459  0.92727  0.25000  1
 Mg  Mg2  1  0.57273  0.39541  0.25000  1
 Mg  Mg3  1  0.57274  0.92726  0.25000  1
 Mg  Mg4  1  0.41527  0.58268  0.75000  1
 Mg  Mg5  1  0.91732  0.08473  0.75000  1
 Mg  Mg6  1  0.91732  0.58268  0.75000  1
 W  W1  1  0.41664  0.08336  0.75000  1
