CIF file written using JARVIS-Tools package.
data_NaHF2
_symmetry_space_group_name_H-M  'C2'
_cell_length_a       3.77678
_cell_length_b       3.77678
_cell_length_c       3.1685
_cell_angle_alpha    83.0778
_cell_angle_beta     83.0778
_cell_angle_gamma    96.8866

_symmetry_Int_Tables_number  5
_chemical_formula_structural  NaHF2
_chemical_formula_sum  NaHF2
_cell_volume  44.12273890563702
_cell_formula_units_Z  1
loop_
  _symmetry_equiv_pos_site_id
 _symmetry_equiv_pos_as_xyz
 1  'x, y, z'
loop_
 _atom_site_type_symbol
 _atom_site_label
 _atom_site_symmetry_multiplicity
 _atom_site_fract_x
 _atom_site_fract_y
 _atom_site_fract_z
 _atom_site_fract_occupancy
 F  F1  1  0.28795  0.12728  0.10252  1
 F  F2  1  0.87272  0.71205  0.89748  1
 H  H1  1  0.09890  0.90110  0.00000  1
 Na  Na1  1  0.73633  0.26367  0.50000  1
