CIF file written using JARVIS-Tools package.
data_BeGe4Sb
_symmetry_space_group_name_H-M  'F-43m'
_cell_length_a       5.61673
_cell_length_b       5.61673
_cell_length_c       5.61673
_cell_angle_alpha    60
_cell_angle_beta     60
_cell_angle_gamma    60

_symmetry_Int_Tables_number  216
_chemical_formula_structural  BeGe4Sb
_chemical_formula_sum  BeGe4Sb
_cell_volume  125.29538466428711
_cell_formula_units_Z  1
loop_
  _symmetry_equiv_pos_site_id
 _symmetry_equiv_pos_as_xyz
 1  'x, y, z'
loop_
 _atom_site_type_symbol
 _atom_site_label
 _atom_site_symmetry_multiplicity
 _atom_site_fract_x
 _atom_site_fract_y
 _atom_site_fract_z
 _atom_site_fract_occupancy
 Be  Be1  1  0.00000  0.00000  0.00000  1
 Ge  Ge1  1  0.12036  0.62655  0.62655  1
 Ge  Ge2  1  0.62655  0.62655  0.62655  1
 Ge  Ge3  1  0.62655  0.12036  0.62655  1
 Ge  Ge4  1  0.62655  0.62655  0.12036  1
 Sb  Sb1  1  0.25000  0.25000  0.25000  1
