CIF file written using JARVIS-Tools package.
data_KUCrO6
_symmetry_space_group_name_H-M  'P2_1/c'
_cell_length_a       6.60832
_cell_length_b       8.3536
_cell_length_c       10.4289
_cell_angle_alpha    90
_cell_angle_beta     104.077
_cell_angle_gamma    90

_symmetry_Int_Tables_number  14
_chemical_formula_structural  KUCrO6
_chemical_formula_sum  K4U4Cr4O24
_cell_volume  558.4225079261298
_cell_formula_units_Z  4
loop_
  _symmetry_equiv_pos_site_id
 _symmetry_equiv_pos_as_xyz
 1  'x, y, z'
loop_
 _atom_site_type_symbol
 _atom_site_label
 _atom_site_symmetry_multiplicity
 _atom_site_fract_x
 _atom_site_fract_y
 _atom_site_fract_z
 _atom_site_fract_occupancy
 Cr  Cr1  1  0.62297  0.35698  0.05336  1
 Cr  Cr2  1  0.37703  0.85698  0.44664  1
 Cr  Cr3  1  0.62297  0.14302  0.55336  1
 Cr  Cr4  1  0.37703  0.64302  0.94664  1
 K  K1  1  0.96041  0.73226  0.15091  1
 K  K2  1  0.96041  0.76774  0.65091  1
 K  K3  1  0.03959  0.26774  0.84909  1
 K  K4  1  0.03959  0.23226  0.34909  1
 O  O1  1  0.54930  0.93634  0.60378  1
 O  O2  1  0.54930  0.56366  0.10378  1
 O  O3  1  0.45070  0.06366  0.39622  1
 O  O4  1  0.76425  0.52149  0.73652  1
 O  O5  1  0.59118  0.29156  0.21529  1
 O  O6  1  0.13490  0.63182  0.94416  1
 O  O7  1  0.40882  0.70844  0.78471  1
 O  O8  1  0.59118  0.20844  0.71529  1
 O  O9  1  0.76425  0.97851  0.23651  1
 O  O10  1  0.23575  0.47851  0.26349  1
 O  O11  1  0.40882  0.79156  0.28471  1
 O  O12  1  0.45070  0.43634  0.89622  1
 O  O13  1  0.46608  0.65757  0.50859  1
 O  O14  1  0.79816  0.56979  0.37491  1
 O  O15  1  0.53392  0.34243  0.49141  1
 O  O16  1  0.20184  0.06979  0.12509  1
 O  O17  1  0.23575  0.02149  0.76348  1
 O  O18  1  0.79816  0.93021  0.87491  1
 O  O19  1  0.20184  0.43021  0.62509  1
 O  O20  1  0.86510  0.36818  0.05584  1
 O  O21  1  0.13490  0.86818  0.44416  1
 O  O22  1  0.53392  0.15757  0.99141  1
 O  O23  1  0.46608  0.84243  0.00859  1
 O  O24  1  0.86510  0.13182  0.55584  1
 U  U1  1  0.48317  0.47654  0.67774  1
 U  U2  1  0.51683  0.97654  0.82226  1
 U  U3  1  0.51683  0.52346  0.32226  1
 U  U4  1  0.48317  0.02346  0.17774  1
