CIF file written using JARVIS-Tools package.
data_HoZrSb
_symmetry_space_group_name_H-M  'I4/mmm'
_cell_length_a       4.25789
_cell_length_b       4.25789
_cell_length_c       8.80008
_cell_angle_alpha    104
_cell_angle_beta     104
_cell_angle_gamma    90

_symmetry_Int_Tables_number  139
_chemical_formula_structural  HoZrSb
_chemical_formula_sum  Ho2Zr2Sb2
_cell_volume  149.91416883833816
_cell_formula_units_Z  2
loop_
  _symmetry_equiv_pos_site_id
 _symmetry_equiv_pos_as_xyz
 1  'x, y, z'
loop_
 _atom_site_type_symbol
 _atom_site_label
 _atom_site_symmetry_multiplicity
 _atom_site_fract_x
 _atom_site_fract_y
 _atom_site_fract_z
 _atom_site_fract_occupancy
 Ho  Ho1  1  0.67630  0.67630  0.35260  1
 Ho  Ho2  1  0.32370  0.32370  0.64740  1
 Sb  Sb1  1  0.13485  0.13485  0.26970  1
 Sb  Sb2  1  0.86515  0.86515  0.73030  1
 Zr  Zr1  1  0.00000  0.50000  -0.00000  1
 Zr  Zr2  1  0.50000  0.00000  -0.00000  1
