CIF file written using JARVIS-Tools package.
data_V3S4
_symmetry_space_group_name_H-M  'C2/m'
_cell_length_a       3.25747
_cell_length_b       5.86131
_cell_length_c       6.51119
_cell_angle_alpha    114.428
_cell_angle_beta     104.486
_cell_angle_gamma    90

_symmetry_Int_Tables_number  12
_chemical_formula_structural  V3S4
_chemical_formula_sum  V3S4
_cell_volume  108.83394550893273
_cell_formula_units_Z  1
loop_
  _symmetry_equiv_pos_site_id
 _symmetry_equiv_pos_as_xyz
 1  'x, y, z'
loop_
 _atom_site_type_symbol
 _atom_site_label
 _atom_site_symmetry_multiplicity
 _atom_site_fract_x
 _atom_site_fract_y
 _atom_site_fract_z
 _atom_site_fract_occupancy
 S  S1  1  0.35988  0.02005  0.71975  1
 S  S2  1  0.64012  0.97995  0.28025  1
 S  S3  1  0.89068  0.55041  0.78136  1
 S  S4  1  0.10932  0.44959  0.21864  1
 V  V1  1  0.00000  0.00000  0.00000  1
 V  V2  1  0.25807  0.31797  0.51615  1
 V  V3  1  0.74193  0.68203  0.48385  1
