CIF file written using JARVIS-Tools package.
data_SnSb2Te4
_symmetry_space_group_name_H-M  'R-3m'
_cell_length_a       14.162
_cell_length_b       14.162
_cell_length_c       14.162
_cell_angle_alpha    17.8689
_cell_angle_beta     17.8689
_cell_angle_gamma    17.8689

_symmetry_Int_Tables_number  166
_chemical_formula_structural  SnSb2Te4
_chemical_formula_sum  SnSb2Te4
_cell_volume  233.4695690728195
_cell_formula_units_Z  1
loop_
  _symmetry_equiv_pos_site_id
 _symmetry_equiv_pos_as_xyz
 1  'x, y, z'
loop_
 _atom_site_type_symbol
 _atom_site_label
 _atom_site_symmetry_multiplicity
 _atom_site_fract_x
 _atom_site_fract_y
 _atom_site_fract_z
 _atom_site_fract_occupancy
 Sb  Sb1  1  0.42671  0.42671  0.42671  1
 Sb  Sb2  1  0.57329  0.57329  0.57329  1
 Sn  Sn1  1  0.00000  0.00000  0.00000  1
 Te  Te1  1  0.13347  0.13347  0.13347  1
 Te  Te2  1  0.86653  0.86653  0.86653  1
 Te  Te3  1  0.28767  0.28767  0.28767  1
 Te  Te4  1  0.71233  0.71233  0.71233  1
