CIF file written using JARVIS-Tools package.
data_Cu2SeO4
_symmetry_space_group_name_H-M  'P2_1/c'
_cell_length_a       5.97893
_cell_length_b       7.08917
_cell_length_c       8.45364
_cell_angle_alpha    92.2833
_cell_angle_beta     90
_cell_angle_gamma    90

_symmetry_Int_Tables_number  14
_chemical_formula_structural  Cu2SeO4
_chemical_formula_sum  Cu8Se4O6
_cell_volume  358.02829127633595
_cell_formula_units_Z  4
loop_
  _symmetry_equiv_pos_site_id
 _symmetry_equiv_pos_as_xyz
 1  'x, y, z'
loop_
 _atom_site_type_symbol
 _atom_site_label
 _atom_site_symmetry_multiplicity
 _atom_site_fract_x
 _atom_site_fract_y
 _atom_site_fract_z
 _atom_site_fract_occupancy
 Cu  Cu1  1  0.69876  0.25261  0.75761  1
 Cu  Cu2  1  0.19876  0.24739  0.74239  1
 Cu  Cu3  1  0.30124  0.74739  0.24239  1
 Cu  Cu4  1  0.50000  0.50000  0.50000  1
 Cu  Cu5  1  0.00000  0.00000  0.00000  1
 Cu  Cu6  1  0.00000  0.50000  -0.00000  1
 Cu  Cu7  1  0.50000  -0.00000  0.50000  1
 Cu  Cu8  1  0.80124  0.75261  0.25761  1
 O  O1  1  0.28506  0.05267  0.10088  1
 O  O2  1  0.28951  0.91834  0.66327  1
 O  O3  1  0.78951  0.58166  0.83673  1
 O  O4  1  0.71494  0.94733  0.89912  1
 O  O5  1  0.93323  0.18303  0.60180  1
 O  O6  1  0.56677  0.68303  0.10180  1
 O  O7  1  0.78506  0.44733  0.39912  1
 O  O8  1  0.54045  0.74708  0.40483  1
 O  O9  1  0.06677  0.81697  0.39820  1
 O  O10  1  0.43323  0.31697  0.89820  1
 O  O11  1  0.21494  0.55267  0.60088  1
 O  O12  1  0.71049  0.08166  0.33673  1
 O  O13  1  0.95955  0.24708  0.90483  1
 O  O14  1  0.21049  0.41834  0.16327  1
 O  O15  1  0.04045  0.75292  0.09517  1
 O  O16  1  0.45955  0.25292  0.59517  1
 Se  Se1  1  0.92369  0.23347  0.39820  1
 Se  Se2  1  0.07631  0.76653  0.60180  1
 Se  Se3  1  0.42369  0.26653  0.10180  1
 Se  Se4  1  0.57631  0.73347  0.89820  1
