CIF file written using JARVIS-Tools package.
data_Mg6BMo
_symmetry_space_group_name_H-M  'Amm2'
_cell_length_a       6.09209
_cell_length_b       5.58365
_cell_length_c       4.70114
_cell_angle_alpha    90
_cell_angle_beta     90
_cell_angle_gamma    117.276

_symmetry_Int_Tables_number  38
_chemical_formula_structural  Mg6BMo
_chemical_formula_sum  Mg6BMo
_cell_volume  142.1338061498694
_cell_formula_units_Z  1
loop_
  _symmetry_equiv_pos_site_id
 _symmetry_equiv_pos_as_xyz
 1  'x, y, z'
loop_
 _atom_site_type_symbol
 _atom_site_label
 _atom_site_symmetry_multiplicity
 _atom_site_fract_x
 _atom_site_fract_y
 _atom_site_fract_z
 _atom_site_fract_occupancy
 B  B1  1  0.17034  0.83517  0.25000  1
 Mg  Mg1  1  0.64249  0.32066  0.25000  1
 Mg  Mg2  1  0.64249  0.82183  0.25000  1
 Mg  Mg3  1  0.33645  0.17400  0.75000  1
 Mg  Mg4  1  0.33645  0.66245  0.75000  1
 Mg  Mg5  1  0.84960  0.17480  0.75000  1
 Mg  Mg6  1  0.88271  0.69136  0.75000  1
 Mo  Mo1  1  0.13947  0.31973  0.25000  1
