CIF file written using JARVIS-Tools package.
data_NaMn2O4
_symmetry_space_group_name_H-M  'P2/m'
_cell_length_a       2.88057
_cell_length_b       4.8976
_cell_length_c       5.76596
_cell_angle_alpha    106.976
_cell_angle_beta     90.0181
_cell_angle_gamma    90.0074

_symmetry_Int_Tables_number  10
_chemical_formula_structural  NaMn2O4
_chemical_formula_sum  NaMn2O4
_cell_volume  77.8008689938463
_cell_formula_units_Z  1
loop_
  _symmetry_equiv_pos_site_id
 _symmetry_equiv_pos_as_xyz
 1  'x, y, z'
loop_
 _atom_site_type_symbol
 _atom_site_label
 _atom_site_symmetry_multiplicity
 _atom_site_fract_x
 _atom_site_fract_y
 _atom_site_fract_z
 _atom_site_fract_occupancy
 Mn  Mn1  1  -0.00000  0.00001  0.00001  1
 Mn  Mn2  1  0.50000  0.50000  0.00000  1
 Na  Na1  1  0.50000  0.00000  0.50000  1
 O  O1  1  0.49985  0.77356  0.81669  1
 O  O2  1  -0.00010  0.26839  0.81207  1
 O  O3  1  0.00010  0.73160  0.18793  1
 O  O4  1  0.50015  0.22645  0.18332  1
