CIF file written using JARVIS-Tools package.
data_Mg6NbBi
_symmetry_space_group_name_H-M  'Amm2'
_cell_length_a       6.32791
_cell_length_b       6.11869
_cell_length_c       5.23545
_cell_angle_alpha    90
_cell_angle_beta     90
_cell_angle_gamma    118.912

_symmetry_Int_Tables_number  38
_chemical_formula_structural  Mg6NbBi
_chemical_formula_sum  Mg6NbBi
_cell_volume  177.4430864302408
_cell_formula_units_Z  1
loop_
  _symmetry_equiv_pos_site_id
 _symmetry_equiv_pos_as_xyz
 1  'x, y, z'
loop_
 _atom_site_type_symbol
 _atom_site_label
 _atom_site_symmetry_multiplicity
 _atom_site_fract_x
 _atom_site_fract_y
 _atom_site_fract_z
 _atom_site_fract_occupancy
 Bi  Bi1  1  0.16005  0.83003  0.25000  1
 Mg  Mg1  1  0.66443  0.32885  0.25000  1
 Mg  Mg2  1  0.66444  0.83558  0.25000  1
 Mg  Mg3  1  0.33618  0.18283  0.75000  1
 Mg  Mg4  1  0.33618  0.65335  0.75000  1
 Mg  Mg5  1  0.85142  0.17571  0.75000  1
 Mg  Mg6  1  0.82040  0.66020  0.75000  1
 Nb  Nb1  1  0.16689  0.33344  0.25000  1
