CIF file written using JARVIS-Tools package.
data_HfGe2
_symmetry_space_group_name_H-M  'Cmcm'
_cell_length_a       3.78601
_cell_length_b       3.82423
_cell_length_c       7.7627
_cell_angle_alpha    104.26
_cell_angle_beta     90
_cell_angle_gamma    90

_symmetry_Int_Tables_number  63
_chemical_formula_structural  HfGe2
_chemical_formula_sum  Hf2Ge4
_cell_volume  108.92969210994724
_cell_formula_units_Z  2
loop_
  _symmetry_equiv_pos_site_id
 _symmetry_equiv_pos_as_xyz
 1  'x, y, z'
loop_
 _atom_site_type_symbol
 _atom_site_label
 _atom_site_symmetry_multiplicity
 _atom_site_fract_x
 _atom_site_fract_y
 _atom_site_fract_z
 _atom_site_fract_occupancy
 Ge  Ge1  1  0.75000  0.43896  0.87792  1
 Ge  Ge2  1  0.25000  0.56104  0.12208  1
 Ge  Ge3  1  0.75000  0.74974  0.49948  1
 Ge  Ge4  1  0.25000  0.25026  0.50052  1
 Hf  Hf1  1  0.75000  0.10564  0.21128  1
 Hf  Hf2  1  0.25000  0.89436  0.78872  1
