CIF file written using JARVIS-Tools package.
data_YAgSe2
_symmetry_space_group_name_H-M  'Cm'
_cell_length_a       8.00629
_cell_length_b       10.8264
_cell_length_c       7.22882
_cell_angle_alpha    29.4348
_cell_angle_beta     57.1676
_cell_angle_gamma    41.8885

_symmetry_Int_Tables_number  8
_chemical_formula_structural  YAgSe2
_chemical_formula_sum  Y2Ag2Se4
_cell_volume  194.53736738762444
_cell_formula_units_Z  2
loop_
  _symmetry_equiv_pos_site_id
 _symmetry_equiv_pos_as_xyz
 1  'x, y, z'
loop_
 _atom_site_type_symbol
 _atom_site_label
 _atom_site_symmetry_multiplicity
 _atom_site_fract_x
 _atom_site_fract_y
 _atom_site_fract_z
 _atom_site_fract_occupancy
 Ag  Ag1  1  0.51218  0.10335  0.86790  1
 Ag  Ag2  1  0.29222  0.38266  0.02952  1
 Se  Se1  1  0.22006  0.94704  0.60916  1
 Se  Se2  1  0.74942  0.00286  0.49474  1
 Se  Se3  1  0.50330  0.57563  0.41398  1
 Se  Se4  1  0.97525  0.50496  0.54058  1
 Y  Y1  1  -0.01446  -0.00774  0.03294  1
 Y  Y2  1  0.74057  0.50998  0.00523  1
