CIF file written using JARVIS-Tools package.
data_ThSiS
_symmetry_space_group_name_H-M  'I4/mmm'
_cell_length_a       3.92532
_cell_length_b       3.92532
_cell_length_c       9.05828
_cell_angle_alpha    102.513
_cell_angle_beta     102.513
_cell_angle_gamma    90

_symmetry_Int_Tables_number  139
_chemical_formula_structural  ThSiS
_chemical_formula_sum  Th2Si2S2
_cell_volume  132.8577293689744
_cell_formula_units_Z  2
loop_
  _symmetry_equiv_pos_site_id
 _symmetry_equiv_pos_as_xyz
 1  'x, y, z'
loop_
 _atom_site_type_symbol
 _atom_site_label
 _atom_site_symmetry_multiplicity
 _atom_site_fract_x
 _atom_site_fract_y
 _atom_site_fract_z
 _atom_site_fract_occupancy
 S  S1  1  0.68841  0.68841  0.37681  1
 S  S2  1  0.31159  0.31159  0.62319  1
 Si  Si1  1  0.50000  0.00000  0.00000  1
 Si  Si2  1  0.00000  0.50000  0.00000  1
 Th  Th1  1  0.86198  0.86198  0.72395  1
 Th  Th2  1  0.13802  0.13802  0.27605  1
