CIF file written using JARVIS-Tools package.
data_SnSe2Cl8O2
_symmetry_space_group_name_H-M  'C2/c'
_cell_length_a       6.40598
_cell_length_b       6.40598
_cell_length_c       16.2897
_cell_angle_alpha    92.5644
_cell_angle_beta     92.5644
_cell_angle_gamma    91.0679

_symmetry_Int_Tables_number  15
_chemical_formula_structural  SnSe2Cl8O2
_chemical_formula_sum  Sn2Se4Cl6O4
_cell_volume  666.992073382318
_cell_formula_units_Z  2
loop_
  _symmetry_equiv_pos_site_id
 _symmetry_equiv_pos_as_xyz
 1  'x, y, z'
loop_
 _atom_site_type_symbol
 _atom_site_label
 _atom_site_symmetry_multiplicity
 _atom_site_fract_x
 _atom_site_fract_y
 _atom_site_fract_z
 _atom_site_fract_occupancy
 Cl  Cl1  1  0.35859  0.62332  0.63754  1
 Cl  Cl2  1  0.56423  0.89221  0.24126  1
 Cl  Cl3  1  0.17341  0.29310  0.47991  1
 Cl  Cl4  1  0.37668  0.64141  0.86246  1
 Cl  Cl5  1  0.18917  0.68046  0.06700  1
 Cl  Cl6  1  0.81083  0.31954  0.93300  1
 Cl  Cl7  1  0.29310  0.17341  0.97991  1
 Cl  Cl8  1  0.70690  0.82659  0.02009  1
 Cl  Cl9  1  0.64141  0.37668  0.36246  1
 Cl  Cl10  1  0.82659  0.70690  0.52009  1
 Cl  Cl11  1  0.10779  0.43577  0.25874  1
 Cl  Cl12  1  0.68046  0.18917  0.56700  1
 Cl  Cl13  1  0.31954  0.81083  0.43300  1
 Cl  Cl14  1  0.62332  0.35859  0.13754  1
 Cl  Cl15  1  0.43577  0.10779  0.75874  1
 Cl  Cl16  1  0.89221  0.56423  0.74126  1
 O  O1  1  0.98890  0.01858  0.16237  1
 O  O2  1  0.01858  0.98890  0.66237  1
 O  O3  1  0.01110  0.98142  0.83763  1
 O  O4  1  0.98142  0.01110  0.33763  1
 Se  Se1  1  0.22717  0.09143  0.36914  1
 Se  Se2  1  0.90857  0.77283  0.13086  1
 Se  Se3  1  0.77283  0.90857  0.63086  1
 Se  Se4  1  0.09143  0.22717  0.86914  1
 Sn  Sn1  1  0.80246  0.19754  0.25000  1
 Sn  Sn2  1  0.19754  0.80246  0.75000  1
