CIF file written using JARVIS-Tools package.
data_DyCoC2
_symmetry_space_group_name_H-M  'Amm2'
_cell_length_a       3.55513
_cell_length_b       3.75473
_cell_length_c       3.75473
_cell_angle_alpha    106.324
_cell_angle_beta     90
_cell_angle_gamma    90

_symmetry_Int_Tables_number  38
_chemical_formula_structural  DyCoC2
_chemical_formula_sum  DyCoC2
_cell_volume  48.099790335086325
_cell_formula_units_Z  1
loop_
  _symmetry_equiv_pos_site_id
 _symmetry_equiv_pos_as_xyz
 1  'x, y, z'
loop_
 _atom_site_type_symbol
 _atom_site_label
 _atom_site_symmetry_multiplicity
 _atom_site_fract_x
 _atom_site_fract_y
 _atom_site_fract_z
 _atom_site_fract_occupancy
 C  C1  1  0.50000  0.45789  0.84656  1
 C  C2  1  0.50000  0.15344  0.54211  1
 Co  Co1  1  0.50000  0.61646  0.38354  1
 Dy  Dy1  1  0.00000  0.99821  0.00179  1
