CIF file written using JARVIS-Tools package.
data_Ba2U2O7
_symmetry_space_group_name_H-M  'Imma'
_cell_length_a       8.14415
_cell_length_b       8.14415
_cell_length_c       8.14415
_cell_angle_alpha    91.2967
_cell_angle_beta     119.035
_cell_angle_gamma    119.474

_symmetry_Int_Tables_number  74
_chemical_formula_structural  Ba2U2O7
_chemical_formula_sum  Ba4U4O4
_cell_volume  386.1541712844094
_cell_formula_units_Z  2
loop_
  _symmetry_equiv_pos_site_id
 _symmetry_equiv_pos_as_xyz
 1  'x, y, z'
loop_
 _atom_site_type_symbol
 _atom_site_label
 _atom_site_symmetry_multiplicity
 _atom_site_fract_x
 _atom_site_fract_y
 _atom_site_fract_z
 _atom_site_fract_occupancy
 Ba  Ba1  1  0.00000  0.00000  0.00000  1
 Ba  Ba2  1  0.00000  0.50000  0.50000  1
 Ba  Ba3  1  0.00000  0.50000  0.00000  1
 Ba  Ba4  1  0.50000  0.00000  -0.00000  1
 O  O1  1  0.84069  0.75000  0.59069  1
 O  O2  1  0.63621  0.32266  0.55122  1
 O  O3  1  0.22856  0.17734  0.81355  1
 O  O4  1  0.22856  0.91501  0.55122  1
 O  O5  1  0.77144  0.08499  0.44878  1
 O  O6  1  0.28468  0.90626  0.19094  1
 O  O7  1  0.71532  0.40626  0.12159  1
 O  O8  1  0.36379  0.41501  0.18645  1
 O  O9  1  0.15931  0.25000  0.40931  1
 O  O10  1  0.36379  0.67734  0.44878  1
 O  O11  1  0.71532  0.09374  0.80906  1
 O  O12  1  0.63621  0.58499  0.81355  1
 O  O13  1  0.77144  0.82266  0.18645  1
 O  O14  1  0.28468  0.59374  0.87841  1
 U  U1  1  0.50000  -0.00000  0.50000  1
 U  U2  1  0.00000  0.00000  0.50000  1
 U  U3  1  0.50000  0.50000  0.00000  1
 U  U4  1  0.50000  0.50000  0.50000  1
