CIF file written using JARVIS-Tools package.
data_LiCo2O4
_symmetry_space_group_name_H-M  'Imma'
_cell_length_a       5.64149
_cell_length_b       5.6412
_cell_length_c       5.64119
_cell_angle_alpha    60.3391
_cell_angle_beta     120.002
_cell_angle_gamma    120.002

_symmetry_Int_Tables_number  74
_chemical_formula_structural  LiCo2O4
_chemical_formula_sum  Li2Co4O8
_cell_volume  127.26549374158441
_cell_formula_units_Z  2
loop_
  _symmetry_equiv_pos_site_id
 _symmetry_equiv_pos_as_xyz
 1  'x, y, z'
loop_
 _atom_site_type_symbol
 _atom_site_label
 _atom_site_symmetry_multiplicity
 _atom_site_fract_x
 _atom_site_fract_y
 _atom_site_fract_z
 _atom_site_fract_occupancy
 Co  Co1  1  0.50000  0.50000  0.50000  1
 Co  Co2  1  0.50000  0.50000  0.00000  1
 Co  Co3  1  0.00000  0.50000  0.00000  1
 Co  Co4  1  0.50000  -0.00000  0.00000  1
 Li  Li1  1  0.50000  0.00000  0.50000  1
 Li  Li2  1  -0.00000  0.00000  0.50000  1
 O  O1  1  0.73737  0.71555  0.75919  1
 O  O2  1  0.70975  0.73854  0.23854  1
 O  O3  1  0.26263  0.74081  0.78445  1
 O  O4  1  0.73268  0.26146  0.76146  1
 O  O5  1  0.26732  0.73854  0.23854  1
 O  O6  1  0.73737  0.25919  0.21555  1
 O  O7  1  0.29025  0.26146  0.76146  1
 O  O8  1  0.26263  0.28445  0.24081  1
