CIF file written using JARVIS-Tools package.
data_CeMg6W
_symmetry_space_group_name_H-M  'Amm2'
_cell_length_a       6.57651
_cell_length_b       5.75978
_cell_length_c       5.12564
_cell_angle_alpha    90
_cell_angle_beta     90
_cell_angle_gamma    115.97

_symmetry_Int_Tables_number  38
_chemical_formula_structural  CeMg6W
_chemical_formula_sum  CeMg6W
_cell_volume  174.5497916913547
_cell_formula_units_Z  1
loop_
  _symmetry_equiv_pos_site_id
 _symmetry_equiv_pos_as_xyz
 1  'x, y, z'
loop_
 _atom_site_type_symbol
 _atom_site_label
 _atom_site_symmetry_multiplicity
 _atom_site_fract_x
 _atom_site_fract_y
 _atom_site_fract_z
 _atom_site_fract_occupancy
 Ce  Ce1  1  0.14257  0.32128  0.25000  1
 Mg  Mg1  1  0.64711  0.32394  0.25000  1
 Mg  Mg2  1  0.64711  0.82316  0.25000  1
 Mg  Mg3  1  0.33876  0.16038  0.75000  1
 Mg  Mg4  1  0.33876  0.67838  0.75000  1
 Mg  Mg5  1  0.82319  0.16159  0.75000  1
 Mg  Mg6  1  0.89705  0.69852  0.75000  1
 W  W1  1  0.16547  0.83273  0.25000  1
