CIF file written using JARVIS-Tools package.
data_Rb2MnO4
_symmetry_space_group_name_H-M  'Pnma'
_cell_length_a       6.01614
_cell_length_b       7.98889
_cell_length_c       10.6447
_cell_angle_alpha    90
_cell_angle_beta     90
_cell_angle_gamma    90

_symmetry_Int_Tables_number  62
_chemical_formula_structural  Rb2MnO4
_chemical_formula_sum  Rb8Mn4O6
_cell_volume  511.6070877458793
_cell_formula_units_Z  4
loop_
  _symmetry_equiv_pos_site_id
 _symmetry_equiv_pos_as_xyz
 1  'x, y, z'
loop_
 _atom_site_type_symbol
 _atom_site_label
 _atom_site_symmetry_multiplicity
 _atom_site_fract_x
 _atom_site_fract_y
 _atom_site_fract_z
 _atom_site_fract_occupancy
 Mn  Mn1  1  0.75000  0.76477  0.92074  1
 Mn  Mn2  1  0.75000  0.26477  0.57926  1
 Mn  Mn3  1  0.25000  0.23523  0.07926  1
 Mn  Mn4  1  0.25000  0.73523  0.42074  1
 O  O1  1  0.52500  0.68860  0.85080  1
 O  O2  1  0.75000  0.20193  0.43015  1
 O  O3  1  0.47500  0.81140  0.35080  1
 O  O4  1  0.75000  0.70193  0.06985  1
 O  O5  1  0.25000  0.29807  0.93015  1
 O  O6  1  0.75000  0.97196  0.91217  1
 O  O7  1  0.25000  0.02804  0.08783  1
 O  O8  1  0.25000  0.79807  0.56985  1
 O  O9  1  0.25000  0.52804  0.41217  1
 O  O10  1  0.47500  0.31140  0.14920  1
 O  O11  1  0.52500  0.18860  0.64920  1
 O  O12  1  0.97500  0.18860  0.64920  1
 O  O13  1  0.02500  0.31140  0.14920  1
 O  O14  1  0.75000  0.47196  0.58783  1
 O  O15  1  0.97500  0.68860  0.85080  1
 O  O16  1  0.02500  0.81140  0.35080  1
 Rb  Rb1  1  0.25000  0.66567  0.09113  1
 Rb  Rb2  1  0.75000  0.33433  0.90887  1
 Rb  Rb3  1  0.25000  0.16567  0.40887  1
 Rb  Rb4  1  0.75000  0.83433  0.59113  1
 Rb  Rb5  1  0.75000  0.51729  0.30584  1
 Rb  Rb6  1  0.75000  0.01729  0.19416  1
 Rb  Rb7  1  0.25000  0.98271  0.80584  1
 Rb  Rb8  1  0.25000  0.48271  0.69416  1
