CIF file written using JARVIS-Tools package.
data_Ti3TeO8
_symmetry_space_group_name_H-M  'P1'
_cell_length_a       5.40581
_cell_length_b       5.30851
_cell_length_c       7.36827
_cell_angle_alpha    84.5369
_cell_angle_beta     85.4174
_cell_angle_gamma    74.9275

_symmetry_Int_Tables_number  1
_chemical_formula_structural  Ti3TeO8
_chemical_formula_sum  Ti3TeO8
_cell_volume  202.90939629899816
_cell_formula_units_Z  1
loop_
  _symmetry_equiv_pos_site_id
 _symmetry_equiv_pos_as_xyz
 1  'x, y, z'
loop_
 _atom_site_type_symbol
 _atom_site_label
 _atom_site_symmetry_multiplicity
 _atom_site_fract_x
 _atom_site_fract_y
 _atom_site_fract_z
 _atom_site_fract_occupancy
 O  O1  1  0.04030  0.66209  0.93541  1
 O  O2  1  0.95540  0.51319  0.31810  1
 O  O3  1  0.53920  0.06398  0.82836  1
 O  O4  1  0.51969  0.18256  0.42023  1
 O  O5  1  0.50379  0.66692  0.58056  1
 O  O6  1  0.40828  0.63877  0.19267  1
 O  O7  1  0.04968  0.10720  0.67104  1
 O  O8  1  0.90441  0.20557  0.05956  1
 Te  Te1  1  0.18755  0.39557  0.11708  1
 Ti  Ti1  1  0.87907  0.01143  0.88102  1
 Ti  Ti2  1  0.61448  0.49378  0.37338  1
 Ti  Ti3  1  0.39815  0.01056  0.62259  1
