CIF file written using JARVIS-Tools package.
data_LaMg6Si
_symmetry_space_group_name_H-M  'Amm2'
_cell_length_a       7.26555
_cell_length_b       7.26554
_cell_length_c       4.67515
_cell_angle_alpha    90
_cell_angle_beta     90
_cell_angle_gamma    128.683

_symmetry_Int_Tables_number  38
_chemical_formula_structural  LaMg6Si
_chemical_formula_sum  LaMg6Si
_cell_volume  192.65118651521502
_cell_formula_units_Z  1
loop_
  _symmetry_equiv_pos_site_id
 _symmetry_equiv_pos_as_xyz
 1  'x, y, z'
loop_
 _atom_site_type_symbol
 _atom_site_label
 _atom_site_symmetry_multiplicity
 _atom_site_fract_x
 _atom_site_fract_y
 _atom_site_fract_z
 _atom_site_fract_occupancy
 La  La1  1  0.20601  0.29399  0.25000  1
 Mg  Mg1  1  0.16851  0.81090  0.25000  1
 Mg  Mg2  1  0.68910  0.33149  0.25000  1
 Mg  Mg3  1  0.64338  0.85662  0.25000  1
 Mg  Mg4  1  0.30716  0.68341  0.75000  1
 Mg  Mg5  1  0.81659  0.19284  0.75000  1
 Mg  Mg6  1  0.79557  0.70443  0.75000  1
 Si  Si1  1  0.37368  0.12632  0.75000  1
