CIF file written using JARVIS-Tools package.
data_Na2Ti2Sb2O
_symmetry_space_group_name_H-M  'I4/mmm'
_cell_length_a       4.14689
_cell_length_b       4.14689
_cell_length_c       8.82031
_cell_angle_alpha    103.596
_cell_angle_beta     103.596
_cell_angle_gamma    90

_symmetry_Int_Tables_number  139
_chemical_formula_structural  Na2Ti2Sb2O
_chemical_formula_sum  Na2Ti2Sb2O
_cell_volume  143.0529636538774
_cell_formula_units_Z  1
loop_
  _symmetry_equiv_pos_site_id
 _symmetry_equiv_pos_as_xyz
 1  'x, y, z'
loop_
 _atom_site_type_symbol
 _atom_site_label
 _atom_site_symmetry_multiplicity
 _atom_site_fract_x
 _atom_site_fract_y
 _atom_site_fract_z
 _atom_site_fract_occupancy
 Na  Na1  1  0.68265  0.68265  0.36531  1
 Na  Na2  1  0.31735  0.31735  0.63469  1
 O  O1  1  0.50000  0.50000  0.00000  1
 Sb  Sb1  1  0.12208  0.12208  0.24416  1
 Sb  Sb2  1  0.87792  0.87792  0.75584  1
 Ti  Ti1  1  -0.00000  0.50000  -0.00000  1
 Ti  Ti2  1  0.50000  -0.00000  0.00000  1
