CIF file written using JARVIS-Tools package.
data_NaMg6W
_symmetry_space_group_name_H-M  'P4/mmm'
_cell_length_a       6.19988
_cell_length_b       8.77456
_cell_length_c       4.38612
_cell_angle_alpha    90
_cell_angle_beta     90
_cell_angle_gamma    135.043

_symmetry_Int_Tables_number  123
_chemical_formula_structural  NaMg6W
_chemical_formula_sum  NaMg6W
_cell_volume  168.59547991239322
_cell_formula_units_Z  1
loop_
  _symmetry_equiv_pos_site_id
 _symmetry_equiv_pos_as_xyz
 1  'x, y, z'
loop_
 _atom_site_type_symbol
 _atom_site_label
 _atom_site_symmetry_multiplicity
 _atom_site_fract_x
 _atom_site_fract_y
 _atom_site_fract_z
 _atom_site_fract_occupancy
 Mg  Mg1  1  0.75001  0.37499  0.25000  1
 Mg  Mg2  1  0.75001  0.87501  0.25000  1
 Mg  Mg3  1  0.24998  0.10409  0.75000  1
 Mg  Mg4  1  0.25000  0.64591  0.75000  1
 Mg  Mg5  1  0.70874  0.10437  0.75000  1
 Mg  Mg6  1  0.79124  0.64562  0.75000  1
 Na  Na1  1  0.25004  0.37502  0.25000  1
 W  W1  1  0.24998  0.87499  0.25000  1
