CIF file written using JARVIS-Tools package.
data_NaMg6Mo
_symmetry_space_group_name_H-M  'P-6m2'
_cell_length_a       6.23016
_cell_length_b       6.23016
_cell_length_c       4.98105
_cell_angle_alpha    90
_cell_angle_beta     90
_cell_angle_gamma    119.999

_symmetry_Int_Tables_number  187
_chemical_formula_structural  NaMg6Mo
_chemical_formula_sum  NaMg6Mo
_cell_volume  167.43885652784323
_cell_formula_units_Z  1
loop_
  _symmetry_equiv_pos_site_id
 _symmetry_equiv_pos_as_xyz
 1  'x, y, z'
loop_
 _atom_site_type_symbol
 _atom_site_label
 _atom_site_symmetry_multiplicity
 _atom_site_fract_x
 _atom_site_fract_y
 _atom_site_fract_z
 _atom_site_fract_occupancy
 Mg  Mg1  1  0.10726  0.92862  0.25000  1
 Mg  Mg2  1  0.57138  0.39274  0.25000  1
 Mg  Mg3  1  0.57137  0.92863  0.25000  1
 Mg  Mg4  1  0.42234  0.58619  0.75000  1
 Mg  Mg5  1  0.91381  0.07766  0.75000  1
 Mg  Mg6  1  0.91382  0.58618  0.75000  1
 Mo  Mo1  1  0.41668  0.08332  0.75000  1
 Na  Na1  1  0.08334  0.41666  0.25000  1
