CIF file written using JARVIS-Tools package.
data_Ce2SeN2
_symmetry_space_group_name_H-M  'P-3m1'
_cell_length_a       3.92909
_cell_length_b       3.92925
_cell_length_c       6.99266
_cell_angle_alpha    89.9999
_cell_angle_beta     90.0001
_cell_angle_gamma    119.998

_symmetry_Int_Tables_number  164
_chemical_formula_structural  Ce2SeN2
_chemical_formula_sum  Ce2SeN2
_cell_volume  93.49375728971896
_cell_formula_units_Z  1
loop_
  _symmetry_equiv_pos_site_id
 _symmetry_equiv_pos_as_xyz
 1  'x, y, z'
loop_
 _atom_site_type_symbol
 _atom_site_label
 _atom_site_symmetry_multiplicity
 _atom_site_fract_x
 _atom_site_fract_y
 _atom_site_fract_z
 _atom_site_fract_occupancy
 Ce  Ce1  1  0.33335  0.66667  0.29604  1
 Ce  Ce2  1  0.66665  0.33333  0.70396  1
 N  N1  1  0.33331  0.66666  0.62604  1
 N  N2  1  0.66669  0.33334  0.37396  1
 Se  Se1  1  0.00000  0.00000  0.00000  1
