CIF file written using JARVIS-Tools package.
data_Mg6VNi
_symmetry_space_group_name_H-M  'Amm2'
_cell_length_a       6.18668
_cell_length_b       6.18668
_cell_length_c       4.68221
_cell_angle_alpha    90
_cell_angle_beta     90
_cell_angle_gamma    123.065

_symmetry_Int_Tables_number  38
_chemical_formula_structural  Mg6VNi
_chemical_formula_sum  Mg6VNi
_cell_volume  150.18913534747162
_cell_formula_units_Z  1
loop_
  _symmetry_equiv_pos_site_id
 _symmetry_equiv_pos_as_xyz
 1  'x, y, z'
loop_
 _atom_site_type_symbol
 _atom_site_label
 _atom_site_symmetry_multiplicity
 _atom_site_fract_x
 _atom_site_fract_y
 _atom_site_fract_z
 _atom_site_fract_occupancy
 Mg  Mg1  1  0.17690  0.84833  0.25000  1
 Mg  Mg2  1  0.65167  0.32310  0.25000  1
 Mg  Mg3  1  0.67293  0.82707  0.25000  1
 Mg  Mg4  1  0.32150  0.66152  0.75000  1
 Mg  Mg5  1  0.83848  0.17850  0.75000  1
 Mg  Mg6  1  0.83159  0.66841  0.75000  1
 Ni  Ni1  1  0.19939  0.30061  0.25000  1
 V  V1  1  0.30755  0.19245  0.75000  1
