CIF file written using JARVIS-Tools package.
data_Ba2CaMgAl2F14
_symmetry_space_group_name_H-M  'C2/c'
_cell_length_a       5.24027
_cell_length_b       7.31388
_cell_length_c       14.6827
_cell_angle_alpha    91.7369
_cell_angle_beta     90
_cell_angle_gamma    110.992

_symmetry_Int_Tables_number  15
_chemical_formula_structural  Ba2CaMgAl2F14
_chemical_formula_sum  Ba4Ca2Mg2Al4F28
_cell_volume  525.1129796859972
_cell_formula_units_Z  2
loop_
  _symmetry_equiv_pos_site_id
 _symmetry_equiv_pos_as_xyz
 1  'x, y, z'
loop_
 _atom_site_type_symbol
 _atom_site_label
 _atom_site_symmetry_multiplicity
 _atom_site_fract_x
 _atom_site_fract_y
 _atom_site_fract_z
 _atom_site_fract_occupancy
 Al  Al1  1  0.88874  0.76736  0.12188  1
 Al  Al2  1  0.12137  0.23264  0.37812  1
 Al  Al3  1  0.11126  0.23264  0.87812  1
 Al  Al4  1  0.87863  0.76736  0.62188  1
 Ba  Ba1  1  0.84495  0.61525  0.38205  1
 Ba  Ba2  1  0.77031  0.61525  0.88205  1
 Ba  Ba3  1  0.15505  0.38475  0.61795  1
 Ba  Ba4  1  0.22969  0.38475  0.11795  1
 Ca  Ca1  1  0.43909  0.00000  0.75000  1
 Ca  Ca2  1  0.56091  -0.00000  0.25000  1
 F  F1  1  0.59657  0.77359  0.05105  1
 F  F2  1  0.82298  0.22641  0.44895  1
 F  F3  1  0.40343  0.22641  0.94895  1
 F  F4  1  0.17702  0.77359  0.55105  1
 F  F5  1  0.61927  0.13177  0.61925  1
 F  F6  1  0.10902  0.84354  0.02332  1
 F  F7  1  0.89098  0.15646  0.97668  1
 F  F8  1  0.71653  0.51728  0.57813  1
 F  F9  1  0.19925  0.48272  0.92187  1
 F  F10  1  0.26548  0.15646  0.47668  1
 F  F11  1  0.28347  0.48272  0.42187  1
 F  F12  1  0.80075  0.51728  0.07813  1
 F  F13  1  0.73452  0.84354  0.52332  1
 F  F14  1  0.93154  0.98565  0.34059  1
 F  F15  1  0.15488  0.74501  0.19475  1
 F  F16  1  0.05411  0.98565  0.84059  1
 F  F17  1  0.38073  0.86823  0.38075  1
 F  F18  1  0.40988  0.25499  0.30525  1
 F  F19  1  0.94589  0.01435  0.15941  1
 F  F20  1  0.59012  0.74501  0.69475  1
 F  F21  1  0.51250  0.13177  0.11925  1
 F  F22  1  0.64119  0.68050  0.21611  1
 F  F23  1  0.96069  0.31950  0.28389  1
 F  F24  1  0.35881  0.31950  0.78389  1
 F  F25  1  0.03931  0.68050  0.71611  1
 F  F26  1  0.06846  0.01435  0.65941  1
 F  F27  1  0.84512  0.25499  0.80525  1
 F  F28  1  0.48750  0.86823  0.88075  1
 Mg  Mg1  1  0.50000  0.00000  0.00000  1
 Mg  Mg2  1  0.50000  -0.00000  0.50000  1
