CIF file written using JARVIS-Tools package.
data_Li9Co2O8
_symmetry_space_group_name_H-M  'C2'
_cell_length_a       6.30963
_cell_length_b       6.30963
_cell_length_c       4.67146
_cell_angle_alpha    89.1865
_cell_angle_beta     90.8134
_cell_angle_gamma    90.5771

_symmetry_Int_Tables_number  5
_chemical_formula_structural  Li9Co2O8
_chemical_formula_sum  Li9Co2O8
_cell_volume  185.9307319080419
_cell_formula_units_Z  1
loop_
  _symmetry_equiv_pos_site_id
 _symmetry_equiv_pos_as_xyz
 1  'x, y, z'
loop_
 _atom_site_type_symbol
 _atom_site_label
 _atom_site_symmetry_multiplicity
 _atom_site_fract_x
 _atom_site_fract_y
 _atom_site_fract_z
 _atom_site_fract_occupancy
 Co  Co1  1  0.75157  0.25158  0.75000  1
 Co  Co2  1  0.25453  0.75454  0.25000  1
 Li  Li1  1  0.97013  0.47014  0.25000  1
 Li  Li2  1  0.95844  0.03401  0.25397  1
 Li  Li3  1  0.74735  0.74203  0.80929  1
 Li  Li4  1  0.06476  0.56477  0.75000  1
 Li  Li5  1  0.53400  0.45845  0.24603  1
 Li  Li6  1  0.45972  0.95973  0.75000  1
 Li  Li7  1  0.27095  0.22274  0.18660  1
 Li  Li8  1  0.24202  0.24735  0.69071  1
 Li  Li9  1  0.72273  0.77096  0.31340  1
 O  O1  1  0.76804  0.50654  0.53443  1
 O  O2  1  0.00653  0.26805  0.96557  1
 O  O3  1  0.24009  0.99886  0.45679  1
 O  O4  1  0.24736  0.48546  0.43173  1
 O  O5  1  0.50057  0.24276  0.94264  1
 O  O6  1  0.49886  0.74010  0.04321  1
 O  O7  1  0.74275  0.00058  0.55736  1
 O  O8  1  0.98545  0.74737  0.06827  1
