CIF file written using JARVIS-Tools package.
data_LaP3
_symmetry_space_group_name_H-M  'P6_3/mmc'
_cell_length_a       5.83962
_cell_length_b       5.83962
_cell_length_c       5.65913
_cell_angle_alpha    90
_cell_angle_beta     90
_cell_angle_gamma    120

_symmetry_Int_Tables_number  194
_chemical_formula_structural  LaP3
_chemical_formula_sum  La2P6
_cell_volume  167.1278216187919
_cell_formula_units_Z  2
loop_
  _symmetry_equiv_pos_site_id
 _symmetry_equiv_pos_as_xyz
 1  'x, y, z'
loop_
 _atom_site_type_symbol
 _atom_site_label
 _atom_site_symmetry_multiplicity
 _atom_site_fract_x
 _atom_site_fract_y
 _atom_site_fract_z
 _atom_site_fract_occupancy
 La  La1  1  0.66667  0.33333  0.25000  1
 La  La2  1  0.33333  0.66667  0.75000  1
 P  P1  1  0.86305  0.13695  0.75000  1
 P  P2  1  0.27390  0.13695  0.75000  1
 P  P3  1  0.86305  0.72610  0.75000  1
 P  P4  1  0.13695  0.86305  0.25000  1
 P  P5  1  0.72610  0.86305  0.25000  1
 P  P6  1  0.13695  0.27390  0.25000  1
