CIF file written using JARVIS-Tools package.
data_ThMn4Cu3O12
_symmetry_space_group_name_H-M  'Im-3'
_cell_length_a       6.38083
_cell_length_b       6.38088
_cell_length_c       6.38083
_cell_angle_alpha    109.472
_cell_angle_beta     109.47
_cell_angle_gamma    109.472

_symmetry_Int_Tables_number  204
_chemical_formula_structural  ThMn4Cu3O12
_chemical_formula_sum  ThMn4Cu3O2
_cell_volume  199.99141599686953
_cell_formula_units_Z  1
loop_
  _symmetry_equiv_pos_site_id
 _symmetry_equiv_pos_as_xyz
 1  'x, y, z'
loop_
 _atom_site_type_symbol
 _atom_site_label
 _atom_site_symmetry_multiplicity
 _atom_site_fract_x
 _atom_site_fract_y
 _atom_site_fract_z
 _atom_site_fract_occupancy
 Cu  Cu1  1  0.50000  0.00000  0.50000  1
 Cu  Cu2  1  0.50000  0.50000  0.00000  1
 Cu  Cu3  1  -0.00000  0.50000  0.50000  1
 Mn  Mn1  1  -0.00000  -0.00000  0.50000  1
 Mn  Mn2  1  0.50000  0.00000  0.00000  1
 Mn  Mn3  1  0.50000  0.50000  0.50000  1
 Mn  Mn4  1  -0.00000  0.50000  -0.00000  1
 O  O1  1  0.88070  0.17807  0.70263  1
 O  O2  1  0.29738  0.11932  0.82194  1
 O  O3  1  0.11930  0.82193  0.29737  1
 O  O4  1  0.82195  0.70264  0.52459  1
 O  O5  1  0.17805  0.29736  0.47541  1
 O  O6  1  0.70262  0.52456  0.82194  1
 O  O7  1  0.82195  0.29736  0.11931  1
 O  O8  1  0.17805  0.70264  0.88069  1
 O  O9  1  0.47543  0.17807  0.29737  1
 O  O10  1  0.29738  0.47543  0.17806  1
 O  O11  1  0.52456  0.82193  0.70263  1
 O  O12  1  0.70262  0.88068  0.17806  1
 Th  Th1  1  -0.00000  -0.00000  -0.00000  1
