CIF file written using JARVIS-Tools package.
data_NaS
_symmetry_space_group_name_H-M  'P6_3/mmc'
_cell_length_a       4.46078
_cell_length_b       4.46078
_cell_length_c       10.1999
_cell_angle_alpha    90
_cell_angle_beta     90
_cell_angle_gamma    120

_symmetry_Int_Tables_number  194
_chemical_formula_structural  NaS
_chemical_formula_sum  Na4S4
_cell_volume  175.7723903570563
_cell_formula_units_Z  4
loop_
  _symmetry_equiv_pos_site_id
 _symmetry_equiv_pos_as_xyz
 1  'x, y, z'
loop_
 _atom_site_type_symbol
 _atom_site_label
 _atom_site_symmetry_multiplicity
 _atom_site_fract_x
 _atom_site_fract_y
 _atom_site_fract_z
 _atom_site_fract_occupancy
 Na  Na1  1  0.00000  0.00000  0.00000  1
 Na  Na2  1  0.00000  0.00000  0.50000  1
 Na  Na3  1  0.33333  0.66667  0.75000  1
 Na  Na4  1  0.66667  0.33333  0.25000  1
 S  S1  1  0.33333  0.66667  0.35715  1
 S  S2  1  0.66667  0.33333  0.85715  1
 S  S3  1  0.66667  0.33333  0.64285  1
 S  S4  1  0.33333  0.66667  0.14285  1
