CIF file written using JARVIS-Tools package.
data_Ge2Sb2Te5
_symmetry_space_group_name_H-M  'P-3m1'
_cell_length_a       4.27783
_cell_length_b       4.27783
_cell_length_c       17.783
_cell_angle_alpha    90
_cell_angle_beta     90
_cell_angle_gamma    120

_symmetry_Int_Tables_number  164
_chemical_formula_structural  Ge2Sb2Te5
_chemical_formula_sum  Ge2Sb2Te5
_cell_volume  281.827675023454
_cell_formula_units_Z  1
loop_
  _symmetry_equiv_pos_site_id
 _symmetry_equiv_pos_as_xyz
 1  'x, y, z'
loop_
 _atom_site_type_symbol
 _atom_site_label
 _atom_site_symmetry_multiplicity
 _atom_site_fract_x
 _atom_site_fract_y
 _atom_site_fract_z
 _atom_site_fract_occupancy
 Ge  Ge1  1  0.00000  0.00000  0.66178  1
 Ge  Ge2  1  0.00000  0.00000  0.33822  1
 Sb  Sb1  1  0.66667  0.33333  0.88593  1
 Sb  Sb2  1  0.33333  0.66667  0.11407  1
 Te  Te1  1  0.00000  0.00000  0.00000  1
 Te  Te2  1  0.66667  0.33333  0.21260  1
 Te  Te3  1  0.33333  0.66667  0.78740  1
 Te  Te4  1  0.66667  0.33333  0.58202  1
 Te  Te5  1  0.33333  0.66667  0.41798  1
