CIF file written using JARVIS-Tools package.
data_CeAl3Pd2
_symmetry_space_group_name_H-M  'P6/mmm'
_cell_length_a       4.23862
_cell_length_b       5.44499
_cell_length_c       5.44536
_cell_angle_alpha    120.001
_cell_angle_beta     90
_cell_angle_gamma    90

_symmetry_Int_Tables_number  191
_chemical_formula_structural  CeAl3Pd2
_chemical_formula_sum  CeAl3Pd2
_cell_volume  108.83681860651186
_cell_formula_units_Z  1
loop_
  _symmetry_equiv_pos_site_id
 _symmetry_equiv_pos_as_xyz
 1  'x, y, z'
loop_
 _atom_site_type_symbol
 _atom_site_label
 _atom_site_symmetry_multiplicity
 _atom_site_fract_x
 _atom_site_fract_y
 _atom_site_fract_z
 _atom_site_fract_occupancy
 Al  Al1  1  0.50000  0.50000  0.00000  1
 Al  Al2  1  0.50000  0.49999  0.50001  1
 Al  Al3  1  0.50000  0.99998  0.49999  1
 Ce  Ce1  1  0.00000  0.99998  -0.00000  1
 Pd  Pd1  1  0.00000  0.33331  0.66668  1
 Pd  Pd2  1  0.00000  0.66663  0.33332  1
