CIF file written using JARVIS-Tools package.
data_Li2VO2F
_symmetry_space_group_name_H-M  'P-3m1'
_cell_length_a       2.81015
_cell_length_b       2.81015
_cell_length_c       14.5601
_cell_angle_alpha    90
_cell_angle_beta     90
_cell_angle_gamma    120

_symmetry_Int_Tables_number  164
_chemical_formula_structural  Li2VO2F
_chemical_formula_sum  Li4V2O4F2
_cell_volume  99.57550942002337
_cell_formula_units_Z  2
loop_
  _symmetry_equiv_pos_site_id
 _symmetry_equiv_pos_as_xyz
 1  'x, y, z'
loop_
 _atom_site_type_symbol
 _atom_site_label
 _atom_site_symmetry_multiplicity
 _atom_site_fract_x
 _atom_site_fract_y
 _atom_site_fract_z
 _atom_site_fract_occupancy
 F  F1  1  0.33333  0.66667  0.92027  1
 F  F2  1  0.66667  0.33333  0.07973  1
 Li  Li1  1  0.33333  0.66667  0.15910  1
 Li  Li2  1  0.00000  0.00000  0.50000  1
 Li  Li3  1  0.00000  0.00000  0.00000  1
 Li  Li4  1  0.66667  0.33333  0.84090  1
 O  O1  1  0.33333  0.66667  0.41190  1
 O  O2  1  0.00000  0.00000  0.24779  1
 O  O3  1  0.00000  0.00000  0.75221  1
 O  O4  1  0.66667  0.33333  0.58810  1
 V  V1  1  0.33333  0.66667  0.67015  1
 V  V2  1  0.66667  0.33333  0.32985  1
