CIF file written using JARVIS-Tools package.
data_MgZnCu
_symmetry_space_group_name_H-M  'Imma'
_cell_length_a       5.03655
_cell_length_b       5.03655
_cell_length_c       5.03655
_cell_angle_alpha    119.937
_cell_angle_beta     119.371
_cell_angle_gamma    90.6002

_symmetry_Int_Tables_number  74
_chemical_formula_structural  MgZnCu
_chemical_formula_sum  Mg2Zn2Cu2
_cell_volume  90.80453536100339
_cell_formula_units_Z  2
loop_
  _symmetry_equiv_pos_site_id
 _symmetry_equiv_pos_as_xyz
 1  'x, y, z'
loop_
 _atom_site_type_symbol
 _atom_site_label
 _atom_site_symmetry_multiplicity
 _atom_site_fract_x
 _atom_site_fract_y
 _atom_site_fract_z
 _atom_site_fract_occupancy
 Cu  Cu1  1  0.50000  0.50000  -0.00000  1
 Cu  Cu2  1  0.00000  0.50000  0.50000  1
 Mg  Mg1  1  0.12192  0.87192  0.25000  1
 Mg  Mg2  1  0.87808  0.12808  0.75000  1
 Zn  Zn1  1  0.50000  0.50000  0.50000  1
 Zn  Zn2  1  0.50000  0.00000  -0.00000  1
