CIF file written using JARVIS-Tools package.
data_KClO4
_symmetry_space_group_name_H-M  'F-43m'
_cell_length_a       5.25867
_cell_length_b       5.25871
_cell_length_c       5.25867
_cell_angle_alpha    60.0003
_cell_angle_beta     60
_cell_angle_gamma    60.0003

_symmetry_Int_Tables_number  216
_chemical_formula_structural  KClO4
_chemical_formula_sum  KClO4
_cell_volume  102.82968693419218
_cell_formula_units_Z  1
loop_
  _symmetry_equiv_pos_site_id
 _symmetry_equiv_pos_as_xyz
 1  'x, y, z'
loop_
 _atom_site_type_symbol
 _atom_site_label
 _atom_site_symmetry_multiplicity
 _atom_site_fract_x
 _atom_site_fract_y
 _atom_site_fract_z
 _atom_site_fract_occupancy
 Cl  Cl1  1  -0.00000  0.00000  -0.00000  1
 K  K1  1  0.50000  0.49999  0.50000  1
 O  O1  1  0.66033  0.11322  0.11322  1
 O  O2  1  0.11322  0.11322  0.66033  1
 O  O3  1  0.11322  0.11322  0.11322  1
 O  O4  1  0.11322  0.66034  0.11322  1
