CIF file written using JARVIS-Tools package.
data_Cu3P
_symmetry_space_group_name_H-M  'P-3m1'
_cell_length_a       4.06651
_cell_length_b       4.06651
_cell_length_c       7.41853
_cell_angle_alpha    90
_cell_angle_beta     90
_cell_angle_gamma    120

_symmetry_Int_Tables_number  164
_chemical_formula_structural  Cu3P
_chemical_formula_sum  Cu6P2
_cell_volume  106.2408445294008
_cell_formula_units_Z  2
loop_
  _symmetry_equiv_pos_site_id
 _symmetry_equiv_pos_as_xyz
 1  'x, y, z'
loop_
 _atom_site_type_symbol
 _atom_site_label
 _atom_site_symmetry_multiplicity
 _atom_site_fract_x
 _atom_site_fract_y
 _atom_site_fract_z
 _atom_site_fract_occupancy
 Cu  Cu1  1  0.33333  0.66667  0.37159  1
 Cu  Cu2  1  0.66667  0.33333  0.62841  1
 Cu  Cu3  1  0.33333  0.66667  0.01642  1
 Cu  Cu4  1  0.66667  0.33333  0.98358  1
 Cu  Cu5  1  0.00000  0.00000  0.18045  1
 Cu  Cu6  1  0.00000  0.00000  0.81955  1
 P  P1  1  0.66667  0.33333  0.30036  1
 P  P2  1  0.33333  0.66667  0.69964  1
