CIF file written using JARVIS-Tools package.
data_Mg6NiSn
_symmetry_space_group_name_H-M  'Amm2'
_cell_length_a       6.38223
_cell_length_b       6.38224
_cell_length_c       4.80775
_cell_angle_alpha    90
_cell_angle_beta     90
_cell_angle_gamma    122.293

_symmetry_Int_Tables_number  38
_chemical_formula_structural  Mg6NiSn
_chemical_formula_sum  Mg6NiSn
_cell_volume  165.54252402382977
_cell_formula_units_Z  1
loop_
  _symmetry_equiv_pos_site_id
 _symmetry_equiv_pos_as_xyz
 1  'x, y, z'
loop_
 _atom_site_type_symbol
 _atom_site_label
 _atom_site_symmetry_multiplicity
 _atom_site_fract_x
 _atom_site_fract_y
 _atom_site_fract_z
 _atom_site_fract_occupancy
 Mg  Mg1  1  0.16934  0.81708  0.25000  1
 Mg  Mg2  1  0.68292  0.33066  0.25000  1
 Mg  Mg3  1  0.67044  0.82956  0.25000  1
 Mg  Mg4  1  0.32940  0.63990  0.75000  1
 Mg  Mg5  1  0.86010  0.17060  0.75000  1
 Mg  Mg6  1  0.83267  0.66733  0.75000  1
 Ni  Ni1  1  0.12194  0.37806  0.25000  1
 Sn  Sn1  1  0.33319  0.16681  0.75000  1
