CIF file written using JARVIS-Tools package.
data_YP2Ru2
_symmetry_space_group_name_H-M  'I4/mmm'
_cell_length_a       4.06194
_cell_length_b       4.06194
_cell_length_c       5.60337
_cell_angle_alpha    111.251
_cell_angle_beta     111.251
_cell_angle_gamma    90

_symmetry_Int_Tables_number  139
_chemical_formula_structural  YP2Ru2
_chemical_formula_sum  YP2Ru2
_cell_volume  79.38224518961371
_cell_formula_units_Z  1
loop_
  _symmetry_equiv_pos_site_id
 _symmetry_equiv_pos_as_xyz
 1  'x, y, z'
loop_
 _atom_site_type_symbol
 _atom_site_label
 _atom_site_symmetry_multiplicity
 _atom_site_fract_x
 _atom_site_fract_y
 _atom_site_fract_z
 _atom_site_fract_occupancy
 P  P1  1  0.37474  0.37474  0.74947  1
 P  P2  1  0.62526  0.62526  0.25053  1
 Ru  Ru1  1  0.75000  0.25000  0.50000  1
 Ru  Ru2  1  0.25000  0.75000  0.50000  1
 Y  Y1  1  0.00000  0.00000  0.00000  1
