CIF file written using JARVIS-Tools package.
data_Zr2Si
_symmetry_space_group_name_H-M  'I4/mcm'
_cell_length_a       5.34334
_cell_length_b       5.39514
_cell_length_c       5.39515
_cell_angle_alpha    75.8051
_cell_angle_beta     60.3171
_cell_angle_gamma    60.3171

_symmetry_Int_Tables_number  140
_chemical_formula_structural  Zr2Si
_chemical_formula_sum  Zr4Si2
_cell_volume  117.39191187715281
_cell_formula_units_Z  2
loop_
  _symmetry_equiv_pos_site_id
 _symmetry_equiv_pos_as_xyz
 1  'x, y, z'
loop_
 _atom_site_type_symbol
 _atom_site_label
 _atom_site_symmetry_multiplicity
 _atom_site_fract_x
 _atom_site_fract_y
 _atom_site_fract_z
 _atom_site_fract_occupancy
 Si  Si1  1  0.25000  0.00000  -0.00000  1
 Si  Si2  1  0.75000  0.00000  -0.00000  1
 Zr  Zr1  1  0.15741  0.50000  0.18519  1
 Zr  Zr2  1  0.34259  0.81481  0.50000  1
 Zr  Zr3  1  0.65741  0.18519  0.50000  1
 Zr  Zr4  1  0.84259  0.50000  0.81481  1
