CIF file written using JARVIS-Tools package.
data_K2PdS2
_symmetry_space_group_name_H-M  'Immm'
_cell_length_a       3.63932
_cell_length_b       6.13641
_cell_length_c       6.13641
_cell_angle_alpha    70.5812
_cell_angle_beta     72.7504
_cell_angle_gamma    72.7504

_symmetry_Int_Tables_number  71
_chemical_formula_structural  K2PdS2
_chemical_formula_sum  K2PdS2
_cell_volume  120.4140107517909
_cell_formula_units_Z  1
loop_
  _symmetry_equiv_pos_site_id
 _symmetry_equiv_pos_as_xyz
 1  'x, y, z'
loop_
 _atom_site_type_symbol
 _atom_site_label
 _atom_site_symmetry_multiplicity
 _atom_site_fract_x
 _atom_site_fract_y
 _atom_site_fract_z
 _atom_site_fract_occupancy
 K  K1  1  0.19231  0.30769  0.30769  1
 K  K2  1  0.80769  0.69231  0.69231  1
 Pd  Pd1  1  0.00000  0.00000  0.00000  1
 S  S1  1  0.50000  0.22005  0.77995  1
 S  S2  1  0.50000  0.77995  0.22005  1
