CIF file written using JARVIS-Tools package.
data_LiZnPS4
_symmetry_space_group_name_H-M  'I-4'
_cell_length_a       5.71558
_cell_length_b       5.71557
_cell_length_c       6.07985
_cell_angle_alpha    118.037
_cell_angle_beta     118.037
_cell_angle_gamma    90

_symmetry_Int_Tables_number  82
_chemical_formula_structural  LiZnPS4
_chemical_formula_sum  LiZnPS4
_cell_volume  148.3808025136132
_cell_formula_units_Z  1
loop_
  _symmetry_equiv_pos_site_id
 _symmetry_equiv_pos_as_xyz
 1  'x, y, z'
loop_
 _atom_site_type_symbol
 _atom_site_label
 _atom_site_symmetry_multiplicity
 _atom_site_fract_x
 _atom_site_fract_y
 _atom_site_fract_z
 _atom_site_fract_occupancy
 Li  Li1  1  0.50000  0.50000  0.00000  1
 P  P1  1  0.25000  0.75000  0.50000  1
 S  S1  1  0.91870  0.41102  0.27224  1
 S  S2  1  0.58898  0.64645  0.72776  1
 S  S3  1  0.13877  0.08130  0.72776  1
 S  S4  1  0.35355  0.86123  0.27224  1
 Zn  Zn1  1  0.00000  0.00000  0.00000  1
