CIF file written using JARVIS-Tools package.
data_Na2NiO2
_symmetry_space_group_name_H-M  'I4/mmm'
_cell_length_a       4.43366
_cell_length_b       4.43366
_cell_length_c       5.7798
_cell_angle_alpha    67.4464
_cell_angle_beta     67.4464
_cell_angle_gamma    90

_symmetry_Int_Tables_number  139
_chemical_formula_structural  Na2NiO2
_chemical_formula_sum  Na2NiO2
_cell_volume  95.44945264042693
_cell_formula_units_Z  1
loop_
  _symmetry_equiv_pos_site_id
 _symmetry_equiv_pos_as_xyz
 1  'x, y, z'
loop_
 _atom_site_type_symbol
 _atom_site_label
 _atom_site_symmetry_multiplicity
 _atom_site_fract_x
 _atom_site_fract_y
 _atom_site_fract_z
 _atom_site_fract_occupancy
 Na  Na1  1  0.75000  0.25000  0.50000  1
 Na  Na2  1  0.25000  0.75000  0.50000  1
 Ni  Ni1  1  0.50000  0.50000  0.00000  1
 O  O1  1  0.32451  0.32451  0.35099  1
 O  O2  1  0.67549  0.67549  0.64901  1
