CIF file written using JARVIS-Tools package.
data_Li2CeSb2
_symmetry_space_group_name_H-M  'P4/nmm'
_cell_length_a       4.61594
_cell_length_b       4.61594
_cell_length_c       10.8953
_cell_angle_alpha    90
_cell_angle_beta     90
_cell_angle_gamma    90

_symmetry_Int_Tables_number  129
_chemical_formula_structural  Li2CeSb2
_chemical_formula_sum  Li4Ce2Sb4
_cell_volume  232.14439771802745
_cell_formula_units_Z  2
loop_
  _symmetry_equiv_pos_site_id
 _symmetry_equiv_pos_as_xyz
 1  'x, y, z'
loop_
 _atom_site_type_symbol
 _atom_site_label
 _atom_site_symmetry_multiplicity
 _atom_site_fract_x
 _atom_site_fract_y
 _atom_site_fract_z
 _atom_site_fract_occupancy
 Ce  Ce1  1  0.50000  0.00000  0.73204  1
 Ce  Ce2  1  0.00000  0.50000  0.26796  1
 Li  Li1  1  0.50000  0.00000  0.37838  1
 Li  Li2  1  0.00000  0.50000  0.62162  1
 Li  Li3  1  0.50000  0.50000  0.00000  1
 Li  Li4  1  0.00000  0.00000  0.00000  1
 Sb  Sb1  1  0.00000  0.50000  0.85399  1
 Sb  Sb2  1  0.50000  0.00000  0.14601  1
 Sb  Sb3  1  0.50000  0.50000  0.50000  1
 Sb  Sb4  1  0.00000  0.00000  0.50000  1
