CIF file written using JARVIS-Tools package.
data_MnBe2Cl
_symmetry_space_group_name_H-M  'P4mm'
_cell_length_a       2.86771
_cell_length_b       2.86771
_cell_length_c       7.25138
_cell_angle_alpha    90
_cell_angle_beta     90
_cell_angle_gamma    90

_symmetry_Int_Tables_number  99
_chemical_formula_structural  MnBe2Cl
_chemical_formula_sum  MnBe2Cl
_cell_volume  59.6337647798208
_cell_formula_units_Z  1
loop_
  _symmetry_equiv_pos_site_id
 _symmetry_equiv_pos_as_xyz
 1  'x, y, z'
loop_
 _atom_site_type_symbol
 _atom_site_label
 _atom_site_symmetry_multiplicity
 _atom_site_fract_x
 _atom_site_fract_y
 _atom_site_fract_z
 _atom_site_fract_occupancy
 Be  Be1  1  0.00000  0.00000  0.01016  1
 Be  Be2  1  0.50000  0.50000  0.13393  1
 Cl  Cl1  1  0.00000  0.00000  0.57155  1
 Mn  Mn1  1  0.50000  0.50000  0.78436  1
