CIF file written using JARVIS-Tools package.
data_LiCo2OF3
_symmetry_space_group_name_H-M  'P-3m1'
_cell_length_a       5.84462
_cell_length_b       5.84459
_cell_length_c       5.19477
_cell_angle_alpha    90.0011
_cell_angle_beta     90
_cell_angle_gamma    59.9999

_symmetry_Int_Tables_number  164
_chemical_formula_structural  LiCo2OF3
_chemical_formula_sum  Li2Co4O2F6
_cell_volume  153.67602674675746
_cell_formula_units_Z  2
loop_
  _symmetry_equiv_pos_site_id
 _symmetry_equiv_pos_as_xyz
 1  'x, y, z'
loop_
 _atom_site_type_symbol
 _atom_site_label
 _atom_site_symmetry_multiplicity
 _atom_site_fract_x
 _atom_site_fract_y
 _atom_site_fract_z
 _atom_site_fract_occupancy
 Co  Co1  1  0.50000  0.50000  0.50000  1
 Co  Co2  1  -0.00000  0.50000  0.50000  1
 Co  Co3  1  0.50000  0.00000  0.50000  1
 Co  Co4  1  0.00000  0.00000  0.00000  1
 F  F1  1  0.82821  0.82819  0.21798  1
 F  F2  1  0.34359  0.82819  0.21798  1
 F  F3  1  0.17179  0.65642  0.78200  1
 F  F4  1  0.82821  0.34358  0.21800  1
 F  F5  1  0.65641  0.17181  0.78202  1
 F  F6  1  0.17179  0.17181  0.78202  1
 Li  Li1  1  0.66668  0.66665  0.02803  1
 Li  Li2  1  0.33332  0.33335  0.97197  1
 O  O1  1  0.66666  0.66667  0.67282  1
 O  O2  1  0.33334  0.33333  0.32718  1
