CIF file written using JARVIS-Tools package.
data_KH3Se2O6
_symmetry_space_group_name_H-M  'Pbcn'
_cell_length_a       16.0123
_cell_length_b       6.1769
_cell_length_c       6.31057
_cell_angle_alpha    90
_cell_angle_beta     90
_cell_angle_gamma    90

_symmetry_Int_Tables_number  60
_chemical_formula_structural  KH3Se2O6
_chemical_formula_sum  K4H2Se8O24
_cell_volume  624.1572761077886
_cell_formula_units_Z  4
loop_
  _symmetry_equiv_pos_site_id
 _symmetry_equiv_pos_as_xyz
 1  'x, y, z'
loop_
 _atom_site_type_symbol
 _atom_site_label
 _atom_site_symmetry_multiplicity
 _atom_site_fract_x
 _atom_site_fract_y
 _atom_site_fract_z
 _atom_site_fract_occupancy
 H  H1  1  0.17443  0.56247  0.96594  1
 H  H2  1  0.32557  0.93753  0.46594  1
 H  H3  1  0.67443  0.93753  0.03406  1
 H  H4  1  0.82557  0.56247  0.53406  1
 H  H5  1  0.50000  0.38242  0.75000  1
 H  H6  1  0.00000  0.11758  0.25000  1
 H  H7  1  0.50000  0.61758  0.25000  1
 H  H8  1  0.00000  0.88242  0.75000  1
 H  H9  1  0.17443  0.43753  0.46594  1
 H  H10  1  0.32557  0.06247  0.96594  1
 H  H11  1  0.67443  0.06247  0.53406  1
 H  H12  1  0.82557  0.43753  0.03406  1
 K  K1  1  0.50000  0.81772  0.75000  1
 K  K2  1  0.50000  0.18228  0.25000  1
 K  K3  1  0.00000  0.68228  0.25000  1
 K  K4  1  0.00000  0.31772  0.75000  1
 O  O1  1  0.93545  0.10725  0.14633  1
 O  O2  1  0.93545  0.89275  0.64633  1
 O  O3  1  0.43545  0.60725  0.35367  1
 O  O4  1  0.06455  0.89275  0.85367  1
 O  O5  1  0.11193  0.39212  0.06410  1
 O  O6  1  0.38807  0.10788  0.56410  1
 O  O7  1  0.88807  0.39212  0.43590  1
 O  O8  1  0.88807  0.60788  0.93590  1
 O  O9  1  0.61193  0.89212  0.43590  1
 O  O10  1  0.38807  0.89212  0.06410  1
 O  O11  1  0.11193  0.60788  0.56410  1
 O  O12  1  0.28924  0.18486  0.90390  1
 O  O13  1  0.56455  0.39275  0.64633  1
 O  O14  1  0.61193  0.10788  0.93590  1
 O  O15  1  0.43545  0.39275  0.85367  1
 O  O16  1  0.21076  0.31514  0.40390  1
 O  O17  1  0.21076  0.68486  0.90390  1
 O  O18  1  0.28924  0.81514  0.40390  1
 O  O19  1  0.71076  0.81514  0.09610  1
 O  O20  1  0.78924  0.68486  0.59610  1
 O  O21  1  0.78924  0.31514  0.09610  1
 O  O22  1  0.71076  0.18486  0.59610  1
 O  O23  1  0.56455  0.60725  0.14633  1
 O  O24  1  0.06455  0.10725  0.35367  1
 Se  Se1  1  0.15178  0.81911  0.70123  1
 Se  Se2  1  0.34822  0.68089  0.20123  1
 Se  Se3  1  0.65178  0.68089  0.29877  1
 Se  Se4  1  0.15178  0.18089  0.20123  1
 Se  Se5  1  0.84822  0.18089  0.29877  1
 Se  Se6  1  0.65178  0.31911  0.79877  1
 Se  Se7  1  0.34822  0.31911  0.70123  1
 Se  Se8  1  0.84822  0.81911  0.79877  1
