CIF file written using JARVIS-Tools package.
data_BaSi3Pd
_symmetry_space_group_name_H-M  'I4mm'
_cell_length_a       4.47038
_cell_length_b       4.47038
_cell_length_c       6.02973
_cell_angle_alpha    111.758
_cell_angle_beta     111.758
_cell_angle_gamma    90

_symmetry_Int_Tables_number  107
_chemical_formula_structural  BaSi3Pd
_chemical_formula_sum  BaSi3Pd
_cell_volume  102.61435922432051
_cell_formula_units_Z  1
loop_
  _symmetry_equiv_pos_site_id
 _symmetry_equiv_pos_as_xyz
 1  'x, y, z'
loop_
 _atom_site_type_symbol
 _atom_site_label
 _atom_site_symmetry_multiplicity
 _atom_site_fract_x
 _atom_site_fract_y
 _atom_site_fract_z
 _atom_site_fract_occupancy
 Ba  Ba1  1  0.61527  0.61527  0.23055  1
 Pd  Pd1  1  0.26112  0.26112  0.52225  1
 Si  Si1  1  0.00269  0.00269  0.00537  1
 Si  Si2  1  0.86881  0.36881  0.73762  1
 Si  Si3  1  0.36881  0.86881  0.73762  1
