CIF file written using JARVIS-Tools package.
data_Na2NiH8S2O12
_symmetry_space_group_name_H-M  'P2_1/c'
_cell_length_a       5.46574
_cell_length_b       8.09713
_cell_length_c       11.0063
_cell_angle_alpha    90
_cell_angle_beta     99.6752
_cell_angle_gamma    90

_symmetry_Int_Tables_number  14
_chemical_formula_structural  Na2NiH8S2O12
_chemical_formula_sum  Na4Ni2H6S4O24
_cell_volume  480.17568916428576
_cell_formula_units_Z  2
loop_
  _symmetry_equiv_pos_site_id
 _symmetry_equiv_pos_as_xyz
 1  'x, y, z'
loop_
 _atom_site_type_symbol
 _atom_site_label
 _atom_site_symmetry_multiplicity
 _atom_site_fract_x
 _atom_site_fract_y
 _atom_site_fract_z
 _atom_site_fract_occupancy
 H  H1  1  0.23577  0.77810  0.51081  1
 H  H2  1  0.23577  0.72190  0.01081  1
 H  H3  1  0.76423  0.22190  0.48919  1
 H  H4  1  0.21536  0.64057  0.34229  1
 H  H5  1  0.76423  0.27810  0.98919  1
 H  H6  1  0.32584  0.80751  0.13754  1
 H  H7  1  0.76933  0.55674  0.67998  1
 H  H8  1  0.76933  0.94326  0.17998  1
 H  H9  1  0.23067  0.44326  0.32002  1
 H  H10  1  0.21536  0.85943  0.84229  1
 H  H11  1  0.78464  0.35943  0.65771  1
 H  H12  1  0.78464  0.14057  0.15771  1
 H  H13  1  0.67416  0.19249  0.86246  1
 H  H14  1  0.32584  0.69249  0.63754  1
 H  H15  1  0.23067  0.05674  0.82002  1
 H  H16  1  0.67416  0.30751  0.36246  1
 Na  Na1  1  0.87895  0.92432  0.63650  1
 Na  Na2  1  0.87895  0.57568  0.13650  1
 Na  Na3  1  0.12105  0.07568  0.36350  1
 Na  Na4  1  0.12105  0.42432  0.86350  1
 Ni  Ni1  1  0.00000  0.00000  0.00000  1
 Ni  Ni2  1  -0.00000  0.50000  0.50000  1
 O  O1  1  0.32656  0.37498  0.57222  1
 O  O2  1  0.17322  0.78532  0.07673  1
 O  O3  1  0.82678  0.28532  0.42327  1
 O  O4  1  0.82678  0.21468  0.92327  1
 O  O5  1  0.17322  0.71468  0.57673  1
 O  O6  1  0.11747  0.53562  0.33493  1
 O  O7  1  0.11747  0.96438  0.83493  1
 O  O8  1  0.88253  0.46438  0.66507  1
 O  O9  1  0.35387  0.82753  0.37026  1
 O  O10  1  0.32656  0.12502  0.07222  1
 O  O11  1  0.64613  0.17247  0.62974  1
 O  O12  1  0.88253  0.03562  0.16507  1
 O  O13  1  0.67344  0.87498  0.92778  1
 O  O14  1  0.64613  0.32753  0.12974  1
 O  O15  1  0.21429  0.41632  0.07937  1
 O  O16  1  0.21429  0.08368  0.57937  1
 O  O17  1  0.78571  0.58368  0.92063  1
 O  O18  1  0.63794  0.76963  0.22958  1
 O  O19  1  0.36206  0.26963  0.27042  1
 O  O20  1  0.36206  0.23037  0.77042  1
 O  O21  1  0.63794  0.73037  0.72958  1
 O  O22  1  0.35387  0.67247  0.87026  1
 O  O23  1  0.67344  0.62502  0.42778  1
 O  O24  1  0.78571  0.91632  0.42063  1
 S  S1  1  0.61919  0.78562  0.36361  1
 S  S2  1  0.38081  0.21438  0.63639  1
 S  S3  1  0.61919  0.71438  0.86361  1
 S  S4  1  0.38081  0.28562  0.13639  1
