CIF file written using JARVIS-Tools package.
data_Mg6TiSb
_symmetry_space_group_name_H-M  'Amm2'
_cell_length_a       6.2575
_cell_length_b       6.2575
_cell_length_c       5.06961
_cell_angle_alpha    90
_cell_angle_beta     90
_cell_angle_gamma    118.629

_symmetry_Int_Tables_number  38
_chemical_formula_structural  Mg6TiSb
_chemical_formula_sum  Mg6TiSb
_cell_volume  174.23728024457458
_cell_formula_units_Z  1
loop_
  _symmetry_equiv_pos_site_id
 _symmetry_equiv_pos_as_xyz
 1  'x, y, z'
loop_
 _atom_site_type_symbol
 _atom_site_label
 _atom_site_symmetry_multiplicity
 _atom_site_fract_x
 _atom_site_fract_y
 _atom_site_fract_z
 _atom_site_fract_occupancy
 Mg  Mg1  1  0.16221  0.82066  0.25000  1
 Mg  Mg2  1  0.67934  0.33779  0.25000  1
 Mg  Mg3  1  0.66498  0.83502  0.25000  1
 Mg  Mg4  1  0.33049  0.66347  0.75000  1
 Mg  Mg5  1  0.83653  0.16951  0.75000  1
 Mg  Mg6  1  0.83123  0.66877  0.75000  1
 Sb  Sb1  1  0.32438  0.17562  0.75000  1
 Ti  Ti1  1  0.17084  0.32916  0.25000  1
