CIF file written using JARVIS-Tools package.
data_SnPPt5
_symmetry_space_group_name_H-M  'P4/mmm'
_cell_length_a       3.9934
_cell_length_b       3.9934
_cell_length_c       7.20855
_cell_angle_alpha    90
_cell_angle_beta     90
_cell_angle_gamma    90

_symmetry_Int_Tables_number  123
_chemical_formula_structural  SnPPt5
_chemical_formula_sum  SnPPt5
_cell_volume  114.95622052061138
_cell_formula_units_Z  1
loop_
  _symmetry_equiv_pos_site_id
 _symmetry_equiv_pos_as_xyz
 1  'x, y, z'
loop_
 _atom_site_type_symbol
 _atom_site_label
 _atom_site_symmetry_multiplicity
 _atom_site_fract_x
 _atom_site_fract_y
 _atom_site_fract_z
 _atom_site_fract_occupancy
 P  P1  1  0.50000  0.50000  0.50000  1
 Pt  Pt1  1  0.50000  0.50000  0.00000  1
 Pt  Pt2  1  0.50000  0.00000  0.70011  1
 Pt  Pt3  1  0.00000  0.50000  0.70011  1
 Pt  Pt4  1  0.50000  0.00000  0.29989  1
 Pt  Pt5  1  0.00000  0.50000  0.29989  1
 Sn  Sn1  1  0.00000  0.00000  0.00000  1
