CIF file written using JARVIS-Tools package.
data_Mg6CrC
_symmetry_space_group_name_H-M  'Amm2'
_cell_length_a       7.07557
_cell_length_b       7.07557
_cell_length_c       3.07188
_cell_angle_alpha    90
_cell_angle_beta     90
_cell_angle_gamma    93.1495

_symmetry_Int_Tables_number  38
_chemical_formula_structural  Mg6CrC
_chemical_formula_sum  Mg6CrC
_cell_volume  153.5576839627423
_cell_formula_units_Z  1
loop_
  _symmetry_equiv_pos_site_id
 _symmetry_equiv_pos_as_xyz
 1  'x, y, z'
loop_
 _atom_site_type_symbol
 _atom_site_label
 _atom_site_symmetry_multiplicity
 _atom_site_fract_x
 _atom_site_fract_y
 _atom_site_fract_z
 _atom_site_fract_occupancy
 C  C1  1  0.26647  0.23353  0.75000  1
 Cr  Cr1  1  0.15958  0.34042  0.25000  1
 Mg  Mg1  1  0.22300  0.96541  0.25000  1
 Mg  Mg2  1  0.53459  0.27700  0.25000  1
 Mg  Mg3  1  0.65691  0.84309  0.25000  1
 Mg  Mg4  1  0.35353  0.61142  0.75000  1
 Mg  Mg5  1  0.88858  0.14647  0.75000  1
 Mg  Mg6  1  0.91733  0.58267  0.75000  1
