CIF file written using JARVIS-Tools package.
data_Fe4O5F3
_symmetry_space_group_name_H-M  'Imm2'
_cell_length_a       5.49873
_cell_length_b       5.49873
_cell_length_c       5.49873
_cell_angle_alpha    69.2559
_cell_angle_beta     101.218
_cell_angle_gamma    63.1754

_symmetry_Int_Tables_number  44
_chemical_formula_structural  Fe4O5F3
_chemical_formula_sum  Fe4O5F3
_cell_volume  125.61940155855488
_cell_formula_units_Z  1
loop_
  _symmetry_equiv_pos_site_id
 _symmetry_equiv_pos_as_xyz
 1  'x, y, z'
loop_
 _atom_site_type_symbol
 _atom_site_label
 _atom_site_symmetry_multiplicity
 _atom_site_fract_x
 _atom_site_fract_y
 _atom_site_fract_z
 _atom_site_fract_occupancy
 F  F1  1  0.04795  0.75000  0.79795  1
 F  F2  1  0.95380  0.25000  0.20380  1
 F  F3  1  0.44034  0.75000  0.19034  1
 Fe  Fe1  1  0.74168  0.75000  0.49168  1
 Fe  Fe2  1  0.28555  0.25000  0.53555  1
 Fe  Fe3  1  0.50314  0.48704  0.99019  1
 Fe  Fe4  1  0.97723  0.01296  0.99019  1
 O  O1  1  0.54901  0.25000  0.79901  1
 O  O2  1  0.49892  0.81030  0.69143  1
 O  O3  1  0.00173  0.30749  0.69143  1
 O  O4  1  0.49892  0.19251  0.30922  1
 O  O5  1  0.00173  0.68970  0.30922  1
