CIF file written using JARVIS-Tools package.
data_SiHg3S2F6
_symmetry_space_group_name_H-M  'P-3m1'
_cell_length_a       7.36925
_cell_length_b       7.36924
_cell_length_c       4.56612
_cell_angle_alpha    90
_cell_angle_beta     90
_cell_angle_gamma    120

_symmetry_Int_Tables_number  164
_chemical_formula_structural  SiHg3S2F6
_chemical_formula_sum  SiHg3S2F6
_cell_volume  214.7455145914859
_cell_formula_units_Z  1
loop_
  _symmetry_equiv_pos_site_id
 _symmetry_equiv_pos_as_xyz
 1  'x, y, z'
loop_
 _atom_site_type_symbol
 _atom_site_label
 _atom_site_symmetry_multiplicity
 _atom_site_fract_x
 _atom_site_fract_y
 _atom_site_fract_z
 _atom_site_fract_occupancy
 F  F1  1  0.11084  0.88916  0.28574  1
 F  F2  1  0.88916  0.11084  0.71426  1
 F  F3  1  0.11084  0.22168  0.28574  1
 F  F4  1  0.88916  0.77832  0.71426  1
 F  F5  1  0.22168  0.11084  0.71426  1
 F  F6  1  0.77832  0.88916  0.28574  1
 Hg  Hg1  1  0.50000  0.00000  0.00000  1
 Hg  Hg2  1  -0.00000  0.50000  0.00000  1
 Hg  Hg3  1  0.50000  0.50000  0.00000  1
 S  S1  1  0.33333  0.66667  0.23734  1
 S  S2  1  0.66667  0.33333  0.76266  1
 Si  Si1  1  0.00000  0.00000  0.50000  1
