CIF file written using JARVIS-Tools package.
data_Ho2Ni12P7
_symmetry_space_group_name_H-M  'P-6'
_cell_length_a       9.07225
_cell_length_b       9.07225
_cell_length_c       3.69768
_cell_angle_alpha    90
_cell_angle_beta     90
_cell_angle_gamma    120

_symmetry_Int_Tables_number  174
_chemical_formula_structural  Ho2Ni12P7
_chemical_formula_sum  Ho2Ni2P7
_cell_volume  263.5662018064799
_cell_formula_units_Z  1
loop_
  _symmetry_equiv_pos_site_id
 _symmetry_equiv_pos_as_xyz
 1  'x, y, z'
loop_
 _atom_site_type_symbol
 _atom_site_label
 _atom_site_symmetry_multiplicity
 _atom_site_fract_x
 _atom_site_fract_y
 _atom_site_fract_z
 _atom_site_fract_occupancy
 Ho  Ho1  1  0.33333  0.66667  0.00000  1
 Ho  Ho2  1  0.66667  0.33333  0.50000  1
 Ni  Ni1  1  0.95043  0.38202  0.00000  1
 Ni  Ni2  1  0.61798  0.56840  0.00000  1
 Ni  Ni3  1  0.84707  0.72504  0.50000  1
 Ni  Ni4  1  0.12228  0.21561  0.00000  1
 Ni  Ni5  1  0.09332  0.87772  0.00000  1
 Ni  Ni6  1  0.27496  0.12203  0.50000  1
 Ni  Ni7  1  0.37238  0.43442  0.50000  1
 Ni  Ni8  1  0.56558  0.93796  0.50000  1
 Ni  Ni9  1  0.06204  0.62762  0.50000  1
 Ni  Ni10  1  0.87797  0.15293  0.50000  1
 Ni  Ni11  1  0.43160  0.04957  0.00000  1
 Ni  Ni12  1  0.78439  0.90668  0.00000  1
 P  P1  1  0.70570  0.11112  0.00000  1
 P  P2  1  0.40543  0.29430  0.00000  1
 P  P3  1  0.88888  0.59457  0.00000  1
 P  P4  1  0.29522  0.88692  0.50000  1
 P  P5  1  0.59170  0.70478  0.50000  1
 P  P6  1  0.11308  0.40830  0.50000  1
 P  P7  1  0.00000  0.00000  0.50000  1
