CIF file written using JARVIS-Tools package.
data_MnCo3O8
_symmetry_space_group_name_H-M  'R-3m'
_cell_length_a       5.67
_cell_length_b       5.67
_cell_length_c       5.47968
_cell_angle_alpha    58.8442
_cell_angle_beta     58.8443
_cell_angle_gamma    60

_symmetry_Int_Tables_number  166
_chemical_formula_structural  MnCo3O8
_chemical_formula_sum  MnCo3O8
_cell_volume  122.3473855777641
_cell_formula_units_Z  1
loop_
  _symmetry_equiv_pos_site_id
 _symmetry_equiv_pos_as_xyz
 1  'x, y, z'
loop_
 _atom_site_type_symbol
 _atom_site_label
 _atom_site_symmetry_multiplicity
 _atom_site_fract_x
 _atom_site_fract_y
 _atom_site_fract_z
 _atom_site_fract_occupancy
 Co  Co1  1  0.50000  -0.00000  -0.00000  1
 Co  Co2  1  0.00000  0.50000  -0.00000  1
 Co  Co3  1  0.50000  0.50000  -0.00000  1
 Mn  Mn1  1  0.00000  0.00000  0.00000  1
 O  O1  1  0.23945  0.23945  0.78533  1
 O  O2  1  0.73577  0.23945  0.78533  1
 O  O3  1  0.23945  0.73577  0.78533  1
 O  O4  1  0.73624  0.73624  0.79129  1
 O  O5  1  0.26376  0.26376  0.20871  1
 O  O6  1  0.76055  0.26423  0.21467  1
 O  O7  1  0.26423  0.76055  0.21467  1
 O  O8  1  0.76055  0.76055  0.21467  1
