CIF file written using JARVIS-Tools package.
data_Mg6NbC
_symmetry_space_group_name_H-M  'Amm2'
_cell_length_a       6.20567
_cell_length_b       6.20566
_cell_length_c       4.41844
_cell_angle_alpha    90
_cell_angle_beta     90
_cell_angle_gamma    102.114

_symmetry_Int_Tables_number  38
_chemical_formula_structural  Mg6NbC
_chemical_formula_sum  Mg6NbC
_cell_volume  166.36638662865644
_cell_formula_units_Z  1
loop_
  _symmetry_equiv_pos_site_id
 _symmetry_equiv_pos_as_xyz
 1  'x, y, z'
loop_
 _atom_site_type_symbol
 _atom_site_label
 _atom_site_symmetry_multiplicity
 _atom_site_fract_x
 _atom_site_fract_y
 _atom_site_fract_z
 _atom_site_fract_occupancy
 C  C1  1  0.13983  0.36017  0.75000  1
 Mg  Mg1  1  0.20941  0.90205  0.25000  1
 Mg  Mg2  1  0.59795  0.29059  0.25000  1
 Mg  Mg3  1  0.70119  0.79881  0.25000  1
 Mg  Mg4  1  0.42425  0.61461  0.75000  1
 Mg  Mg5  1  0.88539  0.07575  0.75000  1
 Mg  Mg6  1  0.91361  0.58639  0.75000  1
 Nb  Nb1  1  0.12836  0.37164  0.25000  1
