CIF file written using JARVIS-Tools package.
data_SmSi2
_symmetry_space_group_name_H-M  'I4_1/amd'
_cell_length_a       4.11196
_cell_length_b       4.11196
_cell_length_c       7.78261
_cell_angle_alpha    105.318
_cell_angle_beta     105.318
_cell_angle_gamma    90

_symmetry_Int_Tables_number  141
_chemical_formula_structural  SmSi2
_chemical_formula_sum  Sm2Si4
_cell_volume  122.0614731034455
_cell_formula_units_Z  2
loop_
  _symmetry_equiv_pos_site_id
 _symmetry_equiv_pos_as_xyz
 1  'x, y, z'
loop_
 _atom_site_type_symbol
 _atom_site_label
 _atom_site_symmetry_multiplicity
 _atom_site_fract_x
 _atom_site_fract_y
 _atom_site_fract_z
 _atom_site_fract_occupancy
 Si  Si1  1  0.66690  0.16690  0.33380  1
 Si  Si2  1  0.58310  0.58310  0.16620  1
 Si  Si3  1  0.83310  0.33310  0.66620  1
 Si  Si4  1  0.41690  0.41690  0.83380  1
 Sm  Sm1  1  0.25000  0.75000  0.50000  1
 Sm  Sm2  1  0.00000  0.00000  0.00000  1
