CIF file written using JARVIS-Tools package.
data_CeTiGe
_symmetry_space_group_name_H-M  'I4/mmm'
_cell_length_a       4.0325
_cell_length_b       4.0325
_cell_length_c       8.43827
_cell_angle_alpha    103.824
_cell_angle_beta     103.824
_cell_angle_gamma    90

_symmetry_Int_Tables_number  139
_chemical_formula_structural  CeTiGe
_chemical_formula_sum  Ce2Ti2Ge2
_cell_volume  129.14386533636898
_cell_formula_units_Z  2
loop_
  _symmetry_equiv_pos_site_id
 _symmetry_equiv_pos_as_xyz
 1  'x, y, z'
loop_
 _atom_site_type_symbol
 _atom_site_label
 _atom_site_symmetry_multiplicity
 _atom_site_fract_x
 _atom_site_fract_y
 _atom_site_fract_z
 _atom_site_fract_occupancy
 Ce  Ce1  1  0.67847  0.67847  0.35694  1
 Ce  Ce2  1  0.32153  0.32153  0.64306  1
 Ge  Ge1  1  0.88309  0.88309  0.76618  1
 Ge  Ge2  1  0.11691  0.11691  0.23382  1
 Ti  Ti1  1  0.50000  0.00000  0.00000  1
 Ti  Ti2  1  0.00000  0.50000  0.00000  1
