CIF file written using JARVIS-Tools package.
data_H10C3NClO
_symmetry_space_group_name_H-M  'Pnma'
_cell_length_a       5.24488
_cell_length_b       7.39497
_cell_length_c       14.1309
_cell_angle_alpha    90
_cell_angle_beta     90
_cell_angle_gamma    90

_symmetry_Int_Tables_number  62
_chemical_formula_structural  H10C3NClO
_chemical_formula_sum  H40C2N4Cl4O4
_cell_volume  548.0758311009404
_cell_formula_units_Z  4
loop_
  _symmetry_equiv_pos_site_id
 _symmetry_equiv_pos_as_xyz
 1  'x, y, z'
loop_
 _atom_site_type_symbol
 _atom_site_label
 _atom_site_symmetry_multiplicity
 _atom_site_fract_x
 _atom_site_fract_y
 _atom_site_fract_z
 _atom_site_fract_occupancy
 C  C1  1  0.16018  0.58334  0.14308  1
 C  C2  1  0.16018  0.91666  0.14308  1
 C  C3  1  0.32205  0.25000  0.44098  1
 C  C4  1  0.83982  0.41666  0.85692  1
 C  C5  1  0.66018  0.41666  0.35692  1
 C  C6  1  0.17795  0.25000  0.94098  1
 C  C7  1  0.83982  0.08334  0.85692  1
 C  C8  1  0.66018  0.08334  0.35692  1
 C  C9  1  0.82205  0.75000  0.05902  1
 C  C10  1  0.33982  0.58334  0.64308  1
 C  C11  1  0.33982  0.91666  0.64308  1
 C  C12  1  0.67795  0.75000  0.55902  1
 Cl  Cl1  1  0.85674  0.25000  0.60280  1
 Cl  Cl2  1  0.35674  0.75000  0.89720  1
 Cl  Cl3  1  0.64326  0.25000  0.10280  1
 Cl  Cl4  1  0.14326  0.75000  0.39720  1
 H  H1  1  0.70575  0.62722  0.06338  1
 H  H2  1  0.43994  0.25000  0.50518  1
 H  H3  1  0.21626  0.58891  0.70553  1
 H  H4  1  0.71626  0.08891  0.79447  1
 H  H5  1  0.46736  0.03424  0.64546  1
 H  H6  1  0.79425  0.87278  0.56338  1
 H  H7  1  0.28374  0.58891  0.20553  1
 H  H8  1  0.71626  0.41109  0.79447  1
 H  H9  1  0.53264  0.96576  0.35454  1
 H  H10  1  0.78374  0.08891  0.29447  1
 H  H11  1  0.27380  0.58329  0.07781  1
 H  H12  1  0.77380  0.08329  0.42219  1
 H  H13  1  0.55230  0.75000  0.78171  1
 H  H14  1  0.46736  0.46576  0.64546  1
 H  H15  1  0.27380  0.91671  0.07781  1
 H  H16  1  0.77380  0.41671  0.42219  1
 H  H17  1  0.72620  0.41671  0.92219  1
 H  H18  1  0.03264  0.46576  0.14546  1
 H  H19  1  0.22620  0.91671  0.57781  1
 H  H20  1  0.96736  0.53424  0.85454  1
 H  H21  1  0.96736  0.96576  0.85454  1
 H  H22  1  0.93994  0.75000  0.99482  1
 H  H23  1  0.20575  0.12722  0.43662  1
 H  H24  1  0.53264  0.53424  0.35454  1
 H  H25  1  0.21626  0.91109  0.70553  1
 H  H26  1  0.06006  0.25000  0.00518  1
 H  H27  1  0.78374  0.41109  0.29447  1
 H  H28  1  0.56006  0.75000  0.49482  1
 H  H29  1  0.70575  0.87278  0.06338  1
 H  H30  1  0.94770  0.75000  0.28171  1
 H  H31  1  0.28374  0.91109  0.20553  1
 H  H32  1  0.29425  0.12722  0.93662  1
 H  H33  1  0.79425  0.62722  0.56338  1
 H  H34  1  0.20575  0.37278  0.43662  1
 H  H35  1  0.03264  0.03424  0.14546  1
 H  H36  1  0.29425  0.37278  0.93662  1
 H  H37  1  0.22620  0.58329  0.57781  1
 H  H38  1  0.44770  0.25000  0.21829  1
 H  H39  1  0.05230  0.25000  0.71829  1
 H  H40  1  0.72620  0.08329  0.92219  1
 N  N1  1  0.99808  0.75000  0.14211  1
 N  N2  1  0.00192  0.25000  0.85789  1
 N  N3  1  0.50192  0.75000  0.64211  1
 N  N4  1  0.49808  0.25000  0.35789  1
 O  O1  1  0.66831  0.75000  0.72299  1
 O  O2  1  0.33169  0.25000  0.27701  1
 O  O3  1  0.83169  0.75000  0.22299  1
 O  O4  1  0.16831  0.25000  0.77701  1
