CIF file written using JARVIS-Tools package.
data_HfMg6Cu
_symmetry_space_group_name_H-M  'Amm2'
_cell_length_a       6.43327
_cell_length_b       5.92206
_cell_length_c       4.86902
_cell_angle_alpha    90
_cell_angle_beta     90
_cell_angle_gamma    117.404

_symmetry_Int_Tables_number  38
_chemical_formula_structural  HfMg6Cu
_chemical_formula_sum  HfMg6Cu
_cell_volume  164.68428178309267
_cell_formula_units_Z  1
loop_
  _symmetry_equiv_pos_site_id
 _symmetry_equiv_pos_as_xyz
 1  'x, y, z'
loop_
 _atom_site_type_symbol
 _atom_site_label
 _atom_site_symmetry_multiplicity
 _atom_site_fract_x
 _atom_site_fract_y
 _atom_site_fract_z
 _atom_site_fract_occupancy
 Cu  Cu1  1  0.20259  0.35129  0.25000  1
 Hf  Hf1  1  0.13336  0.81668  0.25000  1
 Mg  Mg1  1  0.63719  0.31921  0.25000  1
 Mg  Mg2  1  0.63719  0.81798  0.25000  1
 Mg  Mg3  1  0.33597  0.16555  0.75000  1
 Mg  Mg4  1  0.33597  0.67043  0.75000  1
 Mg  Mg5  1  0.88697  0.19348  0.75000  1
 Mg  Mg6  1  0.83074  0.66537  0.75000  1
