CIF file written using JARVIS-Tools package.
data_FeNi3P4O16
_symmetry_space_group_name_H-M  'Pm'
_cell_length_a       4.68185
_cell_length_b       5.6682
_cell_length_c       9.60117
_cell_angle_alpha    90
_cell_angle_beta     89.7483
_cell_angle_gamma    90

_symmetry_Int_Tables_number  6
_chemical_formula_structural  FeNi3P4O16
_chemical_formula_sum  FeNi3P4O6
_cell_volume  254.7899290565057
_cell_formula_units_Z  1
loop_
  _symmetry_equiv_pos_site_id
 _symmetry_equiv_pos_as_xyz
 1  'x, y, z'
loop_
 _atom_site_type_symbol
 _atom_site_label
 _atom_site_symmetry_multiplicity
 _atom_site_fract_x
 _atom_site_fract_y
 _atom_site_fract_z
 _atom_site_fract_occupancy
 Fe  Fe1  1  0.06548  0.00000  0.27259  1
 Ni  Ni1  1  0.93554  0.50000  0.72907  1
 Ni  Ni2  1  0.56629  0.50000  0.22615  1
 Ni  Ni3  1  0.43281  0.00000  0.77193  1
 O  O1  1  0.83086  0.00000  0.43485  1
 O  O2  1  0.72772  0.21343  0.66482  1
 O  O3  1  0.72772  0.78657  0.66482  1
 O  O4  1  0.26560  0.28845  0.33635  1
 O  O5  1  0.70935  0.50000  0.89101  1
 O  O6  1  0.77232  0.21135  0.16029  1
 O  O7  1  0.78795  0.50000  0.39111  1
 O  O8  1  0.67910  0.00000  0.92799  1
 O  O9  1  0.32292  0.50000  0.06724  1
 O  O10  1  0.22643  0.28764  0.83639  1
 O  O11  1  0.77232  0.78865  0.16029  1
 O  O12  1  0.29799  0.00000  0.11243  1
 O  O13  1  0.21007  0.00000  0.61019  1
 O  O14  1  0.26560  0.71155  0.33635  1
 O  O15  1  0.22643  0.71236  0.83639  1
 O  O16  1  0.17666  0.50000  0.56890  1
 P  P1  1  0.10997  0.50000  0.41331  1
 P  P2  1  0.38507  0.50000  0.91056  1
 P  P3  1  0.61956  0.00000  0.08395  1
 P  P4  1  0.88624  0.00000  0.59301  1
