CIF file written using JARVIS-Tools package.
data_CeMnSi2
_symmetry_space_group_name_H-M  'Cmcm'
_cell_length_a       4.00689
_cell_length_b       4.06965
_cell_length_c       8.81746
_cell_angle_alpha    103.343
_cell_angle_beta     90
_cell_angle_gamma    90

_symmetry_Int_Tables_number  63
_chemical_formula_structural  CeMnSi2
_chemical_formula_sum  Ce2Mn2Si4
_cell_volume  139.90193997644707
_cell_formula_units_Z  2
loop_
  _symmetry_equiv_pos_site_id
 _symmetry_equiv_pos_as_xyz
 1  'x, y, z'
loop_
 _atom_site_type_symbol
 _atom_site_label
 _atom_site_symmetry_multiplicity
 _atom_site_fract_x
 _atom_site_fract_y
 _atom_site_fract_z
 _atom_site_fract_occupancy
 Ce  Ce1  1  0.25000  0.89541  0.79081  1
 Ce  Ce2  1  0.75000  0.10459  0.20919  1
 Mn  Mn1  1  0.75000  0.75078  0.50156  1
 Mn  Mn2  1  0.25000  0.24922  0.49844  1
 Si  Si1  1  0.25000  0.67915  0.35831  1
 Si  Si2  1  0.75000  0.32085  0.64169  1
 Si  Si3  1  0.75000  0.46370  0.92741  1
 Si  Si4  1  0.25000  0.53630  0.07259  1
