CIF file written using JARVIS-Tools package.
data_Li4Cr3Sn3Sb2O16
_symmetry_space_group_name_H-M  'Cm'
_cell_length_a       6.14775
_cell_length_b       6.18545
_cell_length_c       10.107
_cell_angle_alpha    90.0001
_cell_angle_beta     89.3883
_cell_angle_gamma    120.203

_symmetry_Int_Tables_number  8
_chemical_formula_structural  Li4Cr3Sn3Sb2O16
_chemical_formula_sum  Li4Cr3Sn3Sb2O6
_cell_volume  332.1376645084365
_cell_formula_units_Z  1
loop_
  _symmetry_equiv_pos_site_id
 _symmetry_equiv_pos_as_xyz
 1  'x, y, z'
loop_
 _atom_site_type_symbol
 _atom_site_label
 _atom_site_symmetry_multiplicity
 _atom_site_fract_x
 _atom_site_fract_y
 _atom_site_fract_z
 _atom_site_fract_occupancy
 Cr  Cr1  1  0.66143  0.83072  0.21545  1
 Cr  Cr2  1  0.83233  0.66193  0.71708  1
 Cr  Cr3  1  0.83233  0.17043  0.71708  1
 Li  Li1  1  0.34558  0.67281  0.89148  1
 Li  Li2  1  0.97758  0.98880  0.99116  1
 Li  Li3  1  0.98070  0.99036  0.49989  1
 Li  Li4  1  0.66947  0.33475  0.39736  1
 O  O1  1  0.14395  0.84089  0.60230  1
 O  O2  1  0.97226  0.48614  0.82039  1
 O  O3  1  0.34436  0.67218  0.10378  1
 O  O4  1  0.98704  0.99354  0.31845  1
 O  O5  1  0.98766  0.99384  0.81304  1
 O  O6  1  0.14395  0.30308  0.60230  1
 O  O7  1  0.01798  0.50900  0.33169  1
 O  O8  1  0.49736  0.52227  0.32584  1
 O  O9  1  0.69346  0.84674  0.61371  1
 O  O10  1  0.84080  0.69902  0.10323  1
 O  O11  1  0.52665  0.03238  0.83335  1
 O  O12  1  0.67824  0.33913  0.61126  1
 O  O13  1  0.49736  0.97512  0.32584  1
 O  O14  1  0.30553  0.15277  0.09372  1
 O  O15  1  0.52665  0.49430  0.83335  1
 O  O16  1  0.84080  0.14180  0.10323  1
 Sb  Sb1  1  0.67987  0.33995  0.98891  1
 Sb  Sb2  1  0.34515  0.67258  0.50604  1
 Sn  Sn1  1  0.16789  0.83181  0.21575  1
 Sn  Sn2  1  0.33574  0.16788  0.71640  1
 Sn  Sn3  1  0.16788  0.33610  0.21575  1
