CIF file written using JARVIS-Tools package.
data_HfBeBi2
_symmetry_space_group_name_H-M  'P4/mmm'
_cell_length_a       4.90554
_cell_length_b       4.90554
_cell_length_c       3.80215
_cell_angle_alpha    90
_cell_angle_beta     90
_cell_angle_gamma    90

_symmetry_Int_Tables_number  123
_chemical_formula_structural  HfBeBi2
_chemical_formula_sum  HfBeBi2
_cell_volume  91.49612935421582
_cell_formula_units_Z  1
loop_
  _symmetry_equiv_pos_site_id
 _symmetry_equiv_pos_as_xyz
 1  'x, y, z'
loop_
 _atom_site_type_symbol
 _atom_site_label
 _atom_site_symmetry_multiplicity
 _atom_site_fract_x
 _atom_site_fract_y
 _atom_site_fract_z
 _atom_site_fract_occupancy
 Be  Be1  1  0.00000  0.00000  0.50000  1
 Bi  Bi1  1  0.50000  0.00000  0.00000  1
 Bi  Bi2  1  0.00000  0.50000  0.00000  1
 Hf  Hf1  1  0.50000  0.50000  0.50000  1
