CIF file written using JARVIS-Tools package.
data_Ti3N2
_symmetry_space_group_name_H-M  'R-3c'
_cell_length_a       5.6694
_cell_length_b       5.66939
_cell_length_c       5.66939
_cell_angle_alpha    54.4831
_cell_angle_beta     54.4831
_cell_angle_gamma    54.4831

_symmetry_Int_Tables_number  167
_chemical_formula_structural  Ti3N2
_chemical_formula_sum  Ti6N4
_cell_volume  112.27907489849446
_cell_formula_units_Z  2
loop_
  _symmetry_equiv_pos_site_id
 _symmetry_equiv_pos_as_xyz
 1  'x, y, z'
loop_
 _atom_site_type_symbol
 _atom_site_label
 _atom_site_symmetry_multiplicity
 _atom_site_fract_x
 _atom_site_fract_y
 _atom_site_fract_z
 _atom_site_fract_occupancy
 N  N1  1  0.84084  0.84084  0.84084  1
 N  N2  1  0.65916  0.65916  0.65916  1
 N  N3  1  0.34084  0.34084  0.34084  1
 N  N4  1  0.15916  0.15916  0.15916  1
 Ti  Ti1  1  0.57317  0.92683  0.25000  1
 Ti  Ti2  1  0.25000  0.57317  0.92683  1
 Ti  Ti3  1  0.92683  0.25000  0.57317  1
 Ti  Ti4  1  0.07317  0.75000  0.42683  1
 Ti  Ti5  1  0.75000  0.42683  0.07317  1
 Ti  Ti6  1  0.42683  0.07317  0.75000  1
