CIF file written using JARVIS-Tools package.
data_VS2
_symmetry_space_group_name_H-M  'P-3m1'
_cell_length_a       3.20238
_cell_length_b       11.6751
_cell_length_c       3.20238
_cell_angle_alpha    90
_cell_angle_beta     120
_cell_angle_gamma    90

_symmetry_Int_Tables_number  164
_chemical_formula_structural  VS2
_chemical_formula_sum  V2S4
_cell_volume  103.68984273319634
_cell_formula_units_Z  2
loop_
  _symmetry_equiv_pos_site_id
 _symmetry_equiv_pos_as_xyz
 1  'x, y, z'
loop_
 _atom_site_type_symbol
 _atom_site_label
 _atom_site_symmetry_multiplicity
 _atom_site_fract_x
 _atom_site_fract_y
 _atom_site_fract_z
 _atom_site_fract_occupancy
 S  S1  1  0.33333  0.37487  0.66667  1
 S  S2  1  0.33333  0.87487  0.66667  1
 S  S3  1  0.66667  0.12513  0.33333  1
 S  S4  1  0.66667  0.62513  0.33333  1
 V  V1  1  0.00000  0.00000  0.00000  1
 V  V2  1  0.00000  0.50000  0.00000  1
