CIF file written using JARVIS-Tools package.
data_Rb2NiF4
_symmetry_space_group_name_H-M  'I4/mmm'
_cell_length_a       4.10172
_cell_length_b       4.10172
_cell_length_c       7.42617
_cell_angle_alpha    106.032
_cell_angle_beta     106.031
_cell_angle_gamma    90

_symmetry_Int_Tables_number  139
_chemical_formula_structural  Rb2NiF4
_chemical_formula_sum  Rb2NiF4
_cell_volume  115.01583162391489
_cell_formula_units_Z  1
loop_
  _symmetry_equiv_pos_site_id
 _symmetry_equiv_pos_as_xyz
 1  'x, y, z'
loop_
 _atom_site_type_symbol
 _atom_site_label
 _atom_site_symmetry_multiplicity
 _atom_site_fract_x
 _atom_site_fract_y
 _atom_site_fract_z
 _atom_site_fract_occupancy
 F  F1  1  0.50000  -0.00000  -0.00000  1
 F  F2  1  -0.00000  0.50000  -0.00000  1
 F  F3  1  0.85216  0.85216  0.70433  1
 F  F4  1  0.14784  0.14784  0.29567  1
 Ni  Ni1  1  0.00000  0.00000  0.00000  1
 Rb  Rb1  1  0.64693  0.64693  0.29386  1
 Rb  Rb2  1  0.35307  0.35307  0.70614  1
