CIF file written using JARVIS-Tools package.
data_Li4Fe3O8
_symmetry_space_group_name_H-M  'R3m'
_cell_length_a       5.55987
_cell_length_b       5.5598
_cell_length_c       5.96953
_cell_angle_alpha    89.991
_cell_angle_beta     117.76
_cell_angle_gamma    120.001

_symmetry_Int_Tables_number  160
_chemical_formula_structural  Li4Fe3O8
_chemical_formula_sum  Li4Fe3O8
_cell_volume  134.7325873555761
_cell_formula_units_Z  1
loop_
  _symmetry_equiv_pos_site_id
 _symmetry_equiv_pos_as_xyz
 1  'x, y, z'
loop_
 _atom_site_type_symbol
 _atom_site_label
 _atom_site_symmetry_multiplicity
 _atom_site_fract_x
 _atom_site_fract_y
 _atom_site_fract_z
 _atom_site_fract_occupancy
 Fe  Fe1  1  0.49570  0.00464  0.50035  1
 Fe  Fe2  1  0.00812  0.00466  0.50034  1
 Fe  Fe3  1  0.49568  0.49222  0.50034  1
 Li  Li1  1  0.99496  0.99810  0.99306  1
 Li  Li2  1  0.28685  0.64403  0.93091  1
 Li  Li3  1  0.99961  0.50039  0.50002  1
 Li  Li4  1  0.71798  0.35967  0.07761  1
 O  O1  1  0.53653  0.76888  0.30539  1
 O  O2  1  0.03058  0.25443  0.28498  1
 O  O3  1  0.50761  0.25443  0.28501  1
 O  O4  1  0.03059  0.77741  0.28500  1
 O  O5  1  0.47464  0.23788  0.71255  1
 O  O6  1  0.96208  0.74282  0.70493  1
 O  O7  1  0.48449  0.74280  0.70494  1
 O  O8  1  0.96210  0.22041  0.70493  1
