CIF file written using JARVIS-Tools package.
data_Li4FeO3F
_symmetry_space_group_name_H-M  'Cmc2_1'
_cell_length_a       5.34762
_cell_length_b       5.34762
_cell_length_c       6.34923
_cell_angle_alpha    90
_cell_angle_beta     90
_cell_angle_gamma    95.6629

_symmetry_Int_Tables_number  36
_chemical_formula_structural  Li4FeO3F
_chemical_formula_sum  Li8Fe2O6F2
_cell_volume  180.6828837561354
_cell_formula_units_Z  2
loop_
  _symmetry_equiv_pos_site_id
 _symmetry_equiv_pos_as_xyz
 1  'x, y, z'
loop_
 _atom_site_type_symbol
 _atom_site_label
 _atom_site_symmetry_multiplicity
 _atom_site_fract_x
 _atom_site_fract_y
 _atom_site_fract_z
 _atom_site_fract_occupancy
 F  F1  1  0.79583  0.79583  0.48862  1
 F  F2  1  0.20417  0.20417  0.98862  1
 Fe  Fe1  1  0.35461  0.35461  0.27719  1
 Fe  Fe2  1  0.64539  0.64539  0.77719  1
 Li  Li1  1  0.41986  0.11500  0.73815  1
 Li  Li2  1  0.88500  0.58014  0.23815  1
 Li  Li3  1  0.83153  0.15844  0.99803  1
 Li  Li4  1  0.84156  0.16847  0.49803  1
 Li  Li5  1  0.58014  0.88500  0.23815  1
 Li  Li6  1  0.15844  0.83153  0.99803  1
 Li  Li7  1  0.11500  0.41986  0.73815  1
 Li  Li8  1  0.16847  0.84156  0.49803  1
 O  O1  1  0.26175  0.67833  0.25007  1
 O  O2  1  0.32167  0.73825  0.75007  1
 O  O3  1  0.79886  0.79886  0.01169  1
 O  O4  1  0.20114  0.20114  0.51169  1
 O  O5  1  0.73825  0.32167  0.75007  1
 O  O6  1  0.67833  0.26175  0.25007  1
