CIF file written using JARVIS-Tools package.
data_Ga2S3
_symmetry_space_group_name_H-M  'Imm2'
_cell_length_a       6.44083
_cell_length_b       6.44084
_cell_length_c       6.44084
_cell_angle_alpha    146.708
_cell_angle_beta     131.169
_cell_angle_gamma    60.3847

_symmetry_Int_Tables_number  44
_chemical_formula_structural  Ga2S3
_chemical_formula_sum  Ga2S3
_cell_volume  109.38156620482647
_cell_formula_units_Z  1
loop_
  _symmetry_equiv_pos_site_id
 _symmetry_equiv_pos_as_xyz
 1  'x, y, z'
loop_
 _atom_site_type_symbol
 _atom_site_label
 _atom_site_symmetry_multiplicity
 _atom_site_fract_x
 _atom_site_fract_y
 _atom_site_fract_z
 _atom_site_fract_occupancy
 Ga  Ga1  1  0.83306  0.84119  0.99186  1
 Ga  Ga2  1  0.15067  0.15881  0.99186  1
 S  S1  1  0.10184  0.33807  0.76377  1
 S  S2  1  0.42569  0.66193  0.76377  1
 S  S3  1  0.73874  0.00000  0.73874  1
