CIF file written using JARVIS-Tools package.
data_NaMg6C
_symmetry_space_group_name_H-M  'Amm2'
_cell_length_a       7.71428
_cell_length_b       7.71428
_cell_length_c       3.32325
_cell_angle_alpha    90
_cell_angle_beta     90
_cell_angle_gamma    116.877

_symmetry_Int_Tables_number  38
_chemical_formula_structural  NaMg6C
_chemical_formula_sum  NaMg6C
_cell_volume  176.4035393507578
_cell_formula_units_Z  1
loop_
  _symmetry_equiv_pos_site_id
 _symmetry_equiv_pos_as_xyz
 1  'x, y, z'
loop_
 _atom_site_type_symbol
 _atom_site_label
 _atom_site_symmetry_multiplicity
 _atom_site_fract_x
 _atom_site_fract_y
 _atom_site_fract_z
 _atom_site_fract_occupancy
 C  C1  1  0.40424  0.09576  0.75000  1
 Mg  Mg1  1  0.19140  0.96782  0.25000  1
 Mg  Mg2  1  0.53218  0.30860  0.25000  1
 Mg  Mg3  1  0.72018  0.77982  0.25000  1
 Mg  Mg4  1  0.37277  0.77895  0.75000  1
 Mg  Mg5  1  0.72105  0.12723  0.75000  1
 Mg  Mg6  1  0.91988  0.58012  0.75000  1
 Na  Na1  1  0.13830  0.36170  0.25000  1
