CIF file written using JARVIS-Tools package.
data_Na4CO4
_symmetry_space_group_name_H-M  'Cm'
_cell_length_a       6.27362
_cell_length_b       4.93251
_cell_length_c       4.93299
_cell_angle_alpha    64.2325
_cell_angle_beta     82.4983
_cell_angle_gamma    97.5127

_symmetry_Int_Tables_number  8
_chemical_formula_structural  Na4CO4
_chemical_formula_sum  Na4CO4
_cell_volume  133.25531887985713
_cell_formula_units_Z  1
loop_
  _symmetry_equiv_pos_site_id
 _symmetry_equiv_pos_as_xyz
 1  'x, y, z'
loop_
 _atom_site_type_symbol
 _atom_site_label
 _atom_site_symmetry_multiplicity
 _atom_site_fract_x
 _atom_site_fract_y
 _atom_site_fract_z
 _atom_site_fract_occupancy
 C  C1  1  0.66016  0.16060  0.83940  1
 Na  Na1  1  0.42136  0.78707  0.54871  1
 Na  Na2  1  0.90346  0.89527  0.42516  1
 Na  Na3  1  0.42134  0.45128  0.21292  1
 Na  Na4  1  0.90344  0.57487  0.10474  1
 O  O1  1  0.68178  0.17736  0.09123  1
 O  O2  1  0.17046  0.69483  0.30518  1
 O  O3  1  0.61780  0.39022  0.60978  1
 O  O4  1  0.68178  0.90875  0.82264  1
