CIF file written using JARVIS-Tools package.
data_Mg6CrCd
_symmetry_space_group_name_H-M  'Amm2'
_cell_length_a       6.24701
_cell_length_b       6.24701
_cell_length_c       4.99026
_cell_angle_alpha    90
_cell_angle_beta     90
_cell_angle_gamma    119.92

_symmetry_Int_Tables_number  38
_chemical_formula_structural  Mg6CrCd
_chemical_formula_sum  Mg6CrCd
_cell_volume  168.79062123649587
_cell_formula_units_Z  1
loop_
  _symmetry_equiv_pos_site_id
 _symmetry_equiv_pos_as_xyz
 1  'x, y, z'
loop_
 _atom_site_type_symbol
 _atom_site_label
 _atom_site_symmetry_multiplicity
 _atom_site_fract_x
 _atom_site_fract_y
 _atom_site_fract_z
 _atom_site_fract_occupancy
 Cd  Cd1  1  0.33077  0.16923  0.75000  1
 Cr  Cr1  1  0.16419  0.33581  0.25000  1
 Mg  Mg1  1  0.16756  0.83626  0.25000  1
 Mg  Mg2  1  0.66374  0.33244  0.25000  1
 Mg  Mg3  1  0.66551  0.83449  0.25000  1
 Mg  Mg4  1  0.33101  0.65570  0.75000  1
 Mg  Mg5  1  0.84430  0.16899  0.75000  1
 Mg  Mg6  1  0.83291  0.66709  0.75000  1
