CIF file written using JARVIS-Tools package.
data_Mn3O2F4
_symmetry_space_group_name_H-M  'P4_2/mnm'
_cell_length_a       4.76389
_cell_length_b       4.76389
_cell_length_c       9.35818
_cell_angle_alpha    90
_cell_angle_beta     90
_cell_angle_gamma    90

_symmetry_Int_Tables_number  136
_chemical_formula_structural  Mn3O2F4
_chemical_formula_sum  Mn6O4F8
_cell_volume  212.3806629737221
_cell_formula_units_Z  2
loop_
  _symmetry_equiv_pos_site_id
 _symmetry_equiv_pos_as_xyz
 1  'x, y, z'
loop_
 _atom_site_type_symbol
 _atom_site_label
 _atom_site_symmetry_multiplicity
 _atom_site_fract_x
 _atom_site_fract_y
 _atom_site_fract_z
 _atom_site_fract_occupancy
 F  F1  1  0.81349  0.18651  0.68401  1
 F  F2  1  0.68651  0.68651  0.81599  1
 F  F3  1  0.31349  0.31349  0.18401  1
 F  F4  1  0.31349  0.31349  0.81599  1
 F  F5  1  0.18651  0.81349  0.68401  1
 F  F6  1  0.18651  0.81349  0.31599  1
 F  F7  1  0.81349  0.18651  0.31599  1
 F  F8  1  0.68651  0.68651  0.18401  1
 Mn  Mn1  1  0.00000  0.00000  0.85012  1
 Mn  Mn2  1  0.50000  0.50000  0.35012  1
 Mn  Mn3  1  0.50000  0.50000  0.00000  1
 Mn  Mn4  1  0.50000  0.50000  0.64988  1
 Mn  Mn5  1  0.00000  0.00000  0.50000  1
 Mn  Mn6  1  0.00000  0.00000  0.14988  1
 O  O1  1  0.30979  0.30979  0.50000  1
 O  O2  1  0.80979  0.19021  0.00000  1
 O  O3  1  0.69021  0.69021  0.50000  1
 O  O4  1  0.19021  0.80979  0.00000  1
