CIF file written using JARVIS-Tools package.
data_FeAs
_symmetry_space_group_name_H-M  'Pnma'
_cell_length_a       3.40969
_cell_length_b       5.32911
_cell_length_c       5.96998
_cell_angle_alpha    90
_cell_angle_beta     90
_cell_angle_gamma    90

_symmetry_Int_Tables_number  62
_chemical_formula_structural  FeAs
_chemical_formula_sum  Fe4As4
_cell_volume  108.47831837572525
_cell_formula_units_Z  4
loop_
  _symmetry_equiv_pos_site_id
 _symmetry_equiv_pos_as_xyz
 1  'x, y, z'
loop_
 _atom_site_type_symbol
 _atom_site_label
 _atom_site_symmetry_multiplicity
 _atom_site_fract_x
 _atom_site_fract_y
 _atom_site_fract_z
 _atom_site_fract_occupancy
 As  As1  1  0.75000  0.79769  0.58153  1
 As  As2  1  0.25000  0.20231  0.41847  1
 As  As3  1  0.75000  0.29769  0.91847  1
 As  As4  1  0.25000  0.70231  0.08153  1
 Fe  Fe1  1  0.75000  0.99965  0.20206  1
 Fe  Fe2  1  0.25000  0.00035  0.79794  1
 Fe  Fe3  1  0.75000  0.49965  0.29794  1
 Fe  Fe4  1  0.25000  0.50035  0.70206  1
