CIF file written using JARVIS-Tools package.
data_K6NaAu2IO8
_symmetry_space_group_name_H-M  'P2/c'
_cell_length_a       7.07824
_cell_length_b       9.74482
_cell_length_c       10.1155
_cell_angle_alpha    90
_cell_angle_beta     92.8253
_cell_angle_gamma    90

_symmetry_Int_Tables_number  13
_chemical_formula_structural  K6NaAu2IO8
_chemical_formula_sum  K2Na2Au4I2O6
_cell_volume  696.8787147414331
_cell_formula_units_Z  2
loop_
  _symmetry_equiv_pos_site_id
 _symmetry_equiv_pos_as_xyz
 1  'x, y, z'
loop_
 _atom_site_type_symbol
 _atom_site_label
 _atom_site_symmetry_multiplicity
 _atom_site_fract_x
 _atom_site_fract_y
 _atom_site_fract_z
 _atom_site_fract_occupancy
 Au  Au1  1  0.75000  0.95551  0.75000  1
 Au  Au2  1  0.25000  0.04449  0.25000  1
 Au  Au3  1  0.00000  0.00000  0.00000  1
 Au  Au4  1  0.50000  0.00000  0.50000  1
 I  I1  1  0.50000  0.50000  0.00000  1
 I  I2  1  -0.00000  0.50000  0.50000  1
 K  K1  1  0.38268  0.82088  0.91300  1
 K  K2  1  0.88268  0.17912  0.41300  1
 K  K3  1  0.40051  0.33587  0.41141  1
 K  K4  1  0.59949  0.66413  0.58859  1
 K  K5  1  0.90051  0.66413  0.91141  1
 K  K6  1  0.25000  0.64800  0.25000  1
 K  K7  1  0.75000  0.35200  0.75000  1
 K  K8  1  0.25000  0.15582  0.75000  1
 K  K9  1  0.09949  0.33587  0.08859  1
 K  K10  1  0.11732  0.82088  0.58700  1
 K  K11  1  0.61732  0.17912  0.08700  1
 K  K12  1  0.75000  0.84418  0.25000  1
 Na  Na1  1  0.25000  0.49416  0.75000  1
 Na  Na2  1  0.75000  0.50584  0.25000  1
 O  O1  1  0.58984  0.66398  0.09208  1
 O  O2  1  0.91016  0.66398  0.40792  1
 O  O3  1  0.24600  0.57331  0.98699  1
 O  O4  1  0.52723  0.05579  0.31008  1
 O  O5  1  0.47277  0.94421  0.68992  1
 O  O6  1  0.45496  0.41785  0.16794  1
 O  O7  1  0.08984  0.33602  0.59208  1
 O  O8  1  0.02723  0.94421  0.81008  1
 O  O9  1  0.25400  0.57331  0.51301  1
 O  O10  1  0.54504  0.58215  0.83206  1
 O  O11  1  0.97277  0.05579  0.18992  1
 O  O12  1  0.04504  0.41785  0.33206  1
 O  O13  1  0.41016  0.33602  0.90792  1
 O  O14  1  0.74600  0.42669  0.48699  1
 O  O15  1  0.95496  0.58215  0.66794  1
 O  O16  1  0.75400  0.42669  0.01301  1
