CIF file written using JARVIS-Tools package.
data_HfMg6Cu
_symmetry_space_group_name_H-M  'Amm2'
_cell_length_a       6.35109
_cell_length_b       6.35109
_cell_length_c       4.87507
_cell_angle_alpha    90
_cell_angle_beta     90
_cell_angle_gamma    122.826

_symmetry_Int_Tables_number  38
_chemical_formula_structural  HfMg6Cu
_chemical_formula_sum  HfMg6Cu
_cell_volume  165.24212785143033
_cell_formula_units_Z  1
loop_
  _symmetry_equiv_pos_site_id
 _symmetry_equiv_pos_as_xyz
 1  'x, y, z'
loop_
 _atom_site_type_symbol
 _atom_site_label
 _atom_site_symmetry_multiplicity
 _atom_site_fract_x
 _atom_site_fract_y
 _atom_site_fract_z
 _atom_site_fract_occupancy
 Cu  Cu1  1  0.18767  0.31233  0.25000  1
 Hf  Hf1  1  0.31235  0.18765  0.75000  1
 Mg  Mg1  1  0.17672  0.83669  0.25000  1
 Mg  Mg2  1  0.66331  0.32328  0.25000  1
 Mg  Mg3  1  0.67677  0.82323  0.25000  1
 Mg  Mg4  1  0.32161  0.67212  0.75000  1
 Mg  Mg5  1  0.82788  0.17840  0.75000  1
 Mg  Mg6  1  0.83369  0.66631  0.75000  1
