CIF file written using JARVIS-Tools package.
data_LuGa2
_symmetry_space_group_name_H-M  'Imma'
_cell_length_a       4.15968
_cell_length_b       5.70432
_cell_length_c       5.70432
_cell_angle_alpha    73.1766
_cell_angle_beta     68.6165
_cell_angle_gamma    68.6165

_symmetry_Int_Tables_number  74
_chemical_formula_structural  LuGa2
_chemical_formula_sum  Lu2Ga4
_cell_volume  115.4321086315168
_cell_formula_units_Z  2
loop_
  _symmetry_equiv_pos_site_id
 _symmetry_equiv_pos_as_xyz
 1  'x, y, z'
loop_
 _atom_site_type_symbol
 _atom_site_label
 _atom_site_symmetry_multiplicity
 _atom_site_fract_x
 _atom_site_fract_y
 _atom_site_fract_z
 _atom_site_fract_occupancy
 Ga  Ga1  1  0.15844  0.29080  0.39231  1
 Ga  Ga2  1  0.84156  0.70920  0.60769  1
 Ga  Ga3  1  0.84156  0.10769  0.20920  1
 Ga  Ga4  1  0.15844  0.89231  0.79080  1
 Lu  Lu1  1  0.56348  0.68652  0.18652  1
 Lu  Lu2  1  0.43652  0.31348  0.81348  1
