CIF file written using JARVIS-Tools package.
data_Fe7S8
_symmetry_space_group_name_H-M  'C2/c'
_cell_length_a       6.67545
_cell_length_b       6.5463
_cell_length_c       10.9267
_cell_angle_alpha    78.1911
_cell_angle_beta     72.2138
_cell_angle_gamma    59.3452

_symmetry_Int_Tables_number  15
_chemical_formula_structural  Fe7S8
_chemical_formula_sum  Fe4S6
_cell_volume  390.43251661894914
_cell_formula_units_Z  2
loop_
  _symmetry_equiv_pos_site_id
 _symmetry_equiv_pos_as_xyz
 1  'x, y, z'
loop_
 _atom_site_type_symbol
 _atom_site_label
 _atom_site_symmetry_multiplicity
 _atom_site_fract_x
 _atom_site_fract_y
 _atom_site_fract_z
 _atom_site_fract_occupancy
 Fe  Fe1  1  0.89796  0.29068  0.03021  1
 Fe  Fe2  1  0.87571  0.71993  0.23013  1
 Fe  Fe3  1  0.71885  0.20932  0.46979  1
 Fe  Fe4  1  0.10204  0.70932  0.96979  1
 Fe  Fe5  1  0.12429  0.28007  0.76987  1
 Fe  Fe6  1  0.67423  0.21993  0.73013  1
 Fe  Fe7  1  0.71114  0.78524  0.50076  1
 Fe  Fe8  1  0.28115  0.79068  0.53021  1
 Fe  Fe9  1  0.28886  0.21476  0.49924  1
 Fe  Fe10  1  0.50285  0.28524  0.00076  1
 Fe  Fe11  1  0.49715  0.71476  0.99924  1
 Fe  Fe12  1  0.69751  0.75000  0.75000  1
 Fe  Fe13  1  0.30249  0.25000  0.25000  1
 Fe  Fe14  1  0.32577  0.78007  0.26987  1
 S  S1  1  0.89063  0.91372  0.61180  1
 S  S2  1  0.87711  0.41834  0.62877  1
 S  S3  1  0.62607  0.58644  0.38170  1
 S  S4  1  0.90579  0.08644  0.88170  1
 S  S5  1  0.37393  0.41356  0.61830  1
 S  S6  1  0.91616  0.58628  0.88820  1
 S  S7  1  0.09421  0.91356  0.11830  1
 S  S8  1  0.44819  0.56962  0.84805  1
 S  S9  1  0.36586  0.93038  0.65195  1
 S  S10  1  0.55181  0.43038  0.15195  1
 S  S11  1  0.63414  0.06962  0.34805  1
 S  S12  1  0.12289  0.58166  0.37123  1
 S  S13  1  0.57578  0.91834  0.12877  1
 S  S14  1  0.08384  0.41372  0.11180  1
 S  S15  1  0.10937  0.08628  0.38820  1
 S  S16  1  0.42422  0.08166  0.87123  1
