CIF file written using JARVIS-Tools package.
data_Cr3NiP4O16
_symmetry_space_group_name_H-M  'Pm'
_cell_length_a       4.69401
_cell_length_b       5.63468
_cell_length_c       9.73702
_cell_angle_alpha    90
_cell_angle_beta     90.1787
_cell_angle_gamma    90

_symmetry_Int_Tables_number  6
_chemical_formula_structural  Cr3NiP4O16
_chemical_formula_sum  Cr3NiP4O6
_cell_volume  257.5355150102434
_cell_formula_units_Z  1
loop_
  _symmetry_equiv_pos_site_id
 _symmetry_equiv_pos_as_xyz
 1  'x, y, z'
loop_
 _atom_site_type_symbol
 _atom_site_label
 _atom_site_symmetry_multiplicity
 _atom_site_fract_x
 _atom_site_fract_y
 _atom_site_fract_z
 _atom_site_fract_occupancy
 Cr  Cr1  1  0.44894  0.50000  0.22941  1
 Cr  Cr2  1  0.55734  0.00000  0.76950  1
 Cr  Cr3  1  0.94579  0.00000  0.26769  1
 Ni  Ni1  1  0.06033  0.50000  0.73098  1
 O  O1  1  0.17754  0.00000  0.43412  1
 O  O2  1  0.28567  0.79012  0.66406  1
 O  O3  1  0.28567  0.20988  0.66406  1
 O  O4  1  0.73111  0.71162  0.33258  1
 O  O5  1  0.28354  0.50000  0.89745  1
 O  O6  1  0.23074  0.78832  0.16416  1
 O  O7  1  0.20535  0.50000  0.38580  1
 O  O8  1  0.31366  0.00000  0.93237  1
 O  O9  1  0.68170  0.50000  0.06671  1
 O  O10  1  0.75091  0.71678  0.83779  1
 O  O11  1  0.23074  0.21168  0.16416  1
 O  O12  1  0.70301  0.00000  0.10869  1
 O  O13  1  0.80688  0.00000  0.61610  1
 O  O14  1  0.73111  0.28838  0.33258  1
 O  O15  1  0.75091  0.28322  0.83779  1
 O  O16  1  0.82014  0.50000  0.56403  1
 P  P1  1  0.88616  0.50000  0.41358  1
 P  P2  1  0.60354  0.50000  0.91333  1
 P  P3  1  0.38326  0.00000  0.08459  1
 P  P4  1  0.12595  0.00000  0.58850  1
