CIF file written using JARVIS-Tools package.
data_MnCr2S4
_symmetry_space_group_name_H-M  'C2/m'
_cell_length_a       3.10747
_cell_length_b       5.74915
_cell_length_c       6.16237
_cell_angle_alpha    114.45
_cell_angle_beta     104.604
_cell_angle_gamma    90

_symmetry_Int_Tables_number  12
_chemical_formula_structural  MnCr2S4
_chemical_formula_sum  MnCr2S4
_cell_volume  96.29904755316022
_cell_formula_units_Z  1
loop_
  _symmetry_equiv_pos_site_id
 _symmetry_equiv_pos_as_xyz
 1  'x, y, z'
loop_
 _atom_site_type_symbol
 _atom_site_label
 _atom_site_symmetry_multiplicity
 _atom_site_fract_x
 _atom_site_fract_y
 _atom_site_fract_z
 _atom_site_fract_occupancy
 Cr  Cr1  1  0.74000  0.68523  0.47999  1
 Cr  Cr2  1  0.26000  0.31477  0.52001  1
 Mn  Mn1  1  0.00000  0.00000  0.00000  1
 S  S1  1  0.63866  0.97641  0.27732  1
 S  S2  1  0.36134  0.02359  0.72268  1
 S  S3  1  0.89557  0.56307  0.79113  1
 S  S4  1  0.10443  0.43693  0.20887  1
