CIF file written using JARVIS-Tools package.
data_YbCuPb
_symmetry_space_group_name_H-M  'P6_3/mmc'
_cell_length_a       4.6845
_cell_length_b       4.6845
_cell_length_c       7.02748
_cell_angle_alpha    90
_cell_angle_beta     90
_cell_angle_gamma    120.001

_symmetry_Int_Tables_number  194
_chemical_formula_structural  YbCuPb
_chemical_formula_sum  Yb2Cu2Pb2
_cell_volume  133.5521363931816
_cell_formula_units_Z  2
loop_
  _symmetry_equiv_pos_site_id
 _symmetry_equiv_pos_as_xyz
 1  'x, y, z'
loop_
 _atom_site_type_symbol
 _atom_site_label
 _atom_site_symmetry_multiplicity
 _atom_site_fract_x
 _atom_site_fract_y
 _atom_site_fract_z
 _atom_site_fract_occupancy
 Cu  Cu1  1  0.66665  0.33335  0.75000  1
 Cu  Cu2  1  0.33335  0.66665  0.25000  1
 Pb  Pb1  1  0.66667  0.33333  0.25000  1
 Pb  Pb2  1  0.33333  0.66667  0.75000  1
 Yb  Yb1  1  0.00000  0.00000  0.50000  1
 Yb  Yb2  1  0.00000  0.00000  0.00000  1
