CIF file written using JARVIS-Tools package.
data_SiO2
_symmetry_space_group_name_H-M  'P622'
_cell_length_a       12.7325
_cell_length_b       12.7325
_cell_length_c       3.78234
_cell_angle_alpha    90
_cell_angle_beta     90
_cell_angle_gamma    120

_symmetry_Int_Tables_number  177
_chemical_formula_structural  SiO2
_chemical_formula_sum  Si2O24
_cell_volume  531.0324425555726
_cell_formula_units_Z  12
loop_
  _symmetry_equiv_pos_site_id
 _symmetry_equiv_pos_as_xyz
 1  'x, y, z'
loop_
 _atom_site_type_symbol
 _atom_site_label
 _atom_site_symmetry_multiplicity
 _atom_site_fract_x
 _atom_site_fract_y
 _atom_site_fract_z
 _atom_site_fract_occupancy
 O  O1  1  0.00000  0.38730  0.50000  1
 O  O2  1  0.38730  0.38730  0.50000  1
 O  O3  1  0.35908  0.17954  0.50000  1
 O  O4  1  0.00000  0.61270  0.50000  1
 O  O5  1  0.40799  0.81598  0.50000  1
 O  O6  1  0.75415  0.24585  0.00000  1
 O  O7  1  0.49170  0.24585  0.00000  1
 O  O8  1  0.64092  0.82046  0.50000  1
 O  O9  1  0.17954  0.35908  0.50000  1
 O  O10  1  0.59201  0.18402  0.50000  1
 O  O11  1  0.82046  0.17954  0.50000  1
 O  O12  1  0.61270  0.00000  0.50000  1
 O  O13  1  0.59201  0.40799  0.50000  1
 O  O14  1  0.82046  0.64092  0.50000  1
 O  O15  1  0.75415  0.50830  0.00000  1
 O  O16  1  0.24585  0.75415  0.00000  1
 O  O17  1  0.50830  0.75415  0.00000  1
 O  O18  1  0.61270  0.61270  0.50000  1
 O  O19  1  0.17954  0.82046  0.50000  1
 O  O20  1  0.38730  -0.00000  0.50000  1
 O  O21  1  0.81598  0.40799  0.50000  1
 O  O22  1  0.24585  0.49170  0.00000  1
 O  O23  1  0.18402  0.59201  0.50000  1
 O  O24  1  0.40799  0.59201  0.50000  1
 Si  Si1  1  0.85809  0.31382  0.65754  1
 Si  Si2  1  0.31382  0.85809  0.34246  1
 Si  Si3  1  0.54428  0.68618  0.34246  1
 Si  Si4  1  0.14191  0.68618  0.65754  1
 Si  Si5  1  0.45572  0.31382  0.34246  1
 Si  Si6  1  0.68618  0.54428  0.65754  1
 Si  Si7  1  0.85809  0.54428  0.34246  1
 Si  Si8  1  0.45572  0.14191  0.65754  1
 Si  Si9  1  0.68618  0.14191  0.34246  1
 Si  Si10  1  0.54428  0.85809  0.65754  1
 Si  Si11  1  0.31382  0.45572  0.65754  1
 Si  Si12  1  0.14191  0.45572  0.34246  1
