CIF file written using JARVIS-Tools package.
data_LuSn2
_symmetry_space_group_name_H-M  'Cmcm'
_cell_length_a       4.31696
_cell_length_b       4.36496
_cell_length_c       8.36744
_cell_angle_alpha    105.119
_cell_angle_beta     90
_cell_angle_gamma    90

_symmetry_Int_Tables_number  63
_chemical_formula_structural  LuSn2
_chemical_formula_sum  Lu2Sn4
_cell_volume  152.21274387335913
_cell_formula_units_Z  2
loop_
  _symmetry_equiv_pos_site_id
 _symmetry_equiv_pos_as_xyz
 1  'x, y, z'
loop_
 _atom_site_type_symbol
 _atom_site_label
 _atom_site_symmetry_multiplicity
 _atom_site_fract_x
 _atom_site_fract_y
 _atom_site_fract_z
 _atom_site_fract_occupancy
 Lu  Lu1  1  0.75000  0.09832  0.19664  1
 Lu  Lu2  1  0.25000  0.90168  0.80336  1
 Sn  Sn1  1  0.75000  0.43511  0.87023  1
 Sn  Sn2  1  0.25000  0.56489  0.12977  1
 Sn  Sn3  1  0.75000  0.74864  0.49728  1
 Sn  Sn4  1  0.25000  0.25136  0.50272  1
