CIF file written using JARVIS-Tools package.
data_Pr2Fe2Si2C
_symmetry_space_group_name_H-M  'C2/m'
_cell_length_a       4.00651
_cell_length_b       5.81356
_cell_length_c       5.99448
_cell_angle_alpha    73.1127
_cell_angle_beta     70.4771
_cell_angle_gamma    69.8436

_symmetry_Int_Tables_number  12
_chemical_formula_structural  Pr2Fe2Si2C
_chemical_formula_sum  Pr2Fe2Si2C
_cell_volume  121.08716227845775
_cell_formula_units_Z  1
loop_
  _symmetry_equiv_pos_site_id
 _symmetry_equiv_pos_as_xyz
 1  'x, y, z'
loop_
 _atom_site_type_symbol
 _atom_site_label
 _atom_site_symmetry_multiplicity
 _atom_site_fract_x
 _atom_site_fract_y
 _atom_site_fract_z
 _atom_site_fract_occupancy
 C  C1  1  0.00000  0.00000  0.00000  1
 Fe  Fe1  1  0.80744  0.30102  0.08410  1
 Fe  Fe2  1  0.19256  0.69898  0.91590  1
 Pr  Pr1  1  0.44167  0.81507  0.30159  1
 Pr  Pr2  1  0.55833  0.18493  0.69841  1
 Si  Si1  1  0.81711  0.61906  0.74671  1
 Si  Si2  1  0.18289  0.38094  0.25329  1
