CIF file written using JARVIS-Tools package.
data_AcBr3
_symmetry_space_group_name_H-M  'P6_3/m'
_cell_length_a       8.08046
_cell_length_b       8.08046
_cell_length_c       4.71982
_cell_angle_alpha    90
_cell_angle_beta     90
_cell_angle_gamma    120

_symmetry_Int_Tables_number  176
_chemical_formula_structural  AcBr3
_chemical_formula_sum  Ac2Br6
_cell_volume  266.8878590980437
_cell_formula_units_Z  2
loop_
  _symmetry_equiv_pos_site_id
 _symmetry_equiv_pos_as_xyz
 1  'x, y, z'
loop_
 _atom_site_type_symbol
 _atom_site_label
 _atom_site_symmetry_multiplicity
 _atom_site_fract_x
 _atom_site_fract_y
 _atom_site_fract_z
 _atom_site_fract_occupancy
 Ac  Ac1  1  0.66667  0.33333  0.25000  1
 Ac  Ac2  1  0.33333  0.66667  0.75000  1
 Br  Br1  1  0.29594  0.38163  0.25000  1
 Br  Br2  1  0.38163  0.08569  0.75000  1
 Br  Br3  1  0.70406  0.61837  0.75000  1
 Br  Br4  1  0.61837  0.91431  0.25000  1
 Br  Br5  1  0.08569  0.70406  0.25000  1
 Br  Br6  1  0.91431  0.29594  0.75000  1
