CIF file written using JARVIS-Tools package.
data_Na2Li3FeO4
_symmetry_space_group_name_H-M  'Pnnm'
_cell_length_a       6.55411
_cell_length_b       7.94142
_cell_length_c       8.27041
_cell_angle_alpha    90
_cell_angle_beta     90
_cell_angle_gamma    90

_symmetry_Int_Tables_number  58
_chemical_formula_structural  Na2Li3FeO4
_chemical_formula_sum  Na8Li2Fe4O6
_cell_volume  430.4662551194775
_cell_formula_units_Z  4
loop_
  _symmetry_equiv_pos_site_id
 _symmetry_equiv_pos_as_xyz
 1  'x, y, z'
loop_
 _atom_site_type_symbol
 _atom_site_label
 _atom_site_symmetry_multiplicity
 _atom_site_fract_x
 _atom_site_fract_y
 _atom_site_fract_z
 _atom_site_fract_occupancy
 Fe  Fe1  1  0.50000  0.72690  0.37892  1
 Fe  Fe2  1  0.50000  0.27310  0.62108  1
 Fe  Fe3  1  0.00000  0.22690  0.12108  1
 Fe  Fe4  1  0.00000  0.77310  0.87892  1
 Li  Li1  1  0.50000  0.76712  0.08844  1
 Li  Li2  1  0.25614  0.01199  0.85233  1
 Li  Li3  1  0.00000  0.73288  0.58844  1
 Li  Li4  1  0.00000  0.26712  0.41156  1
 Li  Li5  1  0.75614  0.51199  0.64767  1
 Li  Li6  1  0.74386  0.98801  0.14767  1
 Li  Li7  1  0.74386  0.01199  0.85233  1
 Li  Li8  1  0.24386  0.51199  0.64767  1
 Li  Li9  1  0.24386  0.48801  0.35233  1
 Li  Li10  1  0.50000  0.23288  0.91156  1
 Li  Li11  1  0.75614  0.48801  0.35233  1
 Li  Li12  1  0.25614  0.98801  0.14767  1
 Na  Na1  1  0.75823  0.00000  0.50000  1
 Na  Na2  1  0.25823  0.50000  0.00000  1
 Na  Na3  1  0.74177  0.50000  0.00000  1
 Na  Na4  1  0.50000  0.24354  0.25023  1
 Na  Na5  1  0.50000  0.75646  0.74977  1
 Na  Na6  1  0.00000  0.74354  0.24977  1
 Na  Na7  1  0.00000  0.25646  0.75023  1
 Na  Na8  1  0.24177  0.00000  0.50000  1
 O  O1  1  0.25352  0.69550  0.49149  1
 O  O2  1  0.25352  0.30450  0.50851  1
 O  O3  1  0.00000  0.95209  0.72289  1
 O  O4  1  0.00000  0.04791  0.27711  1
 O  O5  1  0.50000  0.45209  0.77711  1
 O  O6  1  0.50000  0.54791  0.22289  1
 O  O7  1  0.74648  0.30450  0.50851  1
 O  O8  1  0.50000  0.94162  0.27553  1
 O  O9  1  0.24648  0.19550  0.00851  1
 O  O10  1  0.50000  0.05838  0.72447  1
 O  O11  1  0.00000  0.44162  0.22447  1
 O  O12  1  0.00000  0.55838  0.77553  1
 O  O13  1  0.24648  0.80450  0.99149  1
 O  O14  1  0.75352  0.19550  0.00851  1
 O  O15  1  0.75352  0.80450  0.99149  1
 O  O16  1  0.74648  0.69550  0.49149  1
