CIF file written using JARVIS-Tools package.
data_CaV3O7
_symmetry_space_group_name_H-M  'Pnma'
_cell_length_a       5.29577
_cell_length_b       10.3889
_cell_length_c       10.3866
_cell_angle_alpha    90
_cell_angle_beta     90
_cell_angle_gamma    90

_symmetry_Int_Tables_number  62
_chemical_formula_structural  CaV3O7
_chemical_formula_sum  Ca4V2O28
_cell_volume  571.4443012478636
_cell_formula_units_Z  4
loop_
  _symmetry_equiv_pos_site_id
 _symmetry_equiv_pos_as_xyz
 1  'x, y, z'
loop_
 _atom_site_type_symbol
 _atom_site_label
 _atom_site_symmetry_multiplicity
 _atom_site_fract_x
 _atom_site_fract_y
 _atom_site_fract_z
 _atom_site_fract_occupancy
 Ca  Ca1  1  0.70177  0.75000  0.91555  1
 Ca  Ca2  1  0.20177  0.25000  0.58445  1
 Ca  Ca3  1  0.29823  0.25000  0.08445  1
 Ca  Ca4  1  0.79823  0.75000  0.41555  1
 O  O1  1  0.04670  0.62004  0.26937  1
 O  O2  1  0.54670  0.37996  0.23063  1
 O  O3  1  0.04670  0.87996  0.26937  1
 O  O4  1  0.54670  0.12004  0.23063  1
 O  O5  1  0.95330  0.37996  0.73063  1
 O  O6  1  0.45330  0.62004  0.76937  1
 O  O7  1  0.47984  0.12010  0.72437  1
 O  O8  1  0.23828  0.43696  0.96812  1
 O  O9  1  0.02016  0.37990  0.22437  1
 O  O10  1  0.45330  0.87996  0.76937  1
 O  O11  1  0.52016  0.87990  0.27563  1
 O  O12  1  0.02016  0.12010  0.22437  1
 O  O13  1  0.47984  0.37990  0.72437  1
 O  O14  1  0.97984  0.62010  0.77563  1
 O  O15  1  0.19747  0.75000  0.54504  1
 O  O16  1  0.69747  0.25000  0.95496  1
 O  O17  1  0.80253  0.25000  0.45496  1
 O  O18  1  0.97984  0.87990  0.77563  1
 O  O19  1  0.30253  0.75000  0.04504  1
 O  O20  1  0.26172  0.06304  0.46812  1
 O  O21  1  0.52016  0.62010  0.27563  1
 O  O22  1  0.95330  0.12004  0.73063  1
 O  O23  1  0.76172  0.93696  0.03188  1
 O  O24  1  0.73828  0.93696  0.53188  1
 O  O25  1  0.73828  0.56304  0.53188  1
 O  O26  1  0.26172  0.43696  0.46812  1
 O  O27  1  0.76172  0.56304  0.03188  1
 O  O28  1  0.23828  0.06304  0.96812  1
 V  V1  1  0.22032  0.01972  0.81599  1
 V  V2  1  0.22032  0.48028  0.81599  1
 V  V3  1  0.27968  0.48028  0.31599  1
 V  V4  1  0.21176  0.75000  0.70375  1
 V  V5  1  0.71176  0.25000  0.79625  1
 V  V6  1  0.78824  0.25000  0.29625  1
 V  V7  1  0.28824  0.75000  0.20375  1
 V  V8  1  0.27968  0.01972  0.31599  1
 V  V9  1  0.72032  0.51972  0.68401  1
 V  V10  1  0.77968  0.98028  0.18401  1
 V  V11  1  0.72032  0.98028  0.68401  1
 V  V12  1  0.77968  0.51972  0.18401  1
