CIF file written using JARVIS-Tools package.
data_NdNiGe2
_symmetry_space_group_name_H-M  'Cmcm'
_cell_length_a       4.25598
_cell_length_b       4.25963
_cell_length_c       8.6342
_cell_angle_alpha    104.281
_cell_angle_beta     90
_cell_angle_gamma    90

_symmetry_Int_Tables_number  63
_chemical_formula_structural  NdNiGe2
_chemical_formula_sum  Nd2Ni2Ge4
_cell_volume  151.6914364691339
_cell_formula_units_Z  2
loop_
  _symmetry_equiv_pos_site_id
 _symmetry_equiv_pos_as_xyz
 1  'x, y, z'
loop_
 _atom_site_type_symbol
 _atom_site_label
 _atom_site_symmetry_multiplicity
 _atom_site_fract_x
 _atom_site_fract_y
 _atom_site_fract_z
 _atom_site_fract_occupancy
 Ge  Ge1  1  0.25000  0.25046  0.50093  1
 Ge  Ge2  1  0.25000  0.54278  0.08557  1
 Ge  Ge3  1  0.75000  0.74954  0.49907  1
 Ge  Ge4  1  0.75000  0.45722  0.91443  1
 Nd  Nd1  1  0.25000  0.89214  0.78428  1
 Nd  Nd2  1  0.75000  0.10786  0.21572  1
 Ni  Ni1  1  0.25000  0.68218  0.36435  1
 Ni  Ni2  1  0.75000  0.31782  0.63565  1
