CIF file written using JARVIS-Tools package.
data_Ta4SeS
_symmetry_space_group_name_H-M  'P4mm'
_cell_length_a       3.36374
_cell_length_b       3.36374
_cell_length_c       9.76911
_cell_angle_alpha    90
_cell_angle_beta     90
_cell_angle_gamma    90

_symmetry_Int_Tables_number  99
_chemical_formula_structural  Ta4SeS
_chemical_formula_sum  Ta4SeS
_cell_volume  110.5352337391903
_cell_formula_units_Z  1
loop_
  _symmetry_equiv_pos_site_id
 _symmetry_equiv_pos_as_xyz
 1  'x, y, z'
loop_
 _atom_site_type_symbol
 _atom_site_label
 _atom_site_symmetry_multiplicity
 _atom_site_fract_x
 _atom_site_fract_y
 _atom_site_fract_z
 _atom_site_fract_occupancy
 S  S1  1  0.50000  0.50000  0.64492  1
 Se  Se1  1  0.00000  0.00000  0.37239  1
 Ta  Ta1  1  0.50000  0.50000  0.24352  1
 Ta  Ta2  1  0.00000  0.00000  0.74501  1
 Ta  Ta3  1  0.50000  0.50000  0.91896  1
 Ta  Ta4  1  0.00000  0.00000  0.07521  1
