CIF file written using JARVIS-Tools package.
data_SrSnO3
_symmetry_space_group_name_H-M  'I4/mcm'
_cell_length_a       5.71473
_cell_length_b       5.71473
_cell_length_c       5.80321
_cell_angle_alpha    119.497
_cell_angle_beta     119.497
_cell_angle_gamma    90

_symmetry_Int_Tables_number  140
_chemical_formula_structural  SrSnO3
_chemical_formula_sum  Sr2Sn2O6
_cell_volume  136.0249166377217
_cell_formula_units_Z  2
loop_
  _symmetry_equiv_pos_site_id
 _symmetry_equiv_pos_as_xyz
 1  'x, y, z'
loop_
 _atom_site_type_symbol
 _atom_site_label
 _atom_site_symmetry_multiplicity
 _atom_site_fract_x
 _atom_site_fract_y
 _atom_site_fract_z
 _atom_site_fract_occupancy
 O  O1  1  0.80716  0.30716  -0.00000  1
 O  O2  1  0.69284  0.80716  0.00000  1
 O  O3  1  0.30716  0.19284  -0.00000  1
 O  O4  1  0.19284  0.69284  0.00000  1
 O  O5  1  0.25000  0.25000  0.50000  1
 O  O6  1  0.75000  0.75000  0.50000  1
 Sn  Sn1  1  0.00000  0.00000  0.00000  1
 Sn  Sn2  1  0.50000  0.50000  -0.00000  1
 Sr  Sr1  1  0.25000  0.75000  0.50000  1
 Sr  Sr2  1  0.75000  0.25000  0.50000  1
