CIF file written using JARVIS-Tools package.
data_LiMg6Bi
_symmetry_space_group_name_H-M  'Amm2'
_cell_length_a       6.50353
_cell_length_b       6.28583
_cell_length_c       5.20683
_cell_angle_alpha    90
_cell_angle_beta     90
_cell_angle_gamma    118.899

_symmetry_Int_Tables_number  38
_chemical_formula_structural  LiMg6Bi
_chemical_formula_sum  LiMg6Bi
_cell_volume  186.34998973733738
_cell_formula_units_Z  1
loop_
  _symmetry_equiv_pos_site_id
 _symmetry_equiv_pos_as_xyz
 1  'x, y, z'
loop_
 _atom_site_type_symbol
 _atom_site_label
 _atom_site_symmetry_multiplicity
 _atom_site_fract_x
 _atom_site_fract_y
 _atom_site_fract_z
 _atom_site_fract_occupancy
 Bi  Bi1  1  0.16828  0.83414  0.25000  1
 Li  Li1  1  0.16310  0.33155  0.25000  1
 Mg  Mg1  1  0.66897  0.33166  0.25000  1
 Mg  Mg2  1  0.66897  0.83731  0.25000  1
 Mg  Mg3  1  0.33835  0.17868  0.75000  1
 Mg  Mg4  1  0.33835  0.65967  0.75000  1
 Mg  Mg5  1  0.83762  0.16881  0.75000  1
 Mg  Mg6  1  0.81635  0.65817  0.75000  1
