CIF file written using JARVIS-Tools package.
data_Ce2FeSe2O2
_symmetry_space_group_name_H-M  'C2/m'
_cell_length_a       3.89752
_cell_length_b       5.8963
_cell_length_c       6.55331
_cell_angle_alpha    68.6432
_cell_angle_beta     72.7003
_cell_angle_gamma    70.7005

_symmetry_Int_Tables_number  12
_chemical_formula_structural  Ce2FeSe2O2
_chemical_formula_sum  Ce2FeSe2O2
_cell_volume  129.6657007003481
_cell_formula_units_Z  1
loop_
  _symmetry_equiv_pos_site_id
 _symmetry_equiv_pos_as_xyz
 1  'x, y, z'
loop_
 _atom_site_type_symbol
 _atom_site_label
 _atom_site_symmetry_multiplicity
 _atom_site_fract_x
 _atom_site_fract_y
 _atom_site_fract_z
 _atom_site_fract_occupancy
 Ce  Ce1  1  0.30947  0.13965  0.24141  1
 Ce  Ce2  1  0.69053  0.86035  0.75859  1
 Fe  Fe1  1  0.50000  0.50000  0.50000  1
 O  O1  1  0.29839  0.81852  0.58469  1
 O  O2  1  0.70161  0.18148  0.41531  1
 Se  Se1  1  0.05985  0.69994  0.18035  1
 Se  Se2  1  0.94015  0.30006  0.81965  1
