CIF file written using JARVIS-Tools package.
data_TiCu2
_symmetry_space_group_name_H-M  'Cmcm'
_cell_length_a       4.42991
_cell_length_b       4.57003
_cell_length_c       4.60025
_cell_angle_alpha    119.783
_cell_angle_beta     90
_cell_angle_gamma    90

_symmetry_Int_Tables_number  63
_chemical_formula_structural  TiCu2
_chemical_formula_sum  Ti2Cu4
_cell_volume  80.82984617540055
_cell_formula_units_Z  2
loop_
  _symmetry_equiv_pos_site_id
 _symmetry_equiv_pos_as_xyz
 1  'x, y, z'
loop_
 _atom_site_type_symbol
 _atom_site_label
 _atom_site_symmetry_multiplicity
 _atom_site_fract_x
 _atom_site_fract_y
 _atom_site_fract_z
 _atom_site_fract_occupancy
 Cu  Cu1  1  0.75000  0.47834  0.34336  1
 Cu  Cu2  1  0.25000  0.86502  0.34336  1
 Cu  Cu3  1  0.25000  0.52166  0.65664  1
 Cu  Cu4  1  0.75000  0.13498  0.65664  1
 Ti  Ti1  1  0.75000  0.79023  0.00000  1
 Ti  Ti2  1  0.25000  0.20977  -0.00000  1
