CIF file written using JARVIS-Tools package.
data_Zr2Sb
_symmetry_space_group_name_H-M  'I4/mmm'
_cell_length_a       4.14059
_cell_length_b       4.14058
_cell_length_c       8.4967
_cell_angle_alpha    104.103
_cell_angle_beta     104.103
_cell_angle_gamma    89.9999

_symmetry_Int_Tables_number  139
_chemical_formula_structural  Zr2Sb
_chemical_formula_sum  Zr4Sb2
_cell_volume  136.7497073067187
_cell_formula_units_Z  2
loop_
  _symmetry_equiv_pos_site_id
 _symmetry_equiv_pos_as_xyz
 1  'x, y, z'
loop_
 _atom_site_type_symbol
 _atom_site_label
 _atom_site_symmetry_multiplicity
 _atom_site_fract_x
 _atom_site_fract_y
 _atom_site_fract_z
 _atom_site_fract_occupancy
 Sb  Sb1  1  0.13934  0.13934  0.27869  1
 Sb  Sb2  1  0.86066  0.86066  0.72131  1
 Zr  Zr1  1  0.50000  0.00000  0.00000  1
 Zr  Zr2  1  0.00000  0.50000  -0.00000  1
 Zr  Zr3  1  0.32344  0.32344  0.64688  1
 Zr  Zr4  1  0.67656  0.67656  0.35312  1
