CIF file written using JARVIS-Tools package.
data_Mg6NbGa
_symmetry_space_group_name_H-M  'Amm2'
_cell_length_a       6.23911
_cell_length_b       5.93984
_cell_length_c       4.95091
_cell_angle_alpha    90
_cell_angle_beta     90
_cell_angle_gamma    118.426

_symmetry_Int_Tables_number  38
_chemical_formula_structural  Mg6NbGa
_chemical_formula_sum  Mg6NbGa
_cell_volume  161.35618243601172
_cell_formula_units_Z  1
loop_
  _symmetry_equiv_pos_site_id
 _symmetry_equiv_pos_as_xyz
 1  'x, y, z'
loop_
 _atom_site_type_symbol
 _atom_site_label
 _atom_site_symmetry_multiplicity
 _atom_site_fract_x
 _atom_site_fract_y
 _atom_site_fract_z
 _atom_site_fract_occupancy
 Ga  Ga1  1  0.16255  0.83128  0.25000  1
 Mg  Mg1  1  0.65501  0.32693  0.25000  1
 Mg  Mg2  1  0.65501  0.82808  0.25000  1
 Mg  Mg3  1  0.33675  0.17714  0.75000  1
 Mg  Mg4  1  0.33675  0.65962  0.75000  1
 Mg  Mg5  1  0.84797  0.17399  0.75000  1
 Mg  Mg6  1  0.85535  0.67768  0.75000  1
 Nb  Nb1  1  0.15060  0.32530  0.25000  1
