CIF file written using JARVIS-Tools package.
data_ZnTe6O13
_symmetry_space_group_name_H-M  'R-3'
_cell_length_a       8.67568
_cell_length_b       8.67568
_cell_length_c       8.67568
_cell_angle_alpha    72.0802
_cell_angle_beta     72.0801
_cell_angle_gamma    72.0802

_symmetry_Int_Tables_number  148
_chemical_formula_structural  ZnTe6O13
_chemical_formula_sum  Zn2Te2O26
_cell_volume  574.5787721598463
_cell_formula_units_Z  2
loop_
  _symmetry_equiv_pos_site_id
 _symmetry_equiv_pos_as_xyz
 1  'x, y, z'
loop_
 _atom_site_type_symbol
 _atom_site_label
 _atom_site_symmetry_multiplicity
 _atom_site_fract_x
 _atom_site_fract_y
 _atom_site_fract_z
 _atom_site_fract_occupancy
 O  O1  1  0.95454  0.20167  0.69729  1
 O  O2  1  0.04546  0.79833  0.30271  1
 O  O3  1  0.45617  0.36423  0.11532  1
 O  O4  1  0.63577  0.88468  0.54383  1
 O  O5  1  0.69729  0.95454  0.20167  1
 O  O6  1  0.54383  0.63577  0.88468  1
 O  O7  1  0.07559  0.39468  0.10518  1
 O  O8  1  0.88468  0.54383  0.63577  1
 O  O9  1  0.39468  0.10518  0.07559  1
 O  O10  1  0.36423  0.11532  0.45617  1
 O  O11  1  0.10518  0.07559  0.39468  1
 O  O12  1  0.20167  0.69729  0.95454  1
 O  O13  1  0.30271  0.04546  0.79833  1
 O  O14  1  0.37459  0.61758  0.29865  1
 O  O15  1  0.91583  0.91583  0.91583  1
 O  O16  1  0.38242  0.70135  0.62541  1
 O  O17  1  0.29865  0.37459  0.61758  1
 O  O18  1  0.60532  0.89482  0.92441  1
 O  O19  1  0.92441  0.60532  0.89482  1
 O  O20  1  0.89482  0.92441  0.60532  1
 O  O21  1  0.79833  0.30271  0.04546  1
 O  O22  1  0.70135  0.62541  0.38242  1
 O  O23  1  0.62541  0.38242  0.70135  1
 O  O24  1  0.08417  0.08417  0.08417  1
 O  O25  1  0.11532  0.45617  0.36423  1
 O  O26  1  0.61758  0.29865  0.37459  1
 Te  Te1  1  0.82707  0.41711  0.52747  1
 Te  Te2  1  0.41711  0.52747  0.82707  1
 Te  Te3  1  0.58289  0.47253  0.17293  1
 Te  Te4  1  0.17293  0.58289  0.47253  1
 Te  Te5  1  0.33262  0.93367  0.01555  1
 Te  Te6  1  0.52747  0.82707  0.41711  1
 Te  Te7  1  0.93367  0.01555  0.33262  1
 Te  Te8  1  0.01555  0.33262  0.93367  1
 Te  Te9  1  0.66738  0.06633  0.98445  1
 Te  Te10  1  0.98445  0.66738  0.06633  1
 Te  Te11  1  0.06633  0.98445  0.66738  1
 Te  Te12  1  0.47253  0.17293  0.58289  1
 Zn  Zn1  1  0.74400  0.74400  0.74400  1
 Zn  Zn2  1  0.25600  0.25600  0.25600  1
