CIF file written using JARVIS-Tools package.
data_MgAl2O4
_symmetry_space_group_name_H-M  'Pnma'
_cell_length_a       2.80837
_cell_length_b       8.73115
_cell_length_c       10.0102
_cell_angle_alpha    90
_cell_angle_beta     90
_cell_angle_gamma    90

_symmetry_Int_Tables_number  62
_chemical_formula_structural  MgAl2O4
_chemical_formula_sum  Mg4Al8O6
_cell_volume  245.45374352217556
_cell_formula_units_Z  4
loop_
  _symmetry_equiv_pos_site_id
 _symmetry_equiv_pos_as_xyz
 1  'x, y, z'
loop_
 _atom_site_type_symbol
 _atom_site_label
 _atom_site_symmetry_multiplicity
 _atom_site_fract_x
 _atom_site_fract_y
 _atom_site_fract_z
 _atom_site_fract_occupancy
 Al  Al1  1  0.75000  0.05879  0.88319  1
 Al  Al2  1  0.75000  0.08710  0.39653  1
 Al  Al3  1  0.25000  0.94121  0.11681  1
 Al  Al4  1  0.25000  0.44121  0.38319  1
 Al  Al5  1  0.25000  0.91290  0.60347  1
 Al  Al6  1  0.25000  0.41290  0.89653  1
 Al  Al7  1  0.75000  0.58710  0.10347  1
 Al  Al8  1  0.75000  0.55879  0.61681  1
 Mg  Mg1  1  0.25000  0.25452  0.15192  1
 Mg  Mg2  1  0.25000  0.75452  0.34808  1
 Mg  Mg3  1  0.75000  0.74548  0.84808  1
 Mg  Mg4  1  0.75000  0.24548  0.65192  1
 O  O1  1  0.25000  0.53672  0.21638  1
 O  O2  1  0.75000  0.08848  0.07041  1
 O  O3  1  0.25000  0.41152  0.57041  1
 O  O4  1  0.75000  0.58848  0.42959  1
 O  O5  1  0.25000  0.03672  0.28362  1
 O  O6  1  0.75000  0.96328  0.71638  1
 O  O7  1  0.75000  0.46328  0.78362  1
 O  O8  1  0.75000  0.29917  0.33118  1
 O  O9  1  0.75000  0.37989  0.02946  1
 O  O10  1  0.25000  0.12011  0.52946  1
 O  O11  1  0.75000  0.87989  0.47054  1
 O  O12  1  0.25000  0.91152  0.92959  1
 O  O13  1  0.75000  0.79917  0.16882  1
 O  O14  1  0.25000  0.70083  0.66882  1
 O  O15  1  0.25000  0.62011  0.97054  1
 O  O16  1  0.25000  0.20083  0.83118  1
