CIF file written using JARVIS-Tools package.
data_Zr2V6Sb9
_symmetry_space_group_name_H-M  'P4/nmm'
_cell_length_a       7.24628
_cell_length_b       9.80093
_cell_length_c       9.80093
_cell_angle_alpha    90
_cell_angle_beta     90
_cell_angle_gamma    90

_symmetry_Int_Tables_number  129
_chemical_formula_structural  Zr2V6Sb9
_chemical_formula_sum  Zr4V2Sb8
_cell_volume  696.0653896311088
_cell_formula_units_Z  2
loop_
  _symmetry_equiv_pos_site_id
 _symmetry_equiv_pos_as_xyz
 1  'x, y, z'
loop_
 _atom_site_type_symbol
 _atom_site_label
 _atom_site_symmetry_multiplicity
 _atom_site_fract_x
 _atom_site_fract_y
 _atom_site_fract_z
 _atom_site_fract_occupancy
 Sb  Sb1  1  0.65593  0.42215  0.42215  1
 Sb  Sb2  1  0.50000  0.25000  0.75000  1
 Sb  Sb3  1  0.18028  0.00305  0.25000  1
 Sb  Sb4  1  0.18028  0.25000  0.49695  1
 Sb  Sb5  1  0.18028  0.25000  0.00305  1
 Sb  Sb6  1  0.81972  0.75000  0.50305  1
 Sb  Sb7  1  0.81972  0.99695  0.75000  1
 Sb  Sb8  1  0.81972  0.50305  0.75000  1
 Sb  Sb9  1  0.18028  0.49695  0.25000  1
 Sb  Sb10  1  0.65593  0.07785  0.07785  1
 Sb  Sb11  1  0.65593  0.07785  0.42215  1
 Sb  Sb12  1  0.65593  0.42215  0.07785  1
 Sb  Sb13  1  0.34407  0.57785  0.57785  1
 Sb  Sb14  1  0.34407  0.92215  0.57785  1
 Sb  Sb15  1  0.34407  0.57785  0.92215  1
 Sb  Sb16  1  0.34407  0.92215  0.92215  1
 Sb  Sb17  1  0.50000  0.75000  0.25000  1
 Sb  Sb18  1  0.81972  0.75000  0.99695  1
 V  V1  1  0.15921  0.75000  0.38519  1
 V  V2  1  0.84079  0.61481  0.25000  1
 V  V3  1  0.00000  0.50000  0.00000  1
 V  V4  1  0.00000  0.00000  0.50000  1
 V  V5  1  0.00000  0.00000  0.00000  1
 V  V6  1  0.00000  0.50000  0.50000  1
 V  V7  1  0.15921  0.38519  0.75000  1
 V  V8  1  0.15921  0.75000  0.11481  1
 V  V9  1  0.84079  0.25000  0.61481  1
 V  V10  1  0.84079  0.25000  0.88519  1
 V  V11  1  0.84079  0.88519  0.25000  1
 V  V12  1  0.15921  0.11481  0.75000  1
 Zr  Zr1  1  0.58487  0.75000  0.75000  1
 Zr  Zr2  1  0.41513  0.25000  0.25000  1
 Zr  Zr3  1  0.08409  0.75000  0.75000  1
 Zr  Zr4  1  0.91591  0.25000  0.25000  1
