CIF file written using JARVIS-Tools package.
data_CaMg6C
_symmetry_space_group_name_H-M  'Amm2'
_cell_length_a       10.3107
_cell_length_b       5.67916
_cell_length_c       3.47644
_cell_angle_alpha    90
_cell_angle_beta     90
_cell_angle_gamma    105.986

_symmetry_Int_Tables_number  38
_chemical_formula_structural  CaMg6C
_chemical_formula_sum  CaMg6C
_cell_volume  195.6953861538829
_cell_formula_units_Z  1
loop_
  _symmetry_equiv_pos_site_id
 _symmetry_equiv_pos_as_xyz
 1  'x, y, z'
loop_
 _atom_site_type_symbol
 _atom_site_label
 _atom_site_symmetry_multiplicity
 _atom_site_fract_x
 _atom_site_fract_y
 _atom_site_fract_z
 _atom_site_fract_occupancy
 C  C1  1  0.39579  0.94790  0.25000  1
 Ca  Ca1  1  0.07630  0.28815  0.25000  1
 Mg  Mg1  1  0.57778  0.28435  0.25000  1
 Mg  Mg2  1  0.57778  0.79343  0.25000  1
 Mg  Mg3  1  0.33499  0.14930  0.75000  1
 Mg  Mg4  1  0.33499  0.68568  0.75000  1
 Mg  Mg5  1  0.79589  0.14795  0.75000  1
 Mg  Mg6  1  0.90647  0.70324  0.75000  1
