CIF file written using JARVIS-Tools package.
data_LiMnF4
_symmetry_space_group_name_H-M  'P2_1/c'
_cell_length_a       5.76377
_cell_length_b       4.62487
_cell_length_c       9.95674
_cell_angle_alpha    90
_cell_angle_beta     91.9977
_cell_angle_gamma    90

_symmetry_Int_Tables_number  14
_chemical_formula_structural  LiMnF4
_chemical_formula_sum  Li4Mn4F6
_cell_volume  265.252421134417
_cell_formula_units_Z  4
loop_
  _symmetry_equiv_pos_site_id
 _symmetry_equiv_pos_as_xyz
 1  'x, y, z'
loop_
 _atom_site_type_symbol
 _atom_site_label
 _atom_site_symmetry_multiplicity
 _atom_site_fract_x
 _atom_site_fract_y
 _atom_site_fract_z
 _atom_site_fract_occupancy
 F  F1  1  0.94884  0.51894  0.82934  1
 F  F2  1  0.77396  0.04517  0.40930  1
 F  F3  1  0.22006  0.04093  0.90797  1
 F  F4  1  0.48924  0.00460  0.66877  1
 F  F5  1  0.22604  0.45482  0.59071  1
 F  F6  1  0.98924  -0.00460  0.66877  1
 F  F7  1  0.05116  0.98106  0.17066  1
 F  F8  1  0.55116  0.01894  0.17066  1
 F  F9  1  0.27396  0.95483  0.40930  1
 F  F10  1  0.72604  0.54518  0.59071  1
 F  F11  1  0.27994  0.54093  0.09203  1
 F  F12  1  0.77994  0.45907  0.09203  1
 F  F13  1  0.01076  0.50460  0.33124  1
 F  F14  1  0.51076  0.49540  0.33124  1
 F  F15  1  0.44884  0.48106  0.82934  1
 F  F16  1  0.72006  0.95907  0.90797  1
 Li  Li1  1  -0.00000  0.75000  0.50000  1
 Li  Li2  1  0.00001  0.75000  0.00000  1
 Li  Li3  1  0.50000  0.25000  0.50000  1
 Li  Li4  1  0.50001  0.25000  0.00000  1
 Mn  Mn1  1  0.29161  0.74935  0.25067  1
 Mn  Mn2  1  0.70839  0.75065  0.74934  1
 Mn  Mn3  1  0.79161  0.25065  0.25067  1
 Mn  Mn4  1  0.20839  0.24935  0.74934  1
