CIF file written using JARVIS-Tools package.
data_TlPH2O4
_symmetry_space_group_name_H-M  'P2_1/c'
_cell_length_a       14.0144
_cell_length_b       4.51131
_cell_length_c       6.47729
_cell_angle_alpha    90
_cell_angle_beta     92.9434
_cell_angle_gamma    90

_symmetry_Int_Tables_number  14
_chemical_formula_structural  TlPH2O4
_chemical_formula_sum  Tl4P4H8O6
_cell_volume  408.97369820190215
_cell_formula_units_Z  4
loop_
  _symmetry_equiv_pos_site_id
 _symmetry_equiv_pos_as_xyz
 1  'x, y, z'
loop_
 _atom_site_type_symbol
 _atom_site_label
 _atom_site_symmetry_multiplicity
 _atom_site_fract_x
 _atom_site_fract_y
 _atom_site_fract_z
 _atom_site_fract_occupancy
 H  H1  1  0.50000  0.00000  0.50000  1
 H  H2  1  0.00000  0.50000  0.00000  1
 H  H3  1  0.50000  0.00000  -0.00000  1
 H  H4  1  0.00000  0.50000  0.50000  1
 H  H5  1  0.31249  0.48019  0.23618  1
 H  H6  1  0.81249  0.01981  0.23618  1
 H  H7  1  0.18751  0.98019  0.76382  1
 H  H8  1  0.68751  0.51981  0.76382  1
 O  O1  1  0.95267  0.33968  0.38612  1
 O  O2  1  0.69511  0.72718  0.83729  1
 O  O3  1  0.42398  0.89624  0.04174  1
 O  O4  1  0.07602  0.39624  0.95826  1
 O  O5  1  0.57602  0.10376  0.95826  1
 O  O6  1  0.92398  0.60376  0.04174  1
 O  O7  1  0.18041  0.27069  0.66244  1
 O  O8  1  0.45267  0.16032  0.38612  1
 O  O9  1  0.80489  0.22718  0.16271  1
 O  O10  1  0.54733  0.83968  0.61388  1
 O  O11  1  0.19511  0.77282  0.83729  1
 O  O12  1  0.31959  0.77069  0.33756  1
 O  O13  1  0.81959  0.72931  0.33756  1
 O  O14  1  0.68041  0.22931  0.66244  1
 O  O15  1  0.04733  0.66032  0.61388  1
 O  O16  1  0.30489  0.27282  0.16271  1
 P  P1  1  0.37599  0.01620  0.23599  1
 P  P2  1  0.12401  0.51620  0.76401  1
 P  P3  1  0.62401  0.98380  0.76401  1
 P  P4  1  0.87599  0.48380  0.23599  1
 Tl  Tl1  1  0.12563  0.97936  0.26572  1
 Tl  Tl2  1  0.37437  0.47936  0.73428  1
 Tl  Tl3  1  0.87437  0.02064  0.73428  1
 Tl  Tl4  1  0.62563  0.52064  0.26572  1
