CIF file written using JARVIS-Tools package.
data_NbBr5
_symmetry_space_group_name_H-M  'Pnma'
_cell_length_a       6.11501
_cell_length_b       12.9365
_cell_length_c       18.7722
_cell_angle_alpha    90
_cell_angle_beta     90
_cell_angle_gamma    90

_symmetry_Int_Tables_number  62
_chemical_formula_structural  NbBr5
_chemical_formula_sum  Nb8Br40
_cell_volume  1485.0035889594847
_cell_formula_units_Z  8
loop_
  _symmetry_equiv_pos_site_id
 _symmetry_equiv_pos_as_xyz
 1  'x, y, z'
loop_
 _atom_site_type_symbol
 _atom_site_label
 _atom_site_symmetry_multiplicity
 _atom_site_fract_x
 _atom_site_fract_y
 _atom_site_fract_z
 _atom_site_fract_occupancy
 Br  Br1  1  0.25551  0.95994  0.94372  1
 Br  Br2  1  0.75116  0.79002  0.94400  1
 Br  Br3  1  0.24884  0.20998  0.44400  1
 Br  Br4  1  0.74884  0.29002  0.55600  1
 Br  Br5  1  0.74884  0.29002  0.94400  1
 Br  Br6  1  0.24884  0.20998  0.05600  1
 Br  Br7  1  0.75116  0.79002  0.55600  1
 Br  Br8  1  0.25116  0.70998  0.44400  1
 Br  Br9  1  0.23109  0.20441  0.25000  1
 Br  Br10  1  0.73109  0.29559  0.75000  1
 Br  Br11  1  0.26613  0.46856  0.34835  1
 Br  Br12  1  0.73387  0.53144  0.84835  1
 Br  Br13  1  0.76309  0.04575  0.25000  1
 Br  Br14  1  0.26309  0.45425  0.75000  1
 Br  Br15  1  0.73691  0.54575  0.25000  1
 Br  Br16  1  0.23691  0.95425  0.75000  1
 Br  Br17  1  0.23387  0.96856  0.34835  1
 Br  Br18  1  0.73387  0.53144  0.65165  1
 Br  Br19  1  0.26613  0.46856  0.15165  1
 Br  Br20  1  0.76613  0.03144  0.84835  1
 Br  Br21  1  0.76613  0.03144  0.65165  1
 Br  Br22  1  0.26891  0.70441  0.25000  1
 Br  Br23  1  0.25116  0.70998  0.05600  1
 Br  Br24  1  0.23387  0.96856  0.15165  1
 Br  Br25  1  0.24449  0.45994  0.55628  1
 Br  Br26  1  0.76091  0.28173  0.34836  1
 Br  Br27  1  0.23909  0.71827  0.84836  1
 Br  Br28  1  0.73909  0.78173  0.15164  1
 Br  Br29  1  0.76891  0.79559  0.75000  1
 Br  Br30  1  0.23909  0.71827  0.65164  1
 Br  Br31  1  0.76091  0.28173  0.15164  1
 Br  Br32  1  0.26091  0.21827  0.84836  1
 Br  Br33  1  0.73909  0.78173  0.34836  1
 Br  Br34  1  0.75551  0.54006  0.05628  1
 Br  Br35  1  0.26091  0.21827  0.65164  1
 Br  Br36  1  0.25551  0.95994  0.55628  1
 Br  Br37  1  0.75551  0.54006  0.44372  1
 Br  Br38  1  0.24449  0.45994  0.94372  1
 Br  Br39  1  0.74449  0.04006  0.05628  1
 Br  Br40  1  0.74449  0.04006  0.44372  1
 Nb  Nb1  1  0.00300  0.87496  0.63856  1
 Nb  Nb2  1  0.50300  0.62504  0.13856  1
 Nb  Nb3  1  0.00300  0.87496  0.86144  1
 Nb  Nb4  1  0.49700  0.37496  0.63856  1
 Nb  Nb5  1  0.50300  0.62504  0.36144  1
 Nb  Nb6  1  0.49700  0.37496  0.86144  1
 Nb  Nb7  1  0.99700  0.12504  0.13856  1
 Nb  Nb8  1  0.99700  0.12504  0.36144  1
