CIF file written using JARVIS-Tools package.
data_BaSn3Au
_symmetry_space_group_name_H-M  'I4mm'
_cell_length_a       5.10964
_cell_length_b       5.10964
_cell_length_c       6.6845
_cell_angle_alpha    112.47
_cell_angle_beta     112.47
_cell_angle_gamma    90

_symmetry_Int_Tables_number  107
_chemical_formula_structural  BaSn3Au
_chemical_formula_sum  BaSn3Au
_cell_volume  146.83147062037995
_cell_formula_units_Z  1
loop_
  _symmetry_equiv_pos_site_id
 _symmetry_equiv_pos_as_xyz
 1  'x, y, z'
loop_
 _atom_site_type_symbol
 _atom_site_label
 _atom_site_symmetry_multiplicity
 _atom_site_fract_x
 _atom_site_fract_y
 _atom_site_fract_z
 _atom_site_fract_occupancy
 Au  Au1  1  0.35763  0.35763  0.71526  1
 Ba  Ba1  1  -0.00046  -0.00046  -0.00091  1
 Sn  Sn1  1  0.60091  0.60091  0.20182  1
 Sn  Sn2  1  0.24990  0.74990  0.49980  1
 Sn  Sn3  1  0.74990  0.24990  0.49980  1
