CIF file written using JARVIS-Tools package.
data_YbMnO3
_symmetry_space_group_name_H-M  'P6_3cm'
_cell_length_a       5.94633
_cell_length_b       5.94632
_cell_length_c       11.5379
_cell_angle_alpha    90
_cell_angle_beta     90
_cell_angle_gamma    120

_symmetry_Int_Tables_number  185
_chemical_formula_structural  YbMnO3
_chemical_formula_sum  Yb6Mn6O8
_cell_volume  353.30870750242934
_cell_formula_units_Z  6
loop_
  _symmetry_equiv_pos_site_id
 _symmetry_equiv_pos_as_xyz
 1  'x, y, z'
loop_
 _atom_site_type_symbol
 _atom_site_label
 _atom_site_symmetry_multiplicity
 _atom_site_fract_x
 _atom_site_fract_y
 _atom_site_fract_z
 _atom_site_fract_occupancy
 Mn  Mn1  1  0.00000  0.66667  0.50030  1
 Mn  Mn2  1  0.66667  0.00000  0.50030  1
 Mn  Mn3  1  0.66667  0.66667  0.00030  1
 Mn  Mn4  1  0.33333  0.00000  0.00030  1
 Mn  Mn5  1  0.33333  0.33333  0.50030  1
 Mn  Mn6  1  -0.00000  0.33333  0.00030  1
 O  O1  1  -0.00000  0.63620  0.34656  1
 O  O2  1  0.36380  0.36380  0.34656  1
 O  O3  1  0.36380  0.00000  0.84656  1
 O  O4  1  -0.00000  0.30176  0.15442  1
 O  O5  1  0.00000  0.00000  0.47912  1
 O  O6  1  0.00000  0.00000  0.97912  1
 O  O7  1  0.33333  0.66667  0.01592  1
 O  O8  1  0.66667  0.33333  0.51592  1
 O  O9  1  0.33333  0.66667  0.51592  1
 O  O10  1  0.00000  0.36380  0.84656  1
 O  O11  1  0.63620  0.63620  0.84656  1
 O  O12  1  0.00000  0.69824  0.65442  1
 O  O13  1  0.30176  0.00000  0.15442  1
 O  O14  1  0.66667  0.33333  0.01592  1
 O  O15  1  0.30176  0.30176  0.65442  1
 O  O16  1  0.69824  0.69824  0.15442  1
 O  O17  1  0.69824  0.00000  0.65442  1
 O  O18  1  0.63620  0.00000  0.34656  1
 Yb  Yb1  1  0.00000  0.00000  0.77538  1
 Yb  Yb2  1  0.66667  0.33333  0.23291  1
 Yb  Yb3  1  0.33333  0.66667  0.73291  1
 Yb  Yb4  1  0.66667  0.33333  0.73291  1
 Yb  Yb5  1  0.33333  0.66667  0.23291  1
 Yb  Yb6  1  0.00000  0.00000  0.27538  1
