CIF file written using JARVIS-Tools package.
data_Cr2HO4
_symmetry_space_group_name_H-M  'P2/m'
_cell_length_a       4.76224
_cell_length_b       2.95266
_cell_length_c       5.12176
_cell_angle_alpha    90
_cell_angle_beta     108.991
_cell_angle_gamma    90

_symmetry_Int_Tables_number  10
_chemical_formula_structural  Cr2HO4
_chemical_formula_sum  Cr2HO4
_cell_volume  68.09857498268705
_cell_formula_units_Z  1
loop_
  _symmetry_equiv_pos_site_id
 _symmetry_equiv_pos_as_xyz
 1  'x, y, z'
loop_
 _atom_site_type_symbol
 _atom_site_label
 _atom_site_symmetry_multiplicity
 _atom_site_fract_x
 _atom_site_fract_y
 _atom_site_fract_z
 _atom_site_fract_occupancy
 Cr  Cr1  1  0.00000  0.00000  0.00000  1
 Cr  Cr2  1  -0.00000  0.50000  0.50000  1
 H  H1  1  0.50000  0.50000  0.00000  1
 O  O1  1  0.80282  0.00000  0.61210  1
 O  O2  1  0.23066  0.50000  0.90728  1
 O  O3  1  0.76934  0.50000  0.09272  1
 O  O4  1  0.19718  0.00000  0.38790  1
