CIF file written using JARVIS-Tools package.
data_MnGa2Se4
_symmetry_space_group_name_H-M  'I-4'
_cell_length_a       5.6628
_cell_length_b       5.6628
_cell_length_c       6.78044
_cell_angle_alpha    114.682
_cell_angle_beta     114.682
_cell_angle_gamma    90

_symmetry_Int_Tables_number  82
_chemical_formula_structural  MnGa2Se4
_chemical_formula_sum  MnGa2Se4
_cell_volume  175.46648797991008
_cell_formula_units_Z  1
loop_
  _symmetry_equiv_pos_site_id
 _symmetry_equiv_pos_as_xyz
 1  'x, y, z'
loop_
 _atom_site_type_symbol
 _atom_site_label
 _atom_site_symmetry_multiplicity
 _atom_site_fract_x
 _atom_site_fract_y
 _atom_site_fract_z
 _atom_site_fract_occupancy
 Ga  Ga1  1  0.50000  0.50000  0.00000  1
 Ga  Ga2  1  0.25000  0.75000  0.50000  1
 Mn  Mn1  1  0.00000  0.00000  0.00000  1
 Se  Se1  1  0.62166  0.13383  0.73116  1
 Se  Se2  1  0.10949  0.59732  0.73116  1
 Se  Se3  1  0.86617  0.89051  0.26884  1
 Se  Se4  1  0.40268  0.37834  0.26884  1
