CIF file written using JARVIS-Tools package.
data_KBeGa2
_symmetry_space_group_name_H-M  'Fm-3m'
_cell_length_a       4.86605
_cell_length_b       4.86605
_cell_length_c       4.86605
_cell_angle_alpha    120.014
_cell_angle_beta     120.014
_cell_angle_gamma    89.9762

_symmetry_Int_Tables_number  225
_chemical_formula_structural  KBeGa2
_chemical_formula_sum  KBeGa2
_cell_volume  81.45623040484793
_cell_formula_units_Z  1
loop_
  _symmetry_equiv_pos_site_id
 _symmetry_equiv_pos_as_xyz
 1  'x, y, z'
loop_
 _atom_site_type_symbol
 _atom_site_label
 _atom_site_symmetry_multiplicity
 _atom_site_fract_x
 _atom_site_fract_y
 _atom_site_fract_z
 _atom_site_fract_occupancy
 Be  Be1  1  0.75000  0.25000  0.50000  1
 Ga  Ga1  1  0.00000  0.00000  0.00000  1
 Ga  Ga2  1  0.50000  0.50000  0.00000  1
 K  K1  1  0.25000  0.75000  0.50000  1
