CIF file written using JARVIS-Tools package.
data_LiMg6Cd
_symmetry_space_group_name_H-M  'Amm2'
_cell_length_a       6.32118
_cell_length_b       6.32426
_cell_length_c       5.0182
_cell_angle_alpha    90
_cell_angle_beta     90
_cell_angle_gamma    120.016

_symmetry_Int_Tables_number  38
_chemical_formula_structural  LiMg6Cd
_chemical_formula_sum  LiMg6Cd
_cell_volume  173.70665368363487
_cell_formula_units_Z  1
loop_
  _symmetry_equiv_pos_site_id
 _symmetry_equiv_pos_as_xyz
 1  'x, y, z'
loop_
 _atom_site_type_symbol
 _atom_site_label
 _atom_site_symmetry_multiplicity
 _atom_site_fract_x
 _atom_site_fract_y
 _atom_site_fract_z
 _atom_site_fract_occupancy
 Cd  Cd1  1  0.16935  0.83467  0.25000  1
 Li  Li1  1  0.16508  0.33254  0.25000  1
 Mg  Mg1  1  0.66864  0.33208  0.25000  1
 Mg  Mg2  1  0.66864  0.83656  0.25000  1
 Mg  Mg3  1  0.32876  0.16747  0.75000  1
 Mg  Mg4  1  0.32876  0.66129  0.75000  1
 Mg  Mg5  1  0.83761  0.16881  0.75000  1
 Mg  Mg6  1  0.83315  0.66658  0.75000  1
