CIF file written using JARVIS-Tools package.
data_CuO
_symmetry_space_group_name_H-M  'I4/mmm'
_cell_length_a       6.49205
_cell_length_b       6.49205
_cell_length_c       6.49204
_cell_angle_alpha    93.7649
_cell_angle_beta     93.7649
_cell_angle_gamma    150.305

_symmetry_Int_Tables_number  139
_chemical_formula_structural  CuO
_chemical_formula_sum  Cu4O4
_cell_volume  131.02096901790605
_cell_formula_units_Z  4
loop_
  _symmetry_equiv_pos_site_id
 _symmetry_equiv_pos_as_xyz
 1  'x, y, z'
loop_
 _atom_site_type_symbol
 _atom_site_label
 _atom_site_symmetry_multiplicity
 _atom_site_fract_x
 _atom_site_fract_y
 _atom_site_fract_z
 _atom_site_fract_occupancy
 Cu  Cu1  1  0.41539  0.91539  0.83077  1
 Cu  Cu2  1  0.08461  0.91539  0.50000  1
 Cu  Cu3  1  0.41539  0.58461  0.50000  1
 Cu  Cu4  1  0.08461  0.58461  0.16923  1
 O  O1  1  0.52126  0.75000  0.77126  1
 O  O2  1  0.25000  0.02126  0.77126  1
 O  O3  1  0.25000  0.47874  0.22874  1
 O  O4  1  0.97874  0.75000  0.22874  1
