CIF file written using JARVIS-Tools package.
data_Mg6TiNb
_symmetry_space_group_name_H-M  'Amm2'
_cell_length_a       6.34449
_cell_length_b       5.81854
_cell_length_c       5.00194
_cell_angle_alpha    90
_cell_angle_beta     90
_cell_angle_gamma    117.294

_symmetry_Int_Tables_number  38
_chemical_formula_structural  Mg6TiNb
_chemical_formula_sum  Mg6TiNb
_cell_volume  164.09246269063487
_cell_formula_units_Z  1
loop_
  _symmetry_equiv_pos_site_id
 _symmetry_equiv_pos_as_xyz
 1  'x, y, z'
loop_
 _atom_site_type_symbol
 _atom_site_label
 _atom_site_symmetry_multiplicity
 _atom_site_fract_x
 _atom_site_fract_y
 _atom_site_fract_z
 _atom_site_fract_occupancy
 Mg  Mg1  1  0.65060  0.32497  0.25000  1
 Mg  Mg2  1  0.65060  0.82562  0.25000  1
 Mg  Mg3  1  0.33271  0.16342  0.75000  1
 Mg  Mg4  1  0.33271  0.66929  0.75000  1
 Mg  Mg5  1  0.86369  0.18184  0.75000  1
 Mg  Mg6  1  0.86203  0.68101  0.75000  1
 Nb  Nb1  1  0.15174  0.82587  0.25000  1
 Ti  Ti1  1  0.15594  0.32797  0.25000  1
