CIF file written using JARVIS-Tools package.
data_Mg6CrCu
_symmetry_space_group_name_H-M  'Amm2'
_cell_length_a       6.11403
_cell_length_b       6.13797
_cell_length_c       4.85095
_cell_angle_alpha    90
_cell_angle_beta     90
_cell_angle_gamma    120.13

_symmetry_Int_Tables_number  38
_chemical_formula_structural  Mg6CrCu
_chemical_formula_sum  Mg6CrCu
_cell_volume  157.44916553219284
_cell_formula_units_Z  1
loop_
  _symmetry_equiv_pos_site_id
 _symmetry_equiv_pos_as_xyz
 1  'x, y, z'
loop_
 _atom_site_type_symbol
 _atom_site_label
 _atom_site_symmetry_multiplicity
 _atom_site_fract_x
 _atom_site_fract_y
 _atom_site_fract_z
 _atom_site_fract_occupancy
 Cr  Cr1  1  0.16483  0.83241  0.25000  1
 Cu  Cu1  1  0.16715  0.33357  0.25000  1
 Mg  Mg1  1  0.66545  0.33469  0.25000  1
 Mg  Mg2  1  0.66545  0.83075  0.25000  1
 Mg  Mg3  1  0.32432  0.16373  0.75000  1
 Mg  Mg4  1  0.32432  0.66059  0.75000  1
 Mg  Mg5  1  0.84591  0.17295  0.75000  1
 Mg  Mg6  1  0.84259  0.67130  0.75000  1
