CIF file written using JARVIS-Tools package.
data_Be2HgW
_symmetry_space_group_name_H-M  'P4/mmm'
_cell_length_a       2.74592
_cell_length_b       2.74592
_cell_length_c       7.48482
_cell_angle_alpha    90
_cell_angle_beta     90
_cell_angle_gamma    90

_symmetry_Int_Tables_number  123
_chemical_formula_structural  Be2HgW
_chemical_formula_sum  Be2HgW
_cell_volume  56.43619251251815
_cell_formula_units_Z  1
loop_
  _symmetry_equiv_pos_site_id
 _symmetry_equiv_pos_as_xyz
 1  'x, y, z'
loop_
 _atom_site_type_symbol
 _atom_site_label
 _atom_site_symmetry_multiplicity
 _atom_site_fract_x
 _atom_site_fract_y
 _atom_site_fract_z
 _atom_site_fract_occupancy
 Be  Be1  1  0.00000  0.00000  0.72799  1
 Be  Be2  1  0.00000  0.00000  0.27201  1
 Hg  Hg1  1  0.50000  0.50000  0.00000  1
 W  W1  1  0.50000  0.50000  0.50000  1
