CIF file written using JARVIS-Tools package.
data_AsIF12
_symmetry_space_group_name_H-M  'Pa-3'
_cell_length_a       9.30226
_cell_length_b       9.30226
_cell_length_c       9.30226
_cell_angle_alpha    90
_cell_angle_beta     90
_cell_angle_gamma    90

_symmetry_Int_Tables_number  205
_chemical_formula_structural  AsIF12
_chemical_formula_sum  As4I4F48
_cell_volume  804.9435302047701
_cell_formula_units_Z  4
loop_
  _symmetry_equiv_pos_site_id
 _symmetry_equiv_pos_as_xyz
 1  'x, y, z'
loop_
 _atom_site_type_symbol
 _atom_site_label
 _atom_site_symmetry_multiplicity
 _atom_site_fract_x
 _atom_site_fract_y
 _atom_site_fract_z
 _atom_site_fract_occupancy
 As  As1  1  0.00000  0.00000  0.50000  1
 As  As2  1  0.00000  0.50000  0.00000  1
 As  As3  1  0.50000  0.00000  0.00000  1
 As  As4  1  0.50000  0.50000  0.50000  1
 F  F1  1  0.85579  0.93804  0.60877  1
 F  F2  1  0.06379  0.61796  0.35629  1
 F  F3  1  0.88204  0.64371  0.56379  1
 F  F4  1  0.43804  0.60877  0.64421  1
 F  F5  1  0.89123  0.35579  0.93804  1
 F  F6  1  0.11796  0.14371  0.93621  1
 F  F7  1  0.35629  0.43621  0.11796  1
 F  F8  1  0.38204  0.85629  0.43621  1
 F  F9  1  0.35579  0.93804  0.89123  1
 F  F10  1  0.06196  0.39123  0.14421  1
 F  F11  1  0.35629  0.06379  0.61796  1
 F  F12  1  0.06196  0.10877  0.64421  1
 F  F13  1  0.56196  0.10877  0.85579  1
 F  F14  1  0.56196  0.39123  0.35579  1
 F  F15  1  0.85629  0.06379  0.88204  1
 F  F16  1  0.43621  0.11796  0.35629  1
 F  F17  1  0.14421  0.43804  0.89123  1
 F  F18  1  0.64371  0.56379  0.88204  1
 F  F19  1  0.64371  0.93621  0.38204  1
 F  F20  1  0.64421  0.06196  0.10877  1
 F  F21  1  0.61796  0.35629  0.06379  1
 F  F22  1  0.10877  0.85579  0.56196  1
 F  F23  1  0.93621  0.11796  0.14371  1
 F  F24  1  0.88204  0.85629  0.06379  1
 F  F25  1  0.60877  0.64421  0.43804  1
 F  F26  1  0.93804  0.89123  0.35579  1
 F  F27  1  0.10877  0.64421  0.06196  1
 F  F28  1  0.85579  0.56196  0.10877  1
 F  F29  1  0.38204  0.64371  0.93621  1
 F  F30  1  0.14371  0.93621  0.11796  1
 F  F31  1  0.43804  0.89123  0.14421  1
 F  F32  1  0.14371  0.56379  0.61796  1
 F  F33  1  0.14421  0.06196  0.39123  1
 F  F34  1  0.39123  0.14421  0.06196  1
 F  F35  1  0.39123  0.35579  0.56196  1
 F  F36  1  0.06379  0.88204  0.85629  1
 F  F37  1  0.89123  0.14421  0.43804  1
 F  F38  1  0.56379  0.61796  0.14371  1
 F  F39  1  0.60877  0.85579  0.93804  1
 F  F40  1  0.11796  0.35629  0.43621  1
 F  F41  1  0.64421  0.43804  0.60877  1
 F  F42  1  0.43621  0.38204  0.85629  1
 F  F43  1  0.35579  0.56196  0.39123  1
 F  F44  1  0.93804  0.60877  0.85579  1
 F  F45  1  0.61796  0.14371  0.56379  1
 F  F46  1  0.93621  0.38204  0.64371  1
 F  F47  1  0.85629  0.43621  0.38204  1
 F  F48  1  0.56379  0.88204  0.64371  1
 I  I1  1  0.00000  0.50000  0.50000  1
 I  I2  1  0.50000  0.50000  0.00000  1
 I  I3  1  0.50000  0.00000  0.50000  1
 I  I4  1  0.00000  0.00000  0.00000  1
