CIF file written using JARVIS-Tools package.
data_CaMg6V
_symmetry_space_group_name_H-M  'Amm2'
_cell_length_a       6.39991
_cell_length_b       6.3999
_cell_length_c       5.05809
_cell_angle_alpha    90
_cell_angle_beta     90
_cell_angle_gamma    118.467

_symmetry_Int_Tables_number  38
_chemical_formula_structural  CaMg6V
_chemical_formula_sum  CaMg6V
_cell_volume  182.12362379332194
_cell_formula_units_Z  1
loop_
  _symmetry_equiv_pos_site_id
 _symmetry_equiv_pos_as_xyz
 1  'x, y, z'
loop_
 _atom_site_type_symbol
 _atom_site_label
 _atom_site_symmetry_multiplicity
 _atom_site_fract_x
 _atom_site_fract_y
 _atom_site_fract_z
 _atom_site_fract_occupancy
 Ca  Ca1  1  0.16197  0.33803  0.25000  1
 Mg  Mg1  1  0.18172  0.86263  0.25000  1
 Mg  Mg2  1  0.63737  0.31828  0.25000  1
 Mg  Mg3  1  0.66583  0.83417  0.25000  1
 Mg  Mg4  1  0.34498  0.67796  0.75000  1
 Mg  Mg5  1  0.82204  0.15502  0.75000  1
 Mg  Mg6  1  0.84228  0.65772  0.75000  1
 V  V1  1  0.34380  0.15620  0.75000  1
