CIF file written using JARVIS-Tools package.
data_SiRu
_symmetry_space_group_name_H-M  'P2_13'
_cell_length_a       4.76303
_cell_length_b       4.76303
_cell_length_c       4.76303
_cell_angle_alpha    90
_cell_angle_beta     90
_cell_angle_gamma    90

_symmetry_Int_Tables_number  198
_chemical_formula_structural  SiRu
_chemical_formula_sum  Si4Ru4
_cell_volume  108.05629256022254
_cell_formula_units_Z  4
loop_
  _symmetry_equiv_pos_site_id
 _symmetry_equiv_pos_as_xyz
 1  'x, y, z'
loop_
 _atom_site_type_symbol
 _atom_site_label
 _atom_site_symmetry_multiplicity
 _atom_site_fract_x
 _atom_site_fract_y
 _atom_site_fract_z
 _atom_site_fract_occupancy
 Ru  Ru1  1  0.87300  0.62700  0.37300  1
 Ru  Ru2  1  0.62700  0.37300  0.87300  1
 Ru  Ru3  1  0.37300  0.87300  0.62700  1
 Ru  Ru4  1  0.12700  0.12700  0.12700  1
 Si  Si1  1  0.16335  0.33665  0.66335  1
 Si  Si2  1  0.33665  0.66335  0.16335  1
 Si  Si3  1  0.66335  0.16335  0.33665  1
 Si  Si4  1  0.83665  0.83665  0.83665  1
