CIF file written using JARVIS-Tools package.
data_SiO2
_symmetry_space_group_name_H-M  'Pc'
_cell_length_a       4.30426
_cell_length_b       4.26892
_cell_length_c       6.86986
_cell_angle_alpha    89.999
_cell_angle_beta     89.377
_cell_angle_gamma    89.9976

_symmetry_Int_Tables_number  7
_chemical_formula_structural  SiO2
_chemical_formula_sum  Si4O8
_cell_volume  126.2233741787366
_cell_formula_units_Z  4
loop_
  _symmetry_equiv_pos_site_id
 _symmetry_equiv_pos_as_xyz
 1  'x, y, z'
loop_
 _atom_site_type_symbol
 _atom_site_label
 _atom_site_symmetry_multiplicity
 _atom_site_fract_x
 _atom_site_fract_y
 _atom_site_fract_z
 _atom_site_fract_occupancy
 O  O1  1  0.10369  0.25378  0.71911  1
 O  O2  1  0.55497  0.20500  -0.05161  1
 O  O3  1  0.04350  0.72660  -0.05908  1
 O  O4  1  0.54434  -0.22393  0.63874  1
 O  O5  1  0.60373  0.74624  0.21914  1
 O  O6  1  0.54356  0.27340  0.44093  1
 O  O7  1  0.04430  0.22393  0.13873  1
 O  O8  1  0.05502  -0.20501  0.44840  1
 Si  Si1  1  0.79526  0.96129  0.06302  1
 Si  Si2  1  0.70820  0.62408  0.43981  1
 Si  Si3  1  0.29529  0.03872  0.56301  1
 Si  Si4  1  0.20814  0.37591  0.93979  1
