CIF file written using JARVIS-Tools package.
data_Mg6NiBi
_symmetry_space_group_name_H-M  'Amm2'
_cell_length_a       6.72913
_cell_length_b       6.72913
_cell_length_c       4.75902
_cell_angle_alpha    90
_cell_angle_beta     90
_cell_angle_gamma    124.819

_symmetry_Int_Tables_number  38
_chemical_formula_structural  Mg6NiBi
_chemical_formula_sum  Mg6NiBi
_cell_volume  176.91106663385867
_cell_formula_units_Z  1
loop_
  _symmetry_equiv_pos_site_id
 _symmetry_equiv_pos_as_xyz
 1  'x, y, z'
loop_
 _atom_site_type_symbol
 _atom_site_label
 _atom_site_symmetry_multiplicity
 _atom_site_fract_x
 _atom_site_fract_y
 _atom_site_fract_z
 _atom_site_fract_occupancy
 Bi  Bi1  1  0.33492  0.16508  0.75000  1
 Mg  Mg1  1  0.17152  0.80606  0.25000  1
 Mg  Mg2  1  0.69394  0.32848  0.25000  1
 Mg  Mg3  1  0.67101  0.82899  0.25000  1
 Mg  Mg4  1  0.32875  0.63438  0.75000  1
 Mg  Mg5  1  0.86562  0.17125  0.75000  1
 Mg  Mg6  1  0.82808  0.67192  0.75000  1
 Ni  Ni1  1  0.10617  0.39383  0.25000  1
