CIF file written using JARVIS-Tools package.
data_YSi
_symmetry_space_group_name_H-M  'P-62m'
_cell_length_a       4.0551
_cell_length_b       6.98228
_cell_length_c       6.98313
_cell_angle_alpha    119.996
_cell_angle_beta     90
_cell_angle_gamma    90

_symmetry_Int_Tables_number  189
_chemical_formula_structural  YSi
_chemical_formula_sum  Y3Si3
_cell_volume  171.23689360374757
_cell_formula_units_Z  3
loop_
  _symmetry_equiv_pos_site_id
 _symmetry_equiv_pos_as_xyz
 1  'x, y, z'
loop_
 _atom_site_type_symbol
 _atom_site_label
 _atom_site_symmetry_multiplicity
 _atom_site_fract_x
 _atom_site_fract_y
 _atom_site_fract_z
 _atom_site_fract_occupancy
 Si  Si1  1  0.00000  0.00002  -0.00000  1
 Si  Si2  1  0.50000  0.33333  0.66668  1
 Si  Si3  1  0.50000  0.66664  0.33332  1
 Y  Y1  1  0.00000  0.57272  -0.00000  1
 Y  Y2  1  0.00000  0.42723  0.42726  1
 Y  Y3  1  0.00000  0.99997  0.57274  1
