CIF file written using JARVIS-Tools package.
data_BaMg6Cr
_symmetry_space_group_name_H-M  'Amm2'
_cell_length_a       7.71755
_cell_length_b       7.71755
_cell_length_c       4.94859
_cell_angle_alpha    90
_cell_angle_beta     90
_cell_angle_gamma    131.387

_symmetry_Int_Tables_number  38
_chemical_formula_structural  BaMg6Cr
_chemical_formula_sum  BaMg6Cr
_cell_volume  221.1329294356231
_cell_formula_units_Z  1
loop_
  _symmetry_equiv_pos_site_id
 _symmetry_equiv_pos_as_xyz
 1  'x, y, z'
loop_
 _atom_site_type_symbol
 _atom_site_label
 _atom_site_symmetry_multiplicity
 _atom_site_fract_x
 _atom_site_fract_y
 _atom_site_fract_z
 _atom_site_fract_occupancy
 Ba  Ba1  1  0.21237  0.28763  0.25000  1
 Cr  Cr1  1  0.38539  0.11461  0.75000  1
 Mg  Mg1  1  0.17251  0.81206  0.25000  1
 Mg  Mg2  1  0.68794  0.32749  0.25000  1
 Mg  Mg3  1  0.61886  0.88114  0.25000  1
 Mg  Mg4  1  0.30336  0.68513  0.75000  1
 Mg  Mg5  1  0.81487  0.19664  0.75000  1
 Mg  Mg6  1  0.80470  0.69530  0.75000  1
