CIF file written using JARVIS-Tools package.
data_VFeSb
_symmetry_space_group_name_H-M  'P6_3/mmc'
_cell_length_a       4.55053
_cell_length_b       4.55053
_cell_length_c       5.33672
_cell_angle_alpha    90
_cell_angle_beta     90
_cell_angle_gamma    119.992

_symmetry_Int_Tables_number  194
_chemical_formula_structural  VFeSb
_chemical_formula_sum  V2Fe2Sb2
_cell_volume  95.71167449823822
_cell_formula_units_Z  2
loop_
  _symmetry_equiv_pos_site_id
 _symmetry_equiv_pos_as_xyz
 1  'x, y, z'
loop_
 _atom_site_type_symbol
 _atom_site_label
 _atom_site_symmetry_multiplicity
 _atom_site_fract_x
 _atom_site_fract_y
 _atom_site_fract_z
 _atom_site_fract_occupancy
 Fe  Fe1  1  0.00000  0.00000  0.50000  1
 Fe  Fe2  1  0.00000  0.00000  0.00000  1
 Sb  Sb1  1  0.66668  0.33332  0.75000  1
 Sb  Sb2  1  0.33332  0.66668  0.25000  1
 V  V1  1  0.66668  0.33332  0.25000  1
 V  V2  1  0.33332  0.66668  0.75000  1
