CIF file written using JARVIS-Tools package.
data_LiCoH24C8N8O12
_symmetry_space_group_name_H-M  'P-3m1'
_cell_length_a       8.75054
_cell_length_b       8.75054
_cell_length_c       7.09613
_cell_angle_alpha    90
_cell_angle_beta     90
_cell_angle_gamma    120

_symmetry_Int_Tables_number  164
_chemical_formula_structural  LiCoH24C8N8O12
_chemical_formula_sum  LiCoH24C8N8O2
_cell_volume  470.5673849650544
_cell_formula_units_Z  1
loop_
  _symmetry_equiv_pos_site_id
 _symmetry_equiv_pos_as_xyz
 1  'x, y, z'
loop_
 _atom_site_type_symbol
 _atom_site_label
 _atom_site_symmetry_multiplicity
 _atom_site_fract_x
 _atom_site_fract_y
 _atom_site_fract_z
 _atom_site_fract_occupancy
 C  C1  1  0.42694  0.85388  0.71106  1
 C  C2  1  0.85388  0.42694  0.28894  1
 C  C3  1  0.42694  0.57306  0.71106  1
 C  C4  1  0.66667  0.33333  0.57093  1
 C  C5  1  0.33333  0.66667  0.42907  1
 C  C6  1  0.14612  0.57306  0.71106  1
 C  C7  1  0.57306  0.14612  0.28894  1
 C  C8  1  0.57306  0.42694  0.28894  1
 Co  Co1  1  0.00000  0.00000  0.00000  1
 H  H1  1  0.26484  0.52967  0.37926  1
 H  H2  1  0.64358  0.08071  0.34209  1
 H  H3  1  0.42664  0.85328  0.86528  1
 H  H4  1  0.52967  0.26484  0.62074  1
 H  H5  1  0.73516  0.47033  0.62074  1
 H  H6  1  0.43713  0.35642  0.34209  1
 H  H7  1  0.35642  0.91929  0.65791  1
 H  H8  1  0.26484  0.73516  0.37926  1
 H  H9  1  0.56287  0.91929  0.65791  1
 H  H10  1  0.57336  0.42664  0.13472  1
 H  H11  1  0.57336  0.14672  0.13472  1
 H  H12  1  0.43713  0.08071  0.34209  1
 H  H13  1  0.56287  0.64358  0.65791  1
 H  H14  1  0.35642  0.43713  0.65791  1
 H  H15  1  0.47033  0.73516  0.37926  1
 H  H16  1  0.73516  0.26484  0.62074  1
 H  H17  1  0.85328  0.42664  0.13472  1
 H  H18  1  0.08071  0.64358  0.65791  1
 H  H19  1  0.64358  0.56287  0.34209  1
 H  H20  1  0.42664  0.57336  0.86528  1
 H  H21  1  0.14672  0.57336  0.86528  1
 H  H22  1  0.08071  0.43713  0.65791  1
 H  H23  1  0.91929  0.56287  0.34209  1
 H  H24  1  0.91929  0.35642  0.34209  1
 Li  Li1  1  0.00000  0.00000  0.50000  1
 N  N1  1  0.66667  0.33333  0.35900  1
 N  N2  1  0.89106  0.78212  0.84848  1
 N  N3  1  0.89106  0.10894  0.84848  1
 N  N4  1  0.78212  0.89106  0.15152  1
 N  N5  1  0.10894  0.21788  0.15152  1
 N  N6  1  0.33333  0.66667  0.64100  1
 N  N7  1  0.10894  0.89106  0.15152  1
 N  N8  1  0.21788  0.10894  0.84848  1
 O  O1  1  0.10755  0.21509  0.32878  1
 O  O2  1  0.89245  0.78491  0.67122  1
 O  O3  1  0.63810  0.81905  0.06808  1
 O  O4  1  0.18095  0.81905  0.06808  1
 O  O5  1  0.18095  0.36190  0.06808  1
 O  O6  1  0.81905  0.18095  0.93192  1
 O  O7  1  0.21509  0.10755  0.67122  1
 O  O8  1  0.78491  0.89245  0.32878  1
 O  O9  1  0.89245  0.10755  0.67122  1
 O  O10  1  0.81905  0.63810  0.93192  1
 O  O11  1  0.10755  0.89245  0.32878  1
 O  O12  1  0.36190  0.18095  0.93192  1
