CIF file written using JARVIS-Tools package.
data_SrCeN2
_symmetry_space_group_name_H-M  'R-3m'
_cell_length_a       6.34942
_cell_length_b       6.34941
_cell_length_c       6.34941
_cell_angle_alpha    33.3138
_cell_angle_beta     33.3139
_cell_angle_gamma    33.3139

_symmetry_Int_Tables_number  166
_chemical_formula_structural  SrCeN2
_chemical_formula_sum  SrCeN2
_cell_volume  68.74981120500037
_cell_formula_units_Z  1
loop_
  _symmetry_equiv_pos_site_id
 _symmetry_equiv_pos_as_xyz
 1  'x, y, z'
loop_
 _atom_site_type_symbol
 _atom_site_label
 _atom_site_symmetry_multiplicity
 _atom_site_fract_x
 _atom_site_fract_y
 _atom_site_fract_z
 _atom_site_fract_occupancy
 Ce  Ce1  1  0.50000  0.50000  0.50000  1
 N  N1  1  0.76398  0.76398  0.76398  1
 N  N2  1  0.23602  0.23602  0.23602  1
 Sr  Sr1  1  0.00000  0.00000  0.00000  1
