CIF file written using JARVIS-Tools package.
data_LaSi3Ru
_symmetry_space_group_name_H-M  'I4mm'
_cell_length_a       4.30464
_cell_length_b       4.30464
_cell_length_c       5.85936
_cell_angle_alpha    111.551
_cell_angle_beta     111.551
_cell_angle_gamma    90

_symmetry_Int_Tables_number  107
_chemical_formula_structural  LaSi3Ru
_chemical_formula_sum  LaSi3Ru
_cell_volume  92.774147808767
_cell_formula_units_Z  1
loop_
  _symmetry_equiv_pos_site_id
 _symmetry_equiv_pos_as_xyz
 1  'x, y, z'
loop_
 _atom_site_type_symbol
 _atom_site_label
 _atom_site_symmetry_multiplicity
 _atom_site_fract_x
 _atom_site_fract_y
 _atom_site_fract_z
 _atom_site_fract_occupancy
 La  La1  1  -0.00084  -0.00084  -0.00168  1
 Ru  Ru1  1  0.65584  0.65584  0.31169  1
 Si  Si1  1  0.41888  0.41888  0.83776  1
 Si  Si2  1  0.76006  0.26006  0.52012  1
 Si  Si3  1  0.26006  0.76006  0.52012  1
