CIF file written using JARVIS-Tools package.
data_Al4CoB2O10
_symmetry_space_group_name_H-M  'P2_1/c'
_cell_length_a       4.38709
_cell_length_b       7.24819
_cell_length_c       9.60141
_cell_angle_alpha    108.517
_cell_angle_beta     90
_cell_angle_gamma    90

_symmetry_Int_Tables_number  14
_chemical_formula_structural  Al4CoB2O10
_chemical_formula_sum  Al8Co2B4O20
_cell_volume  289.504125805262
_cell_formula_units_Z  2
loop_
  _symmetry_equiv_pos_site_id
 _symmetry_equiv_pos_as_xyz
 1  'x, y, z'
loop_
 _atom_site_type_symbol
 _atom_site_label
 _atom_site_symmetry_multiplicity
 _atom_site_fract_x
 _atom_site_fract_y
 _atom_site_fract_z
 _atom_site_fract_occupancy
 Al  Al1  1  0.51996  0.70274  0.33166  1
 Al  Al2  1  0.48004  0.29726  0.66834  1
 Al  Al3  1  0.00562  0.07551  0.39148  1
 Al  Al4  1  0.99438  0.92449  0.60852  1
 Al  Al5  1  0.50562  0.92449  0.10852  1
 Al  Al6  1  0.49438  0.07551  0.89148  1
 Al  Al7  1  0.01996  0.29726  0.16834  1
 Al  Al8  1  0.98004  0.70274  0.83166  1
 B  B1  1  0.57018  0.29137  0.35111  1
 B  B2  1  0.42982  0.70863  0.64889  1
 B  B3  1  0.92982  0.29137  0.85111  1
 B  B4  1  0.07018  0.70863  0.14889  1
 Co  Co1  1  0.50000  0.50000  -0.00000  1
 Co  Co2  1  0.00000  0.50000  0.50000  1
 O  O1  1  0.25910  0.28148  0.84461  1
 O  O2  1  0.74090  0.71852  0.15539  1
 O  O3  1  0.70724  0.45861  0.31456  1
 O  O4  1  0.30057  0.71105  0.50449  1
 O  O5  1  0.78340  0.88760  0.43853  1
 O  O6  1  0.69943  0.28895  0.49551  1
 O  O7  1  0.79276  0.45861  0.81456  1
 O  O8  1  0.21660  0.11240  0.56147  1
 O  O9  1  0.75910  0.71852  0.65539  1
 O  O10  1  0.80057  0.28895  0.99551  1
 O  O11  1  0.29276  0.54139  0.68544  1
 O  O12  1  0.19943  0.71105  0.00449  1
 O  O13  1  0.75828  0.12046  0.74290  1
 O  O14  1  0.24090  0.28148  0.34461  1
 O  O15  1  0.20724  0.54139  0.18544  1
 O  O16  1  0.28340  0.11240  0.06147  1
 O  O17  1  0.25828  0.87954  0.75710  1
 O  O18  1  0.74172  0.12046  0.24290  1
 O  O19  1  0.71660  0.88760  0.93853  1
 O  O20  1  0.24172  0.87954  0.25710  1
