CIF file written using JARVIS-Tools package.
data_ScGe
_symmetry_space_group_name_H-M  'Cmcm'
_cell_length_a       3.7906
_cell_length_b       4.00357
_cell_length_c       5.43574
_cell_angle_alpha    111.609
_cell_angle_beta     90
_cell_angle_gamma    90

_symmetry_Int_Tables_number  63
_chemical_formula_structural  ScGe
_chemical_formula_sum  Sc2Ge2
_cell_volume  76.69507736261949
_cell_formula_units_Z  2
loop_
  _symmetry_equiv_pos_site_id
 _symmetry_equiv_pos_as_xyz
 1  'x, y, z'
loop_
 _atom_site_type_symbol
 _atom_site_label
 _atom_site_symmetry_multiplicity
 _atom_site_fract_x
 _atom_site_fract_y
 _atom_site_fract_z
 _atom_site_fract_occupancy
 Ge  Ge1  1  0.75000  0.40782  0.81565  1
 Ge  Ge2  1  0.25000  0.59218  0.18435  1
 Sc  Sc1  1  0.75000  0.13531  0.27063  1
 Sc  Sc2  1  0.25000  0.86469  0.72937  1
