CIF file written using JARVIS-Tools package.
data_UCoGe
_symmetry_space_group_name_H-M  'Cmcm'
_cell_length_a       3.97192
_cell_length_b       3.97192
_cell_length_c       7.21294
_cell_angle_alpha    90
_cell_angle_beta     90
_cell_angle_gamma    112.337

_symmetry_Int_Tables_number  63
_chemical_formula_structural  UCoGe
_chemical_formula_sum  U2Co2Ge2
_cell_volume  105.25402271949483
_cell_formula_units_Z  2
loop_
  _symmetry_equiv_pos_site_id
 _symmetry_equiv_pos_as_xyz
 1  'x, y, z'
loop_
 _atom_site_type_symbol
 _atom_site_label
 _atom_site_symmetry_multiplicity
 _atom_site_fract_x
 _atom_site_fract_y
 _atom_site_fract_z
 _atom_site_fract_occupancy
 Co  Co1  1  0.72514  0.27486  0.75000  1
 Co  Co2  1  0.27486  0.72514  0.25000  1
 Ge  Ge1  1  0.36135  0.63865  0.75000  1
 Ge  Ge2  1  0.63865  0.36135  0.25000  1
 U  U1  1  0.00000  0.00000  0.50000  1
 U  U2  1  0.00000  0.00000  0.00000  1
