CIF file written using JARVIS-Tools package.
data_Mg2PClO4
_symmetry_space_group_name_H-M  'Pna2_1'
_cell_length_a       4.83133
_cell_length_b       7.93631
_cell_length_c       10.9796
_cell_angle_alpha    90
_cell_angle_beta     90
_cell_angle_gamma    90

_symmetry_Int_Tables_number  33
_chemical_formula_structural  Mg2PClO4
_chemical_formula_sum  Mg8P4Cl4O6
_cell_volume  420.9912795674137
_cell_formula_units_Z  4
loop_
  _symmetry_equiv_pos_site_id
 _symmetry_equiv_pos_as_xyz
 1  'x, y, z'
loop_
 _atom_site_type_symbol
 _atom_site_label
 _atom_site_symmetry_multiplicity
 _atom_site_fract_x
 _atom_site_fract_y
 _atom_site_fract_z
 _atom_site_fract_occupancy
 Cl  Cl1  1  0.75870  0.62126  0.93639  1
 Cl  Cl2  1  0.25870  0.37874  0.06361  1
 Cl  Cl3  1  0.25870  0.12126  0.56361  1
 Cl  Cl4  1  0.75870  0.87874  0.43639  1
 Mg  Mg1  1  0.50051  0.59811  0.37859  1
 Mg  Mg2  1  0.00051  0.09811  0.12141  1
 Mg  Mg3  1  0.50812  0.16285  0.37346  1
 Mg  Mg4  1  0.50812  0.33715  0.87346  1
 Mg  Mg5  1  0.00812  0.66285  0.12654  1
 Mg  Mg6  1  0.00051  0.40189  0.62141  1
 Mg  Mg7  1  0.00812  0.83715  0.62654  1
 Mg  Mg8  1  0.50051  0.90189  0.87859  1
 O  O1  1  0.84659  0.27914  0.76621  1
 O  O2  1  0.34669  0.45919  0.72979  1
 O  O3  1  0.34659  0.77914  0.73379  1
 O  O4  1  0.76999  0.62022  0.65146  1
 O  O5  1  0.84659  0.22086  0.26621  1
 O  O6  1  0.79526  0.12383  0.95845  1
 O  O7  1  0.76999  0.87978  0.15146  1
 O  O8  1  0.84669  0.54081  0.27021  1
 O  O9  1  0.79526  0.37617  0.45845  1
 O  O10  1  0.29526  0.62383  0.54155  1
 O  O11  1  0.26999  0.12022  0.84854  1
 O  O12  1  0.29526  0.87617  0.04155  1
 O  O13  1  0.84669  0.95919  0.77021  1
 O  O14  1  0.26999  0.37978  0.34854  1
 O  O15  1  0.34659  0.72086  0.23379  1
 O  O16  1  0.34669  0.04081  0.22979  1
 P  P1  1  0.45303  0.62070  0.66662  1
 P  P2  1  0.95303  0.37930  0.33338  1
 P  P3  1  0.45303  0.87930  0.16662  1
 P  P4  1  0.95303  0.12070  0.83338  1
