CIF file written using JARVIS-Tools package.
data_Y2CI2
_symmetry_space_group_name_H-M  'P-3m1'
_cell_length_a       3.86168
_cell_length_b       3.86168
_cell_length_c       10.4842
_cell_angle_alpha    90
_cell_angle_beta     90
_cell_angle_gamma    120

_symmetry_Int_Tables_number  164
_chemical_formula_structural  Y2CI2
_chemical_formula_sum  Y2CI2
_cell_volume  135.40021374317604
_cell_formula_units_Z  1
loop_
  _symmetry_equiv_pos_site_id
 _symmetry_equiv_pos_as_xyz
 1  'x, y, z'
loop_
 _atom_site_type_symbol
 _atom_site_label
 _atom_site_symmetry_multiplicity
 _atom_site_fract_x
 _atom_site_fract_y
 _atom_site_fract_z
 _atom_site_fract_occupancy
 C  C1  1  0.00000  0.00000  0.00000  1
 I  I1  1  0.33333  0.66667  0.66909  1
 I  I2  1  0.66667  0.33333  0.33091  1
 Y  Y1  1  0.33333  0.66667  0.12522  1
 Y  Y2  1  0.66667  0.33333  0.87478  1
