CIF file written using JARVIS-Tools package.
data_CeGe3Rh
_symmetry_space_group_name_H-M  'I4mm'
_cell_length_a       4.42889
_cell_length_b       4.42889
_cell_length_c       5.90769
_cell_angle_alpha    112.014
_cell_angle_beta     112.014
_cell_angle_gamma    90

_symmetry_Int_Tables_number  107
_chemical_formula_structural  CeGe3Rh
_chemical_formula_sum  CeGe3Rh
_cell_volume  98.25819007343972
_cell_formula_units_Z  1
loop_
  _symmetry_equiv_pos_site_id
 _symmetry_equiv_pos_as_xyz
 1  'x, y, z'
loop_
 _atom_site_type_symbol
 _atom_site_label
 _atom_site_symmetry_multiplicity
 _atom_site_fract_x
 _atom_site_fract_y
 _atom_site_fract_z
 _atom_site_fract_occupancy
 Ce  Ce1  1  0.57554  0.57554  0.15108  1
 Ge  Ge1  1  0.84211  0.34211  0.68423  1
 Ge  Ge2  1  0.34211  0.84211  0.68423  1
 Ge  Ge3  1  0.00139  0.00139  0.00277  1
 Rh  Rh1  1  0.24005  0.24005  0.48010  1
