CIF file written using JARVIS-Tools package.
data_Cr2CoSe4
_symmetry_space_group_name_H-M  'C2/m'
_cell_length_a       3.65541
_cell_length_b       6.31057
_cell_length_c       6.56954
_cell_angle_alpha    117.572
_cell_angle_beta     106.153
_cell_angle_gamma    90

_symmetry_Int_Tables_number  12
_chemical_formula_structural  Cr2CoSe4
_chemical_formula_sum  Cr2CoSe4
_cell_volume  127.54575974235064
_cell_formula_units_Z  1
loop_
  _symmetry_equiv_pos_site_id
 _symmetry_equiv_pos_as_xyz
 1  'x, y, z'
loop_
 _atom_site_type_symbol
 _atom_site_label
 _atom_site_symmetry_multiplicity
 _atom_site_fract_x
 _atom_site_fract_y
 _atom_site_fract_z
 _atom_site_fract_occupancy
 Co  Co1  1  0.00000  0.00000  0.00000  1
 Cr  Cr1  1  0.74036  0.72045  0.48071  1
 Cr  Cr2  1  0.25964  0.27955  0.51929  1
 Se  Se1  1  0.62776  0.97061  0.25553  1
 Se  Se2  1  0.37224  0.02939  0.74447  1
 Se  Se3  1  0.88468  0.55471  0.76936  1
 Se  Se4  1  0.11532  0.44529  0.23064  1
