CIF file written using JARVIS-Tools package.
data_LiVFeP2O8F2
_symmetry_space_group_name_H-M  'P1'
_cell_length_a       5.08021
_cell_length_b       5.29767
_cell_length_c       7.35264
_cell_angle_alpha    72.878
_cell_angle_beta     70.4342
_cell_angle_gamma    96.9204

_symmetry_Int_Tables_number  1
_chemical_formula_structural  LiVFeP2O8F2
_chemical_formula_sum  LiVFeP2O8F2
_cell_volume  172.83943792190826
_cell_formula_units_Z  1
loop_
  _symmetry_equiv_pos_site_id
 _symmetry_equiv_pos_as_xyz
 1  'x, y, z'
loop_
 _atom_site_type_symbol
 _atom_site_label
 _atom_site_symmetry_multiplicity
 _atom_site_fract_x
 _atom_site_fract_y
 _atom_site_fract_z
 _atom_site_fract_occupancy
 F  F1  1  0.87189  0.06206  0.25707  1
 F  F2  1  0.12754  0.94634  0.74144  1
 Fe  Fe1  1  0.00050  -0.00637  0.50612  1
 Li  Li1  1  0.75639  0.38824  0.17368  1
 O  O1  1  0.35518  0.21479  0.91722  1
 O  O2  1  0.75999  0.23705  0.59475  1
 O  O3  1  0.68274  0.66651  0.67443  1
 O  O4  1  0.10702  0.66583  0.12857  1
 O  O5  1  0.85421  0.31675  -0.10247  1
 O  O6  1  0.32766  0.33739  0.32634  1
 O  O7  1  0.25251  0.77665  0.39930  1
 O  O8  1  0.63697  0.77482  0.07712  1
 P  P1  1  0.67503  0.36586  0.75946  1
 P  P2  1  0.31928  0.63720  0.24075  1
 V  V1  1  0.00289  0.00145  0.99480  1
