CIF file written using JARVIS-Tools package.
data_Mg2B2O5
_symmetry_space_group_name_H-M  'P2_1/c'
_cell_length_a       3.12268
_cell_length_b       9.25237
_cell_length_c       12.4575
_cell_angle_alpha    104.832
_cell_angle_beta     90
_cell_angle_gamma    90

_symmetry_Int_Tables_number  14
_chemical_formula_structural  Mg2B2O5
_chemical_formula_sum  Mg8B8O20
_cell_volume  347.9343223114755
_cell_formula_units_Z  4
loop_
  _symmetry_equiv_pos_site_id
 _symmetry_equiv_pos_as_xyz
 1  'x, y, z'
loop_
 _atom_site_type_symbol
 _atom_site_label
 _atom_site_symmetry_multiplicity
 _atom_site_fract_x
 _atom_site_fract_y
 _atom_site_fract_z
 _atom_site_fract_occupancy
 B  B1  1  0.81082  0.85730  0.09135  1
 B  B2  1  0.16349  0.66761  0.19029  1
 B  B3  1  0.18918  0.14270  0.90865  1
 B  B4  1  0.31082  0.14270  0.40865  1
 B  B5  1  0.83651  0.33239  0.80971  1
 B  B6  1  0.66349  0.33239  0.30971  1
 B  B7  1  0.33651  0.66761  0.69029  1
 B  B8  1  0.68918  0.85730  0.59135  1
 Mg  Mg1  1  0.23139  0.14799  0.64513  1
 Mg  Mg2  1  0.73139  0.85201  0.85487  1
 Mg  Mg3  1  0.74475  0.39742  0.06266  1
 Mg  Mg4  1  0.24475  0.60258  0.43734  1
 Mg  Mg5  1  0.75525  0.39742  0.56266  1
 Mg  Mg6  1  0.26861  0.14799  0.14513  1
 Mg  Mg7  1  0.76861  0.85201  0.35487  1
 Mg  Mg8  1  0.25525  0.60258  0.93734  1
 O  O1  1  0.25324  0.24073  0.51102  1
 O  O2  1  0.73146  0.32274  0.70216  1
 O  O3  1  0.26822  0.99318  0.38698  1
 O  O4  1  0.76854  0.32274  0.20216  1
 O  O5  1  0.07188  0.20302  0.81854  1
 O  O6  1  0.73178  0.00682  0.61302  1
 O  O7  1  0.25258  0.55472  0.59786  1
 O  O8  1  0.23178  0.99318  0.88698  1
 O  O9  1  0.42812  0.20302  0.31854  1
 O  O10  1  0.23146  0.67726  0.79784  1
 O  O11  1  0.24676  0.24073  0.01102  1
 O  O12  1  0.74742  0.44528  0.40214  1
 O  O13  1  0.92812  0.79698  0.18146  1
 O  O14  1  0.24742  0.55472  0.09786  1
 O  O15  1  0.75324  0.75927  0.98898  1
 O  O16  1  0.75258  0.44528  0.90214  1
 O  O17  1  0.26854  0.67726  0.29784  1
 O  O18  1  0.57188  0.79698  0.68146  1
 O  O19  1  0.76822  0.00682  0.11302  1
 O  O20  1  0.74676  0.75927  0.48898  1
