CIF file written using JARVIS-Tools package.
data_Mo3WSe4S4
_symmetry_space_group_name_H-M  'P3m1'
_cell_length_a       3.25779
_cell_length_b       3.25779
_cell_length_c       34.7268
_cell_angle_alpha    89.9959
_cell_angle_beta     90.0042
_cell_angle_gamma    120

_symmetry_Int_Tables_number  156
_chemical_formula_structural  Mo3WSe4S4
_chemical_formula_sum  Mo3WSe4S4
_cell_volume  319.18429588290917
_cell_formula_units_Z  1
loop_
  _symmetry_equiv_pos_site_id
 _symmetry_equiv_pos_as_xyz
 1  'x, y, z'
loop_
 _atom_site_type_symbol
 _atom_site_label
 _atom_site_symmetry_multiplicity
 _atom_site_fract_x
 _atom_site_fract_y
 _atom_site_fract_z
 _atom_site_fract_occupancy
 Mo  Mo1  1  0.33329  0.66664  0.09501  1
 Mo  Mo2  1  0.66666  0.33330  0.27967  1
 Mo  Mo3  1  0.66670  0.33335  0.65661  1
 S  S1  1  0.33339  0.66667  0.70109  1
 S  S2  1  0.66662  0.33335  0.05054  1
 S  S3  1  0.66664  0.33328  0.13954  1
 S  S4  1  0.33336  0.66671  0.61208  1
 Se  Se1  1  0.33334  0.66661  0.32857  1
 Se  Se2  1  0.66666  0.33338  0.42241  1
 Se  Se3  1  0.66670  0.33334  0.52082  1
 Se  Se4  1  0.33331  0.66666  0.23078  1
 W  W1  1  0.33335  0.66670  0.47162  1
