CIF file written using JARVIS-Tools package.
data_Mg6CdW
_symmetry_space_group_name_H-M  'Amm2'
_cell_length_a       6.01559
_cell_length_b       6.01558
_cell_length_c       4.55881
_cell_angle_alpha    90
_cell_angle_beta     90
_cell_angle_gamma    103.829

_symmetry_Int_Tables_number  38
_chemical_formula_structural  Mg6CdW
_chemical_formula_sum  Mg6CdW
_cell_volume  160.18836253272286
_cell_formula_units_Z  1
loop_
  _symmetry_equiv_pos_site_id
 _symmetry_equiv_pos_as_xyz
 1  'x, y, z'
loop_
 _atom_site_type_symbol
 _atom_site_label
 _atom_site_symmetry_multiplicity
 _atom_site_fract_x
 _atom_site_fract_y
 _atom_site_fract_z
 _atom_site_fract_occupancy
 Cd  Cd1  1  0.33200  0.16800  0.75000  1
 Mg  Mg1  1  0.15700  0.88768  0.25000  1
 Mg  Mg2  1  0.61232  0.34300  0.25000  1
 Mg  Mg3  1  0.65800  0.84200  0.25000  1
 Mg  Mg4  1  0.37690  0.64591  0.75000  1
 Mg  Mg5  1  0.85409  0.12310  0.75000  1
 Mg  Mg6  1  0.89582  0.60418  0.75000  1
 W  W1  1  0.11388  0.38612  0.25000  1
