CIF file written using JARVIS-Tools package.
data_ZrH6NOF5
_symmetry_space_group_name_H-M  'P2_1/c'
_cell_length_a       10.3086
_cell_length_b       7.64116
_cell_length_c       6.81662
_cell_angle_alpha    90
_cell_angle_beta     76.7287
_cell_angle_gamma    90

_symmetry_Int_Tables_number  14
_chemical_formula_structural  ZrH6NOF5
_chemical_formula_sum  Zr4H24N4O4F20
_cell_volume  522.602941789258
_cell_formula_units_Z  4
loop_
  _symmetry_equiv_pos_site_id
 _symmetry_equiv_pos_as_xyz
 1  'x, y, z'
loop_
 _atom_site_type_symbol
 _atom_site_label
 _atom_site_symmetry_multiplicity
 _atom_site_fract_x
 _atom_site_fract_y
 _atom_site_fract_z
 _atom_site_fract_occupancy
 F  F1  1  0.91183  0.10088  0.48382  1
 F  F2  1  0.89782  0.79283  0.80702  1
 F  F3  1  0.08817  0.89912  0.51618  1
 F  F4  1  0.58817  0.60088  0.01618  1
 F  F5  1  0.12535  0.20137  0.68085  1
 F  F6  1  0.62535  0.29863  0.18085  1
 F  F7  1  0.87465  0.79863  0.31915  1
 F  F8  1  0.37465  0.70137  0.81915  1
 F  F9  1  0.89006  0.30769  0.82732  1
 F  F10  1  0.10994  0.69231  0.17268  1
 F  F11  1  0.39006  0.19231  0.32732  1
 F  F12  1  0.39782  0.70717  0.30702  1
 F  F13  1  0.10218  0.20717  0.19298  1
 F  F14  1  0.60218  0.29283  0.69298  1
 F  F15  1  0.89794  0.06762  0.08835  1
 F  F16  1  0.39794  0.43238  0.58835  1
 F  F17  1  0.10206  0.93238  0.91165  1
 F  F18  1  0.60206  0.56762  0.41165  1
 F  F19  1  0.41183  0.39912  0.98382  1
 F  F20  1  0.60994  0.80769  0.67268  1
 H  H1  1  0.33133  0.04275  0.90447  1
 H  H2  1  0.83133  0.45725  0.40447  1
 H  H3  1  0.68530  0.15086  0.79985  1
 H  H4  1  0.31470  0.84914  0.20015  1
 H  H5  1  0.19005  0.55579  0.26187  1
 H  H6  1  0.71267  0.87931  0.30403  1
 H  H7  1  0.78733  0.37931  0.19597  1
 H  H8  1  0.28733  0.12069  0.69597  1
 H  H9  1  0.05399  0.65029  0.77679  1
 H  H10  1  0.55399  0.84971  0.27679  1
 H  H11  1  0.94601  0.34971  0.22321  1
 H  H12  1  0.44601  0.15029  0.72321  1
 H  H13  1  0.10902  0.44474  0.81247  1
 H  H14  1  0.60902  0.05526  0.31247  1
 H  H15  1  0.89098  0.55526  0.18753  1
 H  H16  1  0.39098  0.94474  0.68753  1
 H  H17  1  0.18530  0.34914  0.29985  1
 H  H18  1  0.66867  0.95725  0.09553  1
 H  H19  1  0.21267  0.62069  0.80403  1
 H  H20  1  0.80995  0.44421  0.73813  1
 H  H21  1  0.81470  0.65086  0.70015  1
 H  H22  1  0.69005  0.94421  0.76187  1
 H  H23  1  0.30995  0.05579  0.23813  1
 H  H24  1  0.16867  0.54275  0.59553  1
 N  N1  1  0.36491  0.06627  0.75038  1
 N  N2  1  0.13509  0.56627  0.74962  1
 N  N3  1  0.63509  0.93373  0.24962  1
 N  N4  1  0.86491  0.43373  0.25038  1
 O  O1  1  0.22851  0.45909  0.33164  1
 O  O2  1  0.72851  0.04091  0.83164  1
 O  O3  1  0.77149  0.54091  0.66836  1
 O  O4  1  0.27149  0.95909  0.16836  1
 Zr  Zr1  1  0.95756  0.05362  0.76563  1
 Zr  Zr2  1  0.45756  0.44638  0.26563  1
 Zr  Zr3  1  0.04244  0.94638  0.23437  1
 Zr  Zr4  1  0.54244  0.55362  0.73437  1
