CIF file written using JARVIS-Tools package.
data_Tb3KF12
_symmetry_space_group_name_H-M  'I4/m'
_cell_length_a       6.70852
_cell_length_b       6.70852
_cell_length_c       6.70852
_cell_angle_alpha    109.775
_cell_angle_beta     109.775
_cell_angle_gamma    108.866

_symmetry_Int_Tables_number  87
_chemical_formula_structural  Tb3KF12
_chemical_formula_sum  Tb3KF2
_cell_volume  232.39271807414994
_cell_formula_units_Z  1
loop_
  _symmetry_equiv_pos_site_id
 _symmetry_equiv_pos_as_xyz
 1  'x, y, z'
loop_
 _atom_site_type_symbol
 _atom_site_label
 _atom_site_symmetry_multiplicity
 _atom_site_fract_x
 _atom_site_fract_y
 _atom_site_fract_z
 _atom_site_fract_occupancy
 F  F1  1  0.39804  0.55360  0.29936  1
 F  F2  1  0.55360  0.25424  0.15556  1
 F  F3  1  0.09868  0.39804  0.84444  1
 F  F4  1  0.25424  0.09868  0.70064  1
 F  F5  1  0.04410  0.34288  0.38698  1
 F  F6  1  0.34288  0.95590  0.29878  1
 F  F7  1  0.65712  0.04410  0.70122  1
 F  F8  1  0.95590  0.65712  0.61302  1
 F  F9  1  0.74576  0.90132  0.29936  1
 F  F10  1  0.90132  0.60196  0.15556  1
 F  F11  1  0.44640  0.74576  0.84444  1
 F  F12  1  0.60196  0.44640  0.70064  1
 K  K1  1  0.00000  0.00000  0.00000  1
 Tb  Tb1  1  0.75000  0.25000  0.50000  1
 Tb  Tb2  1  0.50000  0.50000  0.00000  1
 Tb  Tb3  1  0.25000  0.75000  0.50000  1
