CIF file written using JARVIS-Tools package.
data_LiMg6C
_symmetry_space_group_name_H-M  'Amm2'
_cell_length_a       6.65481
_cell_length_b       6.6548
_cell_length_c       3.45755
_cell_angle_alpha    90
_cell_angle_beta     90
_cell_angle_gamma    99.8739

_symmetry_Int_Tables_number  38
_chemical_formula_structural  LiMg6C
_chemical_formula_sum  LiMg6C
_cell_volume  150.85438118056774
_cell_formula_units_Z  1
loop_
  _symmetry_equiv_pos_site_id
 _symmetry_equiv_pos_as_xyz
 1  'x, y, z'
loop_
 _atom_site_type_symbol
 _atom_site_label
 _atom_site_symmetry_multiplicity
 _atom_site_fract_x
 _atom_site_fract_y
 _atom_site_fract_z
 _atom_site_fract_occupancy
 C  C1  1  0.27253  0.22747  0.75000  1
 Li  Li1  1  0.15051  0.34949  0.25000  1
 Mg  Mg1  1  0.21373  0.96417  0.25000  1
 Mg  Mg2  1  0.53583  0.28627  0.25000  1
 Mg  Mg3  1  0.65668  0.84332  0.25000  1
 Mg  Mg4  1  0.36257  0.58628  0.75000  1
 Mg  Mg5  1  0.91372  0.13743  0.75000  1
 Mg  Mg6  1  0.89442  0.60558  0.75000  1
