CIF file written using JARVIS-Tools package.
data_BaHfP2O8
_symmetry_space_group_name_H-M  'C2/m'
_cell_length_a       5.03374
_cell_length_b       5.03383
_cell_length_c       7.90345
_cell_angle_alpha    86.9256
_cell_angle_beta     86.9271
_cell_angle_gamma    64.1002

_symmetry_Int_Tables_number  12
_chemical_formula_structural  BaHfP2O8
_chemical_formula_sum  BaHfP2O8
_cell_volume  179.7898630301577
_cell_formula_units_Z  1
loop_
  _symmetry_equiv_pos_site_id
 _symmetry_equiv_pos_as_xyz
 1  'x, y, z'
loop_
 _atom_site_type_symbol
 _atom_site_label
 _atom_site_symmetry_multiplicity
 _atom_site_fract_x
 _atom_site_fract_y
 _atom_site_fract_z
 _atom_site_fract_occupancy
 Ba  Ba1  1  -0.00000  0.00000  0.50000  1
 Hf  Hf1  1  -0.00000  0.00000  0.00000  1
 O  O1  1  0.76888  0.29587  0.18895  1
 O  O2  1  0.22969  0.22968  0.91935  1
 O  O3  1  0.31413  0.31414  0.60046  1
 O  O4  1  0.68587  0.68586  0.39954  1
 O  O5  1  0.77031  0.77032  0.08065  1
 O  O6  1  0.29588  0.76888  0.18895  1
 O  O7  1  0.70412  0.23112  0.81105  1
 O  O8  1  0.23112  0.70413  0.81105  1
 P  P1  1  0.36540  0.36541  0.78126  1
 P  P2  1  0.63460  0.63459  0.21874  1
