CIF file written using JARVIS-Tools package.
data_CeSe2
_symmetry_space_group_name_H-M  'R-3m'
_cell_length_a       4.2621
_cell_length_b       4.2621
_cell_length_c       12.1029
_cell_angle_alpha    79.8587
_cell_angle_beta     79.8587
_cell_angle_gamma    60

_symmetry_Int_Tables_number  166
_chemical_formula_structural  CeSe2
_chemical_formula_sum  Ce2Se4
_cell_volume  186.4241340300258
_cell_formula_units_Z  2
loop_
  _symmetry_equiv_pos_site_id
 _symmetry_equiv_pos_as_xyz
 1  'x, y, z'
loop_
 _atom_site_type_symbol
 _atom_site_label
 _atom_site_symmetry_multiplicity
 _atom_site_fract_x
 _atom_site_fract_y
 _atom_site_fract_z
 _atom_site_fract_occupancy
 Ce  Ce1  1  0.08446  0.08446  0.74662  1
 Ce  Ce2  1  0.91554  0.91554  0.25338  1
 Se  Se1  1  0.20786  0.20786  0.37642  1
 Se  Se2  1  0.79214  0.79214  0.62358  1
 Se  Se3  1  0.37651  0.37651  0.87048  1
 Se  Se4  1  0.62349  0.62349  0.12952  1
