CIF file written using JARVIS-Tools package.
data_Ga2Ru
_symmetry_space_group_name_H-M  'Fddd'
_cell_length_a       4.78817
_cell_length_b       4.78817
_cell_length_c       4.97968
_cell_angle_alpha    103.871
_cell_angle_beta     103.871
_cell_angle_gamma    120.088

_symmetry_Int_Tables_number  70
_chemical_formula_structural  Ga2Ru
_chemical_formula_sum  Ga4Ru2
_cell_volume  86.652811751869
_cell_formula_units_Z  2
loop_
  _symmetry_equiv_pos_site_id
 _symmetry_equiv_pos_as_xyz
 1  'x, y, z'
loop_
 _atom_site_type_symbol
 _atom_site_label
 _atom_site_symmetry_multiplicity
 _atom_site_fract_x
 _atom_site_fract_y
 _atom_site_fract_z
 _atom_site_fract_occupancy
 Ga  Ga1  1  0.95525  0.54475  0.75000  1
 Ga  Ga2  1  0.29475  0.20525  0.75000  1
 Ga  Ga3  1  0.04475  0.45525  0.25000  1
 Ga  Ga4  1  0.70525  0.79475  0.25000  1
 Ru  Ru1  1  0.62500  0.87500  0.75000  1
 Ru  Ru2  1  0.37500  0.12500  0.25000  1
