CIF file written using JARVIS-Tools package.
data_CdN2Cl2
_symmetry_space_group_name_H-M  'Cmmm'
_cell_length_a       3.73974
_cell_length_b       5.48535
_cell_length_c       5.48535
_cell_angle_alpha    96.8119
_cell_angle_beta     90
_cell_angle_gamma    90

_symmetry_Int_Tables_number  65
_chemical_formula_structural  CdN2Cl2
_chemical_formula_sum  CdN2Cl2
_cell_volume  111.73079846182982
_cell_formula_units_Z  1
loop_
  _symmetry_equiv_pos_site_id
 _symmetry_equiv_pos_as_xyz
 1  'x, y, z'
loop_
 _atom_site_type_symbol
 _atom_site_label
 _atom_site_symmetry_multiplicity
 _atom_site_fract_x
 _atom_site_fract_y
 _atom_site_fract_z
 _atom_site_fract_occupancy
 Cd  Cd1  1  0.00000  0.00000  0.00000  1
 Cl  Cl1  1  0.50000  0.75573  0.75573  1
 Cl  Cl2  1  0.50000  0.24427  0.24427  1
 N  N1  1  0.00000  0.30253  0.69747  1
 N  N2  1  0.00000  0.69747  0.30253  1
