CIF file written using JARVIS-Tools package.
data_NaMg6Nb
_symmetry_space_group_name_H-M  'P4/mmm'
_cell_length_a       6.27883
_cell_length_b       8.87953
_cell_length_c       4.50283
_cell_angle_alpha    90
_cell_angle_beta     90
_cell_angle_gamma    135

_symmetry_Int_Tables_number  123
_chemical_formula_structural  NaMg6Nb
_chemical_formula_sum  NaMg6Nb
_cell_volume  177.517856486647
_cell_formula_units_Z  1
loop_
  _symmetry_equiv_pos_site_id
 _symmetry_equiv_pos_as_xyz
 1  'x, y, z'
loop_
 _atom_site_type_symbol
 _atom_site_label
 _atom_site_symmetry_multiplicity
 _atom_site_fract_x
 _atom_site_fract_y
 _atom_site_fract_z
 _atom_site_fract_occupancy
 Mg  Mg1  1  0.74998  0.37496  0.25000  1
 Mg  Mg2  1  0.74998  0.87501  0.25000  1
 Mg  Mg3  1  0.24998  0.10805  0.75000  1
 Mg  Mg4  1  0.24998  0.64193  0.75000  1
 Mg  Mg5  1  0.71599  0.10800  0.75000  1
 Mg  Mg6  1  0.78403  0.64201  0.75000  1
 Na  Na1  1  0.25005  0.37502  0.25000  1
 Nb  Nb1  1  0.25001  0.87501  0.25000  1
