CIF file written using JARVIS-Tools package.
data_LuCl3O12
_symmetry_space_group_name_H-M  'R3c'
_cell_length_a       9.23828
_cell_length_b       9.23828
_cell_length_c       9.23827
_cell_angle_alpha    51.6823
_cell_angle_beta     51.6823
_cell_angle_gamma    51.6823

_symmetry_Int_Tables_number  161
_chemical_formula_structural  LuCl3O12
_chemical_formula_sum  Lu2Cl6O24
_cell_volume  448.3949390479817
_cell_formula_units_Z  2
loop_
  _symmetry_equiv_pos_site_id
 _symmetry_equiv_pos_as_xyz
 1  'x, y, z'
loop_
 _atom_site_type_symbol
 _atom_site_label
 _atom_site_symmetry_multiplicity
 _atom_site_fract_x
 _atom_site_fract_y
 _atom_site_fract_z
 _atom_site_fract_occupancy
 Cl  Cl1  1  0.34421  0.96773  0.68848  1
 Cl  Cl2  1  0.68848  0.34421  0.96773  1
 Cl  Cl3  1  0.96773  0.68848  0.34421  1
 Cl  Cl4  1  0.46773  0.84421  0.18848  1
 Cl  Cl5  1  0.18848  0.46773  0.84421  1
 Cl  Cl6  1  0.84421  0.18848  0.46773  1
 Lu  Lu1  1  0.55858  0.55858  0.55858  1
 Lu  Lu2  1  0.05858  0.05858  0.05858  1
 O  O1  1  0.49463  0.45177  0.07528  1
 O  O2  1  0.45177  0.07528  0.49463  1
 O  O3  1  0.25224  0.58276  0.62624  1
 O  O4  1  0.62624  0.25224  0.58276  1
 O  O5  1  0.27936  0.88276  0.20456  1
 O  O6  1  0.70456  0.38276  0.77936  1
 O  O7  1  0.77936  0.70456  0.38276  1
 O  O8  1  0.07528  0.49463  0.45177  1
 O  O9  1  0.20456  0.27936  0.88276  1
 O  O10  1  0.38276  0.77936  0.70456  1
 O  O11  1  0.57528  0.95177  -0.00537  1
 O  O12  1  0.91877  0.84331  0.39183  1
 O  O13  1  0.95177  -0.00537  0.57528  1
 O  O14  1  0.88276  0.20456  0.27936  1
 O  O15  1  0.39183  0.91877  0.84331  1
 O  O16  1  0.41877  0.89183  0.34331  1
 O  O17  1  0.34331  0.41877  0.89183  1
 O  O18  1  0.89183  0.34331  0.41877  1
 O  O19  1  0.12624  0.08276  0.75224  1
 O  O20  1  0.75224  0.12624  0.08276  1
 O  O21  1  0.08276  0.75224  0.12624  1
 O  O22  1  0.58276  0.62624  0.25224  1
 O  O23  1  -0.00537  0.57528  0.95177  1
 O  O24  1  0.84331  0.39183  0.91877  1
