CIF file written using JARVIS-Tools package.
data_MnGa2Se4
_symmetry_space_group_name_H-M  'I-42m'
_cell_length_a       5.49816
_cell_length_b       5.49816
_cell_length_c       6.95209
_cell_angle_alpha    113.293
_cell_angle_beta     113.293
_cell_angle_gamma    90

_symmetry_Int_Tables_number  121
_chemical_formula_structural  MnGa2Se4
_chemical_formula_sum  MnGa2Se4
_cell_volume  174.2262145623068
_cell_formula_units_Z  1
loop_
  _symmetry_equiv_pos_site_id
 _symmetry_equiv_pos_as_xyz
 1  'x, y, z'
loop_
 _atom_site_type_symbol
 _atom_site_label
 _atom_site_symmetry_multiplicity
 _atom_site_fract_x
 _atom_site_fract_y
 _atom_site_fract_z
 _atom_site_fract_occupancy
 Ga  Ga1  1  0.75000  0.25000  0.50000  1
 Ga  Ga2  1  0.25000  0.75000  0.50000  1
 Mn  Mn1  1  0.00000  0.00000  0.00000  1
 Se  Se1  1  0.85024  0.85024  0.24084  1
 Se  Se2  1  0.39060  0.39060  0.24084  1
 Se  Se3  1  0.14976  0.60940  0.75916  1
 Se  Se4  1  0.60940  0.14976  0.75916  1
