CIF file written using JARVIS-Tools package.
data_Li2CuF4
_symmetry_space_group_name_H-M  'P4/ncc'
_cell_length_a       7.4502
_cell_length_b       7.4502
_cell_length_c       5.34465
_cell_angle_alpha    90
_cell_angle_beta     90
_cell_angle_gamma    90

_symmetry_Int_Tables_number  130
_chemical_formula_structural  Li2CuF4
_chemical_formula_sum  Li8Cu4F6
_cell_volume  296.65705644288204
_cell_formula_units_Z  4
loop_
  _symmetry_equiv_pos_site_id
 _symmetry_equiv_pos_as_xyz
 1  'x, y, z'
loop_
 _atom_site_type_symbol
 _atom_site_label
 _atom_site_symmetry_multiplicity
 _atom_site_fract_x
 _atom_site_fract_y
 _atom_site_fract_z
 _atom_site_fract_occupancy
 Cu  Cu1  1  0.00000  0.50000  0.94408  1
 Cu  Cu2  1  0.00000  0.50000  0.44408  1
 Cu  Cu3  1  0.50000  0.00000  0.55592  1
 Cu  Cu4  1  0.50000  0.00000  0.05592  1
 F  F1  1  0.43140  0.75619  0.57017  1
 F  F2  1  0.25619  0.06860  0.57017  1
 F  F3  1  0.25619  0.93140  0.07017  1
 F  F4  1  0.43140  0.24381  0.07017  1
 F  F5  1  0.56860  0.24381  0.57017  1
 F  F6  1  0.06860  0.25619  0.92983  1
 F  F7  1  0.93140  0.25619  0.42983  1
 F  F8  1  0.74381  0.06860  0.07017  1
 F  F9  1  0.75619  0.43140  0.92983  1
 F  F10  1  0.24381  0.56860  0.92983  1
 F  F11  1  0.75619  0.56860  0.42983  1
 F  F12  1  0.74381  0.93140  0.57017  1
 F  F13  1  0.06860  0.74381  0.42983  1
 F  F14  1  0.24381  0.43140  0.42983  1
 F  F15  1  0.56860  0.75619  0.07017  1
 F  F16  1  0.93140  0.74381  0.92983  1
 Li  Li1  1  0.82861  0.82861  0.25000  1
 Li  Li2  1  0.17139  0.82861  0.75000  1
 Li  Li3  1  0.67139  0.67139  0.75000  1
 Li  Li4  1  0.32861  0.67139  0.25000  1
 Li  Li5  1  0.67139  0.32861  0.25000  1
 Li  Li6  1  0.32861  0.32861  0.75000  1
 Li  Li7  1  0.82861  0.17139  0.75000  1
 Li  Li8  1  0.17139  0.17139  0.25000  1
