CIF file written using JARVIS-Tools package.
data_Ta2ZnS4
_symmetry_space_group_name_H-M  'P-3m1'
_cell_length_a       3.40293
_cell_length_b       3.40292
_cell_length_c       12.3675
_cell_angle_alpha    90
_cell_angle_beta     90
_cell_angle_gamma    120

_symmetry_Int_Tables_number  164
_chemical_formula_structural  Ta2ZnS4
_chemical_formula_sum  Ta2ZnS4
_cell_volume  124.02791315498841
_cell_formula_units_Z  1
loop_
  _symmetry_equiv_pos_site_id
 _symmetry_equiv_pos_as_xyz
 1  'x, y, z'
loop_
 _atom_site_type_symbol
 _atom_site_label
 _atom_site_symmetry_multiplicity
 _atom_site_fract_x
 _atom_site_fract_y
 _atom_site_fract_z
 _atom_site_fract_occupancy
 S  S1  1  0.33333  0.66667  0.37061  1
 S  S2  1  0.66667  0.33333  0.62939  1
 S  S3  1  0.66667  0.33333  0.88158  1
 S  S4  1  0.33333  0.66667  0.11842  1
 Ta  Ta1  1  0.00000  0.00000  0.24121  1
 Ta  Ta2  1  0.00000  0.00000  0.75879  1
 Zn  Zn1  1  0.00000  0.00000  0.50000  1
