CIF file written using JARVIS-Tools package.
data_Li2Co3WO8
_symmetry_space_group_name_H-M  'P6_3mc'
_cell_length_a       5.74026
_cell_length_b       5.74025
_cell_length_c       9.31028
_cell_angle_alpha    89.9994
_cell_angle_beta     90.0004
_cell_angle_gamma    120

_symmetry_Int_Tables_number  186
_chemical_formula_structural  Li2Co3WO8
_chemical_formula_sum  Li4Co6W2O6
_cell_volume  265.67842902503713
_cell_formula_units_Z  2
loop_
  _symmetry_equiv_pos_site_id
 _symmetry_equiv_pos_as_xyz
 1  'x, y, z'
loop_
 _atom_site_type_symbol
 _atom_site_label
 _atom_site_symmetry_multiplicity
 _atom_site_fract_x
 _atom_site_fract_y
 _atom_site_fract_z
 _atom_site_fract_occupancy
 Co  Co1  1  0.16839  0.83156  0.21446  1
 Co  Co2  1  0.66311  0.83156  0.21446  1
 Co  Co3  1  0.16839  0.33685  0.21447  1
 Co  Co4  1  0.83161  0.16846  0.71447  1
 Co  Co5  1  0.83161  0.66317  0.71446  1
 Co  Co6  1  0.33689  0.16846  0.71446  1
 Li  Li1  1  0.33334  0.66668  0.90102  1
 Li  Li2  1  0.00006  0.00005  0.49590  1
 Li  Li3  1  -0.00006  -0.00001  0.99590  1
 Li  Li4  1  0.66666  0.33334  0.40102  1
 O  O1  1  0.03769  0.51885  0.33883  1
 O  O2  1  0.16776  0.83231  0.59512  1
 O  O3  1  0.96231  0.48117  0.83883  1
 O  O4  1  0.33330  0.66666  0.11247  1
 O  O5  1  0.99996  0.99999  0.30749  1
 O  O6  1  0.00004  0.00003  0.80749  1
 O  O7  1  0.16776  0.33548  0.59512  1
 O  O8  1  0.48112  0.51884  0.33881  1
 O  O9  1  0.83224  0.66454  0.09512  1
 O  O10  1  0.51888  0.48118  0.83881  1
 O  O11  1  0.51888  0.03772  0.83881  1
 O  O12  1  0.66670  0.33336  0.61247  1
 O  O13  1  0.48112  0.96230  0.33881  1
 O  O14  1  0.33541  0.16771  0.09511  1
 O  O15  1  0.66459  0.83231  0.59511  1
 O  O16  1  0.83224  0.16772  0.09512  1
 W  W1  1  0.66664  0.33333  0.99185  1
 W  W2  1  0.33336  0.66669  0.49185  1
