CIF file written using JARVIS-Tools package.
data_H8C2NCl
_symmetry_space_group_name_H-M  'Ibam'
_cell_length_a       9.36225
_cell_length_b       9.36225
_cell_length_c       9.36225
_cell_angle_alpha    81.0003
_cell_angle_beta     135.046
_cell_angle_gamma    116.664

_symmetry_Int_Tables_number  72
_chemical_formula_structural  H8C2NCl
_chemical_formula_sum  H32C8N4Cl4
_cell_volume  500.9815050347071
_cell_formula_units_Z  4
loop_
  _symmetry_equiv_pos_site_id
 _symmetry_equiv_pos_as_xyz
 1  'x, y, z'
loop_
 _atom_site_type_symbol
 _atom_site_label
 _atom_site_symmetry_multiplicity
 _atom_site_fract_x
 _atom_site_fract_y
 _atom_site_fract_z
 _atom_site_fract_occupancy
 C  C1  1  0.83226  0.02207  0.60025  1
 C  C2  1  0.07818  0.47793  0.81019  1
 C  C3  1  0.92182  0.52207  0.18981  1
 C  C4  1  0.16774  0.97793  0.39975  1
 C  C5  1  0.33226  0.73201  0.81019  1
 C  C6  1  0.57818  0.76799  0.60025  1
 C  C7  1  0.42182  0.23201  0.39975  1
 C  C8  1  0.66774  0.26799  0.18981  1
 Cl  Cl1  1  0.78771  0.13747  0.92518  1
 Cl  Cl2  1  0.28771  0.36253  0.65024  1
 Cl  Cl3  1  0.21229  0.86253  0.07482  1
 Cl  Cl4  1  0.71229  0.63747  0.34976  1
 H  H1  1  0.55288  0.64456  0.62809  1
 H  H2  1  0.98353  0.07521  0.62809  1
 H  H3  1  0.44712  0.35544  0.37191  1
 H  H4  1  0.94712  0.57521  0.09168  1
 H  H5  1  0.48353  0.85544  0.90832  1
 H  H6  1  0.01647  0.92479  0.37191  1
 H  H7  1  0.25307  0.72010  0.97317  1
 H  H8  1  0.74693  0.27990  0.02683  1
 H  H9  1  0.75307  0.77990  0.53296  1
 H  H10  1  0.92777  0.85879  0.78656  1
 H  H11  1  0.42777  0.64121  0.06898  1
 H  H12  1  0.11228  0.40209  0.76987  1
 H  H13  1  0.63222  0.34240  0.23013  1
 H  H14  1  0.86778  0.09791  0.71018  1
 H  H15  1  0.38772  0.15760  0.28982  1
 H  H16  1  0.88772  0.59791  0.23013  1
 H  H17  1  0.36778  0.65760  0.76987  1
 H  H18  1  0.13222  0.90209  0.28982  1
 H  H19  1  0.57223  0.35879  0.93102  1
 H  H20  1  0.81951  0.25814  0.33288  1
 H  H21  1  0.61228  0.84240  0.71018  1
 H  H22  1  0.57474  0.24186  0.56137  1
 H  H23  1  0.07474  0.51337  0.33288  1
 H  H24  1  0.18049  0.74186  0.66712  1
 H  H25  1  0.31951  0.98663  0.56137  1
 H  H26  1  0.42526  0.75814  0.43863  1
 H  H27  1  0.92526  0.48663  0.66712  1
 H  H28  1  0.51647  0.14456  0.09168  1
 H  H29  1  0.05288  0.42479  0.90832  1
 H  H30  1  0.07223  0.14121  0.21344  1
 H  H31  1  0.68049  0.01337  0.43863  1
 H  H32  1  0.24693  0.22010  0.46704  1
 N  N1  1  0.78065  0.85277  0.63342  1
 N  N2  1  0.21935  0.14723  0.36658  1
 N  N3  1  0.28065  0.64723  0.92788  1
 N  N4  1  0.71935  0.35277  0.07212  1
