CIF file written using JARVIS-Tools package.
data_Li2Cr3NiO8
_symmetry_space_group_name_H-M  'R3m'
_cell_length_a       5.78569
_cell_length_b       5.78569
_cell_length_c       5.78569
_cell_angle_alpha    59.9202
_cell_angle_beta     59.9202
_cell_angle_gamma    59.9202

_symmetry_Int_Tables_number  160
_chemical_formula_structural  Li2Cr3NiO8
_chemical_formula_sum  Li2Cr3NiO8
_cell_volume  136.69865357695483
_cell_formula_units_Z  1
loop_
  _symmetry_equiv_pos_site_id
 _symmetry_equiv_pos_as_xyz
 1  'x, y, z'
loop_
 _atom_site_type_symbol
 _atom_site_label
 _atom_site_symmetry_multiplicity
 _atom_site_fract_x
 _atom_site_fract_y
 _atom_site_fract_z
 _atom_site_fract_occupancy
 Cr  Cr1  1  0.00748  0.49832  0.49832  1
 Cr  Cr2  1  0.49832  0.00748  0.49832  1
 Cr  Cr3  1  0.49832  0.49832  0.00748  1
 Li  Li1  1  0.12121  0.12121  0.12121  1
 Li  Li2  1  0.49890  0.49890  0.49890  1
 Ni  Ni1  1  0.87952  0.87952  0.87952  1
 O  O1  1  0.25948  0.25948  0.25948  1
 O  O2  1  0.24961  0.24961  0.71298  1
 O  O3  1  0.24961  0.71298  0.24961  1
 O  O4  1  0.71298  0.24961  0.24961  1
 O  O5  1  0.28392  0.74911  0.74911  1
 O  O6  1  0.74911  0.28392  0.74911  1
 O  O7  1  0.74911  0.74911  0.28392  1
 O  O8  1  0.74243  0.74243  0.74243  1
