CIF file written using JARVIS-Tools package.
data_Ta2MoS6
_symmetry_space_group_name_H-M  'Cm'
_cell_length_a       5.71476
_cell_length_b       5.71476
_cell_length_c       6.40586
_cell_angle_alpha    81.4477
_cell_angle_beta     81.4477
_cell_angle_gamma    120.001

_symmetry_Int_Tables_number  8
_chemical_formula_structural  Ta2MoS6
_chemical_formula_sum  Ta2MoS6
_cell_volume  172.97568644457695
_cell_formula_units_Z  1
loop_
  _symmetry_equiv_pos_site_id
 _symmetry_equiv_pos_as_xyz
 1  'x, y, z'
loop_
 _atom_site_type_symbol
 _atom_site_label
 _atom_site_symmetry_multiplicity
 _atom_site_fract_x
 _atom_site_fract_y
 _atom_site_fract_z
 _atom_site_fract_occupancy
 Mo  Mo1  1  0.16677  0.16677  0.49980  1
 S  S1  1  0.58030  0.25168  0.24506  1
 S  S2  1  0.25168  0.58030  0.24506  1
 S  S3  1  0.92303  0.92303  0.24518  1
 S  S4  1  0.75324  0.75324  0.75519  1
 S  S5  1  0.40999  0.08147  0.75520  1
 S  S6  1  0.08147  0.40999  0.75520  1
 Ta  Ta1  1  0.83340  0.50003  0.49980  1
 Ta  Ta2  1  0.50003  0.83340  0.49980  1
