CIF file written using JARVIS-Tools package.
data_K6CoSe4
_symmetry_space_group_name_H-M  'P6_3mc'
_cell_length_a       10.1219
_cell_length_b       10.1219
_cell_length_c       7.82175
_cell_angle_alpha    90
_cell_angle_beta     90
_cell_angle_gamma    120

_symmetry_Int_Tables_number  186
_chemical_formula_structural  K6CoSe4
_chemical_formula_sum  K2Co2Se8
_cell_volume  694.0005554701283
_cell_formula_units_Z  2
loop_
  _symmetry_equiv_pos_site_id
 _symmetry_equiv_pos_as_xyz
 1  'x, y, z'
loop_
 _atom_site_type_symbol
 _atom_site_label
 _atom_site_symmetry_multiplicity
 _atom_site_fract_x
 _atom_site_fract_y
 _atom_site_fract_z
 _atom_site_fract_occupancy
 Co  Co1  1  0.66667  0.33333  0.75037  1
 Co  Co2  1  0.33333  0.66667  0.25037  1
 K  K1  1  0.14642  0.85358  0.54769  1
 K  K2  1  0.85358  0.14642  0.04769  1
 K  K3  1  0.85358  0.70717  0.04769  1
 K  K4  1  0.14642  0.29283  0.54769  1
 K  K5  1  0.70717  0.85358  0.54769  1
 K  K6  1  0.29283  0.14642  0.04769  1
 K  K7  1  0.52664  0.47336  0.36498  1
 K  K8  1  0.05329  0.52664  0.86498  1
 K  K9  1  0.47336  0.94671  0.86498  1
 K  K10  1  0.52664  0.05329  0.36498  1
 K  K11  1  0.47336  0.52664  0.86498  1
 K  K12  1  0.94671  0.47336  0.36498  1
 Se  Se1  1  0.19833  0.39665  0.15134  1
 Se  Se2  1  0.60335  0.80167  0.15134  1
 Se  Se3  1  0.33333  0.66667  0.56731  1
 Se  Se4  1  0.66667  0.33333  0.06731  1
 Se  Se5  1  0.19833  0.80167  0.15134  1
 Se  Se6  1  0.39665  0.19833  0.65134  1
 Se  Se7  1  0.80167  0.60335  0.65134  1
 Se  Se8  1  0.80167  0.19833  0.65134  1
