CIF file written using JARVIS-Tools package.
data_Ti3Ga
_symmetry_space_group_name_H-M  'P6_3/mmc'
_cell_length_a       5.66233
_cell_length_b       5.66233
_cell_length_c       4.64469
_cell_angle_alpha    90
_cell_angle_beta     90
_cell_angle_gamma    120

_symmetry_Int_Tables_number  194
_chemical_formula_structural  Ti3Ga
_chemical_formula_sum  Ti6Ga2
_cell_volume  128.96654315303326
_cell_formula_units_Z  2
loop_
  _symmetry_equiv_pos_site_id
 _symmetry_equiv_pos_as_xyz
 1  'x, y, z'
loop_
 _atom_site_type_symbol
 _atom_site_label
 _atom_site_symmetry_multiplicity
 _atom_site_fract_x
 _atom_site_fract_y
 _atom_site_fract_z
 _atom_site_fract_occupancy
 Ga  Ga1  1  0.66667  0.33333  0.75000  1
 Ga  Ga2  1  0.33333  0.66667  0.25000  1
 Ti  Ti1  1  0.66016  0.83008  0.75000  1
 Ti  Ti2  1  0.83008  0.66016  0.25000  1
 Ti  Ti3  1  0.33984  0.16992  0.25000  1
 Ti  Ti4  1  0.16992  0.33984  0.75000  1
 Ti  Ti5  1  0.16992  0.83008  0.75000  1
 Ti  Ti6  1  0.83008  0.16992  0.25000  1
