CIF file written using JARVIS-Tools package.
data_ZnGa2Se4
_symmetry_space_group_name_H-M  'I-4'
_cell_length_a       5.58173
_cell_length_b       5.58174
_cell_length_c       6.77208
_cell_angle_alpha    114.338
_cell_angle_beta     114.34
_cell_angle_gamma    89.9995

_symmetry_Int_Tables_number  82
_chemical_formula_structural  ZnGa2Se4
_chemical_formula_sum  ZnGa2Se4
_cell_volume  171.44519813260072
_cell_formula_units_Z  1
loop_
  _symmetry_equiv_pos_site_id
 _symmetry_equiv_pos_as_xyz
 1  'x, y, z'
loop_
 _atom_site_type_symbol
 _atom_site_label
 _atom_site_symmetry_multiplicity
 _atom_site_fract_x
 _atom_site_fract_y
 _atom_site_fract_z
 _atom_site_fract_occupancy
 Ga  Ga1  1  0.00005  -0.00000  0.00000  1
 Ga  Ga2  1  0.74998  0.25003  0.50000  1
 Se  Se1  1  0.62237  0.15233  0.76821  1
 Se  Se2  1  0.84761  0.85417  0.23176  1
 Se  Se3  1  0.14591  0.61582  0.76827  1
 Se  Se4  1  0.38415  0.37768  0.23176  1
 Zn  Zn1  1  0.24993  0.74997  0.50000  1
