CIF file written using JARVIS-Tools package.
data_YbSnHg
_symmetry_space_group_name_H-M  'P6_3mc'
_cell_length_a       4.81901
_cell_length_b       4.81901
_cell_length_c       7.69297
_cell_angle_alpha    90
_cell_angle_beta     90
_cell_angle_gamma    119.999

_symmetry_Int_Tables_number  186
_chemical_formula_structural  YbSnHg
_chemical_formula_sum  Yb2Sn2Hg2
_cell_volume  154.72006503754383
_cell_formula_units_Z  2
loop_
  _symmetry_equiv_pos_site_id
 _symmetry_equiv_pos_as_xyz
 1  'x, y, z'
loop_
 _atom_site_type_symbol
 _atom_site_label
 _atom_site_symmetry_multiplicity
 _atom_site_fract_x
 _atom_site_fract_y
 _atom_site_fract_z
 _atom_site_fract_occupancy
 Hg  Hg1  1  0.33333  0.66667  0.43586  1
 Hg  Hg2  1  0.66667  0.33333  0.93586  1
 Sn  Sn1  1  0.33333  0.66667  0.04002  1
 Sn  Sn2  1  0.66667  0.33333  0.54002  1
 Yb  Yb1  1  1.00000  0.00000  0.25412  1
 Yb  Yb2  1  0.00000  1.00000  0.75412  1
