CIF file written using JARVIS-Tools package.
data_K2CdP2O7
_symmetry_space_group_name_H-M  'C2/c'
_cell_length_a       5.5846
_cell_length_b       5.64608
_cell_length_c       12.6214
_cell_angle_alpha    78.9861
_cell_angle_beta     77.2202
_cell_angle_gamma    60.3595

_symmetry_Int_Tables_number  15
_chemical_formula_structural  K2CdP2O7
_chemical_formula_sum  K4Cd2P4O4
_cell_volume  335.7546364502846
_cell_formula_units_Z  2
loop_
  _symmetry_equiv_pos_site_id
 _symmetry_equiv_pos_as_xyz
 1  'x, y, z'
loop_
 _atom_site_type_symbol
 _atom_site_label
 _atom_site_symmetry_multiplicity
 _atom_site_fract_x
 _atom_site_fract_y
 _atom_site_fract_z
 _atom_site_fract_occupancy
 Cd  Cd1  1  0.50000  0.50000  0.00000  1
 Cd  Cd2  1  0.00000  0.00000  0.50000  1
 K  K1  1  0.94575  0.87037  0.82905  1
 K  K2  1  0.05425  0.12963  0.17095  1
 K  K3  1  0.64517  0.62962  0.67095  1
 K  K4  1  0.35483  0.37038  0.32905  1
 O  O1  1  0.15494  0.25000  0.75000  1
 O  O2  1  0.98896  0.27363  0.94910  1
 O  O3  1  0.84506  0.75000  0.25000  1
 O  O4  1  0.45277  0.87231  0.87752  1
 O  O5  1  0.58383  0.65441  0.13618  1
 O  O6  1  0.54723  0.12769  0.12248  1
 O  O7  1  0.79739  0.37232  0.37752  1
 O  O8  1  0.21168  0.22638  0.55090  1
 O  O9  1  0.78832  0.77362  0.44910  1
 O  O10  1  0.37441  0.84560  0.36382  1
 O  O11  1  0.01104  0.72637  0.05090  1
 O  O12  1  0.41617  0.34559  0.86382  1
 O  O13  1  0.20261  0.62768  0.62248  1
 O  O14  1  0.62559  0.15440  0.63618  1
 P  P1  1  0.31256  0.31685  0.62957  1
 P  P2  1  0.74102  0.81685  0.12957  1
 P  P3  1  0.25898  0.18315  0.87043  1
 P  P4  1  0.68744  0.68315  0.37043  1
