CIF file written using JARVIS-Tools package.
data_Li2V3WO8
_symmetry_space_group_name_H-M  'P6_3mc'
_cell_length_a       5.84573
_cell_length_b       5.84574
_cell_length_c       9.71032
_cell_angle_alpha    90.0033
_cell_angle_beta     89.9983
_cell_angle_gamma    120

_symmetry_Int_Tables_number  186
_chemical_formula_structural  Li2V3WO8
_chemical_formula_sum  Li4V6W2O6
_cell_volume  287.3705565998258
_cell_formula_units_Z  2
loop_
  _symmetry_equiv_pos_site_id
 _symmetry_equiv_pos_as_xyz
 1  'x, y, z'
loop_
 _atom_site_type_symbol
 _atom_site_label
 _atom_site_symmetry_multiplicity
 _atom_site_fract_x
 _atom_site_fract_y
 _atom_site_fract_z
 _atom_site_fract_occupancy
 Li  Li1  1  0.33334  0.66670  0.89958  1
 Li  Li2  1  0.00004  0.99997  0.99102  1
 Li  Li3  1  0.99996  0.99993  0.49102  1
 Li  Li4  1  0.66666  0.33335  0.39958  1
 O  O1  1  0.16955  0.83046  0.59562  1
 O  O2  1  0.96479  0.48242  0.84744  1
 O  O3  1  0.33331  0.66668  0.09793  1
 O  O4  1  0.99998  0.00002  0.30557  1
 O  O5  1  0.00002  0.00004  0.80557  1
 O  O6  1  0.16955  0.33909  0.59559  1
 O  O7  1  0.03521  0.51763  0.34744  1
 O  O8  1  0.48239  0.51763  0.34743  1
 O  O9  1  0.66090  0.83045  0.59561  1
 O  O10  1  0.51763  0.48241  0.84745  1
 O  O11  1  0.51761  0.03525  0.84743  1
 O  O12  1  0.83045  0.66092  0.09562  1
 O  O13  1  0.48237  0.96479  0.34745  1
 O  O14  1  0.33910  0.16955  0.09561  1
 O  O15  1  0.66669  0.33336  0.59793  1
 O  O16  1  0.83045  0.16954  0.09559  1
 V  V1  1  0.65246  0.82625  0.21388  1
 V  V2  1  0.17376  0.82626  0.21389  1
 V  V3  1  0.17375  0.34753  0.21388  1
 V  V4  1  0.82625  0.17378  0.71388  1
 V  V5  1  0.34754  0.17379  0.71388  1
 V  V6  1  0.82624  0.65250  0.71389  1
 W  W1  1  0.66667  0.33334  0.98903  1
 W  W2  1  0.33333  0.66666  0.48903  1
