CIF file written using JARVIS-Tools package.
data_Mg6NbCd
_symmetry_space_group_name_H-M  'Amm2'
_cell_length_a       6.29955
_cell_length_b       6.2294
_cell_length_c       4.91187
_cell_angle_alpha    90
_cell_angle_beta     90
_cell_angle_gamma    119.632

_symmetry_Int_Tables_number  38
_chemical_formula_structural  Mg6NbCd
_chemical_formula_sum  Mg6NbCd
_cell_volume  167.5446809002086
_cell_formula_units_Z  1
loop_
  _symmetry_equiv_pos_site_id
 _symmetry_equiv_pos_as_xyz
 1  'x, y, z'
loop_
 _atom_site_type_symbol
 _atom_site_label
 _atom_site_symmetry_multiplicity
 _atom_site_fract_x
 _atom_site_fract_y
 _atom_site_fract_z
 _atom_site_fract_occupancy
 Cd  Cd1  1  0.16754  0.83377  0.25000  1
 Mg  Mg1  1  0.66113  0.32827  0.25000  1
 Mg  Mg2  1  0.66113  0.83286  0.25000  1
 Mg  Mg3  1  0.33005  0.17685  0.75000  1
 Mg  Mg4  1  0.33005  0.65320  0.75000  1
 Mg  Mg5  1  0.84833  0.17417  0.75000  1
 Mg  Mg6  1  0.84291  0.67145  0.75000  1
 Nb  Nb1  1  0.15886  0.32943  0.25000  1
