CIF file written using JARVIS-Tools package.
data_H5CSN2ClO4
_symmetry_space_group_name_H-M  'P-1'
_cell_length_a       5.85706
_cell_length_b       8.43402
_cell_length_c       6.65859
_cell_angle_alpha    97.6998
_cell_angle_beta     90.1744
_cell_angle_gamma    106.014

_symmetry_Int_Tables_number  2
_chemical_formula_structural  H5CSN2ClO4
_chemical_formula_sum  H0C2S2N4Cl2O8
_cell_volume  313.0333892004191
_cell_formula_units_Z  2
loop_
  _symmetry_equiv_pos_site_id
 _symmetry_equiv_pos_as_xyz
 1  'x, y, z'
loop_
 _atom_site_type_symbol
 _atom_site_label
 _atom_site_symmetry_multiplicity
 _atom_site_fract_x
 _atom_site_fract_y
 _atom_site_fract_z
 _atom_site_fract_occupancy
 C  C1  1  0.42041  0.23458  0.82180  1
 C  C2  1  0.57959  0.76542  0.17820  1
 Cl  Cl1  1  0.04891  0.71270  0.78104  1
 Cl  Cl2  1  0.95109  0.28730  0.21896  1
 H  H1  1  0.73941  0.63612  0.55124  1
 H  H2  1  0.26059  0.36388  0.44876  1
 H  H3  1  0.57510  0.69526  0.88674  1
 H  H4  1  0.83475  0.11956  0.72276  1
 H  H5  1  0.37418  0.00168  0.15037  1
 H  H6  1  0.62582  0.99832  0.84963  1
 H  H7  1  0.56913  0.88369  0.46583  1
 H  H8  1  0.43087  0.11631  0.53417  1
 H  H9  1  0.16525  0.88044  0.27724  1
 H  H10  1  0.42490  0.30474  0.11326  1
 N  N1  1  0.50471  0.14156  0.68051  1
 N  N2  1  0.49529  0.85844  0.31949  1
 N  N3  1  0.66063  0.04596  0.71555  1
 N  N4  1  0.33937  0.95404  0.28445  1
 O  O1  1  0.49882  0.23659  0.01133  1
 O  O2  1  0.25489  0.37791  0.29839  1
 O  O3  1  0.50118  0.76341  0.98867  1
 O  O4  1  0.06755  0.88909  0.83329  1
 O  O5  1  0.17842  0.67989  0.60142  1
 O  O6  1  0.82158  0.32011  0.39858  1
 O  O7  1  0.74511  0.62209  0.70161  1
 O  O8  1  0.93245  0.11091  0.16671  1
 S  S1  1  0.77357  0.66081  0.23514  1
 S  S2  1  0.22643  0.33919  0.76486  1
