CIF file written using JARVIS-Tools package.
data_SrHClO
_symmetry_space_group_name_H-M  'P6_3mc'
_cell_length_a       4.14846
_cell_length_b       4.14846
_cell_length_c       9.93845
_cell_angle_alpha    90
_cell_angle_beta     90
_cell_angle_gamma    120

_symmetry_Int_Tables_number  186
_chemical_formula_structural  SrHClO
_chemical_formula_sum  Sr2H2Cl2O2
_cell_volume  148.12330539514247
_cell_formula_units_Z  2
loop_
  _symmetry_equiv_pos_site_id
 _symmetry_equiv_pos_as_xyz
 1  'x, y, z'
loop_
 _atom_site_type_symbol
 _atom_site_label
 _atom_site_symmetry_multiplicity
 _atom_site_fract_x
 _atom_site_fract_y
 _atom_site_fract_z
 _atom_site_fract_occupancy
 Cl  Cl1  1  0.66667  0.33333  0.00828  1
 Cl  Cl2  1  0.33333  0.66667  0.50828  1
 H  H1  1  0.00000  0.00000  0.86301  1
 H  H2  1  0.00000  0.00000  0.36301  1
 O  O1  1  0.00000  0.00000  0.26447  1
 O  O2  1  0.00000  0.00000  0.76447  1
 Sr  Sr1  1  0.33333  0.66667  0.19573  1
 Sr  Sr2  1  0.66667  0.33333  0.69573  1
