CIF file written using JARVIS-Tools package.
data_ZnAgN
_symmetry_space_group_name_H-M  'P-6m2'
_cell_length_a       3.45235
_cell_length_b       3.45236
_cell_length_c       4.32762
_cell_angle_alpha    90
_cell_angle_beta     90
_cell_angle_gamma    119.999

_symmetry_Int_Tables_number  187
_chemical_formula_structural  ZnAgN
_chemical_formula_sum  ZnAgN
_cell_volume  44.66988737927202
_cell_formula_units_Z  1
loop_
  _symmetry_equiv_pos_site_id
 _symmetry_equiv_pos_as_xyz
 1  'x, y, z'
loop_
 _atom_site_type_symbol
 _atom_site_label
 _atom_site_symmetry_multiplicity
 _atom_site_fract_x
 _atom_site_fract_y
 _atom_site_fract_z
 _atom_site_fract_occupancy
 Ag  Ag1  1  0.66667  0.33339  0.00000  1
 N  N1  1  0.66667  0.33337  0.50000  1
 Zn  Zn1  1  0.00001  0.00004  0.50000  1
