CIF file written using JARVIS-Tools package.
data_Ba2UCu2S5
_symmetry_space_group_name_H-M  'C2/m'
_cell_length_a       4.07438
_cell_length_b       7.1376
_cell_length_c       9.06383
_cell_angle_alpha    69.4311
_cell_angle_beta     77.0141
_cell_angle_gamma    73.4185

_symmetry_Int_Tables_number  12
_chemical_formula_structural  Ba2UCu2S5
_chemical_formula_sum  Ba2UCu2S5
_cell_volume  234.23587217963907
_cell_formula_units_Z  1
loop_
  _symmetry_equiv_pos_site_id
 _symmetry_equiv_pos_as_xyz
 1  'x, y, z'
loop_
 _atom_site_type_symbol
 _atom_site_label
 _atom_site_symmetry_multiplicity
 _atom_site_fract_x
 _atom_site_fract_y
 _atom_site_fract_z
 _atom_site_fract_occupancy
 Ba  Ba1  1  0.82351  0.65111  0.70182  1
 Ba  Ba2  1  0.17649  0.34889  0.29818  1
 Cu  Cu1  1  0.44577  0.81067  0.29813  1
 Cu  Cu2  1  0.55423  0.18933  0.70187  1
 S  S1  1  0.61210  0.71336  0.06253  1
 S  S2  1  0.85433  0.98411  0.30737  1
 S  S3  1  0.38790  0.28664  0.93747  1
 S  S4  1  0.50000  0.50000  0.50000  1
 S  S5  1  0.14567  0.01589  0.69263  1
 U  U1  1  0.00000  0.00000  0.00000  1
