CIF file written using JARVIS-Tools package.
data_LiCaMg6
_symmetry_space_group_name_H-M  'Amm2'
_cell_length_a       6.71011
_cell_length_b       6.45315
_cell_length_c       5.19437
_cell_angle_alpha    90
_cell_angle_beta     90
_cell_angle_gamma    118.741

_symmetry_Int_Tables_number  38
_chemical_formula_structural  LiCaMg6
_chemical_formula_sum  LiCaMg6
_cell_volume  197.21294882468757
_cell_formula_units_Z  1
loop_
  _symmetry_equiv_pos_site_id
 _symmetry_equiv_pos_as_xyz
 1  'x, y, z'
loop_
 _atom_site_type_symbol
 _atom_site_label
 _atom_site_symmetry_multiplicity
 _atom_site_fract_x
 _atom_site_fract_y
 _atom_site_fract_z
 _atom_site_fract_occupancy
 Ca  Ca1  1  0.14737  0.32369  0.25000  1
 Li  Li1  1  0.18240  0.84120  0.25000  1
 Mg  Mg1  1  0.65070  0.32478  0.25000  1
 Mg  Mg2  1  0.65070  0.82591  0.25000  1
 Mg  Mg3  1  0.34521  0.16791  0.75000  1
 Mg  Mg4  1  0.34521  0.67731  0.75000  1
 Mg  Mg5  1  0.81823  0.15912  0.75000  1
 Mg  Mg6  1  0.86018  0.68009  0.75000  1
