CIF file written using JARVIS-Tools package.
data_Mg3B2O6
_symmetry_space_group_name_H-M  'Pnnm'
_cell_length_a       4.53028
_cell_length_b       5.41822
_cell_length_c       8.4573
_cell_angle_alpha    90
_cell_angle_beta     90
_cell_angle_gamma    90

_symmetry_Int_Tables_number  58
_chemical_formula_structural  Mg3B2O6
_chemical_formula_sum  Mg6B4O2
_cell_volume  207.59324737875392
_cell_formula_units_Z  2
loop_
  _symmetry_equiv_pos_site_id
 _symmetry_equiv_pos_as_xyz
 1  'x, y, z'
loop_
 _atom_site_type_symbol
 _atom_site_label
 _atom_site_symmetry_multiplicity
 _atom_site_fract_x
 _atom_site_fract_y
 _atom_site_fract_z
 _atom_site_fract_occupancy
 B  B1  1  0.04563  0.24395  0.50000  1
 B  B2  1  0.45437  0.74395  0.00000  1
 B  B3  1  0.95437  0.75605  0.50000  1
 B  B4  1  0.54563  0.25605  0.00000  1
 Mg  Mg1  1  0.00000  0.50000  0.81321  1
 Mg  Mg2  1  0.50000  0.00000  0.68679  1
 Mg  Mg3  1  0.00000  0.50000  0.18679  1
 Mg  Mg4  1  0.50000  0.00000  0.31321  1
 Mg  Mg5  1  0.50000  0.50000  0.50000  1
 Mg  Mg6  1  0.00000  0.00000  0.00000  1
 O  O1  1  0.70155  0.20446  0.13907  1
 O  O2  1  0.79845  0.70446  0.36093  1
 O  O3  1  0.29845  0.79554  0.86093  1
 O  O4  1  0.70155  0.20446  0.86093  1
 O  O5  1  0.29845  0.79554  0.13907  1
 O  O6  1  0.74944  0.67904  0.00000  1
 O  O7  1  0.25056  0.32096  0.00000  1
 O  O8  1  0.75056  0.17904  0.50000  1
 O  O9  1  0.24944  0.82096  0.50000  1
 O  O10  1  0.79845  0.70446  0.63907  1
 O  O11  1  0.20155  0.29554  0.63907  1
 O  O12  1  0.20155  0.29554  0.36093  1
