CIF file written using JARVIS-Tools package.
data_MnNiP2O8
_symmetry_space_group_name_H-M  'P2_1/m'
_cell_length_a       4.67967
_cell_length_b       5.64953
_cell_length_c       9.68718
_cell_angle_alpha    90
_cell_angle_beta     89.661
_cell_angle_gamma    90

_symmetry_Int_Tables_number  11
_chemical_formula_structural  MnNiP2O8
_chemical_formula_sum  Mn2Ni2P4O6
_cell_volume  256.1048668396762
_cell_formula_units_Z  2
loop_
  _symmetry_equiv_pos_site_id
 _symmetry_equiv_pos_as_xyz
 1  'x, y, z'
loop_
 _atom_site_type_symbol
 _atom_site_label
 _atom_site_symmetry_multiplicity
 _atom_site_fract_x
 _atom_site_fract_y
 _atom_site_fract_z
 _atom_site_fract_occupancy
 Mn  Mn1  1  0.05293  0.75000  0.27283  1
 Mn  Mn2  1  0.94707  0.25000  0.72717  1
 Ni  Ni1  1  0.56103  0.25000  0.23149  1
 Ni  Ni2  1  0.43897  0.75000  0.76851  1
 O  O1  1  0.32707  0.25000  0.06342  1
 O  O2  1  0.29925  0.75000  0.12066  1
 O  O3  1  0.78187  0.95808  0.16830  1
 O  O4  1  0.70075  0.25000  0.87934  1
 O  O5  1  0.25395  0.03465  0.33795  1
 O  O6  1  0.25395  0.46535  0.33795  1
 O  O7  1  0.78187  0.54192  0.16830  1
 O  O8  1  0.81747  0.75000  0.43104  1
 O  O9  1  0.18253  0.25000  0.56896  1
 O  O10  1  0.74605  0.96535  0.66205  1
 O  O11  1  0.78213  0.25000  0.39977  1
 O  O12  1  0.74605  0.53465  0.66205  1
 O  O13  1  0.21813  0.45808  0.83170  1
 O  O14  1  0.21813  0.04192  0.83170  1
 O  O15  1  0.21787  0.75000  0.60023  1
 O  O16  1  0.67293  0.75000  0.93658  1
 P  P1  1  0.37860  0.25000  0.91014  1
 P  P2  1  0.89752  0.75000  0.58579  1
 P  P3  1  0.10248  0.25000  0.41421  1
 P  P4  1  0.62140  0.75000  0.08986  1
