CIF file written using JARVIS-Tools package.
data_HfMg6Nb
_symmetry_space_group_name_H-M  'Amm2'
_cell_length_a       6.39795
_cell_length_b       6.39795
_cell_length_c       4.94846
_cell_angle_alpha    90
_cell_angle_beta     90
_cell_angle_gamma    122.525

_symmetry_Int_Tables_number  38
_chemical_formula_structural  HfMg6Nb
_chemical_formula_sum  HfMg6Nb
_cell_volume  170.78945623626234
_cell_formula_units_Z  1
loop_
  _symmetry_equiv_pos_site_id
 _symmetry_equiv_pos_as_xyz
 1  'x, y, z'
loop_
 _atom_site_type_symbol
 _atom_site_label
 _atom_site_symmetry_multiplicity
 _atom_site_fract_x
 _atom_site_fract_y
 _atom_site_fract_z
 _atom_site_fract_occupancy
 Hf  Hf1  1  0.30307  0.19693  0.75000  1
 Mg  Mg1  1  0.18178  0.82837  0.25000  1
 Mg  Mg2  1  0.67163  0.31822  0.25000  1
 Mg  Mg3  1  0.67322  0.82678  0.25000  1
 Mg  Mg4  1  0.31548  0.66991  0.75000  1
 Mg  Mg5  1  0.83009  0.18452  0.75000  1
 Mg  Mg6  1  0.82853  0.67147  0.75000  1
 Nb  Nb1  1  0.19619  0.30381  0.25000  1
