CIF file written using JARVIS-Tools package.
data_Nb2TlPS10
_symmetry_space_group_name_H-M  'Pc'
_cell_length_a       6.99275
_cell_length_b       7.41383
_cell_length_c       12.9963
_cell_angle_alpha    90
_cell_angle_beta     104.186
_cell_angle_gamma    90

_symmetry_Int_Tables_number  7
_chemical_formula_structural  Nb2TlPS10
_chemical_formula_sum  Nb4Tl2P2S20
_cell_volume  653.2228712511783
_cell_formula_units_Z  2
loop_
  _symmetry_equiv_pos_site_id
 _symmetry_equiv_pos_as_xyz
 1  'x, y, z'
loop_
 _atom_site_type_symbol
 _atom_site_label
 _atom_site_symmetry_multiplicity
 _atom_site_fract_x
 _atom_site_fract_y
 _atom_site_fract_z
 _atom_site_fract_occupancy
 Nb  Nb1  1  0.84131  0.44325  0.15896  1
 Nb  Nb2  1  0.34131  0.55675  0.65896  1
 Nb  Nb3  1  0.54486  0.43504  0.87029  1
 Nb  Nb4  1  0.04486  0.56496  0.37029  1
 P  P1  1  0.82443  0.09300  0.98986  1
 P  P2  1  0.32443  0.90700  0.48986  1
 S  S1  1  0.03306  0.90880  0.40224  1
 S  S2  1  0.41533  0.64086  0.47292  1
 S  S3  1  0.13472  0.33339  0.52354  1
 S  S4  1  0.20376  0.38847  0.24840  1
 S  S5  1  0.23612  0.62755  0.82524  1
 S  S6  1  0.97082  0.54988  0.55469  1
 S  S7  1  0.63575  0.35112  0.69691  1
 S  S8  1  0.84326  0.08797  0.15171  1
 S  S9  1  0.13575  0.64888  0.19691  1
 S  S10  1  0.91533  0.35914  0.97292  1
 S  S11  1  0.70376  0.61153  0.74840  1
 S  S12  1  0.73612  0.37245  0.32524  1
 S  S13  1  0.48376  0.09483  0.44009  1
 S  S14  1  0.63472  0.66661  0.02354  1
 S  S15  1  0.34326  0.91203  0.65171  1
 S  S16  1  0.69320  0.63655  0.28159  1
 S  S17  1  0.53306  0.09120  0.90224  1
 S  S18  1  0.47082  0.45012  0.05469  1
 S  S19  1  0.19320  0.36345  0.78159  1
 S  S20  1  0.98376  0.90517  0.94009  1
 Tl  Tl1  1  0.37004  0.00679  0.11425  1
 Tl  Tl2  1  0.87004  0.99321  0.61425  1
