CIF file written using JARVIS-Tools package.
data_LiMg6Cr
_symmetry_space_group_name_H-M  'Amm2'
_cell_length_a       6.20991
_cell_length_b       6.2099
_cell_length_c       5.02379
_cell_angle_alpha    90
_cell_angle_beta     90
_cell_angle_gamma    119.115

_symmetry_Int_Tables_number  38
_chemical_formula_structural  LiMg6Cr
_chemical_formula_sum  LiMg6Cr
_cell_volume  169.25289888768833
_cell_formula_units_Z  1
loop_
  _symmetry_equiv_pos_site_id
 _symmetry_equiv_pos_as_xyz
 1  'x, y, z'
loop_
 _atom_site_type_symbol
 _atom_site_label
 _atom_site_symmetry_multiplicity
 _atom_site_fract_x
 _atom_site_fract_y
 _atom_site_fract_z
 _atom_site_fract_occupancy
 Cr  Cr1  1  0.33892  0.16108  0.75000  1
 Li  Li1  1  0.16701  0.33299  0.25000  1
 Mg  Mg1  1  0.16808  0.85090  0.25000  1
 Mg  Mg2  1  0.64910  0.33192  0.25000  1
 Mg  Mg3  1  0.66252  0.83748  0.25000  1
 Mg  Mg4  1  0.33216  0.65479  0.75000  1
 Mg  Mg5  1  0.84521  0.16784  0.75000  1
 Mg  Mg6  1  0.83700  0.66300  0.75000  1
