CIF file written using JARVIS-Tools package.
data_TiNiO6
_symmetry_space_group_name_H-M  'R3'
_cell_length_a       5.51067
_cell_length_b       5.51067
_cell_length_c       5.51067
_cell_angle_alpha    51.6477
_cell_angle_beta     51.6477
_cell_angle_gamma    51.6477

_symmetry_Int_Tables_number  146
_chemical_formula_structural  TiNiO6
_chemical_formula_sum  TiNiO6
_cell_volume  95.07143124945905
_cell_formula_units_Z  1
loop_
  _symmetry_equiv_pos_site_id
 _symmetry_equiv_pos_as_xyz
 1  'x, y, z'
loop_
 _atom_site_type_symbol
 _atom_site_label
 _atom_site_symmetry_multiplicity
 _atom_site_fract_x
 _atom_site_fract_y
 _atom_site_fract_z
 _atom_site_fract_occupancy
 Ni  Ni1  1  0.65648  0.65648  0.65648  1
 O  O1  1  0.02304  0.74849  0.45887  1
 O  O2  1  0.45887  0.02304  0.74849  1
 O  O3  1  0.74849  0.45887  0.02304  1
 O  O4  1  0.26862  0.58851  0.89291  1
 O  O5  1  0.58851  0.89291  0.26862  1
 O  O6  1  0.89291  0.26862  0.58851  1
 Ti  Ti1  1  0.85587  0.85587  0.85587  1
