CIF file written using JARVIS-Tools package.
data_Mg6SbW
_symmetry_space_group_name_H-M  'Amm2'
_cell_length_a       6.14637
_cell_length_b       5.99466
_cell_length_c       5.09673
_cell_angle_alpha    90
_cell_angle_beta     90
_cell_angle_gamma    119.187

_symmetry_Int_Tables_number  38
_chemical_formula_structural  Mg6SbW
_chemical_formula_sum  Mg6SbW
_cell_volume  163.947880237685
_cell_formula_units_Z  1
loop_
  _symmetry_equiv_pos_site_id
 _symmetry_equiv_pos_as_xyz
 1  'x, y, z'
loop_
 _atom_site_type_symbol
 _atom_site_label
 _atom_site_symmetry_multiplicity
 _atom_site_fract_x
 _atom_site_fract_y
 _atom_site_fract_z
 _atom_site_fract_occupancy
 Mg  Mg1  1  0.66444  0.32950  0.25000  1
 Mg  Mg2  1  0.66444  0.83494  0.25000  1
 Mg  Mg3  1  0.33163  0.17956  0.75000  1
 Mg  Mg4  1  0.33163  0.65208  0.75000  1
 Mg  Mg5  1  0.85414  0.17707  0.75000  1
 Mg  Mg6  1  0.82641  0.66320  0.75000  1
 Sb  Sb1  1  0.15717  0.82858  0.25000  1
 W  W1  1  0.17013  0.33506  0.25000  1
