CIF file written using JARVIS-Tools package.
data_NdBr3
_symmetry_space_group_name_H-M  'Cmcm'
_cell_length_a       4.12667
_cell_length_b       6.66946
_cell_length_c       9.19222
_cell_angle_alpha    90
_cell_angle_beta     90
_cell_angle_gamma    108.021

_symmetry_Int_Tables_number  63
_chemical_formula_structural  NdBr3
_chemical_formula_sum  Nd2Br6
_cell_volume  240.58311383540797
_cell_formula_units_Z  2
loop_
  _symmetry_equiv_pos_site_id
 _symmetry_equiv_pos_as_xyz
 1  'x, y, z'
loop_
 _atom_site_type_symbol
 _atom_site_label
 _atom_site_symmetry_multiplicity
 _atom_site_fract_x
 _atom_site_fract_y
 _atom_site_fract_z
 _atom_site_fract_occupancy
 Br  Br1  1  0.35553  0.71106  0.43522  1
 Br  Br2  1  0.64447  0.28894  0.56478  1
 Br  Br3  1  0.91998  0.83995  0.75000  1
 Br  Br4  1  0.08002  0.16005  0.25000  1
 Br  Br5  1  0.35553  0.71106  0.06478  1
 Br  Br6  1  0.64447  0.28894  0.93522  1
 Nd  Nd1  1  0.74333  0.48665  0.25000  1
 Nd  Nd2  1  0.25667  0.51335  0.75000  1
