CIF file written using JARVIS-Tools package.
data_Nd2AlCo2
_symmetry_space_group_name_H-M  'Immm'
_cell_length_a       4.05229
_cell_length_b       5.59523
_cell_length_c       5.59523
_cell_angle_alpha    59.4382
_cell_angle_beta     68.7695
_cell_angle_gamma    68.7695

_symmetry_Int_Tables_number  71
_chemical_formula_structural  Nd2AlCo2
_chemical_formula_sum  Nd2AlCo2
_cell_volume  99.29043921887254
_cell_formula_units_Z  1
loop_
  _symmetry_equiv_pos_site_id
 _symmetry_equiv_pos_as_xyz
 1  'x, y, z'
loop_
 _atom_site_type_symbol
 _atom_site_label
 _atom_site_symmetry_multiplicity
 _atom_site_fract_x
 _atom_site_fract_y
 _atom_site_fract_z
 _atom_site_fract_occupancy
 Al  Al1  1  0.00000  0.00000  0.00000  1
 Co  Co1  1  0.50000  0.28101  0.71899  1
 Co  Co2  1  0.50000  0.71899  0.28101  1
 Nd  Nd1  1  0.20269  0.29731  0.29731  1
 Nd  Nd2  1  0.79731  0.70269  0.70269  1
