CIF file written using JARVIS-Tools package.
data_BeBi4Sb
_symmetry_space_group_name_H-M  'F-43m'
_cell_length_a       6.49167
_cell_length_b       6.49167
_cell_length_c       6.49167
_cell_angle_alpha    60
_cell_angle_beta     60
_cell_angle_gamma    60

_symmetry_Int_Tables_number  216
_chemical_formula_structural  BeBi4Sb
_chemical_formula_sum  BeBi4Sb
_cell_volume  193.44353490734395
_cell_formula_units_Z  1
loop_
  _symmetry_equiv_pos_site_id
 _symmetry_equiv_pos_as_xyz
 1  'x, y, z'
loop_
 _atom_site_type_symbol
 _atom_site_label
 _atom_site_symmetry_multiplicity
 _atom_site_fract_x
 _atom_site_fract_y
 _atom_site_fract_z
 _atom_site_fract_occupancy
 Be  Be1  1  0.00000  0.00000  0.00000  1
 Bi  Bi1  1  0.12447  0.62518  0.62518  1
 Bi  Bi2  1  0.62518  0.62518  0.62518  1
 Bi  Bi3  1  0.62518  0.12447  0.62518  1
 Bi  Bi4  1  0.62518  0.62518  0.12447  1
 Sb  Sb1  1  0.25000  0.25000  0.25000  1
