CIF file written using JARVIS-Tools package.
data_K3AuSe13
_symmetry_space_group_name_H-M  'P2/c'
_cell_length_a       4.87269
_cell_length_b       13.6119
_cell_length_c       14.9576
_cell_angle_alpha    94.289
_cell_angle_beta     90
_cell_angle_gamma    90

_symmetry_Int_Tables_number  13
_chemical_formula_structural  K3AuSe13
_chemical_formula_sum  K6Au2Se26
_cell_volume  989.3097833849058
_cell_formula_units_Z  2
loop_
  _symmetry_equiv_pos_site_id
 _symmetry_equiv_pos_as_xyz
 1  'x, y, z'
loop_
 _atom_site_type_symbol
 _atom_site_label
 _atom_site_symmetry_multiplicity
 _atom_site_fract_x
 _atom_site_fract_y
 _atom_site_fract_z
 _atom_site_fract_occupancy
 Au  Au1  1  0.00000  0.50000  0.50000  1
 Au  Au2  1  0.00000  0.00000  0.50000  1
 K  K1  1  0.80425  0.84148  0.72414  1
 K  K2  1  0.80425  0.65852  0.27586  1
 K  K3  1  0.82840  0.75000  0.00000  1
 K  K4  1  0.17160  0.25000  -0.00000  1
 K  K5  1  0.19575  0.15852  0.27586  1
 K  K6  1  0.19575  0.34148  0.72414  1
 Se  Se1  1  0.30729  0.73805  0.15202  1
 Se  Se2  1  0.67457  0.08214  0.06727  1
 Se  Se3  1  0.68324  0.45012  0.62099  1
 Se  Se4  1  0.37012  0.08290  0.73482  1
 Se  Se5  1  0.32543  0.58214  0.06727  1
 Se  Se6  1  0.07278  0.46090  0.14398  1
 Se  Se7  1  0.92722  0.53910  0.85602  1
 Se  Se8  1  0.07278  0.03910  0.85602  1
 Se  Se9  1  0.30729  0.76195  0.84798  1
 Se  Se10  1  0.62988  0.58290  0.73482  1
 Se  Se11  1  0.92722  0.96090  0.14398  1
 Se  Se12  1  0.69271  0.26195  0.84798  1
 Se  Se13  1  0.10872  0.65983  0.59044  1
 Se  Se14  1  0.89128  0.34017  0.40956  1
 Se  Se15  1  0.89128  0.15983  0.59044  1
 Se  Se16  1  0.37012  0.41710  0.26518  1
 Se  Se17  1  0.10872  0.84017  0.40956  1
 Se  Se18  1  0.40890  0.75000  0.50000  1
 Se  Se19  1  0.59110  0.25000  0.50000  1
 Se  Se20  1  0.31676  0.54988  0.37901  1
 Se  Se21  1  0.31676  0.95012  0.62099  1
 Se  Se22  1  0.32543  0.91786  0.93273  1
 Se  Se23  1  0.68324  0.04988  0.37901  1
 Se  Se24  1  0.62988  0.91710  0.26518  1
 Se  Se25  1  0.69271  0.23805  0.15202  1
 Se  Se26  1  0.67457  0.41786  0.93273  1
