CIF file written using JARVIS-Tools package.
data_SmInPt4
_symmetry_space_group_name_H-M  'F-43m'
_cell_length_a       5.43246
_cell_length_b       5.43246
_cell_length_c       5.43246
_cell_angle_alpha    60
_cell_angle_beta     60
_cell_angle_gamma    60

_symmetry_Int_Tables_number  216
_chemical_formula_structural  SmInPt4
_chemical_formula_sum  SmInPt4
_cell_volume  113.36366218947319
_cell_formula_units_Z  1
loop_
  _symmetry_equiv_pos_site_id
 _symmetry_equiv_pos_as_xyz
 1  'x, y, z'
loop_
 _atom_site_type_symbol
 _atom_site_label
 _atom_site_symmetry_multiplicity
 _atom_site_fract_x
 _atom_site_fract_y
 _atom_site_fract_z
 _atom_site_fract_occupancy
 In  In1  1  0.75000  0.75000  0.75000  1
 Pt  Pt1  1  0.87372  0.37543  0.37543  1
 Pt  Pt2  1  0.37543  0.87372  0.37543  1
 Pt  Pt3  1  0.37543  0.37543  0.87372  1
 Pt  Pt4  1  0.37543  0.37543  0.37543  1
 Sm  Sm1  1  0.00000  0.00000  0.00000  1
