CIF file written using JARVIS-Tools package.
data_KNaMg6
_symmetry_space_group_name_H-M  'Amm2'
_cell_length_a       7.40619
_cell_length_b       6.45815
_cell_length_c       5.27614
_cell_angle_alpha    90
_cell_angle_beta     90
_cell_angle_gamma    115.849

_symmetry_Int_Tables_number  38
_chemical_formula_structural  KNaMg6
_chemical_formula_sum  KNaMg6
_cell_volume  227.11014651415908
_cell_formula_units_Z  1
loop_
  _symmetry_equiv_pos_site_id
 _symmetry_equiv_pos_as_xyz
 1  'x, y, z'
loop_
 _atom_site_type_symbol
 _atom_site_label
 _atom_site_symmetry_multiplicity
 _atom_site_fract_x
 _atom_site_fract_y
 _atom_site_fract_z
 _atom_site_fract_occupancy
 K  K1  1  0.12869  0.31434  0.25000  1
 Mg  Mg1  1  0.64951  0.32956  0.25000  1
 Mg  Mg2  1  0.64951  0.81995  0.25000  1
 Mg  Mg3  1  0.38934  0.19470  0.75000  1
 Mg  Mg4  1  0.38934  0.69463  0.75000  1
 Mg  Mg5  1  0.78773  0.14387  0.75000  1
 Mg  Mg6  1  0.84006  0.67003  0.75000  1
 Na  Na1  1  0.16584  0.83292  0.25000  1
