CIF file written using JARVIS-Tools package.
data_CeZn2
_symmetry_space_group_name_H-M  'P6/mmm'
_cell_length_a       4.64116
_cell_length_b       5.68653
_cell_length_c       5.68653
_cell_angle_alpha    89.9604
_cell_angle_beta     65.9154
_cell_angle_gamma    65.9155

_symmetry_Int_Tables_number  191
_chemical_formula_structural  CeZn2
_chemical_formula_sum  Ce2Zn4
_cell_volume  122.58462445507999
_cell_formula_units_Z  2
loop_
  _symmetry_equiv_pos_site_id
 _symmetry_equiv_pos_as_xyz
 1  'x, y, z'
loop_
 _atom_site_type_symbol
 _atom_site_label
 _atom_site_symmetry_multiplicity
 _atom_site_fract_x
 _atom_site_fract_y
 _atom_site_fract_z
 _atom_site_fract_occupancy
 Ce  Ce1  1  0.75000  0.74993  0.75007  1
 Ce  Ce2  1  0.25000  0.25007  0.24993  1
 Zn  Zn1  1  0.50010  0.33323  0.66657  1
 Zn  Zn2  1  0.49990  0.66677  0.33343  1
 Zn  Zn3  1  0.00010  0.16657  0.83323  1
 Zn  Zn4  1  0.99990  0.83343  0.16677  1
