CIF file written using JARVIS-Tools package.
data_Li2Mn2C3O9
_symmetry_space_group_name_H-M  'Amm2'
_cell_length_a       4.85862
_cell_length_b       6.06473
_cell_length_c       6.06473
_cell_angle_alpha    111.623
_cell_angle_beta     90
_cell_angle_gamma    90

_symmetry_Int_Tables_number  38
_chemical_formula_structural  Li2Mn2C3O9
_chemical_formula_sum  Li2Mn2C3O9
_cell_volume  166.12875277038208
_cell_formula_units_Z  1
loop_
  _symmetry_equiv_pos_site_id
 _symmetry_equiv_pos_as_xyz
 1  'x, y, z'
loop_
 _atom_site_type_symbol
 _atom_site_label
 _atom_site_symmetry_multiplicity
 _atom_site_fract_x
 _atom_site_fract_y
 _atom_site_fract_z
 _atom_site_fract_occupancy
 C  C1  1  0.00000  0.42005  0.82784  1
 C  C2  1  0.00000  0.82784  0.42005  1
 C  C3  1  0.50000  0.20115  0.20115  1
 Li  Li1  1  0.00000  0.86260  0.86260  1
 Li  Li2  1  0.50000  0.58930  0.58930  1
 Mn  Mn1  1  0.50000  0.18285  0.75091  1
 Mn  Mn2  1  0.50000  0.75091  0.18285  1
 O  O1  1  0.00000  0.21906  0.85380  1
 O  O2  1  0.00000  0.85380  0.21906  1
 O  O3  1  0.23142  0.52082  0.81327  1
 O  O4  1  0.23142  0.81327  0.52082  1
 O  O5  1  0.50000  0.17898  0.40242  1
 O  O6  1  0.50000  0.00786  0.00786  1
 O  O7  1  0.50000  0.40242  0.17898  1
 O  O8  1  0.76858  0.52082  0.81327  1
 O  O9  1  0.76858  0.81327  0.52082  1
