CIF file written using JARVIS-Tools package.
data_Mg6SiMo
_symmetry_space_group_name_H-M  'Amm2'
_cell_length_a       6.0575
_cell_length_b       5.70094
_cell_length_c       4.99312
_cell_angle_alpha    90
_cell_angle_beta     90
_cell_angle_gamma    118.071

_symmetry_Int_Tables_number  38
_chemical_formula_structural  Mg6SiMo
_chemical_formula_sum  Mg6SiMo
_cell_volume  152.14562208365246
_cell_formula_units_Z  1
loop_
  _symmetry_equiv_pos_site_id
 _symmetry_equiv_pos_as_xyz
 1  'x, y, z'
loop_
 _atom_site_type_symbol
 _atom_site_label
 _atom_site_symmetry_multiplicity
 _atom_site_fract_x
 _atom_site_fract_y
 _atom_site_fract_z
 _atom_site_fract_occupancy
 Mg  Mg1  1  0.65402  0.32770  0.25000  1
 Mg  Mg2  1  0.65402  0.82632  0.25000  1
 Mg  Mg3  1  0.33775  0.16067  0.75000  1
 Mg  Mg4  1  0.33775  0.67708  0.75000  1
 Mg  Mg5  1  0.85433  0.17716  0.75000  1
 Mg  Mg6  1  0.85402  0.67701  0.75000  1
 Mo  Mo1  1  0.14987  0.82493  0.25000  1
 Si  Si1  1  0.15824  0.32912  0.25000  1
