CIF file written using JARVIS-Tools package.
data_Na4MnO4
_symmetry_space_group_name_H-M  'Pc'
_cell_length_a       6.76949
_cell_length_b       4.87232
_cell_length_c       10.3122
_cell_angle_alpha    90
_cell_angle_beta     131.674
_cell_angle_gamma    90

_symmetry_Int_Tables_number  7
_chemical_formula_structural  Na4MnO4
_chemical_formula_sum  Na8Mn2O8
_cell_volume  254.05753512578937
_cell_formula_units_Z  2
loop_
  _symmetry_equiv_pos_site_id
 _symmetry_equiv_pos_as_xyz
 1  'x, y, z'
loop_
 _atom_site_type_symbol
 _atom_site_label
 _atom_site_symmetry_multiplicity
 _atom_site_fract_x
 _atom_site_fract_y
 _atom_site_fract_z
 _atom_site_fract_occupancy
 Mn  Mn1  1  0.02397  0.80480  0.51352  1
 Mn  Mn2  1  0.02397  0.19520  0.01352  1
 Na  Na1  1  0.71350  0.25793  0.49354  1
 Na  Na2  1  0.95634  0.74467  0.76937  1
 Na  Na3  1  0.49127  0.64355  0.18557  1
 Na  Na4  1  0.27754  0.77754  0.31582  1
 Na  Na5  1  0.71350  0.74207  0.99354  1
 Na  Na6  1  0.49127  0.35645  0.68557  1
 Na  Na7  1  0.95634  0.25533  0.26937  1
 Na  Na8  1  0.27754  0.22246  0.81582  1
 O  O1  1  0.28131  0.29884  0.23959  1
 O  O2  1  0.72916  0.24672  0.97606  1
 O  O3  1  0.08559  0.15873  0.52915  1
 O  O4  1  0.28131  0.70116  0.73959  1
 O  O5  1  0.91840  0.73211  0.29793  1
 O  O6  1  0.72916  0.75328  0.47606  1
 O  O7  1  0.08559  0.84127  0.02915  1
 O  O8  1  0.91840  0.26789  0.79793  1
