CIF file written using JARVIS-Tools package.
data_Rh3Pb2Se2
_symmetry_space_group_name_H-M  'R-3m'
_cell_length_a       5.9402
_cell_length_b       5.9402
_cell_length_c       5.9402
_cell_angle_alpha    58.6689
_cell_angle_beta     58.6689
_cell_angle_gamma    58.6689

_symmetry_Int_Tables_number  166
_chemical_formula_structural  Rh3Pb2Se2
_chemical_formula_sum  Rh3Pb2Se2
_cell_volume  143.70445607304072
_cell_formula_units_Z  1
loop_
  _symmetry_equiv_pos_site_id
 _symmetry_equiv_pos_as_xyz
 1  'x, y, z'
loop_
 _atom_site_type_symbol
 _atom_site_label
 _atom_site_symmetry_multiplicity
 _atom_site_fract_x
 _atom_site_fract_y
 _atom_site_fract_z
 _atom_site_fract_occupancy
 Pb  Pb1  1  0.00000  0.00000  0.00000  1
 Pb  Pb2  1  0.50000  0.50000  0.50000  1
 Rh  Rh1  1  0.50000  0.50000  -0.00000  1
 Rh  Rh2  1  0.50000  -0.00000  0.50000  1
 Rh  Rh3  1  -0.00000  0.50000  0.50000  1
 Se  Se1  1  0.78789  0.78789  0.78789  1
 Se  Se2  1  0.21211  0.21211  0.21211  1
