CIF file written using JARVIS-Tools package.
data_SmCu2
_symmetry_space_group_name_H-M  'Imma'
_cell_length_a       4.31177
_cell_length_b       5.54924
_cell_length_c       5.54924
_cell_angle_alpha    78.5306
_cell_angle_beta     67.1388
_cell_angle_gamma    67.1388

_symmetry_Int_Tables_number  74
_chemical_formula_structural  SmCu2
_chemical_formula_sum  Sm2Cu4
_cell_volume  112.55687044040153
_cell_formula_units_Z  2
loop_
  _symmetry_equiv_pos_site_id
 _symmetry_equiv_pos_as_xyz
 1  'x, y, z'
loop_
 _atom_site_type_symbol
 _atom_site_label
 _atom_site_symmetry_multiplicity
 _atom_site_fract_x
 _atom_site_fract_y
 _atom_site_fract_z
 _atom_site_fract_occupancy
 Cu  Cu1  1  0.16552  0.29417  0.37480  1
 Cu  Cu2  1  0.83448  0.70583  0.62520  1
 Cu  Cu3  1  0.83448  0.12520  0.20583  1
 Cu  Cu4  1  0.16552  0.87480  0.79417  1
 Sm  Sm1  1  0.53348  0.71652  0.21652  1
 Sm  Sm2  1  0.46652  0.28348  0.78348  1
