CIF file written using JARVIS-Tools package.
data_Ga3SiNi4
_symmetry_space_group_name_H-M  'R3'
_cell_length_a       4.63475
_cell_length_b       4.63476
_cell_length_c       4.63476
_cell_angle_alpha    90.9499
_cell_angle_beta     90.9499
_cell_angle_gamma    90.95

_symmetry_Int_Tables_number  146
_chemical_formula_structural  Ga3SiNi4
_chemical_formula_sum  Ga3SiNi4
_cell_volume  99.51763752795806
_cell_formula_units_Z  1
loop_
  _symmetry_equiv_pos_site_id
 _symmetry_equiv_pos_as_xyz
 1  'x, y, z'
loop_
 _atom_site_type_symbol
 _atom_site_label
 _atom_site_symmetry_multiplicity
 _atom_site_fract_x
 _atom_site_fract_y
 _atom_site_fract_z
 _atom_site_fract_occupancy
 Ga  Ga1  1  0.34096  0.16028  0.65175  1
 Ga  Ga2  1  0.16028  0.65175  0.34096  1
 Ga  Ga3  1  0.65175  0.34096  0.16028  1
 Ni  Ni1  1  0.13095  0.13095  0.13095  1
 Ni  Ni2  1  0.65360  0.85863  0.36351  1
 Ni  Ni3  1  0.85863  0.36351  0.65360  1
 Ni  Ni4  1  0.36351  0.65360  0.85863  1
 Si  Si1  1  0.84032  0.84032  0.84032  1
