CIF file written using JARVIS-Tools package.
data_Hf2P2O9
_symmetry_space_group_name_H-M  'C2/m'
_cell_length_a       6.62598
_cell_length_b       7.58481
_cell_length_c       8.18982
_cell_angle_alpha    78.5899
_cell_angle_beta     66.1386
_cell_angle_gamma    64.1005

_symmetry_Int_Tables_number  12
_chemical_formula_structural  Hf2P2O9
_chemical_formula_sum  Hf4P4O8
_cell_volume  338.49590725494704
_cell_formula_units_Z  2
loop_
  _symmetry_equiv_pos_site_id
 _symmetry_equiv_pos_as_xyz
 1  'x, y, z'
loop_
 _atom_site_type_symbol
 _atom_site_label
 _atom_site_symmetry_multiplicity
 _atom_site_fract_x
 _atom_site_fract_y
 _atom_site_fract_z
 _atom_site_fract_occupancy
 Hf  Hf1  1  0.68366  0.26801  0.36466  1
 Hf  Hf2  1  0.31634  0.73199  0.63534  1
 Hf  Hf3  1  0.94264  0.21235  0.90237  1
 Hf  Hf4  1  0.05736  0.78765  0.09763  1
 O  O1  1  0.51511  0.60368  0.36611  1
 O  O2  1  0.27428  0.97869  0.47275  1
 O  O3  1  0.73343  0.44123  0.09192  1
 O  O4  1  0.72572  0.02131  0.52725  1
 O  O5  1  0.88505  0.07230  0.15760  1
 O  O6  1  0.24322  0.23595  0.89847  1
 O  O7  1  0.37764  0.76405  0.10153  1
 O  O8  1  0.62371  0.72467  0.64666  1
 O  O9  1  0.37629  0.27533  0.35334  1
 O  O10  1  0.03217  0.29422  0.64143  1
 O  O11  1  0.26657  0.55877  0.90808  1
 O  O12  1  0.11495  0.92770  0.84240  1
 O  O13  1  0.62236  0.23595  0.89847  1
 O  O14  1  0.96783  0.70578  0.35857  1
 O  O15  1  0.75678  0.76405  0.10153  1
 O  O16  1  0.99503  0.27533  0.35334  1
 O  O17  1  0.48489  0.39632  0.63389  1
 O  O18  1  0.00497  0.72467  0.64666  1
 P  P1  1  0.82945  0.79451  0.54659  1
 P  P2  1  0.40879  0.34343  0.83900  1
 P  P3  1  0.17055  0.20549  0.45341  1
 P  P4  1  0.59121  0.65657  0.16100  1
