CIF file written using JARVIS-Tools package.
data_Te4Mo3S2
_symmetry_space_group_name_H-M  'P-6m2'
_cell_length_a       3.43362
_cell_length_b       3.43369
_cell_length_c       21.1588
_cell_angle_alpha    90
_cell_angle_beta     90
_cell_angle_gamma    119.999

_symmetry_Int_Tables_number  187
_chemical_formula_structural  Te4Mo3S2
_chemical_formula_sum  Te4Mo3S2
_cell_volume  216.04157477144895
_cell_formula_units_Z  1
loop_
  _symmetry_equiv_pos_site_id
 _symmetry_equiv_pos_as_xyz
 1  'x, y, z'
loop_
 _atom_site_type_symbol
 _atom_site_label
 _atom_site_symmetry_multiplicity
 _atom_site_fract_x
 _atom_site_fract_y
 _atom_site_fract_z
 _atom_site_fract_occupancy
 Mo  Mo1  1  0.33327  0.66654  0.03406  1
 Mo  Mo2  1  0.33327  0.66654  0.65990  1
 Mo  Mo3  1  0.66678  0.33356  0.34698  1
 S  S1  1  0.33345  0.66690  0.41754  1
 S  S2  1  0.33345  0.66690  0.27642  1
 Te  Te1  1  0.66659  0.33318  0.94595  1
 Te  Te2  1  0.66660  0.33320  0.57168  1
 Te  Te3  1  0.66660  0.33320  0.12229  1
 Te  Te4  1  0.66659  0.33318  0.74801  1
