CIF file written using JARVIS-Tools package.
data_YBeCo2
_symmetry_space_group_name_H-M  'I-4m2'
_cell_length_a       4.86952
_cell_length_b       4.86952
_cell_length_c       4.86952
_cell_angle_alpha    135.531
_cell_angle_beta     135.531
_cell_angle_gamma    64.7068

_symmetry_Int_Tables_number  119
_chemical_formula_structural  YBeCo2
_chemical_formula_sum  YBeCo2
_cell_volume  55.86741001891629
_cell_formula_units_Z  1
loop_
  _symmetry_equiv_pos_site_id
 _symmetry_equiv_pos_as_xyz
 1  'x, y, z'
loop_
 _atom_site_type_symbol
 _atom_site_label
 _atom_site_symmetry_multiplicity
 _atom_site_fract_x
 _atom_site_fract_y
 _atom_site_fract_z
 _atom_site_fract_occupancy
 Be  Be1  1  0.75000  0.25000  0.50000  1
 Co  Co1  1  0.00000  0.00000  0.00000  1
 Co  Co2  1  0.25000  0.75000  0.50000  1
 Y  Y1  1  0.50000  0.50000  0.00000  1
