CIF file written using JARVIS-Tools package.
data_K3CrF3
_symmetry_space_group_name_H-M  'Cm'
_cell_length_a       6.21686
_cell_length_b       6.20838
_cell_length_c       6.08054
_cell_angle_alpha    60.7664
_cell_angle_beta     60.6219
_cell_angle_gamma    50.0422

_symmetry_Int_Tables_number  8
_chemical_formula_structural  K3CrF3
_chemical_formula_sum  K3CrF3
_cell_volume  151.38994068893257
_cell_formula_units_Z  1
loop_
  _symmetry_equiv_pos_site_id
 _symmetry_equiv_pos_as_xyz
 1  'x, y, z'
loop_
 _atom_site_type_symbol
 _atom_site_label
 _atom_site_symmetry_multiplicity
 _atom_site_fract_x
 _atom_site_fract_y
 _atom_site_fract_z
 _atom_site_fract_occupancy
 Cr  Cr1  1  -0.01952  0.02950  0.04110  1
 F  F1  1  0.19466  0.24406  0.82871  1
 F  F2  1  0.97835  0.03162  0.68021  1
 F  F3  1  0.76586  0.81538  0.25748  1
 K  K1  1  0.22623  0.27538  0.25808  1
 K  K2  1  0.47974  0.53029  0.54489  1
 K  K3  1  0.73468  0.78377  0.74954  1
