CIF file written using JARVIS-Tools package.
data_RbV3O8
_symmetry_space_group_name_H-M  'P2_1/m'
_cell_length_a       5.04235
_cell_length_b       7.87917
_cell_length_c       8.44194
_cell_angle_alpha    90
_cell_angle_beta     90
_cell_angle_gamma    96.4041

_symmetry_Int_Tables_number  11
_chemical_formula_structural  RbV3O8
_chemical_formula_sum  Rb2V6O6
_cell_volume  333.3014671871508
_cell_formula_units_Z  2
loop_
  _symmetry_equiv_pos_site_id
 _symmetry_equiv_pos_as_xyz
 1  'x, y, z'
loop_
 _atom_site_type_symbol
 _atom_site_label
 _atom_site_symmetry_multiplicity
 _atom_site_fract_x
 _atom_site_fract_y
 _atom_site_fract_z
 _atom_site_fract_occupancy
 O  O1  1  0.31656  0.49427  0.91253  1
 O  O2  1  0.11027  0.73040  0.09917  1
 O  O3  1  0.11027  0.73040  0.40083  1
 O  O4  1  0.88973  0.26960  0.90083  1
 O  O5  1  0.56441  0.83231  0.56712  1
 O  O6  1  0.43559  0.16769  0.06712  1
 O  O7  1  0.43559  0.16769  0.43288  1
 O  O8  1  0.56441  0.83231  0.93288  1
 O  O9  1  0.87674  0.57437  0.75000  1
 O  O10  1  0.12326  0.42563  0.25000  1
 O  O11  1  0.88973  0.26960  0.59917  1
 O  O12  1  0.57858  0.75640  0.25000  1
 O  O13  1  0.68344  0.50573  0.41253  1
 O  O14  1  0.68344  0.50573  0.08747  1
 O  O15  1  0.31656  0.49427  0.58747  1
 O  O16  1  0.42142  0.24360  0.75000  1
 Rb  Rb1  1  0.94377  0.06327  0.25000  1
 Rb  Rb2  1  0.05623  0.93673  0.75000  1
 V  V1  1  0.56276  0.31529  0.55374  1
 V  V2  1  0.43724  0.68471  0.05374  1
 V  V3  1  0.43724  0.68471  0.44626  1
 V  V4  1  0.56276  0.31529  0.94626  1
 V  V5  1  0.92430  0.57381  0.25000  1
 V  V6  1  0.07570  0.42619  0.75000  1
