CIF file written using JARVIS-Tools package.
data_K
_symmetry_space_group_name_H-M  'I4_1/amd'
_cell_length_a       8.43956
_cell_length_b       8.43956
_cell_length_c       8.43956
_cell_angle_alpha    150.384
_cell_angle_beta     150.384
_cell_angle_gamma    42.3783

_symmetry_Int_Tables_number  141
_chemical_formula_structural  K
_chemical_formula_sum  K2
_cell_volume  146.44659436857424
_cell_formula_units_Z  2
loop_
  _symmetry_equiv_pos_site_id
 _symmetry_equiv_pos_as_xyz
 1  'x, y, z'
loop_
 _atom_site_type_symbol
 _atom_site_label
 _atom_site_symmetry_multiplicity
 _atom_site_fract_x
 _atom_site_fract_y
 _atom_site_fract_z
 _atom_site_fract_occupancy
 K  K1  1  0.25000  0.75000  0.50000  1
 K  K2  1  0.50000  0.50000  0.00000  1
