CIF file written using JARVIS-Tools package.
data_Pu2O3
_symmetry_space_group_name_H-M  'P-3m1'
_cell_length_a       3.76189
_cell_length_b       3.76222
_cell_length_c       5.93903
_cell_angle_alpha    90.0019
_cell_angle_beta     90.0006
_cell_angle_gamma    119.996

_symmetry_Int_Tables_number  164
_chemical_formula_structural  Pu2O3
_chemical_formula_sum  Pu2O3
_cell_volume  72.79741056704817
_cell_formula_units_Z  1
loop_
  _symmetry_equiv_pos_site_id
 _symmetry_equiv_pos_as_xyz
 1  'x, y, z'
loop_
 _atom_site_type_symbol
 _atom_site_label
 _atom_site_symmetry_multiplicity
 _atom_site_fract_x
 _atom_site_fract_y
 _atom_site_fract_z
 _atom_site_fract_occupancy
 O  O1  1  0.00000  0.00000  0.00000  1
 O  O2  1  0.33334  0.66667  0.64178  1
 O  O3  1  0.66666  0.33333  0.35822  1
 Pu  Pu1  1  0.33335  0.66668  0.24192  1
 Pu  Pu2  1  0.66665  0.33332  0.75808  1
