CIF file written using JARVIS-Tools package.
data_TiFeH
_symmetry_space_group_name_H-M  'Pmma'
_cell_length_a       2.89966
_cell_length_b       4.265
_cell_length_c       4.55236
_cell_angle_alpha    90
_cell_angle_beta     90
_cell_angle_gamma    90

_symmetry_Int_Tables_number  51
_chemical_formula_structural  TiFeH
_chemical_formula_sum  Ti2Fe2H2
_cell_volume  56.29930254796678
_cell_formula_units_Z  2
loop_
  _symmetry_equiv_pos_site_id
 _symmetry_equiv_pos_as_xyz
 1  'x, y, z'
loop_
 _atom_site_type_symbol
 _atom_site_label
 _atom_site_symmetry_multiplicity
 _atom_site_fract_x
 _atom_site_fract_y
 _atom_site_fract_z
 _atom_site_fract_occupancy
 Fe  Fe1  1  0.00000  0.75000  0.69650  1
 Fe  Fe2  1  0.00000  0.25000  0.30350  1
 H  H1  1  0.00000  0.50000  0.00000  1
 H  H2  1  0.00000  0.00000  0.00000  1
 Ti  Ti1  1  0.50000  0.75000  0.25342  1
 Ti  Ti2  1  0.50000  0.25000  0.74658  1
