CIF file written using JARVIS-Tools package.
data_YGe
_symmetry_space_group_name_H-M  'Cmcm'
_cell_length_a       3.98372
_cell_length_b       4.26744
_cell_length_c       5.77916
_cell_angle_alpha    111.667
_cell_angle_beta     90
_cell_angle_gamma    90

_symmetry_Int_Tables_number  63
_chemical_formula_structural  YGe
_chemical_formula_sum  Y2Ge2
_cell_volume  91.30593391354074
_cell_formula_units_Z  2
loop_
  _symmetry_equiv_pos_site_id
 _symmetry_equiv_pos_as_xyz
 1  'x, y, z'
loop_
 _atom_site_type_symbol
 _atom_site_label
 _atom_site_symmetry_multiplicity
 _atom_site_fract_x
 _atom_site_fract_y
 _atom_site_fract_z
 _atom_site_fract_occupancy
 Ge  Ge1  1  0.25000  0.58717  0.17434  1
 Ge  Ge2  1  0.75000  0.41283  0.82566  1
 Y  Y1  1  0.25000  0.86242  0.72484  1
 Y  Y2  1  0.75000  0.13758  0.27516  1
