CIF file written using JARVIS-Tools package.
data_YbNd2S4
_symmetry_space_group_name_H-M  'C222_1'
_cell_length_a       4.31478
_cell_length_b       7.85018
_cell_length_c       11.851
_cell_angle_alpha    90
_cell_angle_beta     90
_cell_angle_gamma    105.951

_symmetry_Int_Tables_number  20
_chemical_formula_structural  YbNd2S4
_chemical_formula_sum  Yb2Nd4S8
_cell_volume  385.95671422848915
_cell_formula_units_Z  2
loop_
  _symmetry_equiv_pos_site_id
 _symmetry_equiv_pos_as_xyz
 1  'x, y, z'
loop_
 _atom_site_type_symbol
 _atom_site_label
 _atom_site_symmetry_multiplicity
 _atom_site_fract_x
 _atom_site_fract_y
 _atom_site_fract_z
 _atom_site_fract_occupancy
 Nd  Nd1  1  0.07876  0.65850  0.88907  1
 Nd  Nd2  1  0.57974  0.65850  0.61093  1
 Nd  Nd3  1  0.92124  0.34150  0.38907  1
 Nd  Nd4  1  0.42026  0.34150  0.11093  1
 S  S1  1  0.19423  0.87860  0.62941  1
 S  S2  1  0.54145  0.60281  0.37885  1
 S  S3  1  0.93864  0.39719  0.62115  1
 S  S4  1  0.45855  0.39719  0.87885  1
 S  S5  1  0.68437  0.87860  0.87059  1
 S  S6  1  0.80577  0.12140  0.12941  1
 S  S7  1  0.31563  0.12140  0.37059  1
 S  S8  1  0.06136  0.60281  0.12115  1
 Yb  Yb1  1  0.06990  0.13980  0.75000  1
 Yb  Yb2  1  0.93010  0.86020  0.25000  1
