CIF file written using JARVIS-Tools package.
data_LiFeP
_symmetry_space_group_name_H-M  'Cmcm'
_cell_length_a       3.66995
_cell_length_b       3.7341
_cell_length_c       6.11673
_cell_angle_alpha    90
_cell_angle_beta     107.457
_cell_angle_gamma    90

_symmetry_Int_Tables_number  63
_chemical_formula_structural  LiFeP
_chemical_formula_sum  Li2Fe2P2
_cell_volume  79.96274855284656
_cell_formula_units_Z  2
loop_
  _symmetry_equiv_pos_site_id
 _symmetry_equiv_pos_as_xyz
 1  'x, y, z'
loop_
 _atom_site_type_symbol
 _atom_site_label
 _atom_site_symmetry_multiplicity
 _atom_site_fract_x
 _atom_site_fract_y
 _atom_site_fract_z
 _atom_site_fract_occupancy
 Fe  Fe1  1  0.75074  0.75000  0.50149  1
 Fe  Fe2  1  0.24926  0.25000  0.49851  1
 Li  Li1  1  0.08569  0.75000  0.17138  1
 Li  Li2  1  0.91431  0.25000  0.82862  1
 P  P1  1  0.35477  0.75000  0.70954  1
 P  P2  1  0.64523  0.25000  0.29046  1
