CIF file written using JARVIS-Tools package.
data_LiTa2CuO6
_symmetry_space_group_name_H-M  'R3'
_cell_length_a       5.55991
_cell_length_b       5.55992
_cell_length_c       5.55991
_cell_angle_alpha    55.7886
_cell_angle_beta     55.7886
_cell_angle_gamma    55.7885

_symmetry_Int_Tables_number  146
_chemical_formula_structural  LiTa2CuO6
_chemical_formula_sum  LiTa2CuO6
_cell_volume  109.66292804815026
_cell_formula_units_Z  1
loop_
  _symmetry_equiv_pos_site_id
 _symmetry_equiv_pos_as_xyz
 1  'x, y, z'
loop_
 _atom_site_type_symbol
 _atom_site_label
 _atom_site_symmetry_multiplicity
 _atom_site_fract_x
 _atom_site_fract_y
 _atom_site_fract_z
 _atom_site_fract_occupancy
 Cu  Cu1  1  0.74761  0.74761  0.74761  1
 Li  Li1  1  0.20913  0.20913  0.20913  1
 O  O1  1  0.13518  0.36313  0.76348  1
 O  O2  1  0.36313  0.76348  0.13518  1
 O  O3  1  0.76348  0.13518  0.36313  1
 O  O4  1  0.62155  0.25330  0.87852  1
 O  O5  1  0.25330  0.87852  0.62155  1
 O  O6  1  0.87852  0.62155  0.25330  1
 Ta  Ta1  1  0.49682  0.49682  0.49682  1
 Ta  Ta2  1  0.99128  0.99128  0.99128  1
