CIF file written using JARVIS-Tools package.
data_HfMg6W
_symmetry_space_group_name_H-M  'Amm2'
_cell_length_a       6.31649
_cell_length_b       6.31649
_cell_length_c       4.89455
_cell_angle_alpha    90
_cell_angle_beta     90
_cell_angle_gamma    122.567

_symmetry_Int_Tables_number  38
_chemical_formula_structural  HfMg6W
_chemical_formula_sum  HfMg6W
_cell_volume  164.57648703092963
_cell_formula_units_Z  1
loop_
  _symmetry_equiv_pos_site_id
 _symmetry_equiv_pos_as_xyz
 1  'x, y, z'
loop_
 _atom_site_type_symbol
 _atom_site_label
 _atom_site_symmetry_multiplicity
 _atom_site_fract_x
 _atom_site_fract_y
 _atom_site_fract_z
 _atom_site_fract_occupancy
 Hf  Hf1  1  0.30260  0.19740  0.75000  1
 Mg  Mg1  1  0.17964  0.82785  0.25000  1
 Mg  Mg2  1  0.67215  0.32036  0.25000  1
 Mg  Mg3  1  0.67379  0.82621  0.25000  1
 Mg  Mg4  1  0.31568  0.67045  0.75000  1
 Mg  Mg5  1  0.82955  0.18432  0.75000  1
 Mg  Mg6  1  0.83045  0.66955  0.75000  1
 W  W1  1  0.19614  0.30386  0.25000  1
