CIF file written using JARVIS-Tools package.
data_Bi2TeO2
_symmetry_space_group_name_H-M  'I4/mmm'
_cell_length_a       4.01957
_cell_length_b       4.01957
_cell_length_c       7.02048
_cell_angle_alpha    106.635
_cell_angle_beta     106.635
_cell_angle_gamma    90

_symmetry_Int_Tables_number  139
_chemical_formula_structural  Bi2TeO2
_chemical_formula_sum  Bi2TeO2
_cell_volume  103.71789077859256
_cell_formula_units_Z  1
loop_
  _symmetry_equiv_pos_site_id
 _symmetry_equiv_pos_as_xyz
 1  'x, y, z'
loop_
 _atom_site_type_symbol
 _atom_site_label
 _atom_site_symmetry_multiplicity
 _atom_site_fract_x
 _atom_site_fract_y
 _atom_site_fract_z
 _atom_site_fract_occupancy
 Bi  Bi1  1  0.65318  0.65318  0.30637  1
 Bi  Bi2  1  0.34682  0.34682  0.69363  1
 O  O1  1  0.75000  0.25000  0.50000  1
 O  O2  1  0.25000  0.75000  0.50000  1
 Te  Te1  1  0.00000  0.00000  0.00000  1
