CIF file written using JARVIS-Tools package.
data_FeSb2O4
_symmetry_space_group_name_H-M  'P4_2/m'
_cell_length_a       5.85324
_cell_length_b       8.59511
_cell_length_c       8.59511
_cell_angle_alpha    90
_cell_angle_beta     90
_cell_angle_gamma    90

_symmetry_Int_Tables_number  84
_chemical_formula_structural  FeSb2O4
_chemical_formula_sum  Fe4Sb8O6
_cell_volume  432.4133738217285
_cell_formula_units_Z  4
loop_
  _symmetry_equiv_pos_site_id
 _symmetry_equiv_pos_as_xyz
 1  'x, y, z'
loop_
 _atom_site_type_symbol
 _atom_site_label
 _atom_site_symmetry_multiplicity
 _atom_site_fract_x
 _atom_site_fract_y
 _atom_site_fract_z
 _atom_site_fract_occupancy
 Fe  Fe1  1  0.78442  0.00000  0.50000  1
 Fe  Fe2  1  0.71558  0.50000  0.00000  1
 Fe  Fe3  1  0.21558  0.00000  0.50000  1
 Fe  Fe4  1  0.28442  0.50000  0.00000  1
 O  O1  1  0.50000  0.38644  0.15204  1
 O  O2  1  0.00000  0.15204  0.61356  1
 O  O3  1  0.00000  0.84796  0.38644  1
 O  O4  1  0.75744  0.82621  0.66963  1
 O  O5  1  0.24256  0.82621  0.66963  1
 O  O6  1  0.00000  0.35593  0.08804  1
 O  O7  1  0.00000  0.64407  0.91196  1
 O  O8  1  0.24256  0.17379  0.33037  1
 O  O9  1  0.25744  0.33037  0.82621  1
 O  O10  1  0.50000  0.61356  0.84796  1
 O  O11  1  0.25744  0.66963  0.17379  1
 O  O12  1  0.50000  0.08804  0.64407  1
 O  O13  1  0.50000  0.91196  0.35593  1
 O  O14  1  0.75744  0.17379  0.33037  1
 O  O15  1  0.74256  0.33037  0.82621  1
 O  O16  1  0.74256  0.66963  0.17379  1
 Sb  Sb1  1  0.00000  0.17338  0.84533  1
 Sb  Sb2  1  0.00000  0.34306  0.31697  1
 Sb  Sb3  1  0.00000  0.82662  0.15467  1
 Sb  Sb4  1  0.50000  0.15467  0.17338  1
 Sb  Sb5  1  0.50000  0.68303  0.34306  1
 Sb  Sb6  1  0.50000  0.31697  0.65694  1
 Sb  Sb7  1  0.00000  0.65694  0.68303  1
 Sb  Sb8  1  0.50000  0.84533  0.82662  1
