CIF file written using JARVIS-Tools package.
data_Sr4SeS3
_symmetry_space_group_name_H-M  'C2/m'
_cell_length_a       7.4532
_cell_length_b       7.4532
_cell_length_c       7.4568
_cell_angle_alpha    80.3972
_cell_angle_beta     80.3972
_cell_angle_gamma    33.555

_symmetry_Int_Tables_number  12
_chemical_formula_structural  Sr4SeS3
_chemical_formula_sum  Sr4SeS3
_cell_volume  225.45581826772752
_cell_formula_units_Z  1
loop_
  _symmetry_equiv_pos_site_id
 _symmetry_equiv_pos_as_xyz
 1  'x, y, z'
loop_
 _atom_site_type_symbol
 _atom_site_label
 _atom_site_symmetry_multiplicity
 _atom_site_fract_x
 _atom_site_fract_y
 _atom_site_fract_z
 _atom_site_fract_occupancy
 S  S1  1  0.24858  0.24858  0.24910  1
 S  S2  1  0.00000  0.00000  0.00000  1
 S  S3  1  0.75142  0.75142  0.75090  1
 Se  Se1  1  0.50000  0.50000  0.50000  1
 Sr  Sr1  1  0.62550  0.62550  0.11953  1
 Sr  Sr2  1  0.37450  0.37450  0.88047  1
 Sr  Sr3  1  0.12867  0.12867  0.62911  1
 Sr  Sr4  1  0.87133  0.87133  0.37089  1
