CIF file written using JARVIS-Tools package.
data_Hf2Mg
_symmetry_space_group_name_H-M  'P4_2/mnm'
_cell_length_a       5.58925
_cell_length_b       5.58925
_cell_length_c       5.02592
_cell_angle_alpha    90
_cell_angle_beta     90
_cell_angle_gamma    90

_symmetry_Int_Tables_number  136
_chemical_formula_structural  Hf2Mg
_chemical_formula_sum  Hf4Mg2
_cell_volume  157.00854282686507
_cell_formula_units_Z  2
loop_
  _symmetry_equiv_pos_site_id
 _symmetry_equiv_pos_as_xyz
 1  'x, y, z'
loop_
 _atom_site_type_symbol
 _atom_site_label
 _atom_site_symmetry_multiplicity
 _atom_site_fract_x
 _atom_site_fract_y
 _atom_site_fract_z
 _atom_site_fract_occupancy
 Hf  Hf1  1  0.33174  0.33174  0.00000  1
 Hf  Hf2  1  0.66826  0.66826  0.00000  1
 Hf  Hf3  1  0.83174  0.16826  0.50000  1
 Hf  Hf4  1  0.16826  0.83174  0.50000  1
 Mg  Mg1  1  0.00000  0.00000  0.00000  1
 Mg  Mg2  1  0.50000  0.50000  0.50000  1
