data_image0
_chemical_formula_structural       Ag3Er3Pb3
_chemical_formula_sum              "Ag3 Er3 Pb3"
_cell_length_a       7.46652
_cell_length_b       7.46652
_cell_length_c       4.51734
_cell_angle_alpha    90
_cell_angle_beta     90
_cell_angle_gamma    120.001

_space_group_name_H-M_alt    "P 1"
_space_group_IT_number       1

loop_
  _space_group_symop_operation_xyz
  'x, y, z'

loop_
  _atom_site_type_symbol
  _atom_site_label
  _atom_site_symmetry_multiplicity
  _atom_site_fract_x
  _atom_site_fract_y
  _atom_site_fract_z
  _atom_site_occupancy
  Ag  Ag1       1.0  0.24600  0.00001  0.00000  1.0000
  Ag  Ag2       1.0  0.00001  0.24600  0.00000  1.0000
  Ag  Ag3       1.0  0.75400  0.75400  0.00000  1.0000
  Er  Er1       1.0  0.56800  0.00002  0.50000  1.0000
  Er  Er2       1.0  0.43200  0.43200  0.50000  1.0000
  Er  Er3       1.0  0.00002  0.56800  0.50000  1.0000
  Pb  Pb1       1.0  0.66700  0.33300  0.00000  1.0000
  Pb  Pb2       1.0  0.33300  0.66700  0.00000  1.0000
  Pb  Pb3       1.0  0.00001  0.00000  0.50000  1.0000
