CIF file written using JARVIS-Tools package.
data_ZnS
_symmetry_space_group_name_H-M  'P3m1'
_cell_length_a       3.84097
_cell_length_b       3.84097
_cell_length_c       62.8037
_cell_angle_alpha    90
_cell_angle_beta     90
_cell_angle_gamma    120

_symmetry_Int_Tables_number  156
_chemical_formula_structural  ZnS
_chemical_formula_sum  Zn20S20
_cell_volume  802.4144489052501
_cell_formula_units_Z  20
loop_
  _symmetry_equiv_pos_site_id
 _symmetry_equiv_pos_as_xyz
 1  'x, y, z'
loop_
 _atom_site_type_symbol
 _atom_site_label
 _atom_site_symmetry_multiplicity
 _atom_site_fract_x
 _atom_site_fract_y
 _atom_site_fract_z
 _atom_site_fract_occupancy
 S  S1  1  0.00000  0.00000  0.18747  1
 S  S2  1  0.00000  0.00000  0.48745  1
 S  S3  1  0.66667  0.33333  0.98755  1
 S  S4  1  0.00000  0.00000  0.68744  1
 S  S5  1  0.66667  0.33333  0.63750  1
 S  S6  1  0.66667  0.33333  0.13749  1
 S  S7  1  0.33333  0.66667  0.73756  1
 S  S8  1  0.66667  0.33333  0.53740  1
 S  S9  1  0.66667  0.33333  0.38754  1
 S  S10  1  0.33333  0.66667  0.58752  1
 S  S11  1  0.00000  0.00000  0.03754  1
 S  S12  1  0.33333  0.66667  0.08752  1
 S  S13  1  0.66667  0.33333  0.28741  1
 S  S14  1  0.33333  0.66667  0.88745  1
 S  S15  1  0.00000  0.00000  0.93741  1
 S  S16  1  0.66667  0.33333  0.83750  1
 S  S17  1  0.00000  0.00000  0.33755  1
 S  S18  1  0.33333  0.66667  0.43749  1
 S  S19  1  0.33333  0.66667  0.23744  1
 S  S20  1  0.00000  0.00000  0.78754  1
 Zn  Zn1  1  0.33333  0.66667  0.05005  1
 Zn  Zn2  1  0.33333  0.66667  0.70002  1
 Zn  Zn3  1  0.00000  0.00000  0.75009  1
 Zn  Zn4  1  0.33333  0.66667  0.19997  1
 Zn  Zn5  1  0.33333  0.66667  0.84999  1
 Zn  Zn6  1  0.00000  0.00000  0.15000  1
 Zn  Zn7  1  0.00000  0.00000  0.89995  1
 Zn  Zn8  1  0.33333  0.66667  0.40003  1
 Zn  Zn9  1  0.00000  0.00000  0.44999  1
 Zn  Zn10  1  0.66667  0.33333  0.80003  1
 Zn  Zn11  1  0.00000  0.00000  0.00009  1
 Zn  Zn12  1  0.66667  0.33333  0.24995  1
 Zn  Zn13  1  0.00000  0.00000  0.64998  1
 Zn  Zn14  1  0.66667  0.33333  0.10002  1
 Zn  Zn15  1  0.66667  0.33333  0.95000  1
 Zn  Zn16  1  0.66667  0.33333  0.49995  1
 Zn  Zn17  1  0.66667  0.33333  0.35009  1
 Zn  Zn18  1  0.00000  0.00000  0.30000  1
 Zn  Zn19  1  0.66667  0.33333  0.60005  1
 Zn  Zn20  1  0.33333  0.66667  0.54999  1
