CIF file written using JARVIS-Tools package.
data_TaTe2Cl6
_symmetry_space_group_name_H-M  'P-1'
_cell_length_a       6.40303
_cell_length_b       7.52758
_cell_length_c       11.0914
_cell_angle_alpha    79.559
_cell_angle_beta     77.6773
_cell_angle_gamma    90.1758

_symmetry_Int_Tables_number  2
_chemical_formula_structural  TaTe2Cl6
_chemical_formula_sum  Ta2Te4Cl2
_cell_volume  513.1471232948475
_cell_formula_units_Z  2
loop_
  _symmetry_equiv_pos_site_id
 _symmetry_equiv_pos_as_xyz
 1  'x, y, z'
loop_
 _atom_site_type_symbol
 _atom_site_label
 _atom_site_symmetry_multiplicity
 _atom_site_fract_x
 _atom_site_fract_y
 _atom_site_fract_z
 _atom_site_fract_occupancy
 Cl  Cl1  1  0.72013  0.36686  0.60248  1
 Cl  Cl2  1  0.86831  0.28851  0.00812  1
 Cl  Cl3  1  0.13169  0.71149  -0.00812  1
 Cl  Cl4  1  0.34373  0.38044  0.17306  1
 Cl  Cl5  1  0.07914  0.96394  0.21923  1
 Cl  Cl6  1  0.92086  0.03606  0.78077  1
 Cl  Cl7  1  0.86421  0.54238  0.28120  1
 Cl  Cl8  1  0.27987  0.63314  0.39752  1
 Cl  Cl9  1  0.65627  0.61956  0.82694  1
 Cl  Cl10  1  0.55300  0.81126  0.10661  1
 Cl  Cl11  1  0.44700  0.18874  0.89339  1
 Cl  Cl12  1  0.13579  0.45762  0.71880  1
 Ta  Ta1  1  0.21377  0.67101  0.18954  1
 Ta  Ta2  1  0.78623  0.32899  0.81046  1
 Te  Te1  1  0.61950  0.09620  0.32578  1
 Te  Te2  1  0.38050  0.90380  0.67422  1
 Te  Te3  1  0.74256  0.84614  0.50546  1
 Te  Te4  1  0.25744  0.15386  0.49454  1
