CIF file written using JARVIS-Tools package.
data_CaSi3Pt
_symmetry_space_group_name_H-M  'I4mm'
_cell_length_a       4.28278
_cell_length_b       4.28278
_cell_length_c       5.7886
_cell_angle_alpha    111.712
_cell_angle_beta     111.712
_cell_angle_gamma    90

_symmetry_Int_Tables_number  107
_chemical_formula_structural  CaSi3Pt
_chemical_formula_sum  CaSi3Pt
_cell_volume  90.48614036745994
_cell_formula_units_Z  1
loop_
  _symmetry_equiv_pos_site_id
 _symmetry_equiv_pos_as_xyz
 1  'x, y, z'
loop_
 _atom_site_type_symbol
 _atom_site_label
 _atom_site_symmetry_multiplicity
 _atom_site_fract_x
 _atom_site_fract_y
 _atom_site_fract_z
 _atom_site_fract_occupancy
 Ca  Ca1  1  0.00246  0.00246  0.00491  1
 Pt  Pt1  1  0.64437  0.64437  0.28873  1
 Si  Si1  1  0.40198  0.40198  0.80396  1
 Si  Si2  1  0.76130  0.26130  0.52259  1
 Si  Si3  1  0.26130  0.76130  0.52259  1
