CIF file written using JARVIS-Tools package.
data_Mg6VCo
_symmetry_space_group_name_H-M  'Amm2'
_cell_length_a       6.22846
_cell_length_b       6.22847
_cell_length_c       4.58723
_cell_angle_alpha    90
_cell_angle_beta     90
_cell_angle_gamma    123.431

_symmetry_Int_Tables_number  38
_chemical_formula_structural  Mg6VCo
_chemical_formula_sum  Mg6VCo
_cell_volume  148.5128641597838
_cell_formula_units_Z  1
loop_
  _symmetry_equiv_pos_site_id
 _symmetry_equiv_pos_as_xyz
 1  'x, y, z'
loop_
 _atom_site_type_symbol
 _atom_site_label
 _atom_site_symmetry_multiplicity
 _atom_site_fract_x
 _atom_site_fract_y
 _atom_site_fract_z
 _atom_site_fract_occupancy
 Co  Co1  1  0.20270  0.29730  0.25000  1
 Mg  Mg1  1  0.17869  0.84884  0.25000  1
 Mg  Mg2  1  0.65116  0.32131  0.25000  1
 Mg  Mg3  1  0.67234  0.82766  0.25000  1
 Mg  Mg4  1  0.31985  0.65913  0.75000  1
 Mg  Mg5  1  0.84087  0.18015  0.75000  1
 Mg  Mg6  1  0.83138  0.66862  0.75000  1
 V  V1  1  0.30302  0.19698  0.75000  1
