CIF file written using JARVIS-Tools package.
data_SrV4O9
_symmetry_space_group_name_H-M  'P4/n'
_cell_length_a       5.27292
_cell_length_b       8.38697
_cell_length_c       8.38697
_cell_angle_alpha    90
_cell_angle_beta     90
_cell_angle_gamma    90

_symmetry_Int_Tables_number  85
_chemical_formula_structural  SrV4O9
_chemical_formula_sum  Sr2V8O8
_cell_volume  370.9032022426309
_cell_formula_units_Z  2
loop_
  _symmetry_equiv_pos_site_id
 _symmetry_equiv_pos_as_xyz
 1  'x, y, z'
loop_
 _atom_site_type_symbol
 _atom_site_label
 _atom_site_symmetry_multiplicity
 _atom_site_fract_x
 _atom_site_fract_y
 _atom_site_fract_z
 _atom_site_fract_occupancy
 O  O1  1  0.52572  0.95918  0.64276  1
 O  O2  1  0.50000  0.25000  0.75000  1
 O  O3  1  0.06771  0.67268  0.01006  1
 O  O4  1  0.06771  0.48994  0.67268  1
 O  O5  1  0.06771  0.01006  0.82732  1
 O  O6  1  0.06771  0.82732  0.48994  1
 O  O7  1  0.93229  0.32732  0.98994  1
 O  O8  1  0.93229  0.51006  0.32732  1
 O  O9  1  0.93229  0.98994  0.17268  1
 O  O10  1  0.93229  0.17268  0.51006  1
 O  O11  1  0.47428  0.04082  0.35724  1
 O  O12  1  0.47428  0.14276  0.04082  1
 O  O13  1  0.50000  0.75000  0.25000  1
 O  O14  1  0.47428  0.45918  0.14276  1
 O  O15  1  0.52572  0.85724  0.95918  1
 O  O16  1  0.52572  0.64276  0.54082  1
 O  O17  1  0.52572  0.54082  0.85724  1
 O  O18  1  0.47428  0.35724  0.45918  1
 Sr  Sr1  1  0.85153  0.75000  0.75000  1
 Sr  Sr2  1  0.14847  0.25000  0.25000  1
 V  V1  1  0.37403  0.65842  0.03790  1
 V  V2  1  0.37403  0.46210  0.65842  1
 V  V3  1  0.37403  0.03790  0.84158  1
 V  V4  1  0.37403  0.84158  0.46210  1
 V  V5  1  0.62597  0.34158  0.96210  1
 V  V6  1  0.62597  0.53790  0.34158  1
 V  V7  1  0.62597  0.96210  0.15842  1
 V  V8  1  0.62597  0.15842  0.53790  1
