CIF file written using JARVIS-Tools package.
data_Rb6Te2O9
_symmetry_space_group_name_H-M  'C2/c'
_cell_length_a       8.75268
_cell_length_b       8.75268
_cell_length_c       11.0642
_cell_angle_alpha    112.083
_cell_angle_beta     112.083
_cell_angle_gamma    93.0419

_symmetry_Int_Tables_number  15
_chemical_formula_structural  Rb6Te2O9
_chemical_formula_sum  Rb2Te4O8
_cell_volume  708.9230108404868
_cell_formula_units_Z  2
loop_
  _symmetry_equiv_pos_site_id
 _symmetry_equiv_pos_as_xyz
 1  'x, y, z'
loop_
 _atom_site_type_symbol
 _atom_site_label
 _atom_site_symmetry_multiplicity
 _atom_site_fract_x
 _atom_site_fract_y
 _atom_site_fract_z
 _atom_site_fract_occupancy
 O  O1  1  0.77675  0.22325  0.25000  1
 O  O2  1  0.09150  0.62882  0.21305  1
 O  O3  1  0.62882  0.09150  0.71305  1
 O  O4  1  0.90850  0.37118  0.78695  1
 O  O5  1  0.98949  0.11430  0.90945  1
 O  O6  1  0.88570  0.01051  0.59055  1
 O  O7  1  0.01051  0.88570  0.09055  1
 O  O8  1  0.11430  0.98949  0.40945  1
 O  O9  1  0.41334  0.33189  0.25581  1
 O  O10  1  0.66811  0.58666  0.24419  1
 O  O11  1  0.58666  0.66811  0.74419  1
 O  O12  1  0.33189  0.41334  0.75581  1
 O  O13  1  0.73852  0.48091  0.46082  1
 O  O14  1  0.51909  0.26148  0.03918  1
 O  O15  1  0.26148  0.51909  0.53918  1
 O  O16  1  0.37118  0.90850  0.28695  1
 O  O17  1  0.22325  0.77675  0.75000  1
 O  O18  1  0.48091  0.73852  0.96082  1
 Rb  Rb1  1  -0.00069  0.29548  0.53037  1
 Rb  Rb2  1  0.29969  0.50099  0.02432  1
 Rb  Rb3  1  0.49901  0.70031  0.47568  1
 Rb  Rb4  1  0.90586  0.68353  0.76387  1
 Rb  Rb5  1  0.31647  0.09414  0.73613  1
 Rb  Rb6  1  0.09414  0.31647  0.23613  1
 Rb  Rb7  1  0.68353  0.90586  0.26387  1
 Rb  Rb8  1  0.70452  0.00069  0.96963  1
 Rb  Rb9  1  0.00069  0.70452  0.46963  1
 Rb  Rb10  1  0.29548  -0.00069  0.03037  1
 Rb  Rb11  1  0.50099  0.29969  0.52432  1
 Rb  Rb12  1  0.70031  0.49901  0.97568  1
 Te  Te1  1  0.85410  0.14590  0.75000  1
 Te  Te2  1  0.37425  0.62575  0.75000  1
 Te  Te3  1  0.62575  0.37425  0.25000  1
 Te  Te4  1  0.14590  0.85410  0.25000  1
