CIF file written using JARVIS-Tools package.
data_Ti4Cu2O
_symmetry_space_group_name_H-M  'Fd-3m'
_cell_length_a       8.08116
_cell_length_b       8.08116
_cell_length_c       8.08116
_cell_angle_alpha    60
_cell_angle_beta     60
_cell_angle_gamma    60

_symmetry_Int_Tables_number  227
_chemical_formula_structural  Ti4Cu2O
_chemical_formula_sum  Ti6Cu8O4
_cell_volume  373.16924744273985
_cell_formula_units_Z  4
loop_
  _symmetry_equiv_pos_site_id
 _symmetry_equiv_pos_as_xyz
 1  'x, y, z'
loop_
 _atom_site_type_symbol
 _atom_site_label
 _atom_site_symmetry_multiplicity
 _atom_site_fract_x
 _atom_site_fract_y
 _atom_site_fract_z
 _atom_site_fract_occupancy
 Cu  Cu1  1  0.20877  0.20877  0.20877  1
 Cu  Cu2  1  0.79123  0.79123  0.79123  1
 Cu  Cu3  1  0.87370  0.20877  0.20877  1
 Cu  Cu4  1  0.79123  0.79123  0.12630  1
 Cu  Cu5  1  0.20877  0.20877  0.87370  1
 Cu  Cu6  1  0.20877  0.87370  0.20877  1
 Cu  Cu7  1  0.12630  0.79123  0.79123  1
 Cu  Cu8  1  0.79123  0.12630  0.79123  1
 O  O1  1  0.50000  0.50000  -0.00000  1
 O  O2  1  0.50000  0.00000  0.50000  1
 O  O3  1  0.50000  0.50000  0.50000  1
 O  O4  1  -0.00000  0.50000  0.50000  1
 Ti  Ti1  1  0.55507  0.19493  0.55507  1
 Ti  Ti2  1  0.80507  0.44493  0.80507  1
 Ti  Ti3  1  0.00000  0.00000  0.50000  1
 Ti  Ti4  1  0.19493  0.19493  0.55507  1
 Ti  Ti5  1  0.55507  0.55507  0.19493  1
 Ti  Ti6  1  0.44493  0.80507  0.80507  1
 Ti  Ti7  1  0.80507  0.44493  0.44493  1
 Ti  Ti8  1  0.19493  0.55507  0.55507  1
 Ti  Ti9  1  0.50000  0.00000  -0.00000  1
 Ti  Ti10  1  -0.00000  0.50000  -0.00000  1
 Ti  Ti11  1  0.00000  0.00000  0.00000  1
 Ti  Ti12  1  0.44493  0.44493  0.80507  1
 Ti  Ti13  1  0.80507  0.80507  0.44493  1
 Ti  Ti14  1  0.55507  0.19493  0.19493  1
 Ti  Ti15  1  0.19493  0.55507  0.19493  1
 Ti  Ti16  1  0.44493  0.80507  0.44493  1
