CIF file written using JARVIS-Tools package.
data_VSb2
_symmetry_space_group_name_H-M  'I4/mcm'
_cell_length_a       5.4646
_cell_length_b       5.4646
_cell_length_c       5.46459
_cell_angle_alpha    105.489
_cell_angle_beta     105.489
_cell_angle_gamma    117.769

_symmetry_Int_Tables_number  140
_chemical_formula_structural  VSb2
_chemical_formula_sum  V2Sb4
_cell_volume  123.61559613536839
_cell_formula_units_Z  2
loop_
  _symmetry_equiv_pos_site_id
 _symmetry_equiv_pos_as_xyz
 1  'x, y, z'
loop_
 _atom_site_type_symbol
 _atom_site_label
 _atom_site_symmetry_multiplicity
 _atom_site_fract_x
 _atom_site_fract_y
 _atom_site_fract_z
 _atom_site_fract_occupancy
 Sb  Sb1  1  0.84313  0.65687  0.50000  1
 Sb  Sb2  1  0.34313  0.84313  0.18627  1
 Sb  Sb3  1  0.15687  0.34313  0.50000  1
 Sb  Sb4  1  0.65687  0.15687  0.81373  1
 V  V1  1  0.75000  0.75000  -0.00000  1
 V  V2  1  0.25000  0.25000  0.00000  1
