CIF file written using JARVIS-Tools package.
data_Mg2Ga2S5
_symmetry_space_group_name_H-M  'P-3m1'
_cell_length_a       3.71981
_cell_length_b       3.71981
_cell_length_c       15.263
_cell_angle_alpha    90
_cell_angle_beta     90
_cell_angle_gamma    120

_symmetry_Int_Tables_number  164
_chemical_formula_structural  Mg2Ga2S5
_chemical_formula_sum  Mg2Ga2S5
_cell_volume  182.90029380687486
_cell_formula_units_Z  1
loop_
  _symmetry_equiv_pos_site_id
 _symmetry_equiv_pos_as_xyz
 1  'x, y, z'
loop_
 _atom_site_type_symbol
 _atom_site_label
 _atom_site_symmetry_multiplicity
 _atom_site_fract_x
 _atom_site_fract_y
 _atom_site_fract_z
 _atom_site_fract_occupancy
 Ga  Ga1  1  0.33333  0.66667  0.66899  1
 Ga  Ga2  1  0.66667  0.33333  0.33101  1
 Mg  Mg1  1  0.33333  0.66667  0.09937  1
 Mg  Mg2  1  0.66667  0.33333  0.90063  1
 S  S1  1  0.33333  0.66667  0.39715  1
 S  S2  1  0.66667  0.33333  0.60285  1
 S  S3  1  0.33333  0.66667  0.81325  1
 S  S4  1  0.66667  0.33333  0.18675  1
 S  S5  1  0.00000  0.00000  0.00000  1
