CIF file written using JARVIS-Tools package.
data_SmAsSe
_symmetry_space_group_name_H-M  'P4/nmm'
_cell_length_a       3.98242
_cell_length_b       3.9821
_cell_length_c       8.88373
_cell_angle_alpha    90
_cell_angle_beta     90
_cell_angle_gamma    89.9989

_symmetry_Int_Tables_number  129
_chemical_formula_structural  SmAsSe
_chemical_formula_sum  Sm2As2Se2
_cell_volume  140.88234707792725
_cell_formula_units_Z  2
loop_
  _symmetry_equiv_pos_site_id
 _symmetry_equiv_pos_as_xyz
 1  'x, y, z'
loop_
 _atom_site_type_symbol
 _atom_site_label
 _atom_site_symmetry_multiplicity
 _atom_site_fract_x
 _atom_site_fract_y
 _atom_site_fract_z
 _atom_site_fract_occupancy
 As  As1  1  0.75000  0.75000  0.99999  1
 As  As2  1  0.25000  0.25000  0.00001  1
 Se  Se1  1  0.75000  0.25000  0.62530  1
 Se  Se2  1  0.25000  0.75000  0.37470  1
 Sm  Sm1  1  0.75000  0.25000  0.27796  1
 Sm  Sm2  1  0.25000  0.75000  0.72204  1
