CIF file written using JARVIS-Tools package.
data_HfAu3
_symmetry_space_group_name_H-M  'Pmmn'
_cell_length_a       4.84219
_cell_length_b       4.93471
_cell_length_c       6.11095
_cell_angle_alpha    90
_cell_angle_beta     90
_cell_angle_gamma    90

_symmetry_Int_Tables_number  59
_chemical_formula_structural  HfAu3
_chemical_formula_sum  Hf2Au6
_cell_volume  146.02004706510644
_cell_formula_units_Z  2
loop_
  _symmetry_equiv_pos_site_id
 _symmetry_equiv_pos_as_xyz
 1  'x, y, z'
loop_
 _atom_site_type_symbol
 _atom_site_label
 _atom_site_symmetry_multiplicity
 _atom_site_fract_x
 _atom_site_fract_y
 _atom_site_fract_z
 _atom_site_fract_occupancy
 Au  Au1  1  0.75000  0.83521  0.00127  1
 Au  Au2  1  0.75000  0.83521  0.49873  1
 Au  Au3  1  0.25000  0.16479  0.99873  1
 Au  Au4  1  0.25000  0.16479  0.50127  1
 Au  Au5  1  0.25000  0.65480  0.75000  1
 Au  Au6  1  0.75000  0.34520  0.25000  1
 Hf  Hf1  1  0.75000  0.33796  0.75000  1
 Hf  Hf2  1  0.25000  0.66204  0.25000  1
