CIF file written using JARVIS-Tools package.
data_LiCu2O2
_symmetry_space_group_name_H-M  'P4_2/nmc'
_cell_length_a       5.73846
_cell_length_b       5.73846
_cell_length_c       12.5331
_cell_angle_alpha    90
_cell_angle_beta     90
_cell_angle_gamma    90

_symmetry_Int_Tables_number  137
_chemical_formula_structural  LiCu2O2
_chemical_formula_sum  Li8Cu6O6
_cell_volume  412.7124012453807
_cell_formula_units_Z  8
loop_
  _symmetry_equiv_pos_site_id
 _symmetry_equiv_pos_as_xyz
 1  'x, y, z'
loop_
 _atom_site_type_symbol
 _atom_site_label
 _atom_site_symmetry_multiplicity
 _atom_site_fract_x
 _atom_site_fract_y
 _atom_site_fract_z
 _atom_site_fract_occupancy
 Cu  Cu1  1  0.00229  0.75000  0.34739  1
 Cu  Cu2  1  0.99771  0.25000  0.65261  1
 Cu  Cu3  1  0.49829  0.75000  0.99257  1
 Cu  Cu4  1  0.50229  0.25000  0.65261  1
 Cu  Cu5  1  0.25000  0.50171  0.50743  1
 Cu  Cu6  1  0.75000  0.49829  0.49257  1
 Cu  Cu7  1  0.25000  0.99771  0.15261  1
 Cu  Cu8  1  0.25000  0.99829  0.50743  1
 Cu  Cu9  1  0.75000  0.00229  0.84739  1
 Cu  Cu10  1  0.75000  0.49771  0.84739  1
 Cu  Cu11  1  0.75000  0.00171  0.49257  1
 Cu  Cu12  1  0.99829  0.25000  0.00743  1
 Cu  Cu13  1  0.49771  0.75000  0.34739  1
 Cu  Cu14  1  0.00171  0.75000  0.99257  1
 Cu  Cu15  1  0.50171  0.25000  0.00743  1
 Cu  Cu16  1  0.25000  0.50229  0.15261  1
 Li  Li1  1  0.50605  0.75000  0.67913  1
 Li  Li2  1  0.25000  0.00605  0.82087  1
 Li  Li3  1  0.25000  0.49395  0.82087  1
 Li  Li4  1  0.00605  0.25000  0.32087  1
 Li  Li5  1  0.75000  0.50605  0.17913  1
 Li  Li6  1  0.75000  0.99395  0.17913  1
 Li  Li7  1  0.49395  0.25000  0.32087  1
 Li  Li8  1  0.99395  0.75000  0.67913  1
 O  O1  1  0.99202  0.75000  0.84246  1
 O  O2  1  0.75000  0.00762  0.64115  1
 O  O3  1  0.25000  0.99238  0.35885  1
 O  O4  1  0.00798  0.25000  0.15754  1
 O  O5  1  0.75000  0.50798  0.34246  1
 O  O6  1  0.25000  0.50762  0.35885  1
 O  O7  1  0.50762  0.25000  0.85885  1
 O  O8  1  0.50798  0.75000  0.84246  1
 O  O9  1  0.75000  0.99202  0.34246  1
 O  O10  1  0.99238  0.25000  0.85885  1
 O  O11  1  0.49202  0.25000  0.15754  1
 O  O12  1  0.25000  0.49202  0.65754  1
 O  O13  1  0.25000  0.00798  0.65754  1
 O  O14  1  0.00762  0.75000  0.14115  1
 O  O15  1  0.49238  0.75000  0.14115  1
 O  O16  1  0.75000  0.49238  0.64115  1
