CIF file written using JARVIS-Tools package.
data_CaMg6V
_symmetry_space_group_name_H-M  'P4/mmm'
_cell_length_a       6.94223
_cell_length_b       9.81673
_cell_length_c       3.86293
_cell_angle_alpha    90
_cell_angle_beta     90
_cell_angle_gamma    134.994

_symmetry_Int_Tables_number  123
_chemical_formula_structural  CaMg6V
_chemical_formula_sum  CaMg6V
_cell_volume  186.1717510944986
_cell_formula_units_Z  1
loop_
  _symmetry_equiv_pos_site_id
 _symmetry_equiv_pos_as_xyz
 1  'x, y, z'
loop_
 _atom_site_type_symbol
 _atom_site_label
 _atom_site_symmetry_multiplicity
 _atom_site_fract_x
 _atom_site_fract_y
 _atom_site_fract_z
 _atom_site_fract_occupancy
 Ca  Ca1  1  0.24997  0.37498  0.25000  1
 Mg  Mg1  1  0.75008  0.37505  0.25000  1
 Mg  Mg2  1  0.75008  0.87503  0.25000  1
 Mg  Mg3  1  0.25006  0.09933  0.75000  1
 Mg  Mg4  1  0.25006  0.65072  0.75000  1
 Mg  Mg5  1  0.69854  0.09927  0.75000  1
 Mg  Mg6  1  0.80134  0.65067  0.75000  1
 V  V1  1  0.24988  0.87494  0.25000  1
