CIF file written using JARVIS-Tools package.
data_CO2
_symmetry_space_group_name_H-M  'I-42d'
_cell_length_a       3.92764
_cell_length_b       3.92764
_cell_length_c       4.08504
_cell_angle_alpha    118.733
_cell_angle_beta     118.733
_cell_angle_gamma    90

_symmetry_Int_Tables_number  122
_chemical_formula_structural  CO2
_chemical_formula_sum  C2O4
_cell_volume  46.21326060963463
_cell_formula_units_Z  2
loop_
  _symmetry_equiv_pos_site_id
 _symmetry_equiv_pos_as_xyz
 1  'x, y, z'
loop_
 _atom_site_type_symbol
 _atom_site_label
 _atom_site_symmetry_multiplicity
 _atom_site_fract_x
 _atom_site_fract_y
 _atom_site_fract_z
 _atom_site_fract_occupancy
 C  C1  1  0.75000  0.25000  0.50000  1
 C  C2  1  0.00000  0.00000  0.00000  1
 O  O1  1  0.87500  0.95738  0.25000  1
 O  O2  1  0.37500  0.29262  0.25000  1
 O  O3  1  0.70738  0.12500  0.75000  1
 O  O4  1  0.04262  0.62500  0.75000  1
