CIF file written using JARVIS-Tools package.
data_CIClF4
_symmetry_space_group_name_H-M  'Cmce'
_cell_length_a       4.9585
_cell_length_b       4.9585
_cell_length_c       19.805
_cell_angle_alpha    90
_cell_angle_beta     90
_cell_angle_gamma    95.577

_symmetry_Int_Tables_number  64
_chemical_formula_structural  CIClF4
_chemical_formula_sum  C4I4Cl4F6
_cell_volume  484.6338527940391
_cell_formula_units_Z  4
loop_
  _symmetry_equiv_pos_site_id
 _symmetry_equiv_pos_as_xyz
 1  'x, y, z'
loop_
 _atom_site_type_symbol
 _atom_site_label
 _atom_site_symmetry_multiplicity
 _atom_site_fract_x
 _atom_site_fract_y
 _atom_site_fract_z
 _atom_site_fract_occupancy
 C  C1  1  0.28820  0.71180  0.42368  1
 C  C2  1  0.78820  0.21180  0.07632  1
 C  C3  1  0.71180  0.28820  0.57632  1
 C  C4  1  0.21180  0.78820  0.92368  1
 Cl  Cl1  1  0.17003  0.82997  0.14603  1
 Cl  Cl2  1  0.67003  0.32997  0.35397  1
 Cl  Cl3  1  0.32997  0.67003  0.64603  1
 Cl  Cl4  1  0.82997  0.17003  0.85397  1
 F  F1  1  0.47401  0.19797  0.54836  1
 F  F2  1  0.60860  0.39140  0.06696  1
 F  F3  1  0.42835  0.57165  0.80178  1
 F  F4  1  0.39140  0.60860  0.93304  1
 F  F5  1  0.19797  0.47401  0.45164  1
 F  F6  1  0.30203  0.02599  0.95164  1
 F  F7  1  0.89140  0.10860  0.56696  1
 F  F8  1  0.10860  0.89140  0.43304  1
 F  F9  1  0.97401  0.69797  0.95164  1
 F  F10  1  0.07165  0.92835  0.30178  1
 F  F11  1  0.52599  0.80203  0.45164  1
 F  F12  1  0.57165  0.42835  0.19822  1
 F  F13  1  0.02599  0.30203  0.04836  1
 F  F14  1  0.80203  0.52599  0.54836  1
 F  F15  1  0.92835  0.07165  0.69822  1
 F  F16  1  0.69797  0.97401  0.04836  1
 I  I1  1  0.14639  0.85361  0.81290  1
 I  I2  1  0.35361  0.64639  0.31290  1
 I  I3  1  0.85361  0.14639  0.18710  1
 I  I4  1  0.64639  0.35361  0.68710  1
