CIF file written using JARVIS-Tools package.
data_FeRh2Se4
_symmetry_space_group_name_H-M  'C2/m'
_cell_length_a       3.70482
_cell_length_b       6.45371
_cell_length_c       6.54248
_cell_angle_alpha    119.084
_cell_angle_beta     106.447
_cell_angle_gamma    90

_symmetry_Int_Tables_number  12
_chemical_formula_structural  FeRh2Se4
_chemical_formula_sum  FeRh2Se4
_cell_volume  129.3310440044215
_cell_formula_units_Z  1
loop_
  _symmetry_equiv_pos_site_id
 _symmetry_equiv_pos_as_xyz
 1  'x, y, z'
loop_
 _atom_site_type_symbol
 _atom_site_label
 _atom_site_symmetry_multiplicity
 _atom_site_fract_x
 _atom_site_fract_y
 _atom_site_fract_z
 _atom_site_fract_occupancy
 Fe  Fe1  1  0.00000  0.00000  0.00000  1
 Rh  Rh1  1  0.73838  0.72254  0.47675  1
 Rh  Rh2  1  0.26162  0.27746  0.52325  1
 Se  Se1  1  0.63093  0.96968  0.26185  1
 Se  Se2  1  0.36907  0.03032  0.73815  1
 Se  Se3  1  0.88016  0.55306  0.76032  1
 Se  Se4  1  0.11984  0.44694  0.23968  1
