CIF file written using JARVIS-Tools package.
data_AgSbPbS3
_symmetry_space_group_name_H-M  'P2_1/c'
_cell_length_a       5.9995
_cell_length_b       7.68907
_cell_length_c       12.7952
_cell_angle_alpha    90
_cell_angle_beta     90
_cell_angle_gamma    91.3986

_symmetry_Int_Tables_number  14
_chemical_formula_structural  AgSbPbS3
_chemical_formula_sum  Ag4Sb4Pb4S2
_cell_volume  590.0736709635001
_cell_formula_units_Z  4
loop_
  _symmetry_equiv_pos_site_id
 _symmetry_equiv_pos_as_xyz
 1  'x, y, z'
loop_
 _atom_site_type_symbol
 _atom_site_label
 _atom_site_symmetry_multiplicity
 _atom_site_fract_x
 _atom_site_fract_y
 _atom_site_fract_z
 _atom_site_fract_occupancy
 Ag  Ag1  1  0.22489  0.88392  0.74160  1
 Ag  Ag2  1  0.77511  0.11608  0.25840  1
 Ag  Ag3  1  0.77511  0.61608  0.24160  1
 Ag  Ag4  1  0.22489  0.38392  0.75840  1
 Pb  Pb1  1  0.74820  0.64629  0.58285  1
 Pb  Pb2  1  0.25180  0.35371  0.41715  1
 Pb  Pb3  1  0.25180  0.85371  0.08285  1
 Pb  Pb4  1  0.74820  0.14629  0.91715  1
 S  S1  1  0.65979  0.86275  0.77725  1
 S  S2  1  0.85674  0.36031  0.12534  1
 S  S3  1  0.26060  0.64875  0.56035  1
 S  S4  1  0.14326  0.13969  0.62534  1
 S  S5  1  0.26060  0.14875  0.93965  1
 S  S6  1  0.73940  0.35125  0.43965  1
 S  S7  1  0.14326  0.63969  0.87466  1
 S  S8  1  0.85674  0.86031  0.37466  1
 S  S9  1  0.73940  0.85125  0.06035  1
 S  S10  1  0.34021  0.63725  0.27725  1
 S  S11  1  0.34021  0.13725  0.22275  1
 S  S12  1  0.65979  0.36275  0.72275  1
 Sb  Sb1  1  0.26478  0.36463  0.08852  1
 Sb  Sb2  1  0.26478  0.86463  0.41148  1
 Sb  Sb3  1  0.73522  0.63537  0.91148  1
 Sb  Sb4  1  0.73522  0.13537  0.58852  1
