CIF file written using JARVIS-Tools package.
data_KNaS2O7
_symmetry_space_group_name_H-M  'P-1'
_cell_length_a       5.87676
_cell_length_b       7.12274
_cell_length_c       7.32029
_cell_angle_alpha    100.154
_cell_angle_beta     90.8412
_cell_angle_gamma    96.4915

_symmetry_Int_Tables_number  2
_chemical_formula_structural  KNaS2O7
_chemical_formula_sum  K2Na2S4O4
_cell_volume  299.4969744415788
_cell_formula_units_Z  2
loop_
  _symmetry_equiv_pos_site_id
 _symmetry_equiv_pos_as_xyz
 1  'x, y, z'
loop_
 _atom_site_type_symbol
 _atom_site_label
 _atom_site_symmetry_multiplicity
 _atom_site_fract_x
 _atom_site_fract_y
 _atom_site_fract_z
 _atom_site_fract_occupancy
 K  K1  1  0.20809  0.78168  0.43137  1
 K  K2  1  0.79191  0.21832  0.56863  1
 Na  Na1  1  0.18968  0.65226  0.90089  1
 Na  Na2  1  0.81032  0.34774  0.09911  1
 O  O1  1  0.72810  0.87831  0.88251  1
 O  O2  1  0.51402  0.25653  0.88292  1
 O  O3  1  0.88204  0.59986  0.69005  1
 O  O4  1  0.53096  0.38822  0.30939  1
 O  O5  1  0.27190  0.12169  0.11749  1
 O  O6  1  0.89054  0.70009  0.10918  1
 O  O7  1  0.10946  0.29991  0.89082  1
 O  O8  1  0.46904  0.61178  0.69061  1
 O  O9  1  0.28340  0.15925  0.45013  1
 O  O10  1  0.48598  0.74347  0.11708  1
 O  O11  1  0.22434  0.97781  0.79808  1
 O  O12  1  0.71660  0.84075  0.54987  1
 O  O13  1  0.11796  0.40014  0.30995  1
 O  O14  1  0.77566  0.02219  0.20192  1
 S  S1  1  0.30565  0.28327  0.31283  1
 S  S2  1  0.28271  0.16957  0.90256  1
 S  S3  1  0.71729  0.83043  0.09744  1
 S  S4  1  0.69435  0.71673  0.68717  1
