CIF file written using JARVIS-Tools package.
data_Li5VCr3O8
_symmetry_space_group_name_H-M  'R-3m'
_cell_length_a       5.86902
_cell_length_b       5.86902
_cell_length_c       5.86901
_cell_angle_alpha    60.9739
_cell_angle_beta     60.974
_cell_angle_gamma    60.974

_symmetry_Int_Tables_number  166
_chemical_formula_structural  Li5VCr3O8
_chemical_formula_sum  Li5VCr3O8
_cell_volume  146.08559062332327
_cell_formula_units_Z  1
loop_
  _symmetry_equiv_pos_site_id
 _symmetry_equiv_pos_as_xyz
 1  'x, y, z'
loop_
 _atom_site_type_symbol
 _atom_site_label
 _atom_site_symmetry_multiplicity
 _atom_site_fract_x
 _atom_site_fract_y
 _atom_site_fract_z
 _atom_site_fract_occupancy
 Cr  Cr1  1  0.50000  0.00000  0.50000  1
 Cr  Cr2  1  0.50000  0.50000  -0.00000  1
 Cr  Cr3  1  -0.00000  0.50000  0.50000  1
 Li  Li1  1  0.00000  0.50000  0.00000  1
 Li  Li2  1  0.93161  0.93161  0.93161  1
 Li  Li3  1  0.06839  0.06839  0.06839  1
 Li  Li4  1  0.00000  0.00000  0.50000  1
 Li  Li5  1  0.50000  0.00000  0.00000  1
 O  O1  1  0.73409  0.25302  0.25302  1
 O  O2  1  0.25302  0.73409  0.25302  1
 O  O3  1  0.74325  0.74325  0.74325  1
 O  O4  1  0.74698  0.26591  0.74698  1
 O  O5  1  0.26591  0.74698  0.74698  1
 O  O6  1  0.74698  0.74698  0.26591  1
 O  O7  1  0.25302  0.25302  0.73409  1
 O  O8  1  0.25675  0.25675  0.25675  1
 V  V1  1  0.50000  0.50000  0.50000  1
