CIF file written using JARVIS-Tools package.
data_LiBiO3
_symmetry_space_group_name_H-M  'Pccn'
_cell_length_a       4.99787
_cell_length_b       8.99728
_cell_length_c       10.947
_cell_angle_alpha    90
_cell_angle_beta     90
_cell_angle_gamma    90

_symmetry_Int_Tables_number  56
_chemical_formula_structural  LiBiO3
_chemical_formula_sum  Li8Bi8O24
_cell_volume  492.25775286161496
_cell_formula_units_Z  8
loop_
  _symmetry_equiv_pos_site_id
 _symmetry_equiv_pos_as_xyz
 1  'x, y, z'
loop_
 _atom_site_type_symbol
 _atom_site_label
 _atom_site_symmetry_multiplicity
 _atom_site_fract_x
 _atom_site_fract_y
 _atom_site_fract_z
 _atom_site_fract_occupancy
 Bi  Bi1  1  0.49658  0.08584  0.36324  1
 Bi  Bi2  1  0.99658  0.58584  0.63676  1
 Bi  Bi3  1  0.49658  0.41416  0.86324  1
 Bi  Bi4  1  0.99658  0.91416  0.13676  1
 Bi  Bi5  1  0.50342  0.58584  0.13676  1
 Bi  Bi6  1  0.00342  0.41416  0.36324  1
 Bi  Bi7  1  0.50342  0.91416  0.63676  1
 Bi  Bi8  1  0.00342  0.08584  0.86324  1
 Li  Li1  1  0.50072  0.71223  0.40441  1
 Li  Li2  1  0.50072  0.78777  0.90441  1
 Li  Li3  1  0.99928  0.71223  0.90441  1
 Li  Li4  1  0.49928  0.28777  0.59559  1
 Li  Li5  1  0.99928  0.78777  0.40441  1
 Li  Li6  1  0.49928  0.21223  0.09559  1
 Li  Li7  1  0.00072  0.28777  0.09559  1
 Li  Li8  1  0.00072  0.21223  0.59559  1
 O  O1  1  0.72324  0.41362  0.69826  1
 O  O2  1  0.22324  0.58638  0.80174  1
 O  O3  1  0.19448  0.09603  0.04258  1
 O  O4  1  0.69448  0.90397  0.45742  1
 O  O5  1  0.30552  0.09603  0.54258  1
 O  O6  1  0.30552  0.40397  0.04258  1
 O  O7  1  0.75000  0.25000  0.95153  1
 O  O8  1  0.19448  0.40397  0.54258  1
 O  O9  1  0.77676  0.08638  0.69826  1
 O  O10  1  0.80552  0.59603  0.45742  1
 O  O11  1  0.27676  0.91362  0.80174  1
 O  O12  1  0.25000  0.25000  0.27589  1
 O  O13  1  0.27676  0.58638  0.30174  1
 O  O14  1  0.22324  0.91362  0.30174  1
 O  O15  1  0.72324  0.08638  0.19826  1
 O  O16  1  0.75000  0.25000  0.45153  1
 O  O17  1  0.25000  0.75000  0.04847  1
 O  O18  1  0.75000  0.75000  0.22411  1
 O  O19  1  0.25000  0.75000  0.54847  1
 O  O20  1  0.25000  0.25000  0.77589  1
 O  O21  1  0.75000  0.75000  0.72411  1
 O  O22  1  0.69448  0.59603  0.95742  1
 O  O23  1  0.77676  0.41362  0.19826  1
 O  O24  1  0.80552  0.90397  0.95742  1
