CIF file written using JARVIS-Tools package.
data_Dy2AlCo2
_symmetry_space_group_name_H-M  'Immm'
_cell_length_a       4.01194
_cell_length_b       5.36736
_cell_length_c       5.36736
_cell_angle_alpha    61.0215
_cell_angle_beta     68.0538
_cell_angle_gamma    68.0538

_symmetry_Int_Tables_number  71
_chemical_formula_structural  Dy2AlCo2
_chemical_formula_sum  Dy2AlCo2
_cell_volume  91.09907915671944
_cell_formula_units_Z  1
loop_
  _symmetry_equiv_pos_site_id
 _symmetry_equiv_pos_as_xyz
 1  'x, y, z'
loop_
 _atom_site_type_symbol
 _atom_site_label
 _atom_site_symmetry_multiplicity
 _atom_site_fract_x
 _atom_site_fract_y
 _atom_site_fract_z
 _atom_site_fract_occupancy
 Al  Al1  1  0.00000  0.00000  0.00000  1
 Co  Co1  1  0.50000  0.27955  0.72045  1
 Co  Co2  1  0.50000  0.72045  0.27955  1
 Dy  Dy1  1  0.20430  0.29570  0.29570  1
 Dy  Dy2  1  0.79570  0.70430  0.70430  1
