CIF file written using JARVIS-Tools package.
data_MnNbSi
_symmetry_space_group_name_H-M  'P-62m'
_cell_length_a       6.44704
_cell_length_b       6.44704
_cell_length_c       3.49499
_cell_angle_alpha    90
_cell_angle_beta     90
_cell_angle_gamma    120

_symmetry_Int_Tables_number  189
_chemical_formula_structural  MnNbSi
_chemical_formula_sum  Mn3Nb3Si3
_cell_volume  125.80485431040978
_cell_formula_units_Z  3
loop_
  _symmetry_equiv_pos_site_id
 _symmetry_equiv_pos_as_xyz
 1  'x, y, z'
loop_
 _atom_site_type_symbol
 _atom_site_label
 _atom_site_symmetry_multiplicity
 _atom_site_fract_x
 _atom_site_fract_y
 _atom_site_fract_z
 _atom_site_fract_occupancy
 Mn  Mn1  1  0.24533  0.00000  0.00000  1
 Mn  Mn2  1  0.00000  0.24533  0.00000  1
 Mn  Mn3  1  0.75467  0.75467  0.00000  1
 Nb  Nb1  1  0.41093  0.41093  0.50000  1
 Nb  Nb2  1  -0.00000  0.58907  0.50000  1
 Nb  Nb3  1  0.58907  -0.00000  0.50000  1
 Si  Si1  1  0.00000  0.00000  0.50000  1
 Si  Si2  1  0.33333  0.66667  0.00000  1
 Si  Si3  1  0.66667  0.33333  0.00000  1
