CIF file written using JARVIS-Tools package.
data_UCu4Ag
_symmetry_space_group_name_H-M  'F-43m'
_cell_length_a       5.07802
_cell_length_b       5.07802
_cell_length_c       5.07802
_cell_angle_alpha    60
_cell_angle_beta     60
_cell_angle_gamma    60

_symmetry_Int_Tables_number  216
_chemical_formula_structural  UCu4Ag
_chemical_formula_sum  UCu4Ag
_cell_volume  92.59064553598226
_cell_formula_units_Z  1
loop_
  _symmetry_equiv_pos_site_id
 _symmetry_equiv_pos_as_xyz
 1  'x, y, z'
loop_
 _atom_site_type_symbol
 _atom_site_label
 _atom_site_symmetry_multiplicity
 _atom_site_fract_x
 _atom_site_fract_y
 _atom_site_fract_z
 _atom_site_fract_occupancy
 Ag  Ag1  1  0.75000  0.75000  0.75000  1
 Cu  Cu1  1  0.87065  0.37645  0.37645  1
 Cu  Cu2  1  0.37645  0.87065  0.37645  1
 Cu  Cu3  1  0.37645  0.37645  0.87065  1
 Cu  Cu4  1  0.37645  0.37645  0.37645  1
 U  U1  1  0.00000  0.00000  0.00000  1
