CIF file written using JARVIS-Tools package.
data_TmAlZn
_symmetry_space_group_name_H-M  'P6_3/mmc'
_cell_length_a       4.45191
_cell_length_b       4.45191
_cell_length_c       6.97492
_cell_angle_alpha    90
_cell_angle_beta     90
_cell_angle_gamma    120

_symmetry_Int_Tables_number  194
_chemical_formula_structural  TmAlZn
_chemical_formula_sum  Tm2Al2Zn2
_cell_volume  119.71891362090692
_cell_formula_units_Z  2
loop_
  _symmetry_equiv_pos_site_id
 _symmetry_equiv_pos_as_xyz
 1  'x, y, z'
loop_
 _atom_site_type_symbol
 _atom_site_label
 _atom_site_symmetry_multiplicity
 _atom_site_fract_x
 _atom_site_fract_y
 _atom_site_fract_z
 _atom_site_fract_occupancy
 Al  Al1  1  0.66667  0.33333  0.75000  1
 Al  Al2  1  0.33333  0.66667  0.25000  1
 Tm  Tm1  1  0.00000  0.00000  0.50000  1
 Tm  Tm2  1  0.00000  0.00000  0.00000  1
 Zn  Zn1  1  0.66667  0.33333  0.25000  1
 Zn  Zn2  1  0.33333  0.66667  0.75000  1
