CIF file written using JARVIS-Tools package.
data_Mg6CrSi
_symmetry_space_group_name_H-M  'Amm2'
_cell_length_a       6.13419
_cell_length_b       6.06742
_cell_length_c       4.91848
_cell_angle_alpha    90
_cell_angle_beta     90
_cell_angle_gamma    119.641

_symmetry_Int_Tables_number  38
_chemical_formula_structural  Mg6CrSi
_chemical_formula_sum  Mg6CrSi
_cell_volume  159.10509623835623
_cell_formula_units_Z  1
loop_
  _symmetry_equiv_pos_site_id
 _symmetry_equiv_pos_as_xyz
 1  'x, y, z'
loop_
 _atom_site_type_symbol
 _atom_site_label
 _atom_site_symmetry_multiplicity
 _atom_site_fract_x
 _atom_site_fract_y
 _atom_site_fract_z
 _atom_site_fract_occupancy
 Cr  Cr1  1  0.16368  0.83184  0.25000  1
 Mg  Mg1  1  0.66578  0.33384  0.25000  1
 Mg  Mg2  1  0.66578  0.83194  0.25000  1
 Mg  Mg3  1  0.33014  0.16218  0.75000  1
 Mg  Mg4  1  0.33014  0.66797  0.75000  1
 Mg  Mg5  1  0.84072  0.17036  0.75000  1
 Mg  Mg6  1  0.84284  0.67142  0.75000  1
 Si  Si1  1  0.16092  0.33046  0.25000  1
