CIF file written using JARVIS-Tools package.
data_Nb2Al
_symmetry_space_group_name_H-M  'P4_2/mnm'
_cell_length_a       5.20699
_cell_length_b       10.008
_cell_length_c       10.008
_cell_angle_alpha    90
_cell_angle_beta     90
_cell_angle_gamma    90

_symmetry_Int_Tables_number  136
_chemical_formula_structural  Nb2Al
_chemical_formula_sum  Nb20Al0
_cell_volume  521.5361371541907
_cell_formula_units_Z  10
loop_
  _symmetry_equiv_pos_site_id
 _symmetry_equiv_pos_as_xyz
 1  'x, y, z'
loop_
 _atom_site_type_symbol
 _atom_site_label
 _atom_site_symmetry_multiplicity
 _atom_site_fract_x
 _atom_site_fract_y
 _atom_site_fract_z
 _atom_site_fract_occupancy
 Al  Al1  1  0.00000  0.00000  0.00000  1
 Al  Al2  1  0.00000  0.93312  0.26162  1
 Al  Al3  1  0.50000  0.23838  0.43312  1
 Al  Al4  1  0.50000  0.76162  0.56688  1
 Al  Al5  1  0.00000  0.06688  0.73838  1
 Al  Al6  1  0.50000  0.43312  0.23838  1
 Al  Al7  1  0.50000  0.56688  0.76162  1
 Al  Al8  1  0.00000  0.26162  0.93312  1
 Al  Al9  1  0.00000  0.73838  0.06688  1
 Al  Al10  1  0.50000  0.50000  0.50000  1
 Nb  Nb1  1  0.74771  0.18169  0.18169  1
 Nb  Nb2  1  0.00000  0.39628  0.39628  1
 Nb  Nb3  1  0.50000  0.10372  0.89628  1
 Nb  Nb4  1  0.50000  0.89628  0.10372  1
 Nb  Nb5  1  0.00000  0.60372  0.60372  1
 Nb  Nb6  1  0.00000  0.46479  0.12794  1
 Nb  Nb7  1  0.50000  0.62794  0.03521  1
 Nb  Nb8  1  0.00000  0.53521  0.87206  1
 Nb  Nb9  1  0.50000  0.96479  0.37206  1
 Nb  Nb10  1  0.50000  0.03521  0.62794  1
 Nb  Nb11  1  0.00000  0.12794  0.46479  1
 Nb  Nb12  1  0.00000  0.87206  0.53521  1
 Nb  Nb13  1  0.25229  0.18169  0.18169  1
 Nb  Nb14  1  0.75229  0.31831  0.68169  1
 Nb  Nb15  1  0.75229  0.68169  0.31831  1
 Nb  Nb16  1  0.25229  0.81831  0.81831  1
 Nb  Nb17  1  0.24771  0.68169  0.31831  1
 Nb  Nb18  1  0.24771  0.31831  0.68169  1
 Nb  Nb19  1  0.50000  0.37206  0.96479  1
 Nb  Nb20  1  0.74771  0.81831  0.81831  1
