CIF file written using JARVIS-Tools package.
data_Fe2CoAs2H10O14
_symmetry_space_group_name_H-M  'P2_1/c'
_cell_length_a       5.59277
_cell_length_b       9.58487
_cell_length_c       10.3064
_cell_angle_alpha    90
_cell_angle_beta     94.4914
_cell_angle_gamma    90

_symmetry_Int_Tables_number  14
_chemical_formula_structural  Fe2CoAs2H10O14
_chemical_formula_sum  Fe4Co2As4H20O28
_cell_volume  550.7864108339154
_cell_formula_units_Z  2
loop_
  _symmetry_equiv_pos_site_id
 _symmetry_equiv_pos_as_xyz
 1  'x, y, z'
loop_
 _atom_site_type_symbol
 _atom_site_label
 _atom_site_symmetry_multiplicity
 _atom_site_fract_x
 _atom_site_fract_y
 _atom_site_fract_z
 _atom_site_fract_occupancy
 As  As1  1  0.82536  0.06869  0.29000  1
 As  As2  1  0.67464  0.56869  0.71000  1
 As  As3  1  0.32536  0.43131  0.29000  1
 As  As4  1  0.17464  0.93131  0.71000  1
 Co  Co1  1  0.00000  0.00000  0.00000  1
 Co  Co2  1  0.50000  0.50000  0.00000  1
 Fe  Fe1  1  0.66001  0.86491  0.54920  1
 Fe  Fe2  1  0.33999  0.13509  0.45080  1
 Fe  Fe3  1  0.83999  0.36491  0.45080  1
 Fe  Fe4  1  0.16001  0.63509  0.54920  1
 H  H1  1  0.71124  0.28735  0.13250  1
 H  H2  1  0.17871  0.25290  0.97833  1
 H  H3  1  0.01964  0.84371  0.41624  1
 H  H4  1  0.44963  0.94519  0.12283  1
 H  H5  1  0.67871  0.24710  0.97833  1
 H  H6  1  0.82129  0.74710  0.02167  1
 H  H7  1  0.28876  0.71265  0.86750  1
 H  H8  1  0.48036  0.34371  0.58376  1
 H  H9  1  0.78876  0.78735  0.86750  1
 H  H10  1  0.32129  0.75290  0.02167  1
 H  H11  1  0.21124  0.21265  0.13250  1
 H  H12  1  0.94963  0.55481  0.12283  1
 H  H13  1  0.26132  0.42016  0.78315  1
 H  H14  1  0.23868  0.92016  0.21685  1
 H  H15  1  0.73868  0.57984  0.21685  1
 H  H16  1  0.76132  0.07984  0.78315  1
 H  H17  1  0.51964  0.65629  0.41624  1
 H  H18  1  0.98036  0.15629  0.58376  1
 H  H19  1  0.55037  0.05481  0.87717  1
 H  H20  1  0.05037  0.44519  0.87717  1
 O  O1  1  0.17861  0.75158  0.71508  1
 O  O2  1  0.93193  0.77445  0.46704  1
 O  O3  1  0.56807  0.27445  0.53296  1
 O  O4  1  0.37827  0.69080  0.95351  1
 O  O5  1  0.12173  0.19080  0.04649  1
 O  O6  1  0.28397  0.90499  0.12591  1
 O  O7  1  0.87827  0.80920  0.95351  1
 O  O8  1  0.21603  0.40499  0.87409  1
 O  O9  1  0.32139  0.25158  0.28492  1
 O  O10  1  0.78397  0.59501  0.12591  1
 O  O11  1  0.71603  0.09501  0.87409  1
 O  O12  1  0.62173  0.30920  0.04649  1
 O  O13  1  0.67861  0.74842  0.71508  1
 O  O14  1  0.89666  0.99754  0.65348  1
 O  O15  1  0.25076  0.49830  0.13813  1
 O  O16  1  0.75076  0.00170  0.13813  1
 O  O17  1  0.74924  0.50170  0.86187  1
 O  O18  1  0.60334  0.49754  0.34652  1
 O  O19  1  0.10334  0.00246  0.34652  1
 O  O20  1  0.39666  0.50246  0.65348  1
 O  O21  1  0.38257  0.98709  0.60364  1
 O  O22  1  0.11743  0.48709  0.39636  1
 O  O23  1  0.61743  0.01291  0.39636  1
 O  O24  1  0.88257  0.51291  0.60364  1
 O  O25  1  0.43193  0.72555  0.46704  1
 O  O26  1  0.82139  0.24842  0.28492  1
 O  O27  1  0.24924  0.99830  0.86187  1
 O  O28  1  0.06807  0.22555  0.53296  1
