CIF file written using JARVIS-Tools package.
data_Ca2AgPd2
_symmetry_space_group_name_H-M  'Immm'
_cell_length_a       4.4897
_cell_length_b       5.5678
_cell_length_c       5.5678
_cell_angle_alpha    63.3945
_cell_angle_beta     66.2226
_cell_angle_gamma    66.2226

_symmetry_Int_Tables_number  71
_chemical_formula_structural  Ca2AgPd2
_chemical_formula_sum  Ca2AgPd2
_cell_volume  109.58491137593444
_cell_formula_units_Z  1
loop_
  _symmetry_equiv_pos_site_id
 _symmetry_equiv_pos_as_xyz
 1  'x, y, z'
loop_
 _atom_site_type_symbol
 _atom_site_label
 _atom_site_symmetry_multiplicity
 _atom_site_fract_x
 _atom_site_fract_y
 _atom_site_fract_z
 _atom_site_fract_occupancy
 Ag  Ag1  1  0.00000  0.00000  0.00000  1
 Ca  Ca1  1  0.79678  0.70322  0.70322  1
 Ca  Ca2  1  0.20322  0.29678  0.29678  1
 Pd  Pd1  1  0.50000  0.27154  0.72846  1
 Pd  Pd2  1  0.50000  0.72846  0.27154  1
