CIF file written using JARVIS-Tools package.
data_Ca2ThSi8O20
_symmetry_space_group_name_H-M  'I422'
_cell_length_a       7.52508
_cell_length_b       7.52509
_cell_length_c       9.25334
_cell_angle_alpha    113.992
_cell_angle_beta     113.992
_cell_angle_gamma    90

_symmetry_Int_Tables_number  97
_chemical_formula_structural  Ca2ThSi8O20
_chemical_formula_sum  Ca2ThSi8O20
_cell_volume  428.6883275420684
_cell_formula_units_Z  1
loop_
  _symmetry_equiv_pos_site_id
 _symmetry_equiv_pos_as_xyz
 1  'x, y, z'
loop_
 _atom_site_type_symbol
 _atom_site_label
 _atom_site_symmetry_multiplicity
 _atom_site_fract_x
 _atom_site_fract_y
 _atom_site_fract_z
 _atom_site_fract_occupancy
 Ca  Ca1  1  0.50000  -0.00000  -0.00000  1
 Ca  Ca2  1  -0.00000  0.50000  0.00000  1
 O  O1  1  0.66321  0.02352  0.83898  1
 O  O2  1  0.45428  0.95428  0.50000  1
 O  O3  1  0.82423  0.97648  0.16102  1
 O  O4  1  0.81546  0.66321  0.83898  1
 O  O5  1  0.57724  0.87283  0.25131  1
 O  O6  1  0.97648  0.33679  0.16102  1
 O  O7  1  0.32593  0.12717  0.74869  1
 O  O8  1  0.62152  0.32593  0.74869  1
 O  O9  1  0.37848  0.57724  0.25131  1
 O  O10  1  0.18454  0.82423  0.16102  1
 O  O11  1  0.04572  0.54572  0.50000  1
 O  O12  1  0.33679  0.18454  0.16102  1
 O  O13  1  0.54572  0.45428  0.50000  1
 O  O14  1  0.02352  0.17577  0.83898  1
 O  O15  1  0.95428  0.04572  0.50000  1
 O  O16  1  0.87283  0.67407  0.25131  1
 O  O17  1  0.42276  0.62152  0.74869  1
 O  O18  1  0.12717  0.42276  0.74869  1
 O  O19  1  0.17577  0.81546  0.83898  1
 O  O20  1  0.67407  0.37848  0.25131  1
 Si  Si1  1  0.10470  0.18483  0.70621  1
 Si  Si2  1  0.39849  0.81517  0.29379  1
 Si  Si3  1  0.89530  0.47863  0.29379  1
 Si  Si4  1  0.47863  0.39849  0.29379  1
 Si  Si5  1  0.60151  0.52137  0.70621  1
 Si  Si6  1  0.18483  0.60151  0.70621  1
 Si  Si7  1  0.52137  0.10470  0.70621  1
 Si  Si8  1  0.81517  0.89530  0.29379  1
 Th  Th1  1  0.00000  0.00000  0.00000  1
