CIF file written using JARVIS-Tools package.
data_FeCoAs4
_symmetry_space_group_name_H-M  'P2/m'
_cell_length_a       2.99955
_cell_length_b       5.24268
_cell_length_c       5.97309
_cell_angle_alpha    89.9163
_cell_angle_beta     90
_cell_angle_gamma    90

_symmetry_Int_Tables_number  10
_chemical_formula_structural  FeCoAs4
_chemical_formula_sum  FeCoAs4
_cell_volume  93.93101956826044
_cell_formula_units_Z  1
loop_
  _symmetry_equiv_pos_site_id
 _symmetry_equiv_pos_as_xyz
 1  'x, y, z'
loop_
 _atom_site_type_symbol
 _atom_site_label
 _atom_site_symmetry_multiplicity
 _atom_site_fract_x
 _atom_site_fract_y
 _atom_site_fract_z
 _atom_site_fract_occupancy
 As  As1  1  0.50000  0.31684  0.13700  1
 As  As2  1  0.50000  0.68316  0.86300  1
 As  As3  1  0.00000  0.81708  0.36194  1
 As  As4  1  0.00000  0.18292  0.63806  1
 Co  Co1  1  0.50000  0.50000  0.50000  1
 Fe  Fe1  1  0.00000  0.00000  0.00000  1
