CIF file written using JARVIS-Tools package.
data_Mg6TiCo
_symmetry_space_group_name_H-M  'Amm2'
_cell_length_a       6.26374
_cell_length_b       6.26374
_cell_length_c       4.68226
_cell_angle_alpha    90
_cell_angle_beta     90
_cell_angle_gamma    122.69

_symmetry_Int_Tables_number  38
_chemical_formula_structural  Mg6TiCo
_chemical_formula_sum  Mg6TiCo
_cell_volume  154.60744732528457
_cell_formula_units_Z  1
loop_
  _symmetry_equiv_pos_site_id
 _symmetry_equiv_pos_as_xyz
 1  'x, y, z'
loop_
 _atom_site_type_symbol
 _atom_site_label
 _atom_site_symmetry_multiplicity
 _atom_site_fract_x
 _atom_site_fract_y
 _atom_site_fract_z
 _atom_site_fract_occupancy
 Co  Co1  1  0.20141  0.29859  0.25000  1
 Mg  Mg1  1  0.17640  0.84466  0.25000  1
 Mg  Mg2  1  0.65534  0.32360  0.25000  1
 Mg  Mg3  1  0.67184  0.82816  0.25000  1
 Mg  Mg4  1  0.31839  0.66213  0.75000  1
 Mg  Mg5  1  0.83787  0.18161  0.75000  1
 Mg  Mg6  1  0.83282  0.66718  0.75000  1
 Ti  Ti1  1  0.30594  0.19406  0.75000  1
