CIF file written using JARVIS-Tools package.
data_Te4MoW3Se2S2
_symmetry_space_group_name_H-M  'P3m1'
_cell_length_a       3.41833
_cell_length_b       3.41835
_cell_length_c       40.2198
_cell_angle_alpha    90.0077
_cell_angle_beta     90
_cell_angle_gamma    120

_symmetry_Int_Tables_number  156
_chemical_formula_structural  Te4MoW3Se2S2
_chemical_formula_sum  Te4MoW3Se2S2
_cell_volume  407.00698445490156
_cell_formula_units_Z  1
loop_
  _symmetry_equiv_pos_site_id
 _symmetry_equiv_pos_as_xyz
 1  'x, y, z'
loop_
 _atom_site_type_symbol
 _atom_site_label
 _atom_site_symmetry_multiplicity
 _atom_site_fract_x
 _atom_site_fract_y
 _atom_site_fract_z
 _atom_site_fract_occupancy
 Mo  Mo1  1  0.33333  0.66665  0.09392  1
 S  S1  1  0.33334  0.66668  0.31903  1
 S  S2  1  0.33330  0.66661  0.24429  1
 Se  Se1  1  0.66665  0.33330  0.05339  1
 Se  Se2  1  0.66670  0.33339  0.13464  1
 Te  Te1  1  0.33343  0.66685  0.70597  1
 Te  Te2  1  0.66660  0.33319  0.42101  1
 Te  Te3  1  0.66664  0.33327  0.51453  1
 Te  Te4  1  0.33336  0.66673  0.61285  1
 W  W1  1  0.33327  0.66653  0.46781  1
 W  W2  1  0.66666  0.33332  0.28162  1
 W  W3  1  0.66673  0.33347  0.65969  1
