CIF file written using JARVIS-Tools package.
data_TeMoS
_symmetry_space_group_name_H-M  'P3m1'
_cell_length_a       3.36911
_cell_length_b       3.36911
_cell_length_c       35.7018
_cell_angle_alpha    90.0013
_cell_angle_beta     89.9997
_cell_angle_gamma    120

_symmetry_Int_Tables_number  156
_chemical_formula_structural  TeMoS
_chemical_formula_sum  Te4Mo4S4
_cell_volume  350.9541392439923
_cell_formula_units_Z  4
loop_
  _symmetry_equiv_pos_site_id
 _symmetry_equiv_pos_as_xyz
 1  'x, y, z'
loop_
 _atom_site_type_symbol
 _atom_site_label
 _atom_site_symmetry_multiplicity
 _atom_site_fract_x
 _atom_site_fract_y
 _atom_site_fract_z
 _atom_site_fract_occupancy
 Mo  Mo1  1  0.33331  0.66663  0.09475  1
 Mo  Mo2  1  0.33332  0.66665  0.46938  1
 Mo  Mo3  1  0.66668  0.33336  0.28209  1
 Mo  Mo4  1  0.66668  0.33337  0.65672  1
 S  S1  1  0.66664  0.33327  0.05244  1
 S  S2  1  0.66665  0.33330  0.42705  1
 S  S3  1  0.66666  0.33333  0.13712  1
 S  S4  1  0.66666  0.33333  0.51170  1
 Te  Te1  1  0.33334  0.66668  0.33514  1
 Te  Te2  1  0.33336  0.66673  0.70963  1
 Te  Te3  1  0.33335  0.66670  0.22904  1
 Te  Te4  1  0.33334  0.66667  0.60367  1
