CIF file written using JARVIS-Tools package.
data_Mg6TiNb
_symmetry_space_group_name_H-M  'Amm2'
_cell_length_a       6.37737
_cell_length_b       6.37737
_cell_length_c       4.83963
_cell_angle_alpha    90
_cell_angle_beta     90
_cell_angle_gamma    123.134

_symmetry_Int_Tables_number  38
_chemical_formula_structural  Mg6TiNb
_chemical_formula_sum  Mg6TiNb
_cell_volume  164.82657046365262
_cell_formula_units_Z  1
loop_
  _symmetry_equiv_pos_site_id
 _symmetry_equiv_pos_as_xyz
 1  'x, y, z'
loop_
 _atom_site_type_symbol
 _atom_site_label
 _atom_site_symmetry_multiplicity
 _atom_site_fract_x
 _atom_site_fract_y
 _atom_site_fract_z
 _atom_site_fract_occupancy
 Mg  Mg1  1  0.18350  0.83316  0.25000  1
 Mg  Mg2  1  0.66684  0.31650  0.25000  1
 Mg  Mg3  1  0.67312  0.82688  0.25000  1
 Mg  Mg4  1  0.31632  0.66931  0.75000  1
 Mg  Mg5  1  0.83069  0.18368  0.75000  1
 Mg  Mg6  1  0.82698  0.67302  0.75000  1
 Nb  Nb1  1  0.30022  0.19978  0.75000  1
 Ti  Ti1  1  0.20233  0.29767  0.25000  1
