CIF file written using JARVIS-Tools package.
data_Mg2B24C
_symmetry_space_group_name_H-M  'P-4n2'
_cell_length_a       5.08574
_cell_length_b       8.96734
_cell_length_c       8.96734
_cell_angle_alpha    90
_cell_angle_beta     90
_cell_angle_gamma    90

_symmetry_Int_Tables_number  118
_chemical_formula_structural  Mg2B24C
_chemical_formula_sum  Mg4B48C2
_cell_volume  408.9609241611883
_cell_formula_units_Z  2
loop_
  _symmetry_equiv_pos_site_id
 _symmetry_equiv_pos_as_xyz
 1  'x, y, z'
loop_
 _atom_site_type_symbol
 _atom_site_label
 _atom_site_symmetry_multiplicity
 _atom_site_fract_x
 _atom_site_fract_y
 _atom_site_fract_z
 _atom_site_fract_occupancy
 B  B1  1  0.12459  0.37174  0.61605  1
 B  B2  1  0.12459  0.62826  0.38395  1
 B  B3  1  0.91279  0.09264  0.23087  1
 B  B4  1  0.41484  0.74838  0.76451  1
 B  B5  1  0.91531  0.24095  0.07759  1
 B  B6  1  0.87541  0.61605  0.62826  1
 B  B7  1  0.91484  0.75162  0.26451  1
 B  B8  1  0.41484  0.25162  0.23549  1
 B  B9  1  0.08284  0.40149  0.80594  1
 B  B10  1  0.08516  0.26451  0.24838  1
 B  B11  1  0.59832  0.67486  0.92047  1
 B  B12  1  0.58721  0.73087  0.59264  1
 B  B13  1  0.59832  0.32514  0.07953  1
 B  B14  1  0.41531  0.74095  0.42241  1
 B  B15  1  0.91531  0.75905  0.92241  1
 B  B16  1  0.91279  0.90736  0.76913  1
 B  B17  1  0.87541  0.38395  0.37174  1
 B  B18  1  0.08469  0.07759  0.75905  1
 B  B19  1  0.58469  0.42241  0.25905  1
 B  B20  1  0.58284  0.90149  0.69406  1
 B  B21  1  0.58516  0.23549  0.74838  1
 B  B22  1  0.08469  0.92241  0.24095  1
 B  B23  1  0.09832  0.82514  0.42047  1
 B  B24  1  0.62459  0.12826  0.11605  1
 B  B25  1  0.09832  0.17486  0.57953  1
 B  B26  1  0.08284  0.59851  0.19406  1
 B  B27  1  0.08516  0.73549  0.75162  1
 B  B28  1  0.08721  0.76913  0.09264  1
 B  B29  1  0.41279  0.40736  0.73087  1
 B  B30  1  0.91484  0.24838  0.73549  1
 B  B31  1  0.37541  0.88395  0.12826  1
 B  B32  1  0.90168  0.57953  0.82514  1
 B  B33  1  0.90168  0.42047  0.17486  1
 B  B34  1  0.41716  0.69406  0.09851  1
 B  B35  1  0.58469  0.57759  0.74095  1
 B  B36  1  0.62459  0.87174  0.88395  1
 B  B37  1  0.41716  0.30594  0.90149  1
 B  B38  1  0.41279  0.59264  0.26913  1
 B  B39  1  0.40168  0.07953  0.67486  1
 B  B40  1  0.40168  0.92047  0.32514  1
 B  B41  1  0.41531  0.25905  0.57759  1
 B  B42  1  0.58721  0.26913  0.40736  1
 B  B43  1  0.58284  0.09851  0.30594  1
 B  B44  1  0.91716  0.19406  0.40149  1
 B  B45  1  0.58516  0.76451  0.25162  1
 B  B46  1  0.08721  0.23087  0.90736  1
 B  B47  1  0.37541  0.11605  0.87174  1
 B  B48  1  0.91716  0.80594  0.59851  1
 C  C1  1  0.00000  0.50000  0.50000  1
 C  C2  1  0.50000  0.00000  0.00000  1
 Mg  Mg1  1  0.25000  0.50000  0.00000  1
 Mg  Mg2  1  0.75000  0.00000  0.50000  1
 Mg  Mg3  1  0.50000  0.50000  0.50000  1
 Mg  Mg4  1  0.00000  0.00000  0.00000  1
