CIF file written using JARVIS-Tools package.
data_Li2CaN2
_symmetry_space_group_name_H-M  'P-3m1'
_cell_length_a       3.44564
_cell_length_b       3.44619
_cell_length_c       5.77841
_cell_angle_alpha    90
_cell_angle_beta     89.9981
_cell_angle_gamma    120.005

_symmetry_Int_Tables_number  164
_chemical_formula_structural  Li2CaN2
_chemical_formula_sum  Li2CaN2
_cell_volume  59.41895699957765
_cell_formula_units_Z  1
loop_
  _symmetry_equiv_pos_site_id
 _symmetry_equiv_pos_as_xyz
 1  'x, y, z'
loop_
 _atom_site_type_symbol
 _atom_site_label
 _atom_site_symmetry_multiplicity
 _atom_site_fract_x
 _atom_site_fract_y
 _atom_site_fract_z
 _atom_site_fract_occupancy
 Ca  Ca1  1  -0.00000  -0.00000  0.50000  1
 Li  Li1  1  0.33343  0.66672  0.88563  1
 Li  Li2  1  0.66657  0.33328  0.11437  1
 N  N1  1  0.33330  0.66665  0.24329  1
 N  N2  1  0.66670  0.33335  0.75671  1
