CIF file written using JARVIS-Tools package.
data_Fe4O7F
_symmetry_space_group_name_H-M  'Imm2'
_cell_length_a       5.21338
_cell_length_b       5.21338
_cell_length_c       5.21338
_cell_angle_alpha    71.2398
_cell_angle_beta     106.649
_cell_angle_gamma    66.9286

_symmetry_Int_Tables_number  44
_chemical_formula_structural  Fe4O7F
_chemical_formula_sum  Fe4O7F
_cell_volume  108.71769898411225
_cell_formula_units_Z  1
loop_
  _symmetry_equiv_pos_site_id
 _symmetry_equiv_pos_as_xyz
 1  'x, y, z'
loop_
 _atom_site_type_symbol
 _atom_site_label
 _atom_site_symmetry_multiplicity
 _atom_site_fract_x
 _atom_site_fract_y
 _atom_site_fract_z
 _atom_site_fract_occupancy
 F  F1  1  0.44985  0.75000  0.19985  1
 Fe  Fe1  1  0.77522  0.75000  0.52522  1
 Fe  Fe2  1  0.24149  0.25000  0.49149  1
 Fe  Fe3  1  0.50049  0.48971  0.99020  1
 Fe  Fe4  1  0.97991  0.01029  0.99020  1
 O  O1  1  0.54782  0.25000  0.79782  1
 O  O2  1  0.06085  0.75000  0.81085  1
 O  O3  1  0.50311  0.80103  0.69694  1
 O  O4  1  -0.00203  0.30616  0.69694  1
 O  O5  1  0.50311  0.19384  0.30414  1
 O  O6  1  -0.00203  0.69897  0.30414  1
 O  O7  1  0.94220  0.25000  0.19220  1
