CIF file written using JARVIS-Tools package.
data_LiFe2Cl2O2
_symmetry_space_group_name_H-M  'Pmm2'
_cell_length_a       3.89298
_cell_length_b       8.05241
_cell_length_c       3.42997
_cell_angle_alpha    89.9996
_cell_angle_beta     90
_cell_angle_gamma    90.0003

_symmetry_Int_Tables_number  25
_chemical_formula_structural  LiFe2Cl2O2
_chemical_formula_sum  LiFe2Cl2O2
_cell_volume  107.52218890372293
_cell_formula_units_Z  1
loop_
  _symmetry_equiv_pos_site_id
 _symmetry_equiv_pos_as_xyz
 1  'x, y, z'
loop_
 _atom_site_type_symbol
 _atom_site_label
 _atom_site_symmetry_multiplicity
 _atom_site_fract_x
 _atom_site_fract_y
 _atom_site_fract_z
 _atom_site_fract_occupancy
 Cl  Cl1  1  0.00000  0.30378  -0.00000  1
 Cl  Cl2  1  0.49999  0.65961  0.50000  1
 Fe  Fe1  1  0.00000  0.06201  0.50000  1
 Fe  Fe2  1  0.50000  0.90221  -0.00000  1
 Li  Li1  1  0.50000  0.46375  0.00001  1
 O  O1  1  -0.00000  0.91825  1.00000  1
 O  O2  1  0.50000  0.05038  0.50000  1
