CIF file written using JARVIS-Tools package.
data_Cr2CuO4
_symmetry_space_group_name_H-M  'Fd-3m'
_cell_length_a       5.89992
_cell_length_b       5.89992
_cell_length_c       5.89991
_cell_angle_alpha    89.9922
_cell_angle_beta     120.004
_cell_angle_gamma    120.004

_symmetry_Int_Tables_number  227
_chemical_formula_structural  Cr2CuO4
_chemical_formula_sum  Cr4Cu2O8
_cell_volume  145.20876721421516
_cell_formula_units_Z  2
loop_
  _symmetry_equiv_pos_site_id
 _symmetry_equiv_pos_as_xyz
 1  'x, y, z'
loop_
 _atom_site_type_symbol
 _atom_site_label
 _atom_site_symmetry_multiplicity
 _atom_site_fract_x
 _atom_site_fract_y
 _atom_site_fract_z
 _atom_site_fract_occupancy
 Cr  Cr1  1  -0.00000  0.50000  0.50000  1
 Cr  Cr2  1  1.00000  0.50000  0.00000  1
 Cr  Cr3  1  0.50000  0.50000  0.50000  1
 Cr  Cr4  1  0.50000  -0.00000  0.50000  1
 Cu  Cu1  1  0.75000  0.87500  0.12500  1
 Cu  Cu2  1  0.25000  0.12500  0.87500  1
 O  O1  1  0.47262  0.73628  0.70890  1
 O  O2  1  0.02738  0.73628  0.26366  1
 O  O3  1  0.02738  0.29110  0.26373  1
 O  O4  1  0.52738  0.26366  0.73628  1
 O  O5  1  0.97262  0.70889  0.73627  1
 O  O6  1  0.97262  0.26373  0.73634  1
 O  O7  1  0.47262  0.73634  0.26372  1
 O  O8  1  0.52738  0.26373  0.29110  1
