CIF file written using JARVIS-Tools package.
data_ZrCu2
_symmetry_space_group_name_H-M  'I4/mmm'
_cell_length_a       4.69047
_cell_length_b       4.69015
_cell_length_c       4.87
_cell_angle_alpha    90
_cell_angle_beta     118.788
_cell_angle_gamma    90

_symmetry_Int_Tables_number  139
_chemical_formula_structural  ZrCu2
_chemical_formula_sum  Zr2Cu4
_cell_volume  93.89437491614648
_cell_formula_units_Z  2
loop_
  _symmetry_equiv_pos_site_id
 _symmetry_equiv_pos_as_xyz
 1  'x, y, z'
loop_
 _atom_site_type_symbol
 _atom_site_label
 _atom_site_symmetry_multiplicity
 _atom_site_fract_x
 _atom_site_fract_y
 _atom_site_fract_z
 _atom_site_fract_occupancy
 Cu  Cu1  1  0.35080  0.00000  0.64138  1
 Cu  Cu2  1  0.70942  0.00000  0.35862  1
 Cu  Cu3  1  0.85058  0.50000  0.64138  1
 Cu  Cu4  1  0.20920  0.50000  0.35862  1
 Zr  Zr1  1  0.03006  0.00000  0.00000  1
 Zr  Zr2  1  0.52994  0.50000  1.00000  1
