CIF file written using JARVIS-Tools package.
data_TbLaC4
_symmetry_space_group_name_H-M  'C2/m'
_cell_length_a       4.23627
_cell_length_b       4.23626
_cell_length_c       7.34143
_cell_angle_alpha    65.0221
_cell_angle_beta     65.0222
_cell_angle_gamma    53.2404

_symmetry_Int_Tables_number  12
_chemical_formula_structural  TbLaC4
_chemical_formula_sum  TbLaC4
_cell_volume  93.03439934507523
_cell_formula_units_Z  1
loop_
  _symmetry_equiv_pos_site_id
 _symmetry_equiv_pos_as_xyz
 1  'x, y, z'
loop_
 _atom_site_type_symbol
 _atom_site_label
 _atom_site_symmetry_multiplicity
 _atom_site_fract_x
 _atom_site_fract_y
 _atom_site_fract_z
 _atom_site_fract_occupancy
 C  C1  1  0.19097  0.19097  0.21998  1
 C  C2  1  0.70392  0.70392  0.68322  1
 C  C3  1  0.80903  0.80903  0.78002  1
 C  C4  1  0.29608  0.29608  0.31678  1
 La  La1  1  0.00000  0.00000  0.00000  1
 Tb  Tb1  1  0.50000  0.50000  0.50000  1
