CIF file written using JARVIS-Tools package.
data_CaClO
_symmetry_space_group_name_H-M  'P6_3mc'
_cell_length_a       3.93711
_cell_length_b       3.93711
_cell_length_c       9.19159
_cell_angle_alpha    90
_cell_angle_beta     90
_cell_angle_gamma    119.999

_symmetry_Int_Tables_number  186
_chemical_formula_structural  CaClO
_chemical_formula_sum  Ca2Cl2O2
_cell_volume  123.39096547438328
_cell_formula_units_Z  2
loop_
  _symmetry_equiv_pos_site_id
 _symmetry_equiv_pos_as_xyz
 1  'x, y, z'
loop_
 _atom_site_type_symbol
 _atom_site_label
 _atom_site_symmetry_multiplicity
 _atom_site_fract_x
 _atom_site_fract_y
 _atom_site_fract_z
 _atom_site_fract_occupancy
 Ca  Ca1  1  0.33333  0.66667  0.81224  1
 Ca  Ca2  1  0.66667  0.33333  0.31224  1
 Cl  Cl1  1  0.33332  0.66668  0.50619  1
 Cl  Cl2  1  0.66668  0.33332  0.00619  1
 O  O1  1  0.00001  0.99999  0.26457  1
 O  O2  1  0.99999  0.00001  0.76457  1
