CIF file written using JARVIS-Tools package.
data_CaTa2Bi2O9
_symmetry_space_group_name_H-M  'P-1'
_cell_length_a       3.92605
_cell_length_b       3.90621
_cell_length_c       14.6651
_cell_angle_alpha    112.212
_cell_angle_beta     110.493
_cell_angle_gamma    90.3599

_symmetry_Int_Tables_number  2
_chemical_formula_structural  CaTa2Bi2O9
_chemical_formula_sum  CaTa2Bi2O9
_cell_volume  192.530139299798
_cell_formula_units_Z  1
loop_
  _symmetry_equiv_pos_site_id
 _symmetry_equiv_pos_as_xyz
 1  'x, y, z'
loop_
 _atom_site_type_symbol
 _atom_site_label
 _atom_site_symmetry_multiplicity
 _atom_site_fract_x
 _atom_site_fract_y
 _atom_site_fract_z
 _atom_site_fract_occupancy
 Bi  Bi1  1  0.14624  0.11812  0.39887  1
 Bi  Bi2  1  0.85376  0.88188  0.60113  1
 Ca  Ca1  1  0.50000  0.50000  -0.00000  1
 O  O1  1  0.81089  0.28782  0.85362  1
 O  O2  1  0.58954  0.54553  0.68267  1
 O  O3  1  0.25060  0.75146  0.50191  1
 O  O4  1  0.74940  0.24854  0.49809  1
 O  O5  1  0.30565  0.79053  0.85447  1
 O  O6  1  0.18911  0.71218  0.14638  1
 O  O7  1  0.69435  0.20947  0.14553  1
 O  O8  1  0.41046  0.45447  0.31733  1
 O  O9  1  0.00000  0.00000  0.00000  1
 Ta  Ta1  1  0.77261  0.75821  0.83460  1
 Ta  Ta2  1  0.22739  0.24179  0.16540  1
