CIF file written using JARVIS-Tools package.
data_Mg6CrW
_symmetry_space_group_name_H-M  'Amm2'
_cell_length_a       6.18921
_cell_length_b       6.1892
_cell_length_c       4.6397
_cell_angle_alpha    90
_cell_angle_beta     90
_cell_angle_gamma    123.208

_symmetry_Int_Tables_number  38
_chemical_formula_structural  Mg6CrW
_chemical_formula_sum  Mg6CrW
_cell_volume  148.70320359789025
_cell_formula_units_Z  1
loop_
  _symmetry_equiv_pos_site_id
 _symmetry_equiv_pos_as_xyz
 1  'x, y, z'
loop_
 _atom_site_type_symbol
 _atom_site_label
 _atom_site_symmetry_multiplicity
 _atom_site_fract_x
 _atom_site_fract_y
 _atom_site_fract_z
 _atom_site_fract_occupancy
 Cr  Cr1  1  0.19634  0.30366  0.25000  1
 Mg  Mg1  1  0.18216  0.84066  0.25000  1
 Mg  Mg2  1  0.65934  0.31784  0.25000  1
 Mg  Mg3  1  0.67116  0.82884  0.25000  1
 Mg  Mg4  1  0.31702  0.66295  0.75000  1
 Mg  Mg5  1  0.83705  0.18298  0.75000  1
 Mg  Mg6  1  0.82991  0.67009  0.75000  1
 W  W1  1  0.30702  0.19298  0.75000  1
