CIF file written using JARVIS-Tools package.
data_Ba3Sc4
_symmetry_space_group_name_H-M  'R-3m'
_cell_length_a       5.88603
_cell_length_b       5.88603
_cell_length_c       8.84852
_cell_angle_alpha    70.5733
_cell_angle_beta     70.5734
_cell_angle_gamma    60

_symmetry_Int_Tables_number  166
_chemical_formula_structural  Ba3Sc4
_chemical_formula_sum  Ba3Sc4
_cell_volume  245.12829699865148
_cell_formula_units_Z  1
loop_
  _symmetry_equiv_pos_site_id
 _symmetry_equiv_pos_as_xyz
 1  'x, y, z'
loop_
 _atom_site_type_symbol
 _atom_site_label
 _atom_site_symmetry_multiplicity
 _atom_site_fract_x
 _atom_site_fract_y
 _atom_site_fract_z
 _atom_site_fract_occupancy
 Ba  Ba1  1  0.00000  0.00000  0.00000  1
 Ba  Ba2  1  0.57623  0.57623  0.27131  1
 Ba  Ba3  1  0.42377  0.42377  0.72869  1
 Sc  Sc1  1  0.85046  0.85046  0.44862  1
 Sc  Sc2  1  0.14954  0.14954  0.55138  1
 Sc  Sc3  1  0.72732  0.72732  0.81804  1
 Sc  Sc4  1  0.27268  0.27268  0.18196  1
