CIF file written using JARVIS-Tools package.
data_YMgGa
_symmetry_space_group_name_H-M  'P-62m'
_cell_length_a       7.26876
_cell_length_b       7.26876
_cell_length_c       4.39928
_cell_angle_alpha    90
_cell_angle_beta     90
_cell_angle_gamma    120

_symmetry_Int_Tables_number  189
_chemical_formula_structural  YMgGa
_chemical_formula_sum  Y3Mg3Ga3
_cell_volume  201.29499548037165
_cell_formula_units_Z  3
loop_
  _symmetry_equiv_pos_site_id
 _symmetry_equiv_pos_as_xyz
 1  'x, y, z'
loop_
 _atom_site_type_symbol
 _atom_site_label
 _atom_site_symmetry_multiplicity
 _atom_site_fract_x
 _atom_site_fract_y
 _atom_site_fract_z
 _atom_site_fract_occupancy
 Ga  Ga1  1  0.33333  0.66667  0.00000  1
 Ga  Ga2  1  0.66667  0.33333  0.00000  1
 Ga  Ga3  1  0.00000  0.00000  0.50000  1
 Mg  Mg1  1  0.75568  -0.00000  0.00000  1
 Mg  Mg2  1  0.24432  0.24432  0.00000  1
 Mg  Mg3  1  -0.00000  0.75568  0.00000  1
 Y  Y1  1  0.42381  -0.00000  0.50000  1
 Y  Y2  1  0.57619  0.57619  0.50000  1
 Y  Y3  1  -0.00000  0.42381  0.50000  1
