CIF file written using JARVIS-Tools package.
data_Li3Mn2FeB3O9
_symmetry_space_group_name_H-M  'Pm'
_cell_length_a       8.17392
_cell_length_b       3.0933
_cell_length_c       8.17641
_cell_angle_alpha    90
_cell_angle_beta     119.849
_cell_angle_gamma    90

_symmetry_Int_Tables_number  6
_chemical_formula_structural  Li3Mn2FeB3O9
_chemical_formula_sum  Li3Mn2FeB3O9
_cell_volume  179.3110955574285
_cell_formula_units_Z  1
loop_
  _symmetry_equiv_pos_site_id
 _symmetry_equiv_pos_as_xyz
 1  'x, y, z'
loop_
 _atom_site_type_symbol
 _atom_site_label
 _atom_site_symmetry_multiplicity
 _atom_site_fract_x
 _atom_site_fract_y
 _atom_site_fract_z
 _atom_site_fract_occupancy
 B  B1  1  0.99774  0.00000  -0.00097  1
 B  B2  1  0.33490  0.50000  0.66505  1
 B  B3  1  0.66745  0.50000  0.33641  1
 Fe  Fe1  1  0.63283  0.00000  0.64019  1
 Li  Li1  1  0.98489  0.50000  0.70030  1
 Li  Li2  1  0.71276  0.50000  0.01255  1
 Li  Li3  1  0.30035  0.50000  0.28536  1
 Mn  Mn1  1  0.36053  0.00000  0.99051  1
 Mn  Mn2  1  0.00931  0.00000  0.36955  1
 O  O1  1  0.88349  0.00000  0.08013  1
 O  O2  1  0.53013  0.50000  0.74540  1
 O  O3  1  0.91674  0.00000  0.80372  1
 O  O4  1  0.57655  0.50000  0.44171  1
 O  O5  1  0.19304  0.00000  0.11271  1
 O  O6  1  0.86225  0.50000  0.42635  1
 O  O7  1  0.56283  0.50000  0.14123  1
 O  O8  1  0.25352  0.50000  0.77936  1
 O  O9  1  0.22068  0.50000  0.47043  1
