CIF file written using JARVIS-Tools package.
data_SiO2
_symmetry_space_group_name_H-M  'P4/nbm'
_cell_length_a       4.34696
_cell_length_b       12.3492
_cell_length_c       12.3492
_cell_angle_alpha    90
_cell_angle_beta     90
_cell_angle_gamma    90

_symmetry_Int_Tables_number  125
_chemical_formula_structural  SiO2
_chemical_formula_sum  Si6O32
_cell_volume  662.9293362308455
_cell_formula_units_Z  16
loop_
  _symmetry_equiv_pos_site_id
 _symmetry_equiv_pos_as_xyz
 1  'x, y, z'
loop_
 _atom_site_type_symbol
 _atom_site_label
 _atom_site_symmetry_multiplicity
 _atom_site_fract_x
 _atom_site_fract_y
 _atom_site_fract_z
 _atom_site_fract_occupancy
 O  O1  1  0.50000  0.43759  0.06241  1
 O  O2  1  0.00000  0.12547  0.37453  1
 O  O3  1  0.50000  0.43759  0.43759  1
 O  O4  1  0.50000  0.93759  0.56241  1
 O  O5  1  0.87502  0.09574  0.90426  1
 O  O6  1  0.00000  0.37453  0.37453  1
 O  O7  1  0.50000  0.75000  0.50130  1
 O  O8  1  0.50000  0.50130  0.75000  1
 O  O9  1  0.50000  0.56241  0.93759  1
 O  O10  1  0.50000  0.06241  0.43759  1
 O  O11  1  0.87502  0.90426  0.40426  1
 O  O12  1  0.00000  0.37453  0.12547  1
 O  O13  1  0.50000  0.93759  0.93759  1
 O  O14  1  0.00000  0.87453  0.62547  1
 O  O15  1  0.00000  0.62547  0.62547  1
 O  O16  1  0.50000  0.00130  0.25000  1
 O  O17  1  0.50000  0.99870  0.75000  1
 O  O18  1  0.50000  0.06241  0.06241  1
 O  O19  1  0.50000  0.56241  0.56241  1
 O  O20  1  0.00000  0.87453  0.87453  1
 O  O21  1  0.12498  0.90426  0.09574  1
 O  O22  1  0.50000  0.25000  0.00130  1
 O  O23  1  0.12498  0.59574  0.40426  1
 O  O24  1  0.87502  0.40426  0.59574  1
 O  O25  1  0.87502  0.59574  0.09574  1
 O  O26  1  0.00000  0.62547  0.87453  1
 O  O27  1  0.50000  0.49870  0.25000  1
 O  O28  1  0.00000  0.12547  0.12547  1
 O  O29  1  0.50000  0.25000  0.49870  1
 O  O30  1  0.12498  0.40426  0.90426  1
 O  O31  1  0.12498  0.09574  0.59574  1
 O  O32  1  0.50000  0.75000  0.99870  1
 Si  Si1  1  0.74178  0.02205  0.35469  1
 Si  Si2  1  0.25822  0.35469  0.02205  1
 Si  Si3  1  0.25822  0.85469  0.97795  1
 Si  Si4  1  0.25822  0.52205  0.85469  1
 Si  Si5  1  0.74178  0.14531  0.02205  1
 Si  Si6  1  0.74178  0.47795  0.14531  1
 Si  Si7  1  0.74178  0.64531  0.97795  1
 Si  Si8  1  0.25822  0.14531  0.47795  1
 Si  Si9  1  0.25822  0.97795  0.64531  1
 Si  Si10  1  0.74178  0.35469  0.47795  1
 Si  Si11  1  0.25822  0.02205  0.14531  1
 Si  Si12  1  0.25822  0.64531  0.52205  1
 Si  Si13  1  0.25822  0.47795  0.35469  1
 Si  Si14  1  0.74178  0.97795  0.85469  1
 Si  Si15  1  0.74178  0.52205  0.64531  1
 Si  Si16  1  0.74178  0.85469  0.52205  1
