CIF file written using JARVIS-Tools package.
data_Sn2S3
_symmetry_space_group_name_H-M  'Pnma'
_cell_length_a       3.82154
_cell_length_b       8.9924
_cell_length_c       14.0724
_cell_angle_alpha    90
_cell_angle_beta     90
_cell_angle_gamma    90

_symmetry_Int_Tables_number  62
_chemical_formula_structural  Sn2S3
_chemical_formula_sum  Sn8S2
_cell_volume  483.59565850444386
_cell_formula_units_Z  4
loop_
  _symmetry_equiv_pos_site_id
 _symmetry_equiv_pos_as_xyz
 1  'x, y, z'
loop_
 _atom_site_type_symbol
 _atom_site_label
 _atom_site_symmetry_multiplicity
 _atom_site_fract_x
 _atom_site_fract_y
 _atom_site_fract_z
 _atom_site_fract_occupancy
 S  S1  1  0.75000  0.21111  0.28669  1
 S  S2  1  0.25000  0.01759  0.10761  1
 S  S3  1  0.75000  0.48241  0.60761  1
 S  S4  1  0.25000  0.51759  0.39239  1
 S  S5  1  0.75000  0.34011  0.00642  1
 S  S6  1  0.25000  0.65989  0.99358  1
 S  S7  1  0.75000  0.84011  0.49358  1
 S  S8  1  0.25000  0.15989  0.50642  1
 S  S9  1  0.75000  0.98241  0.89239  1
 S  S10  1  0.25000  0.28889  0.78669  1
 S  S11  1  0.25000  0.78889  0.71331  1
 S  S12  1  0.75000  0.71111  0.21331  1
 Sn  Sn1  1  0.75000  0.98711  0.66929  1
 Sn  Sn2  1  0.75000  0.83372  0.05131  1
 Sn  Sn3  1  0.25000  0.16628  0.94869  1
 Sn  Sn4  1  0.75000  0.33372  0.44869  1
 Sn  Sn5  1  0.25000  0.66628  0.55131  1
 Sn  Sn6  1  0.75000  0.48711  0.83071  1
 Sn  Sn7  1  0.25000  0.51289  0.16929  1
 Sn  Sn8  1  0.25000  0.01289  0.33071  1
