CIF file written using JARVIS-Tools package.
data_HgNCl
_symmetry_space_group_name_H-M  'Pmma'
_cell_length_a       4.27512
_cell_length_b       3.86907
_cell_length_c       6.96332
_cell_angle_alpha    90
_cell_angle_beta     90
_cell_angle_gamma    90

_symmetry_Int_Tables_number  51
_chemical_formula_structural  HgNCl
_chemical_formula_sum  Hg2N2Cl2
_cell_volume  115.17837223977872
_cell_formula_units_Z  2
loop_
  _symmetry_equiv_pos_site_id
 _symmetry_equiv_pos_as_xyz
 1  'x, y, z'
loop_
 _atom_site_type_symbol
 _atom_site_label
 _atom_site_symmetry_multiplicity
 _atom_site_fract_x
 _atom_site_fract_y
 _atom_site_fract_z
 _atom_site_fract_occupancy
 Cl  Cl1  1  0.50000  0.54467  0.75000  1
 Cl  Cl2  1  0.50000  0.45533  0.25000  1
 Hg  Hg1  1  0.00000  0.00000  0.50000  1
 Hg  Hg2  1  0.00000  0.00000  0.00000  1
 N  N1  1  0.00000  0.30646  0.25000  1
 N  N2  1  0.00000  0.69354  0.75000  1
