CIF file written using JARVIS-Tools package.
data_Mg6SiNi
_symmetry_space_group_name_H-M  'Amm2'
_cell_length_a       6.13587
_cell_length_b       6.13587
_cell_length_c       4.62401
_cell_angle_alpha    90
_cell_angle_beta     90
_cell_angle_gamma    119.422

_symmetry_Int_Tables_number  38
_chemical_formula_structural  Mg6SiNi
_chemical_formula_sum  Mg6SiNi
_cell_volume  151.63585530846126
_cell_formula_units_Z  1
loop_
  _symmetry_equiv_pos_site_id
 _symmetry_equiv_pos_as_xyz
 1  'x, y, z'
loop_
 _atom_site_type_symbol
 _atom_site_label
 _atom_site_symmetry_multiplicity
 _atom_site_fract_x
 _atom_site_fract_y
 _atom_site_fract_z
 _atom_site_fract_occupancy
 Mg  Mg1  1  0.16610  0.85218  0.25000  1
 Mg  Mg2  1  0.64782  0.33390  0.25000  1
 Mg  Mg3  1  0.66268  0.83732  0.25000  1
 Mg  Mg4  1  0.32477  0.64204  0.75000  1
 Mg  Mg5  1  0.85796  0.17523  0.75000  1
 Mg  Mg6  1  0.83227  0.66773  0.75000  1
 Ni  Ni1  1  0.19097  0.30903  0.25000  1
 Si  Si1  1  0.31744  0.18256  0.75000  1
