CIF file written using JARVIS-Tools package.
data_VOF
_symmetry_space_group_name_H-M  'Pmn2_1'
_cell_length_a       3.03708
_cell_length_b       4.66782
_cell_length_c       14.0509
_cell_angle_alpha    90
_cell_angle_beta     90
_cell_angle_gamma    90

_symmetry_Int_Tables_number  31
_chemical_formula_structural  VOF
_chemical_formula_sum  V6O6F6
_cell_volume  199.19272814226545
_cell_formula_units_Z  6
loop_
  _symmetry_equiv_pos_site_id
 _symmetry_equiv_pos_as_xyz
 1  'x, y, z'
loop_
 _atom_site_type_symbol
 _atom_site_label
 _atom_site_symmetry_multiplicity
 _atom_site_fract_x
 _atom_site_fract_y
 _atom_site_fract_z
 _atom_site_fract_occupancy
 F  F1  1  0.50000  0.01872  0.73412  1
 F  F2  1  0.00000  0.92305  0.89531  1
 F  F3  1  0.00000  0.98128  0.23412  1
 F  F4  1  0.00000  0.54820  0.10205  1
 F  F5  1  0.50000  0.45180  0.60205  1
 F  F6  1  0.50000  0.07695  0.39531  1
 O  O1  1  0.50000  0.48361  0.26793  1
 O  O2  1  0.50000  0.42438  0.93480  1
 O  O3  1  0.00000  0.51639  0.76793  1
 O  O4  1  0.00000  0.57562  0.43480  1
 O  O5  1  0.50000  0.04168  0.06527  1
 O  O6  1  0.00000  0.95832  0.56527  1
 V  V1  1  0.50000  0.66825  0.83361  1
 V  V2  1  0.50000  0.77401  0.50065  1
 V  V3  1  0.50000  0.76956  0.16627  1
 V  V4  1  0.00000  0.23044  0.66627  1
 V  V5  1  0.00000  0.33175  0.33361  1
 V  V6  1  0.00000  0.22599  0.00065  1
