CIF file written using JARVIS-Tools package.
data_LiMg6Cd
_symmetry_space_group_name_H-M  'Amm2'
_cell_length_a       6.3117
_cell_length_b       6.31171
_cell_length_c       5.02955
_cell_angle_alpha    90
_cell_angle_beta     90
_cell_angle_gamma    119.857

_symmetry_Int_Tables_number  38
_chemical_formula_structural  LiMg6Cd
_chemical_formula_sum  LiMg6Cd
_cell_volume  173.77090127225807
_cell_formula_units_Z  1
loop_
  _symmetry_equiv_pos_site_id
 _symmetry_equiv_pos_as_xyz
 1  'x, y, z'
loop_
 _atom_site_type_symbol
 _atom_site_label
 _atom_site_symmetry_multiplicity
 _atom_site_fract_x
 _atom_site_fract_y
 _atom_site_fract_z
 _atom_site_fract_occupancy
 Cd  Cd1  1  0.32925  0.17075  0.75000  1
 Li  Li1  1  0.16860  0.33140  0.25000  1
 Mg  Mg1  1  0.16805  0.83671  0.25000  1
 Mg  Mg2  1  0.66329  0.33195  0.25000  1
 Mg  Mg3  1  0.66540  0.83460  0.25000  1
 Mg  Mg4  1  0.33277  0.66049  0.75000  1
 Mg  Mg5  1  0.83951  0.16723  0.75000  1
 Mg  Mg6  1  0.83312  0.66688  0.75000  1
