CIF file written using JARVIS-Tools package.
data_Hf2N2O
_symmetry_space_group_name_H-M  'C2'
_cell_length_a       5.42537
_cell_length_b       5.48444
_cell_length_c       10.2322
_cell_angle_alpha    75.1041
_cell_angle_beta     74.6272
_cell_angle_gamma    60.3577

_symmetry_Int_Tables_number  5
_chemical_formula_structural  Hf2N2O
_chemical_formula_sum  Hf8N8O4
_cell_volume  252.24859107061872
_cell_formula_units_Z  4
loop_
  _symmetry_equiv_pos_site_id
 _symmetry_equiv_pos_as_xyz
 1  'x, y, z'
loop_
 _atom_site_type_symbol
 _atom_site_label
 _atom_site_symmetry_multiplicity
 _atom_site_fract_x
 _atom_site_fract_y
 _atom_site_fract_z
 _atom_site_fract_occupancy
 Hf  Hf1  1  0.41774  0.43846  0.71392  1
 Hf  Hf2  1  0.90750  0.95657  0.21199  1
 Hf  Hf3  1  0.32663  0.29420  0.03610  1
 Hf  Hf4  1  0.17048  0.16467  0.46386  1
 Hf  Hf5  1  0.82072  0.81224  0.53418  1
 Hf  Hf6  1  0.04959  0.08603  0.78424  1
 Hf  Hf7  1  0.67908  0.67246  0.96308  1
 Hf  Hf8  1  0.56520  0.57828  0.28502  1
 N  N1  1  0.13673  0.82863  0.61917  1
 N  N2  1  0.83513  0.42206  0.62892  1
 N  N3  1  0.88328  0.17419  0.36702  1
 N  N4  1  0.67506  0.07655  0.88107  1
 N  N5  1  0.58758  0.86883  0.37487  1
 N  N6  1  0.08184  0.38190  0.87322  1
 N  N7  1  0.62421  0.33398  0.12107  1
 N  N8  1  0.32984  0.91678  0.12703  1
 O  O1  1  0.44464  0.12534  0.62405  1
 O  O2  1  0.93430  0.62538  0.12404  1
 O  O3  1  0.38227  0.69060  0.86512  1
 O  O4  1  0.18860  0.56011  0.38299  1
