CIF file written using JARVIS-Tools package.
data_HC2
_symmetry_space_group_name_H-M  'C2/m'
_cell_length_a       2.46118
_cell_length_b       3.481
_cell_length_c       6.14064
_cell_angle_alpha    92.9149
_cell_angle_beta     101.56
_cell_angle_gamma    90

_symmetry_Int_Tables_number  12
_chemical_formula_structural  HC2
_chemical_formula_sum  H2C4
_cell_volume  51.472409003642554
_cell_formula_units_Z  2
loop_
  _symmetry_equiv_pos_site_id
 _symmetry_equiv_pos_as_xyz
 1  'x, y, z'
loop_
 _atom_site_type_symbol
 _atom_site_label
 _atom_site_symmetry_multiplicity
 _atom_site_fract_x
 _atom_site_fract_y
 _atom_site_fract_z
 _atom_site_fract_occupancy
 C  C1  1  0.40845  0.57604  0.11529  1
 C  C2  1  0.29317  0.42396  0.88471  1
 C  C3  1  0.96199  0.64666  0.22236  1
 C  C4  1  0.73963  0.35334  0.77764  1
 H  H1  1  0.04854  0.75983  0.39545  1
 H  H2  1  0.65308  0.24017  0.60455  1
