CIF file written using JARVIS-Tools package.
data_Mg6GaW
_symmetry_space_group_name_H-M  'Amm2'
_cell_length_a       6.11005
_cell_length_b       6.11005
_cell_length_c       4.81391
_cell_angle_alpha    90
_cell_angle_beta     90
_cell_angle_gamma    119.917

_symmetry_Int_Tables_number  38
_chemical_formula_structural  Mg6GaW
_chemical_formula_sum  Mg6GaW
_cell_volume  155.76826874220654
_cell_formula_units_Z  1
loop_
  _symmetry_equiv_pos_site_id
 _symmetry_equiv_pos_as_xyz
 1  'x, y, z'
loop_
 _atom_site_type_symbol
 _atom_site_label
 _atom_site_symmetry_multiplicity
 _atom_site_fract_x
 _atom_site_fract_y
 _atom_site_fract_z
 _atom_site_fract_occupancy
 Ga  Ga1  1  0.31140  0.18860  0.75000  1
 Mg  Mg1  1  0.17176  0.83345  0.25000  1
 Mg  Mg2  1  0.66655  0.32824  0.25000  1
 Mg  Mg3  1  0.66844  0.83156  0.25000  1
 Mg  Mg4  1  0.32651  0.65110  0.75000  1
 Mg  Mg5  1  0.84890  0.17349  0.75000  1
 Mg  Mg6  1  0.83315  0.66685  0.75000  1
 W  W1  1  0.17330  0.32670  0.25000  1
