data_image0
_chemical_formula_structural       Be12Ca12F8Li8O48Si12
_chemical_formula_sum              "Be12 Ca12 F8 Li8 O48 Si12"
_cell_length_a       10.931
_cell_length_b       10.931
_cell_length_c       10.931
_cell_angle_alpha    109.471
_cell_angle_beta     109.471
_cell_angle_gamma    109.471

_space_group_name_H-M_alt    "P 1"
_space_group_IT_number       1

loop_
  _space_group_symop_operation_xyz
  'x, y, z'

loop_
  _atom_site_type_symbol
  _atom_site_label
  _atom_site_symmetry_multiplicity
  _atom_site_fract_x
  _atom_site_fract_y
  _atom_site_fract_z
  _atom_site_occupancy
  Be  Be1       1.0  0.42400  0.46500  0.69900  1.0000
  Be  Be2       1.0  0.26600  0.72500  0.80100  1.0000
  Be  Be3       1.0  0.07590  0.77500  0.04120  1.0000
  Be  Be4       1.0  0.23400  0.03470  0.45900  1.0000
  Be  Be5       1.0  0.69900  0.42400  0.46500  1.0000
  Be  Be6       1.0  0.46500  0.69900  0.42400  1.0000
  Be  Be7       1.0  0.45900  0.23400  0.03470  1.0000
  Be  Be8       1.0  0.72500  0.80100  0.26600  1.0000
  Be  Be9       1.0  0.80100  0.26600  0.72500  1.0000
  Be  Be10      1.0  0.77500  0.04120  0.07590  1.0000
  Be  Be11      1.0  0.04120  0.07590  0.77500  1.0000
  Be  Be12      1.0  0.03470  0.45900  0.23400  1.0000
  Ca  Ca1       1.0  0.59300  0.84300  0.75000  1.0000
  Ca  Ca2       1.0  0.90700  0.65700  0.25000  1.0000
  Ca  Ca3       1.0  0.75000  0.59300  0.84300  1.0000
  Ca  Ca4       1.0  0.84300  0.75000  0.59300  1.0000
  Ca  Ca5       1.0  0.25000  0.90700  0.65700  1.0000
  Ca  Ca6       1.0  0.65700  0.25000  0.90700  1.0000
  Ca  Ca7       1.0  0.25000  0.33600  0.08630  1.0000
  Ca  Ca8       1.0  0.75000  0.16400  0.41400  1.0000
  Ca  Ca9       1.0  0.08630  0.25000  0.33600  1.0000
  Ca  Ca10      1.0  0.33600  0.08630  0.25000  1.0000
  Ca  Ca11      1.0  0.41400  0.75000  0.16400  1.0000
  Ca  Ca12      1.0  0.16400  0.41400  0.75000  1.0000
  F   F1        1.0  0.78800  0.78800  0.78800  1.0000
  F   F2        1.0  0.50000  0.00000  0.71200  1.0000
  F   F3        1.0  0.71200  0.50000  0.00000  1.0000
  F   F4        1.0  0.00000  0.71200  0.50000  1.0000
  F   F5        1.0  0.28900  0.28900  0.28900  1.0000
  F   F6        1.0  0.50000  0.00000  0.21100  1.0000
  F   F7        1.0  0.21100  0.50000  0.00000  1.0000
  F   F8        1.0  0.00000  0.21100  0.50000  1.0000
  Li  Li1       1.0  0.95400  0.95400  0.95400  1.0000
  Li  Li2       1.0  0.50000  0.00000  0.54600  1.0000
  Li  Li3       1.0  0.54600  0.50000  0.00000  1.0000
  Li  Li4       1.0  0.00000  0.54600  0.50000  1.0000
  Li  Li5       1.0  0.45800  0.45800  0.45800  1.0000
  Li  Li6       1.0  0.50000  0.00000  0.04220  1.0000
  Li  Li7       1.0  0.04220  0.50000  0.00000  1.0000
  Li  Li8       1.0  0.00000  0.04220  0.50000  1.0000
  O   O1        1.0  0.64200  0.81900  0.55100  1.0000
  O   O2        1.0  0.76800  0.09100  0.94900  1.0000
  O   O3        1.0  0.85800  0.40900  0.17700  1.0000
  O   O4        1.0  0.73200  0.68100  0.32300  1.0000
  O   O5        1.0  0.55100  0.64200  0.81900  1.0000
  O   O6        1.0  0.81900  0.55100  0.64200  1.0000
  O   O7        1.0  0.32300  0.73200  0.68100  1.0000
  O   O8        1.0  0.09100  0.94900  0.76800  1.0000
  O   O9        1.0  0.94900  0.76800  0.09100  1.0000
  O   O10       1.0  0.40900  0.17700  0.85800  1.0000
  O   O11       1.0  0.17700  0.85800  0.40900  1.0000
  O   O12       1.0  0.68100  0.32300  0.73200  1.0000
  O   O13       1.0  0.41000  0.61400  0.50300  1.0000
  O   O14       1.0  0.61000  0.90700  0.99700  1.0000
  O   O15       1.0  0.09010  0.59300  0.20400  1.0000
  O   O16       1.0  0.89000  0.88600  0.29600  1.0000
  O   O17       1.0  0.50300  0.41000  0.61400  1.0000
  O   O18       1.0  0.61400  0.50300  0.41000  1.0000
  O   O19       1.0  0.29600  0.89000  0.88600  1.0000
  O   O20       1.0  0.90700  0.99700  0.61000  1.0000
  O   O21       1.0  0.99700  0.61000  0.90700  1.0000
  O   O22       1.0  0.59300  0.20400  0.09010  1.0000
  O   O23       1.0  0.20400  0.09010  0.59300  1.0000
  O   O24       1.0  0.88600  0.29600  0.89000  1.0000
  O   O25       1.0  0.59000  0.26900  0.44700  1.0000
  O   O26       1.0  0.32200  0.14400  0.05340  1.0000
  O   O27       1.0  0.91000  0.35600  0.67900  1.0000
  O   O28       1.0  0.17800  0.23100  0.82100  1.0000
  O   O29       1.0  0.44700  0.59000  0.26900  1.0000
  O   O30       1.0  0.26900  0.44700  0.59000  1.0000
  O   O31       1.0  0.82100  0.17800  0.23100  1.0000
  O   O32       1.0  0.14400  0.05340  0.32200  1.0000
  O   O33       1.0  0.05340  0.32200  0.14400  1.0000
  O   O34       1.0  0.35600  0.67900  0.91000  1.0000
  O   O35       1.0  0.67900  0.91000  0.35600  1.0000
  O   O36       1.0  0.23100  0.82100  0.17800  1.0000
  O   O37       1.0  0.40600  0.11000  0.49900  1.0000
  O   O38       1.0  0.11100  0.90700  0.00084  1.0000
  O   O39       1.0  0.09430  0.59300  0.70400  1.0000
  O   O40       1.0  0.38900  0.39000  0.79600  1.0000
  O   O41       1.0  0.49900  0.40600  0.11000  1.0000
  O   O42       1.0  0.11000  0.49900  0.40600  1.0000
  O   O43       1.0  0.79600  0.38900  0.39000  1.0000
  O   O44       1.0  0.90700  0.00084  0.11100  1.0000
  O   O45       1.0  0.00084  0.11100  0.90700  1.0000
  O   O46       1.0  0.59300  0.70400  0.09430  1.0000
  O   O47       1.0  0.70400  0.09430  0.59300  1.0000
  O   O48       1.0  0.39000  0.79600  0.38900  1.0000
  Si  Si1       1.0  0.57600  0.54400  0.27800  1.0000
  Si  Si2       1.0  0.76700  0.29800  0.22200  1.0000
  Si  Si3       1.0  0.92400  0.20200  0.96800  1.0000
  Si  Si4       1.0  0.73300  0.95600  0.53200  1.0000
  Si  Si5       1.0  0.27800  0.57600  0.54400  1.0000
  Si  Si6       1.0  0.54400  0.27800  0.57600  1.0000
  Si  Si7       1.0  0.53200  0.73300  0.95600  1.0000
  Si  Si8       1.0  0.29800  0.22200  0.76700  1.0000
  Si  Si9       1.0  0.22200  0.76700  0.29800  1.0000
  Si  Si10      1.0  0.20200  0.96800  0.92400  1.0000
  Si  Si11      1.0  0.96800  0.92400  0.20200  1.0000
  Si  Si12      1.0  0.95600  0.53200  0.73300  1.0000
