CIF file written using JARVIS-Tools package.
data_CaMg6Sn
_symmetry_space_group_name_H-M  'Amm2'
_cell_length_a       6.72567
_cell_length_b       6.72567
_cell_length_c       5.10222
_cell_angle_alpha    90
_cell_angle_beta     90
_cell_angle_gamma    121.21

_symmetry_Int_Tables_number  38
_chemical_formula_structural  CaMg6Sn
_chemical_formula_sum  CaMg6Sn
_cell_volume  197.39575890722227
_cell_formula_units_Z  1
loop_
  _symmetry_equiv_pos_site_id
 _symmetry_equiv_pos_as_xyz
 1  'x, y, z'
loop_
 _atom_site_type_symbol
 _atom_site_label
 _atom_site_symmetry_multiplicity
 _atom_site_fract_x
 _atom_site_fract_y
 _atom_site_fract_z
 _atom_site_fract_occupancy
 Ca  Ca1  1  0.18005  0.31995  0.25000  1
 Mg  Mg1  1  0.16461  0.81526  0.25000  1
 Mg  Mg2  1  0.68474  0.33539  0.25000  1
 Mg  Mg3  1  0.65983  0.84017  0.25000  1
 Mg  Mg4  1  0.33234  0.68200  0.75000  1
 Mg  Mg5  1  0.81800  0.16766  0.75000  1
 Mg  Mg6  1  0.82059  0.67941  0.75000  1
 Sn  Sn1  1  0.33984  0.16016  0.75000  1
