CIF file written using JARVIS-Tools package.
data_P2WO7
_symmetry_space_group_name_H-M  'P2_1'
_cell_length_a       4.96832
_cell_length_b       8.28292
_cell_length_c       7.06844
_cell_angle_alpha    90
_cell_angle_beta     107.492
_cell_angle_gamma    90

_symmetry_Int_Tables_number  4
_chemical_formula_structural  P2WO7
_chemical_formula_sum  P4W2O4
_cell_volume  277.43032290245884
_cell_formula_units_Z  2
loop_
  _symmetry_equiv_pos_site_id
 _symmetry_equiv_pos_as_xyz
 1  'x, y, z'
loop_
 _atom_site_type_symbol
 _atom_site_label
 _atom_site_symmetry_multiplicity
 _atom_site_fract_x
 _atom_site_fract_y
 _atom_site_fract_z
 _atom_site_fract_occupancy
 O  O1  1  0.28474  0.38436  0.50927  1
 O  O2  1  0.97798  0.92270  0.17220  1
 O  O3  1  0.86868  0.57796  0.08147  1
 O  O4  1  0.41550  0.83221  0.08813  1
 O  O5  1  0.13132  0.07796  0.91853  1
 O  O6  1  0.57319  0.56857  0.36695  1
 O  O7  1  0.41419  0.09775  0.27164  1
 O  O8  1  0.84297  0.18276  0.53412  1
 O  O9  1  0.15703  0.68276  0.46588  1
 O  O10  1  0.02202  0.42270  0.82780  1
 O  O11  1  0.42681  0.06857  0.63305  1
 O  O12  1  0.58581  0.59775  0.72836  1
 O  O13  1  0.58450  0.33221  0.91187  1
 O  O14  1  0.71526  0.88436  0.49073  1
 P  P1  1  0.77213  0.47647  0.89614  1
 P  P2  1  0.39129  0.55652  0.50733  1
 P  P3  1  0.60871  0.05652  0.49267  1
 P  P4  1  0.22787  0.97647  0.10386  1
 W  W1  1  0.21682  0.24267  0.72770  1
 W  W2  1  0.78318  0.74267  0.27230  1
