CIF file written using JARVIS-Tools package.
data_LiInSi2O6
_symmetry_space_group_name_H-M  'C2/c'
_cell_length_a       5.43788
_cell_length_b       6.74047
_cell_length_c       6.74048
_cell_angle_alpha    85.7878
_cell_angle_beta     75.0557
_cell_angle_gamma    75.0558

_symmetry_Int_Tables_number  15
_chemical_formula_structural  LiInSi2O6
_chemical_formula_sum  Li2In2Si4O2
_cell_volume  230.62808675115957
_cell_formula_units_Z  2
loop_
  _symmetry_equiv_pos_site_id
 _symmetry_equiv_pos_as_xyz
 1  'x, y, z'
loop_
 _atom_site_type_symbol
 _atom_site_label
 _atom_site_symmetry_multiplicity
 _atom_site_fract_x
 _atom_site_fract_y
 _atom_site_fract_z
 _atom_site_fract_occupancy
 In  In1  1  0.75000  0.89108  0.10892  1
 In  In2  1  0.25000  0.10892  0.89108  1
 Li  Li1  1  0.75000  0.23865  0.76135  1
 Li  Li2  1  0.25000  0.76135  0.23865  1
 O  O1  1  0.37523  0.38247  0.86853  1
 O  O2  1  0.62477  0.61753  0.13147  1
 O  O3  1  0.87523  0.86853  0.38247  1
 O  O4  1  0.33539  0.04044  0.20627  1
 O  O5  1  0.95741  0.37687  0.33206  1
 O  O6  1  0.83539  0.20627  0.04044  1
 O  O7  1  0.12477  0.13147  0.61753  1
 O  O8  1  0.54259  0.66794  0.62313  1
 O  O9  1  0.45741  0.33206  0.37687  1
 O  O10  1  0.04259  0.62313  0.66794  1
 O  O11  1  0.16461  0.79373  0.95956  1
 O  O12  1  0.66461  0.95956  0.79373  1
 Si  Si1  1  0.71831  0.38816  0.21863  1
 Si  Si2  1  0.28169  0.61184  0.78137  1
 Si  Si3  1  0.21831  0.21863  0.38816  1
 Si  Si4  1  0.78169  0.78137  0.61184  1
