CIF file written using JARVIS-Tools package.
data_Tb2AlCo2
_symmetry_space_group_name_H-M  'Immm'
_cell_length_a       4.0219
_cell_length_b       5.39455
_cell_length_c       5.39455
_cell_angle_alpha    60.8256
_cell_angle_beta     68.1132
_cell_angle_gamma    68.1133

_symmetry_Int_Tables_number  71
_chemical_formula_structural  Tb2AlCo2
_chemical_formula_sum  Tb2AlCo2
_cell_volume  92.15409287986465
_cell_formula_units_Z  1
loop_
  _symmetry_equiv_pos_site_id
 _symmetry_equiv_pos_as_xyz
 1  'x, y, z'
loop_
 _atom_site_type_symbol
 _atom_site_label
 _atom_site_symmetry_multiplicity
 _atom_site_fract_x
 _atom_site_fract_y
 _atom_site_fract_z
 _atom_site_fract_occupancy
 Al  Al1  1  0.00000  0.00000  0.00000  1
 Co  Co1  1  0.50000  0.28000  0.72000  1
 Co  Co2  1  0.50000  0.72000  0.28000  1
 Tb  Tb1  1  0.20433  0.29567  0.29567  1
 Tb  Tb2  1  0.79567  0.70433  0.70433  1
