CIF file written using JARVIS-Tools package.
data_CrF5
_symmetry_space_group_name_H-M  'Immm'
_cell_length_a       2.98219
_cell_length_b       5.45931
_cell_length_c       5.45932
_cell_angle_alpha    75.92
_cell_angle_beta     74.1496
_cell_angle_gamma    74.1494

_symmetry_Int_Tables_number  71
_chemical_formula_structural  CrF5
_chemical_formula_sum  CrF5
_cell_volume  80.87332065887445
_cell_formula_units_Z  1
loop_
  _symmetry_equiv_pos_site_id
 _symmetry_equiv_pos_as_xyz
 1  'x, y, z'
loop_
 _atom_site_type_symbol
 _atom_site_label
 _atom_site_symmetry_multiplicity
 _atom_site_fract_x
 _atom_site_fract_y
 _atom_site_fract_z
 _atom_site_fract_occupancy
 Cr  Cr1  1  0.00000  0.00000  0.00000  1
 F  F1  1  0.50000  0.82161  0.17839  1
 F  F2  1  0.50000  0.17839  0.82161  1
 F  F3  1  0.78506  0.21494  0.21494  1
 F  F4  1  0.21494  0.78506  0.78506  1
 F  F5  1  -0.00000  0.50000  0.50000  1
