CIF file written using JARVIS-Tools package.
data_Th2Al
_symmetry_space_group_name_H-M  'I4/mcm'
_cell_length_a       5.80972
_cell_length_b       6.16692
_cell_length_c       6.16692
_cell_angle_alpha    77.1807
_cell_angle_beta     61.8983
_cell_angle_gamma    61.8982

_symmetry_Int_Tables_number  140
_chemical_formula_structural  Th2Al
_chemical_formula_sum  Th4Al2
_cell_volume  171.92545683685702
_cell_formula_units_Z  2
loop_
  _symmetry_equiv_pos_site_id
 _symmetry_equiv_pos_as_xyz
 1  'x, y, z'
loop_
 _atom_site_type_symbol
 _atom_site_label
 _atom_site_symmetry_multiplicity
 _atom_site_fract_x
 _atom_site_fract_y
 _atom_site_fract_z
 _atom_site_fract_occupancy
 Al  Al1  1  0.25000  0.00000  0.00000  1
 Al  Al2  1  0.75000  0.00000  -0.00000  1
 Th  Th1  1  0.15815  0.50000  0.18370  1
 Th  Th2  1  0.34185  0.81630  0.50000  1
 Th  Th3  1  0.65815  0.18370  0.50000  1
 Th  Th4  1  0.84185  0.50000  0.81630  1
