CIF file written using JARVIS-Tools package.
data_Ce3Ag4Sn4
_symmetry_space_group_name_H-M  'Immm'
_cell_length_a       4.69925
_cell_length_b       7.35549
_cell_length_c       8.89264
_cell_angle_alpha    114.429
_cell_angle_beta     105.323
_cell_angle_gamma    89.9993

_symmetry_Int_Tables_number  71
_chemical_formula_structural  Ce3Ag4Sn4
_chemical_formula_sum  Ce3Ag4Sn4
_cell_volume  267.81168839707493
_cell_formula_units_Z  1
loop_
  _symmetry_equiv_pos_site_id
 _symmetry_equiv_pos_as_xyz
 1  'x, y, z'
loop_
 _atom_site_type_symbol
 _atom_site_label
 _atom_site_symmetry_multiplicity
 _atom_site_fract_x
 _atom_site_fract_y
 _atom_site_fract_z
 _atom_site_fract_occupancy
 Ag  Ag1  1  0.32990  0.52526  0.65987  1
 Ag  Ag2  1  0.67010  0.47474  0.34013  1
 Ag  Ag3  1  0.67025  0.86561  0.34041  1
 Ag  Ag4  1  0.32975  0.13439  0.65959  1
 Ce  Ce1  1  -0.00000  0.50000  -0.00000  1
 Ce  Ce2  1  0.12892  0.12900  0.25784  1
 Ce  Ce3  1  0.87108  0.87100  0.74216  1
 Sn  Sn1  1  0.21446  0.71431  0.42887  1
 Sn  Sn2  1  0.78554  0.28569  0.57113  1
 Sn  Sn3  1  0.49997  0.19711  0.99988  1
 Sn  Sn4  1  0.50003  0.80289  0.00012  1
