CIF file written using JARVIS-Tools package.
data_Ba2NiN2
_symmetry_space_group_name_H-M  'I4/mmm'
_cell_length_a       4.11416
_cell_length_b       4.11424
_cell_length_c       7.04135
_cell_angle_alpha    106.987
_cell_angle_beta     106.986
_cell_angle_gamma    90.0001

_symmetry_Int_Tables_number  139
_chemical_formula_structural  Ba2NiN2
_chemical_formula_sum  Ba2NiN2
_cell_volume  108.53839306689811
_cell_formula_units_Z  1
loop_
  _symmetry_equiv_pos_site_id
 _symmetry_equiv_pos_as_xyz
 1  'x, y, z'
loop_
 _atom_site_type_symbol
 _atom_site_label
 _atom_site_symmetry_multiplicity
 _atom_site_fract_x
 _atom_site_fract_y
 _atom_site_fract_z
 _atom_site_fract_occupancy
 Ba  Ba1  1  0.85504  0.85504  0.21008  1
 Ba  Ba2  1  0.14496  0.14496  0.78992  1
 N  N1  1  0.36279  0.36279  0.22559  1
 N  N2  1  0.63721  0.63721  0.77441  1
 Ni  Ni1  1  0.50000  0.50000  0.50000  1
