CIF file written using JARVIS-Tools package.
data_CeAl2Ge2
_symmetry_space_group_name_H-M  'P-3m1'
_cell_length_a       4.2953
_cell_length_b       4.29513
_cell_length_c       6.84481
_cell_angle_alpha    90
_cell_angle_beta     90.0003
_cell_angle_gamma    119.999

_symmetry_Int_Tables_number  164
_chemical_formula_structural  CeAl2Ge2
_chemical_formula_sum  CeAl2Ge2
_cell_volume  109.36228469601042
_cell_formula_units_Z  1
loop_
  _symmetry_equiv_pos_site_id
 _symmetry_equiv_pos_as_xyz
 1  'x, y, z'
loop_
 _atom_site_type_symbol
 _atom_site_label
 _atom_site_symmetry_multiplicity
 _atom_site_fract_x
 _atom_site_fract_y
 _atom_site_fract_z
 _atom_site_fract_occupancy
 Al  Al1  1  0.33335  0.66667  0.64349  1
 Al  Al2  1  0.66665  0.33333  0.35651  1
 Ce  Ce1  1  0.00000  0.00000  0.00000  1
 Ge  Ge1  1  0.33332  0.66666  0.26437  1
 Ge  Ge2  1  0.66668  0.33334  0.73563  1
