CIF file written using JARVIS-Tools package.
data_NaB3H4O7
_symmetry_space_group_name_H-M  'C2/c'
_cell_length_a       10.4162
_cell_length_b       10.4162
_cell_length_c       6.23024
_cell_angle_alpha    77.4892
_cell_angle_beta     102.511
_cell_angle_gamma    123.348

_symmetry_Int_Tables_number  15
_chemical_formula_structural  NaB3H4O7
_chemical_formula_sum  Na4B2H6O28
_cell_volume  547.3034441291392
_cell_formula_units_Z  4
loop_
  _symmetry_equiv_pos_site_id
 _symmetry_equiv_pos_as_xyz
 1  'x, y, z'
loop_
 _atom_site_type_symbol
 _atom_site_label
 _atom_site_symmetry_multiplicity
 _atom_site_fract_x
 _atom_site_fract_y
 _atom_site_fract_z
 _atom_site_fract_occupancy
 B  B1  1  0.48945  0.17060  0.55490  1
 B  B2  1  0.19766  0.00456  0.50206  1
 B  B3  1  0.17060  0.48945  0.94510  1
 B  B4  1  0.82940  0.51055  0.05490  1
 B  B5  1  0.51055  0.82940  0.44510  1
 B  B6  1  0.00456  0.19766  0.99794  1
 B  B7  1  0.99544  0.80234  0.00206  1
 B  B8  1  0.80234  0.99544  0.49794  1
 B  B9  1  0.32433  0.28281  0.51574  1
 B  B10  1  0.71719  0.67567  0.01574  1
 B  B11  1  0.67567  0.71719  0.48426  1
 B  B12  1  0.28281  0.32433  0.98426  1
 H  H1  1  0.36598  0.86916  0.55262  1
 H  H2  1  0.96898  0.86839  0.47349  1
 H  H3  1  0.13084  0.63402  0.05262  1
 H  H4  1  0.75787  0.36499  0.33487  1
 H  H5  1  0.63501  0.24213  0.83487  1
 H  H6  1  0.86916  0.36598  0.94738  1
 H  H7  1  0.86839  0.96898  0.02651  1
 H  H8  1  0.38549  0.50766  0.49818  1
 H  H9  1  0.03102  0.13161  0.52651  1
 H  H10  1  0.63402  0.13084  0.44738  1
 H  H11  1  0.24213  0.63501  0.66513  1
 H  H12  1  0.49234  0.61451  0.99818  1
 H  H13  1  0.50766  0.38549  0.00182  1
 H  H14  1  0.36499  0.75787  0.16513  1
 H  H15  1  0.13161  0.03102  0.97349  1
 H  H16  1  0.61451  0.49234  0.50182  1
 Na  Na1  1  0.93669  0.59098  0.59955  1
 Na  Na2  1  0.06331  0.40902  0.40045  1
 Na  Na3  1  0.59098  0.93669  0.90045  1
 Na  Na4  1  0.40902  0.06331  0.09955  1
 O  O1  1  0.86375  0.06329  0.01984  1
 O  O2  1  0.69601  0.53488  0.01478  1
 O  O3  1  0.39754  0.29595  0.99451  1
 O  O4  1  0.29595  0.39754  0.50549  1
 O  O5  1  0.60246  0.70405  0.00549  1
 O  O6  1  0.70405  0.60246  0.49451  1
 O  O7  1  0.14257  0.54173  0.71330  1
 O  O8  1  0.54173  0.14257  0.78670  1
 O  O9  1  0.85743  0.45827  0.28670  1
 O  O10  1  0.45827  0.85743  0.21330  1
 O  O11  1  0.20266  0.59561  0.09747  1
 O  O12  1  0.79734  0.40439  0.90253  1
 O  O13  1  0.40439  0.79734  0.59747  1
 O  O14  1  0.06329  0.86375  0.48016  1
 O  O15  1  0.02422  0.33716  0.00143  1
 O  O16  1  0.46512  0.30399  0.51478  1
 O  O17  1  0.30399  0.46512  0.98522  1
 O  O18  1  0.66284  0.97578  0.50143  1
 O  O19  1  0.13625  0.93671  0.98016  1
 O  O20  1  0.33716  0.02422  0.49857  1
 O  O21  1  0.97578  0.66284  0.99857  1
 O  O22  1  0.80933  0.86708  0.48229  1
 O  O23  1  0.86708  0.80933  0.01771  1
 O  O24  1  0.19067  0.13292  0.51771  1
 O  O25  1  0.13292  0.19067  0.98229  1
 O  O26  1  0.93671  0.13625  0.51984  1
 O  O27  1  0.59561  0.20266  0.40253  1
 O  O28  1  0.53488  0.69601  0.48522  1
