CIF file written using JARVIS-Tools package.
data_NpH16C4N8ClO6
_symmetry_space_group_name_H-M  'C2/c'
_cell_length_a       7.9105
_cell_length_b       7.9105
_cell_length_c       11.469
_cell_angle_alpha    82.6273
_cell_angle_beta     97.3727
_cell_angle_gamma    80.2448

_symmetry_Int_Tables_number  15
_chemical_formula_structural  NpH16C4N8ClO6
_chemical_formula_sum  Np2H32C8N6Cl2O2
_cell_volume  693.1413480821801
_cell_formula_units_Z  2
loop_
  _symmetry_equiv_pos_site_id
 _symmetry_equiv_pos_as_xyz
 1  'x, y, z'
loop_
 _atom_site_type_symbol
 _atom_site_label
 _atom_site_symmetry_multiplicity
 _atom_site_fract_x
 _atom_site_fract_y
 _atom_site_fract_z
 _atom_site_fract_occupancy
 C  C1  1  0.58580  0.73635  0.50495  1
 C  C2  1  0.08580  0.84619  0.67270  1
 C  C3  1  0.15381  0.91420  0.17270  1
 C  C4  1  0.84619  0.08580  0.82730  1
 C  C5  1  0.91420  0.15381  0.32730  1
 C  C6  1  0.73635  0.58580  0.99505  1
 C  C7  1  0.41420  0.26365  0.49505  1
 C  C8  1  0.26365  0.41420  0.00495  1
 Cl  Cl1  1  0.45266  0.45266  0.75000  1
 Cl  Cl2  1  0.54734  0.54734  0.25000  1
 H  H1  1  0.00737  0.63573  0.60629  1
 H  H2  1  0.17174  0.82416  0.34942  1
 H  H3  1  0.11586  0.63752  0.80921  1
 H  H4  1  0.02159  0.16754  0.49522  1
 H  H5  1  0.16754  0.02159  0.00478  1
 H  H6  1  0.36427  0.99263  0.10629  1
 H  H7  1  0.99263  0.36427  0.39371  1
 H  H8  1  0.63573  0.00737  0.89371  1
 H  H9  1  0.88414  0.36248  0.19079  1
 H  H10  1  0.97841  0.83246  0.50478  1
 H  H11  1  0.36248  0.88414  0.30921  1
 H  H12  1  0.83246  0.97841  0.99522  1
 H  H13  1  0.82826  0.17584  0.65058  1
 H  H14  1  0.59034  0.07750  0.44120  1
 H  H15  1  0.71009  0.43461  0.86404  1
 H  H16  1  0.17584  0.82826  0.84942  1
 H  H17  1  0.28991  0.56539  0.13596  1
 H  H18  1  0.56539  0.28991  0.36404  1
 H  H19  1  0.53070  0.77468  0.00711  1
 H  H20  1  0.77468  0.53070  0.49289  1
 H  H21  1  0.46930  0.22532  0.99289  1
 H  H22  1  0.22532  0.46930  0.50711  1
 H  H23  1  0.43461  0.71009  0.63596  1
 H  H24  1  0.65599  0.49808  0.61149  1
 H  H25  1  0.50192  0.34401  0.11149  1
 H  H26  1  0.34401  0.50192  0.38851  1
 H  H27  1  0.07750  0.59034  0.05880  1
 H  H28  1  0.40966  0.92250  0.55880  1
 H  H29  1  0.92250  0.40966  0.94120  1
 H  H30  1  0.63752  0.11586  0.69079  1
 H  H31  1  0.82416  0.17174  0.15058  1
 H  H32  1  0.49808  0.65599  0.88851  1
 N  N1  1  0.87612  0.23521  0.21381  1
 N  N2  1  0.76479  0.12388  0.71381  1
 N  N3  1  0.12388  0.76479  0.78619  1
 N  N4  1  0.23764  0.97756  0.08776  1
 N  N5  1  0.97756  0.23764  0.41224  1
 N  N6  1  0.76236  0.02244  0.91224  1
 N  N7  1  0.67966  0.57567  0.53947  1
 N  N8  1  0.54336  0.20810  0.43495  1
 N  N9  1  0.45664  0.79190  0.56505  1
 N  N10  1  0.20810  0.54336  0.06505  1
 N  N11  1  0.57567  0.67966  0.96053  1
 N  N12  1  0.42433  0.32034  0.03947  1
 N  N13  1  0.32034  0.42433  0.46053  1
 N  N14  1  0.23521  0.87612  0.28619  1
 N  N15  1  0.79190  0.45664  0.93495  1
 N  N16  1  0.02244  0.76236  0.58776  1
 Np  Np1  1  0.78191  0.78191  0.25000  1
 Np  Np2  1  0.21809  0.21809  0.75000  1
 O  O1  1  0.61447  0.83595  0.41492  1
 O  O2  1  0.83595  0.61447  0.08508  1
 O  O3  1  0.10958  0.00181  0.64495  1
 O  O4  1  0.00181  0.10958  0.85505  1
 O  O5  1  0.89042  0.99819  0.35505  1
 O  O6  1  0.94924  0.61541  0.35317  1
 O  O7  1  0.38459  0.05076  0.85317  1
 O  O8  1  0.05076  0.38459  0.64683  1
 O  O9  1  0.61541  0.94924  0.14683  1
 O  O10  1  0.16405  0.38553  0.91492  1
 O  O11  1  0.99819  0.89042  0.14495  1
 O  O12  1  0.38553  0.16405  0.58508  1
