CIF file written using JARVIS-Tools package.
data_NaCa4B3O9
_symmetry_space_group_name_H-M  'Ama2'
_cell_length_a       6.48698
_cell_length_b       6.48265
_cell_length_c       10.7278
_cell_angle_alpha    90
_cell_angle_beta     90
_cell_angle_gamma    120.022

_symmetry_Int_Tables_number  40
_chemical_formula_structural  NaCa4B3O9
_chemical_formula_sum  Na2Ca8B6O8
_cell_volume  390.6073342560302
_cell_formula_units_Z  2
loop_
  _symmetry_equiv_pos_site_id
 _symmetry_equiv_pos_as_xyz
 1  'x, y, z'
loop_
 _atom_site_type_symbol
 _atom_site_label
 _atom_site_symmetry_multiplicity
 _atom_site_fract_x
 _atom_site_fract_y
 _atom_site_fract_z
 _atom_site_fract_occupancy
 B  B1  1  0.70127  0.65883  0.25000  1
 B  B2  1  0.29470  -0.00000  0.50000  1
 B  B3  1  0.60757  0.75661  0.75000  1
 B  B4  1  0.85096  0.24339  0.25000  1
 B  B5  1  0.04244  0.34117  0.75000  1
 B  B6  1  0.29470  -0.00000  0.00000  1
 Ca  Ca1  1  0.71975  -0.00000  0.00000  1
 Ca  Ca2  1  0.29398  0.70005  0.25000  1
 Ca  Ca3  1  0.59393  0.29995  0.75000  1
 Ca  Ca4  1  0.86369  0.57118  0.02762  1
 Ca  Ca5  1  0.71975  -0.00000  0.50000  1
 Ca  Ca6  1  0.86369  0.57118  0.47238  1
 Ca  Ca7  1  0.29251  0.42882  0.97238  1
 Ca  Ca8  1  0.29251  0.42882  0.52762  1
 Na  Na1  1  0.22862  0.15178  0.25000  1
 Na  Na2  1  0.07684  0.84822  0.75000  1
 O  O1  1  0.95465  0.37835  0.86120  1
 O  O2  1  0.29610  0.79189  0.47191  1
 O  O3  1  0.57630  0.62165  0.36120  1
 O  O4  1  0.95465  0.37835  0.63880  1
 O  O5  1  0.66334  0.67900  0.86089  1
 O  O6  1  0.50420  0.20811  0.97191  1
 O  O7  1  0.98434  0.32100  0.13911  1
 O  O8  1  0.08283  -0.00000  0.50000  1
 O  O9  1  0.93856  0.72378  0.25000  1
 O  O10  1  0.21477  0.27622  0.75000  1
 O  O11  1  0.29610  0.79189  0.02809  1
 O  O12  1  0.60941  0.09478  0.25000  1
 O  O13  1  0.57630  0.62165  0.13880  1
 O  O14  1  0.50420  0.20811  0.52809  1
 O  O15  1  0.66334  0.67900  0.63911  1
 O  O16  1  0.08283  -0.00000  0.00000  1
 O  O17  1  0.98434  0.32100  0.36089  1
 O  O18  1  0.51463  0.90522  0.75000  1
