CIF file written using JARVIS-Tools package.
data_KCdCl3
_symmetry_space_group_name_H-M  'Pnma'
_cell_length_a       4.02229
_cell_length_b       8.73552
_cell_length_c       14.5438
_cell_angle_alpha    90
_cell_angle_beta     90
_cell_angle_gamma    90

_symmetry_Int_Tables_number  62
_chemical_formula_structural  KCdCl3
_chemical_formula_sum  K4Cd4Cl2
_cell_volume  511.02150114820876
_cell_formula_units_Z  4
loop_
  _symmetry_equiv_pos_site_id
 _symmetry_equiv_pos_as_xyz
 1  'x, y, z'
loop_
 _atom_site_type_symbol
 _atom_site_label
 _atom_site_symmetry_multiplicity
 _atom_site_fract_x
 _atom_site_fract_y
 _atom_site_fract_z
 _atom_site_fract_occupancy
 Cd  Cd1  1  0.25000  0.17224  0.05682  1
 Cd  Cd2  1  0.25000  0.67224  0.44318  1
 Cd  Cd3  1  0.75000  0.32776  0.55682  1
 Cd  Cd4  1  0.75000  0.82776  0.94318  1
 Cl  Cl1  1  0.25000  0.79741  0.28590  1
 Cl  Cl2  1  0.25000  0.52347  0.60470  1
 Cl  Cl3  1  0.75000  0.97653  0.10470  1
 Cl  Cl4  1  0.25000  0.02347  0.89530  1
 Cl  Cl5  1  0.25000  0.16165  0.48968  1
 Cl  Cl6  1  0.75000  0.83835  0.51032  1
 Cl  Cl7  1  0.25000  0.66165  0.01032  1
 Cl  Cl8  1  0.75000  0.70259  0.78590  1
 Cl  Cl9  1  0.75000  0.47653  0.39530  1
 Cl  Cl10  1  0.25000  0.29741  0.21410  1
 Cl  Cl11  1  0.75000  0.20259  0.71410  1
 Cl  Cl12  1  0.75000  0.33835  0.98968  1
 K  K1  1  0.25000  0.92356  0.67669  1
 K  K2  1  0.75000  0.07644  0.32331  1
 K  K3  1  0.25000  0.42356  0.82331  1
 K  K4  1  0.75000  0.57644  0.17669  1
