CIF file written using JARVIS-Tools package.
data_SbSBr
_symmetry_space_group_name_H-M  'Pnma'
_cell_length_a       3.9825
_cell_length_b       8.32694
_cell_length_c       9.85039
_cell_angle_alpha    90
_cell_angle_beta     90
_cell_angle_gamma    90

_symmetry_Int_Tables_number  62
_chemical_formula_structural  SbSBr
_chemical_formula_sum  Sb4S4Br4
_cell_volume  326.65913668904756
_cell_formula_units_Z  4
loop_
  _symmetry_equiv_pos_site_id
 _symmetry_equiv_pos_as_xyz
 1  'x, y, z'
loop_
 _atom_site_type_symbol
 _atom_site_label
 _atom_site_symmetry_multiplicity
 _atom_site_fract_x
 _atom_site_fract_y
 _atom_site_fract_z
 _atom_site_fract_occupancy
 Br  Br1  1  0.76204  0.48660  0.17548  1
 Br  Br2  1  0.76204  0.98660  0.32452  1
 Br  Br3  1  0.26204  0.01340  0.67548  1
 Br  Br4  1  0.26204  0.51340  0.82452  1
 S  S1  1  0.76205  0.66317  0.54755  1
 S  S2  1  0.76205  0.16317  0.95245  1
 S  S3  1  0.26205  0.83683  0.04755  1
 S  S4  1  0.26205  0.33683  0.45245  1
 Sb  Sb1  1  0.26211  0.62294  0.36699  1
 Sb  Sb2  1  0.76211  0.37706  0.63301  1
 Sb  Sb3  1  0.76211  0.87706  0.86699  1
 Sb  Sb4  1  0.26211  0.12294  0.13301  1
