CIF file written using JARVIS-Tools package.
data_ThSi3Rh
_symmetry_space_group_name_H-M  'I4mm'
_cell_length_a       4.3111
_cell_length_b       4.3111
_cell_length_c       5.72351
_cell_angle_alpha    112.124
_cell_angle_beta     112.124
_cell_angle_gamma    90

_symmetry_Int_Tables_number  107
_chemical_formula_structural  ThSi3Rh
_chemical_formula_sum  ThSi3Rh
_cell_volume  90.03145928875695
_cell_formula_units_Z  1
loop_
  _symmetry_equiv_pos_site_id
 _symmetry_equiv_pos_as_xyz
 1  'x, y, z'
loop_
 _atom_site_type_symbol
 _atom_site_label
 _atom_site_symmetry_multiplicity
 _atom_site_fract_x
 _atom_site_fract_y
 _atom_site_fract_z
 _atom_site_fract_occupancy
 Rh  Rh1  1  0.65574  0.65574  0.31149  1
 Si  Si1  1  0.40995  0.40995  0.81991  1
 Si  Si2  1  0.76360  0.26360  0.52720  1
 Si  Si3  1  0.26360  0.76360  0.52720  1
 Th  Th1  1  0.00111  0.00111  0.00221  1
