CIF file written using JARVIS-Tools package.
data_Mg6SiMo
_symmetry_space_group_name_H-M  'Amm2'
_cell_length_a       6.08193
_cell_length_b       6.08193
_cell_length_c       4.76135
_cell_angle_alpha    90
_cell_angle_beta     90
_cell_angle_gamma    119.633

_symmetry_Int_Tables_number  38
_chemical_formula_structural  Mg6SiMo
_chemical_formula_sum  Mg6SiMo
_cell_volume  153.08692894469624
_cell_formula_units_Z  1
loop_
  _symmetry_equiv_pos_site_id
 _symmetry_equiv_pos_as_xyz
 1  'x, y, z'
loop_
 _atom_site_type_symbol
 _atom_site_label
 _atom_site_symmetry_multiplicity
 _atom_site_fract_x
 _atom_site_fract_y
 _atom_site_fract_z
 _atom_site_fract_occupancy
 Mg  Mg1  1  0.17208  0.84520  0.25000  1
 Mg  Mg2  1  0.65480  0.32792  0.25000  1
 Mg  Mg3  1  0.66753  0.83247  0.25000  1
 Mg  Mg4  1  0.32828  0.66559  0.75000  1
 Mg  Mg5  1  0.83441  0.17172  0.75000  1
 Mg  Mg6  1  0.83139  0.66861  0.75000  1
 Mo  Mo1  1  0.32059  0.17941  0.75000  1
 Si  Si1  1  0.19092  0.30908  0.25000  1
