CIF file written using JARVIS-Tools package.
data_Dy6MnBi2
_symmetry_space_group_name_H-M  'P-62m'
_cell_length_a       4.22187
_cell_length_b       8.27882
_cell_length_c       8.27883
_cell_angle_alpha    120
_cell_angle_beta     90
_cell_angle_gamma    90

_symmetry_Int_Tables_number  189
_chemical_formula_structural  Dy6MnBi2
_chemical_formula_sum  Dy6MnBi2
_cell_volume  250.59553896257083
_cell_formula_units_Z  1
loop_
  _symmetry_equiv_pos_site_id
 _symmetry_equiv_pos_as_xyz
 1  'x, y, z'
loop_
 _atom_site_type_symbol
 _atom_site_label
 _atom_site_symmetry_multiplicity
 _atom_site_fract_x
 _atom_site_fract_y
 _atom_site_fract_z
 _atom_site_fract_occupancy
 Bi  Bi1  1  0.50000  0.66667  0.33333  1
 Bi  Bi2  1  0.50000  0.33333  0.66667  1
 Dy  Dy1  1  0.50000  0.76765  0.76765  1
 Dy  Dy2  1  0.50000  0.00000  0.23235  1
 Dy  Dy3  1  0.50000  0.23235  0.00000  1
 Dy  Dy4  1  0.00000  0.39259  0.39259  1
 Dy  Dy5  1  0.00000  -0.00000  0.60741  1
 Dy  Dy6  1  0.00000  0.60741  -0.00000  1
 Mn  Mn1  1  0.00000  0.00000  0.00000  1
