CIF file written using JARVIS-Tools package.
data_DyP2Ru2
_symmetry_space_group_name_H-M  'I4/mmm'
_cell_length_a       4.06234
_cell_length_b       4.06234
_cell_length_c       5.58493
_cell_angle_alpha    111.327
_cell_angle_beta     111.327
_cell_angle_gamma    90

_symmetry_Int_Tables_number  139
_chemical_formula_structural  DyP2Ru2
_chemical_formula_sum  DyP2Ru2
_cell_volume  79.04071818118953
_cell_formula_units_Z  1
loop_
  _symmetry_equiv_pos_site_id
 _symmetry_equiv_pos_as_xyz
 1  'x, y, z'
loop_
 _atom_site_type_symbol
 _atom_site_label
 _atom_site_symmetry_multiplicity
 _atom_site_fract_x
 _atom_site_fract_y
 _atom_site_fract_z
 _atom_site_fract_occupancy
 Dy  Dy1  1  0.00000  0.00000  0.00000  1
 P  P1  1  0.37527  0.37527  0.75054  1
 P  P2  1  0.62473  0.62473  0.24946  1
 Ru  Ru1  1  0.75000  0.25000  0.50000  1
 Ru  Ru2  1  0.25000  0.75000  0.50000  1
