CIF file written using JARVIS-Tools package.
data_SrCaI4
_symmetry_space_group_name_H-M  'Pbcn'
_cell_length_a       7.05234
_cell_length_b       7.88129
_cell_length_c       18.549
_cell_angle_alpha    90
_cell_angle_beta     90
_cell_angle_gamma    90

_symmetry_Int_Tables_number  60
_chemical_formula_structural  SrCaI4
_chemical_formula_sum  Sr4Ca4I6
_cell_volume  1030.980680301872
_cell_formula_units_Z  4
loop_
  _symmetry_equiv_pos_site_id
 _symmetry_equiv_pos_as_xyz
 1  'x, y, z'
loop_
 _atom_site_type_symbol
 _atom_site_label
 _atom_site_symmetry_multiplicity
 _atom_site_fract_x
 _atom_site_fract_y
 _atom_site_fract_z
 _atom_site_fract_occupancy
 Ca  Ca1  1  0.00000  0.75000  0.31416  1
 Ca  Ca2  1  0.00000  0.25000  0.68584  1
 Ca  Ca3  1  0.50000  0.75000  0.81416  1
 Ca  Ca4  1  0.50000  0.25000  0.18584  1
 I  I1  1  0.24278  0.58699  0.69491  1
 I  I2  1  0.73742  0.41171  0.06136  1
 I  I3  1  0.73742  0.91171  0.93864  1
 I  I4  1  0.74278  0.91301  0.19491  1
 I  I5  1  0.26258  0.08829  0.06136  1
 I  I6  1  0.75722  0.41301  0.30509  1
 I  I7  1  0.75722  0.91301  0.69491  1
 I  I8  1  0.74278  0.41301  0.80509  1
 I  I9  1  0.76258  0.41171  0.56136  1
 I  I10  1  0.26258  0.58829  0.93864  1
 I  I11  1  0.23742  0.08829  0.56136  1
 I  I12  1  0.76258  0.91171  0.43864  1
 I  I13  1  0.24278  0.08699  0.30509  1
 I  I14  1  0.25722  0.58699  0.19491  1
 I  I15  1  0.25722  0.08699  0.80509  1
 I  I16  1  0.23742  0.58829  0.43864  1
 Sr  Sr1  1  0.50000  0.75000  0.56692  1
 Sr  Sr2  1  0.50000  0.25000  0.43308  1
 Sr  Sr3  1  0.00000  0.25000  0.93308  1
 Sr  Sr4  1  0.00000  0.75000  0.06692  1
