CIF file written using JARVIS-Tools package.
data_V4Cu3S8
_symmetry_space_group_name_H-M  'Cm'
_cell_length_a       6.6003
_cell_length_b       6.67621
_cell_length_c       7.32148
_cell_angle_alpha    63.1619
_cell_angle_beta     63.2082
_cell_angle_gamma    60.3754

_symmetry_Int_Tables_number  8
_chemical_formula_structural  V4Cu3S8
_chemical_formula_sum  V4Cu3S8
_cell_volume  239.2272315102025
_cell_formula_units_Z  1
loop_
  _symmetry_equiv_pos_site_id
 _symmetry_equiv_pos_as_xyz
 1  'x, y, z'
loop_
 _atom_site_type_symbol
 _atom_site_label
 _atom_site_symmetry_multiplicity
 _atom_site_fract_x
 _atom_site_fract_y
 _atom_site_fract_z
 _atom_site_fract_occupancy
 Cu  Cu1  1  0.33307  0.90929  0.42457  1
 Cu  Cu2  1  0.88711  0.33364  0.43412  1
 Cu  Cu3  1  0.34512  0.33364  0.43412  1
 S  S1  1  0.23214  0.24015  0.78878  1
 S  S2  1  0.73894  0.24015  0.78878  1
 S  S3  1  0.24623  0.75600  0.24551  1
 S  S4  1  0.75226  0.75600  0.24551  1
 S  S5  1  0.24411  0.74025  0.77154  1
 S  S6  1  0.27046  0.28324  0.17584  1
 S  S7  1  0.75326  0.76465  0.72883  1
 S  S8  1  0.76007  0.25728  0.22258  1
 V  V1  1  0.01471  -0.03108  0.00166  1
 V  V2  1  0.52753  0.95274  0.99220  1
 V  V3  1  0.51514  0.54777  0.98923  1
 V  V4  1  0.94786  0.54777  0.98923  1
