CIF file written using JARVIS-Tools package.
data_SnSe2O6
_symmetry_space_group_name_H-M  'P2_1/c'
_cell_length_a       4.81518
_cell_length_b       6.98586
_cell_length_c       8.62329
_cell_angle_alpha    90
_cell_angle_beta     90
_cell_angle_gamma    110.677

_symmetry_Int_Tables_number  14
_chemical_formula_structural  SnSe2O6
_chemical_formula_sum  Sn2Se4O2
_cell_volume  271.38710859873555
_cell_formula_units_Z  2
loop_
  _symmetry_equiv_pos_site_id
 _symmetry_equiv_pos_as_xyz
 1  'x, y, z'
loop_
 _atom_site_type_symbol
 _atom_site_label
 _atom_site_symmetry_multiplicity
 _atom_site_fract_x
 _atom_site_fract_y
 _atom_site_fract_z
 _atom_site_fract_occupancy
 O  O1  1  0.42031  0.19959  0.84367  1
 O  O2  1  0.14288  0.73570  0.94297  1
 O  O3  1  0.07969  0.30041  0.34367  1
 O  O4  1  0.92031  0.69959  0.65633  1
 O  O5  1  0.26264  0.41856  0.65842  1
 O  O6  1  0.23736  0.08144  0.15842  1
 O  O7  1  0.64288  0.23570  0.55703  1
 O  O8  1  0.76264  0.91856  0.84158  1
 O  O9  1  0.73736  0.58144  0.34158  1
 O  O10  1  0.57969  0.80041  0.15633  1
 O  O11  1  0.35712  0.76430  0.44297  1
 O  O12  1  0.85712  0.26430  0.05703  1
 Se  Se1  1  0.69171  0.81845  0.34900  1
 Se  Se2  1  0.19171  0.31845  0.15100  1
 Se  Se3  1  0.30829  0.18155  0.65100  1
 Se  Se4  1  0.80829  0.68155  0.84900  1
 Sn  Sn1  1  0.50000  0.00000  0.00000  1
 Sn  Sn2  1  0.00000  0.50000  0.50000  1
