CIF file written using JARVIS-Tools package.
data_MgMnGe
_symmetry_space_group_name_H-M  'P4/nmm'
_cell_length_a       3.87331
_cell_length_b       3.87343
_cell_length_c       6.47782
_cell_angle_alpha    89.9999
_cell_angle_beta     90.0065
_cell_angle_gamma    90.0021

_symmetry_Int_Tables_number  129
_chemical_formula_structural  MgMnGe
_chemical_formula_sum  Mg2Mn2Ge2
_cell_volume  97.18681521021749
_cell_formula_units_Z  2
loop_
  _symmetry_equiv_pos_site_id
 _symmetry_equiv_pos_as_xyz
 1  'x, y, z'
loop_
 _atom_site_type_symbol
 _atom_site_label
 _atom_site_symmetry_multiplicity
 _atom_site_fract_x
 _atom_site_fract_y
 _atom_site_fract_z
 _atom_site_fract_occupancy
 Ge  Ge1  1  0.74996  0.75001  0.25972  1
 Ge  Ge2  1  0.25004  0.24999  0.74028  1
 Mg  Mg1  1  0.24993  0.25001  0.16923  1
 Mg  Mg2  1  0.75007  0.74999  0.83076  1
 Mn  Mn1  1  0.75001  0.25000  0.49999  1
 Mn  Mn2  1  0.24999  0.75000  0.50001  1
