CIF file written using JARVIS-Tools package.
data_Er2Al3Ga
_symmetry_space_group_name_H-M  'R-3m'
_cell_length_a       5.50987
_cell_length_b       5.50987
_cell_length_c       5.50987
_cell_angle_alpha    59.8238
_cell_angle_beta     59.8239
_cell_angle_gamma    59.8238

_symmetry_Int_Tables_number  166
_chemical_formula_structural  Er2Al3Ga
_chemical_formula_sum  Er2Al3Ga
_cell_volume  117.80634751158095
_cell_formula_units_Z  1
loop_
  _symmetry_equiv_pos_site_id
 _symmetry_equiv_pos_as_xyz
 1  'x, y, z'
loop_
 _atom_site_type_symbol
 _atom_site_label
 _atom_site_symmetry_multiplicity
 _atom_site_fract_x
 _atom_site_fract_y
 _atom_site_fract_z
 _atom_site_fract_occupancy
 Al  Al1  1  0.50000  -0.00000  0.50000  1
 Al  Al2  1  0.00000  0.50000  0.50000  1
 Al  Al3  1  0.50000  0.50000  0.00000  1
 Er  Er1  1  0.12401  0.12401  0.12401  1
 Er  Er2  1  0.87599  0.87599  0.87599  1
 Ga  Ga1  1  0.50000  0.50000  0.50000  1
