CIF file written using JARVIS-Tools package.
data_LiFe2F5
_symmetry_space_group_name_H-M  'Cmcm'
_cell_length_a       3.83868
_cell_length_b       5.70486
_cell_length_c       9.36831
_cell_angle_alpha    90
_cell_angle_beta     90
_cell_angle_gamma    109.66

_symmetry_Int_Tables_number  63
_chemical_formula_structural  LiFe2F5
_chemical_formula_sum  Li2Fe4F0
_cell_volume  193.19789216425812
_cell_formula_units_Z  2
loop_
  _symmetry_equiv_pos_site_id
 _symmetry_equiv_pos_as_xyz
 1  'x, y, z'
loop_
 _atom_site_type_symbol
 _atom_site_label
 _atom_site_symmetry_multiplicity
 _atom_site_fract_x
 _atom_site_fract_y
 _atom_site_fract_z
 _atom_site_fract_occupancy
 F  F1  1  0.06358  0.12716  0.10895  1
 F  F2  1  0.32879  0.65758  0.08734  1
 F  F3  1  0.06358  0.12716  0.39105  1
 F  F4  1  0.32879  0.65758  0.41266  1
 F  F5  1  0.26431  0.52861  0.75000  1
 F  F6  1  0.73569  0.47139  0.25000  1
 F  F7  1  0.93642  0.87284  0.60895  1
 F  F8  1  0.93642  0.87284  0.89105  1
 F  F9  1  0.67121  0.34242  0.58734  1
 F  F10  1  0.67121  0.34242  0.91266  1
 Fe  Fe1  1  0.11858  0.23717  0.61097  1
 Fe  Fe2  1  0.11858  0.23717  0.88903  1
 Fe  Fe3  1  0.88142  0.76283  0.11097  1
 Fe  Fe4  1  0.88142  0.76283  0.38903  1
 Li  Li1  1  0.18405  0.36810  0.25000  1
 Li  Li2  1  0.81595  0.63190  0.75000  1
