CIF file written using JARVIS-Tools package.
data_Tb3CuSiSe7
_symmetry_space_group_name_H-M  'P6_3'
_cell_length_a       10.3427
_cell_length_b       10.3427
_cell_length_c       6.00575
_cell_angle_alpha    90
_cell_angle_beta     90
_cell_angle_gamma    120

_symmetry_Int_Tables_number  173
_chemical_formula_structural  Tb3CuSiSe7
_chemical_formula_sum  Tb6Cu2Si2Se4
_cell_volume  556.3716863961276
_cell_formula_units_Z  2
loop_
  _symmetry_equiv_pos_site_id
 _symmetry_equiv_pos_as_xyz
 1  'x, y, z'
loop_
 _atom_site_type_symbol
 _atom_site_label
 _atom_site_symmetry_multiplicity
 _atom_site_fract_x
 _atom_site_fract_y
 _atom_site_fract_z
 _atom_site_fract_occupancy
 Cu  Cu1  1  0.00000  0.00000  0.19579  1
 Cu  Cu2  1  0.00000  0.00000  0.69579  1
 Se  Se1  1  0.47889  0.90043  0.48251  1
 Se  Se2  1  0.66667  0.33333  0.44990  1
 Se  Se3  1  0.57846  0.47889  0.98251  1
 Se  Se4  1  0.16297  0.90073  0.21192  1
 Se  Se5  1  0.90043  0.42154  0.98251  1
 Se  Se6  1  0.90073  0.73776  0.71192  1
 Se  Se7  1  0.83703  0.09927  0.71192  1
 Se  Se8  1  0.33333  0.66667  0.94990  1
 Se  Se9  1  0.26224  0.16297  0.71192  1
 Se  Se10  1  0.09927  0.26224  0.21192  1
 Se  Se11  1  0.09957  0.57846  0.48251  1
 Se  Se12  1  0.52111  0.09957  0.98251  1
 Se  Se13  1  0.42154  0.52111  0.48251  1
 Se  Se14  1  0.73776  0.83703  0.21192  1
 Si  Si1  1  0.33333  0.66667  0.32778  1
 Si  Si2  1  0.66667  0.33333  0.82778  1
 Tb  Tb1  1  0.35628  0.22370  0.23955  1
 Tb  Tb2  1  0.86743  0.64372  0.23955  1
 Tb  Tb3  1  0.77630  0.13257  0.23955  1
 Tb  Tb4  1  0.22370  0.86743  0.73955  1
 Tb  Tb5  1  0.64372  0.77630  0.73955  1
 Tb  Tb6  1  0.13257  0.35628  0.73955  1
