CIF file written using JARVIS-Tools package.
data_SmBr3
_symmetry_space_group_name_H-M  'Cmcm'
_cell_length_a       4.04197
_cell_length_b       6.68504
_cell_length_c       9.13264
_cell_angle_alpha    90
_cell_angle_beta     90
_cell_angle_gamma    107.597

_symmetry_Int_Tables_number  63
_chemical_formula_structural  SmBr3
_chemical_formula_sum  Sm2Br6
_cell_volume  235.223886085466
_cell_formula_units_Z  2
loop_
  _symmetry_equiv_pos_site_id
 _symmetry_equiv_pos_as_xyz
 1  'x, y, z'
loop_
 _atom_site_type_symbol
 _atom_site_label
 _atom_site_symmetry_multiplicity
 _atom_site_fract_x
 _atom_site_fract_y
 _atom_site_fract_z
 _atom_site_fract_occupancy
 Br  Br1  1  0.35445  0.70890  0.43431  1
 Br  Br2  1  0.64555  0.29110  0.56569  1
 Br  Br3  1  0.91803  0.83605  0.75000  1
 Br  Br4  1  0.08197  0.16395  0.25000  1
 Br  Br5  1  0.35445  0.70890  0.06569  1
 Br  Br6  1  0.64555  0.29110  0.93431  1
 Sm  Sm1  1  0.74279  0.48558  0.25000  1
 Sm  Sm2  1  0.25721  0.51442  0.75000  1
