CIF file written using JARVIS-Tools package.
data_KO2F
_symmetry_space_group_name_H-M  'Pmc2_1'
_cell_length_a       3.36376
_cell_length_b       4.00723
_cell_length_c       9.03884
_cell_angle_alpha    90
_cell_angle_beta     90
_cell_angle_gamma    90

_symmetry_Int_Tables_number  26
_chemical_formula_structural  KO2F
_chemical_formula_sum  K2O4F2
_cell_volume  121.83770338578057
_cell_formula_units_Z  2
loop_
  _symmetry_equiv_pos_site_id
 _symmetry_equiv_pos_as_xyz
 1  'x, y, z'
loop_
 _atom_site_type_symbol
 _atom_site_label
 _atom_site_symmetry_multiplicity
 _atom_site_fract_x
 _atom_site_fract_y
 _atom_site_fract_z
 _atom_site_fract_occupancy
 F  F1  1  0.00000  0.04784  0.53854  1
 F  F2  1  0.00000  0.95216  0.03854  1
 K  K1  1  0.50000  0.54489  0.56347  1
 K  K2  1  0.50000  0.45511  0.06347  1
 O  O1  1  0.50000  0.95669  0.29876  1
 O  O2  1  0.50000  0.04331  0.79876  1
 O  O3  1  0.00000  0.71523  0.82623  1
 O  O4  1  0.00000  0.28477  0.32623  1
