CIF file written using JARVIS-Tools package.
data_YbFe2O4
_symmetry_space_group_name_H-M  'R-3m'
_cell_length_a       3.46146
_cell_length_b       3.46146
_cell_length_c       8.39183
_cell_angle_alpha    78.0979
_cell_angle_beta     78.0979
_cell_angle_gamma    60

_symmetry_Int_Tables_number  166
_chemical_formula_structural  YbFe2O4
_chemical_formula_sum  YbFe2O4
_cell_volume  84.57203837144107
_cell_formula_units_Z  1
loop_
  _symmetry_equiv_pos_site_id
 _symmetry_equiv_pos_as_xyz
 1  'x, y, z'
loop_
 _atom_site_type_symbol
 _atom_site_label
 _atom_site_symmetry_multiplicity
 _atom_site_fract_x
 _atom_site_fract_y
 _atom_site_fract_z
 _atom_site_fract_occupancy
 Fe  Fe1  1  0.21472  0.21472  0.35584  1
 Fe  Fe2  1  0.78528  0.78528  0.64416  1
 O  O1  1  0.13107  0.13107  0.60679  1
 O  O2  1  0.86893  0.86893  0.39321  1
 O  O3  1  0.28722  0.28722  0.13834  1
 O  O4  1  0.71278  0.71278  0.86166  1
 Yb  Yb1  1  0.00000  0.00000  0.00000  1
