CIF file written using JARVIS-Tools package.
data_BaZnBO3F
_symmetry_space_group_name_H-M  'P-6'
_cell_length_a       4.3356
_cell_length_b       5.09837
_cell_length_c       5.09835
_cell_angle_alpha    120
_cell_angle_beta     90
_cell_angle_gamma    90

_symmetry_Int_Tables_number  174
_chemical_formula_structural  BaZnBO3F
_chemical_formula_sum  BaZnBO3F
_cell_volume  97.59778776311427
_cell_formula_units_Z  1
loop_
  _symmetry_equiv_pos_site_id
 _symmetry_equiv_pos_as_xyz
 1  'x, y, z'
loop_
 _atom_site_type_symbol
 _atom_site_label
 _atom_site_symmetry_multiplicity
 _atom_site_fract_x
 _atom_site_fract_y
 _atom_site_fract_z
 _atom_site_fract_occupancy
 B  B1  1  0.00000  0.00001  0.00001  1
 Ba  Ba1  1  0.50000  0.66668  0.33334  1
 F  F1  1  0.50000  0.33335  0.66668  1
 O  O1  1  0.00000  0.97502  0.25813  1
 O  O2  1  0.00000  0.74188  0.71689  1
 O  O3  1  0.00000  0.28312  0.02499  1
 Zn  Zn1  1  0.00000  0.33334  0.66667  1
