CIF file written using JARVIS-Tools package.
data_DyAlNi
_symmetry_space_group_name_H-M  'P-62m'
_cell_length_a       6.98156
_cell_length_b       6.98156
_cell_length_c       3.85476
_cell_angle_alpha    90
_cell_angle_beta     90
_cell_angle_gamma    120

_symmetry_Int_Tables_number  189
_chemical_formula_structural  DyAlNi
_chemical_formula_sum  Dy3Al3Ni3
_cell_volume  162.717088346398
_cell_formula_units_Z  3
loop_
  _symmetry_equiv_pos_site_id
 _symmetry_equiv_pos_as_xyz
 1  'x, y, z'
loop_
 _atom_site_type_symbol
 _atom_site_label
 _atom_site_symmetry_multiplicity
 _atom_site_fract_x
 _atom_site_fract_y
 _atom_site_fract_z
 _atom_site_fract_occupancy
 Al  Al1  1  0.23615  -0.00000  0.00000  1
 Al  Al2  1  -0.00000  0.23615  0.00000  1
 Al  Al3  1  0.76385  0.76385  0.00000  1
 Dy  Dy1  1  0.41727  0.41727  0.50000  1
 Dy  Dy2  1  0.58273  0.00000  0.50000  1
 Dy  Dy3  1  0.00000  0.58273  0.50000  1
 Ni  Ni1  1  0.33333  0.66667  0.00000  1
 Ni  Ni2  1  0.66667  0.33333  0.00000  1
 Ni  Ni3  1  0.00000  0.00000  0.50000  1
