CIF file written using JARVIS-Tools package.
data_Dy5Si4
_symmetry_space_group_name_H-M  'Pnma'
_cell_length_a       7.41622
_cell_length_b       7.70351
_cell_length_c       14.566
_cell_angle_alpha    90
_cell_angle_beta     90
_cell_angle_gamma    90

_symmetry_Int_Tables_number  62
_chemical_formula_structural  Dy5Si4
_chemical_formula_sum  Dy20Si6
_cell_volume  832.1658480052093
_cell_formula_units_Z  4
loop_
  _symmetry_equiv_pos_site_id
 _symmetry_equiv_pos_as_xyz
 1  'x, y, z'
loop_
 _atom_site_type_symbol
 _atom_site_label
 _atom_site_symmetry_multiplicity
 _atom_site_fract_x
 _atom_site_fract_y
 _atom_site_fract_z
 _atom_site_fract_occupancy
 Dy  Dy1  1  0.65075  0.98824  0.75000  1
 Dy  Dy2  1  0.52560  0.31724  0.40223  1
 Dy  Dy3  1  0.15075  0.51176  0.75000  1
 Dy  Dy4  1  0.34925  0.01176  0.25000  1
 Dy  Dy5  1  0.97440  0.81724  0.90223  1
 Dy  Dy6  1  0.47440  0.68276  0.59777  1
 Dy  Dy7  1  0.52560  0.31724  0.09777  1
 Dy  Dy8  1  0.02560  0.18276  0.40223  1
 Dy  Dy9  1  0.02560  0.18276  0.09777  1
 Dy  Dy10  1  0.81970  0.32081  0.62303  1
 Dy  Dy11  1  0.84925  0.48824  0.25000  1
 Dy  Dy12  1  0.97440  0.81724  0.59777  1
 Dy  Dy13  1  0.68030  0.82081  0.12303  1
 Dy  Dy14  1  0.18030  0.67919  0.37697  1
 Dy  Dy15  1  0.81970  0.32081  0.87697  1
 Dy  Dy16  1  0.31970  0.17919  0.62303  1
 Dy  Dy17  1  0.31970  0.17919  0.87697  1
 Dy  Dy18  1  0.18030  0.67919  0.12303  1
 Dy  Dy19  1  0.68030  0.82081  0.37697  1
 Dy  Dy20  1  0.47440  0.68276  0.90223  1
 Si  Si1  1  0.34976  0.97098  0.03977  1
 Si  Si2  1  0.76917  0.62868  0.75000  1
 Si  Si3  1  0.26917  0.87132  0.75000  1
 Si  Si4  1  0.73083  0.12868  0.25000  1
 Si  Si5  1  0.02323  0.10381  0.75000  1
 Si  Si6  1  0.52323  0.39619  0.75000  1
 Si  Si7  1  0.23083  0.37132  0.25000  1
 Si  Si8  1  0.65024  0.02902  0.96023  1
 Si  Si9  1  0.84976  0.52902  0.03977  1
 Si  Si10  1  0.34976  0.97098  0.46023  1
 Si  Si11  1  0.15024  0.47098  0.53977  1
 Si  Si12  1  0.15024  0.47098  0.96023  1
 Si  Si13  1  0.65024  0.02902  0.53977  1
 Si  Si14  1  0.47677  0.60381  0.25000  1
 Si  Si15  1  0.97677  0.89619  0.25000  1
 Si  Si16  1  0.84976  0.52902  0.46023  1
