CIF file written using JARVIS-Tools package.
data_PrIn5Co
_symmetry_space_group_name_H-M  'P4/mmm'
_cell_length_a       4.6292
_cell_length_b       4.6292
_cell_length_c       7.66057
_cell_angle_alpha    90
_cell_angle_beta     90
_cell_angle_gamma    90

_symmetry_Int_Tables_number  123
_chemical_formula_structural  PrIn5Co
_chemical_formula_sum  PrIn5Co
_cell_volume  164.16211811335376
_cell_formula_units_Z  1
loop_
  _symmetry_equiv_pos_site_id
 _symmetry_equiv_pos_as_xyz
 1  'x, y, z'
loop_
 _atom_site_type_symbol
 _atom_site_label
 _atom_site_symmetry_multiplicity
 _atom_site_fract_x
 _atom_site_fract_y
 _atom_site_fract_z
 _atom_site_fract_occupancy
 Co  Co1  1  0.00000  0.00000  0.50000  1
 In  In1  1  0.50000  0.50000  0.00000  1
 In  In2  1  0.50000  0.00000  0.68906  1
 In  In3  1  0.00000  0.50000  0.68906  1
 In  In4  1  0.50000  0.00000  0.31094  1
 In  In5  1  0.00000  0.50000  0.31094  1
 Pr  Pr1  1  0.00000  0.00000  0.00000  1
