CIF file written using JARVIS-Tools package.
data_LiFeF4
_symmetry_space_group_name_H-M  'P2/c'
_cell_length_a       4.99719
_cell_length_b       4.63078
_cell_length_c       5.61546
_cell_angle_alpha    89.9966
_cell_angle_beta     90.017
_cell_angle_gamma    90.7093

_symmetry_Int_Tables_number  13
_chemical_formula_structural  LiFeF4
_chemical_formula_sum  Li2Fe2F8
_cell_volume  129.93672386703918
_cell_formula_units_Z  2
loop_
  _symmetry_equiv_pos_site_id
 _symmetry_equiv_pos_as_xyz
 1  'x, y, z'
loop_
 _atom_site_type_symbol
 _atom_site_label
 _atom_site_symmetry_multiplicity
 _atom_site_fract_x
 _atom_site_fract_y
 _atom_site_fract_z
 _atom_site_fract_occupancy
 F  F1  1  0.58608  0.23761  0.38071  1
 F  F2  1  0.07619  0.27444  0.11104  1
 F  F3  1  0.08606  0.23760  0.61931  1
 F  F4  1  0.57615  0.27444  0.88898  1
 F  F5  1  0.42385  0.72556  0.11102  1
 F  F6  1  0.91394  0.76240  0.38069  1
 F  F7  1  0.92381  0.72556  0.88896  1
 F  F8  1  0.41392  0.76239  0.61929  1
 Fe  Fe1  1  0.75003  0.49996  0.17250  1
 Fe  Fe2  1  0.24997  0.50004  0.82750  1
 Li  Li1  1  0.74999  -0.00001  0.64925  1
 Li  Li2  1  0.25001  0.00001  0.35075  1
