CIF file written using JARVIS-Tools package.
data_MnTlI3
_symmetry_space_group_name_H-M  'Pnma'
_cell_length_a       4.27683
_cell_length_b       10.092
_cell_length_c       16.1267
_cell_angle_alpha    90
_cell_angle_beta     90
_cell_angle_gamma    90

_symmetry_Int_Tables_number  62
_chemical_formula_structural  MnTlI3
_chemical_formula_sum  Mn4Tl4I2
_cell_volume  696.0573316030464
_cell_formula_units_Z  4
loop_
  _symmetry_equiv_pos_site_id
 _symmetry_equiv_pos_as_xyz
 1  'x, y, z'
loop_
 _atom_site_type_symbol
 _atom_site_label
 _atom_site_symmetry_multiplicity
 _atom_site_fract_x
 _atom_site_fract_y
 _atom_site_fract_z
 _atom_site_fract_occupancy
 I  I1  1  0.75000  0.47722  0.60458  1
 I  I2  1  0.75000  0.97722  0.89542  1
 I  I3  1  0.25000  0.02278  0.10458  1
 I  I4  1  0.25000  0.66994  0.99325  1
 I  I5  1  0.75000  0.33006  0.00675  1
 I  I6  1  0.25000  0.16994  0.50675  1
 I  I7  1  0.75000  0.83006  0.49325  1
 I  I8  1  0.25000  0.78023  0.71268  1
 I  I9  1  0.75000  0.21977  0.28732  1
 I  I10  1  0.25000  0.28023  0.78732  1
 I  I11  1  0.75000  0.71977  0.21268  1
 I  I12  1  0.25000  0.52278  0.39542  1
 Mn  Mn1  1  0.75000  0.83759  0.05610  1
 Mn  Mn2  1  0.25000  0.16241  0.94390  1
 Mn  Mn3  1  0.75000  0.33759  0.44390  1
 Mn  Mn4  1  0.25000  0.66241  0.55610  1
 Tl  Tl1  1  0.75000  0.55297  0.82539  1
 Tl  Tl2  1  0.25000  0.44703  0.17461  1
 Tl  Tl3  1  0.25000  0.94703  0.32539  1
 Tl  Tl4  1  0.75000  0.05297  0.67461  1
