CIF file written using JARVIS-Tools package.
data_Sm3CuSnSe7
_symmetry_space_group_name_H-M  'P6_3'
_cell_length_a       10.4181
_cell_length_b       10.4181
_cell_length_c       6.40603
_cell_angle_alpha    90
_cell_angle_beta     90
_cell_angle_gamma    120

_symmetry_Int_Tables_number  173
_chemical_formula_structural  Sm3CuSnSe7
_chemical_formula_sum  Sm6Cu2Sn2Se4
_cell_volume  602.141213000096
_cell_formula_units_Z  2
loop_
  _symmetry_equiv_pos_site_id
 _symmetry_equiv_pos_as_xyz
 1  'x, y, z'
loop_
 _atom_site_type_symbol
 _atom_site_label
 _atom_site_symmetry_multiplicity
 _atom_site_fract_x
 _atom_site_fract_y
 _atom_site_fract_z
 _atom_site_fract_occupancy
 Cu  Cu1  1  0.00000  0.00000  0.01373  1
 Cu  Cu2  1  0.00000  0.00000  0.51373  1
 Se  Se1  1  0.07940  0.51624  0.18689  1
 Se  Se2  1  0.73741  0.88924  0.49196  1
 Se  Se3  1  0.15183  0.26259  0.49196  1
 Se  Se4  1  0.92060  0.48376  0.68689  1
 Se  Se5  1  0.51624  0.43684  0.68689  1
 Se  Se6  1  0.88924  0.15183  0.99196  1
 Se  Se7  1  0.43684  0.92060  0.18689  1
 Se  Se8  1  0.11076  0.84817  0.49196  1
 Se  Se9  1  0.33333  0.66667  0.75951  1
 Se  Se10  1  0.26259  0.11076  0.99196  1
 Se  Se11  1  0.84817  0.73741  0.99196  1
 Se  Se12  1  0.56316  0.07940  0.68689  1
 Se  Se13  1  0.66667  0.33333  0.25951  1
 Se  Se14  1  0.48376  0.56316  0.18689  1
 Sm  Sm1  1  0.85411  0.21140  0.43777  1
 Sm  Sm2  1  0.35729  0.14589  0.43777  1
 Sm  Sm3  1  0.78860  0.64271  0.43777  1
 Sm  Sm4  1  0.64271  0.85411  0.93777  1
 Sm  Sm5  1  0.14589  0.78860  0.93777  1
 Sm  Sm6  1  0.21140  0.35729  0.93777  1
 Sn  Sn1  1  0.66667  0.33333  0.86422  1
 Sn  Sn2  1  0.33333  0.66667  0.36422  1
