CIF file written using JARVIS-Tools package.
data_Sr2CdPt2
_symmetry_space_group_name_H-M  'Immm'
_cell_length_a       4.57299
_cell_length_b       5.92039
_cell_length_c       5.92039
_cell_angle_alpha    61.4747
_cell_angle_beta     67.2814
_cell_angle_gamma    67.2814

_symmetry_Int_Tables_number  71
_chemical_formula_structural  Sr2CdPt2
_chemical_formula_sum  Sr2CdPt2
_cell_volume  125.8130687783806
_cell_formula_units_Z  1
loop_
  _symmetry_equiv_pos_site_id
 _symmetry_equiv_pos_as_xyz
 1  'x, y, z'
loop_
 _atom_site_type_symbol
 _atom_site_label
 _atom_site_symmetry_multiplicity
 _atom_site_fract_x
 _atom_site_fract_y
 _atom_site_fract_z
 _atom_site_fract_occupancy
 Cd  Cd1  1  0.00000  0.00000  0.00000  1
 Pt  Pt1  1  0.50000  0.27607  0.72393  1
 Pt  Pt2  1  0.50000  0.72393  0.27607  1
 Sr  Sr1  1  0.20178  0.29822  0.29822  1
 Sr  Sr2  1  0.79822  0.70178  0.70178  1
