CIF file written using JARVIS-Tools package.
data_Pr2SnS5
_symmetry_space_group_name_H-M  'Pbam'
_cell_length_a       4.01187
_cell_length_b       7.8744
_cell_length_c       11.3294
_cell_angle_alpha    90
_cell_angle_beta     90
_cell_angle_gamma    90

_symmetry_Int_Tables_number  55
_chemical_formula_structural  Pr2SnS5
_chemical_formula_sum  Pr4Sn2S0
_cell_volume  357.9088044712697
_cell_formula_units_Z  2
loop_
  _symmetry_equiv_pos_site_id
 _symmetry_equiv_pos_as_xyz
 1  'x, y, z'
loop_
 _atom_site_type_symbol
 _atom_site_label
 _atom_site_symmetry_multiplicity
 _atom_site_fract_x
 _atom_site_fract_y
 _atom_site_fract_z
 _atom_site_fract_occupancy
 Pr  Pr1  1  0.50000  0.43090  0.16959  1
 Pr  Pr2  1  0.50000  0.06910  0.66959  1
 Pr  Pr3  1  0.50000  0.56910  0.83041  1
 Pr  Pr4  1  0.50000  0.93090  0.33041  1
 S  S1  1  0.00000  0.35117  0.70320  1
 S  S2  1  0.00000  0.14883  0.20320  1
 S  S3  1  0.00000  0.00000  0.50000  1
 S  S4  1  0.50000  0.81066  0.07312  1
 S  S5  1  0.00000  0.50000  0.00000  1
 S  S6  1  0.00000  0.64883  0.29680  1
 S  S7  1  0.50000  0.31066  0.42688  1
 S  S8  1  0.50000  0.68934  0.57312  1
 S  S9  1  0.50000  0.18934  0.92688  1
 S  S10  1  0.00000  0.85117  0.79680  1
 Sn  Sn1  1  0.00000  0.50000  0.50000  1
 Sn  Sn2  1  0.00000  0.00000  0.00000  1
