CIF file written using JARVIS-Tools package.
data_NaHO
_symmetry_space_group_name_H-M  'P2_1/m'
_cell_length_a       3.17203
_cell_length_b       4.25852
_cell_length_c       4.62205
_cell_angle_alpha    90
_cell_angle_beta     90.1467
_cell_angle_gamma    90

_symmetry_Int_Tables_number  11
_chemical_formula_structural  NaHO
_chemical_formula_sum  Na2H2O2
_cell_volume  62.4352286579782
_cell_formula_units_Z  2
loop_
  _symmetry_equiv_pos_site_id
 _symmetry_equiv_pos_as_xyz
 1  'x, y, z'
loop_
 _atom_site_type_symbol
 _atom_site_label
 _atom_site_symmetry_multiplicity
 _atom_site_fract_x
 _atom_site_fract_y
 _atom_site_fract_z
 _atom_site_fract_occupancy
 H  H1  1  0.53820  0.00000  0.79884  1
 H  H2  1  0.44274  0.50000  0.29542  1
 Na  Na1  1  0.07241  0.00000  0.29748  1
 Na  Na2  1  0.90842  0.50000  0.79675  1
 O  O1  1  0.23060  0.00000  0.79749  1
 O  O2  1  0.75034  0.50000  0.29669  1
