CIF file written using JARVIS-Tools package.
data_K2Te2Pd
_symmetry_space_group_name_H-M  'Immm'
_cell_length_a       4.03653
_cell_length_b       7.17977
_cell_length_c       7.17977
_cell_angle_alpha    73.3755
_cell_angle_beta     73.6739
_cell_angle_gamma    73.6739

_symmetry_Int_Tables_number  71
_chemical_formula_structural  K2Te2Pd
_chemical_formula_sum  K2Te2Pd
_cell_volume  186.73026575461424
_cell_formula_units_Z  1
loop_
  _symmetry_equiv_pos_site_id
 _symmetry_equiv_pos_as_xyz
 1  'x, y, z'
loop_
 _atom_site_type_symbol
 _atom_site_label
 _atom_site_symmetry_multiplicity
 _atom_site_fract_x
 _atom_site_fract_y
 _atom_site_fract_z
 _atom_site_fract_occupancy
 K  K1  1  0.72032  0.27968  0.27968  1
 K  K2  1  0.27968  0.72032  0.72032  1
 Pd  Pd1  1  0.00000  0.00000  0.00000  1
 Te  Te1  1  0.50000  0.20415  0.79585  1
 Te  Te2  1  0.50000  0.79585  0.20415  1
