CIF file written using JARVIS-Tools package.
data_PH9N2O4
_symmetry_space_group_name_H-M  'P2_1/c'
_cell_length_a       10.9944
_cell_length_b       6.68584
_cell_length_c       7.95318
_cell_angle_alpha    90
_cell_angle_beta     113.184
_cell_angle_gamma    90

_symmetry_Int_Tables_number  14
_chemical_formula_structural  PH9N2O4
_chemical_formula_sum  P4H36N8O6
_cell_volume  537.4028049004489
_cell_formula_units_Z  4
loop_
  _symmetry_equiv_pos_site_id
 _symmetry_equiv_pos_as_xyz
 1  'x, y, z'
loop_
 _atom_site_type_symbol
 _atom_site_label
 _atom_site_symmetry_multiplicity
 _atom_site_fract_x
 _atom_site_fract_y
 _atom_site_fract_z
 _atom_site_fract_occupancy
 H  H1  1  0.52117  0.16525  0.10809  1
 H  H2  1  0.37435  0.27731  0.61811  1
 H  H3  1  0.17637  0.63385  0.62109  1
 H  H4  1  0.82363  0.13385  0.87891  1
 H  H5  1  0.82363  0.36615  0.37891  1
 H  H6  1  0.52117  0.33475  0.60809  1
 H  H7  1  0.47883  0.83475  0.89191  1
 H  H8  1  0.47883  0.66525  0.39191  1
 H  H9  1  0.12111  0.52542  0.32764  1
 H  H10  1  0.62565  0.77731  0.88189  1
 H  H11  1  0.58535  0.02558  0.89066  1
 H  H12  1  0.58535  0.47442  0.39066  1
 H  H13  1  0.41465  0.97442  0.10934  1
 H  H14  1  0.49999  0.38152  0.80158  1
 H  H15  1  0.50001  0.88152  0.69842  1
 H  H16  1  0.50001  0.61848  0.19842  1
 H  H17  1  0.49999  0.11848  0.30158  1
 H  H18  1  0.41465  0.52558  0.60934  1
 H  H19  1  0.62565  0.72269  0.38189  1
 H  H20  1  0.17637  0.86615  0.12109  1
 H  H21  1  0.02451  0.34008  0.18727  1
 H  H22  1  0.16689  0.22044  0.86911  1
 H  H23  1  0.82453  0.60350  0.81636  1
 H  H24  1  0.82453  0.89650  0.31636  1
 H  H25  1  0.17547  0.39650  0.18364  1
 H  H26  1  0.12111  0.97458  0.82764  1
 H  H27  1  0.87889  0.47458  0.67236  1
 H  H28  1  0.87889  0.02542  0.17236  1
 H  H29  1  0.17547  0.10350  0.68364  1
 H  H30  1  0.37435  0.22269  0.11811  1
 H  H31  1  0.83311  0.77956  0.13089  1
 H  H32  1  0.16689  0.27956  0.36911  1
 H  H33  1  0.02451  0.15992  0.68727  1
 H  H34  1  0.97549  0.65992  0.81273  1
 H  H35  1  0.97549  0.84008  0.31273  1
 H  H36  1  0.83311  0.72044  0.63089  1
 N  N1  1  0.45126  0.11597  0.15903  1
 N  N2  1  0.45126  0.38403  0.65903  1
 N  N3  1  0.54874  0.88403  0.84097  1
 N  N4  1  0.54874  0.61597  0.34097  1
 N  N5  1  0.12179  0.11382  0.76764  1
 N  N6  1  0.12179  0.38618  0.26764  1
 N  N7  1  0.87821  0.88618  0.23236  1
 N  N8  1  0.87821  0.61382  0.73236  1
 O  O1  1  0.86353  0.26078  0.05737  1
 O  O2  1  0.20263  0.53006  0.72435  1
 O  O3  1  0.79737  0.03006  0.77565  1
 O  O4  1  0.79737  0.46994  0.27565  1
 O  O5  1  0.26269  0.08767  0.54164  1
 O  O6  1  0.20263  0.96994  0.22435  1
 O  O7  1  0.26269  0.41233  0.04164  1
 O  O8  1  0.73731  0.58767  0.95836  1
 O  O9  1  0.37819  0.72455  0.98790  1
 O  O10  1  0.13647  0.76078  0.44263  1
 O  O11  1  0.62181  0.27545  0.01210  1
 O  O12  1  0.37819  0.77545  0.48790  1
 O  O13  1  0.13647  0.73922  0.94263  1
 O  O14  1  0.86353  0.23922  0.55737  1
 O  O15  1  0.73731  0.91233  0.45836  1
 O  O16  1  0.62181  0.22455  0.51210  1
 P  P1  1  0.24828  0.89433  0.43057  1
 P  P2  1  0.75172  0.39433  0.06943  1
 P  P3  1  0.75172  0.10567  0.56943  1
 P  P4  1  0.24828  0.60567  0.93057  1
