CIF file written using JARVIS-Tools package.
data_BaAg2
_symmetry_space_group_name_H-M  'P6/mmm'
_cell_length_a       4.88809
_cell_length_b       6.51375
_cell_length_c       6.51375
_cell_angle_alpha    82.7089
_cell_angle_beta     67.9625
_cell_angle_gamma    67.9625

_symmetry_Int_Tables_number  191
_chemical_formula_structural  BaAg2
_chemical_formula_sum  Ba2Ag4
_cell_volume  178.17454289545276
_cell_formula_units_Z  2
loop_
  _symmetry_equiv_pos_site_id
 _symmetry_equiv_pos_as_xyz
 1  'x, y, z'
loop_
 _atom_site_type_symbol
 _atom_site_label
 _atom_site_symmetry_multiplicity
 _atom_site_fract_x
 _atom_site_fract_y
 _atom_site_fract_z
 _atom_site_fract_occupancy
 Ag  Ag1  1  0.33337  0.66659  0.66667  1
 Ag  Ag2  1  0.66663  0.33341  0.33333  1
 Ag  Ag3  1  0.66663  0.83333  0.83341  1
 Ag  Ag4  1  0.33337  0.16667  0.16659  1
 Ba  Ba1  1  0.00002  0.24998  0.74998  1
 Ba  Ba2  1  0.99998  0.75002  0.25002  1
