CIF file written using JARVIS-Tools package.
data_Mg6VCu
_symmetry_space_group_name_H-M  'Amm2'
_cell_length_a       6.13286
_cell_length_b       6.09699
_cell_length_c       4.85506
_cell_angle_alpha    90
_cell_angle_beta     90
_cell_angle_gamma    119.807

_symmetry_Int_Tables_number  38
_chemical_formula_structural  Mg6VCu
_chemical_formula_sum  Mg6VCu
_cell_volume  157.52370424780216
_cell_formula_units_Z  1
loop_
  _symmetry_equiv_pos_site_id
 _symmetry_equiv_pos_as_xyz
 1  'x, y, z'
loop_
 _atom_site_type_symbol
 _atom_site_label
 _atom_site_symmetry_multiplicity
 _atom_site_fract_x
 _atom_site_fract_y
 _atom_site_fract_z
 _atom_site_fract_occupancy
 Cu  Cu1  1  0.16827  0.33413  0.25000  1
 Mg  Mg1  1  0.66147  0.33318  0.25000  1
 Mg  Mg2  1  0.66147  0.82829  0.25000  1
 Mg  Mg3  1  0.32552  0.16199  0.75000  1
 Mg  Mg4  1  0.32552  0.66353  0.75000  1
 Mg  Mg5  1  0.85146  0.17573  0.75000  1
 Mg  Mg6  1  0.84553  0.67277  0.75000  1
 V  V1  1  0.16076  0.83038  0.25000  1
