CIF file written using JARVIS-Tools package.
data_Ba2ZnO3
_symmetry_space_group_name_H-M  'C2/c'
_cell_length_a       5.87436
_cell_length_b       6.4615
_cell_length_c       12.7173
_cell_angle_alpha    88.4457
_cell_angle_beta     86.5792
_cell_angle_gamma    62.963

_symmetry_Int_Tables_number  15
_chemical_formula_structural  Ba2ZnO3
_chemical_formula_sum  Ba8Zn4O2
_cell_volume  429.19211656994537
_cell_formula_units_Z  4
loop_
  _symmetry_equiv_pos_site_id
 _symmetry_equiv_pos_as_xyz
 1  'x, y, z'
loop_
 _atom_site_type_symbol
 _atom_site_label
 _atom_site_symmetry_multiplicity
 _atom_site_fract_x
 _atom_site_fract_y
 _atom_site_fract_z
 _atom_site_fract_occupancy
 Ba  Ba1  1  0.86268  0.79196  0.42499  1
 Ba  Ba2  1  0.13732  0.20804  0.57501  1
 Ba  Ba3  1  0.65464  0.20804  0.92499  1
 Ba  Ba4  1  0.56235  0.41036  0.34747  1
 Ba  Ba5  1  0.97272  0.58964  0.84747  1
 Ba  Ba6  1  0.43765  0.58964  0.65253  1
 Ba  Ba7  1  0.02728  0.41036  0.15253  1
 Ba  Ba8  1  0.34536  0.79196  0.07501  1
 O  O1  1  0.67084  0.19728  0.53466  1
 O  O2  1  0.86812  0.80272  0.03466  1
 O  O3  1  0.32916  0.80272  0.46534  1
 O  O4  1  0.00371  0.99258  0.75000  1
 O  O5  1  0.99629  0.00742  0.25000  1
 O  O6  1  0.40455  0.19091  0.75000  1
 O  O7  1  0.14359  0.34282  0.36685  1
 O  O8  1  0.59545  0.80909  0.25000  1
 O  O9  1  0.85641  0.65718  0.63315  1
 O  O10  1  0.13188  0.19728  0.96534  1
 O  O11  1  0.51359  0.34282  0.13315  1
 O  O12  1  0.48641  0.65718  0.86685  1
 Zn  Zn1  1  0.26969  0.00412  0.33638  1
 Zn  Zn2  1  0.27381  0.99588  0.83638  1
 Zn  Zn3  1  0.72619  0.00412  0.16362  1
 Zn  Zn4  1  0.73031  0.99588  0.66362  1
