CIF file written using JARVIS-Tools package.
data_SbOF
_symmetry_space_group_name_H-M  'Pnma'
_cell_length_a       4.08099
_cell_length_b       6.13788
_cell_length_c       8.24916
_cell_angle_alpha    90
_cell_angle_beta     90
_cell_angle_gamma    90

_symmetry_Int_Tables_number  62
_chemical_formula_structural  SbOF
_chemical_formula_sum  Sb4O4F4
_cell_volume  206.63033154375643
_cell_formula_units_Z  4
loop_
  _symmetry_equiv_pos_site_id
 _symmetry_equiv_pos_as_xyz
 1  'x, y, z'
loop_
 _atom_site_type_symbol
 _atom_site_label
 _atom_site_symmetry_multiplicity
 _atom_site_fract_x
 _atom_site_fract_y
 _atom_site_fract_z
 _atom_site_fract_occupancy
 F  F1  1  0.75000  0.13071  0.27377  1
 F  F2  1  0.25000  0.36929  0.77377  1
 F  F3  1  0.75000  0.63071  0.22623  1
 F  F4  1  0.25000  0.86929  0.72623  1
 O  O1  1  0.75000  -0.09166  0.94139  1
 O  O2  1  0.25000  0.59166  0.44139  1
 O  O3  1  0.75000  0.40834  0.55861  1
 O  O4  1  0.25000  0.09166  0.05861  1
 Sb  Sb1  1  0.75000  0.21266  0.03843  1
 Sb  Sb2  1  0.25000  0.28734  0.53843  1
 Sb  Sb3  1  0.75000  0.71266  0.46157  1
 Sb  Sb4  1  0.25000  0.78734  0.96157  1
