CIF file written using JARVIS-Tools package.
data_LiMg6Sb
_symmetry_space_group_name_H-M  'Amm2'
_cell_length_a       6.37303
_cell_length_b       6.37304
_cell_length_c       5.0739
_cell_angle_alpha    90
_cell_angle_beta     90
_cell_angle_gamma    119.581

_symmetry_Int_Tables_number  38
_chemical_formula_structural  LiMg6Sb
_chemical_formula_sum  LiMg6Sb
_cell_volume  179.218682170463
_cell_formula_units_Z  1
loop_
  _symmetry_equiv_pos_site_id
 _symmetry_equiv_pos_as_xyz
 1  'x, y, z'
loop_
 _atom_site_type_symbol
 _atom_site_label
 _atom_site_symmetry_multiplicity
 _atom_site_fract_x
 _atom_site_fract_y
 _atom_site_fract_z
 _atom_site_fract_occupancy
 Li  Li1  1  0.16669  0.33331  0.25000  1
 Mg  Mg1  1  0.16310  0.82155  0.25000  1
 Mg  Mg2  1  0.67845  0.33690  0.25000  1
 Mg  Mg3  1  0.66412  0.83588  0.25000  1
 Mg  Mg4  1  0.33291  0.66381  0.75000  1
 Mg  Mg5  1  0.83619  0.16709  0.75000  1
 Mg  Mg6  1  0.83160  0.66840  0.75000  1
 Sb  Sb1  1  0.32692  0.17308  0.75000  1
