CIF file written using JARVIS-Tools package.
data_CeMgNi4
_symmetry_space_group_name_H-M  'F-43m'
_cell_length_a       4.97042
_cell_length_b       4.97042
_cell_length_c       4.97042
_cell_angle_alpha    60
_cell_angle_beta     60
_cell_angle_gamma    60

_symmetry_Int_Tables_number  216
_chemical_formula_structural  CeMgNi4
_chemical_formula_sum  CeMgNi4
_cell_volume  86.82899937322806
_cell_formula_units_Z  1
loop_
  _symmetry_equiv_pos_site_id
 _symmetry_equiv_pos_as_xyz
 1  'x, y, z'
loop_
 _atom_site_type_symbol
 _atom_site_label
 _atom_site_symmetry_multiplicity
 _atom_site_fract_x
 _atom_site_fract_y
 _atom_site_fract_z
 _atom_site_fract_occupancy
 Ce  Ce1  1  0.00000  0.00000  0.00000  1
 Mg  Mg1  1  0.25000  0.25000  0.25000  1
 Ni  Ni1  1  0.62364  0.62364  0.62364  1
 Ni  Ni2  1  0.62364  0.12906  0.62364  1
 Ni  Ni3  1  0.62364  0.62364  0.12906  1
 Ni  Ni4  1  0.12906  0.62364  0.62364  1
