CIF file written using JARVIS-Tools package.
data_Te4Mo3WSe2S2
_symmetry_space_group_name_H-M  'P3m1'
_cell_length_a       3.40193
_cell_length_b       3.40238
_cell_length_c       35.5503
_cell_angle_alpha    89.9884
_cell_angle_beta     90
_cell_angle_gamma    119.996

_symmetry_Int_Tables_number  156
_chemical_formula_structural  Te4Mo3WSe2S2
_chemical_formula_sum  Te4Mo3WSe2S2
_cell_volume  356.36986263686225
_cell_formula_units_Z  1
loop_
  _symmetry_equiv_pos_site_id
 _symmetry_equiv_pos_as_xyz
 1  'x, y, z'
loop_
 _atom_site_type_symbol
 _atom_site_label
 _atom_site_symmetry_multiplicity
 _atom_site_fract_x
 _atom_site_fract_y
 _atom_site_fract_z
 _atom_site_fract_occupancy
 Mo  Mo1  1  0.33344  0.66688  0.08900  1
 Mo  Mo2  1  0.66671  0.33341  0.28300  1
 Mo  Mo3  1  0.66656  0.33312  0.65963  1
 S  S1  1  0.66669  0.33338  0.42884  1
 S  S2  1  0.66655  0.33310  0.51372  1
 Se  Se1  1  0.66683  0.33365  0.04269  1
 Se  Se2  1  0.66669  0.33339  0.13542  1
 Te  Te1  1  0.33332  0.66663  0.33583  1
 Te  Te2  1  0.33317  0.66633  0.71235  1
 Te  Te3  1  0.33347  0.66695  0.23021  1
 Te  Te4  1  0.33333  0.66666  0.60677  1
 W  W1  1  0.33325  0.66651  0.47128  1
