CIF file written using JARVIS-Tools package.
data_CrCl2
_symmetry_space_group_name_H-M  'Pnnm'
_cell_length_a       3.59287
_cell_length_b       5.80865
_cell_length_c       6.19017
_cell_angle_alpha    90
_cell_angle_beta     90
_cell_angle_gamma    90

_symmetry_Int_Tables_number  58
_chemical_formula_structural  CrCl2
_chemical_formula_sum  Cr2Cl4
_cell_volume  129.18722469467167
_cell_formula_units_Z  2
loop_
  _symmetry_equiv_pos_site_id
 _symmetry_equiv_pos_as_xyz
 1  'x, y, z'
loop_
 _atom_site_type_symbol
 _atom_site_label
 _atom_site_symmetry_multiplicity
 _atom_site_fract_x
 _atom_site_fract_y
 _atom_site_fract_z
 _atom_site_fract_occupancy
 Cl  Cl1  1  0.50000  0.77716  0.16453  1
 Cl  Cl2  1  0.50000  0.22284  0.83547  1
 Cl  Cl3  1  0.00000  0.72284  0.66453  1
 Cl  Cl4  1  0.00000  0.27716  0.33547  1
 Cr  Cr1  1  0.50000  0.50000  0.50000  1
 Cr  Cr2  1  0.00000  0.00000  0.00000  1
