CIF file written using JARVIS-Tools package.
data_LaCoGe3
_symmetry_space_group_name_H-M  'I4mm'
_cell_length_a       4.3793
_cell_length_b       4.3793
_cell_length_c       5.84853
_cell_angle_alpha    111.987
_cell_angle_beta     111.987
_cell_angle_gamma    90

_symmetry_Int_Tables_number  107
_chemical_formula_structural  LaCoGe3
_chemical_formula_sum  LaCoGe3
_cell_volume  95.15247477215748
_cell_formula_units_Z  1
loop_
  _symmetry_equiv_pos_site_id
 _symmetry_equiv_pos_as_xyz
 1  'x, y, z'
loop_
 _atom_site_type_symbol
 _atom_site_label
 _atom_site_symmetry_multiplicity
 _atom_site_fract_x
 _atom_site_fract_y
 _atom_site_fract_z
 _atom_site_fract_occupancy
 Co  Co1  1  0.00475  0.00475  0.00951  1
 Ge  Ge1  1  0.59624  0.09624  0.19247  1
 Ge  Ge2  1  0.77242  0.77242  0.54483  1
 Ge  Ge3  1  0.09624  0.59624  0.19247  1
 La  La1  1  0.33826  0.33826  0.67651  1
