CIF file written using JARVIS-Tools package.
data_CeMg6Co
_symmetry_space_group_name_H-M  'Amm2'
_cell_length_a       6.97799
_cell_length_b       5.61636
_cell_length_c       4.89707
_cell_angle_alpha    90
_cell_angle_beta     90
_cell_angle_gamma    113.73

_symmetry_Int_Tables_number  38
_chemical_formula_structural  CeMg6Co
_chemical_formula_sum  CeMg6Co
_cell_volume  175.693054515389
_cell_formula_units_Z  1
loop_
  _symmetry_equiv_pos_site_id
 _symmetry_equiv_pos_as_xyz
 1  'x, y, z'
loop_
 _atom_site_type_symbol
 _atom_site_label
 _atom_site_symmetry_multiplicity
 _atom_site_fract_x
 _atom_site_fract_y
 _atom_site_fract_z
 _atom_site_fract_occupancy
 Ce  Ce1  1  0.11789  0.80895  0.25000  1
 Co  Co1  1  0.22222  0.36111  0.25000  1
 Mg  Mg1  1  0.61701  0.31031  0.25000  1
 Mg  Mg2  1  0.61701  0.80670  0.25000  1
 Mg  Mg3  1  0.34645  0.17810  0.75000  1
 Mg  Mg4  1  0.34645  0.66835  0.75000  1
 Mg  Mg5  1  0.93789  0.21894  0.75000  1
 Mg  Mg6  1  0.79508  0.64754  0.75000  1
