CIF file written using JARVIS-Tools package.
data_AlAsO4
_symmetry_space_group_name_H-M  'I-4'
_cell_length_a       5.23163
_cell_length_b       5.23163
_cell_length_c       5.23163
_cell_angle_alpha    86.457
_cell_angle_beta     122.066
_cell_angle_gamma    122.066

_symmetry_Int_Tables_number  82
_chemical_formula_structural  AlAsO4
_chemical_formula_sum  AlAsO4
_cell_volume  97.88442697949584
_cell_formula_units_Z  1
loop_
  _symmetry_equiv_pos_site_id
 _symmetry_equiv_pos_as_xyz
 1  'x, y, z'
loop_
 _atom_site_type_symbol
 _atom_site_label
 _atom_site_symmetry_multiplicity
 _atom_site_fract_x
 _atom_site_fract_y
 _atom_site_fract_z
 _atom_site_fract_occupancy
 Al  Al1  1  0.00000  0.00000  0.00000  1
 As  As1  1  0.50000  0.25000  0.75000  1
 O  O1  1  0.60291  0.98614  0.86770  1
 O  O2  1  0.11844  0.13230  0.73521  1
 O  O3  1  0.39709  0.26479  0.38323  1
 O  O4  1  0.88156  0.61677  0.01386  1
