CIF file written using JARVIS-Tools package.
data_NaSrMg6
_symmetry_space_group_name_H-M  'Amm2'
_cell_length_a       7.06853
_cell_length_b       7.06853
_cell_length_c       5.31637
_cell_angle_alpha    90
_cell_angle_beta     90
_cell_angle_gamma    123.192

_symmetry_Int_Tables_number  38
_chemical_formula_structural  NaSrMg6
_chemical_formula_sum  NaSrMg6
_cell_volume  222.28701510949244
_cell_formula_units_Z  1
loop_
  _symmetry_equiv_pos_site_id
 _symmetry_equiv_pos_as_xyz
 1  'x, y, z'
loop_
 _atom_site_type_symbol
 _atom_site_label
 _atom_site_symmetry_multiplicity
 _atom_site_fract_x
 _atom_site_fract_y
 _atom_site_fract_z
 _atom_site_fract_occupancy
 Mg  Mg1  1  0.17631  0.82599  0.25000  1
 Mg  Mg2  1  0.67401  0.32369  0.25000  1
 Mg  Mg3  1  0.68970  0.81030  0.25000  1
 Mg  Mg4  1  0.33542  0.69383  0.75000  1
 Mg  Mg5  1  0.80617  0.16458  0.75000  1
 Mg  Mg6  1  0.85450  0.64550  0.75000  1
 Na  Na1  1  0.14828  0.35172  0.25000  1
 Sr  Sr1  1  0.31561  0.18439  0.75000  1
