CIF file written using JARVIS-Tools package.
data_HoAgTe2
_symmetry_space_group_name_H-M  'P-42_1m'
_cell_length_a       7.07185
_cell_length_b       7.07185
_cell_length_c       4.67051
_cell_angle_alpha    90
_cell_angle_beta     90
_cell_angle_gamma    90

_symmetry_Int_Tables_number  113
_chemical_formula_structural  HoAgTe2
_chemical_formula_sum  Ho2Ag2Te4
_cell_volume  233.57688203526155
_cell_formula_units_Z  2
loop_
  _symmetry_equiv_pos_site_id
 _symmetry_equiv_pos_as_xyz
 1  'x, y, z'
loop_
 _atom_site_type_symbol
 _atom_site_label
 _atom_site_symmetry_multiplicity
 _atom_site_fract_x
 _atom_site_fract_y
 _atom_site_fract_z
 _atom_site_fract_occupancy
 Ag  Ag1  1  0.00000  0.00000  0.00000  1
 Ag  Ag2  1  0.50000  0.50000  0.00000  1
 Ho  Ho1  1  0.50000  0.00000  0.18831  1
 Ho  Ho2  1  0.00000  0.50000  0.81169  1
 Te  Te1  1  0.20250  0.29750  0.29513  1
 Te  Te2  1  0.70250  0.20250  0.70487  1
 Te  Te3  1  0.79750  0.70250  0.29513  1
 Te  Te4  1  0.29750  0.79750  0.70487  1
