CIF file written using JARVIS-Tools package.
data_Cu12As4S13
_symmetry_space_group_name_H-M  'I-43m'
_cell_length_a       8.87463
_cell_length_b       8.87463
_cell_length_c       8.87463
_cell_angle_alpha    109.471
_cell_angle_beta     109.471
_cell_angle_gamma    109.471

_symmetry_Int_Tables_number  217
_chemical_formula_structural  Cu12As4S13
_chemical_formula_sum  Cu2As4S3
_cell_volume  538.0567818180009
_cell_formula_units_Z  1
loop_
  _symmetry_equiv_pos_site_id
 _symmetry_equiv_pos_as_xyz
 1  'x, y, z'
loop_
 _atom_site_type_symbol
 _atom_site_label
 _atom_site_symmetry_multiplicity
 _atom_site_fract_x
 _atom_site_fract_y
 _atom_site_fract_z
 _atom_site_fract_occupancy
 As  As1  1  0.47137  -0.00000  0.00000  1
 As  As2  1  0.00000  0.00000  0.47137  1
 As  As3  1  -0.00000  0.47137  0.00000  1
 As  As4  1  0.52863  0.52863  0.52863  1
 Cu  Cu1  1  0.77799  0.00000  0.77799  1
 Cu  Cu2  1  -0.00000  0.22201  0.22201  1
 Cu  Cu3  1  0.50000  0.75000  0.25000  1
 Cu  Cu4  1  0.25000  0.75000  0.50000  1
 Cu  Cu5  1  0.77799  0.77799  0.00000  1
 Cu  Cu6  1  0.25000  0.50000  0.75000  1
 Cu  Cu7  1  0.75000  0.50000  0.25000  1
 Cu  Cu8  1  0.50000  0.25000  0.75000  1
 Cu  Cu9  1  0.22201  -0.00000  0.22201  1
 Cu  Cu10  1  0.22201  0.22201  -0.00000  1
 Cu  Cu11  1  0.00000  0.77799  0.77799  1
 Cu  Cu12  1  0.75000  0.25000  0.50000  1
 S  S1  1  0.23991  0.48043  0.48043  1
 S  S2  1  0.00000  0.51957  0.75948  1
 S  S3  1  0.51957  0.00000  0.75948  1
 S  S4  1  0.75948  -0.00000  0.51957  1
 S  S5  1  0.24052  0.76009  0.24052  1
 S  S6  1  0.51957  0.75948  0.00000  1
 S  S7  1  -0.00000  0.75948  0.51957  1
 S  S8  1  0.75948  0.51957  0.00000  1
 S  S9  1  0.48043  0.48043  0.23991  1
 S  S10  1  0.24052  0.24052  0.76009  1
 S  S11  1  0.48043  0.23991  0.48043  1
 S  S12  1  0.76009  0.24052  0.24052  1
 S  S13  1  0.00000  0.00000  0.00000  1
