CIF file written using JARVIS-Tools package.
data_CrTe
_symmetry_space_group_name_H-M  'P6_3/mmc'
_cell_length_a       4.11817
_cell_length_b       6.33666
_cell_length_c       7.13196
_cell_angle_alpha    90
_cell_angle_beta     90
_cell_angle_gamma    90

_symmetry_Int_Tables_number  194
_chemical_formula_structural  CrTe
_chemical_formula_sum  Cr4Te4
_cell_volume  186.11178263448951
_cell_formula_units_Z  4
loop_
  _symmetry_equiv_pos_site_id
 _symmetry_equiv_pos_as_xyz
 1  'x, y, z'
loop_
 _atom_site_type_symbol
 _atom_site_label
 _atom_site_symmetry_multiplicity
 _atom_site_fract_x
 _atom_site_fract_y
 _atom_site_fract_z
 _atom_site_fract_occupancy
 Cr  Cr1  1  0.75000  0.99998  0.74999  1
 Cr  Cr2  1  0.25000  0.00002  0.25001  1
 Cr  Cr3  1  0.75000  0.49998  0.75001  1
 Cr  Cr4  1  0.25000  0.50002  0.24999  1
 Te  Te1  1  0.75000  0.75000  0.41666  1
 Te  Te2  1  0.25000  0.25001  0.58334  1
 Te  Te3  1  0.75000  0.25000  0.08334  1
 Te  Te4  1  0.25000  0.75000  0.91666  1
