CIF file written using JARVIS-Tools package.
data_CaMg6Ti
_symmetry_space_group_name_H-M  'P4/mmm'
_cell_length_a       6.46072
_cell_length_b       9.13466
_cell_length_c       4.48495
_cell_angle_alpha    90
_cell_angle_beta     90
_cell_angle_gamma    134.986

_symmetry_Int_Tables_number  123
_chemical_formula_structural  CaMg6Ti
_chemical_formula_sum  CaMg6Ti
_cell_volume  187.20577987530646
_cell_formula_units_Z  1
loop_
  _symmetry_equiv_pos_site_id
 _symmetry_equiv_pos_as_xyz
 1  'x, y, z'
loop_
 _atom_site_type_symbol
 _atom_site_label
 _atom_site_symmetry_multiplicity
 _atom_site_fract_x
 _atom_site_fract_y
 _atom_site_fract_z
 _atom_site_fract_occupancy
 Ca  Ca1  1  0.25004  0.37502  0.25000  1
 Mg  Mg1  1  0.74997  0.37496  0.25000  1
 Mg  Mg2  1  0.74997  0.87501  0.25000  1
 Mg  Mg3  1  0.24997  0.10701  0.75000  1
 Mg  Mg4  1  0.24997  0.64296  0.75000  1
 Mg  Mg5  1  0.71408  0.10704  0.75000  1
 Mg  Mg6  1  0.78599  0.64300  0.75000  1
 Ti  Ti1  1  0.25000  0.87500  0.25000  1
