CIF file written using JARVIS-Tools package.
data_P2Os
_symmetry_space_group_name_H-M  'Pnnm'
_cell_length_a       2.97248
_cell_length_b       5.14716
_cell_length_c       5.96363
_cell_angle_alpha    90
_cell_angle_beta     90
_cell_angle_gamma    90

_symmetry_Int_Tables_number  58
_chemical_formula_structural  P2Os
_chemical_formula_sum  P4Os2
_cell_volume  91.24237183900473
_cell_formula_units_Z  2
loop_
  _symmetry_equiv_pos_site_id
 _symmetry_equiv_pos_as_xyz
 1  'x, y, z'
loop_
 _atom_site_type_symbol
 _atom_site_label
 _atom_site_symmetry_multiplicity
 _atom_site_fract_x
 _atom_site_fract_y
 _atom_site_fract_z
 _atom_site_fract_occupancy
 Os  Os1  1  0.50000  0.50000  0.50000  1
 Os  Os2  1  0.00000  0.00000  0.00000  1
 P  P1  1  0.50000  0.33717  0.87251  1
 P  P2  1  0.50000  0.66283  0.12749  1
 P  P3  1  0.00000  0.16283  0.37251  1
 P  P4  1  0.00000  0.83717  0.62749  1
