CIF file written using JARVIS-Tools package.
data_ThSe2O7
_symmetry_space_group_name_H-M  'P2_1/c'
_cell_length_a       7.05495
_cell_length_b       9.08283
_cell_length_c       9.65291
_cell_angle_alpha    90
_cell_angle_beta     90
_cell_angle_gamma    102.852

_symmetry_Int_Tables_number  14
_chemical_formula_structural  ThSe2O7
_chemical_formula_sum  Th4Se8O28
_cell_volume  603.0526206243356
_cell_formula_units_Z  4
loop_
  _symmetry_equiv_pos_site_id
 _symmetry_equiv_pos_as_xyz
 1  'x, y, z'
loop_
 _atom_site_type_symbol
 _atom_site_label
 _atom_site_symmetry_multiplicity
 _atom_site_fract_x
 _atom_site_fract_y
 _atom_site_fract_z
 _atom_site_fract_occupancy
 O  O1  1  0.89636  0.87541  0.43792  1
 O  O2  1  0.89636  0.37541  0.06208  1
 O  O3  1  0.72806  0.35365  0.58513  1
 O  O4  1  0.06048  0.90644  0.76755  1
 O  O5  1  0.74251  0.02535  0.69126  1
 O  O6  1  0.65872  0.24577  0.27308  1
 O  O7  1  0.34128  0.75423  0.72692  1
 O  O8  1  0.25749  0.97465  0.30874  1
 O  O9  1  0.06048  0.40644  0.73245  1
 O  O10  1  0.72806  0.85365  0.91487  1
 O  O11  1  0.34128  0.25423  0.77308  1
 O  O12  1  0.54853  0.38999  0.05741  1
 O  O13  1  0.04739  0.36321  0.41525  1
 O  O14  1  0.45147  0.61001  0.94259  1
 O  O15  1  0.10364  0.62459  0.93792  1
 O  O16  1  0.74251  0.52535  0.80874  1
 O  O17  1  0.04739  0.86321  0.08475  1
 O  O18  1  0.93952  0.09356  0.23245  1
 O  O19  1  0.95261  0.63679  0.58475  1
 O  O20  1  0.65872  0.74577  0.22692  1
 O  O21  1  0.45147  0.11001  0.55741  1
 O  O22  1  0.95261  0.13679  0.91525  1
 O  O23  1  0.10364  0.12459  0.56208  1
 O  O24  1  0.27194  0.14635  0.08513  1
 O  O25  1  0.54853  0.88999  0.44259  1
 O  O26  1  0.25749  0.47465  0.19126  1
 O  O27  1  0.27194  0.64635  0.41487  1
 O  O28  1  0.93952  0.59356  0.26755  1
 Se  Se1  1  0.67197  0.24804  0.09614  1
 Se  Se2  1  0.87759  0.98326  0.81941  1
 Se  Se3  1  0.12241  0.51674  0.31941  1
 Se  Se4  1  0.32803  0.75196  0.90386  1
 Se  Se5  1  0.12241  0.01674  0.18059  1
 Se  Se6  1  0.32803  0.25196  0.59614  1
 Se  Se7  1  0.87759  0.48326  0.68059  1
 Se  Se8  1  0.67197  0.74804  0.40386  1
 Th  Th1  1  0.21003  0.36702  0.96001  1
 Th  Th2  1  0.21003  0.86702  0.53999  1
 Th  Th3  1  0.78997  0.63298  0.03999  1
 Th  Th4  1  0.78997  0.13298  0.46001  1
