CIF file written using JARVIS-Tools package.
data_UGaCu
_symmetry_space_group_name_H-M  'P6_3mc'
_cell_length_a       4.65032
_cell_length_b       4.65032
_cell_length_c       5.68066
_cell_angle_alpha    90
_cell_angle_beta     90
_cell_angle_gamma    120

_symmetry_Int_Tables_number  186
_chemical_formula_structural  UGaCu
_chemical_formula_sum  U2Ga2Cu2
_cell_volume  106.3890852802845
_cell_formula_units_Z  2
loop_
  _symmetry_equiv_pos_site_id
 _symmetry_equiv_pos_as_xyz
 1  'x, y, z'
loop_
 _atom_site_type_symbol
 _atom_site_label
 _atom_site_symmetry_multiplicity
 _atom_site_fract_x
 _atom_site_fract_y
 _atom_site_fract_z
 _atom_site_fract_occupancy
 Cu  Cu1  1  0.66667  0.33333  0.74589  1
 Cu  Cu2  1  0.33333  0.66667  0.24589  1
 Ga  Ga1  1  0.66667  0.33333  0.25872  1
 Ga  Ga2  1  0.33333  0.66667  0.75872  1
 U  U1  1  0.00000  0.00000  0.00440  1
 U  U2  1  0.00000  0.00000  0.50440  1
