CIF file written using JARVIS-Tools package.
data_Mg6SbW
_symmetry_space_group_name_H-M  'Amm2'
_cell_length_a       6.08178
_cell_length_b       6.08178
_cell_length_c       5.02005
_cell_angle_alpha    90
_cell_angle_beta     90
_cell_angle_gamma    118.799

_symmetry_Int_Tables_number  38
_chemical_formula_structural  Mg6SbW
_chemical_formula_sum  Mg6SbW
_cell_volume  162.71618905663712
_cell_formula_units_Z  1
loop_
  _symmetry_equiv_pos_site_id
 _symmetry_equiv_pos_as_xyz
 1  'x, y, z'
loop_
 _atom_site_type_symbol
 _atom_site_label
 _atom_site_symmetry_multiplicity
 _atom_site_fract_x
 _atom_site_fract_y
 _atom_site_fract_z
 _atom_site_fract_occupancy
 Mg  Mg1  1  0.16208  0.82368  0.25000  1
 Mg  Mg2  1  0.67632  0.33792  0.25000  1
 Mg  Mg3  1  0.66609  0.83391  0.25000  1
 Mg  Mg4  1  0.32443  0.65277  0.75000  1
 Mg  Mg5  1  0.84723  0.17557  0.75000  1
 Mg  Mg6  1  0.83216  0.66784  0.75000  1
 Sb  Sb1  1  0.32498  0.17502  0.75000  1
 W  W1  1  0.16670  0.33330  0.25000  1
