CIF file written using JARVIS-Tools package.
data_Mn2OF3
_symmetry_space_group_name_H-M  'C2/m'
_cell_length_a       4.81042
_cell_length_b       5.68343
_cell_length_c       5.68343
_cell_angle_alpha    112.653
_cell_angle_beta     93.3071
_cell_angle_gamma    86.6929

_symmetry_Int_Tables_number  12
_chemical_formula_structural  Mn2OF3
_chemical_formula_sum  Mn4O2F6
_cell_volume  143.05161345241862
_cell_formula_units_Z  2
loop_
  _symmetry_equiv_pos_site_id
 _symmetry_equiv_pos_as_xyz
 1  'x, y, z'
loop_
 _atom_site_type_symbol
 _atom_site_label
 _atom_site_symmetry_multiplicity
 _atom_site_fract_x
 _atom_site_fract_y
 _atom_site_fract_z
 _atom_site_fract_occupancy
 F  F1  1  0.81837  0.63903  0.85572  1
 F  F2  1  0.81837  0.14428  0.36097  1
 F  F3  1  0.66723  0.13303  0.86697  1
 F  F4  1  0.33277  0.86697  0.13303  1
 F  F5  1  0.18163  0.36097  0.14428  1
 F  F6  1  0.18163  0.85572  0.63903  1
 Mn  Mn1  1  0.50000  0.00000  0.50000  1
 Mn  Mn2  1  0.50000  0.50000  0.00000  1
 Mn  Mn3  1  0.00000  0.50000  0.50000  1
 Mn  Mn4  1  0.00000  0.00000  0.00000  1
 O  O1  1  0.68197  0.65175  0.34825  1
 O  O2  1  0.31803  0.34825  0.65175  1
