CIF file written using JARVIS-Tools package.
data_Co2SiO4
_symmetry_space_group_name_H-M  'Pnma'
_cell_length_a       4.86806
_cell_length_b       5.91513
_cell_length_c       10.1558
_cell_angle_alpha    90.0031
_cell_angle_beta     90.0006
_cell_angle_gamma    90.0012

_symmetry_Int_Tables_number  62
_chemical_formula_structural  Co2SiO4
_chemical_formula_sum  Co8Si4O6
_cell_volume  292.4381368439916
_cell_formula_units_Z  4
loop_
  _symmetry_equiv_pos_site_id
 _symmetry_equiv_pos_as_xyz
 1  'x, y, z'
loop_
 _atom_site_type_symbol
 _atom_site_label
 _atom_site_symmetry_multiplicity
 _atom_site_fract_x
 _atom_site_fract_y
 _atom_site_fract_z
 _atom_site_fract_occupancy
 Co  Co1  1  0.99277  0.24996  0.26942  1
 Co  Co2  1  0.50002  0.00007  0.49998  1
 Co  Co3  1  0.49277  0.75000  0.23059  1
 Co  Co4  1  0.50721  0.25000  0.76944  1
 Co  Co5  1  0.00001  0.50008  0.00002  1
 Co  Co6  1  0.00721  0.75003  0.73055  1
 Co  Co7  1  0.50002  0.49992  0.49998  1
 Co  Co8  1  0.00001  -0.00006  0.00002  1
 O  O1  1  0.71631  0.97137  0.83504  1
 O  O2  1  0.20890  0.24997  0.44384  1
 O  O3  1  0.28371  0.02865  0.16497  1
 O  O4  1  0.76740  0.25001  0.09180  1
 O  O5  1  0.70889  0.75001  0.05616  1
 O  O6  1  0.26741  0.74998  0.40819  1
 O  O7  1  0.71631  0.52864  0.83504  1
 O  O8  1  0.29102  0.25000  0.94385  1
 O  O9  1  0.73261  0.25001  0.59184  1
 O  O10  1  0.21631  0.47140  0.66495  1
 O  O11  1  0.78371  0.97131  0.33502  1
 O  O12  1  0.79102  0.75002  0.55615  1
 O  O13  1  0.28370  0.47138  0.16497  1
 O  O14  1  0.23260  0.75000  0.90816  1
 O  O15  1  0.21632  0.02867  0.66498  1
 O  O16  1  0.78371  0.52859  0.33505  1
 Si  Si1  1  0.06937  0.25001  0.59392  1
 Si  Si2  1  0.93065  0.74997  0.40610  1
 Si  Si3  1  0.56936  0.75000  0.90608  1
 Si  Si4  1  0.43064  0.25001  0.09391  1
