CIF file written using JARVIS-Tools package.
data_Li3CuF4
_symmetry_space_group_name_H-M  'C2'
_cell_length_a       2.87015
_cell_length_b       2.87005
_cell_length_c       21.7585
_cell_angle_alpha    82.4627
_cell_angle_beta     105.209
_cell_angle_gamma    120.003

_symmetry_Int_Tables_number  5
_chemical_formula_structural  Li3CuF4
_chemical_formula_sum  Li6Cu2F8
_cell_volume  149.7807081751259
_cell_formula_units_Z  2
loop_
  _symmetry_equiv_pos_site_id
 _symmetry_equiv_pos_as_xyz
 1  'x, y, z'
loop_
 _atom_site_type_symbol
 _atom_site_label
 _atom_site_symmetry_multiplicity
 _atom_site_fract_x
 _atom_site_fract_y
 _atom_site_fract_z
 _atom_site_fract_occupancy
 Cu  Cu1  1  0.50001  0.00012  0.25000  1
 Cu  Cu2  1  0.49999  -0.00008  0.75000  1
 F  F1  1  0.67673  0.00067  0.33810  1
 F  F2  1  0.77707  0.33277  0.05506  1
 F  F3  1  0.55629  0.33401  0.44494  1
 F  F4  1  0.67777  -0.00061  0.83809  1
 F  F5  1  0.32331  -0.00043  0.16190  1
 F  F6  1  0.44253  0.66724  0.55507  1
 F  F7  1  0.32219  0.00044  0.66191  1
 F  F8  1  0.22412  0.66605  0.94493  1
 Li  Li1  1  0.00061  0.99939  -0.00001  1
 Li  Li2  1  0.99939  0.00065  0.50001  1
 Li  Li3  1  0.88661  0.33382  0.61062  1
 Li  Li4  1  0.44669  0.33272  0.88939  1
 Li  Li5  1  0.55448  0.66616  0.11061  1
 Li  Li6  1  0.11223  0.66737  0.38940  1
