CIF file written using JARVIS-Tools package.
data_LiVF5
_symmetry_space_group_name_H-M  'P2_1/c'
_cell_length_a       5.21278
_cell_length_b       10.0971
_cell_length_c       6.28711
_cell_angle_alpha    90
_cell_angle_beta     104.817
_cell_angle_gamma    90

_symmetry_Int_Tables_number  14
_chemical_formula_structural  LiVF5
_chemical_formula_sum  Li4V4F20
_cell_volume  319.91161586902456
_cell_formula_units_Z  4
loop_
  _symmetry_equiv_pos_site_id
 _symmetry_equiv_pos_as_xyz
 1  'x, y, z'
loop_
 _atom_site_type_symbol
 _atom_site_label
 _atom_site_symmetry_multiplicity
 _atom_site_fract_x
 _atom_site_fract_y
 _atom_site_fract_z
 _atom_site_fract_occupancy
 F  F1  1  0.62205  0.41595  0.08575  1
 F  F2  1  0.16230  0.07852  0.68791  1
 F  F3  1  0.20533  0.81645  0.68529  1
 F  F4  1  0.26700  0.35052  0.69240  1
 F  F5  1  0.37795  0.58405  0.91425  1
 F  F6  1  0.16230  0.42148  0.18791  1
 F  F7  1  0.79467  0.18355  0.31471  1
 F  F8  1  0.26700  0.14948  0.19240  1
 F  F9  1  0.36396  0.58055  0.53139  1
 F  F10  1  0.20533  0.68355  0.18529  1
 F  F11  1  0.37795  0.91595  0.41425  1
 F  F12  1  0.79467  0.31645  0.81471  1
 F  F13  1  0.62205  0.08405  0.58575  1
 F  F14  1  0.83770  0.92148  0.31209  1
 F  F15  1  0.83770  0.57852  0.81209  1
 F  F16  1  0.73300  0.64948  0.30760  1
 F  F17  1  0.73300  0.85052  0.80760  1
 F  F18  1  0.63604  0.41945  0.46861  1
 F  F19  1  0.36396  0.91945  0.03139  1
 F  F20  1  0.63604  0.08055  0.96861  1
 Li  Li1  1  0.97134  0.26447  0.11373  1
 Li  Li2  1  0.97134  0.23553  0.61373  1
 Li  Li3  1  0.02866  0.76447  0.38627  1
 Li  Li4  1  0.02866  0.73553  0.88627  1
 V  V1  1  0.56070  0.04000  0.26127  1
 V  V2  1  0.43930  0.54000  0.23873  1
 V  V3  1  0.56070  0.46000  0.76127  1
 V  V4  1  0.43930  0.96000  0.73873  1
