CIF file written using JARVIS-Tools package.
data_Mg6CrCu
_symmetry_space_group_name_H-M  'Amm2'
_cell_length_a       6.0968
_cell_length_b       6.0968
_cell_length_c       4.87572
_cell_angle_alpha    90
_cell_angle_beta     90
_cell_angle_gamma    119.327

_symmetry_Int_Tables_number  38
_chemical_formula_structural  Mg6CrCu
_chemical_formula_sum  Mg6CrCu
_cell_volume  158.00800830806094
_cell_formula_units_Z  1
loop_
  _symmetry_equiv_pos_site_id
 _symmetry_equiv_pos_as_xyz
 1  'x, y, z'
loop_
 _atom_site_type_symbol
 _atom_site_label
 _atom_site_symmetry_multiplicity
 _atom_site_fract_x
 _atom_site_fract_y
 _atom_site_fract_z
 _atom_site_fract_occupancy
 Cr  Cr1  1  0.33382  0.16618  0.75000  1
 Cu  Cu1  1  0.17358  0.32642  0.25000  1
 Mg  Mg1  1  0.16551  0.85030  0.25000  1
 Mg  Mg2  1  0.64970  0.33449  0.25000  1
 Mg  Mg3  1  0.66261  0.83739  0.25000  1
 Mg  Mg4  1  0.32737  0.64810  0.75000  1
 Mg  Mg5  1  0.85190  0.17263  0.75000  1
 Mg  Mg6  1  0.83552  0.66448  0.75000  1
