CIF file written using JARVIS-Tools package.
data_NdSiPt
_symmetry_space_group_name_H-M  'I4_1md'
_cell_length_a       4.22454
_cell_length_b       4.22454
_cell_length_c       7.84631
_cell_angle_alpha    105.617
_cell_angle_beta     105.617
_cell_angle_gamma    90

_symmetry_Int_Tables_number  109
_chemical_formula_structural  NdSiPt
_chemical_formula_sum  Nd2Si2Pt2
_cell_volume  129.48566310791279
_cell_formula_units_Z  2
loop_
  _symmetry_equiv_pos_site_id
 _symmetry_equiv_pos_as_xyz
 1  'x, y, z'
loop_
 _atom_site_type_symbol
 _atom_site_label
 _atom_site_symmetry_multiplicity
 _atom_site_fract_x
 _atom_site_fract_y
 _atom_site_fract_z
 _atom_site_fract_occupancy
 Nd  Nd1  1  0.24916  0.74916  0.49832  1
 Nd  Nd2  1  0.99916  0.99916  0.99832  1
 Pt  Pt1  1  0.83637  0.33637  0.67275  1
 Pt  Pt2  1  0.58637  0.58637  0.17275  1
 Si  Si1  1  0.66847  0.16847  0.33693  1
 Si  Si2  1  0.41847  0.41847  0.83693  1
