CIF file written using JARVIS-Tools package.
data_SrMnBi2
_symmetry_space_group_name_H-M  'I4/mmm'
_cell_length_a       4.63563
_cell_length_b       4.63563
_cell_length_c       11.5553
_cell_angle_alpha    101.571
_cell_angle_beta     101.571
_cell_angle_gamma    90

_symmetry_Int_Tables_number  139
_chemical_formula_structural  SrMnBi2
_chemical_formula_sum  Sr2Mn2Bi4
_cell_volume  238.1133646933805
_cell_formula_units_Z  2
loop_
  _symmetry_equiv_pos_site_id
 _symmetry_equiv_pos_as_xyz
 1  'x, y, z'
loop_
 _atom_site_type_symbol
 _atom_site_label
 _atom_site_symmetry_multiplicity
 _atom_site_fract_x
 _atom_site_fract_y
 _atom_site_fract_z
 _atom_site_fract_occupancy
 Bi  Bi1  1  0.50000  0.00000  0.00000  1
 Bi  Bi2  1  -0.00000  0.50000  0.00000  1
 Bi  Bi3  1  0.32356  0.32356  0.64711  1
 Bi  Bi4  1  0.67644  0.67644  0.35289  1
 Mn  Mn1  1  0.25000  0.75000  0.50000  1
 Mn  Mn2  1  0.75000  0.25000  0.50000  1
 Sr  Sr1  1  0.87963  0.87963  0.75927  1
 Sr  Sr2  1  0.12037  0.12037  0.24073  1
