CIF file written using JARVIS-Tools package.
data_Mg2Zn
_symmetry_space_group_name_H-M  'P-62m'
_cell_length_a       5.38409
_cell_length_b       5.38409
_cell_length_c       4.67382
_cell_angle_alpha    90
_cell_angle_beta     90
_cell_angle_gamma    120

_symmetry_Int_Tables_number  189
_chemical_formula_structural  Mg2Zn
_chemical_formula_sum  Mg4Zn2
_cell_volume  117.33465137367061
_cell_formula_units_Z  2
loop_
  _symmetry_equiv_pos_site_id
 _symmetry_equiv_pos_as_xyz
 1  'x, y, z'
loop_
 _atom_site_type_symbol
 _atom_site_label
 _atom_site_symmetry_multiplicity
 _atom_site_fract_x
 _atom_site_fract_y
 _atom_site_fract_z
 _atom_site_fract_occupancy
 Mg  Mg1  1  0.64774  -0.00000  0.00000  1
 Mg  Mg2  1  0.00000  0.64774  0.00000  1
 Mg  Mg3  1  0.35226  0.35226  0.00000  1
 Mg  Mg4  1  0.00000  0.00000  0.50000  1
 Zn  Zn1  1  0.33333  0.66667  0.50000  1
 Zn  Zn2  1  0.66667  0.33333  0.50000  1
