CIF file written using JARVIS-Tools package.
data_KIO3
_symmetry_space_group_name_H-M  'R3m'
_cell_length_a       4.43069
_cell_length_b       4.4307
_cell_length_c       4.43069
_cell_angle_alpha    88.5785
_cell_angle_beta     88.5785
_cell_angle_gamma    88.5785

_symmetry_Int_Tables_number  160
_chemical_formula_structural  KIO3
_chemical_formula_sum  KIO3
_cell_volume  86.89994899484262
_cell_formula_units_Z  1
loop_
  _symmetry_equiv_pos_site_id
 _symmetry_equiv_pos_as_xyz
 1  'x, y, z'
loop_
 _atom_site_type_symbol
 _atom_site_label
 _atom_site_symmetry_multiplicity
 _atom_site_fract_x
 _atom_site_fract_y
 _atom_site_fract_z
 _atom_site_fract_occupancy
 I  I1  1  0.00783  0.00783  0.00783  1
 K  K1  1  0.50945  0.50945  0.50945  1
 O  O1  1  0.04685  0.59224  0.04686  1
 O  O2  1  0.59224  0.04686  0.04685  1
 O  O3  1  0.04686  0.04685  0.59224  1
