CIF file written using JARVIS-Tools package.
data_LiGaSi2O6
_symmetry_space_group_name_H-M  'P2_1/c'
_cell_length_a       5.27201
_cell_length_b       8.67108
_cell_length_c       9.2433
_cell_angle_alpha    90
_cell_angle_beta     102.326
_cell_angle_gamma    90

_symmetry_Int_Tables_number  14
_chemical_formula_structural  LiGaSi2O6
_chemical_formula_sum  Li4Ga4Si8O24
_cell_volume  412.80856894666033
_cell_formula_units_Z  4
loop_
  _symmetry_equiv_pos_site_id
 _symmetry_equiv_pos_as_xyz
 1  'x, y, z'
loop_
 _atom_site_type_symbol
 _atom_site_label
 _atom_site_symmetry_multiplicity
 _atom_site_fract_x
 _atom_site_fract_y
 _atom_site_fract_z
 _atom_site_fract_occupancy
 Ga  Ga1  1  0.52124  0.85034  0.25018  1
 Ga  Ga2  1  0.02124  0.64966  0.25018  1
 Ga  Ga3  1  0.97876  0.35034  0.74982  1
 Ga  Ga4  1  0.47876  0.14966  0.74982  1
 Li  Li1  1  0.01918  0.00474  0.24904  1
 Li  Li2  1  0.48082  0.50474  0.75096  1
 Li  Li3  1  0.98082  0.99526  0.75096  1
 Li  Li4  1  0.51918  0.49526  0.24904  1
 O  O1  1  0.97828  0.77064  0.88929  1
 O  O2  1  0.47828  0.72936  0.88929  1
 O  O3  1  0.30050  0.66771  0.13470  1
 O  O4  1  0.88790  0.28780  0.39479  1
 O  O5  1  0.38790  0.21220  0.39479  1
 O  O6  1  0.11210  0.71220  0.60521  1
 O  O7  1  0.24065  0.83346  0.36653  1
 O  O8  1  0.19518  0.48727  0.88474  1
 O  O9  1  0.52172  0.27064  0.11071  1
 O  O10  1  0.75929  0.49778  0.62587  1
 O  O11  1  0.25935  0.33346  0.63347  1
 O  O12  1  0.75935  0.16654  0.63347  1
 O  O13  1  0.74065  0.66654  0.36653  1
 O  O14  1  0.69518  0.01273  0.88474  1
 O  O15  1  0.02172  0.22936  0.11071  1
 O  O16  1  0.80482  0.51273  0.11526  1
 O  O17  1  0.24071  0.50222  0.37413  1
 O  O18  1  0.74071  0.99778  0.37413  1
 O  O19  1  0.80050  0.83229  0.13470  1
 O  O20  1  0.19950  0.16771  0.86530  1
 O  O21  1  0.30482  0.98727  0.11526  1
 O  O22  1  0.69950  0.33229  0.86530  1
 O  O23  1  0.25929  0.00222  0.62587  1
 O  O24  1  0.61210  0.78780  0.60521  1
 Si  Si1  1  0.23058  0.65935  0.95088  1
 Si  Si2  1  0.80571  0.66081  0.55108  1
 Si  Si3  1  0.69429  0.16081  0.44892  1
 Si  Si4  1  0.19429  0.33919  0.44892  1
 Si  Si5  1  0.30571  0.83919  0.55108  1
 Si  Si6  1  0.26942  0.15935  0.04912  1
 Si  Si7  1  0.73058  0.84065  0.95088  1
 Si  Si8  1  0.76942  0.34065  0.04912  1
