CIF file written using JARVIS-Tools package.
data_BaSn
_symmetry_space_group_name_H-M  'Cmcm'
_cell_length_a       4.7052
_cell_length_b       5.33373
_cell_length_c       6.86176
_cell_angle_alpha    112.871
_cell_angle_beta     90
_cell_angle_gamma    90

_symmetry_Int_Tables_number  63
_chemical_formula_structural  BaSn
_chemical_formula_sum  Ba2Sn2
_cell_volume  158.6664206163643
_cell_formula_units_Z  2
loop_
  _symmetry_equiv_pos_site_id
 _symmetry_equiv_pos_as_xyz
 1  'x, y, z'
loop_
 _atom_site_type_symbol
 _atom_site_label
 _atom_site_symmetry_multiplicity
 _atom_site_fract_x
 _atom_site_fract_y
 _atom_site_fract_z
 _atom_site_fract_occupancy
 Ba  Ba1  1  0.25000  0.86432  0.72864  1
 Ba  Ba2  1  0.75000  0.13568  0.27136  1
 Sn  Sn1  1  0.25000  0.57441  0.14883  1
 Sn  Sn2  1  0.75000  0.42559  0.85117  1
