CIF file written using JARVIS-Tools package.
data_Mn3OF5
_symmetry_space_group_name_H-M  'Cm'
_cell_length_a       7.3876
_cell_length_b       5.80545
_cell_length_c       5.80545
_cell_angle_alpha    73.7188
_cell_angle_beta     74.0326
_cell_angle_gamma    74.0326

_symmetry_Int_Tables_number  8
_chemical_formula_structural  Mn3OF5
_chemical_formula_sum  Mn6O2F0
_cell_volume  224.43066696384633
_cell_formula_units_Z  2
loop_
  _symmetry_equiv_pos_site_id
 _symmetry_equiv_pos_as_xyz
 1  'x, y, z'
loop_
 _atom_site_type_symbol
 _atom_site_label
 _atom_site_symmetry_multiplicity
 _atom_site_fract_x
 _atom_site_fract_y
 _atom_site_fract_z
 _atom_site_fract_occupancy
 F  F1  1  0.67708  0.63778  0.03557  1
 F  F2  1  0.98911  0.30005  0.69507  1
 F  F3  1  0.33607  0.36099  0.97646  1
 F  F4  1  0.30949  0.87947  0.87947  1
 F  F5  1  0.67708  0.03557  0.63778  1
 F  F6  1  0.96886  0.22879  0.22879  1
 F  F7  1  0.70019  0.10510  0.10510  1
 F  F8  1  0.33607  0.97646  0.36099  1
 F  F9  1  0.98911  0.69507  0.30005  1
 F  F10  1  0.62017  0.58635  0.58635  1
 Mn  Mn1  1  0.99726  0.98443  0.98443  1
 Mn  Mn2  1  0.49675  0.99847  0.99847  1
 Mn  Mn3  1  0.17508  0.33903  0.33903  1
 Mn  Mn4  1  0.31815  0.65656  0.65656  1
 Mn  Mn5  1  0.65297  0.34204  0.34204  1
 Mn  Mn6  1  0.84489  0.67271  0.67271  1
 O  O1  1  0.36337  0.44491  0.44491  1
 O  O2  1  0.04830  0.75620  0.75620  1
