CIF file written using JARVIS-Tools package.
data_BeSnPb2
_symmetry_space_group_name_H-M  'I-4m2'
_cell_length_a       5.89595
_cell_length_b       5.89595
_cell_length_c       5.89595
_cell_angle_alpha    133.755
_cell_angle_beta     133.755
_cell_angle_gamma    67.4706

_symmetry_Int_Tables_number  119
_chemical_formula_structural  BeSnPb2
_chemical_formula_sum  BeSnPb2
_cell_volume  105.13739821534871
_cell_formula_units_Z  1
loop_
  _symmetry_equiv_pos_site_id
 _symmetry_equiv_pos_as_xyz
 1  'x, y, z'
loop_
 _atom_site_type_symbol
 _atom_site_label
 _atom_site_symmetry_multiplicity
 _atom_site_fract_x
 _atom_site_fract_y
 _atom_site_fract_z
 _atom_site_fract_occupancy
 Be  Be1  1  0.75000  0.25000  0.50000  1
 Pb  Pb1  1  0.00000  0.00000  0.00000  1
 Pb  Pb2  1  0.25000  0.75000  0.50000  1
 Sn  Sn1  1  0.50000  0.50000  0.00000  1
