CIF file written using JARVIS-Tools package.
data_Mg6CoSb
_symmetry_space_group_name_H-M  'Amm2'
_cell_length_a       6.189
_cell_length_b       6.44462
_cell_length_c       4.766
_cell_angle_alpha    90
_cell_angle_beta     90
_cell_angle_gamma    121.376

_symmetry_Int_Tables_number  38
_chemical_formula_structural  Mg6CoSb
_chemical_formula_sum  Mg6CoSb
_cell_volume  162.29772413580446
_cell_formula_units_Z  1
loop_
  _symmetry_equiv_pos_site_id
 _symmetry_equiv_pos_as_xyz
 1  'x, y, z'
loop_
 _atom_site_type_symbol
 _atom_site_label
 _atom_site_symmetry_multiplicity
 _atom_site_fract_x
 _atom_site_fract_y
 _atom_site_fract_z
 _atom_site_fract_occupancy
 Co  Co1  1  0.15869  0.32935  0.25000  1
 Mg  Mg1  1  0.67949  0.33340  0.25000  1
 Mg  Mg2  1  0.67949  0.84609  0.25000  1
 Mg  Mg3  1  0.32190  0.18762  0.75000  1
 Mg  Mg4  1  0.32190  0.63427  0.75000  1
 Mg  Mg5  1  0.84714  0.17357  0.75000  1
 Mg  Mg6  1  0.81912  0.65956  0.75000  1
 Sb  Sb1  1  0.17227  0.83613  0.25000  1
