CIF file written using JARVIS-Tools package.
data_NaMg2Be
_symmetry_space_group_name_H-M  'Fm-3m'
_cell_length_a       4.76763
_cell_length_b       4.76763
_cell_length_c       4.76763
_cell_angle_alpha    120.004
_cell_angle_beta     120.004
_cell_angle_gamma    89.994

_symmetry_Int_Tables_number  225
_chemical_formula_structural  NaMg2Be
_chemical_formula_sum  NaMg2Be
_cell_volume  76.6246805220427
_cell_formula_units_Z  1
loop_
  _symmetry_equiv_pos_site_id
 _symmetry_equiv_pos_as_xyz
 1  'x, y, z'
loop_
 _atom_site_type_symbol
 _atom_site_label
 _atom_site_symmetry_multiplicity
 _atom_site_fract_x
 _atom_site_fract_y
 _atom_site_fract_z
 _atom_site_fract_occupancy
 Be  Be1  1  0.75000  0.25000  0.50000  1
 Mg  Mg1  1  0.00000  0.00000  0.00000  1
 Mg  Mg2  1  0.50000  0.50000  0.00000  1
 Na  Na1  1  0.25000  0.75000  0.50000  1
