CIF file written using JARVIS-Tools package.
data_Co3SbO8
_symmetry_space_group_name_H-M  'P6_3mc'
_cell_length_a       5.66664
_cell_length_b       5.66667
_cell_length_c       9.09717
_cell_angle_alpha    90.0012
_cell_angle_beta     89.9994
_cell_angle_gamma    120

_symmetry_Int_Tables_number  186
_chemical_formula_structural  Co3SbO8
_chemical_formula_sum  Co6Sb2O6
_cell_volume  252.98177956536887
_cell_formula_units_Z  2
loop_
  _symmetry_equiv_pos_site_id
 _symmetry_equiv_pos_as_xyz
 1  'x, y, z'
loop_
 _atom_site_type_symbol
 _atom_site_label
 _atom_site_symmetry_multiplicity
 _atom_site_fract_x
 _atom_site_fract_y
 _atom_site_fract_z
 _atom_site_fract_occupancy
 Co  Co1  1  0.16856  0.83154  0.21399  1
 Co  Co2  1  0.16855  0.33703  0.21399  1
 Co  Co3  1  0.66306  0.83154  0.21400  1
 Co  Co4  1  0.33694  0.16848  0.71400  1
 Co  Co5  1  0.83144  0.66298  0.71399  1
 Co  Co6  1  0.83145  0.16848  0.71399  1
 O  O1  1  0.15729  0.84262  0.60124  1
 O  O2  1  0.03019  0.51511  0.33269  1
 O  O3  1  0.33340  0.66671  0.11029  1
 O  O4  1  0.96981  0.48491  0.83269  1
 O  O5  1  -0.00006  -0.00002  0.81065  1
 O  O6  1  0.15729  0.31469  0.60123  1
 O  O7  1  0.00006  0.00004  0.31065  1
 O  O8  1  0.48495  0.51511  0.33272  1
 O  O9  1  0.51506  0.48490  0.83272  1
 O  O10  1  0.68523  0.84262  0.60125  1
 O  O11  1  0.48494  0.96984  0.33272  1
 O  O12  1  0.51505  0.03017  0.83272  1
 O  O13  1  0.66660  0.33331  0.61029  1
 O  O14  1  0.84271  0.68533  0.10124  1
 O  O15  1  0.31477  0.15739  0.10125  1
 O  O16  1  0.84271  0.15740  0.10123  1
 Sb  Sb1  1  0.66670  0.33337  0.99310  1
 Sb  Sb2  1  0.33330  0.66666  0.49310  1
