CIF file written using JARVIS-Tools package.
data_BaSrI4
_symmetry_space_group_name_H-M  'Cmc2_1'
_cell_length_a       6.25151
_cell_length_b       11.9119
_cell_length_c       8.06812
_cell_angle_alpha    90
_cell_angle_beta     90
_cell_angle_gamma    105.213

_symmetry_Int_Tables_number  36
_chemical_formula_structural  BaSrI4
_chemical_formula_sum  Ba2Sr2I8
_cell_volume  579.7565031663429
_cell_formula_units_Z  2
loop_
  _symmetry_equiv_pos_site_id
 _symmetry_equiv_pos_as_xyz
 1  'x, y, z'
loop_
 _atom_site_type_symbol
 _atom_site_label
 _atom_site_symmetry_multiplicity
 _atom_site_fract_x
 _atom_site_fract_y
 _atom_site_fract_z
 _atom_site_fract_occupancy
 Ba  Ba1  1  0.18074  0.36147  0.91327  1
 Ba  Ba2  1  0.81926  0.63853  0.41327  1
 I  I1  1  0.11168  0.22337  0.51435  1
 I  I2  1  0.45361  0.90721  0.38292  1
 I  I3  1  0.31788  0.63576  0.69124  1
 I  I4  1  0.28885  0.57771  0.21359  1
 I  I5  1  0.88832  0.77663  0.01435  1
 I  I6  1  0.71115  0.42229  0.71359  1
 I  I7  1  0.54639  0.09279  0.88292  1
 I  I8  1  0.68212  0.36424  0.19124  1
 Sr  Sr1  1  0.41236  0.82473  0.99435  1
 Sr  Sr2  1  0.58764  0.17527  0.49435  1
