CIF file written using JARVIS-Tools package.
data_Tm2AlNi2
_symmetry_space_group_name_H-M  'Immm'
_cell_length_a       4.12394
_cell_length_b       5.36709
_cell_length_c       5.29594
_cell_angle_alpha    120.445
_cell_angle_beta     112.914
_cell_angle_gamma    90

_symmetry_Int_Tables_number  71
_chemical_formula_structural  Tm2AlNi2
_chemical_formula_sum  Tm2AlNi2
_cell_volume  90.1622705588389
_cell_formula_units_Z  1
loop_
  _symmetry_equiv_pos_site_id
 _symmetry_equiv_pos_as_xyz
 1  'x, y, z'
loop_
 _atom_site_type_symbol
 _atom_site_label
 _atom_site_symmetry_multiplicity
 _atom_site_fract_x
 _atom_site_fract_y
 _atom_site_fract_z
 _atom_site_fract_occupancy
 Al  Al1  1  0.00000  0.00000  0.00000  1
 Ni  Ni1  1  0.50000  0.73143  0.00000  1
 Ni  Ni2  1  0.50000  0.26857  -0.00000  1
 Tm  Tm1  1  0.79724  0.29724  0.59447  1
 Tm  Tm2  1  0.20276  0.70276  0.40553  1
