CIF file written using JARVIS-Tools package.
data_Mg6AlGa
_symmetry_space_group_name_H-M  'Amm2'
_cell_length_a       6.17289
_cell_length_b       6.17289
_cell_length_c       5.132
_cell_angle_alpha    90
_cell_angle_beta     90
_cell_angle_gamma    120.467

_symmetry_Int_Tables_number  38
_chemical_formula_structural  Mg6AlGa
_chemical_formula_sum  Mg6AlGa
_cell_volume  168.55075632235383
_cell_formula_units_Z  1
loop_
  _symmetry_equiv_pos_site_id
 _symmetry_equiv_pos_as_xyz
 1  'x, y, z'
loop_
 _atom_site_type_symbol
 _atom_site_label
 _atom_site_symmetry_multiplicity
 _atom_site_fract_x
 _atom_site_fract_y
 _atom_site_fract_z
 _atom_site_fract_occupancy
 Al  Al1  1  0.16137  0.33863  0.25000  1
 Ga  Ga1  1  0.33841  0.16159  0.75000  1
 Mg  Mg1  1  0.16581  0.84196  0.25000  1
 Mg  Mg2  1  0.65804  0.33419  0.25000  1
 Mg  Mg3  1  0.66546  0.83454  0.25000  1
 Mg  Mg4  1  0.33462  0.65832  0.75000  1
 Mg  Mg5  1  0.84168  0.16538  0.75000  1
 Mg  Mg6  1  0.83460  0.66540  0.75000  1
