CIF file written using JARVIS-Tools package.
data_Te6Mo3WS2
_symmetry_space_group_name_H-M  'P3m1'
_cell_length_a       3.47738
_cell_length_b       3.47726
_cell_length_c       38.8748
_cell_angle_alpha    90.0006
_cell_angle_beta     90
_cell_angle_gamma    120.001

_symmetry_Int_Tables_number  156
_chemical_formula_structural  Te6Mo3WS2
_chemical_formula_sum  Te6Mo3WS2
_cell_volume  407.0830628783069
_cell_formula_units_Z  1
loop_
  _symmetry_equiv_pos_site_id
 _symmetry_equiv_pos_as_xyz
 1  'x, y, z'
loop_
 _atom_site_type_symbol
 _atom_site_label
 _atom_site_symmetry_multiplicity
 _atom_site_fract_x
 _atom_site_fract_y
 _atom_site_fract_z
 _atom_site_fract_occupancy
 Mo  Mo1  1  0.33332  0.66664  0.09398  1
 Mo  Mo2  1  0.66669  0.33337  0.28181  1
 Mo  Mo3  1  0.66667  0.33335  0.65763  1
 S  S1  1  0.33336  0.66672  0.31989  1
 S  S2  1  0.33336  0.66671  0.24369  1
 Te  Te1  1  0.33335  0.66671  0.70476  1
 Te  Te2  1  0.66664  0.33329  0.04678  1
 Te  Te3  1  0.66665  0.33329  0.42173  1
 Te  Te4  1  0.66665  0.33329  0.14150  1
 Te  Te5  1  0.66664  0.33329  0.51716  1
 Te  Te6  1  0.33335  0.66671  0.61027  1
 W  W1  1  0.33332  0.66664  0.46955  1
