CIF file written using JARVIS-Tools package.
data_LiMnP3O9
_symmetry_space_group_name_H-M  'R3'
_cell_length_a       6.37015
_cell_length_b       6.37015
_cell_length_c       6.37014
_cell_angle_alpha    107.634
_cell_angle_beta     107.634
_cell_angle_gamma    107.634

_symmetry_Int_Tables_number  146
_chemical_formula_structural  LiMnP3O9
_chemical_formula_sum  LiMnP3O9
_cell_volume  211.44168292631502
_cell_formula_units_Z  1
loop_
  _symmetry_equiv_pos_site_id
 _symmetry_equiv_pos_as_xyz
 1  'x, y, z'
loop_
 _atom_site_type_symbol
 _atom_site_label
 _atom_site_symmetry_multiplicity
 _atom_site_fract_x
 _atom_site_fract_y
 _atom_site_fract_z
 _atom_site_fract_occupancy
 Li  Li1  1  0.35969  0.35969  0.35969  1
 Mn  Mn1  1  -0.02454  -0.02454  -0.02454  1
 O  O1  1  0.27310  0.88038  0.64325  1
 O  O2  1  0.08812  0.38224  0.13608  1
 O  O3  1  0.63009  0.90402  0.96654  1
 O  O4  1  0.90402  0.96654  0.63009  1
 O  O5  1  0.13608  0.08812  0.38224  1
 O  O6  1  0.88038  0.64325  0.27310  1
 O  O7  1  0.38224  0.13608  0.08812  1
 O  O8  1  0.96654  0.63009  0.90402  1
 O  O9  1  0.64325  0.27310  0.88038  1
 P  P1  1  0.04440  0.91660  0.48602  1
 P  P2  1  0.91660  0.48602  0.04440  1
 P  P3  1  0.48602  0.04440  0.91660  1
