CIF file written using JARVIS-Tools package.
data_Mg6VSb
_symmetry_space_group_name_H-M  'Amm2'
_cell_length_a       6.27881
_cell_length_b       6.11566
_cell_length_c       5.14338
_cell_angle_alpha    90
_cell_angle_beta     90
_cell_angle_gamma    119.144

_symmetry_Int_Tables_number  38
_chemical_formula_structural  Mg6VSb
_chemical_formula_sum  Mg6VSb
_cell_volume  172.49688365528792
_cell_formula_units_Z  1
loop_
  _symmetry_equiv_pos_site_id
 _symmetry_equiv_pos_as_xyz
 1  'x, y, z'
loop_
 _atom_site_type_symbol
 _atom_site_label
 _atom_site_symmetry_multiplicity
 _atom_site_fract_x
 _atom_site_fract_y
 _atom_site_fract_z
 _atom_site_fract_occupancy
 Mg  Mg1  1  0.66583  0.33079  0.25000  1
 Mg  Mg2  1  0.66583  0.83504  0.25000  1
 Mg  Mg3  1  0.33594  0.17781  0.75000  1
 Mg  Mg4  1  0.33594  0.65813  0.75000  1
 Mg  Mg5  1  0.84385  0.17193  0.75000  1
 Mg  Mg6  1  0.82483  0.66242  0.75000  1
 Sb  Sb1  1  0.16129  0.83065  0.25000  1
 V  V1  1  0.16647  0.33323  0.25000  1
