CIF file written using JARVIS-Tools package.
data_YSi
_symmetry_space_group_name_H-M  'Cmcm'
_cell_length_a       3.85812
_cell_length_b       4.28509
_cell_length_c       5.70502
_cell_angle_alpha    112.058
_cell_angle_beta     90
_cell_angle_gamma    90

_symmetry_Int_Tables_number  63
_chemical_formula_structural  YSi
_chemical_formula_sum  Y2Si2
_cell_volume  87.41368328284938
_cell_formula_units_Z  2
loop_
  _symmetry_equiv_pos_site_id
 _symmetry_equiv_pos_as_xyz
 1  'x, y, z'
loop_
 _atom_site_type_symbol
 _atom_site_label
 _atom_site_symmetry_multiplicity
 _atom_site_fract_x
 _atom_site_fract_y
 _atom_site_fract_z
 _atom_site_fract_occupancy
 Si  Si1  1  0.25000  0.57739  0.15477  1
 Si  Si2  1  0.75000  0.42261  0.84523  1
 Y  Y1  1  0.25000  0.85965  0.71931  1
 Y  Y2  1  0.75000  0.14035  0.28069  1
