CIF file written using JARVIS-Tools package.
data_Mg6CuW
_symmetry_space_group_name_H-M  'Amm2'
_cell_length_a       6.04229
_cell_length_b       6.04229
_cell_length_c       4.78912
_cell_angle_alpha    90
_cell_angle_beta     90
_cell_angle_gamma    120.011

_symmetry_Int_Tables_number  38
_chemical_formula_structural  Mg6CuW
_chemical_formula_sum  Mg6CuW
_cell_volume  151.40475962133144
_cell_formula_units_Z  1
loop_
  _symmetry_equiv_pos_site_id
 _symmetry_equiv_pos_as_xyz
 1  'x, y, z'
loop_
 _atom_site_type_symbol
 _atom_site_label
 _atom_site_symmetry_multiplicity
 _atom_site_fract_x
 _atom_site_fract_y
 _atom_site_fract_z
 _atom_site_fract_occupancy
 Cu  Cu1  1  0.18751  0.31249  0.25000  1
 Mg  Mg1  1  0.17025  0.85351  0.25000  1
 Mg  Mg2  1  0.64649  0.32975  0.25000  1
 Mg  Mg3  1  0.66392  0.83608  0.25000  1
 Mg  Mg4  1  0.32474  0.65582  0.75000  1
 Mg  Mg5  1  0.84418  0.17526  0.75000  1
 Mg  Mg6  1  0.83272  0.66728  0.75000  1
 W  W1  1  0.33019  0.16981  0.75000  1
