CIF file written using JARVIS-Tools package.
data_Ga2NiS4
_symmetry_space_group_name_H-M  'P-3m1'
_cell_length_a       3.63243
_cell_length_b       3.63233
_cell_length_c       12.0489
_cell_angle_alpha    89.9991
_cell_angle_beta     89.9977
_cell_angle_gamma    120

_symmetry_Int_Tables_number  164
_chemical_formula_structural  Ga2NiS4
_chemical_formula_sum  Ga2NiS4
_cell_volume  137.67732620149383
_cell_formula_units_Z  1
loop_
  _symmetry_equiv_pos_site_id
 _symmetry_equiv_pos_as_xyz
 1  'x, y, z'
loop_
 _atom_site_type_symbol
 _atom_site_label
 _atom_site_symmetry_multiplicity
 _atom_site_fract_x
 _atom_site_fract_y
 _atom_site_fract_z
 _atom_site_fract_occupancy
 Ga  Ga1  1  0.33334  0.66667  0.21746  1
 Ga  Ga2  1  0.66666  0.33333  0.78254  1
 Ni  Ni1  1  0.00000  0.00000  0.50000  1
 S  S1  1  0.33333  0.66667  0.86995  1
 S  S2  1  0.66667  0.33333  0.13005  1
 S  S3  1  0.33331  0.66665  0.40296  1
 S  S4  1  0.66669  0.33335  0.59704  1
