CIF file written using JARVIS-Tools package.
data_MoRh3
_symmetry_space_group_name_H-M  'P6_3/mmc'
_cell_length_a       5.50268
_cell_length_b       5.50268
_cell_length_c       4.3683
_cell_angle_alpha    90
_cell_angle_beta     90
_cell_angle_gamma    120

_symmetry_Int_Tables_number  194
_chemical_formula_structural  MoRh3
_chemical_formula_sum  Mo2Rh6
_cell_volume  114.5487747031181
_cell_formula_units_Z  2
loop_
  _symmetry_equiv_pos_site_id
 _symmetry_equiv_pos_as_xyz
 1  'x, y, z'
loop_
 _atom_site_type_symbol
 _atom_site_label
 _atom_site_symmetry_multiplicity
 _atom_site_fract_x
 _atom_site_fract_y
 _atom_site_fract_z
 _atom_site_fract_occupancy
 Mo  Mo1  1  0.33333  0.66667  0.75000  1
 Mo  Mo2  1  0.66667  0.33333  0.25000  1
 Rh  Rh1  1  0.33381  0.16690  0.75000  1
 Rh  Rh2  1  0.16690  0.83310  0.25000  1
 Rh  Rh3  1  0.16690  0.33381  0.25000  1
 Rh  Rh4  1  0.83310  0.66619  0.75000  1
 Rh  Rh5  1  0.83310  0.16690  0.75000  1
 Rh  Rh6  1  0.66619  0.83310  0.25000  1
