CIF file written using JARVIS-Tools package.
data_Mg6VBi
_symmetry_space_group_name_H-M  'Amm2'
_cell_length_a       6.32014
_cell_length_b       6.32014
_cell_length_c       5.10044
_cell_angle_alpha    90
_cell_angle_beta     90
_cell_angle_gamma    118.698

_symmetry_Int_Tables_number  38
_chemical_formula_structural  Mg6VBi
_chemical_formula_sum  Mg6VBi
_cell_volume  178.7064537748738
_cell_formula_units_Z  1
loop_
  _symmetry_equiv_pos_site_id
 _symmetry_equiv_pos_as_xyz
 1  'x, y, z'
loop_
 _atom_site_type_symbol
 _atom_site_label
 _atom_site_symmetry_multiplicity
 _atom_site_fract_x
 _atom_site_fract_y
 _atom_site_fract_z
 _atom_site_fract_occupancy
 Bi  Bi1  1  0.33000  0.17000  0.75000  1
 Mg  Mg1  1  0.15828  0.81613  0.25000  1
 Mg  Mg2  1  0.68387  0.34172  0.25000  1
 Mg  Mg3  1  0.66369  0.83631  0.25000  1
 Mg  Mg4  1  0.32909  0.65792  0.75000  1
 Mg  Mg5  1  0.84208  0.17091  0.75000  1
 Mg  Mg6  1  0.82976  0.67024  0.75000  1
 V  V1  1  0.16325  0.33675  0.25000  1
