CIF file written using JARVIS-Tools package.
data_LiMg6Ga
_symmetry_space_group_name_H-M  'Amm2'
_cell_length_a       6.25683
_cell_length_b       6.2566
_cell_length_c       4.99659
_cell_angle_alpha    90
_cell_angle_beta     90
_cell_angle_gamma    119.999

_symmetry_Int_Tables_number  38
_chemical_formula_structural  LiMg6Ga
_chemical_formula_sum  LiMg6Ga
_cell_volume  169.39567894989472
_cell_formula_units_Z  1
loop_
  _symmetry_equiv_pos_site_id
 _symmetry_equiv_pos_as_xyz
 1  'x, y, z'
loop_
 _atom_site_type_symbol
 _atom_site_label
 _atom_site_symmetry_multiplicity
 _atom_site_fract_x
 _atom_site_fract_y
 _atom_site_fract_z
 _atom_site_fract_occupancy
 Ga  Ga1  1  0.16993  0.83496  0.25000  1
 Li  Li1  1  0.16612  0.33306  0.25000  1
 Mg  Mg1  1  0.66887  0.33287  0.25000  1
 Mg  Mg2  1  0.66887  0.83600  0.25000  1
 Mg  Mg3  1  0.32716  0.16386  0.75000  1
 Mg  Mg4  1  0.32716  0.66330  0.75000  1
 Mg  Mg5  1  0.83620  0.16810  0.75000  1
 Mg  Mg6  1  0.83570  0.66785  0.75000  1
