CIF file written using JARVIS-Tools package.
data_WN2
_symmetry_space_group_name_H-M  'P6_3/mmc'
_cell_length_a       2.93646
_cell_length_b       2.93646
_cell_length_c       7.80573
_cell_angle_alpha    90
_cell_angle_beta     90
_cell_angle_gamma    120

_symmetry_Int_Tables_number  194
_chemical_formula_structural  WN2
_chemical_formula_sum  W2N4
_cell_volume  58.289600446537065
_cell_formula_units_Z  2
loop_
  _symmetry_equiv_pos_site_id
 _symmetry_equiv_pos_as_xyz
 1  'x, y, z'
loop_
 _atom_site_type_symbol
 _atom_site_label
 _atom_site_symmetry_multiplicity
 _atom_site_fract_x
 _atom_site_fract_y
 _atom_site_fract_z
 _atom_site_fract_occupancy
 N  N1  1  1.00000  0.00000  0.59003  1
 N  N2  1  0.00000  1.00000  0.40997  1
 N  N3  1  0.00000  1.00000  0.09003  1
 N  N4  1  1.00000  0.00000  0.90997  1
 W  W1  1  0.33333  0.66667  0.75000  1
 W  W2  1  0.66667  0.33333  0.25000  1
