CIF file written using JARVIS-Tools package.
data_Mg6SiC
_symmetry_space_group_name_H-M  'Amm2'
_cell_length_a       7.28275
_cell_length_b       7.28274
_cell_length_c       4.34512
_cell_angle_alpha    90
_cell_angle_beta     90
_cell_angle_gamma    134.525

_symmetry_Int_Tables_number  38
_chemical_formula_structural  Mg6SiC
_chemical_formula_sum  Mg6SiC
_cell_volume  164.30356959222462
_cell_formula_units_Z  1
loop_
  _symmetry_equiv_pos_site_id
 _symmetry_equiv_pos_as_xyz
 1  'x, y, z'
loop_
 _atom_site_type_symbol
 _atom_site_label
 _atom_site_symmetry_multiplicity
 _atom_site_fract_x
 _atom_site_fract_y
 _atom_site_fract_z
 _atom_site_fract_occupancy
 C  C1  1  0.43343  0.06657  0.75000  1
 Mg  Mg1  1  0.18036  0.85026  0.25000  1
 Mg  Mg2  1  0.64974  0.31964  0.25000  1
 Mg  Mg3  1  0.68315  0.81685  0.25000  1
 Mg  Mg4  1  0.32023  0.68779  0.75000  1
 Mg  Mg5  1  0.81221  0.17977  0.75000  1
 Mg  Mg6  1  0.81672  0.68328  0.75000  1
 Si  Si1  1  0.10417  0.39583  0.25000  1
