CIF file written using JARVIS-Tools package.
data_K2NaNbO2F4
_symmetry_space_group_name_H-M  'I4/mmm'
_cell_length_a       6.00776
_cell_length_b       6.00777
_cell_length_c       6.00777
_cell_angle_alpha    119.872
_cell_angle_beta     119.872
_cell_angle_gamma    90.2226

_symmetry_Int_Tables_number  139
_chemical_formula_structural  K2NaNbO2F4
_chemical_formula_sum  K2NaNbO2F4
_cell_volume  153.62505888747077
_cell_formula_units_Z  1
loop_
  _symmetry_equiv_pos_site_id
 _symmetry_equiv_pos_as_xyz
 1  'x, y, z'
loop_
 _atom_site_type_symbol
 _atom_site_label
 _atom_site_symmetry_multiplicity
 _atom_site_fract_x
 _atom_site_fract_y
 _atom_site_fract_z
 _atom_site_fract_occupancy
 F  F1  1  0.26124  0.26124  0.52248  1
 F  F2  1  0.26124  0.73876  -0.00000  1
 F  F3  1  0.73876  0.73876  0.47752  1
 F  F4  1  0.73876  0.26124  0.00000  1
 K  K1  1  0.25000  0.75000  0.50000  1
 K  K2  1  0.75000  0.25000  0.50000  1
 Na  Na1  1  0.00000  0.00000  0.00000  1
 Nb  Nb1  1  0.50000  0.50000  0.00000  1
 O  O1  1  0.27619  0.27619  -0.00000  1
 O  O2  1  0.72381  0.72381  0.00000  1
