CIF file written using JARVIS-Tools package.
data_SrSi7N10
_symmetry_space_group_name_H-M  'Pc'
_cell_length_a       6.7752
_cell_length_b       6.88731
_cell_length_c       9.68505
_cell_angle_alpha    106.149
_cell_angle_beta     90
_cell_angle_gamma    90

_symmetry_Int_Tables_number  7
_chemical_formula_structural  SrSi7N10
_chemical_formula_sum  Sr2Si4N20
_cell_volume  434.10058214621637
_cell_formula_units_Z  2
loop_
  _symmetry_equiv_pos_site_id
 _symmetry_equiv_pos_as_xyz
 1  'x, y, z'
loop_
 _atom_site_type_symbol
 _atom_site_label
 _atom_site_symmetry_multiplicity
 _atom_site_fract_x
 _atom_site_fract_y
 _atom_site_fract_z
 _atom_site_fract_occupancy
 N  N1  1  0.41552  0.29553  0.67501  1
 N  N2  1  0.87043  0.68125  0.63590  1
 N  N3  1  0.88278  0.55403  0.32781  1
 N  N4  1  0.83517  0.84668  0.97933  1
 N  N5  1  0.61760  0.11202  0.86638  1
 N  N6  1  0.84483  0.25098  0.66822  1
 N  N7  1  0.12957  0.68125  0.13590  1
 N  N8  1  0.11722  0.55403  0.82781  1
 N  N9  1  0.58448  0.29553  0.17501  1
 N  N10  1  0.15517  0.25098  0.16822  1
 N  N11  1  0.42203  0.92027  0.06089  1
 N  N12  1  0.86868  0.43192  0.02242  1
 N  N13  1  0.38240  0.11202  0.36638  1
 N  N14  1  0.46170  0.50087  0.97601  1
 N  N15  1  0.16483  0.84668  0.47933  1
 N  N16  1  0.49839  0.71283  0.27562  1
 N  N17  1  0.53830  0.50087  0.47601  1
 N  N18  1  0.13132  0.43192  0.52242  1
 N  N19  1  0.50161  0.71283  0.77562  1
 N  N20  1  0.57797  0.92027  0.56089  1
 Si  Si1  1  0.97324  0.64739  0.98390  1
 Si  Si2  1  0.37607  0.14980  0.19007  1
 Si  Si3  1  0.97388  0.46010  0.67189  1
 Si  Si4  1  0.62964  0.51543  0.31215  1
 Si  Si5  1  0.36485  0.33368  0.50646  1
 Si  Si6  1  0.61938  0.70348  0.61607  1
 Si  Si7  1  0.60529  0.89107  0.92616  1
 Si  Si8  1  0.62393  0.14980  0.69007  1
 Si  Si9  1  0.02676  0.64739  0.48390  1
 Si  Si10  1  0.38062  0.70348  0.11607  1
 Si  Si11  1  0.39471  0.89107  0.42616  1
 Si  Si12  1  0.02612  0.46010  0.17189  1
 Si  Si13  1  0.63515  0.33368  0.00646  1
 Si  Si14  1  0.37036  0.51543  0.81215  1
 Sr  Sr1  1  0.05238  0.05036  0.83639  1
 Sr  Sr2  1  0.94762  0.05036  0.33639  1
