CIF file written using JARVIS-Tools package.
data_In2CuSe4
_symmetry_space_group_name_H-M  'I-4'
_cell_length_a       5.67172
_cell_length_b       5.67172
_cell_length_c       7.025
_cell_angle_alpha    113.808
_cell_angle_beta     113.808
_cell_angle_gamma    90

_symmetry_Int_Tables_number  82
_chemical_formula_structural  In2CuSe4
_chemical_formula_sum  In2CuSe4
_cell_volume  185.53804190060828
_cell_formula_units_Z  1
loop_
  _symmetry_equiv_pos_site_id
 _symmetry_equiv_pos_as_xyz
 1  'x, y, z'
loop_
 _atom_site_type_symbol
 _atom_site_label
 _atom_site_symmetry_multiplicity
 _atom_site_fract_x
 _atom_site_fract_y
 _atom_site_fract_z
 _atom_site_fract_occupancy
 Cu  Cu1  1  0.00000  0.00000  0.00000  1
 In  In1  1  0.50000  0.50000  0.00000  1
 In  In2  1  0.75000  0.25000  0.50000  1
 Se  Se1  1  0.60423  0.07163  0.73702  1
 Se  Se2  1  0.13279  0.66539  0.73702  1
 Se  Se3  1  0.92837  0.86721  0.26298  1
 Se  Se4  1  0.33461  0.39577  0.26298  1
