CIF file written using JARVIS-Tools package.
data_Ba2Sb
_symmetry_space_group_name_H-M  'I4/mmm'
_cell_length_a       5.20792
_cell_length_b       5.20792
_cell_length_c       10.1901
_cell_angle_alpha    104.806
_cell_angle_beta     104.805
_cell_angle_gamma    90

_symmetry_Int_Tables_number  139
_chemical_formula_structural  Ba2Sb
_chemical_formula_sum  Ba4Sb2
_cell_volume  257.70004861515133
_cell_formula_units_Z  2
loop_
  _symmetry_equiv_pos_site_id
 _symmetry_equiv_pos_as_xyz
 1  'x, y, z'
loop_
 _atom_site_type_symbol
 _atom_site_label
 _atom_site_symmetry_multiplicity
 _atom_site_fract_x
 _atom_site_fract_y
 _atom_site_fract_z
 _atom_site_fract_occupancy
 Ba  Ba1  1  0.31942  0.31942  0.63884  1
 Ba  Ba2  1  0.68058  0.68058  0.36116  1
 Ba  Ba3  1  -0.00000  0.50000  0.00000  1
 Ba  Ba4  1  0.50000  0.00000  0.00000  1
 Sb  Sb1  1  0.86591  0.86591  0.73182  1
 Sb  Sb2  1  0.13409  0.13409  0.26818  1
