CIF file written using JARVIS-Tools package.
data_Mg6BiW
_symmetry_space_group_name_H-M  'Amm2'
_cell_length_a       6.15487
_cell_length_b       6.15487
_cell_length_c       5.07241
_cell_angle_alpha    90
_cell_angle_beta     90
_cell_angle_gamma    118.446

_symmetry_Int_Tables_number  38
_chemical_formula_structural  Mg6BiW
_chemical_formula_sum  Mg6BiW
_cell_volume  168.9547903848827
_cell_formula_units_Z  1
loop_
  _symmetry_equiv_pos_site_id
 _symmetry_equiv_pos_as_xyz
 1  'x, y, z'
loop_
 _atom_site_type_symbol
 _atom_site_label
 _atom_site_symmetry_multiplicity
 _atom_site_fract_x
 _atom_site_fract_y
 _atom_site_fract_z
 _atom_site_fract_occupancy
 Bi  Bi1  1  0.33188  0.16812  0.75000  1
 Mg  Mg1  1  0.15639  0.82053  0.25000  1
 Mg  Mg2  1  0.67947  0.34361  0.25000  1
 Mg  Mg3  1  0.66344  0.83656  0.25000  1
 Mg  Mg4  1  0.32303  0.64573  0.75000  1
 Mg  Mg5  1  0.85427  0.17697  0.75000  1
 Mg  Mg6  1  0.83328  0.66672  0.75000  1
 W  W1  1  0.15825  0.34175  0.25000  1
