CIF file written using JARVIS-Tools package.
data_MgPbF6
_symmetry_space_group_name_H-M  'R-3'
_cell_length_a       5.63756
_cell_length_b       5.63756
_cell_length_c       5.63756
_cell_angle_alpha    54.3236
_cell_angle_beta     54.3236
_cell_angle_gamma    54.3235

_symmetry_Int_Tables_number  148
_chemical_formula_structural  MgPbF6
_chemical_formula_sum  MgPbF6
_cell_volume  109.91713495816161
_cell_formula_units_Z  1
loop_
  _symmetry_equiv_pos_site_id
 _symmetry_equiv_pos_as_xyz
 1  'x, y, z'
loop_
 _atom_site_type_symbol
 _atom_site_label
 _atom_site_symmetry_multiplicity
 _atom_site_fract_x
 _atom_site_fract_y
 _atom_site_fract_z
 _atom_site_fract_occupancy
 F  F1  1  0.38887  0.09590  0.75904  1
 F  F2  1  0.09590  0.75904  0.38887  1
 F  F3  1  0.24096  0.61113  0.90410  1
 F  F4  1  0.90410  0.24096  0.61113  1
 F  F5  1  0.61113  0.90410  0.24096  1
 F  F6  1  0.75904  0.38887  0.09590  1
 Mg  Mg1  1  0.00000  0.00000  0.00000  1
 Pb  Pb1  1  0.50000  0.50000  0.50000  1
