CIF file written using JARVIS-Tools package.
data_CaNi5H
_symmetry_space_group_name_H-M  'Amm2'
_cell_length_a       3.95543
_cell_length_b       4.94666
_cell_length_c       4.94682
_cell_angle_alpha    118.692
_cell_angle_beta     90
_cell_angle_gamma    90

_symmetry_Int_Tables_number  38
_chemical_formula_structural  CaNi5H
_chemical_formula_sum  CaNi5H
_cell_volume  84.90541898655069
_cell_formula_units_Z  1
loop_
  _symmetry_equiv_pos_site_id
 _symmetry_equiv_pos_as_xyz
 1  'x, y, z'
loop_
 _atom_site_type_symbol
 _atom_site_label
 _atom_site_symmetry_multiplicity
 _atom_site_fract_x
 _atom_site_fract_y
 _atom_site_fract_z
 _atom_site_fract_occupancy
 Ca  Ca1  1  0.00000  0.00228  0.99773  1
 H  H1  1  0.50000  0.85763  0.14241  1
 Ni  Ni1  1  0.00000  0.66068  0.33934  1
 Ni  Ni2  1  0.00000  0.33838  0.66161  1
 Ni  Ni3  1  0.50000  0.50293  0.49707  1
 Ni  Ni4  1  0.50000  0.00784  0.50567  1
 Ni  Ni5  1  0.50000  0.49436  0.99217  1
