CIF file written using JARVIS-Tools package.
data_Tb2SiSeO4
_symmetry_space_group_name_H-M  'Pbcm'
_cell_length_a       6.0614
_cell_length_b       6.98239
_cell_length_c       10.8485
_cell_angle_alpha    90
_cell_angle_beta     90
_cell_angle_gamma    90

_symmetry_Int_Tables_number  57
_chemical_formula_structural  Tb2SiSeO4
_chemical_formula_sum  Tb8Si4Se4O6
_cell_volume  459.1399424046901
_cell_formula_units_Z  4
loop_
  _symmetry_equiv_pos_site_id
 _symmetry_equiv_pos_as_xyz
 1  'x, y, z'
loop_
 _atom_site_type_symbol
 _atom_site_label
 _atom_site_symmetry_multiplicity
 _atom_site_fract_x
 _atom_site_fract_y
 _atom_site_fract_z
 _atom_site_fract_occupancy
 O  O1  1  0.05473  0.74054  0.62062  1
 O  O2  1  0.27520  0.43117  0.53220  1
 O  O3  1  0.72480  0.56883  0.03220  1
 O  O4  1  0.72480  0.93117  0.96780  1
 O  O5  1  0.72480  0.93117  0.53220  1
 O  O6  1  0.72480  0.56883  0.46780  1
 O  O7  1  0.27520  0.43117  0.96780  1
 O  O8  1  0.27520  0.06883  0.03220  1
 O  O9  1  0.05473  0.75946  0.37938  1
 O  O10  1  0.05473  0.75946  0.12062  1
 O  O11  1  0.94527  0.25946  0.12062  1
 O  O12  1  0.94527  0.24054  0.87938  1
 O  O13  1  0.94527  0.24054  0.62062  1
 O  O14  1  0.94527  0.25946  0.37938  1
 O  O15  1  0.27520  0.06883  0.46780  1
 O  O16  1  0.05473  0.74054  0.87938  1
 Se  Se1  1  0.57737  0.62296  0.75000  1
 Se  Se2  1  0.42263  0.12296  0.75000  1
 Se  Se3  1  0.42263  0.37704  0.25000  1
 Se  Se4  1  0.57737  0.87704  0.25000  1
 Si  Si1  1  0.11187  0.25000  0.00000  1
 Si  Si2  1  0.88813  0.75000  0.00000  1
 Si  Si3  1  0.88813  0.75000  0.50000  1
 Si  Si4  1  0.11187  0.25000  0.50000  1
 Tb  Tb1  1  0.13184  0.47153  0.75000  1
 Tb  Tb2  1  0.39262  0.75000  0.50000  1
 Tb  Tb3  1  0.39262  0.75000  0.00000  1
 Tb  Tb4  1  0.60738  0.25000  0.50000  1
 Tb  Tb5  1  0.60738  0.25000  0.00000  1
 Tb  Tb6  1  0.86816  0.97153  0.75000  1
 Tb  Tb7  1  0.86816  0.52847  0.25000  1
 Tb  Tb8  1  0.13184  0.02847  0.25000  1
