CIF file written using JARVIS-Tools package.
data_Ce2MnN3
_symmetry_space_group_name_H-M  'Immm'
_cell_length_a       3.44824
_cell_length_b       3.76758
_cell_length_c       6.71885
_cell_angle_alpha    106.282
_cell_angle_beta     104.869
_cell_angle_gamma    90

_symmetry_Int_Tables_number  71
_chemical_formula_structural  Ce2MnN3
_chemical_formula_sum  Ce2MnN3
_cell_volume  80.73745738407177
_cell_formula_units_Z  1
loop_
  _symmetry_equiv_pos_site_id
 _symmetry_equiv_pos_as_xyz
 1  'x, y, z'
loop_
 _atom_site_type_symbol
 _atom_site_label
 _atom_site_symmetry_multiplicity
 _atom_site_fract_x
 _atom_site_fract_y
 _atom_site_fract_z
 _atom_site_fract_occupancy
 Ce  Ce1  1  0.35437  0.35437  0.70873  1
 Ce  Ce2  1  0.64563  0.64563  0.29127  1
 Mn  Mn1  1  0.00000  0.00000  0.00000  1
 N  N1  1  0.00000  0.50000  0.00000  1
 N  N2  1  0.16332  0.16332  0.32665  1
 N  N3  1  0.83668  0.83668  0.67335  1
