CIF file written using JARVIS-Tools package.
data_LiYP4O12
_symmetry_space_group_name_H-M  'C2/c'
_cell_length_a       7.02756
_cell_length_b       8.85886
_cell_length_c       8.88509
_cell_angle_alpha    65.1314
_cell_angle_beta     66.7048
_cell_angle_gamma    66.6317

_symmetry_Int_Tables_number  15
_chemical_formula_structural  LiYP4O12
_chemical_formula_sum  Li2Y2P8O24
_cell_volume  442.9895518226146
_cell_formula_units_Z  2
loop_
  _symmetry_equiv_pos_site_id
 _symmetry_equiv_pos_as_xyz
 1  'x, y, z'
loop_
 _atom_site_type_symbol
 _atom_site_label
 _atom_site_symmetry_multiplicity
 _atom_site_fract_x
 _atom_site_fract_y
 _atom_site_fract_z
 _atom_site_fract_occupancy
 Li  Li1  1  0.20571  0.75000  0.25000  1
 Li  Li2  1  0.79429  0.25000  0.75000  1
 O  O1  1  0.51294  0.97292  0.76819  1
 O  O2  1  0.96523  0.73610  0.57910  1
 O  O3  1  0.28042  0.76390  0.92090  1
 O  O4  1  0.06613  0.57438  0.29906  1
 O  O5  1  0.48706  0.02708  0.23181  1
 O  O6  1  0.74595  0.47292  0.26819  1
 O  O7  1  0.06043  0.07438  0.79906  1
 O  O8  1  0.71958  0.23610  0.07910  1
 O  O9  1  0.83538  0.14381  0.34445  1
 O  O10  1  0.51638  0.22476  0.91495  1
 O  O11  1  0.16462  0.85619  0.65555  1
 O  O12  1  0.48362  0.77524  0.08505  1
 O  O13  1  0.67636  0.64381  0.84445  1
 O  O14  1  0.93387  0.42562  0.70094  1
 O  O15  1  0.32364  0.35619  0.15555  1
 O  O16  1  0.93957  0.92562  0.20094  1
 O  O17  1  0.03477  0.26390  0.42090  1
 O  O18  1  0.34391  0.72476  0.41495  1
 O  O19  1  0.10754  0.18270  0.04394  1
 O  O20  1  0.33417  0.31730  0.45606  1
 O  O21  1  0.65609  0.27524  0.58505  1
 O  O22  1  0.25405  0.52708  0.73181  1
 O  O23  1  0.66583  0.68270  0.54394  1
 O  O24  1  0.89246  0.81730  0.95606  1
 P  P1  1  0.79791  0.30285  0.40351  1
 P  P2  1  0.20209  0.69715  0.59649  1
 P  P3  1  0.91750  0.11425  0.15972  1
 P  P4  1  0.80853  0.61425  0.65972  1
 P  P5  1  0.19147  0.38575  0.34028  1
 P  P6  1  0.50427  0.19715  0.09649  1
 P  P7  1  0.49573  0.80285  0.90351  1
 P  P8  1  0.08250  0.88575  0.84028  1
 Y  Y1  1  0.29806  0.25000  0.75000  1
 Y  Y2  1  0.70194  0.75000  0.25000  1
