CIF file written using JARVIS-Tools package.
data_Te2MoWSe2
_symmetry_space_group_name_H-M  'Amm2'
_cell_length_a       3.44099
_cell_length_b       3.44116
_cell_length_c       13.9231
_cell_angle_alpha    89.9968
_cell_angle_beta     90
_cell_angle_gamma    119.998

_symmetry_Int_Tables_number  38
_chemical_formula_structural  Te2MoWSe2
_chemical_formula_sum  Te2MoWSe2
_cell_volume  142.7785127448691
_cell_formula_units_Z  1
loop_
  _symmetry_equiv_pos_site_id
 _symmetry_equiv_pos_as_xyz
 1  'x, y, z'
loop_
 _atom_site_type_symbol
 _atom_site_label
 _atom_site_symmetry_multiplicity
 _atom_site_fract_x
 _atom_site_fract_y
 _atom_site_fract_z
 _atom_site_fract_occupancy
 Mo  Mo1  1  0.66760  0.33520  0.55094  1
 Se  Se1  1  0.66575  0.33149  0.93289  1
 Se  Se2  1  0.66571  0.33142  0.16896  1
 Te  Te1  1  0.33425  0.66850  0.68461  1
 Te  Te2  1  0.33429  0.66859  0.41727  1
 W  W1  1  0.33240  0.66480  0.05093  1
