CIF file written using JARVIS-Tools package.
data_Mg6SiNi
_symmetry_space_group_name_H-M  'Amm2'
_cell_length_a       6.02247
_cell_length_b       6.29562
_cell_length_c       4.66146
_cell_angle_alpha    90
_cell_angle_beta     90
_cell_angle_gamma    121.512

_symmetry_Int_Tables_number  38
_chemical_formula_structural  Mg6SiNi
_chemical_formula_sum  Mg6SiNi
_cell_volume  150.6760704771685
_cell_formula_units_Z  1
loop_
  _symmetry_equiv_pos_site_id
 _symmetry_equiv_pos_as_xyz
 1  'x, y, z'
loop_
 _atom_site_type_symbol
 _atom_site_label
 _atom_site_symmetry_multiplicity
 _atom_site_fract_x
 _atom_site_fract_y
 _atom_site_fract_z
 _atom_site_fract_occupancy
 Mg  Mg1  1  0.67670  0.33584  0.25000  1
 Mg  Mg2  1  0.67670  0.84086  0.25000  1
 Mg  Mg3  1  0.31881  0.17176  0.75000  1
 Mg  Mg4  1  0.31881  0.64705  0.75000  1
 Mg  Mg5  1  0.84458  0.17229  0.75000  1
 Mg  Mg6  1  0.83579  0.66789  0.75000  1
 Ni  Ni1  1  0.16063  0.33032  0.25000  1
 Si  Si1  1  0.16798  0.83399  0.25000  1
