CIF file written using JARVIS-Tools package.
data_Mg6CrCd
_symmetry_space_group_name_H-M  'Amm2'
_cell_length_a       6.25469
_cell_length_b       6.26094
_cell_length_c       4.96845
_cell_angle_alpha    90
_cell_angle_beta     90
_cell_angle_gamma    120.033

_symmetry_Int_Tables_number  38
_chemical_formula_structural  Mg6CrCd
_chemical_formula_sum  Mg6CrCd
_cell_volume  168.4428357677869
_cell_formula_units_Z  1
loop_
  _symmetry_equiv_pos_site_id
 _symmetry_equiv_pos_as_xyz
 1  'x, y, z'
loop_
 _atom_site_type_symbol
 _atom_site_label
 _atom_site_symmetry_multiplicity
 _atom_site_fract_x
 _atom_site_fract_y
 _atom_site_fract_z
 _atom_site_fract_occupancy
 Cd  Cd1  1  0.16859  0.83430  0.25000  1
 Cr  Cr1  1  0.16459  0.33230  0.25000  1
 Mg  Mg1  1  0.66708  0.33122  0.25000  1
 Mg  Mg2  1  0.66708  0.83586  0.25000  1
 Mg  Mg3  1  0.32805  0.17079  0.75000  1
 Mg  Mg4  1  0.32805  0.65726  0.75000  1
 Mg  Mg5  1  0.84244  0.17122  0.75000  1
 Mg  Mg6  1  0.83410  0.66705  0.75000  1
