CIF file written using JARVIS-Tools package.
data_VAs2
_symmetry_space_group_name_H-M  'C2/m'
_cell_length_a       3.30554
_cell_length_b       4.86673
_cell_length_c       6.77908
_cell_angle_alpha    78.6752
_cell_angle_beta     75.8888
_cell_angle_gamma    70.1471

_symmetry_Int_Tables_number  12
_chemical_formula_structural  VAs2
_chemical_formula_sum  V2As4
_cell_volume  98.70542268563406
_cell_formula_units_Z  2
loop_
  _symmetry_equiv_pos_site_id
 _symmetry_equiv_pos_as_xyz
 1  'x, y, z'
loop_
 _atom_site_type_symbol
 _atom_site_label
 _atom_site_symmetry_multiplicity
 _atom_site_fract_x
 _atom_site_fract_y
 _atom_site_fract_z
 _atom_site_fract_occupancy
 As  As1  1  0.40499  0.29628  0.89374  1
 As  As2  1  0.59501  0.70372  0.10626  1
 As  As3  1  0.85238  0.75999  0.53525  1
 As  As4  1  0.14762  0.24001  0.46475  1
 V  V1  1  0.15459  0.88498  0.80585  1
 V  V2  1  0.84541  0.11502  0.19415  1
