CIF file written using JARVIS-Tools package.
data_H3NO4
_symmetry_space_group_name_H-M  'Pna2_1'
_cell_length_a       5.48303
_cell_length_b       8.6782
_cell_length_c       6.12888
_cell_angle_alpha    90
_cell_angle_beta     90
_cell_angle_gamma    90

_symmetry_Int_Tables_number  33
_chemical_formula_structural  H3NO4
_chemical_formula_sum  H2N4O6
_cell_volume  291.62925952572107
_cell_formula_units_Z  4
loop_
  _symmetry_equiv_pos_site_id
 _symmetry_equiv_pos_as_xyz
 1  'x, y, z'
loop_
 _atom_site_type_symbol
 _atom_site_label
 _atom_site_symmetry_multiplicity
 _atom_site_fract_x
 _atom_site_fract_y
 _atom_site_fract_z
 _atom_site_fract_occupancy
 H  H1  1  0.41408  0.32790  0.87904  1
 H  H2  1  0.91408  0.67210  0.12096  1
 H  H3  1  0.91408  0.82790  0.62096  1
 H  H4  1  0.41408  0.17210  0.37904  1
 H  H5  1  0.69846  0.25251  0.91360  1
 H  H6  1  0.45186  0.13617  0.88493  1
 H  H7  1  0.95186  0.86383  0.11507  1
 H  H8  1  0.19846  0.74749  0.08640  1
 H  H9  1  0.19846  0.75251  0.58640  1
 H  H10  1  0.95186  0.63617  0.61507  1
 H  H11  1  0.69846  0.24749  0.41360  1
 H  H12  1  0.45186  0.36383  0.38493  1
 N  N1  1  0.02214  0.40596  0.79902  1
 N  N2  1  0.52214  0.59404  0.20098  1
 N  N3  1  0.52214  0.90596  0.70098  1
 N  N4  1  0.02214  0.09404  0.29902  1
 O  O1  1  0.01499  0.73954  0.55410  1
 O  O2  1  0.84885  0.48472  0.71934  1
 O  O3  1  0.34885  0.51528  0.28066  1
 O  O4  1  0.34885  0.98472  0.78066  1
 O  O5  1  0.84885  0.01528  0.21934  1
 O  O6  1  0.23941  0.45576  0.78776  1
 O  O7  1  0.73941  0.95576  0.71224  1
 O  O8  1  0.23941  0.04424  0.28776  1
 O  O9  1  0.47847  0.72226  0.11048  1
 O  O10  1  0.47847  0.77774  0.61048  1
 O  O11  1  0.97847  0.22226  0.38952  1
 O  O12  1  0.51499  0.23954  0.94590  1
 O  O13  1  0.01499  0.76046  0.05410  1
 O  O14  1  0.73941  0.54424  0.21224  1
 O  O15  1  0.97847  0.27774  0.88952  1
 O  O16  1  0.51499  0.26046  0.44590  1
