CIF file written using JARVIS-Tools package.
data_BaNb2Bi2O9
_symmetry_space_group_name_H-M  'Cmc2_1'
_cell_length_a       5.70236
_cell_length_b       5.69673
_cell_length_c       12.9175
_cell_angle_alpha    102.739
_cell_angle_beta     90
_cell_angle_gamma    90

_symmetry_Int_Tables_number  36
_chemical_formula_structural  BaNb2Bi2O9
_chemical_formula_sum  Ba2Nb4Bi4O8
_cell_volume  409.2936099510342
_cell_formula_units_Z  2
loop_
  _symmetry_equiv_pos_site_id
 _symmetry_equiv_pos_as_xyz
 1  'x, y, z'
loop_
 _atom_site_type_symbol
 _atom_site_label
 _atom_site_symmetry_multiplicity
 _atom_site_fract_x
 _atom_site_fract_y
 _atom_site_fract_z
 _atom_site_fract_occupancy
 Ba  Ba1  1  0.46694  0.24822  0.00000  1
 Ba  Ba2  1  0.96694  0.75178  -0.00000  1
 Bi  Bi1  1  0.55218  0.48163  0.40180  1
 Bi  Bi2  1  0.55218  0.07983  0.59820  1
 Bi  Bi3  1  0.05218  0.51837  0.59820  1
 Bi  Bi4  1  0.05218  0.92017  0.40180  1
 Nb  Nb1  1  0.47636  0.66111  0.82636  1
 Nb  Nb2  1  0.97636  0.33889  0.17364  1
 Nb  Nb3  1  0.47636  0.83475  0.17364  1
 Nb  Nb4  1  0.97636  0.16525  0.82636  1
 O  O1  1  0.94298  0.14541  0.67805  1
 O  O2  1  0.76256  0.76601  0.50443  1
 O  O3  1  0.20887  0.42151  0.84993  1
 O  O4  1  0.44298  0.53265  0.67805  1
 O  O5  1  0.95549  0.23083  -0.00000  1
 O  O6  1  0.20183  0.07917  0.17081  1
 O  O7  1  0.20183  0.90836  0.82919  1
 O  O8  1  0.70887  0.42842  0.84993  1
 O  O9  1  0.76256  0.26159  0.49557  1
 O  O10  1  0.20887  0.57158  0.15007  1
 O  O11  1  0.70887  0.57849  0.15007  1
 O  O12  1  0.26256  0.23399  0.49557  1
 O  O13  1  0.94298  0.46735  0.32195  1
 O  O14  1  0.26256  0.73841  0.50443  1
 O  O15  1  0.44298  0.85459  0.32195  1
 O  O16  1  0.70183  0.92083  0.82919  1
 O  O17  1  0.70183  0.09164  0.17081  1
 O  O18  1  0.45549  0.76917  0.00000  1
