CIF file written using JARVIS-Tools package.
data_TmFe2O4
_symmetry_space_group_name_H-M  'R-3m'
_cell_length_a       3.46691
_cell_length_b       3.46691
_cell_length_c       8.53605
_cell_angle_alpha    78.2832
_cell_angle_beta     78.2832
_cell_angle_gamma    59.9999

_symmetry_Int_Tables_number  166
_chemical_formula_structural  TmFe2O4
_chemical_formula_sum  TmFe2O4
_cell_volume  86.37530554242088
_cell_formula_units_Z  1
loop_
  _symmetry_equiv_pos_site_id
 _symmetry_equiv_pos_as_xyz
 1  'x, y, z'
loop_
 _atom_site_type_symbol
 _atom_site_label
 _atom_site_symmetry_multiplicity
 _atom_site_fract_x
 _atom_site_fract_y
 _atom_site_fract_z
 _atom_site_fract_occupancy
 Fe  Fe1  1  0.21330  0.21330  0.36011  1
 Fe  Fe2  1  0.78670  0.78670  0.63989  1
 O  O1  1  0.12659  0.12659  0.62024  1
 O  O2  1  0.87341  0.87341  0.37976  1
 O  O3  1  0.29226  0.29226  0.12323  1
 O  O4  1  0.70774  0.70774  0.87677  1
 Tm  Tm1  1  0.00000  0.00000  0.00000  1
