CIF file written using JARVIS-Tools package.
data_HgSeO3
_symmetry_space_group_name_H-M  'P2_1/c'
_cell_length_a       4.27615
_cell_length_b       7.4383
_cell_length_c       10.3867
_cell_angle_alpha    90
_cell_angle_beta     90
_cell_angle_gamma    102.93

_symmetry_Int_Tables_number  14
_chemical_formula_structural  HgSeO3
_chemical_formula_sum  Hg4Se4O2
_cell_volume  321.9951555656071
_cell_formula_units_Z  4
loop_
  _symmetry_equiv_pos_site_id
 _symmetry_equiv_pos_as_xyz
 1  'x, y, z'
loop_
 _atom_site_type_symbol
 _atom_site_label
 _atom_site_symmetry_multiplicity
 _atom_site_fract_x
 _atom_site_fract_y
 _atom_site_fract_z
 _atom_site_fract_occupancy
 Hg  Hg1  1  0.09198  0.40390  0.82804  1
 Hg  Hg2  1  0.90802  0.59610  0.17196  1
 Hg  Hg3  1  0.90802  0.09610  0.32804  1
 Hg  Hg4  1  0.09198  0.90390  0.67196  1
 O  O1  1  0.83846  0.14221  0.52435  1
 O  O2  1  0.98880  0.97838  0.86196  1
 O  O3  1  0.50073  0.77620  0.28370  1
 O  O4  1  0.01120  0.52162  0.36196  1
 O  O5  1  0.49927  0.22380  0.71630  1
 O  O6  1  0.01120  0.02162  0.13804  1
 O  O7  1  0.98880  0.47838  0.63804  1
 O  O8  1  0.16154  0.85779  0.47565  1
 O  O9  1  0.16154  0.35779  0.02435  1
 O  O10  1  0.50073  0.27620  0.21630  1
 O  O11  1  0.83846  0.64221  0.97565  1
 O  O12  1  0.49927  0.72380  0.78370  1
 Se  Se1  1  0.65450  0.32085  0.57558  1
 Se  Se2  1  0.65450  0.82085  0.92442  1
 Se  Se3  1  0.34550  0.17915  0.07558  1
 Se  Se4  1  0.34550  0.67915  0.42442  1
