CIF file written using JARVIS-Tools package.
data_Rb2Pd3S4
_symmetry_space_group_name_H-M  'Fmmm'
_cell_length_a       6.20093
_cell_length_b       6.2008
_cell_length_c       7.29248
_cell_angle_alpha    102.609
_cell_angle_beta     102.61
_cell_angle_gamma    119.112

_symmetry_Int_Tables_number  69
_chemical_formula_structural  Rb2Pd3S4
_chemical_formula_sum  Rb2Pd3S4
_cell_volume  221.07397371108442
_cell_formula_units_Z  1
loop_
  _symmetry_equiv_pos_site_id
 _symmetry_equiv_pos_as_xyz
 1  'x, y, z'
loop_
 _atom_site_type_symbol
 _atom_site_label
 _atom_site_symmetry_multiplicity
 _atom_site_fract_x
 _atom_site_fract_y
 _atom_site_fract_z
 _atom_site_fract_occupancy
 Pd  Pd1  1  0.50000  -0.00000  -0.00000  1
 Pd  Pd2  1  0.50000  0.50000  -0.00000  1
 Pd  Pd3  1  0.00000  0.50000  0.00000  1
 Rb  Rb1  1  0.84251  0.84251  0.68503  1
 Rb  Rb2  1  0.15749  0.15749  0.31497  1
 S  S1  1  0.21448  0.55008  0.76455  1
 S  S2  1  0.44993  0.78552  0.23545  1
 S  S3  1  0.55007  0.21448  0.76455  1
 S  S4  1  0.78552  0.44992  0.23545  1
