CIF file written using JARVIS-Tools package.
data_LaOs2
_symmetry_space_group_name_H-M  'Fd-3m'
_cell_length_a       5.50087
_cell_length_b       5.50087
_cell_length_c       5.50087
_cell_angle_alpha    59.9999
_cell_angle_beta     59.9999
_cell_angle_gamma    60

_symmetry_Int_Tables_number  227
_chemical_formula_structural  LaOs2
_chemical_formula_sum  La2Os4
_cell_volume  117.70081402933214
_cell_formula_units_Z  2
loop_
  _symmetry_equiv_pos_site_id
 _symmetry_equiv_pos_as_xyz
 1  'x, y, z'
loop_
 _atom_site_type_symbol
 _atom_site_label
 _atom_site_symmetry_multiplicity
 _atom_site_fract_x
 _atom_site_fract_y
 _atom_site_fract_z
 _atom_site_fract_occupancy
 La  La1  1  0.87500  0.87500  0.87500  1
 La  La2  1  0.12500  0.12500  0.12500  1
 Os  Os1  1  0.50000  0.50000  0.50000  1
 Os  Os2  1  0.50000  0.50000  -0.00000  1
 Os  Os3  1  0.00000  0.50000  0.50000  1
 Os  Os4  1  0.50000  0.00000  0.50000  1
