CIF file written using JARVIS-Tools package.
data_Tl4PbI6
_symmetry_space_group_name_H-M  'Pbam'
_cell_length_a       4.59367
_cell_length_b       9.9383
_cell_length_c       19.2097
_cell_angle_alpha    90
_cell_angle_beta     90
_cell_angle_gamma    90

_symmetry_Int_Tables_number  55
_chemical_formula_structural  Tl4PbI6
_chemical_formula_sum  Tl8Pb2I2
_cell_volume  876.9861975591413
_cell_formula_units_Z  2
loop_
  _symmetry_equiv_pos_site_id
 _symmetry_equiv_pos_as_xyz
 1  'x, y, z'
loop_
 _atom_site_type_symbol
 _atom_site_label
 _atom_site_symmetry_multiplicity
 _atom_site_fract_x
 _atom_site_fract_y
 _atom_site_fract_z
 _atom_site_fract_occupancy
 I  I1  1  0.00000  0.30610  0.05463  1
 I  I2  1  0.00000  0.40885  0.78615  1
 I  I3  1  0.00000  0.09115  0.28615  1
 I  I4  1  0.00000  0.90885  0.71385  1
 I  I5  1  0.50000  0.44101  0.38350  1
 I  I6  1  0.50000  0.55899  0.61650  1
 I  I7  1  0.50000  0.94101  0.11650  1
 I  I8  1  0.50000  0.05899  0.88350  1
 I  I9  1  0.00000  0.80610  0.44537  1
 I  I10  1  0.00000  0.59115  0.21385  1
 I  I11  1  0.00000  0.69390  0.94537  1
 I  I12  1  0.00000  0.19390  0.55463  1
 Pb  Pb1  1  0.00000  0.00000  0.00000  1
 Pb  Pb2  1  0.00000  0.50000  0.50000  1
 Tl  Tl1  1  0.50000  0.39365  0.91986  1
 Tl  Tl2  1  0.50000  0.60635  0.08014  1
 Tl  Tl3  1  0.50000  0.79275  0.29553  1
 Tl  Tl4  1  0.50000  0.20725  0.70447  1
 Tl  Tl5  1  0.50000  0.29275  0.20447  1
 Tl  Tl6  1  0.50000  0.70725  0.79553  1
 Tl  Tl7  1  0.50000  0.10635  0.41986  1
 Tl  Tl8  1  0.50000  0.89365  0.58014  1
