CIF file written using JARVIS-Tools package.
data_NbS2
_symmetry_space_group_name_H-M  'P6_3/mmc'
_cell_length_a       3.36016
_cell_length_b       3.36013
_cell_length_c       13.1628
_cell_angle_alpha    90
_cell_angle_beta     90
_cell_angle_gamma    120

_symmetry_Int_Tables_number  194
_chemical_formula_structural  NbS2
_chemical_formula_sum  Nb2S4
_cell_volume  128.7040567305641
_cell_formula_units_Z  2
loop_
  _symmetry_equiv_pos_site_id
 _symmetry_equiv_pos_as_xyz
 1  'x, y, z'
loop_
 _atom_site_type_symbol
 _atom_site_label
 _atom_site_symmetry_multiplicity
 _atom_site_fract_x
 _atom_site_fract_y
 _atom_site_fract_z
 _atom_site_fract_occupancy
 Nb  Nb1  1  0.66669  0.33333  0.25000  1
 Nb  Nb2  1  0.33336  0.66667  0.75000  1
 S  S1  1  0.00001  -0.00001  0.13057  1
 S  S2  1  0.00001  -0.00001  0.36943  1
 S  S3  1  0.00001  0.00001  0.63057  1
 S  S4  1  0.00001  0.00001  0.86943  1
