CIF file written using JARVIS-Tools package.
data_KBF4
_symmetry_space_group_name_H-M  'I222'
_cell_length_a       4.98383
_cell_length_b       4.9802
_cell_length_c       5.11817
_cell_angle_alpha    59.0579
_cell_angle_beta     59.1023
_cell_angle_gamma    84.2611

_symmetry_Int_Tables_number  23
_chemical_formula_structural  KBF4
_chemical_formula_sum  KBF4
_cell_volume  91.14222733611821
_cell_formula_units_Z  1
loop_
  _symmetry_equiv_pos_site_id
 _symmetry_equiv_pos_as_xyz
 1  'x, y, z'
loop_
 _atom_site_type_symbol
 _atom_site_label
 _atom_site_symmetry_multiplicity
 _atom_site_fract_x
 _atom_site_fract_y
 _atom_site_fract_z
 _atom_site_fract_occupancy
 B  B1  1  0.85902  0.72202  0.61359  1
 F  F1  1  0.58289  0.69203  0.92579  1
 F  F2  1  0.13528  0.75189  0.61945  1
 F  F3  1  0.82954  0.44569  0.60741  1
 F  F4  1  0.88835  -0.00143  0.30164  1
 K  K1  1  0.35892  0.22180  0.61410  1
