CIF file written using JARVIS-Tools package.
data_NaFeN
_symmetry_space_group_name_H-M  'Cmmm'
_cell_length_a       3.46071
_cell_length_b       5.05418
_cell_length_c       5.05417
_cell_angle_alpha    81.1615
_cell_angle_beta     90.0004
_cell_angle_gamma    90.0004

_symmetry_Int_Tables_number  65
_chemical_formula_structural  NaFeN
_chemical_formula_sum  Na2Fe2N2
_cell_volume  87.35291001554587
_cell_formula_units_Z  2
loop_
  _symmetry_equiv_pos_site_id
 _symmetry_equiv_pos_as_xyz
 1  'x, y, z'
loop_
 _atom_site_type_symbol
 _atom_site_label
 _atom_site_symmetry_multiplicity
 _atom_site_fract_x
 _atom_site_fract_y
 _atom_site_fract_z
 _atom_site_fract_occupancy
 Fe  Fe1  1  -0.00000  0.17166  0.82834  1
 Fe  Fe2  1  0.00000  0.82834  0.17166  1
 N  N1  1  0.50000  0.78737  0.21263  1
 N  N2  1  0.50000  0.21263  0.78737  1
 Na  Na1  1  0.50003  0.28601  0.28601  1
 Na  Na2  1  0.49997  0.71399  0.71399  1
