CIF file written using JARVIS-Tools package.
data_Si3P3Rh
_symmetry_space_group_name_H-M  'P1'
_cell_length_a       4.93995
_cell_length_b       4.96
_cell_length_c       5.56711
_cell_angle_alpha    108.925
_cell_angle_beta     108.29
_cell_angle_gamma    94.9089

_symmetry_Int_Tables_number  1
_chemical_formula_structural  Si3P3Rh
_chemical_formula_sum  Si3P3Rh
_cell_volume  119.81931881270692
_cell_formula_units_Z  1
loop_
  _symmetry_equiv_pos_site_id
 _symmetry_equiv_pos_as_xyz
 1  'x, y, z'
loop_
 _atom_site_type_symbol
 _atom_site_label
 _atom_site_symmetry_multiplicity
 _atom_site_fract_x
 _atom_site_fract_y
 _atom_site_fract_z
 _atom_site_fract_occupancy
 P  P1  1  0.83954  0.29176  0.84448  1
 P  P2  1  0.15093  0.70892  0.14806  1
 P  P3  1  0.29228  0.83991  0.85175  1
 Rh  Rh1  1  0.00072  0.00287  0.49916  1
 Si  Si1  1  0.58644  0.60227  0.36477  1
 Si  Si2  1  0.40342  0.40949  0.63281  1
 Si  Si3  1  0.71226  0.15918  0.15897  1
