CIF file written using JARVIS-Tools package.
data_SrZnSe2O6
_symmetry_space_group_name_H-M  'P2_1/c'
_cell_length_a       4.45073
_cell_length_b       9.28351
_cell_length_c       15.1519
_cell_angle_alpha    90
_cell_angle_beta     90
_cell_angle_gamma    93.8928

_symmetry_Int_Tables_number  14
_chemical_formula_structural  SrZnSe2O6
_chemical_formula_sum  Sr4Zn4Se8O24
_cell_volume  624.6074654578368
_cell_formula_units_Z  4
loop_
  _symmetry_equiv_pos_site_id
 _symmetry_equiv_pos_as_xyz
 1  'x, y, z'
loop_
 _atom_site_type_symbol
 _atom_site_label
 _atom_site_symmetry_multiplicity
 _atom_site_fract_x
 _atom_site_fract_y
 _atom_site_fract_z
 _atom_site_fract_occupancy
 O  O1  1  0.32310  0.27186  0.39180  1
 O  O2  1  0.86042  0.29242  0.48959  1
 O  O3  1  0.13958  0.70758  0.51041  1
 O  O4  1  0.70920  0.41312  0.81069  1
 O  O5  1  0.79080  0.08688  0.31069  1
 O  O6  1  0.86680  0.45961  0.28689  1
 O  O7  1  0.36680  0.95961  0.21311  1
 O  O8  1  0.67690  0.72814  0.60820  1
 O  O9  1  0.63320  0.04039  0.78689  1
 O  O10  1  0.27035  0.10963  0.53587  1
 O  O11  1  0.54345  0.23394  0.18413  1
 O  O12  1  0.72965  0.89037  0.46413  1
 O  O13  1  0.20920  0.91312  0.68931  1
 O  O14  1  0.13320  0.54039  0.71311  1
 O  O15  1  0.36042  0.79242  0.01041  1
 O  O16  1  0.45655  0.76606  0.81587  1
 O  O17  1  0.29080  0.58688  0.18931  1
 O  O18  1  0.77035  0.60963  0.96413  1
 O  O19  1  0.17690  0.22814  0.89180  1
 O  O20  1  0.04345  0.73394  0.31587  1
 O  O21  1  0.95655  0.26606  0.68413  1
 O  O22  1  0.82310  0.77186  0.10820  1
 O  O23  1  0.22965  0.39037  0.03587  1
 O  O24  1  0.63958  0.20758  0.98959  1
 Se  Se1  1  0.19311  0.57327  0.30223  1
 Se  Se2  1  0.74593  0.78759  0.99510  1
 Se  Se3  1  0.75407  0.71241  0.49510  1
 Se  Se4  1  0.24593  0.28759  0.50490  1
 Se  Se5  1  0.25407  0.21241  0.00490  1
 Se  Se6  1  0.80689  0.42673  0.69777  1
 Se  Se7  1  0.30689  0.92673  0.80223  1
 Se  Se8  1  0.69311  0.07327  0.19777  1
 Sr  Sr1  1  0.24666  0.96697  0.38254  1
 Sr  Sr2  1  0.74666  0.46697  0.11746  1
 Sr  Sr3  1  0.75334  0.03303  0.61746  1
 Sr  Sr4  1  0.25334  0.53303  0.88254  1
 Zn  Zn1  1  0.73172  0.21216  0.85784  1
 Zn  Zn2  1  0.23172  0.71216  0.64216  1
 Zn  Zn3  1  0.76828  0.28784  0.35784  1
 Zn  Zn4  1  0.26828  0.78784  0.14216  1
