CIF file written using JARVIS-Tools package.
data_Mg6CrMo
_symmetry_space_group_name_H-M  'Amm2'
_cell_length_a       6.10386
_cell_length_b       5.67307
_cell_length_c       4.83611
_cell_angle_alpha    90
_cell_angle_beta     90
_cell_angle_gamma    117.692

_symmetry_Int_Tables_number  38
_chemical_formula_structural  Mg6CrMo
_chemical_formula_sum  Mg6CrMo
_cell_volume  148.28230559959087
_cell_formula_units_Z  1
loop_
  _symmetry_equiv_pos_site_id
 _symmetry_equiv_pos_as_xyz
 1  'x, y, z'
loop_
 _atom_site_type_symbol
 _atom_site_label
 _atom_site_symmetry_multiplicity
 _atom_site_fract_x
 _atom_site_fract_y
 _atom_site_fract_z
 _atom_site_fract_occupancy
 Cr  Cr1  1  0.15677  0.32839  0.25000  1
 Mg  Mg1  1  0.65021  0.32497  0.25000  1
 Mg  Mg2  1  0.65021  0.82524  0.25000  1
 Mg  Mg3  1  0.32925  0.16340  0.75000  1
 Mg  Mg4  1  0.32925  0.66585  0.75000  1
 Mg  Mg5  1  0.87404  0.18702  0.75000  1
 Mg  Mg6  1  0.86272  0.68136  0.75000  1
 Mo  Mo1  1  0.14755  0.82377  0.25000  1
