CIF file written using JARVIS-Tools package.
data_SiO2
_symmetry_space_group_name_H-M  'I432'
_cell_length_a       9.26177
_cell_length_b       9.26177
_cell_length_c       9.26177
_cell_angle_alpha    109.471
_cell_angle_beta     109.471
_cell_angle_gamma    109.471

_symmetry_Int_Tables_number  211
_chemical_formula_structural  SiO2
_chemical_formula_sum  Si2O24
_cell_volume  611.5895947621332
_cell_formula_units_Z  12
loop_
  _symmetry_equiv_pos_site_id
 _symmetry_equiv_pos_as_xyz
 1  'x, y, z'
loop_
 _atom_site_type_symbol
 _atom_site_label
 _atom_site_symmetry_multiplicity
 _atom_site_fract_x
 _atom_site_fract_y
 _atom_site_fract_z
 _atom_site_fract_occupancy
 O  O1  1  0.91283  0.08717  0.50000  1
 O  O2  1  0.82566  0.41283  0.91283  1
 O  O3  1  0.73596  0.36798  0.36798  1
 O  O4  1  0.63202  0.36798  0.00000  1
 O  O5  1  0.08717  0.50000  0.91283  1
 O  O6  1  0.00000  0.36798  0.63202  1
 O  O7  1  0.41283  0.50000  0.58717  1
 O  O8  1  0.50000  0.58717  0.41283  1
 O  O9  1  0.58717  0.17434  0.08717  1
 O  O10  1  0.63202  0.63202  0.26404  1
 O  O11  1  0.08717  0.58717  0.17434  1
 O  O12  1  0.36798  0.36798  0.73596  1
 O  O13  1  0.63202  0.26404  0.63202  1
 O  O14  1  0.91283  0.82566  0.41283  1
 O  O15  1  0.41283  0.91283  0.82566  1
 O  O16  1  0.58717  0.41283  0.50000  1
 O  O17  1  0.36798  0.73596  0.36798  1
 O  O18  1  0.36798  0.00000  0.63202  1
 O  O19  1  -0.00000  0.63202  0.36798  1
 O  O20  1  0.63202  -0.00000  0.36798  1
 O  O21  1  0.50000  0.91283  0.08717  1
 O  O22  1  0.36798  0.63202  -0.00000  1
 O  O23  1  0.26404  0.63202  0.63202  1
 O  O24  1  0.17434  0.08717  0.58717  1
 Si  Si1  1  0.62453  0.50000  0.37547  1
 Si  Si2  1  0.87547  0.50000  0.12453  1
 Si  Si3  1  0.87547  0.37547  0.75095  1
 Si  Si4  1  0.62453  0.12453  0.24905  1
 Si  Si5  1  0.12453  0.87547  0.50000  1
 Si  Si6  1  0.75095  0.87547  0.37547  1
 Si  Si7  1  0.50000  0.37547  0.62453  1
 Si  Si8  1  0.37547  0.75095  0.87547  1
 Si  Si9  1  0.12453  0.24905  0.62453  1
 Si  Si10  1  0.37547  0.62453  0.50000  1
 Si  Si11  1  0.50000  0.12453  0.87547  1
 Si  Si12  1  0.24905  0.62453  0.12453  1
