CIF file written using JARVIS-Tools package.
data_UO2F2
_symmetry_space_group_name_H-M  'R-3m'
_cell_length_a       5.6035
_cell_length_b       5.6035
_cell_length_c       5.60351
_cell_angle_alpha    44.3543
_cell_angle_beta     44.3543
_cell_angle_gamma    44.3543

_symmetry_Int_Tables_number  166
_chemical_formula_structural  UO2F2
_chemical_formula_sum  UO2F2
_cell_volume  78.16008950855704
_cell_formula_units_Z  1
loop_
  _symmetry_equiv_pos_site_id
 _symmetry_equiv_pos_as_xyz
 1  'x, y, z'
loop_
 _atom_site_type_symbol
 _atom_site_label
 _atom_site_symmetry_multiplicity
 _atom_site_fract_x
 _atom_site_fract_y
 _atom_site_fract_z
 _atom_site_fract_occupancy
 F  F1  1  0.33696  0.33696  0.33696  1
 F  F2  1  0.66304  0.66304  0.66304  1
 O  O1  1  0.11788  0.11788  0.11788  1
 O  O2  1  0.88212  0.88212  0.88212  1
 U  U1  1  0.00000  0.00000  0.00000  1
