CIF file written using JARVIS-Tools package.
data_Li2Ga
_symmetry_space_group_name_H-M  'Cmcm'
_cell_length_a       4.33352
_cell_length_b       4.46896
_cell_length_c       5.1959
_cell_angle_alpha    115.471
_cell_angle_beta     90
_cell_angle_gamma    90

_symmetry_Int_Tables_number  63
_chemical_formula_structural  Li2Ga
_chemical_formula_sum  Li4Ga2
_cell_volume  90.84559840851973
_cell_formula_units_Z  2
loop_
  _symmetry_equiv_pos_site_id
 _symmetry_equiv_pos_as_xyz
 1  'x, y, z'
loop_
 _atom_site_type_symbol
 _atom_site_label
 _atom_site_symmetry_multiplicity
 _atom_site_fract_x
 _atom_site_fract_y
 _atom_site_fract_z
 _atom_site_fract_occupancy
 Ga  Ga1  1  0.25000  0.92002  0.84003  1
 Ga  Ga2  1  0.75000  0.07998  0.15997  1
 Li  Li1  1  0.25000  0.58606  0.17212  1
 Li  Li2  1  0.75000  0.41394  0.82788  1
 Li  Li3  1  0.75000  0.75904  0.51808  1
 Li  Li4  1  0.25000  0.24096  0.48192  1
