CIF file written using JARVIS-Tools package.
data_MoWSe2S2
_symmetry_space_group_name_H-M  'Amm2'
_cell_length_a       3.25906
_cell_length_b       3.25906
_cell_length_c       12.9691
_cell_angle_alpha    90.0139
_cell_angle_beta     89.9927
_cell_angle_gamma    119.998

_symmetry_Int_Tables_number  38
_chemical_formula_structural  MoWSe2S2
_chemical_formula_sum  MoWSe2S2
_cell_volume  119.2973375987584
_cell_formula_units_Z  1
loop_
  _symmetry_equiv_pos_site_id
 _symmetry_equiv_pos_as_xyz
 1  'x, y, z'
loop_
 _atom_site_type_symbol
 _atom_site_label
 _atom_site_symmetry_multiplicity
 _atom_site_fract_x
 _atom_site_fract_y
 _atom_site_fract_z
 _atom_site_fract_occupancy
 Mo  Mo1  1  0.66606  0.33385  0.55092  1
 S  S1  1  0.33272  0.66731  0.67012  1
 S  S2  1  0.33273  0.66707  0.43172  1
 Se  Se1  1  0.66728  0.33267  0.91922  1
 Se  Se2  1  0.66728  0.33295  0.18267  1
 W  W1  1  0.33394  0.66615  0.05095  1
