CIF file written using JARVIS-Tools package.
data_Ni5Se4Br2O12
_symmetry_space_group_name_H-M  'P-1'
_cell_length_a       6.48471
_cell_length_b       7.59017
_cell_length_c       7.68068
_cell_angle_alpha    68.2004
_cell_angle_beta     73.7558
_cell_angle_gamma    81.6467

_symmetry_Int_Tables_number  2
_chemical_formula_structural  Ni5Se4Br2O12
_chemical_formula_sum  Ni5Se4Br2O2
_cell_volume  336.63253946191537
_cell_formula_units_Z  1
loop_
  _symmetry_equiv_pos_site_id
 _symmetry_equiv_pos_as_xyz
 1  'x, y, z'
loop_
 _atom_site_type_symbol
 _atom_site_label
 _atom_site_symmetry_multiplicity
 _atom_site_fract_x
 _atom_site_fract_y
 _atom_site_fract_z
 _atom_site_fract_occupancy
 Br  Br1  1  0.70531  0.65901  0.02001  1
 Br  Br2  1  0.29469  0.34099  0.97999  1
 Ni  Ni1  1  0.36891  0.30980  0.58227  1
 Ni  Ni2  1  0.82291  0.87390  0.64811  1
 Ni  Ni3  1  0.50000  0.00000  0.00000  1
 Ni  Ni4  1  0.63109  0.69020  0.41773  1
 Ni  Ni5  1  0.17709  0.12610  0.35189  1
 O  O1  1  0.54269  0.79708  0.63200  1
 O  O2  1  0.86148  0.09445  0.39485  1
 O  O3  1  0.33744  0.04639  0.79226  1
 O  O4  1  0.45731  0.20292  0.36800  1
 O  O5  1  0.08111  0.30314  0.51863  1
 O  O6  1  0.91889  0.69686  0.48137  1
 O  O7  1  0.76936  0.07209  0.78828  1
 O  O8  1  0.33841  0.59552  0.45678  1
 O  O9  1  0.23064  0.92791  0.21172  1
 O  O10  1  0.66159  0.40448  0.54322  1
 O  O11  1  0.66256  0.95361  0.20774  1
 O  O12  1  0.13852  0.90555  0.60515  1
 Se  Se1  1  0.70967  0.16630  0.22613  1
 Se  Se2  1  0.29033  0.83370  0.77387  1
 Se  Se3  1  0.15925  0.69211  0.30875  1
 Se  Se4  1  0.84075  0.30789  0.69125  1
