CIF file written using JARVIS-Tools package.
data_Ca3CuIrO6
_symmetry_space_group_name_H-M  'C2/c'
_cell_length_a       6.48574
_cell_length_b       6.50248
_cell_length_c       6.50249
_cell_angle_alpha    90.9602
_cell_angle_beta     90.0035
_cell_angle_gamma    90.0035

_symmetry_Int_Tables_number  15
_chemical_formula_structural  Ca3CuIrO6
_chemical_formula_sum  Ca6Cu2Ir2O2
_cell_volume  274.19343780991136
_cell_formula_units_Z  2
loop_
  _symmetry_equiv_pos_site_id
 _symmetry_equiv_pos_as_xyz
 1  'x, y, z'
loop_
 _atom_site_type_symbol
 _atom_site_label
 _atom_site_symmetry_multiplicity
 _atom_site_fract_x
 _atom_site_fract_y
 _atom_site_fract_z
 _atom_site_fract_occupancy
 Ca  Ca1  1  0.75000  0.59935  0.40065  1
 Ca  Ca2  1  0.25000  0.40065  0.59935  1
 Ca  Ca3  1  0.61869  0.74084  0.88897  1
 Ca  Ca4  1  0.88131  0.11103  0.25916  1
 Ca  Ca5  1  0.38131  0.25916  0.11103  1
 Ca  Ca6  1  0.11869  0.88897  0.74084  1
 Cu  Cu1  1  0.25000  0.80587  0.19413  1
 Cu  Cu2  1  0.75000  0.19413  0.80587  1
 Ir  Ir1  1  0.00000  0.50000  -0.00000  1
 Ir  Ir2  1  0.50000  0.00000  0.50000  1
 O  O1  1  0.56708  0.29221  0.42588  1
 O  O2  1  0.95346  0.79411  0.09524  1
 O  O3  1  0.45346  0.09524  0.79411  1
 O  O4  1  0.04654  0.20589  0.90476  1
 O  O5  1  0.54654  0.90476  0.20589  1
 O  O6  1  0.06708  0.42588  0.29221  1
 O  O7  1  0.79360  0.96422  0.59769  1
 O  O8  1  0.70640  0.40231  0.03578  1
 O  O9  1  0.43292  0.70779  0.57412  1
 O  O10  1  0.20640  0.03578  0.40231  1
 O  O11  1  0.29360  0.59769  0.96422  1
 O  O12  1  0.93292  0.57412  0.70779  1
