CIF file written using JARVIS-Tools package.
data_ErSiRu2C
_symmetry_space_group_name_H-M  'Cmcm'
_cell_length_a       5.8931
_cell_length_b       5.8931
_cell_length_c       7.11855
_cell_angle_alpha    90
_cell_angle_beta     90
_cell_angle_gamma    142.765

_symmetry_Int_Tables_number  63
_chemical_formula_structural  ErSiRu2C
_chemical_formula_sum  Er2Si2Ru4C2
_cell_volume  149.58639529694824
_cell_formula_units_Z  2
loop_
  _symmetry_equiv_pos_site_id
 _symmetry_equiv_pos_as_xyz
 1  'x, y, z'
loop_
 _atom_site_type_symbol
 _atom_site_label
 _atom_site_symmetry_multiplicity
 _atom_site_fract_x
 _atom_site_fract_y
 _atom_site_fract_z
 _atom_site_fract_occupancy
 C  C1  1  0.00000  0.00000  0.00000  1
 C  C2  1  0.00000  0.00000  0.50000  1
 Er  Er1  1  0.54644  0.45356  0.25000  1
 Er  Er2  1  0.45356  0.54644  0.75000  1
 Ru  Ru1  1  0.83660  0.16340  0.05558  1
 Ru  Ru2  1  0.16340  0.83660  0.94442  1
 Ru  Ru3  1  0.16340  0.83660  0.55558  1
 Ru  Ru4  1  0.83660  0.16340  0.44442  1
 Si  Si1  1  0.26834  0.73166  0.25000  1
 Si  Si2  1  0.73166  0.26834  0.75000  1
