CIF file written using JARVIS-Tools package.
data_Mg6SiW
_symmetry_space_group_name_H-M  'Amm2'
_cell_length_a       6.07198
_cell_length_b       6.07198
_cell_length_c       4.7797
_cell_angle_alpha    90
_cell_angle_beta     90
_cell_angle_gamma    120.078

_symmetry_Int_Tables_number  38
_chemical_formula_structural  Mg6SiW
_chemical_formula_sum  Mg6SiW
_cell_volume  152.49305551681755
_cell_formula_units_Z  1
loop_
  _symmetry_equiv_pos_site_id
 _symmetry_equiv_pos_as_xyz
 1  'x, y, z'
loop_
 _atom_site_type_symbol
 _atom_site_label
 _atom_site_symmetry_multiplicity
 _atom_site_fract_x
 _atom_site_fract_y
 _atom_site_fract_z
 _atom_site_fract_occupancy
 Mg  Mg1  1  0.17376  0.84375  0.25000  1
 Mg  Mg2  1  0.65625  0.32624  0.25000  1
 Mg  Mg3  1  0.66893  0.83107  0.25000  1
 Mg  Mg4  1  0.32733  0.66909  0.75000  1
 Mg  Mg5  1  0.83091  0.17267  0.75000  1
 Mg  Mg6  1  0.83005  0.66995  0.75000  1
 Si  Si1  1  0.19470  0.30530  0.25000  1
 W  W1  1  0.31807  0.18193  0.75000  1
