CIF file written using JARVIS-Tools package.
data_Zr3Si6Cu4
_symmetry_space_group_name_H-M  'I4/mmm'
_cell_length_a       3.74383
_cell_length_b       3.74383
_cell_length_c       14.4727
_cell_angle_alpha    97.4316
_cell_angle_beta     97.4316
_cell_angle_gamma    90

_symmetry_Int_Tables_number  139
_chemical_formula_structural  Zr3Si6Cu4
_chemical_formula_sum  Zr3Si6Cu4
_cell_volume  199.43121648730047
_cell_formula_units_Z  1
loop_
  _symmetry_equiv_pos_site_id
 _symmetry_equiv_pos_as_xyz
 1  'x, y, z'
loop_
 _atom_site_type_symbol
 _atom_site_label
 _atom_site_symmetry_multiplicity
 _atom_site_fract_x
 _atom_site_fract_y
 _atom_site_fract_z
 _atom_site_fract_occupancy
 Cu  Cu1  1  0.90974  0.40974  0.81947  1
 Cu  Cu2  1  0.59026  0.09026  0.18053  1
 Cu  Cu3  1  0.09026  0.59026  0.18053  1
 Cu  Cu4  1  0.40974  0.90974  0.81947  1
 Si  Si1  1  0.14600  0.14600  0.29199  1
 Si  Si2  1  0.85400  0.85400  0.70801  1
 Si  Si3  1  0.54076  0.54076  0.08152  1
 Si  Si4  1  0.75000  0.25000  0.50000  1
 Si  Si5  1  0.25000  0.75000  0.50000  1
 Si  Si6  1  0.45924  0.45924  0.91848  1
 Zr  Zr1  1  0.67487  0.67487  0.34974  1
 Zr  Zr2  1  0.32513  0.32513  0.65026  1
 Zr  Zr3  1  0.00000  0.00000  0.00000  1
