CIF file written using JARVIS-Tools package.
data_SrMg2
_symmetry_space_group_name_H-M  'P6_3/mmc'
_cell_length_a       3.81337
_cell_length_b       3.81337
_cell_length_c       16.1226
_cell_angle_alpha    90
_cell_angle_beta     90
_cell_angle_gamma    120

_symmetry_Int_Tables_number  194
_chemical_formula_structural  SrMg2
_chemical_formula_sum  Sr2Mg4
_cell_volume  203.0410756943813
_cell_formula_units_Z  2
loop_
  _symmetry_equiv_pos_site_id
 _symmetry_equiv_pos_as_xyz
 1  'x, y, z'
loop_
 _atom_site_type_symbol
 _atom_site_label
 _atom_site_symmetry_multiplicity
 _atom_site_fract_x
 _atom_site_fract_y
 _atom_site_fract_z
 _atom_site_fract_occupancy
 Mg  Mg1  1  0.33333  0.66667  0.92836  1
 Mg  Mg2  1  0.33333  0.66667  0.57164  1
 Mg  Mg3  1  0.66667  0.33333  0.42836  1
 Mg  Mg4  1  0.66667  0.33333  0.07164  1
 Sr  Sr1  1  0.66667  0.33333  0.75000  1
 Sr  Sr2  1  0.33333  0.66667  0.25000  1
