CIF file written using JARVIS-Tools package.
data_Sr2Ge2Pb
_symmetry_space_group_name_H-M  'Cmmm'
_cell_length_a       4.06553
_cell_length_b       4.64008
_cell_length_c       7.99872
_cell_angle_alpha    90
_cell_angle_beta     104.722
_cell_angle_gamma    90

_symmetry_Int_Tables_number  65
_chemical_formula_structural  Sr2Ge2Pb
_chemical_formula_sum  Sr2Ge2Pb
_cell_volume  145.93716352721705
_cell_formula_units_Z  1
loop_
  _symmetry_equiv_pos_site_id
 _symmetry_equiv_pos_as_xyz
 1  'x, y, z'
loop_
 _atom_site_type_symbol
 _atom_site_label
 _atom_site_symmetry_multiplicity
 _atom_site_fract_x
 _atom_site_fract_y
 _atom_site_fract_z
 _atom_site_fract_occupancy
 Ge  Ge1  1  0.20064  0.00000  0.40127  1
 Ge  Ge2  1  0.79936  0.00000  0.59873  1
 Pb  Pb1  1  0.00000  0.00000  0.00000  1
 Sr  Sr1  1  0.36861  0.50000  0.73722  1
 Sr  Sr2  1  0.63139  0.50000  0.26278  1
