CIF file written using JARVIS-Tools package.
data_Ca2CO3F2
_symmetry_space_group_name_H-M  'Pbcn'
_cell_length_a       6.51288
_cell_length_b       7.55703
_cell_length_c       7.68558
_cell_angle_alpha    90
_cell_angle_beta     90
_cell_angle_gamma    90

_symmetry_Int_Tables_number  60
_chemical_formula_structural  Ca2CO3F2
_chemical_formula_sum  Ca8C4O2F8
_cell_volume  378.26897563524494
_cell_formula_units_Z  4
loop_
  _symmetry_equiv_pos_site_id
 _symmetry_equiv_pos_as_xyz
 1  'x, y, z'
loop_
 _atom_site_type_symbol
 _atom_site_label
 _atom_site_symmetry_multiplicity
 _atom_site_fract_x
 _atom_site_fract_y
 _atom_site_fract_z
 _atom_site_fract_occupancy
 C  C1  1  0.75000  0.47087  0.50000  1
 C  C2  1  0.75000  0.97087  0.00000  1
 C  C3  1  0.25000  0.52913  0.50000  1
 C  C4  1  0.25000  0.02913  0.00000  1
 Ca  Ca1  1  0.03314  0.66149  0.82474  1
 Ca  Ca2  1  0.53314  0.33851  0.82474  1
 Ca  Ca3  1  0.53314  0.83851  0.67526  1
 Ca  Ca4  1  0.96686  0.33851  0.17526  1
 Ca  Ca5  1  0.46686  0.16149  0.32474  1
 Ca  Ca6  1  0.46686  0.66149  0.17526  1
 Ca  Ca7  1  0.96686  0.83851  0.32474  1
 Ca  Ca8  1  0.03314  0.16149  0.67526  1
 F  F1  1  0.10298  0.12139  0.37977  1
 F  F2  1  0.10298  0.62139  0.12023  1
 F  F3  1  0.60298  0.87861  0.37977  1
 F  F4  1  0.39702  0.62139  0.87977  1
 F  F5  1  0.89702  0.37861  0.87977  1
 F  F6  1  0.60298  0.37861  0.12023  1
 F  F7  1  0.89702  0.87861  0.62023  1
 F  F8  1  0.39702  0.12139  0.62023  1
 O  O1  1  0.75000  0.29816  0.50000  1
 O  O2  1  0.25000  0.70184  0.50000  1
 O  O3  1  0.75000  0.79816  0.00000  1
 O  O4  1  0.25000  0.20184  0.00000  1
 O  O5  1  0.17758  0.94537  0.86734  1
 O  O6  1  0.67758  0.05463  0.86734  1
 O  O7  1  0.32242  0.94537  0.13266  1
 O  O8  1  0.17758  0.44537  0.63266  1
 O  O9  1  0.32242  0.44537  0.36734  1
 O  O10  1  0.82242  0.55463  0.36734  1
 O  O11  1  0.67758  0.55463  0.63266  1
 O  O12  1  0.82242  0.05463  0.13266  1
