CIF file written using JARVIS-Tools package.
data_VB
_symmetry_space_group_name_H-M  'Cmcm'
_cell_length_a       2.96937
_cell_length_b       3.05491
_cell_length_c       4.30596
_cell_angle_alpha    110.777
_cell_angle_beta     90
_cell_angle_gamma    90

_symmetry_Int_Tables_number  63
_chemical_formula_structural  VB
_chemical_formula_sum  V2B2
_cell_volume  36.52002286131211
_cell_formula_units_Z  2
loop_
  _symmetry_equiv_pos_site_id
 _symmetry_equiv_pos_as_xyz
 1  'x, y, z'
loop_
 _atom_site_type_symbol
 _atom_site_label
 _atom_site_symmetry_multiplicity
 _atom_site_fract_x
 _atom_site_fract_y
 _atom_site_fract_z
 _atom_site_fract_occupancy
 B  B1  1  0.25000  0.56159  0.12318  1
 B  B2  1  0.75000  0.43841  0.87682  1
 V  V1  1  0.25000  0.85180  0.70359  1
 V  V2  1  0.75000  0.14820  0.29641  1
