CIF file written using JARVIS-Tools package.
data_SmSnAu
_symmetry_space_group_name_H-M  'P6_3/mmc'
_cell_length_a       4.71822
_cell_length_b       4.71822
_cell_length_c       7.67818
_cell_angle_alpha    90
_cell_angle_beta     90
_cell_angle_gamma    120.001

_symmetry_Int_Tables_number  194
_chemical_formula_structural  SmSnAu
_chemical_formula_sum  Sm2Sn2Au2
_cell_volume  148.02757258436117
_cell_formula_units_Z  2
loop_
  _symmetry_equiv_pos_site_id
 _symmetry_equiv_pos_as_xyz
 1  'x, y, z'
loop_
 _atom_site_type_symbol
 _atom_site_label
 _atom_site_symmetry_multiplicity
 _atom_site_fract_x
 _atom_site_fract_y
 _atom_site_fract_z
 _atom_site_fract_occupancy
 Au  Au1  1  0.66667  0.33333  0.75000  1
 Au  Au2  1  0.33333  0.66667  0.25000  1
 Sm  Sm1  1  0.00000  0.00000  0.50000  1
 Sm  Sm2  1  0.00000  0.00000  0.00000  1
 Sn  Sn1  1  0.66665  0.33335  0.25000  1
 Sn  Sn2  1  0.33335  0.66665  0.75000  1
