CIF file written using JARVIS-Tools package.
data_Sc3Te4
_symmetry_space_group_name_H-M  'R3m'
_cell_length_a       13.8829
_cell_length_b       13.8829
_cell_length_c       13.8829
_cell_angle_alpha    17.1241
_cell_angle_beta     17.1241
_cell_angle_gamma    17.1241

_symmetry_Int_Tables_number  160
_chemical_formula_structural  Sc3Te4
_chemical_formula_sum  Sc3Te4
_cell_volume  202.3908352962825
_cell_formula_units_Z  1
loop_
  _symmetry_equiv_pos_site_id
 _symmetry_equiv_pos_as_xyz
 1  'x, y, z'
loop_
 _atom_site_type_symbol
 _atom_site_label
 _atom_site_symmetry_multiplicity
 _atom_site_fract_x
 _atom_site_fract_y
 _atom_site_fract_z
 _atom_site_fract_occupancy
 Sc  Sc1  1  0.99495  0.99495  0.99495  1
 Sc  Sc2  1  0.50520  0.50520  0.50520  1
 Sc  Sc3  1  0.41644  0.41644  0.41644  1
 Te  Te1  1  0.29047  0.29047  0.29047  1
 Te  Te2  1  0.70728  0.70728  0.70728  1
 Te  Te3  1  0.12526  0.12526  0.12526  1
 Te  Te4  1  0.87541  0.87541  0.87541  1
