CIF file written using JARVIS-Tools package.
data_LaAl2
_symmetry_space_group_name_H-M  'Fd-3m'
_cell_length_a       5.78252
_cell_length_b       5.78252
_cell_length_c       5.78252
_cell_angle_alpha    60
_cell_angle_beta     60
_cell_angle_gamma    60

_symmetry_Int_Tables_number  227
_chemical_formula_structural  LaAl2
_chemical_formula_sum  La2Al4
_cell_volume  136.72150103071132
_cell_formula_units_Z  2
loop_
  _symmetry_equiv_pos_site_id
 _symmetry_equiv_pos_as_xyz
 1  'x, y, z'
loop_
 _atom_site_type_symbol
 _atom_site_label
 _atom_site_symmetry_multiplicity
 _atom_site_fract_x
 _atom_site_fract_y
 _atom_site_fract_z
 _atom_site_fract_occupancy
 Al  Al1  1  0.50000  0.50000  0.50000  1
 Al  Al2  1  0.50000  0.50000  0.00000  1
 Al  Al3  1  0.00000  0.50000  0.50000  1
 Al  Al4  1  0.50000  0.00000  0.50000  1
 La  La1  1  0.87500  0.87500  0.87500  1
 La  La2  1  0.12500  0.12500  0.12500  1
