CIF file written using JARVIS-Tools package.
data_Mg6NbCo
_symmetry_space_group_name_H-M  'Amm2'
_cell_length_a       6.26172
_cell_length_b       6.26172
_cell_length_c       4.69019
_cell_angle_alpha    90
_cell_angle_beta     90
_cell_angle_gamma    123.518

_symmetry_Int_Tables_number  38
_chemical_formula_structural  Mg6NbCo
_chemical_formula_sum  Mg6NbCo
_cell_volume  153.31806090188576
_cell_formula_units_Z  1
loop_
  _symmetry_equiv_pos_site_id
 _symmetry_equiv_pos_as_xyz
 1  'x, y, z'
loop_
 _atom_site_type_symbol
 _atom_site_label
 _atom_site_symmetry_multiplicity
 _atom_site_fract_x
 _atom_site_fract_y
 _atom_site_fract_z
 _atom_site_fract_occupancy
 Co  Co1  1  0.20019  0.29981  0.25000  1
 Mg  Mg1  1  0.17958  0.84287  0.25000  1
 Mg  Mg2  1  0.65713  0.32042  0.25000  1
 Mg  Mg3  1  0.67446  0.82554  0.25000  1
 Mg  Mg4  1  0.31873  0.66712  0.75000  1
 Mg  Mg5  1  0.83288  0.18127  0.75000  1
 Mg  Mg6  1  0.83139  0.66861  0.75000  1
 Nb  Nb1  1  0.30564  0.19436  0.75000  1
