CIF file written using JARVIS-Tools package.
data_Li4UF8
_symmetry_space_group_name_H-M  'Pnma'
_cell_length_a       5.80137
_cell_length_b       10.0575
_cell_length_c       9.79411
_cell_angle_alpha    90
_cell_angle_beta     90
_cell_angle_gamma    90

_symmetry_Int_Tables_number  62
_chemical_formula_structural  Li4UF8
_chemical_formula_sum  Li6U4F32
_cell_volume  571.46111172711
_cell_formula_units_Z  4
loop_
  _symmetry_equiv_pos_site_id
 _symmetry_equiv_pos_as_xyz
 1  'x, y, z'
loop_
 _atom_site_type_symbol
 _atom_site_label
 _atom_site_symmetry_multiplicity
 _atom_site_fract_x
 _atom_site_fract_y
 _atom_site_fract_z
 _atom_site_fract_occupancy
 F  F1  1  0.86706  0.88988  0.98348  1
 F  F2  1  0.63294  0.61012  0.48348  1
 F  F3  1  0.13294  0.11012  0.01652  1
 F  F4  1  0.63294  0.88988  0.48348  1
 F  F5  1  0.86706  0.61012  0.98348  1
 F  F6  1  0.36706  0.38988  0.51652  1
 F  F7  1  0.38573  0.88619  0.98127  1
 F  F8  1  0.88573  0.11381  0.51873  1
 F  F9  1  0.12994  0.75000  0.19975  1
 F  F10  1  0.62994  0.25000  0.30025  1
 F  F11  1  0.87006  0.25000  0.80025  1
 F  F12  1  0.13294  0.38988  0.01652  1
 F  F13  1  0.37006  0.75000  0.69975  1
 F  F14  1  0.12210  0.25000  0.30966  1
 F  F15  1  0.37790  0.25000  0.80966  1
 F  F16  1  0.87790  0.75000  0.69034  1
 F  F17  1  0.12593  0.46999  0.73923  1
 F  F18  1  0.62593  0.53001  0.76077  1
 F  F19  1  0.38573  0.61381  0.98127  1
 F  F20  1  0.37407  0.03001  0.23923  1
 F  F21  1  0.61427  0.11381  0.01873  1
 F  F22  1  0.37407  0.46999  0.23923  1
 F  F23  1  0.12593  0.03001  0.73923  1
 F  F24  1  0.62210  0.75000  0.19034  1
 F  F25  1  0.36706  0.11012  0.51652  1
 F  F26  1  0.87407  0.96999  0.26077  1
 F  F27  1  0.87407  0.53001  0.26077  1
 F  F28  1  0.61427  0.38619  0.01873  1
 F  F29  1  0.11427  0.88619  0.48127  1
 F  F30  1  0.11427  0.61381  0.48127  1
 F  F31  1  0.62593  0.96999  0.76077  1
 F  F32  1  0.88573  0.38619  0.51873  1
 Li  Li1  1  0.62977  0.41978  0.39967  1
 Li  Li2  1  0.12977  0.58022  0.10033  1
 Li  Li3  1  0.87871  0.94692  0.62831  1
 Li  Li4  1  0.37871  0.05308  0.87169  1
 Li  Li5  1  0.12129  0.44692  0.37169  1
 Li  Li6  1  0.62129  0.55308  0.12831  1
 Li  Li7  1  0.62129  0.94692  0.12831  1
 Li  Li8  1  0.12129  0.05308  0.37169  1
 Li  Li9  1  0.37871  0.44692  0.87169  1
 Li  Li10  1  0.62977  0.08022  0.39967  1
 Li  Li11  1  0.87023  0.08022  0.89967  1
 Li  Li12  1  0.12977  0.91978  0.10033  1
 Li  Li13  1  0.37023  0.58022  0.60033  1
 Li  Li14  1  0.87871  0.55308  0.62831  1
 Li  Li15  1  0.37023  0.91978  0.60033  1
 Li  Li16  1  0.87023  0.41978  0.89967  1
 U  U1  1  0.86835  0.75000  0.36308  1
 U  U2  1  0.36835  0.25000  0.13692  1
 U  U3  1  0.13165  0.25000  0.63692  1
 U  U4  1  0.63165  0.75000  0.86308  1
