CIF file written using JARVIS-Tools package.
data_Ti2NiP5
_symmetry_space_group_name_H-M  'Pnma'
_cell_length_a       3.35462
_cell_length_b       11.2026
_cell_length_c       12.488
_cell_angle_alpha    90
_cell_angle_beta     90
_cell_angle_gamma    90

_symmetry_Int_Tables_number  62
_chemical_formula_structural  Ti2NiP5
_chemical_formula_sum  Ti8Ni4P20
_cell_volume  469.30448408123266
_cell_formula_units_Z  4
loop_
  _symmetry_equiv_pos_site_id
 _symmetry_equiv_pos_as_xyz
 1  'x, y, z'
loop_
 _atom_site_type_symbol
 _atom_site_label
 _atom_site_symmetry_multiplicity
 _atom_site_fract_x
 _atom_site_fract_y
 _atom_site_fract_z
 _atom_site_fract_occupancy
 Ni  Ni1  1  0.25000  0.84607  0.32732  1
 Ni  Ni2  1  0.25000  0.34607  0.17268  1
 Ni  Ni3  1  0.75000  0.65393  0.82732  1
 Ni  Ni4  1  0.75000  0.15393  0.67268  1
 P  P1  1  0.25000  0.28193  0.61369  1
 P  P2  1  0.25000  0.56737  0.46441  1
 P  P3  1  0.25000  0.57181  0.72916  1
 P  P4  1  0.25000  0.78193  0.88631  1
 P  P5  1  0.25000  0.82359  0.62601  1
 P  P6  1  0.25000  0.07181  0.77084  1
 P  P7  1  0.75000  0.92819  0.22916  1
 P  P8  1  0.75000  0.06246  0.51834  1
 P  P9  1  0.75000  0.43263  0.53559  1
 P  P10  1  0.25000  0.06737  0.03559  1
 P  P11  1  0.75000  0.93263  0.96441  1
 P  P12  1  0.75000  0.42819  0.27084  1
 P  P13  1  0.75000  0.67641  0.12601  1
 P  P14  1  0.25000  0.93754  0.48166  1
 P  P15  1  0.75000  0.17641  0.37399  1
 P  P16  1  0.75000  0.71807  0.38631  1
 P  P17  1  0.75000  0.56246  0.98166  1
 P  P18  1  0.25000  0.43754  0.01834  1
 P  P19  1  0.75000  0.21807  0.11369  1
 P  P20  1  0.25000  0.32359  0.87399  1
 Ti  Ti1  1  0.25000  0.84410  0.09837  1
 Ti  Ti2  1  0.75000  0.15590  0.90163  1
 Ti  Ti3  1  0.25000  0.34410  0.40163  1
 Ti  Ti4  1  0.75000  0.65590  0.59837  1
 Ti  Ti5  1  0.25000  0.59721  0.26588  1
 Ti  Ti6  1  0.75000  0.40279  0.73412  1
 Ti  Ti7  1  0.25000  0.09721  0.23412  1
 Ti  Ti8  1  0.75000  0.90279  0.76588  1
