CIF file written using JARVIS-Tools package.
data_CuS2
_symmetry_space_group_name_H-M  'C2/m'
_cell_length_a       3.68133
_cell_length_b       6.20697
_cell_length_c       4.94885
_cell_angle_alpha    68.9752
_cell_angle_beta     89.257
_cell_angle_gamma    89.8711

_symmetry_Int_Tables_number  12
_chemical_formula_structural  CuS2
_chemical_formula_sum  Cu2S4
_cell_volume  105.54342990506208
_cell_formula_units_Z  2
loop_
  _symmetry_equiv_pos_site_id
 _symmetry_equiv_pos_as_xyz
 1  'x, y, z'
loop_
 _atom_site_type_symbol
 _atom_site_label
 _atom_site_symmetry_multiplicity
 _atom_site_fract_x
 _atom_site_fract_y
 _atom_site_fract_z
 _atom_site_fract_occupancy
 Cu  Cu1  1  0.53599  0.95811  0.29191  1
 Cu  Cu2  1  0.03595  0.45809  0.79188  1
 S  S1  1  0.53477  0.38200  0.14080  1
 S  S2  1  0.03479  0.88200  0.64081  1
 S  S3  1  0.53721  0.53423  0.44321  1
 S  S4  1  0.03724  0.03423  0.94323  1
