CIF file written using JARVIS-Tools package.
data_Na2H2Pd
_symmetry_space_group_name_H-M  'I4/mmm'
_cell_length_a       3.5649
_cell_length_b       3.5649
_cell_length_c       6.16902
_cell_angle_alpha    106.794
_cell_angle_beta     106.794
_cell_angle_gamma    90.0001

_symmetry_Int_Tables_number  139
_chemical_formula_structural  Na2H2Pd
_chemical_formula_sum  Na2H2Pd
_cell_volume  71.5554393199259
_cell_formula_units_Z  1
loop_
  _symmetry_equiv_pos_site_id
 _symmetry_equiv_pos_as_xyz
 1  'x, y, z'
loop_
 _atom_site_type_symbol
 _atom_site_label
 _atom_site_symmetry_multiplicity
 _atom_site_fract_x
 _atom_site_fract_y
 _atom_site_fract_z
 _atom_site_fract_occupancy
 H  H1  1  0.84871  0.84871  0.69742  1
 H  H2  1  0.15129  0.15129  0.30258  1
 Na  Na1  1  0.64030  0.64030  0.28060  1
 Na  Na2  1  0.35970  0.35970  0.71940  1
 Pd  Pd1  1  0.00000  0.00000  0.00000  1
