CIF file written using JARVIS-Tools package.
data_InI
_symmetry_space_group_name_H-M  'Cmcm'
_cell_length_a       4.80088
_cell_length_b       4.89975
_cell_length_c       6.89067
_cell_angle_alpha    90
_cell_angle_beta     110.387
_cell_angle_gamma    90

_symmetry_Int_Tables_number  63
_chemical_formula_structural  InI
_chemical_formula_sum  In2I2
_cell_volume  151.93672209369535
_cell_formula_units_Z  2
loop_
  _symmetry_equiv_pos_site_id
 _symmetry_equiv_pos_as_xyz
 1  'x, y, z'
loop_
 _atom_site_type_symbol
 _atom_site_label
 _atom_site_symmetry_multiplicity
 _atom_site_fract_x
 _atom_site_fract_y
 _atom_site_fract_z
 _atom_site_fract_occupancy
 I  I1  1  0.14365  0.75000  0.28730  1
 I  I2  1  0.85635  0.25000  0.71270  1
 In  In1  1  0.39652  0.75000  0.79304  1
 In  In2  1  0.60348  0.25000  0.20696  1
