CIF file written using JARVIS-Tools package.
data_LiMg6Bi
_symmetry_space_group_name_H-M  'Amm2'
_cell_length_a       6.46811
_cell_length_b       6.46811
_cell_length_c       5.11254
_cell_angle_alpha    90
_cell_angle_beta     90
_cell_angle_gamma    119.624

_symmetry_Int_Tables_number  38
_chemical_formula_structural  LiMg6Bi
_chemical_formula_sum  LiMg6Bi
_cell_volume  185.93205757174087
_cell_formula_units_Z  1
loop_
  _symmetry_equiv_pos_site_id
 _symmetry_equiv_pos_as_xyz
 1  'x, y, z'
loop_
 _atom_site_type_symbol
 _atom_site_label
 _atom_site_symmetry_multiplicity
 _atom_site_fract_x
 _atom_site_fract_y
 _atom_site_fract_z
 _atom_site_fract_occupancy
 Bi  Bi1  1  0.32689  0.17311  0.75000  1
 Li  Li1  1  0.16403  0.33597  0.25000  1
 Mg  Mg1  1  0.16068  0.81401  0.25000  1
 Mg  Mg2  1  0.68599  0.33932  0.25000  1
 Mg  Mg3  1  0.66452  0.83548  0.25000  1
 Mg  Mg4  1  0.33320  0.66611  0.75000  1
 Mg  Mg5  1  0.83389  0.16680  0.75000  1
 Mg  Mg6  1  0.83080  0.66920  0.75000  1
