CIF file written using JARVIS-Tools package.
data_Mg6CrBi
_symmetry_space_group_name_H-M  'Amm2'
_cell_length_a       6.36703
_cell_length_b       6.37272
_cell_length_c       5.12478
_cell_angle_alpha    90
_cell_angle_beta     90
_cell_angle_gamma    120.03

_symmetry_Int_Tables_number  38
_chemical_formula_structural  Mg6CrBi
_chemical_formula_sum  Mg6CrBi
_cell_volume  180.02734968182764
_cell_formula_units_Z  1
loop_
  _symmetry_equiv_pos_site_id
 _symmetry_equiv_pos_as_xyz
 1  'x, y, z'
loop_
 _atom_site_type_symbol
 _atom_site_label
 _atom_site_symmetry_multiplicity
 _atom_site_fract_x
 _atom_site_fract_y
 _atom_site_fract_z
 _atom_site_fract_occupancy
 Bi  Bi1  1  0.16404  0.83202  0.25000  1
 Cr  Cr1  1  0.16745  0.33373  0.25000  1
 Mg  Mg1  1  0.66883  0.33118  0.25000  1
 Mg  Mg2  1  0.66883  0.83765  0.25000  1
 Mg  Mg3  1  0.33532  0.18298  0.75000  1
 Mg  Mg4  1  0.33532  0.65234  0.75000  1
 Mg  Mg5  1  0.84255  0.17128  0.75000  1
 Mg  Mg6  1  0.81765  0.65883  0.75000  1
