CIF file written using JARVIS-Tools package.
data_Mg2Sn
_symmetry_space_group_name_H-M  'P-3m1'
_cell_length_a       3.30064
_cell_length_b       3.30064
_cell_length_c       15.6875
_cell_angle_alpha    90
_cell_angle_beta     90
_cell_angle_gamma    120

_symmetry_Int_Tables_number  164
_chemical_formula_structural  Mg2Sn
_chemical_formula_sum  Mg4Sn2
_cell_volume  148.00603501745587
_cell_formula_units_Z  2
loop_
  _symmetry_equiv_pos_site_id
 _symmetry_equiv_pos_as_xyz
 1  'x, y, z'
loop_
 _atom_site_type_symbol
 _atom_site_label
 _atom_site_symmetry_multiplicity
 _atom_site_fract_x
 _atom_site_fract_y
 _atom_site_fract_z
 _atom_site_fract_occupancy
 Mg  Mg1  1  0.33333  0.66667  0.91925  1
 Mg  Mg2  1  0.66667  0.33333  0.75868  1
 Mg  Mg3  1  0.33333  0.66667  0.24132  1
 Mg  Mg4  1  0.66667  0.33333  0.08075  1
 Sn  Sn1  1  0.33333  0.66667  0.59646  1
 Sn  Sn2  1  0.66667  0.33333  0.40354  1
