CIF file written using JARVIS-Tools package.
data_Na2MnO2
_symmetry_space_group_name_H-M  'C2/c'
_cell_length_a       6.14038
_cell_length_b       8.66324
_cell_length_c       8.66325
_cell_angle_alpha    87.2957
_cell_angle_beta     69.7696
_cell_angle_gamma    69.7696

_symmetry_Int_Tables_number  15
_chemical_formula_structural  Na2MnO2
_chemical_formula_sum  Na2Mn6O2
_cell_volume  404.36685217093344
_cell_formula_units_Z  6
loop_
  _symmetry_equiv_pos_site_id
 _symmetry_equiv_pos_as_xyz
 1  'x, y, z'
loop_
 _atom_site_type_symbol
 _atom_site_label
 _atom_site_symmetry_multiplicity
 _atom_site_fract_x
 _atom_site_fract_y
 _atom_site_fract_z
 _atom_site_fract_occupancy
 Mn  Mn1  1  0.25000  0.67846  0.32154  1
 Mn  Mn2  1  0.75000  0.32154  0.67846  1
 Mn  Mn3  1  0.74406  0.70747  0.87017  1
 Mn  Mn4  1  0.25594  0.29253  0.12983  1
 Mn  Mn5  1  0.24406  0.87017  0.70747  1
 Mn  Mn6  1  0.75594  0.12983  0.29253  1
 Na  Na1  1  0.25000  0.19952  0.80048  1
 Na  Na2  1  0.23591  0.99736  0.40039  1
 Na  Na3  1  0.75000  0.80048  0.19952  1
 Na  Na4  1  0.25000  0.93870  0.06130  1
 Na  Na5  1  0.72963  0.46691  0.32356  1
 Na  Na6  1  0.26409  0.59961  0.00264  1
 Na  Na7  1  0.77037  0.67644  0.53309  1
 Na  Na8  1  0.22963  0.32356  0.46691  1
 Na  Na9  1  0.76409  0.00264  0.59961  1
 Na  Na10  1  0.73591  0.40039  0.99736  1
 Na  Na11  1  0.75000  0.06130  0.93870  1
 Na  Na12  1  0.27037  0.53309  0.67644  1
 O  O1  1  0.40199  0.72036  0.48426  1
 O  O2  1  0.48429  0.10905  0.21881  1
 O  O3  1  0.09801  0.51574  0.27964  1
 O  O4  1  0.03215  0.10261  0.67170  1
 O  O5  1  0.01571  0.78119  0.89095  1
 O  O6  1  0.51571  0.89095  0.78119  1
 O  O7  1  0.98429  0.21881  0.10905  1
 O  O8  1  0.59801  0.27964  0.51574  1
 O  O9  1  0.46785  0.32830  0.89739  1
 O  O10  1  0.53215  0.67170  0.10261  1
 O  O11  1  0.90199  0.48426  0.72036  1
 O  O12  1  0.96785  0.89739  0.32830  1
