CIF file written using JARVIS-Tools package.
data_Mg6CdGa
_symmetry_space_group_name_H-M  'Amm2'
_cell_length_a       6.21877
_cell_length_b       6.44874
_cell_length_c       5.00721
_cell_angle_alpha    90
_cell_angle_beta     90
_cell_angle_gamma    121.231

_symmetry_Int_Tables_number  38
_chemical_formula_structural  Mg6CdGa
_chemical_formula_sum  Mg6CdGa
_cell_volume  171.705314737234
_cell_formula_units_Z  1
loop_
  _symmetry_equiv_pos_site_id
 _symmetry_equiv_pos_as_xyz
 1  'x, y, z'
loop_
 _atom_site_type_symbol
 _atom_site_label
 _atom_site_symmetry_multiplicity
 _atom_site_fract_x
 _atom_site_fract_y
 _atom_site_fract_z
 _atom_site_fract_occupancy
 Cd  Cd1  1  0.17054  0.33527  0.25000  1
 Ga  Ga1  1  0.16643  0.83321  0.25000  1
 Mg  Mg1  1  0.67192  0.33610  0.25000  1
 Mg  Mg2  1  0.67192  0.83582  0.25000  1
 Mg  Mg3  1  0.32674  0.15959  0.75000  1
 Mg  Mg4  1  0.32674  0.66715  0.75000  1
 Mg  Mg5  1  0.83215  0.16608  0.75000  1
 Mg  Mg6  1  0.83354  0.66677  0.75000  1
