CIF file written using JARVIS-Tools package.
data_SrIn4Pd
_symmetry_space_group_name_H-M  'Cmcm'
_cell_length_a       4.62245
_cell_length_b       7.5804
_cell_length_c       8.96461
_cell_angle_alpha    90
_cell_angle_beta     104.941
_cell_angle_gamma    90

_symmetry_Int_Tables_number  63
_chemical_formula_structural  SrIn4Pd
_chemical_formula_sum  Sr2In8Pd2
_cell_volume  303.50050513403204
_cell_formula_units_Z  2
loop_
  _symmetry_equiv_pos_site_id
 _symmetry_equiv_pos_as_xyz
 1  'x, y, z'
loop_
 _atom_site_type_symbol
 _atom_site_label
 _atom_site_symmetry_multiplicity
 _atom_site_fract_x
 _atom_site_fract_y
 _atom_site_fract_z
 _atom_site_fract_occupancy
 In  In1  1  0.68413  0.04943  0.36827  1
 In  In2  1  0.31587  0.95057  0.63173  1
 In  In3  1  0.31587  0.54943  0.63173  1
 In  In4  1  0.68413  0.45057  0.36827  1
 In  In5  1  0.06789  0.25000  0.13578  1
 In  In6  1  0.93211  0.75000  0.86422  1
 In  In7  1  0.50000  0.00000  0.00000  1
 In  In8  1  0.50000  0.50000  0.00000  1
 Pd  Pd1  1  0.22438  0.25000  0.44877  1
 Pd  Pd2  1  0.77562  0.75000  0.55123  1
 Sr  Sr1  1  0.87529  0.25000  0.75059  1
 Sr  Sr2  1  0.12471  0.75000  0.24941  1
