CIF file written using JARVIS-Tools package.
data_Mg6CuMo
_symmetry_space_group_name_H-M  'Amm2'
_cell_length_a       6.02019
_cell_length_b       6.0202
_cell_length_c       4.33353
_cell_angle_alpha    90
_cell_angle_beta     90
_cell_angle_gamma    101.317

_symmetry_Int_Tables_number  38
_chemical_formula_structural  Mg6CuMo
_chemical_formula_sum  Mg6CuMo
_cell_volume  154.00499964001773
_cell_formula_units_Z  1
loop_
  _symmetry_equiv_pos_site_id
 _symmetry_equiv_pos_as_xyz
 1  'x, y, z'
loop_
 _atom_site_type_symbol
 _atom_site_label
 _atom_site_symmetry_multiplicity
 _atom_site_fract_x
 _atom_site_fract_y
 _atom_site_fract_z
 _atom_site_fract_occupancy
 Cu  Cu1  1  0.20352  0.29648  0.25000  1
 Mg  Mg1  1  0.11778  0.85726  0.25000  1
 Mg  Mg2  1  0.64274  0.38222  0.25000  1
 Mg  Mg3  1  0.59908  0.90092  0.25000  1
 Mg  Mg4  1  0.31757  0.58823  0.75000  1
 Mg  Mg5  1  0.91177  0.18243  0.75000  1
 Mg  Mg6  1  0.82127  0.67873  0.75000  1
 Mo  Mo1  1  0.38626  0.11374  0.75000  1
