CIF file written using JARVIS-Tools package.
data_NiC2S2N2
_symmetry_space_group_name_H-M  'C2/m'
_cell_length_a       3.64529
_cell_length_b       5.50852
_cell_length_c       5.97045
_cell_angle_alpha    102.11
_cell_angle_beta     90
_cell_angle_gamma    109.322

_symmetry_Int_Tables_number  12
_chemical_formula_structural  NiC2S2N2
_chemical_formula_sum  NiC2S2N2
_cell_volume  110.30358685358108
_cell_formula_units_Z  1
loop_
  _symmetry_equiv_pos_site_id
 _symmetry_equiv_pos_as_xyz
 1  'x, y, z'
loop_
 _atom_site_type_symbol
 _atom_site_label
 _atom_site_symmetry_multiplicity
 _atom_site_fract_x
 _atom_site_fract_y
 _atom_site_fract_z
 _atom_site_fract_occupancy
 C  C1  1  0.24169  0.48338  0.78504  1
 C  C2  1  0.75831  0.51662  0.21496  1
 N  N1  1  0.13821  0.27642  0.83388  1
 N  N2  1  0.86179  0.72358  0.16612  1
 Ni  Ni1  1  0.00000  0.00000  0.00000  1
 S  S1  1  0.61045  0.22089  0.26910  1
 S  S2  1  0.38955  0.77911  0.73090  1
