CIF file written using JARVIS-Tools package.
data_Mg6AlSb
_symmetry_space_group_name_H-M  'Amm2'
_cell_length_a       6.28559
_cell_length_b       6.42576
_cell_length_c       5.15733
_cell_angle_alpha    90
_cell_angle_beta     90
_cell_angle_gamma    120.74

_symmetry_Int_Tables_number  38
_chemical_formula_structural  Mg6AlSb
_chemical_formula_sum  Mg6AlSb
_cell_volume  179.03436693489223
_cell_formula_units_Z  1
loop_
  _symmetry_equiv_pos_site_id
 _symmetry_equiv_pos_as_xyz
 1  'x, y, z'
loop_
 _atom_site_type_symbol
 _atom_site_label
 _atom_site_symmetry_multiplicity
 _atom_site_fract_x
 _atom_site_fract_y
 _atom_site_fract_z
 _atom_site_fract_occupancy
 Al  Al1  1  0.16398  0.33199  0.25000  1
 Mg  Mg1  1  0.66861  0.33251  0.25000  1
 Mg  Mg2  1  0.66861  0.83610  0.25000  1
 Mg  Mg3  1  0.33307  0.17639  0.75000  1
 Mg  Mg4  1  0.33307  0.65668  0.75000  1
 Mg  Mg5  1  0.83683  0.16842  0.75000  1
 Mg  Mg6  1  0.83010  0.66505  0.75000  1
 Sb  Sb1  1  0.16574  0.83287  0.25000  1
