CIF file written using JARVIS-Tools package.
data_PrClO
_symmetry_space_group_name_H-M  'P4/nmm'
_cell_length_a       4.09214
_cell_length_b       4.09214
_cell_length_c       6.82292
_cell_angle_alpha    90
_cell_angle_beta     90
_cell_angle_gamma    90

_symmetry_Int_Tables_number  129
_chemical_formula_structural  PrClO
_chemical_formula_sum  Pr2Cl2O2
_cell_volume  114.25388742629782
_cell_formula_units_Z  2
loop_
  _symmetry_equiv_pos_site_id
 _symmetry_equiv_pos_as_xyz
 1  'x, y, z'
loop_
 _atom_site_type_symbol
 _atom_site_label
 _atom_site_symmetry_multiplicity
 _atom_site_fract_x
 _atom_site_fract_y
 _atom_site_fract_z
 _atom_site_fract_occupancy
 Cl  Cl1  1  0.00000  0.50000  0.62750  1
 Cl  Cl2  1  0.50000  0.00000  0.37250  1
 O  O1  1  0.50000  0.50000  0.00000  1
 O  O2  1  0.00000  0.00000  0.00000  1
 Pr  Pr1  1  0.00000  0.50000  0.17648  1
 Pr  Pr2  1  0.50000  0.00000  0.82352  1
