CIF file written using JARVIS-Tools package.
data_Fe6O11F
_symmetry_space_group_name_H-M  'C2'
_cell_length_a       6.76548
_cell_length_b       5.21016
_cell_length_c       5.21016
_cell_angle_alpha    73.0139
_cell_angle_beta     72.5202
_cell_angle_gamma    72.5202

_symmetry_Int_Tables_number  5
_chemical_formula_structural  Fe6O11F
_chemical_formula_sum  Fe6OF
_cell_volume  162.91783991659756
_cell_formula_units_Z  1
loop_
  _symmetry_equiv_pos_site_id
 _symmetry_equiv_pos_as_xyz
 1  'x, y, z'
loop_
 _atom_site_type_symbol
 _atom_site_label
 _atom_site_symmetry_multiplicity
 _atom_site_fract_x
 _atom_site_fract_y
 _atom_site_fract_z
 _atom_site_fract_occupancy
 F  F1  1  0.33333  0.36609  0.96724  1
 Fe  Fe1  1  -0.00019  0.99563  0.00629  1
 Fe  Fe2  1  0.50689  0.98138  0.00091  1
 Fe  Fe3  1  0.83333  0.66611  0.66722  1
 Fe  Fe4  1  0.33333  0.69097  0.64237  1
 Fe  Fe5  1  0.66686  0.32704  0.33770  1
 Fe  Fe6  1  0.15977  0.33243  0.35196  1
 O  O1  1  0.99798  0.30404  0.69995  1
 O  O2  1  0.66868  0.63338  0.02930  1
 O  O3  1  0.03935  0.76997  0.76933  1
 O  O4  1  0.70155  0.10002  0.09867  1
 O  O5  1  0.36767  0.43869  0.43505  1
 O  O6  1  0.96512  0.23466  0.23331  1
 O  O7  1  0.62732  0.56400  0.56336  1
 O  O8  1  0.99869  0.69570  0.31036  1
 O  O9  1  0.29900  0.89829  0.89464  1
 O  O10  1  0.66798  0.02298  0.63763  1
 O  O11  1  0.33333  0.97863  0.35470  1
