CIF file written using JARVIS-Tools package.
data_CuMoF6
_symmetry_space_group_name_H-M  'R-3'
_cell_length_a       5.01602
_cell_length_b       5.01585
_cell_length_c       5.53905
_cell_angle_alpha    63.0794
_cell_angle_beta     89.9857
_cell_angle_gamma    60.033

_symmetry_Int_Tables_number  148
_chemical_formula_structural  CuMoF6
_chemical_formula_sum  CuMoF6
_cell_volume  102.94023100555486
_cell_formula_units_Z  1
loop_
  _symmetry_equiv_pos_site_id
 _symmetry_equiv_pos_as_xyz
 1  'x, y, z'
loop_
 _atom_site_type_symbol
 _atom_site_label
 _atom_site_symmetry_multiplicity
 _atom_site_fract_x
 _atom_site_fract_y
 _atom_site_fract_z
 _atom_site_fract_occupancy
 Cu  Cu1  1  0.00000  0.00000  0.00000  1
 F  F1  1  0.73709  0.84899  0.26116  1
 F  F2  1  0.26291  0.15101  0.73884  1
 F  F3  1  0.58599  0.52429  0.73887  1
 F  F4  1  0.41401  0.47571  0.26113  1
 F  F5  1  0.11044  0.15252  0.26121  1
 F  F6  1  0.88956  0.84748  0.73879  1
 Mo  Mo1  1  0.50000  -0.00000  0.50000  1
