CIF file written using JARVIS-Tools package.
data_Li3FeO4
_symmetry_space_group_name_H-M  'Cmmm'
_cell_length_a       2.79651
_cell_length_b       4.92352
_cell_length_c       4.92348
_cell_angle_alpha    72.7207
_cell_angle_beta     90.001
_cell_angle_gamma    89.9975

_symmetry_Int_Tables_number  65
_chemical_formula_structural  Li3FeO4
_chemical_formula_sum  Li3FeO4
_cell_volume  64.7300735783393
_cell_formula_units_Z  1
loop_
  _symmetry_equiv_pos_site_id
 _symmetry_equiv_pos_as_xyz
 1  'x, y, z'
loop_
 _atom_site_type_symbol
 _atom_site_label
 _atom_site_symmetry_multiplicity
 _atom_site_fract_x
 _atom_site_fract_y
 _atom_site_fract_z
 _atom_site_fract_occupancy
 Fe  Fe1  1  0.49341  0.49883  0.00200  1
 Li  Li1  1  0.99339  0.99886  0.00196  1
 Li  Li2  1  0.49340  0.99875  0.50190  1
 Li  Li3  1  0.99341  0.49879  0.50199  1
 O  O1  1  0.99337  0.72330  0.77752  1
 O  O2  1  0.49341  0.72795  0.23111  1
 O  O3  1  0.99343  0.27435  0.22647  1
 O  O4  1  0.49340  0.26972  0.77290  1
