data_image0
_chemical_formula_structural       Cr2O18P6
_chemical_formula_sum              "Cr2 O18 P6"
_cell_length_a       7.68975
_cell_length_b       6.99755
_cell_length_c       7.68975
_cell_angle_alpha    105.704
_cell_angle_beta     131.719
_cell_angle_gamma    95.5628

_space_group_name_H-M_alt    "P 1"
_space_group_IT_number       1

loop_
  _space_group_symop_operation_xyz
  'x, y, z'

loop_
  _atom_site_type_symbol
  _atom_site_label
  _atom_site_symmetry_multiplicity
  _atom_site_fract_x
  _atom_site_fract_y
  _atom_site_fract_z
  _atom_site_occupancy
  Cr  Cr1       1.0  0.48400  0.50500  0.48700  1.0000
  Cr  Cr2       1.0  0.01860  0.00525  0.52100  1.0000
  O   O1        1.0  0.49200  0.25700  0.55900  1.0000
  O   O2        1.0  0.69800  0.75700  0.26500  1.0000
  O   O3        1.0  0.84200  0.56700  0.70600  1.0000
  O   O4        1.0  0.86000  0.06660  0.22500  1.0000
  O   O5        1.0  0.61100  0.72700  0.80800  1.0000
  O   O6        1.0  0.91900  0.22700  0.61600  1.0000
  O   O7        1.0  0.78400  0.47400  0.03070  1.0000
  O   O8        1.0  0.44300  0.97400  0.18900  1.0000
  O   O9        1.0  0.87500  0.46600  0.40100  1.0000
  O   O10       1.0  0.06540  0.96600  0.09070  1.0000
  O   O11       1.0  0.40000  0.69700  0.31400  1.0000
  O   O12       1.0  0.38300  0.19700  0.79700  1.0000
  O   O13       1.0  0.16600  0.42200  0.36800  1.0000
  O   O14       1.0  0.05400  0.92200  0.75600  1.0000
  O   O15       1.0  0.33100  0.29000  0.14900  1.0000
  O   O16       1.0  0.14100  0.79000  0.45900  1.0000
  O   O17       1.0  0.71700  0.08870  0.83200  1.0000
  O   O18       1.0  0.25600  0.58900  0.87100  1.0000
  P   P1        1.0  0.21900  0.05120  0.03990  1.0000
  P   P2        1.0  0.01130  0.55100  0.33200  1.0000
  P   P3        1.0  0.80300  0.95100  0.98900  1.0000
  P   P4        1.0  0.96200  0.45100  0.64800  1.0000
  P   P5        1.0  0.57200  0.24700  0.79200  1.0000
  P   P6        1.0  0.45500  0.74700  0.17500  1.0000
