CIF file written using JARVIS-Tools package.
data_CN2
_symmetry_space_group_name_H-M  'Cmc2_1'
_cell_length_a       2.47718
_cell_length_b       3.45289
_cell_length_c       4.58142
_cell_angle_alpha    90
_cell_angle_beta     90
_cell_angle_gamma    111.021

_symmetry_Int_Tables_number  36
_chemical_formula_structural  CN2
_chemical_formula_sum  C2N4
_cell_volume  36.578897952299364
_cell_formula_units_Z  2
loop_
  _symmetry_equiv_pos_site_id
 _symmetry_equiv_pos_as_xyz
 1  'x, y, z'
loop_
 _atom_site_type_symbol
 _atom_site_label
 _atom_site_symmetry_multiplicity
 _atom_site_fract_x
 _atom_site_fract_y
 _atom_site_fract_z
 _atom_site_fract_occupancy
 C  C1  1  0.88737  0.77474  0.27927  1
 C  C2  1  0.11263  0.22526  0.77927  1
 N  N1  1  0.92478  0.84956  0.95203  1
 N  N2  1  0.07522  0.15044  0.45203  1
 N  N3  1  0.73691  0.47382  0.82155  1
 N  N4  1  0.26309  0.52618  0.32155  1
