CIF file written using JARVIS-Tools package.
data_TbSi3Rh
_symmetry_space_group_name_H-M  'I4mm'
_cell_length_a       4.20645
_cell_length_b       4.20645
_cell_length_c       5.73004
_cell_angle_alpha    111.534
_cell_angle_beta     111.534
_cell_angle_gamma    90

_symmetry_Int_Tables_number  107
_chemical_formula_structural  TbSi3Rh
_chemical_formula_sum  TbSi3Rh
_cell_volume  86.65868763699517
_cell_formula_units_Z  1
loop_
  _symmetry_equiv_pos_site_id
 _symmetry_equiv_pos_as_xyz
 1  'x, y, z'
loop_
 _atom_site_type_symbol
 _atom_site_label
 _atom_site_symmetry_multiplicity
 _atom_site_fract_x
 _atom_site_fract_y
 _atom_site_fract_z
 _atom_site_fract_occupancy
 Rh  Rh1  1  0.65288  0.65288  0.30576  1
 Si  Si1  1  0.41481  0.41481  0.82962  1
 Si  Si2  1  0.76382  0.26382  0.52764  1
 Si  Si3  1  0.26382  0.76382  0.52764  1
 Tb  Tb1  1  0.99867  0.99867  0.99734  1
