CIF file written using JARVIS-Tools package.
data_HfMg6V
_symmetry_space_group_name_H-M  'Amm2'
_cell_length_a       6.38077
_cell_length_b       5.819
_cell_length_c       5.00718
_cell_angle_alpha    90
_cell_angle_beta     90
_cell_angle_gamma    117.128

_symmetry_Int_Tables_number  38
_chemical_formula_structural  HfMg6V
_chemical_formula_sum  HfMg6V
_cell_volume  165.46258231582414
_cell_formula_units_Z  1
loop_
  _symmetry_equiv_pos_site_id
 _symmetry_equiv_pos_as_xyz
 1  'x, y, z'
loop_
 _atom_site_type_symbol
 _atom_site_label
 _atom_site_symmetry_multiplicity
 _atom_site_fract_x
 _atom_site_fract_y
 _atom_site_fract_z
 _atom_site_fract_occupancy
 Hf  Hf1  1  0.14751  0.82376  0.25000  1
 Mg  Mg1  1  0.64900  0.32424  0.25000  1
 Mg  Mg2  1  0.64900  0.82476  0.25000  1
 Mg  Mg3  1  0.33457  0.17071  0.75000  1
 Mg  Mg4  1  0.33457  0.66386  0.75000  1
 Mg  Mg5  1  0.87844  0.18922  0.75000  1
 Mg  Mg6  1  0.84597  0.67298  0.75000  1
 V  V1  1  0.16094  0.33047  0.25000  1
