CIF file written using JARVIS-Tools package.
data_BaMg2As2
_symmetry_space_group_name_H-M  'P-3m1'
_cell_length_a       4.49557
_cell_length_b       4.49557
_cell_length_c       7.75732
_cell_angle_alpha    90
_cell_angle_beta     89.9992
_cell_angle_gamma    120

_symmetry_Int_Tables_number  164
_chemical_formula_structural  BaMg2As2
_chemical_formula_sum  BaMg2As2
_cell_volume  135.77212585981303
_cell_formula_units_Z  1
loop_
  _symmetry_equiv_pos_site_id
 _symmetry_equiv_pos_as_xyz
 1  'x, y, z'
loop_
 _atom_site_type_symbol
 _atom_site_label
 _atom_site_symmetry_multiplicity
 _atom_site_fract_x
 _atom_site_fract_y
 _atom_site_fract_z
 _atom_site_fract_occupancy
 As  As1  1  0.33333  0.66666  0.27323  1
 As  As2  1  0.66667  0.33334  0.72677  1
 Ba  Ba1  1  0.00000  0.00000  0.00000  1
 Mg  Mg1  1  0.33334  0.66667  0.62359  1
 Mg  Mg2  1  0.66666  0.33333  0.37641  1
