CIF file written using JARVIS-Tools package.
data_CdCu2SnTe4
_symmetry_space_group_name_H-M  'I-42m'
_cell_length_a       6.30192
_cell_length_b       6.30192
_cell_length_c       7.65846
_cell_angle_alpha    114.295
_cell_angle_beta     114.295
_cell_angle_gamma    90

_symmetry_Int_Tables_number  121
_chemical_formula_structural  CdCu2SnTe4
_chemical_formula_sum  CdCu2SnTe4
_cell_volume  247.36183115774008
_cell_formula_units_Z  1
loop_
  _symmetry_equiv_pos_site_id
 _symmetry_equiv_pos_as_xyz
 1  'x, y, z'
loop_
 _atom_site_type_symbol
 _atom_site_label
 _atom_site_symmetry_multiplicity
 _atom_site_fract_x
 _atom_site_fract_y
 _atom_site_fract_z
 _atom_site_fract_occupancy
 Cd  Cd1  1  0.00000  0.00000  0.00000  1
 Cu  Cu1  1  0.75000  0.25000  0.50000  1
 Cu  Cu2  1  0.25000  0.75000  0.50000  1
 Sn  Sn1  1  0.50000  0.50000  0.00000  1
 Te  Te1  1  0.89116  0.89116  0.28421  1
 Te  Te2  1  0.39304  0.39304  0.28421  1
 Te  Te3  1  0.10884  0.60696  0.71579  1
 Te  Te4  1  0.60696  0.10884  0.71579  1
