CIF file written using JARVIS-Tools package.
data_Sc3Bi
_symmetry_space_group_name_H-M  'P6_3/mmc'
_cell_length_a       6.46891
_cell_length_b       6.46891
_cell_length_c       5.16839
_cell_angle_alpha    90
_cell_angle_beta     90
_cell_angle_gamma    120

_symmetry_Int_Tables_number  194
_chemical_formula_structural  Sc3Bi
_chemical_formula_sum  Sc6Bi2
_cell_volume  187.30414308222564
_cell_formula_units_Z  2
loop_
  _symmetry_equiv_pos_site_id
 _symmetry_equiv_pos_as_xyz
 1  'x, y, z'
loop_
 _atom_site_type_symbol
 _atom_site_label
 _atom_site_symmetry_multiplicity
 _atom_site_fract_x
 _atom_site_fract_y
 _atom_site_fract_z
 _atom_site_fract_occupancy
 Bi  Bi1  1  0.33333  0.66667  0.75000  1
 Bi  Bi2  1  0.66667  0.33333  0.25000  1
 Sc  Sc1  1  0.16447  0.32895  0.25000  1
 Sc  Sc2  1  0.67105  0.83553  0.25000  1
 Sc  Sc3  1  0.16447  0.83553  0.25000  1
 Sc  Sc4  1  0.83553  0.67105  0.75000  1
 Sc  Sc5  1  0.32895  0.16447  0.75000  1
 Sc  Sc6  1  0.83553  0.16447  0.75000  1
