CIF file written using JARVIS-Tools package.
data_Li3Co2Ge2O8
_symmetry_space_group_name_H-M  'P1'
_cell_length_a       5.06234
_cell_length_b       5.4369
_cell_length_c       6.43651
_cell_angle_alpha    89.5526
_cell_angle_beta     90.029
_cell_angle_gamma    89.881

_symmetry_Int_Tables_number  1
_chemical_formula_structural  Li3Co2Ge2O8
_chemical_formula_sum  Li3Co2Ge2O8
_cell_volume  177.14911738116567
_cell_formula_units_Z  1
loop_
  _symmetry_equiv_pos_site_id
 _symmetry_equiv_pos_as_xyz
 1  'x, y, z'
loop_
 _atom_site_type_symbol
 _atom_site_label
 _atom_site_symmetry_multiplicity
 _atom_site_fract_x
 _atom_site_fract_y
 _atom_site_fract_z
 _atom_site_fract_occupancy
 Co  Co1  1  0.99308  0.83378  0.99176  1
 Co  Co2  1  0.50272  0.16149  0.50240  1
 Ge  Ge1  1  0.99422  0.33210  0.75429  1
 Ge  Ge2  1  0.49711  0.67264  0.25329  1
 Li  Li1  1  0.49897  0.16838  0.00307  1
 Li  Li2  1  0.00193  0.33575  0.25300  1
 Li  Li3  1  0.00008  0.83080  0.50566  1
 O  O1  1  0.64624  0.28463  0.75011  1
 O  O2  1  0.61537  0.83374  0.47429  1
 O  O3  1  0.60668  0.35802  0.26057  1
 O  O4  1  0.62210  0.83416  0.03390  1
 O  O5  1  0.14146  0.68172  0.24453  1
 O  O6  1  0.11026  0.17589  0.98653  1
 O  O7  1  0.08030  0.64753  0.75610  1
 O  O8  1  0.11922  0.18556  0.52326  1
