CIF file written using JARVIS-Tools package.
data_Sr2RhO4
_symmetry_space_group_name_H-M  'I4/mmm'
_cell_length_a       3.911
_cell_length_b       3.911
_cell_length_c       6.92091
_cell_angle_alpha    106.412
_cell_angle_beta     106.412
_cell_angle_gamma    90

_symmetry_Int_Tables_number  139
_chemical_formula_structural  Sr2RhO4
_chemical_formula_sum  Sr2RhO4
_cell_volume  97.0432880025041
_cell_formula_units_Z  1
loop_
  _symmetry_equiv_pos_site_id
 _symmetry_equiv_pos_as_xyz
 1  'x, y, z'
loop_
 _atom_site_type_symbol
 _atom_site_label
 _atom_site_symmetry_multiplicity
 _atom_site_fract_x
 _atom_site_fract_y
 _atom_site_fract_z
 _atom_site_fract_occupancy
 O  O1  1  0.83754  0.83754  0.67507  1
 O  O2  1  0.16246  0.16246  0.32493  1
 O  O3  1  0.00000  0.50000  0.00000  1
 O  O4  1  0.50000  0.00000  0.00000  1
 Rh  Rh1  1  0.00000  0.00000  0.00000  1
 Sr  Sr1  1  0.64520  0.64520  0.29041  1
 Sr  Sr2  1  0.35480  0.35480  0.70959  1
