CIF file written using JARVIS-Tools package.
data_Ho5Si4
_symmetry_space_group_name_H-M  'Pnma'
_cell_length_a       7.37198
_cell_length_b       7.66778
_cell_length_c       14.4861
_cell_angle_alpha    90
_cell_angle_beta     90
_cell_angle_gamma    90

_symmetry_Int_Tables_number  62
_chemical_formula_structural  Ho5Si4
_chemical_formula_sum  Ho20Si6
_cell_volume  818.8513717462074
_cell_formula_units_Z  4
loop_
  _symmetry_equiv_pos_site_id
 _symmetry_equiv_pos_as_xyz
 1  'x, y, z'
loop_
 _atom_site_type_symbol
 _atom_site_label
 _atom_site_symmetry_multiplicity
 _atom_site_fract_x
 _atom_site_fract_y
 _atom_site_fract_z
 _atom_site_fract_occupancy
 Ho  Ho1  1  0.65268  0.98843  0.75000  1
 Ho  Ho2  1  0.52343  0.31787  0.40261  1
 Ho  Ho3  1  0.15268  0.51157  0.75000  1
 Ho  Ho4  1  0.34732  0.01157  0.25000  1
 Ho  Ho5  1  0.97657  0.81787  0.90261  1
 Ho  Ho6  1  0.47657  0.68213  0.59739  1
 Ho  Ho7  1  0.52343  0.31787  0.09739  1
 Ho  Ho8  1  0.02343  0.18213  0.40261  1
 Ho  Ho9  1  0.02343  0.18213  0.09739  1
 Ho  Ho10  1  0.82129  0.32104  0.62325  1
 Ho  Ho11  1  0.84732  0.48843  0.25000  1
 Ho  Ho12  1  0.97657  0.81787  0.59739  1
 Ho  Ho13  1  0.67871  0.82104  0.12325  1
 Ho  Ho14  1  0.17871  0.67896  0.37675  1
 Ho  Ho15  1  0.82129  0.32104  0.87675  1
 Ho  Ho16  1  0.32129  0.17896  0.62325  1
 Ho  Ho17  1  0.32129  0.17896  0.87675  1
 Ho  Ho18  1  0.17871  0.67896  0.12325  1
 Ho  Ho19  1  0.67871  0.82104  0.37675  1
 Ho  Ho20  1  0.47657  0.68213  0.90261  1
 Si  Si1  1  0.34764  0.97052  0.03959  1
 Si  Si2  1  0.77200  0.62965  0.75000  1
 Si  Si3  1  0.27200  0.87035  0.75000  1
 Si  Si4  1  0.72800  0.12965  0.25000  1
 Si  Si5  1  0.02461  0.10410  0.75000  1
 Si  Si6  1  0.52461  0.39590  0.75000  1
 Si  Si7  1  0.22800  0.37035  0.25000  1
 Si  Si8  1  0.65236  0.02948  0.96041  1
 Si  Si9  1  0.84764  0.52948  0.03959  1
 Si  Si10  1  0.34764  0.97052  0.46041  1
 Si  Si11  1  0.15236  0.47052  0.53959  1
 Si  Si12  1  0.15236  0.47052  0.96041  1
 Si  Si13  1  0.65236  0.02948  0.53959  1
 Si  Si14  1  0.47539  0.60410  0.25000  1
 Si  Si15  1  0.97539  0.89590  0.25000  1
 Si  Si16  1  0.84764  0.52948  0.46041  1
