CIF file written using JARVIS-Tools package.
data_Pr2Bi
_symmetry_space_group_name_H-M  'I4/mmm'
_cell_length_a       4.65169
_cell_length_b       4.65169
_cell_length_c       9.72053
_cell_angle_alpha    103.844
_cell_angle_beta     103.844
_cell_angle_gamma    90

_symmetry_Int_Tables_number  139
_chemical_formula_structural  Pr2Bi
_chemical_formula_sum  Pr4Bi2
_cell_volume  197.92733324792545
_cell_formula_units_Z  2
loop_
  _symmetry_equiv_pos_site_id
 _symmetry_equiv_pos_as_xyz
 1  'x, y, z'
loop_
 _atom_site_type_symbol
 _atom_site_label
 _atom_site_symmetry_multiplicity
 _atom_site_fract_x
 _atom_site_fract_y
 _atom_site_fract_z
 _atom_site_fract_occupancy
 Bi  Bi1  1  0.86095  0.86095  0.72190  1
 Bi  Bi2  1  0.13905  0.13905  0.27810  1
 Pr  Pr1  1  0.50000  0.00000  0.00000  1
 Pr  Pr2  1  0.00000  0.50000  0.00000  1
 Pr  Pr3  1  0.67943  0.67943  0.35886  1
 Pr  Pr4  1  0.32057  0.32057  0.64114  1
