CIF file written using JARVIS-Tools package.
data_LiMg6C
_symmetry_space_group_name_H-M  'Amm2'
_cell_length_a       7.66983
_cell_length_b       8.48245
_cell_length_c       3.05549
_cell_angle_alpha    90
_cell_angle_beta     90
_cell_angle_gamma    123.571

_symmetry_Int_Tables_number  38
_chemical_formula_structural  LiMg6C
_chemical_formula_sum  LiMg6C
_cell_volume  165.62872392275546
_cell_formula_units_Z  1
loop_
  _symmetry_equiv_pos_site_id
 _symmetry_equiv_pos_as_xyz
 1  'x, y, z'
loop_
 _atom_site_type_symbol
 _atom_site_label
 _atom_site_symmetry_multiplicity
 _atom_site_fract_x
 _atom_site_fract_y
 _atom_site_fract_z
 _atom_site_fract_occupancy
 C  C1  1  0.08910  0.79455  0.25000  1
 Li  Li1  1  0.38705  0.44353  0.25000  1
 Mg  Mg1  1  0.65208  0.27179  0.25000  1
 Mg  Mg2  1  0.65208  0.88030  0.25000  1
 Mg  Mg3  1  0.20560  0.02597  0.75000  1
 Mg  Mg4  1  0.20560  0.67963  0.75000  1
 Mg  Mg5  1  0.98145  0.24073  0.75000  1
 Mg  Mg6  1  0.82705  0.66352  0.75000  1
