CIF file written using JARVIS-Tools package.
data_KBC4N4
_symmetry_space_group_name_H-M  'I4_1/a'
_cell_length_a       6.93357
_cell_length_b       6.93357
_cell_length_c       8.55567
_cell_angle_alpha    113.904
_cell_angle_beta     113.904
_cell_angle_gamma    90

_symmetry_Int_Tables_number  88
_chemical_formula_structural  KBC4N4
_chemical_formula_sum  K2B2C8N8
_cell_volume  337.0777592866018
_cell_formula_units_Z  2
loop_
  _symmetry_equiv_pos_site_id
 _symmetry_equiv_pos_as_xyz
 1  'x, y, z'
loop_
 _atom_site_type_symbol
 _atom_site_label
 _atom_site_symmetry_multiplicity
 _atom_site_fract_x
 _atom_site_fract_y
 _atom_site_fract_z
 _atom_site_fract_occupancy
 B  B1  1  0.87500  0.62500  0.75000  1
 B  B2  1  0.12500  0.37500  0.25000  1
 C  C1  1  0.78612  0.80008  0.87779  1
 C  C2  1  0.90833  0.42229  0.12221  1
 C  C3  1  0.69992  0.40833  0.62221  1
 C  C4  1  0.21388  0.19992  0.12221  1
 C  C5  1  0.07771  0.28612  0.37779  1
 C  C6  1  0.92229  0.71388  0.62221  1
 C  C7  1  0.09167  0.57771  0.87779  1
 C  C8  1  0.30008  0.59167  0.37779  1
 K  K1  1  0.62500  0.87500  0.25000  1
 K  K2  1  0.37500  0.12500  0.75000  1
 N  N1  1  0.74995  0.46141  0.03295  1
 N  N2  1  0.71700  0.92846  0.96705  1
 N  N3  1  0.96141  0.78300  0.53295  1
 N  N4  1  0.28300  0.07154  0.03295  1
 N  N5  1  0.25005  0.53859  0.96705  1
 N  N6  1  0.57154  0.24995  0.53295  1
 N  N7  1  0.03859  0.21700  0.46705  1
 N  N8  1  0.42846  0.75005  0.46705  1
