CIF file written using JARVIS-Tools package.
data_Li2SiO3
_symmetry_space_group_name_H-M  'Cmc2_1'
_cell_length_a       4.70896
_cell_length_b       5.37813
_cell_length_c       5.40783
_cell_angle_alpha    119.818
_cell_angle_beta     90
_cell_angle_gamma    90

_symmetry_Int_Tables_number  36
_chemical_formula_structural  Li2SiO3
_chemical_formula_sum  Li4Si2O6
_cell_volume  118.82327293934873
_cell_formula_units_Z  2
loop_
  _symmetry_equiv_pos_site_id
 _symmetry_equiv_pos_as_xyz
 1  'x, y, z'
loop_
 _atom_site_type_symbol
 _atom_site_label
 _atom_site_symmetry_multiplicity
 _atom_site_fract_x
 _atom_site_fract_y
 _atom_site_fract_z
 _atom_site_fract_occupancy
 Li  Li1  1  0.00716  0.83107  0.34909  1
 Li  Li2  1  0.50716  0.16893  0.65091  1
 Li  Li3  1  0.50716  0.51802  0.34909  1
 Li  Li4  1  0.00716  0.48198  0.65091  1
 O  O1  1  0.85618  0.88291  0.00000  1
 O  O2  1  0.41655  0.54214  0.70746  1
 O  O3  1  0.41655  0.83467  0.29254  1
 O  O4  1  0.35618  0.11709  -0.00000  1
 O  O5  1  0.91655  0.16533  0.70746  1
 O  O6  1  0.91655  0.45786  0.29254  1
 Si  Si1  1  0.50120  0.82673  0.00000  1
 Si  Si2  1  0.00120  0.17327  -0.00000  1
