CIF file written using JARVIS-Tools package.
data_H3NO4
_symmetry_space_group_name_H-M  'Pna2_1'
_cell_length_a       5.4829
_cell_length_b       8.67821
_cell_length_c       6.12782
_cell_angle_alpha    90
_cell_angle_beta     90
_cell_angle_gamma    90

_symmetry_Int_Tables_number  33
_chemical_formula_structural  H3NO4
_chemical_formula_sum  H2N4O6
_cell_volume  291.57287492617064
_cell_formula_units_Z  4
loop_
  _symmetry_equiv_pos_site_id
 _symmetry_equiv_pos_as_xyz
 1  'x, y, z'
loop_
 _atom_site_type_symbol
 _atom_site_label
 _atom_site_symmetry_multiplicity
 _atom_site_fract_x
 _atom_site_fract_y
 _atom_site_fract_z
 _atom_site_fract_occupancy
 H  H1  1  0.58882  0.13624  0.88484  1
 H  H2  1  0.34217  0.25256  0.91360  1
 H  H3  1  0.62655  0.32797  0.87902  1
 H  H4  1  0.84217  0.74744  0.08640  1
 H  H5  1  0.12655  0.67203  0.12098  1
 H  H6  1  0.08882  0.86376  0.11516  1
 H  H7  1  0.84217  0.75256  0.58640  1
 H  H8  1  0.12655  0.82797  0.62098  1
 H  H9  1  0.08882  0.63624  0.61516  1
 H  H10  1  0.62655  0.17203  0.37902  1
 H  H11  1  0.58882  0.36376  0.38484  1
 H  H12  1  0.34217  0.24744  0.41360  1
 N  N1  1  0.01854  0.40604  0.79905  1
 N  N2  1  0.51854  0.59396  0.20095  1
 N  N3  1  0.51854  0.90604  0.70095  1
 N  N4  1  0.01854  0.09396  0.29905  1
 O  O1  1  0.02567  0.73959  0.55414  1
 O  O2  1  0.80127  0.45582  0.78769  1
 O  O3  1  0.30127  0.54418  0.21231  1
 O  O4  1  0.30127  0.95582  0.71231  1
 O  O5  1  0.80127  0.04418  0.28769  1
 O  O6  1  0.19186  0.48479  0.71940  1
 O  O7  1  0.69186  0.98479  0.78060  1
 O  O8  1  0.19186  0.01521  0.21940  1
 O  O9  1  0.56219  0.72216  0.11037  1
 O  O10  1  0.56219  0.77784  0.61037  1
 O  O11  1  0.06219  0.22216  0.38963  1
 O  O12  1  0.52567  0.23959  0.94586  1
 O  O13  1  0.02567  0.76041  0.05414  1
 O  O14  1  0.69186  0.51521  0.28060  1
 O  O15  1  0.06219  0.27784  0.88963  1
 O  O16  1  0.52567  0.26041  0.44586  1
