CIF file written using JARVIS-Tools package.
data_H6C3N4O3
_symmetry_space_group_name_H-M  'C2/c'
_cell_length_a       5.00701
_cell_length_b       5.00701
_cell_length_c       24.8375
_cell_angle_alpha    68.4088
_cell_angle_beta     111.591
_cell_angle_gamma    89.6144

_symmetry_Int_Tables_number  15
_chemical_formula_structural  H6C3N4O3
_chemical_formula_sum  H24C2N6O2
_cell_volume  531.0363222745266
_cell_formula_units_Z  4
loop_
  _symmetry_equiv_pos_site_id
 _symmetry_equiv_pos_as_xyz
 1  'x, y, z'
loop_
 _atom_site_type_symbol
 _atom_site_label
 _atom_site_symmetry_multiplicity
 _atom_site_fract_x
 _atom_site_fract_y
 _atom_site_fract_z
 _atom_site_fract_occupancy
 C  C1  1  0.80444  0.37636  0.06253  1
 C  C2  1  0.15106  0.66672  0.70545  1
 C  C3  1  0.33328  0.84894  0.20545  1
 C  C4  1  0.84894  0.33328  0.29455  1
 C  C5  1  0.06161  0.54658  0.37434  1
 C  C6  1  0.54658  0.06161  0.12566  1
 C  C7  1  0.66672  0.15106  0.79455  1
 C  C8  1  0.37636  0.80444  0.43747  1
 C  C9  1  0.19556  0.62364  0.93747  1
 C  C10  1  0.62364  0.19556  0.56253  1
 C  C11  1  0.45342  0.93839  0.87434  1
 C  C12  1  0.93839  0.45342  0.62566  1
 H  H1  1  0.98587  0.27731  0.54234  1
 H  H2  1  0.65127  0.46895  0.12019  1
 H  H3  1  0.09388  0.73971  0.99863  1
 H  H4  1  0.26029  0.90612  0.49863  1
 H  H5  1  0.90612  0.26029  0.00137  1
 H  H6  1  0.27731  0.98587  0.95766  1
 H  H7  1  0.73971  0.09388  0.50137  1
 H  H8  1  0.72269  0.01413  0.04234  1
 H  H9  1  0.07067  0.54567  0.20045  1
 H  H10  1  0.54567  0.07067  0.29955  1
 H  H11  1  0.92933  0.45433  0.79955  1
 H  H12  1  0.45433  0.92933  0.70045  1
 H  H13  1  0.01413  0.72269  0.45766  1
 H  H14  1  0.17639  0.68967  0.13546  1
 H  H15  1  0.68967  0.17639  0.36454  1
 H  H16  1  0.82361  0.31033  0.86454  1
 H  H17  1  0.59575  0.16356  0.20223  1
 H  H18  1  0.40425  0.83644  0.79777  1
 H  H19  1  0.83644  0.40425  0.70223  1
 H  H20  1  0.16356  0.59575  0.29777  1
 H  H21  1  0.46895  0.65127  0.37981  1
 H  H22  1  0.34873  0.53105  0.87981  1
 H  H23  1  0.53105  0.34873  0.62019  1
 H  H24  1  0.31033  0.82361  0.63546  1
 N  N1  1  0.69633  0.32661  0.60615  1
 N  N2  1  0.80210  0.20593  0.03212  1
 N  N3  1  0.67339  0.30367  0.10615  1
 N  N4  1  0.19790  0.79407  0.96788  1
 N  N5  1  0.79407  0.19790  0.53212  1
 N  N6  1  0.32661  0.69633  0.89385  1
 N  N7  1  0.20593  0.80210  0.46788  1
 N  N8  1  0.30367  0.67339  0.39385  1
 N  N9  1  0.51519  0.95602  0.82335  1
 N  N10  1  0.95602  0.51519  0.67665  1
 N  N11  1  0.48481  0.04398  0.17665  1
 N  N12  1  0.31998  0.81329  0.67813  1
 N  N13  1  0.81329  0.31998  0.82187  1
 N  N14  1  0.68002  0.18671  0.32187  1
 N  N15  1  0.18671  0.68002  0.17813  1
 N  N16  1  0.04398  0.48481  0.32335  1
 O  O1  1  0.84437  0.33970  0.24293  1
 O  O2  1  0.39805  0.08014  0.55519  1
 O  O3  1  0.60195  0.91986  0.44481  1
 O  O4  1  0.91986  0.60195  0.05519  1
 O  O5  1  0.08014  0.39805  0.94481  1
 O  O6  1  0.49843  0.88203  0.10116  1
 O  O7  1  0.88203  0.49843  0.39884  1
 O  O8  1  0.15563  0.66030  0.75707  1
 O  O9  1  0.66030  0.15563  0.74293  1
 O  O10  1  0.11797  0.50157  0.60116  1
 O  O11  1  0.50157  0.11797  0.89884  1
 O  O12  1  0.33970  0.84437  0.25707  1
