CIF file written using JARVIS-Tools package.
data_GeIr
_symmetry_space_group_name_H-M  'Pnma'
_cell_length_a       3.67573
_cell_length_b       5.59738
_cell_length_c       6.31232
_cell_angle_alpha    90
_cell_angle_beta     90
_cell_angle_gamma    90

_symmetry_Int_Tables_number  62
_chemical_formula_structural  GeIr
_chemical_formula_sum  Ge4Ir4
_cell_volume  129.8725832814713
_cell_formula_units_Z  4
loop_
  _symmetry_equiv_pos_site_id
 _symmetry_equiv_pos_as_xyz
 1  'x, y, z'
loop_
 _atom_site_type_symbol
 _atom_site_label
 _atom_site_symmetry_multiplicity
 _atom_site_fract_x
 _atom_site_fract_y
 _atom_site_fract_z
 _atom_site_fract_occupancy
 Ge  Ge1  1  0.75000  0.80192  0.58291  1
 Ge  Ge2  1  0.25000  0.19808  0.41709  1
 Ge  Ge3  1  0.75000  0.30192  0.91709  1
 Ge  Ge4  1  0.25000  0.69808  0.08291  1
 Ir  Ir1  1  0.75000  0.99937  0.21210  1
 Ir  Ir2  1  0.25000  0.00063  0.78790  1
 Ir  Ir3  1  0.75000  0.49937  0.28790  1
 Ir  Ir4  1  0.25000  0.50063  0.71210  1
