CIF file written using JARVIS-Tools package.
data_UCr5P3
_symmetry_space_group_name_H-M  'P2_1/m'
_cell_length_a       3.75111
_cell_length_b       6.77427
_cell_length_c       9.49014
_cell_angle_alpha    98.2353
_cell_angle_beta     90
_cell_angle_gamma    90

_symmetry_Int_Tables_number  11
_chemical_formula_structural  UCr5P3
_chemical_formula_sum  U2Cr0P6
_cell_volume  238.66752178736007
_cell_formula_units_Z  2
loop_
  _symmetry_equiv_pos_site_id
 _symmetry_equiv_pos_as_xyz
 1  'x, y, z'
loop_
 _atom_site_type_symbol
 _atom_site_label
 _atom_site_symmetry_multiplicity
 _atom_site_fract_x
 _atom_site_fract_y
 _atom_site_fract_z
 _atom_site_fract_occupancy
 Cr  Cr1  1  0.25000  0.16388  0.50903  1
 Cr  Cr2  1  0.75000  0.39531  0.51336  1
 Cr  Cr3  1  0.25000  0.60469  0.48664  1
 Cr  Cr4  1  0.75000  0.08449  0.10173  1
 Cr  Cr5  1  0.75000  0.45882  0.06871  1
 Cr  Cr6  1  0.25000  0.91551  0.89827  1
 Cr  Cr7  1  0.75000  0.83612  0.49097  1
 Cr  Cr8  1  0.75000  0.67743  0.71984  1
 Cr  Cr9  1  0.25000  0.32257  0.28016  1
 Cr  Cr10  1  0.25000  0.54118  0.93129  1
 P  P1  1  0.25000  0.23597  0.02216  1
 P  P2  1  0.75000  0.55560  0.31155  1
 P  P3  1  0.25000  0.44440  0.68845  1
 P  P4  1  0.75000  0.09979  0.34844  1
 P  P5  1  0.75000  0.76403  0.97784  1
 P  P6  1  0.25000  0.90021  0.65156  1
 U  U1  1  0.75000  0.18008  0.78387  1
 U  U2  1  0.25000  0.81992  0.21613  1
