CIF file written using JARVIS-Tools package.
data_V3Te4
_symmetry_space_group_name_H-M  'C2/m'
_cell_length_a       3.96112
_cell_length_b       6.88972
_cell_length_c       7.29693
_cell_angle_alpha    116.525
_cell_angle_beta     105.749
_cell_angle_gamma    90

_symmetry_Int_Tables_number  12
_chemical_formula_structural  V3Te4
_chemical_formula_sum  V3Te4
_cell_volume  169.78190662468407
_cell_formula_units_Z  1
loop_
  _symmetry_equiv_pos_site_id
 _symmetry_equiv_pos_as_xyz
 1  'x, y, z'
loop_
 _atom_site_type_symbol
 _atom_site_label
 _atom_site_symmetry_multiplicity
 _atom_site_fract_x
 _atom_site_fract_y
 _atom_site_fract_z
 _atom_site_fract_occupancy
 Te  Te1  1  0.63531  0.97405  0.27062  1
 Te  Te2  1  0.36469  0.02595  0.72938  1
 Te  Te3  1  0.88786  0.54780  0.77572  1
 Te  Te4  1  0.11214  0.45220  0.22428  1
 V  V1  1  0.00000  0.00000  0.00000  1
 V  V2  1  0.74392  0.70935  0.48784  1
 V  V3  1  0.25608  0.29065  0.51216  1
