CIF file written using JARVIS-Tools package.
data_Li4TiTe3O12
_symmetry_space_group_name_H-M  'P2'
_cell_length_a       4.98777
_cell_length_b       8.85142
_cell_length_c       5.18147
_cell_angle_alpha    90
_cell_angle_beta     94.0978
_cell_angle_gamma    90

_symmetry_Int_Tables_number  3
_chemical_formula_structural  Li4TiTe3O12
_chemical_formula_sum  Li4TiTe3O2
_cell_volume  228.17110572027838
_cell_formula_units_Z  1
loop_
  _symmetry_equiv_pos_site_id
 _symmetry_equiv_pos_as_xyz
 1  'x, y, z'
loop_
 _atom_site_type_symbol
 _atom_site_label
 _atom_site_symmetry_multiplicity
 _atom_site_fract_x
 _atom_site_fract_y
 _atom_site_fract_z
 _atom_site_fract_occupancy
 Li  Li1  1  0.00000  0.30769  0.00000  1
 Li  Li2  1  0.50000  0.13214  0.00000  1
 Li  Li3  1  0.00000  0.69520  0.50000  1
 Li  Li4  1  0.50000  0.83823  0.50000  1
 O  O1  1  0.26562  0.74822  0.14064  1
 O  O2  1  0.72044  0.44022  0.85386  1
 O  O3  1  0.21649  0.05588  0.20299  1
 O  O4  1  0.70747  0.57693  0.33460  1
 O  O5  1  0.27956  0.44022  0.14614  1
 O  O6  1  0.78549  0.22610  0.30390  1
 O  O7  1  0.21451  0.22610  0.69610  1
 O  O8  1  0.29253  0.57693  0.66540  1
 O  O9  1  0.80035  0.91132  0.31376  1
 O  O10  1  0.78351  0.05588  0.79701  1
 O  O11  1  0.19965  0.91132  0.68624  1
 O  O12  1  0.73438  0.74822  0.85936  1
 Te  Te1  1  0.50000  0.39601  0.50000  1
 Te  Te2  1  0.00000  0.07920  0.50000  1
 Te  Te3  1  0.50000  0.59871  0.00000  1
 Ti  Ti1  1  0.00000  0.89440  0.00000  1
