CIF file written using JARVIS-Tools package.
data_MgAl2S4
_symmetry_space_group_name_H-M  'R-3m'
_cell_length_a       3.7088
_cell_length_b       3.7088
_cell_length_c       12.4054
_cell_angle_alpha    81.403
_cell_angle_beta     81.403
_cell_angle_gamma    59.9999

_symmetry_Int_Tables_number  166
_chemical_formula_structural  MgAl2S4
_chemical_formula_sum  MgAl2S4
_cell_volume  145.5592012511421
_cell_formula_units_Z  1
loop_
  _symmetry_equiv_pos_site_id
 _symmetry_equiv_pos_as_xyz
 1  'x, y, z'
loop_
 _atom_site_type_symbol
 _atom_site_label
 _atom_site_symmetry_multiplicity
 _atom_site_fract_x
 _atom_site_fract_y
 _atom_site_fract_z
 _atom_site_fract_occupancy
 Al  Al1  1  0.23592  0.23592  0.29223  1
 Al  Al2  1  0.76293  0.76293  0.71120  1
 Mg  Mg1  1  0.99943  0.99943  0.00172  1
 S  S1  1  0.12244  0.12244  0.63269  1
 S  S2  1  0.87642  0.87642  0.37074  1
 S  S3  1  0.70371  0.70371  0.88886  1
 S  S4  1  0.29514  0.29514  0.11457  1
