CIF file written using JARVIS-Tools package.
data_MnAsRh
_symmetry_space_group_name_H-M  'P-62m'
_cell_length_a       6.51473
_cell_length_b       6.51473
_cell_length_c       3.63855
_cell_angle_alpha    90
_cell_angle_beta     90
_cell_angle_gamma    120

_symmetry_Int_Tables_number  189
_chemical_formula_structural  MnAsRh
_chemical_formula_sum  Mn3As3Rh3
_cell_volume  133.73707593690833
_cell_formula_units_Z  3
loop_
  _symmetry_equiv_pos_site_id
 _symmetry_equiv_pos_as_xyz
 1  'x, y, z'
loop_
 _atom_site_type_symbol
 _atom_site_label
 _atom_site_symmetry_multiplicity
 _atom_site_fract_x
 _atom_site_fract_y
 _atom_site_fract_z
 _atom_site_fract_occupancy
 As  As1  1  0.00000  0.00000  0.50000  1
 As  As2  1  0.66667  0.33333  0.00000  1
 As  As3  1  0.33333  0.66667  0.00000  1
 Mn  Mn1  1  0.40192  0.40192  0.50000  1
 Mn  Mn2  1  -0.00000  0.59808  0.50000  1
 Mn  Mn3  1  0.59808  -0.00000  0.50000  1
 Rh  Rh1  1  0.26457  -0.00000  0.00000  1
 Rh  Rh2  1  0.73543  0.73543  0.00000  1
 Rh  Rh3  1  -0.00000  0.26457  0.00000  1
