CIF file written using JARVIS-Tools package.
data_RbH4SNO4
_symmetry_space_group_name_H-M  'Pnma'
_cell_length_a       6.08067
_cell_length_b       7.61205
_cell_length_c       10.6034
_cell_angle_alpha    90
_cell_angle_beta     90
_cell_angle_gamma    90

_symmetry_Int_Tables_number  62
_chemical_formula_structural  RbH4SNO4
_chemical_formula_sum  Rb4H6S4N4O6
_cell_volume  490.79324603923084
_cell_formula_units_Z  4
loop_
  _symmetry_equiv_pos_site_id
 _symmetry_equiv_pos_as_xyz
 1  'x, y, z'
loop_
 _atom_site_type_symbol
 _atom_site_label
 _atom_site_symmetry_multiplicity
 _atom_site_fract_x
 _atom_site_fract_y
 _atom_site_fract_z
 _atom_site_fract_occupancy
 H  H1  1  0.38662  0.89272  0.82380  1
 H  H2  1  0.38662  0.39272  0.67620  1
 H  H3  1  0.75000  0.01476  0.29813  1
 H  H4  1  0.25000  0.98524  0.70187  1
 H  H5  1  0.25000  0.08772  0.84575  1
 H  H6  1  0.88662  0.10728  0.17620  1
 H  H7  1  0.88662  0.60728  0.32380  1
 H  H8  1  0.75000  0.41228  0.34575  1
 H  H9  1  0.11338  0.89272  0.82380  1
 H  H10  1  0.61338  0.60728  0.32380  1
 H  H11  1  0.25000  0.48524  0.79813  1
 H  H12  1  0.61338  0.10728  0.17620  1
 H  H13  1  0.11338  0.39272  0.67620  1
 H  H14  1  0.75000  0.51476  0.20187  1
 H  H15  1  0.25000  0.58772  0.65425  1
 H  H16  1  0.75000  0.91228  0.15425  1
 N  N1  1  0.25000  0.96726  0.79816  1
 N  N2  1  0.25000  0.46726  0.70184  1
 N  N3  1  0.75000  0.03274  0.20184  1
 N  N4  1  0.75000  0.53274  0.29816  1
 O  O1  1  0.04967  0.30853  0.13385  1
 O  O2  1  0.25000  0.28405  0.93613  1
 O  O3  1  0.75000  0.45944  0.58647  1
 O  O4  1  0.75000  0.71595  0.06387  1
 O  O5  1  0.75000  0.95944  0.91353  1
 O  O6  1  0.45033  0.30853  0.13385  1
 O  O7  1  0.04967  0.80853  0.36615  1
 O  O8  1  0.54967  0.69147  0.86615  1
 O  O9  1  0.25000  0.04056  0.08647  1
 O  O10  1  0.95033  0.19147  0.63385  1
 O  O11  1  0.54967  0.19147  0.63385  1
 O  O12  1  0.25000  0.54056  0.41353  1
 O  O13  1  0.95033  0.69147  0.86615  1
 O  O14  1  0.75000  0.21595  0.43613  1
 O  O15  1  0.25000  0.78405  0.56387  1
 O  O16  1  0.45033  0.80853  0.36615  1
 Rb  Rb1  1  0.75000  0.82282  0.60146  1
 Rb  Rb2  1  0.25000  0.17718  0.39854  1
 Rb  Rb3  1  0.75000  0.32282  0.89854  1
 Rb  Rb4  1  0.25000  0.67718  0.10146  1
 S  S1  1  0.75000  0.26671  0.57275  1
 S  S2  1  0.75000  0.76671  0.92725  1
 S  S3  1  0.25000  0.23329  0.07275  1
 S  S4  1  0.25000  0.73329  0.42725  1
