CIF file written using JARVIS-Tools package.
data_KAuI4
_symmetry_space_group_name_H-M  'P2_1/c'
_cell_length_a       6.98372
_cell_length_b       9.70801
_cell_length_c       14.2241
_cell_angle_alpha    104.098
_cell_angle_beta     90
_cell_angle_gamma    90

_symmetry_Int_Tables_number  14
_chemical_formula_structural  KAuI4
_chemical_formula_sum  K4Au4I6
_cell_volume  935.3203027242906
_cell_formula_units_Z  4
loop_
  _symmetry_equiv_pos_site_id
 _symmetry_equiv_pos_as_xyz
 1  'x, y, z'
loop_
 _atom_site_type_symbol
 _atom_site_label
 _atom_site_symmetry_multiplicity
 _atom_site_fract_x
 _atom_site_fract_y
 _atom_site_fract_z
 _atom_site_fract_occupancy
 Au  Au1  1  0.00000  0.50000  0.00000  1
 Au  Au2  1  0.50000  0.50000  0.50000  1
 Au  Au3  1  0.50000  0.00000  0.50000  1
 Au  Au4  1  0.00000  0.00000  0.00000  1
 I  I1  1  0.07329  0.08750  0.19030  1
 I  I2  1  0.92671  0.91250  0.80970  1
 I  I3  1  0.42671  0.08750  0.69030  1
 I  I4  1  0.79970  0.35563  0.40852  1
 I  I5  1  0.29970  0.64437  0.09148  1
 I  I6  1  0.20030  0.64437  0.59148  1
 I  I7  1  0.70030  0.35563  0.90852  1
 I  I8  1  0.34463  0.50485  0.32874  1
 I  I9  1  0.84463  0.49515  0.17126  1
 I  I10  1  0.20153  0.15757  0.46455  1
 I  I11  1  0.15537  0.50485  0.82874  1
 I  I12  1  0.57329  0.91250  0.30970  1
 I  I13  1  0.70153  0.84243  0.03545  1
 I  I14  1  0.79847  0.84243  0.53545  1
 I  I15  1  0.29847  0.15757  0.96455  1
 I  I16  1  0.65537  0.49515  0.67126  1
 K  K1  1  0.43336  0.80639  0.81655  1
 K  K2  1  0.93336  0.19361  0.68345  1
 K  K3  1  0.56664  0.19361  0.18345  1
 K  K4  1  0.06664  0.80639  0.31655  1
