CIF file written using JARVIS-Tools package.
data_CrHg5S2O5
_symmetry_space_group_name_H-M  'P-1'
_cell_length_a       7.0984
_cell_length_b       8.31235
_cell_length_c       9.44146
_cell_angle_alpha    83.574
_cell_angle_beta     80.1055
_cell_angle_gamma    70.4321

_symmetry_Int_Tables_number  2
_chemical_formula_structural  CrHg5S2O5
_chemical_formula_sum  Cr2Hg0S4O0
_cell_volume  516.2176814429235
_cell_formula_units_Z  2
loop_
  _symmetry_equiv_pos_site_id
 _symmetry_equiv_pos_as_xyz
 1  'x, y, z'
loop_
 _atom_site_type_symbol
 _atom_site_label
 _atom_site_symmetry_multiplicity
 _atom_site_fract_x
 _atom_site_fract_y
 _atom_site_fract_z
 _atom_site_fract_occupancy
 Cr  Cr1  1  0.41140  0.62647  0.70343  1
 Cr  Cr2  1  0.58860  0.37353  0.29657  1
 Hg  Hg1  1  0.32941  0.11241  0.64808  1
 Hg  Hg2  1  0.67059  0.88759  0.35192  1
 Hg  Hg3  1  0.80288  0.17503  0.64778  1
 Hg  Hg4  1  0.00000  0.50000  0.50000  1
 Hg  Hg5  1  0.19712  0.82497  0.35222  1
 Hg  Hg6  1  0.37585  0.28145  0.97021  1
 Hg  Hg7  1  0.62415  0.71855  0.02979  1
 Hg  Hg8  1  0.14349  0.56361  0.08532  1
 Hg  Hg9  1  0.85651  0.43639  0.91468  1
 Hg  Hg10  1  0.00000  0.00000  0.00000  1
 O  O1  1  0.65160  0.49116  0.69286  1
 O  O2  1  0.02274  0.18305  0.84298  1
 O  O3  1  0.64985  0.28169  0.13912  1
 O  O4  1  0.35015  0.71831  0.86088  1
 O  O5  1  0.34840  0.50884  0.30714  1
 O  O6  1  0.74068  0.48420  0.30497  1
 O  O7  1  0.60625  0.22018  0.42992  1
 O  O8  1  0.39375  0.77982  0.57008  1
 O  O9  1  0.97726  0.81695  0.15702  1
 O  O10  1  0.25932  0.51580  0.69503  1
 S  S1  1  0.57882  0.04520  0.80885  1
 S  S2  1  0.42118  0.95480  0.19115  1
 S  S3  1  0.90480  0.80048  0.52608  1
 S  S4  1  0.09520  0.19952  0.47392  1
