CIF file written using JARVIS-Tools package.
data_Cu6GeWS8
_symmetry_space_group_name_H-M  'P6_3mc'
_cell_length_a       7.55786
_cell_length_b       7.55785
_cell_length_c       12.4386
_cell_angle_alpha    90
_cell_angle_beta     90
_cell_angle_gamma    120

_symmetry_Int_Tables_number  186
_chemical_formula_structural  Cu6GeWS8
_chemical_formula_sum  Cu2Ge2W2S6
_cell_volume  615.3180187735456
_cell_formula_units_Z  2
loop_
  _symmetry_equiv_pos_site_id
 _symmetry_equiv_pos_as_xyz
 1  'x, y, z'
loop_
 _atom_site_type_symbol
 _atom_site_label
 _atom_site_symmetry_multiplicity
 _atom_site_fract_x
 _atom_site_fract_y
 _atom_site_fract_z
 _atom_site_fract_occupancy
 Cu  Cu1  1  0.83923  0.67846  0.10559  1
 Cu  Cu2  1  0.32154  0.16077  0.10559  1
 Cu  Cu3  1  0.49598  0.99195  0.85320  1
 Cu  Cu4  1  0.16077  0.83923  0.60559  1
 Cu  Cu5  1  0.99195  0.49598  0.35320  1
 Cu  Cu6  1  0.50402  0.00805  0.35320  1
 Cu  Cu7  1  0.67846  0.83923  0.60559  1
 Cu  Cu8  1  0.49598  0.50402  0.85320  1
 Cu  Cu9  1  0.83923  0.16077  0.10559  1
 Cu  Cu10  1  0.00805  0.50402  0.85320  1
 Cu  Cu11  1  0.50402  0.49598  0.35320  1
 Cu  Cu12  1  0.16077  0.32154  0.60559  1
 Ge  Ge1  1  0.00000  0.00000  0.85220  1
 Ge  Ge2  1  0.00000  0.00000  0.35220  1
 S  S1  1  0.49744  0.50256  0.54127  1
 S  S2  1  0.00000  0.00000  0.03454  1
 S  S3  1  0.32962  0.16481  0.28985  1
 S  S4  1  0.83519  0.16481  0.28985  1
 S  S5  1  0.00512  0.50256  0.54127  1
 S  S6  1  0.83519  0.67038  0.28985  1
 S  S7  1  0.66667  0.33333  0.79838  1
 S  S8  1  0.00000  0.00000  0.53454  1
 S  S9  1  0.50256  0.49744  0.04127  1
 S  S10  1  0.99488  0.49744  0.04127  1
 S  S11  1  0.49744  0.99488  0.54127  1
 S  S12  1  0.16481  0.83519  0.78985  1
 S  S13  1  0.67038  0.83519  0.78985  1
 S  S14  1  0.50256  0.00512  0.04127  1
 S  S15  1  0.16481  0.32962  0.78985  1
 S  S16  1  0.33333  0.66667  0.29838  1
 W  W1  1  0.66667  0.33333  0.98115  1
 W  W2  1  0.33333  0.66667  0.48115  1
