CIF file written using JARVIS-Tools package.
data_K2Pd3Se4
_symmetry_space_group_name_H-M  'Fddd'
_cell_length_a       6.40569
_cell_length_b       6.36944
_cell_length_c       13.3531
_cell_angle_alpha    83.0726
_cell_angle_beta     76.1219
_cell_angle_gamma    59.8116

_symmetry_Int_Tables_number  70
_chemical_formula_structural  K2Pd3Se4
_chemical_formula_sum  K4Pd6Se8
_cell_volume  457.1777113193006
_cell_formula_units_Z  2
loop_
  _symmetry_equiv_pos_site_id
 _symmetry_equiv_pos_as_xyz
 1  'x, y, z'
loop_
 _atom_site_type_symbol
 _atom_site_label
 _atom_site_symmetry_multiplicity
 _atom_site_fract_x
 _atom_site_fract_y
 _atom_site_fract_z
 _atom_site_fract_occupancy
 K  K1  1  0.30208  0.25000  0.39584  1
 K  K2  1  0.44792  0.25000  0.10416  1
 K  K3  1  0.69792  0.75000  0.60416  1
 K  K4  1  0.55208  0.75000  0.89584  1
 Pd  Pd1  1  0.87500  0.25000  0.25000  1
 Pd  Pd2  1  0.37397  0.75000  0.25207  1
 Pd  Pd3  1  0.87603  0.75000  0.24793  1
 Pd  Pd4  1  0.62603  0.25000  0.74793  1
 Pd  Pd5  1  0.12500  0.75000  0.75000  1
 Pd  Pd6  1  0.12397  0.25000  0.75207  1
 Se  Se1  1  0.35057  0.41521  0.62079  1
 Se  Se2  1  0.88657  0.08479  0.87921  1
 Se  Se3  1  0.76578  0.58479  0.12079  1
 Se  Se4  1  0.97136  0.91521  0.37921  1
 Se  Se5  1  0.11343  0.91521  0.12079  1
 Se  Se6  1  0.23422  0.41521  0.87921  1
 Se  Se7  1  0.02864  0.08479  0.62079  1
 Se  Se8  1  0.64943  0.58479  0.37921  1
