CIF file written using JARVIS-Tools package.
data_ErSe2
_symmetry_space_group_name_H-M  'Immm'
_cell_length_a       3.94905
_cell_length_b       5.4431
_cell_length_c       7.4979
_cell_angle_alpha    111.283
_cell_angle_beta     105.269
_cell_angle_gamma    90

_symmetry_Int_Tables_number  71
_chemical_formula_structural  ErSe2
_chemical_formula_sum  Er2Se4
_cell_volume  144.05366024881957
_cell_formula_units_Z  2
loop_
  _symmetry_equiv_pos_site_id
 _symmetry_equiv_pos_as_xyz
 1  'x, y, z'
loop_
 _atom_site_type_symbol
 _atom_site_label
 _atom_site_symmetry_multiplicity
 _atom_site_fract_x
 _atom_site_fract_y
 _atom_site_fract_z
 _atom_site_fract_occupancy
 Er  Er1  1  0.85900  0.85900  0.71799  1
 Er  Er2  1  0.14100  0.14100  0.28201  1
 Se  Se1  1  0.21142  0.71142  0.42283  1
 Se  Se2  1  0.78858  0.28858  0.57717  1
 Se  Se3  1  0.50000  0.75272  -0.00000  1
 Se  Se4  1  0.50000  0.24728  0.00000  1
