CIF file written using JARVIS-Tools package.
data_Mg6CdCo
_symmetry_space_group_name_H-M  'Amm2'
_cell_length_a       6.09813
_cell_length_b       6.09813
_cell_length_c       4.8493
_cell_angle_alpha    90
_cell_angle_beta     90
_cell_angle_gamma    119.244

_symmetry_Int_Tables_number  38
_chemical_formula_structural  Mg6CdCo
_chemical_formula_sum  Mg6CdCo
_cell_volume  157.34803546957718
_cell_formula_units_Z  1
loop_
  _symmetry_equiv_pos_site_id
 _symmetry_equiv_pos_as_xyz
 1  'x, y, z'
loop_
 _atom_site_type_symbol
 _atom_site_label
 _atom_site_symmetry_multiplicity
 _atom_site_fract_x
 _atom_site_fract_y
 _atom_site_fract_z
 _atom_site_fract_occupancy
 Cd  Cd1  1  0.33474  0.16526  0.75000  1
 Co  Co1  1  0.14515  0.35485  0.25000  1
 Mg  Mg1  1  0.16516  0.83546  0.25000  1
 Mg  Mg2  1  0.66454  0.33484  0.25000  1
 Mg  Mg3  1  0.66421  0.83579  0.25000  1
 Mg  Mg4  1  0.32803  0.63839  0.75000  1
 Mg  Mg5  1  0.86161  0.17197  0.75000  1
 Mg  Mg6  1  0.83657  0.66343  0.75000  1
