CIF file written using JARVIS-Tools package.
data_Li3B5H2O10
_symmetry_space_group_name_H-M  'P4_12_12'
_cell_length_a       6.83481
_cell_length_b       6.83481
_cell_length_c       14.5433
_cell_angle_alpha    90
_cell_angle_beta     90
_cell_angle_gamma    90

_symmetry_Int_Tables_number  92
_chemical_formula_structural  Li3B5H2O10
_chemical_formula_sum  Li2B20H8O40
_cell_volume  679.3852394690481
_cell_formula_units_Z  4
loop_
  _symmetry_equiv_pos_site_id
 _symmetry_equiv_pos_as_xyz
 1  'x, y, z'
loop_
 _atom_site_type_symbol
 _atom_site_label
 _atom_site_symmetry_multiplicity
 _atom_site_fract_x
 _atom_site_fract_y
 _atom_site_fract_z
 _atom_site_fract_occupancy
 B  B1  1  0.56189  0.56189  0.00000  1
 B  B2  1  0.74852  0.74144  0.72680  1
 B  B3  1  0.25148  0.25856  0.22680  1
 B  B4  1  0.50822  0.24822  0.64454  1
 B  B5  1  0.24144  0.75148  0.47680  1
 B  B6  1  0.74822  0.99178  0.39454  1
 B  B7  1  0.75178  0.49178  0.85546  1
 B  B8  1  0.24822  0.50822  0.35546  1
 B  B9  1  0.99178  0.74822  0.60546  1
 B  B10  1  0.00822  0.25178  0.10546  1
 B  B11  1  0.06189  0.93811  0.75000  1
 B  B12  1  0.93811  0.06189  0.25000  1
 B  B13  1  0.43811  0.43811  0.50000  1
 B  B14  1  0.25856  0.25148  0.77320  1
 B  B15  1  0.25178  0.00822  0.89454  1
 B  B16  1  0.74144  0.74852  0.27320  1
 B  B17  1  0.24852  0.75856  0.02320  1
 B  B18  1  0.75148  0.24144  0.52320  1
 B  B19  1  0.49178  0.75178  0.14454  1
 B  B20  1  0.75856  0.24852  0.97680  1
 H  H1  1  0.50529  0.91107  0.73690  1
 H  H2  1  0.58893  0.00529  0.98690  1
 H  H3  1  0.49471  0.08893  0.23690  1
 H  H4  1  0.41107  0.99471  0.48690  1
 H  H5  1  0.00529  0.58893  0.01310  1
 H  H6  1  0.08893  0.49471  0.76310  1
 H  H7  1  0.91107  0.50529  0.26310  1
 H  H8  1  0.99471  0.41107  0.51310  1
 Li  Li1  1  0.63904  0.34886  0.34284  1
 Li  Li2  1  0.36096  0.65114  0.84284  1
 Li  Li3  1  0.34886  0.63904  0.65716  1
 Li  Li4  1  0.19410  0.80590  0.25000  1
 Li  Li5  1  0.80590  0.19410  0.75000  1
 Li  Li6  1  0.13904  0.15114  0.40716  1
 Li  Li7  1  0.30590  0.30590  0.00000  1
 Li  Li8  1  0.69410  0.69410  0.50000  1
 Li  Li9  1  0.65114  0.36096  0.15716  1
 Li  Li10  1  0.15114  0.13904  0.59284  1
 Li  Li11  1  0.84886  0.86096  0.09284  1
 Li  Li12  1  0.86096  0.84886  0.90716  1
 O  O1  1  0.40519  0.64638  0.51984  1
 O  O2  1  0.79948  0.72433  0.62811  1
 O  O3  1  0.64638  0.40519  0.48016  1
 O  O4  1  0.35362  0.59481  0.98016  1
 O  O5  1  0.90519  0.85362  0.23016  1
 O  O6  1  0.09481  0.14638  0.73016  1
 O  O7  1  0.59481  0.35362  0.01984  1
 O  O8  1  0.85362  0.90519  0.76984  1
 O  O9  1  0.45030  0.19345  0.73095  1
 O  O10  1  0.69345  0.04970  0.48095  1
 O  O11  1  0.30655  0.95030  0.98095  1
 O  O12  1  0.54970  0.80655  0.23095  1
 O  O13  1  0.96416  0.26963  0.51182  1
 O  O14  1  0.95030  0.30655  0.01905  1
 O  O15  1  0.04970  0.69345  0.51905  1
 O  O16  1  0.80655  0.54970  0.76905  1
 O  O17  1  0.19345  0.45030  0.26905  1
 O  O18  1  0.14638  0.09481  0.26984  1
 O  O19  1  0.03584  0.73037  0.01182  1
 O  O20  1  0.27567  0.20052  0.87189  1
 O  O21  1  0.87433  0.17568  0.16737  1
 O  O22  1  0.76963  0.53584  0.26182  1
 O  O23  1  0.73037  0.03584  0.98818  1
 O  O24  1  0.26963  0.96416  0.48818  1
 O  O25  1  0.53584  0.76963  0.73818  1
 O  O26  1  0.46416  0.23037  0.23818  1
 O  O27  1  0.82432  0.12567  0.33263  1
 O  O28  1  0.17568  0.87433  0.83263  1
 O  O29  1  0.62567  0.67568  0.08263  1
 O  O30  1  0.37433  0.32432  0.58263  1
 O  O31  1  0.12567  0.82432  0.66737  1
 O  O32  1  0.67568  0.62567  0.91737  1
 O  O33  1  0.32432  0.37433  0.41737  1
 O  O34  1  0.70052  0.22433  0.62189  1
 O  O35  1  0.29948  0.77567  0.12189  1
 O  O36  1  0.72433  0.79948  0.37189  1
 O  O37  1  0.77567  0.29948  0.87811  1
 O  O38  1  0.22433  0.70052  0.37811  1
 O  O39  1  0.23037  0.46416  0.76182  1
 O  O40  1  0.20052  0.27567  0.12811  1
