CIF file written using JARVIS-Tools package.
data_Li3Mn4O8
_symmetry_space_group_name_H-M  'C2/m'
_cell_length_a       5.70283
_cell_length_b       5.72761
_cell_length_c       5.99895
_cell_angle_alpha    61.4853
_cell_angle_beta     61.5325
_cell_angle_gamma    90

_symmetry_Int_Tables_number  12
_chemical_formula_structural  Li3Mn4O8
_chemical_formula_sum  Li3Mn4O8
_cell_volume  144.64280911738643
_cell_formula_units_Z  1
loop_
  _symmetry_equiv_pos_site_id
 _symmetry_equiv_pos_as_xyz
 1  'x, y, z'
loop_
 _atom_site_type_symbol
 _atom_site_label
 _atom_site_symmetry_multiplicity
 _atom_site_fract_x
 _atom_site_fract_y
 _atom_site_fract_z
 _atom_site_fract_occupancy
 Li  Li1  1  0.50000  0.50000  0.50000  1
 Li  Li2  1  0.50000  0.00000  0.50000  1
 Li  Li3  1  0.50000  0.50000  0.00000  1
 Mn  Mn1  1  -0.00000  0.50000  0.50000  1
 Mn  Mn2  1  -0.00000  -0.00000  0.50000  1
 Mn  Mn3  1  0.00000  0.00000  0.00000  1
 Mn  Mn4  1  0.50000  0.00000  -0.00000  1
 O  O1  1  0.25740  0.77997  0.99136  1
 O  O2  1  0.25740  0.22866  0.99136  1
 O  O3  1  0.26284  0.78023  0.43955  1
 O  O4  1  0.23250  0.25693  0.48614  1
 O  O5  1  0.76750  0.74307  0.51386  1
 O  O6  1  0.73716  0.21977  0.56045  1
 O  O7  1  0.74260  0.77134  0.00864  1
 O  O8  1  0.74260  0.22003  0.00864  1
