CIF file written using JARVIS-Tools package.
data_YbSi2
_symmetry_space_group_name_H-M  'I4_1/amd'
_cell_length_a       4.23629
_cell_length_b       4.23629
_cell_length_c       7.40989
_cell_angle_alpha    106.61
_cell_angle_beta     106.61
_cell_angle_gamma    90

_symmetry_Int_Tables_number  141
_chemical_formula_structural  YbSi2
_chemical_formula_sum  Yb2Si4
_cell_volume  121.62870428938086
_cell_formula_units_Z  2
loop_
  _symmetry_equiv_pos_site_id
 _symmetry_equiv_pos_as_xyz
 1  'x, y, z'
loop_
 _atom_site_type_symbol
 _atom_site_label
 _atom_site_symmetry_multiplicity
 _atom_site_fract_x
 _atom_site_fract_y
 _atom_site_fract_z
 _atom_site_fract_occupancy
 Si  Si1  1  0.45972  0.70972  0.91944  1
 Si  Si2  1  0.70972  0.45972  0.41944  1
 Si  Si3  1  0.54028  0.29028  0.08056  1
 Si  Si4  1  0.29028  0.54028  0.58056  1
 Yb  Yb1  1  0.12500  0.87500  0.25000  1
 Yb  Yb2  1  0.87500  0.12500  0.75000  1
