CIF file written using JARVIS-Tools package.
data_Mn2ZnAs2
_symmetry_space_group_name_H-M  'C2/m'
_cell_length_a       4.44594
_cell_length_b       2.90113
_cell_length_c       6.85544
_cell_angle_alpha    90
_cell_angle_beta     68.1308
_cell_angle_gamma    109.042

_symmetry_Int_Tables_number  12
_chemical_formula_structural  Mn2ZnAs2
_chemical_formula_sum  Mn2ZnAs2
_cell_volume  76.82127797879261
_cell_formula_units_Z  1
loop_
  _symmetry_equiv_pos_site_id
 _symmetry_equiv_pos_as_xyz
 1  'x, y, z'
loop_
 _atom_site_type_symbol
 _atom_site_label
 _atom_site_symmetry_multiplicity
 _atom_site_fract_x
 _atom_site_fract_y
 _atom_site_fract_z
 _atom_site_fract_occupancy
 As  As1  1  0.30244  0.65122  0.30728  1
 As  As2  1  0.69756  0.34878  0.69272  1
 Mn  Mn1  1  0.28631  0.64315  0.66233  1
 Mn  Mn2  1  0.71369  0.35685  0.33767  1
 Zn  Zn1  1  0.00000  0.00000  0.00000  1
