CIF file written using JARVIS-Tools package.
data_MgSiO3
_symmetry_space_group_name_H-M  'Cmcm'
_cell_length_a       2.71164
_cell_length_b       4.77935
_cell_length_c       6.71026
_cell_angle_alpha    90
_cell_angle_beta     90
_cell_angle_gamma    106.48

_symmetry_Int_Tables_number  63
_chemical_formula_structural  MgSiO3
_chemical_formula_sum  Mg2Si2O6
_cell_volume  83.39158203770816
_cell_formula_units_Z  2
loop_
  _symmetry_equiv_pos_site_id
 _symmetry_equiv_pos_as_xyz
 1  'x, y, z'
loop_
 _atom_site_type_symbol
 _atom_site_label
 _atom_site_symmetry_multiplicity
 _atom_site_fract_x
 _atom_site_fract_y
 _atom_site_fract_z
 _atom_site_fract_occupancy
 Mg  Mg1  1  0.25993  0.51986  0.75000  1
 Mg  Mg2  1  0.74007  0.48014  0.25000  1
 O  O1  1  0.62646  0.25291  0.94395  1
 O  O2  1  0.37354  0.74709  0.05605  1
 O  O3  1  0.37354  0.74709  0.44395  1
 O  O4  1  0.62646  0.25291  0.55605  1
 O  O5  1  0.92646  0.85293  0.75000  1
 O  O6  1  0.07354  0.14707  0.25000  1
 Si  Si1  1  0.00000  0.00000  0.00000  1
 Si  Si2  1  0.00000  0.00000  0.50000  1
