CIF file written using JARVIS-Tools package.
data_CuBi2Se4O12
_symmetry_space_group_name_H-M  'P2_1/c'
_cell_length_a       7.21355
_cell_length_b       8.21761
_cell_length_c       10.6664
_cell_angle_alpha    110.9
_cell_angle_beta     90
_cell_angle_gamma    90

_symmetry_Int_Tables_number  14
_chemical_formula_structural  CuBi2Se4O12
_chemical_formula_sum  Cu2Bi4Se8O24
_cell_volume  590.6835152358188
_cell_formula_units_Z  2
loop_
  _symmetry_equiv_pos_site_id
 _symmetry_equiv_pos_as_xyz
 1  'x, y, z'
loop_
 _atom_site_type_symbol
 _atom_site_label
 _atom_site_symmetry_multiplicity
 _atom_site_fract_x
 _atom_site_fract_y
 _atom_site_fract_z
 _atom_site_fract_occupancy
 Bi  Bi1  1  0.13101  0.26062  0.40687  1
 Bi  Bi2  1  0.63101  0.23938  0.59313  1
 Bi  Bi3  1  0.86899  0.73938  0.59313  1
 Bi  Bi4  1  0.36899  0.76062  0.40687  1
 Cu  Cu1  1  0.00000  0.00000  0.00000  1
 Cu  Cu2  1  0.50000  0.50000  0.00000  1
 O  O1  1  0.88693  0.81507  0.85049  1
 O  O2  1  0.62549  0.67640  0.95050  1
 O  O3  1  0.78146  0.52064  0.70165  1
 O  O4  1  0.71854  0.02064  0.70165  1
 O  O5  1  0.88435  0.06416  0.31405  1
 O  O6  1  0.11307  0.18493  0.14951  1
 O  O7  1  0.12549  0.82360  0.04950  1
 O  O8  1  0.21854  0.47936  0.29835  1
 O  O9  1  0.61307  0.31507  0.85049  1
 O  O10  1  0.49230  0.69714  0.59547  1
 O  O11  1  0.85289  0.41836  0.42525  1
 O  O12  1  0.14711  0.58164  0.57475  1
 O  O13  1  0.28146  0.97936  0.29835  1
 O  O14  1  0.35289  0.08164  0.57475  1
 O  O15  1  0.64711  0.91836  0.42525  1
 O  O16  1  0.99230  0.80286  0.40453  1
 O  O17  1  0.50770  0.30286  0.40453  1
 O  O18  1  0.87451  0.17640  0.95050  1
 O  O19  1  0.00770  0.19714  0.59547  1
 O  O20  1  0.38435  0.43584  0.68595  1
 O  O21  1  0.37451  0.32360  0.04950  1
 O  O22  1  0.11565  0.93584  0.68595  1
 O  O23  1  0.38693  0.68493  0.14951  1
 O  O24  1  0.61565  0.56416  0.31405  1
 Se  Se1  1  0.66455  0.11517  0.86896  1
 Se  Se2  1  0.17007  0.14219  0.69299  1
 Se  Se3  1  0.83545  0.61517  0.86896  1
 Se  Se4  1  0.32993  0.64219  0.69299  1
 Se  Se5  1  0.16455  0.38483  0.13104  1
 Se  Se6  1  0.67007  0.35781  0.30701  1
 Se  Se7  1  0.82993  0.85781  0.30701  1
 Se  Se8  1  0.33545  0.88483  0.13104  1
