CIF file written using JARVIS-Tools package.
data_Mg6CrB
_symmetry_space_group_name_H-M  'Amm2'
_cell_length_a       6.72867
_cell_length_b       5.89893
_cell_length_c       4.37573
_cell_angle_alpha    90
_cell_angle_beta     90
_cell_angle_gamma    115.998

_symmetry_Int_Tables_number  38
_chemical_formula_structural  Mg6CrB
_chemical_formula_sum  Mg6CrB
_cell_volume  156.1060436092812
_cell_formula_units_Z  1
loop_
  _symmetry_equiv_pos_site_id
 _symmetry_equiv_pos_as_xyz
 1  'x, y, z'
loop_
 _atom_site_type_symbol
 _atom_site_label
 _atom_site_symmetry_multiplicity
 _atom_site_fract_x
 _atom_site_fract_y
 _atom_site_fract_z
 _atom_site_fract_occupancy
 B  B1  1  0.28188  0.89094  0.25000  1
 Cr  Cr1  1  0.14657  0.32329  0.25000  1
 Mg  Mg1  1  0.61910  0.30777  0.25000  1
 Mg  Mg2  1  0.61910  0.81132  0.25000  1
 Mg  Mg3  1  0.30388  0.13993  0.75000  1
 Mg  Mg4  1  0.30388  0.66395  0.75000  1
 Mg  Mg5  1  0.85016  0.17508  0.75000  1
 Mg  Mg6  1  0.87544  0.68772  0.75000  1
