CIF file written using JARVIS-Tools package.
data_TeMoSe
_symmetry_space_group_name_H-M  'P-6m2'
_cell_length_a       3.44502
_cell_length_b       3.44502
_cell_length_c       13.8561
_cell_angle_alpha    89.992
_cell_angle_beta     90.0088
_cell_angle_gamma    119.999

_symmetry_Int_Tables_number  187
_chemical_formula_structural  TeMoSe
_chemical_formula_sum  Te2Mo2Se2
_cell_volume  142.41616560831767
_cell_formula_units_Z  2
loop_
  _symmetry_equiv_pos_site_id
 _symmetry_equiv_pos_as_xyz
 1  'x, y, z'
loop_
 _atom_site_type_symbol
 _atom_site_label
 _atom_site_symmetry_multiplicity
 _atom_site_fract_x
 _atom_site_fract_y
 _atom_site_fract_z
 _atom_site_fract_occupancy
 Mo  Mo1  1  0.33345  0.66637  0.05085  1
 Mo  Mo2  1  0.66655  0.33363  0.55102  1
 Se  Se1  1  0.66673  0.33308  0.93279  1
 Se  Se2  1  0.66684  0.33299  0.16891  1
 Te  Te1  1  0.33328  0.66693  0.68523  1
 Te  Te2  1  0.33315  0.66700  0.41681  1
