CIF file written using JARVIS-Tools package.
data_Te6Mo3WSe2
_symmetry_space_group_name_H-M  'P3m1'
_cell_length_a       3.50645
_cell_length_b       3.50646
_cell_length_c       37.5664
_cell_angle_alpha    89.9997
_cell_angle_beta     90
_cell_angle_gamma    120

_symmetry_Int_Tables_number  156
_chemical_formula_structural  Te6Mo3WSe2
_chemical_formula_sum  Te6Mo3WSe2
_cell_volume  400.00616226230983
_cell_formula_units_Z  1
loop_
  _symmetry_equiv_pos_site_id
 _symmetry_equiv_pos_as_xyz
 1  'x, y, z'
loop_
 _atom_site_type_symbol
 _atom_site_label
 _atom_site_symmetry_multiplicity
 _atom_site_fract_x
 _atom_site_fract_y
 _atom_site_fract_z
 _atom_site_fract_occupancy
 Mo  Mo1  1  0.33335  0.66670  0.09662  1
 Mo  Mo2  1  0.33332  0.66664  0.46871  1
 Mo  Mo3  1  0.66667  0.33334  0.27731  1
 Se  Se1  1  0.66668  0.33337  0.05364  1
 Se  Se2  1  0.66668  0.33337  0.13969  1
 Te  Te1  1  0.33333  0.66667  0.32616  1
 Te  Te2  1  0.33333  0.66665  0.70926  1
 Te  Te3  1  0.66666  0.33332  0.41985  1
 Te  Te4  1  0.66665  0.33330  0.51755  1
 Te  Te5  1  0.33334  0.66667  0.22847  1
 Te  Te6  1  0.33332  0.66665  0.61120  1
 W  W1  1  0.66666  0.33332  0.66028  1
