CIF file written using JARVIS-Tools package.
data_SmPd
_symmetry_space_group_name_H-M  'Cmcm'
_cell_length_a       3.80379
_cell_length_b       4.58955
_cell_length_c       5.69376
_cell_angle_alpha    90
_cell_angle_beta     109.513
_cell_angle_gamma    90

_symmetry_Int_Tables_number  63
_chemical_formula_structural  SmPd
_chemical_formula_sum  Sm2Pd2
_cell_volume  93.69056789433085
_cell_formula_units_Z  2
loop_
  _symmetry_equiv_pos_site_id
 _symmetry_equiv_pos_as_xyz
 1  'x, y, z'
loop_
 _atom_site_type_symbol
 _atom_site_label
 _atom_site_symmetry_multiplicity
 _atom_site_fract_x
 _atom_site_fract_y
 _atom_site_fract_z
 _atom_site_fract_occupancy
 Pd  Pd1  1  0.41237  0.75000  0.82473  1
 Pd  Pd2  1  0.58763  0.25000  0.17527  1
 Sm  Sm1  1  0.13701  0.75000  0.27403  1
 Sm  Sm2  1  0.86299  0.25000  0.72597  1
