CIF file written using JARVIS-Tools package.
data_MnGe2
_symmetry_space_group_name_H-M  'I4/mcm'
_cell_length_a       4.87543
_cell_length_b       4.87542
_cell_length_c       4.87542
_cell_angle_alpha    104.542
_cell_angle_beta     104.542
_cell_angle_gamma    119.855

_symmetry_Int_Tables_number  140
_chemical_formula_structural  MnGe2
_chemical_formula_sum  Mn2Ge4
_cell_volume  86.97892544509604
_cell_formula_units_Z  2
loop_
  _symmetry_equiv_pos_site_id
 _symmetry_equiv_pos_as_xyz
 1  'x, y, z'
loop_
 _atom_site_type_symbol
 _atom_site_label
 _atom_site_symmetry_multiplicity
 _atom_site_fract_x
 _atom_site_fract_y
 _atom_site_fract_z
 _atom_site_fract_occupancy
 Ge  Ge1  1  0.34474  0.15526  0.50000  1
 Ge  Ge2  1  0.84474  0.34474  0.18948  1
 Ge  Ge3  1  0.15526  0.65526  0.81052  1
 Ge  Ge4  1  0.65526  0.84474  0.50000  1
 Mn  Mn1  1  0.75000  0.75000  -0.00000  1
 Mn  Mn2  1  0.25000  0.25000  -0.00000  1
