CIF file written using JARVIS-Tools package.
data_K2MnBe
_symmetry_space_group_name_H-M  'I4/mmm'
_cell_length_a       6.2418
_cell_length_b       6.2418
_cell_length_c       6.2418
_cell_angle_alpha    135.44
_cell_angle_beta     135.44
_cell_angle_gamma    64.8465

_symmetry_Int_Tables_number  139
_chemical_formula_structural  K2MnBe
_chemical_formula_sum  K2MnBe
_cell_volume  118.02218290410359
_cell_formula_units_Z  1
loop_
  _symmetry_equiv_pos_site_id
 _symmetry_equiv_pos_as_xyz
 1  'x, y, z'
loop_
 _atom_site_type_symbol
 _atom_site_label
 _atom_site_symmetry_multiplicity
 _atom_site_fract_x
 _atom_site_fract_y
 _atom_site_fract_z
 _atom_site_fract_occupancy
 Be  Be1  1  0.75000  0.25000  0.50000  1
 K  K1  1  0.00000  0.00000  0.00000  1
 K  K2  1  0.50000  0.50000  0.00000  1
 Mn  Mn1  1  0.25000  0.75000  0.50000  1
