CIF file written using JARVIS-Tools package.
data_Li2FeF5
_symmetry_space_group_name_H-M  'P-1'
_cell_length_a       5.03794
_cell_length_b       5.66915
_cell_length_c       7.06398
_cell_angle_alpha    108.559
_cell_angle_beta     90.0528
_cell_angle_gamma    116.517

_symmetry_Int_Tables_number  2
_chemical_formula_structural  Li2FeF5
_chemical_formula_sum  Li4Fe2F0
_cell_volume  168.68984287898618
_cell_formula_units_Z  2
loop_
  _symmetry_equiv_pos_site_id
 _symmetry_equiv_pos_as_xyz
 1  'x, y, z'
loop_
 _atom_site_type_symbol
 _atom_site_label
 _atom_site_symmetry_multiplicity
 _atom_site_fract_x
 _atom_site_fract_y
 _atom_site_fract_z
 _atom_site_fract_occupancy
 F  F1  1  0.53143  0.38433  0.16043  1
 F  F2  1  0.85429  0.36393  0.64597  1
 F  F3  1  0.23378  0.16370  0.44593  1
 F  F4  1  0.14162  0.63115  0.35345  1
 F  F5  1  0.30436  0.01827  0.75471  1
 F  F6  1  0.76211  0.83138  0.55349  1
 F  F7  1  0.93025  0.18787  0.95206  1
 F  F8  1  0.06564  0.80719  0.04736  1
 F  F9  1  0.46447  0.61075  0.83901  1
 F  F10  1  0.69154  0.97681  0.24472  1
 Fe  Fe1  1  0.86744  0.74143  0.27078  1
 Fe  Fe2  1  0.12845  0.25364  0.72864  1
 Li  Li1  1  0.49796  0.99755  0.49971  1
 Li  Li2  1  0.12801  0.28193  0.22527  1
 Li  Li3  1  0.86788  0.71315  0.77416  1
 Li  Li4  1  0.49795  -0.00245  -0.00029  1
