CIF file written using JARVIS-Tools package.
data_Mg2Ni
_symmetry_space_group_name_H-M  'P6_222'
_cell_length_a       5.18875
_cell_length_b       5.18875
_cell_length_c       13.136
_cell_angle_alpha    90
_cell_angle_beta     90
_cell_angle_gamma    120

_symmetry_Int_Tables_number  180
_chemical_formula_structural  Mg2Ni
_chemical_formula_sum  Mg2Ni6
_cell_volume  306.27986310002456
_cell_formula_units_Z  6
loop_
  _symmetry_equiv_pos_site_id
 _symmetry_equiv_pos_as_xyz
 1  'x, y, z'
loop_
 _atom_site_type_symbol
 _atom_site_label
 _atom_site_symmetry_multiplicity
 _atom_site_fract_x
 _atom_site_fract_y
 _atom_site_fract_z
 _atom_site_fract_occupancy
 Mg  Mg1  1  0.50000  0.00000  0.11614  1
 Mg  Mg2  1  -0.00000  0.50000  0.55053  1
 Mg  Mg3  1  0.50000  0.50000  0.44947  1
 Mg  Mg4  1  -0.00000  0.50000  0.78280  1
 Mg  Mg5  1  0.50000  0.50000  0.21720  1
 Mg  Mg6  1  0.32833  0.16416  0.66667  1
 Mg  Mg7  1  0.50000  0.00000  0.88386  1
 Mg  Mg8  1  0.83584  0.16416  0.33333  1
 Mg  Mg9  1  0.67167  0.83584  0.66667  1
 Mg  Mg10  1  0.16416  0.83584  0.33333  1
 Mg  Mg11  1  0.83584  0.67167  0.00000  1
 Mg  Mg12  1  0.16416  0.32833  0.00000  1
 Ni  Ni1  1  -0.00000  0.50000  0.16667  1
 Ni  Ni2  1  0.50000  0.00000  0.50000  1
 Ni  Ni3  1  0.00000  0.00000  0.16667  1
 Ni  Ni4  1  0.00000  0.00000  0.50000  1
 Ni  Ni5  1  0.00000  0.00000  0.83333  1
 Ni  Ni6  1  0.50000  0.50000  0.83333  1
