CIF file written using JARVIS-Tools package.
data_NaMg6V
_symmetry_space_group_name_H-M  'P-6m2'
_cell_length_a       6.33713
_cell_length_b       6.33713
_cell_length_c       5.10965
_cell_angle_alpha    90
_cell_angle_beta     90
_cell_angle_gamma    119.994

_symmetry_Int_Tables_number  187
_chemical_formula_structural  NaMg6V
_chemical_formula_sum  NaMg6V
_cell_volume  177.71967668616983
_cell_formula_units_Z  1
loop_
  _symmetry_equiv_pos_site_id
 _symmetry_equiv_pos_as_xyz
 1  'x, y, z'
loop_
 _atom_site_type_symbol
 _atom_site_label
 _atom_site_symmetry_multiplicity
 _atom_site_fract_x
 _atom_site_fract_y
 _atom_site_fract_z
 _atom_site_fract_occupancy
 Mg  Mg1  1  0.07732  0.91366  0.25000  1
 Mg  Mg2  1  0.58634  0.42268  0.25000  1
 Mg  Mg3  1  0.58635  0.91365  0.25000  1
 Mg  Mg4  1  0.40277  0.57639  0.75000  1
 Mg  Mg5  1  0.92361  0.09723  0.75000  1
 Mg  Mg6  1  0.92359  0.57641  0.75000  1
 Na  Na1  1  0.41667  0.08333  0.75000  1
 V  V1  1  0.08335  0.41665  0.25000  1
