CIF file written using JARVIS-Tools package.
data_NbCrO4
_symmetry_space_group_name_H-M  'Cmmm'
_cell_length_a       3.0654
_cell_length_b       4.65775
_cell_length_c       4.65775
_cell_angle_alpha    90.8714
_cell_angle_beta     90
_cell_angle_gamma    90

_symmetry_Int_Tables_number  65
_chemical_formula_structural  NbCrO4
_chemical_formula_sum  NbCrO4
_cell_volume  66.49496923390689
_cell_formula_units_Z  1
loop_
  _symmetry_equiv_pos_site_id
 _symmetry_equiv_pos_as_xyz
 1  'x, y, z'
loop_
 _atom_site_type_symbol
 _atom_site_label
 _atom_site_symmetry_multiplicity
 _atom_site_fract_x
 _atom_site_fract_y
 _atom_site_fract_z
 _atom_site_fract_occupancy
 Cr  Cr1  1  0.50000  0.50000  0.50000  1
 Nb  Nb1  1  0.00000  0.00000  0.00000  1
 O  O1  1  0.00000  0.69272  0.69272  1
 O  O2  1  0.50000  0.79889  0.20111  1
 O  O3  1  0.50000  0.20111  0.79889  1
 O  O4  1  0.00000  0.30728  0.30728  1
