data_image0
_chemical_formula_structural       Cl6K4N6O10Os2
_chemical_formula_sum              "Cl6 K4 N6 O10 Os2"
_cell_length_a       6.41195
_cell_length_b       7.60522
_cell_length_c       10.2476
_cell_angle_alpha    90.4241
_cell_angle_beta     106.144
_cell_angle_gamma    95.4674

_space_group_name_H-M_alt    "P 1"
_space_group_IT_number       1

loop_
  _space_group_symop_operation_xyz
  'x, y, z'

loop_
  _atom_site_type_symbol
  _atom_site_label
  _atom_site_symmetry_multiplicity
  _atom_site_fract_x
  _atom_site_fract_y
  _atom_site_fract_z
  _atom_site_occupancy
  Cl  Cl1       1.0  0.28400  0.32700  0.47400  1.0000
  Cl  Cl2       1.0  0.71600  0.67300  0.52600  1.0000
  Cl  Cl3       1.0  0.92200  0.01150  0.32700  1.0000
  Cl  Cl4       1.0  0.07780  0.98900  0.67300  1.0000
  Cl  Cl5       1.0  0.83200  0.43600  0.25500  1.0000
  Cl  Cl6       1.0  0.16800  0.56400  0.74500  1.0000
  K   K1        1.0  0.18600  0.71700  0.46900  1.0000
  K   K2        1.0  0.81400  0.28300  0.53100  1.0000
  K   K3        1.0  0.62400  0.76000  0.10800  1.0000
  K   K4        1.0  0.37600  0.24000  0.89200  1.0000
  N   N1        1.0  0.91400  0.17400  0.04690  1.0000
  N   N2        1.0  0.08570  0.82600  0.95300  1.0000
  N   N3        1.0  0.32500  0.13500  0.21100  1.0000
  N   N4        1.0  0.67500  0.86500  0.78900  1.0000
  N   N5        1.0  0.26300  0.47700  0.18100  1.0000
  N   N6        1.0  0.73700  0.52300  0.81900  1.0000
  O   O1        1.0  0.30200  0.47700  0.06890  1.0000
  O   O2        1.0  0.69800  0.52300  0.93100  1.0000
  O   O3        1.0  0.31400  0.61100  0.25800  1.0000
  O   O4        1.0  0.68600  0.38900  0.74200  1.0000
  O   O5        1.0  0.51600  0.97000  0.44600  1.0000
  O   O6        1.0  0.48400  0.03010  0.55400  1.0000
  O   O7        1.0  0.98200  0.19100  0.94500  1.0000
  O   O8        1.0  0.01750  0.80900  0.05480  1.0000
  O   O9        1.0  0.72300  0.11300  0.03690  1.0000
  O   O10       1.0  0.27700  0.88700  0.96300  1.0000
  Os  Os1       1.0  0.12500  0.23600  0.24400  1.0000
  Os  Os2       1.0  0.87500  0.76400  0.75600  1.0000
