CIF file written using JARVIS-Tools package.
data_Zr2GaP3O12
_symmetry_space_group_name_H-M  'R-3c'
_cell_length_a       8.84436
_cell_length_b       8.84436
_cell_length_c       9.46348
_cell_angle_alpha    62.1415
_cell_angle_beta     62.1415
_cell_angle_gamma    60

_symmetry_Int_Tables_number  167
_chemical_formula_structural  Zr2GaP3O12
_chemical_formula_sum  Zr4Ga2P6O24
_cell_volume  539.7499073305431
_cell_formula_units_Z  2
loop_
  _symmetry_equiv_pos_site_id
 _symmetry_equiv_pos_as_xyz
 1  'x, y, z'
loop_
 _atom_site_type_symbol
 _atom_site_label
 _atom_site_symmetry_multiplicity
 _atom_site_fract_x
 _atom_site_fract_y
 _atom_site_fract_z
 _atom_site_fract_occupancy
 Ga  Ga1  1  0.50000  0.50000  0.50000  1
 Ga  Ga2  1  0.00000  0.00000  0.00000  1
 O  O1  1  0.07811  0.93213  0.28162  1
 O  O2  1  0.43213  0.57811  0.78162  1
 O  O3  1  0.23365  0.99070  0.40603  1
 O  O4  1  0.76635  0.00930  0.59397  1
 O  O5  1  0.36962  0.23365  0.40603  1
 O  O6  1  0.86962  0.49070  0.90603  1
 O  O7  1  0.49070  0.73365  0.90603  1
 O  O8  1  0.06787  0.29187  0.71838  1
 O  O9  1  0.20813  0.43213  0.78162  1
 O  O10  1  0.00930  0.63038  0.59397  1
 O  O11  1  0.63038  0.76635  0.59397  1
 O  O12  1  0.13038  0.50930  0.09397  1
 O  O13  1  0.50930  0.26635  0.09397  1
 O  O14  1  0.26635  0.13038  0.09397  1
 O  O15  1  0.73365  0.86962  0.90603  1
 O  O16  1  0.70813  0.07811  0.28162  1
 O  O17  1  0.92189  0.06787  0.71838  1
 O  O18  1  0.99070  0.36962  0.40603  1
 O  O19  1  0.42189  0.79187  0.21838  1
 O  O20  1  0.56787  0.42189  0.21838  1
 O  O21  1  0.79187  0.56787  0.21838  1
 O  O22  1  0.29187  0.92189  0.71838  1
 O  O23  1  0.57811  0.20813  0.78162  1
 O  O24  1  0.93213  0.70813  0.28162  1
 P  P1  1  0.03748  0.46252  0.75000  1
 P  P2  1  0.46252  0.75000  0.75000  1
 P  P3  1  0.53748  0.25000  0.25000  1
 P  P4  1  0.25000  0.96252  0.25000  1
 P  P5  1  0.96252  0.53748  0.25000  1
 P  P6  1  0.75000  0.03748  0.75000  1
 Zr  Zr1  1  0.14827  0.14827  0.55520  1
 Zr  Zr2  1  0.64827  0.64827  0.05520  1
 Zr  Zr3  1  0.85173  0.85173  0.44480  1
 Zr  Zr4  1  0.35173  0.35173  0.94480  1
