CIF file written using JARVIS-Tools package.
data_MgZn5
_symmetry_space_group_name_H-M  'P-62m'
_cell_length_a       5.06115
_cell_length_b       5.06114
_cell_length_c       4.33723
_cell_angle_alpha    90
_cell_angle_beta     90
_cell_angle_gamma    120

_symmetry_Int_Tables_number  189
_chemical_formula_structural  MgZn5
_chemical_formula_sum  MgZn5
_cell_volume  96.21459277602911
_cell_formula_units_Z  1
loop_
  _symmetry_equiv_pos_site_id
 _symmetry_equiv_pos_as_xyz
 1  'x, y, z'
loop_
 _atom_site_type_symbol
 _atom_site_label
 _atom_site_symmetry_multiplicity
 _atom_site_fract_x
 _atom_site_fract_y
 _atom_site_fract_z
 _atom_site_fract_occupancy
 Mg  Mg1  1  0.00000  0.00000  0.00000  1
 Zn  Zn1  1  0.00000  0.36798  0.50000  1
 Zn  Zn2  1  0.63202  0.63202  0.50000  1
 Zn  Zn3  1  0.36798  0.00000  0.50000  1
 Zn  Zn4  1  0.66667  0.33333  0.00000  1
 Zn  Zn5  1  0.33333  0.66667  0.00000  1
