CIF file written using JARVIS-Tools package.
data_HfMg6W
_symmetry_space_group_name_H-M  'Amm2'
_cell_length_a       6.31762
_cell_length_b       5.76694
_cell_length_c       5.02582
_cell_angle_alpha    90
_cell_angle_beta     90
_cell_angle_gamma    117.156

_symmetry_Int_Tables_number  38
_chemical_formula_structural  HfMg6W
_chemical_formula_sum  HfMg6W
_cell_volume  162.92261646300472
_cell_formula_units_Z  1
loop_
  _symmetry_equiv_pos_site_id
 _symmetry_equiv_pos_as_xyz
 1  'x, y, z'
loop_
 _atom_site_type_symbol
 _atom_site_label
 _atom_site_symmetry_multiplicity
 _atom_site_fract_x
 _atom_site_fract_y
 _atom_site_fract_z
 _atom_site_fract_occupancy
 Hf  Hf1  1  0.15062  0.82531  0.25000  1
 Mg  Mg1  1  0.65046  0.32544  0.25000  1
 Mg  Mg2  1  0.65046  0.82502  0.25000  1
 Mg  Mg3  1  0.33197  0.17315  0.75000  1
 Mg  Mg4  1  0.33197  0.65882  0.75000  1
 Mg  Mg5  1  0.87877  0.18939  0.75000  1
 Mg  Mg6  1  0.84952  0.67476  0.75000  1
 W  W1  1  0.15623  0.32811  0.25000  1
