CIF file written using JARVIS-Tools package.
data_RbTh2P3O12
_symmetry_space_group_name_H-M  'C2/c'
_cell_length_a       6.94193
_cell_length_b       8.14873
_cell_length_c       9.58206
_cell_angle_alpha    101.407
_cell_angle_beta     111.238
_cell_angle_gamma    90

_symmetry_Int_Tables_number  15
_chemical_formula_structural  RbTh2P3O12
_chemical_formula_sum  Rb2Th4P6O24
_cell_volume  493.7202033957194
_cell_formula_units_Z  2
loop_
  _symmetry_equiv_pos_site_id
 _symmetry_equiv_pos_as_xyz
 1  'x, y, z'
loop_
 _atom_site_type_symbol
 _atom_site_label
 _atom_site_symmetry_multiplicity
 _atom_site_fract_x
 _atom_site_fract_y
 _atom_site_fract_z
 _atom_site_fract_occupancy
 O  O1  1  0.44989  0.62948  0.59398  1
 O  O2  1  0.24507  0.41147  0.05221  1
 O  O3  1  0.75493  0.58853  0.94779  1
 O  O4  1  0.54681  0.65368  0.28768  1
 O  O5  1  0.09924  0.74519  0.14381  1
 O  O6  1  0.80714  0.91147  0.05221  1
 O  O7  1  0.55011  0.37052  0.40602  1
 O  O8  1  0.59973  0.93261  0.69307  1
 O  O9  1  0.95542  0.75481  0.85619  1
 O  O10  1  0.90666  0.56739  0.30693  1
 O  O11  1  0.25914  0.84632  0.71232  1
 O  O12  1  0.14409  0.12948  0.59398  1
 O  O13  1  0.09334  0.43261  0.69307  1
 O  O14  1  0.19286  0.08853  0.94779  1
 O  O15  1  0.45319  0.34632  0.71232  1
 O  O16  1  0.90076  0.25481  0.85619  1
 O  O17  1  0.85591  0.87052  0.40602  1
 O  O18  1  0.82559  0.66880  0.55112  1
 O  O19  1  0.27447  0.83120  0.44888  1
 O  O20  1  0.74086  0.15368  0.28768  1
 O  O21  1  0.17441  0.33120  0.44888  1
 O  O22  1  0.04458  0.24519  0.14381  1
 O  O23  1  0.40027  0.06739  0.30693  1
 O  O24  1  0.72553  0.16880  0.55112  1
 P  P1  1  0.09930  0.25000  0.00000  1
 P  P2  1  0.39873  0.81851  0.61889  1
 P  P3  1  0.60127  0.18149  0.38111  1
 P  P4  1  0.77984  0.68149  0.38111  1
 P  P5  1  0.90070  0.75000  -0.00000  1
 P  P6  1  0.22016  0.31851  0.61889  1
 Rb  Rb1  1  0.40254  0.75000  0.00000  1
 Rb  Rb2  1  0.59746  0.25000  -0.00000  1
 Th  Th1  1  0.75285  0.46646  0.69150  1
 Th  Th2  1  0.93865  0.96646  0.69150  1
 Th  Th3  1  0.06135  0.03354  0.30850  1
 Th  Th4  1  0.24715  0.53354  0.30850  1
