CIF file written using JARVIS-Tools package.
data_TlF
_symmetry_space_group_name_H-M  'P4/nmm'
_cell_length_a       5.33252
_cell_length_b       5.33253
_cell_length_c       6.12727
_cell_angle_alpha    90
_cell_angle_beta     90
_cell_angle_gamma    90

_symmetry_Int_Tables_number  129
_chemical_formula_structural  TlF
_chemical_formula_sum  Tl4F4
_cell_volume  174.2340443748367
_cell_formula_units_Z  4
loop_
  _symmetry_equiv_pos_site_id
 _symmetry_equiv_pos_as_xyz
 1  'x, y, z'
loop_
 _atom_site_type_symbol
 _atom_site_label
 _atom_site_symmetry_multiplicity
 _atom_site_fract_x
 _atom_site_fract_y
 _atom_site_fract_z
 _atom_site_fract_occupancy
 F  F1  1  0.25000  0.29094  0.64861  1
 F  F2  1  0.75000  0.79102  0.64877  1
 F  F3  1  0.25000  0.79102  0.35123  1
 F  F4  1  0.75000  0.29094  0.35139  1
 Tl  Tl1  1  0.25000  0.29103  0.24335  1
 Tl  Tl2  1  0.25000  0.79101  0.75656  1
 Tl  Tl3  1  0.75000  0.29103  0.75665  1
 Tl  Tl4  1  0.75000  0.79101  0.24344  1
