CIF file written using JARVIS-Tools package.
data_LiCa3
_symmetry_space_group_name_H-M  'P6_3/mmc'
_cell_length_a       7.42678
_cell_length_b       7.42678
_cell_length_c       6.06052
_cell_angle_alpha    90
_cell_angle_beta     90
_cell_angle_gamma    120

_symmetry_Int_Tables_number  194
_chemical_formula_structural  LiCa3
_chemical_formula_sum  Li2Ca6
_cell_volume  289.49531935718323
_cell_formula_units_Z  2
loop_
  _symmetry_equiv_pos_site_id
 _symmetry_equiv_pos_as_xyz
 1  'x, y, z'
loop_
 _atom_site_type_symbol
 _atom_site_label
 _atom_site_symmetry_multiplicity
 _atom_site_fract_x
 _atom_site_fract_y
 _atom_site_fract_z
 _atom_site_fract_occupancy
 Ca  Ca1  1  0.16834  0.33668  0.25000  1
 Ca  Ca2  1  0.66332  0.83166  0.25000  1
 Ca  Ca3  1  0.16834  0.83166  0.25000  1
 Ca  Ca4  1  0.83166  0.66332  0.75000  1
 Ca  Ca5  1  0.33668  0.16834  0.75000  1
 Ca  Ca6  1  0.83166  0.16834  0.75000  1
 Li  Li1  1  0.33333  0.66667  0.75000  1
 Li  Li2  1  0.66667  0.33333  0.25000  1
