CIF file written using JARVIS-Tools package.
data_As2Pb3O8
_symmetry_space_group_name_H-M  'P2_1/c'
_cell_length_a       6.23573
_cell_length_b       7.52522
_cell_length_c       9.36213
_cell_angle_alpha    112.557
_cell_angle_beta     90
_cell_angle_gamma    90

_symmetry_Int_Tables_number  14
_chemical_formula_structural  As2Pb3O8
_chemical_formula_sum  As4Pb6O6
_cell_volume  405.7104090805338
_cell_formula_units_Z  2
loop_
  _symmetry_equiv_pos_site_id
 _symmetry_equiv_pos_as_xyz
 1  'x, y, z'
loop_
 _atom_site_type_symbol
 _atom_site_label
 _atom_site_symmetry_multiplicity
 _atom_site_fract_x
 _atom_site_fract_y
 _atom_site_fract_z
 _atom_site_fract_occupancy
 As  As1  1  0.01823  0.19695  0.40226  1
 As  As2  1  0.51823  0.30305  0.09774  1
 As  As3  1  0.48177  0.69695  0.90226  1
 As  As4  1  0.98177  0.80305  0.59774  1
 O  O1  1  0.75767  0.76546  0.48332  1
 O  O2  1  0.25767  0.73454  0.01668  1
 O  O3  1  0.03307  0.31511  0.27875  1
 O  O4  1  0.74233  0.26546  0.98332  1
 O  O5  1  0.29562  0.23660  0.97598  1
 O  O6  1  0.79562  0.26340  0.52402  1
 O  O7  1  0.24233  0.23454  0.51668  1
 O  O8  1  0.20438  0.73660  0.47598  1
 O  O9  1  0.47126  0.54180  0.21806  1
 O  O10  1  0.02874  0.04180  0.71806  1
 O  O11  1  0.96693  0.68489  0.72125  1
 O  O12  1  0.70438  0.76340  0.02402  1
 O  O13  1  0.46693  0.81511  0.77875  1
 O  O14  1  0.97126  0.95820  0.28194  1
 O  O15  1  0.52874  0.45820  0.78194  1
 O  O16  1  0.53307  0.18489  0.22125  1
 Pb  Pb1  1  0.91663  0.40740  0.78924  1
 Pb  Pb2  1  0.50000  0.50000  0.50000  1
 Pb  Pb3  1  0.08337  0.59260  0.21076  1
 Pb  Pb4  1  0.58337  0.90740  0.28924  1
 Pb  Pb5  1  0.00000  0.00000  0.00000  1
 Pb  Pb6  1  0.41663  0.09260  0.71076  1
