CIF file written using JARVIS-Tools package.
data_Yb3Si5
_symmetry_space_group_name_H-M  'P-62m'
_cell_length_a       6.89987
_cell_length_b       6.89987
_cell_length_c       4.23548
_cell_angle_alpha    90
_cell_angle_beta     90
_cell_angle_gamma    120

_symmetry_Int_Tables_number  189
_chemical_formula_structural  Yb3Si5
_chemical_formula_sum  Yb3Si5
_cell_volume  174.6285171598543
_cell_formula_units_Z  1
loop_
  _symmetry_equiv_pos_site_id
 _symmetry_equiv_pos_as_xyz
 1  'x, y, z'
loop_
 _atom_site_type_symbol
 _atom_site_label
 _atom_site_symmetry_multiplicity
 _atom_site_fract_x
 _atom_site_fract_y
 _atom_site_fract_z
 _atom_site_fract_occupancy
 Si  Si1  1  0.66667  0.33333  0.50000  1
 Si  Si2  1  0.33333  0.66667  0.50000  1
 Si  Si3  1  -0.00000  0.68756  0.50000  1
 Si  Si4  1  0.31244  0.31244  0.50000  1
 Si  Si5  1  0.68756  -0.00000  0.50000  1
 Yb  Yb1  1  -0.00000  0.33717  0.00000  1
 Yb  Yb2  1  0.33717  -0.00000  0.00000  1
 Yb  Yb3  1  0.66283  0.66283  0.00000  1
