CIF file written using JARVIS-Tools package.
data_LiInSe2
_symmetry_space_group_name_H-M  'I-42d'
_cell_length_a       5.96881
_cell_length_b       5.96881
_cell_length_c       7.26527
_cell_angle_alpha    114.254
_cell_angle_beta     114.254
_cell_angle_gamma    90.0001

_symmetry_Int_Tables_number  122
_chemical_formula_structural  LiInSe2
_chemical_formula_sum  Li2In2Se4
_cell_volume  210.68290213942993
_cell_formula_units_Z  2
loop_
  _symmetry_equiv_pos_site_id
 _symmetry_equiv_pos_as_xyz
 1  'x, y, z'
loop_
 _atom_site_type_symbol
 _atom_site_label
 _atom_site_symmetry_multiplicity
 _atom_site_fract_x
 _atom_site_fract_y
 _atom_site_fract_z
 _atom_site_fract_occupancy
 In  In1  1  0.25000  0.75000  0.50000  1
 In  In2  1  0.00000  0.00000  0.00000  1
 Li  Li1  1  0.50000  0.50000  0.00000  1
 Li  Li2  1  0.75000  0.25000  0.50000  1
 Se  Se1  1  0.86183  0.87500  0.25000  1
 Se  Se2  1  0.62500  0.13817  0.75000  1
 Se  Se3  1  0.38817  0.37500  0.25000  1
 Se  Se4  1  0.12500  0.61183  0.75000  1
