CIF file written using JARVIS-Tools package.
data_BaMg2H8Os
_symmetry_space_group_name_H-M  'C2'
_cell_length_a       4.97786
_cell_length_b       4.97786
_cell_length_c       10.8488
_cell_angle_alpha    90
_cell_angle_beta     90
_cell_angle_gamma    90

_symmetry_Int_Tables_number  5
_chemical_formula_structural  BaMg2H8Os
_chemical_formula_sum  Ba2Mg4H6Os2
_cell_volume  268.8234866472467
_cell_formula_units_Z  2
loop_
  _symmetry_equiv_pos_site_id
 _symmetry_equiv_pos_as_xyz
 1  'x, y, z'
loop_
 _atom_site_type_symbol
 _atom_site_label
 _atom_site_symmetry_multiplicity
 _atom_site_fract_x
 _atom_site_fract_y
 _atom_site_fract_z
 _atom_site_fract_occupancy
 Ba  Ba1  1  0.50000  0.00000  0.00000  1
 Ba  Ba2  1  0.00000  0.50000  0.50000  1
 H  H1  1  0.24588  0.24588  0.75000  1
 H  H2  1  0.75412  0.75412  0.75000  1
 H  H3  1  0.75412  0.24588  0.25000  1
 H  H4  1  0.24588  0.75412  0.25000  1
 H  H5  1  0.75412  0.75412  0.25000  1
 H  H6  1  0.00000  0.00000  0.75000  1
 H  H7  1  0.24588  0.75412  0.75000  1
 H  H8  1  0.24588  0.24588  0.25000  1
 H  H9  1  0.50000  0.25037  0.50000  1
 H  H10  1  0.50000  0.74963  0.50000  1
 H  H11  1  0.74963  0.50000  0.00000  1
 H  H12  1  0.25037  0.50000  0.00000  1
 H  H13  1  0.00000  0.00000  0.59243  1
 H  H14  1  0.00000  0.00000  0.09243  1
 H  H15  1  0.00000  0.00000  0.40757  1
 H  H16  1  0.00000  0.00000  0.90757  1
 Mg  Mg1  1  0.00000  0.50000  0.86064  1
 Mg  Mg2  1  0.50000  0.00000  0.36064  1
 Mg  Mg3  1  0.00000  0.50000  0.13936  1
 Mg  Mg4  1  0.50000  0.00000  0.63936  1
 Os  Os1  1  0.75412  0.24588  0.75000  1
 Os  Os2  1  0.00000  0.00000  0.25000  1
