CIF file written using JARVIS-Tools package.
data_Mg6NbAl
_symmetry_space_group_name_H-M  'Amm2'
_cell_length_a       6.25981
_cell_length_b       5.97256
_cell_length_c       4.95282
_cell_angle_alpha    90
_cell_angle_beta     90
_cell_angle_gamma    118.493

_symmetry_Int_Tables_number  38
_chemical_formula_structural  Mg6NbAl
_chemical_formula_sum  Mg6NbAl
_cell_volume  162.7422249233708
_cell_formula_units_Z  1
loop_
  _symmetry_equiv_pos_site_id
 _symmetry_equiv_pos_as_xyz
 1  'x, y, z'
loop_
 _atom_site_type_symbol
 _atom_site_label
 _atom_site_symmetry_multiplicity
 _atom_site_fract_x
 _atom_site_fract_y
 _atom_site_fract_z
 _atom_site_fract_occupancy
 Al  Al1  1  0.16321  0.33160  0.25000  1
 Mg  Mg1  1  0.65637  0.32857  0.25000  1
 Mg  Mg2  1  0.65637  0.82780  0.25000  1
 Mg  Mg3  1  0.33532  0.15864  0.75000  1
 Mg  Mg4  1  0.33532  0.67668  0.75000  1
 Mg  Mg5  1  0.85143  0.17572  0.75000  1
 Mg  Mg6  1  0.84958  0.67479  0.75000  1
 Nb  Nb1  1  0.15240  0.82620  0.25000  1
