CIF file written using JARVIS-Tools package.
data_Co2OF3
_symmetry_space_group_name_H-M  'Amm2'
_cell_length_a       4.6149
_cell_length_b       4.6149
_cell_length_c       8.95867
_cell_angle_alpha    90
_cell_angle_beta     90
_cell_angle_gamma    93.0677

_symmetry_Int_Tables_number  38
_chemical_formula_structural  Co2OF3
_chemical_formula_sum  Co6O3F9
_cell_volume  190.52258244892897
_cell_formula_units_Z  3
loop_
  _symmetry_equiv_pos_site_id
 _symmetry_equiv_pos_as_xyz
 1  'x, y, z'
loop_
 _atom_site_type_symbol
 _atom_site_label
 _atom_site_symmetry_multiplicity
 _atom_site_fract_x
 _atom_site_fract_y
 _atom_site_fract_z
 _atom_site_fract_occupancy
 Co  Co1  1  0.95344  0.95344  0.00000  1
 Co  Co2  1  0.03414  0.03414  0.33561  1
 Co  Co3  1  0.03414  0.03414  0.66439  1
 Co  Co4  1  0.49292  0.49292  0.16860  1
 Co  Co5  1  0.49292  0.49292  0.83140  1
 Co  Co6  1  0.49912  0.49912  0.50000  1
 F  F1  1  0.71562  0.71562  0.33927  1
 F  F2  1  0.71562  0.71562  0.66073  1
 F  F3  1  0.26910  0.26910  0.00000  1
 F  F4  1  0.22127  0.79697  0.50000  1
 F  F5  1  0.19628  0.78787  0.83121  1
 F  F6  1  0.79697  0.22127  0.50000  1
 F  F7  1  0.78787  0.19628  0.83121  1
 F  F8  1  0.78787  0.19628  0.16879  1
 F  F9  1  0.19628  0.78787  0.16879  1
 O  O1  1  0.66527  0.66527  0.00000  1
 O  O2  1  0.32057  0.32057  0.66283  1
 O  O3  1  0.32057  0.32057  0.33717  1
