CIF file written using JARVIS-Tools package.
data_Mg6VCo
_symmetry_space_group_name_H-M  'Amm2'
_cell_length_a       6.0894
_cell_length_b       5.78961
_cell_length_c       4.73983
_cell_angle_alpha    90
_cell_angle_beta     90
_cell_angle_gamma    118.384

_symmetry_Int_Tables_number  38
_chemical_formula_structural  Mg6VCo
_chemical_formula_sum  Mg6VCo
_cell_volume  147.0144478394048
_cell_formula_units_Z  1
loop_
  _symmetry_equiv_pos_site_id
 _symmetry_equiv_pos_as_xyz
 1  'x, y, z'
loop_
 _atom_site_type_symbol
 _atom_site_label
 _atom_site_symmetry_multiplicity
 _atom_site_fract_x
 _atom_site_fract_y
 _atom_site_fract_z
 _atom_site_fract_occupancy
 Co  Co1  1  0.16242  0.33121  0.25000  1
 Mg  Mg1  1  0.65248  0.32725  0.25000  1
 Mg  Mg2  1  0.65248  0.82522  0.25000  1
 Mg  Mg3  1  0.32832  0.16468  0.75000  1
 Mg  Mg4  1  0.32832  0.66364  0.75000  1
 Mg  Mg5  1  0.87394  0.18697  0.75000  1
 Mg  Mg6  1  0.85370  0.67685  0.75000  1
 V  V1  1  0.14834  0.82417  0.25000  1
