CIF file written using JARVIS-Tools package.
data_Mn3O5F
_symmetry_space_group_name_H-M  'P2_1'
_cell_length_a       5.38093
_cell_length_b       4.49961
_cell_length_c       7.40181
_cell_angle_alpha    90
_cell_angle_beta     94.2408
_cell_angle_gamma    90

_symmetry_Int_Tables_number  4
_chemical_formula_structural  Mn3O5F
_chemical_formula_sum  Mn6O0F2
_cell_volume  178.72231166721602
_cell_formula_units_Z  2
loop_
  _symmetry_equiv_pos_site_id
 _symmetry_equiv_pos_as_xyz
 1  'x, y, z'
loop_
 _atom_site_type_symbol
 _atom_site_label
 _atom_site_symmetry_multiplicity
 _atom_site_fract_x
 _atom_site_fract_y
 _atom_site_fract_z
 _atom_site_fract_occupancy
 F  F1  1  0.28106  0.80122  0.73071  1
 F  F2  1  0.71894  0.30122  0.26929  1
 Mn  Mn1  1  0.92534  0.97721  0.16472  1
 Mn  Mn2  1  0.25152  0.01442  0.48852  1
 Mn  Mn3  1  0.07466  0.47721  0.83528  1
 Mn  Mn4  1  0.74848  0.51442  0.51148  1
 Mn  Mn5  1  0.40857  0.51286  0.16336  1
 Mn  Mn6  1  0.59143  0.01286  0.83664  1
 O  O1  1  0.62239  0.80594  0.06627  1
 O  O2  1  0.95517  0.80275  0.39766  1
 O  O3  1  0.45375  0.69566  0.39876  1
 O  O4  1  0.78621  0.69555  0.73577  1
 O  O5  1  0.21379  0.19555  0.26423  1
 O  O6  1  0.37761  0.30594  0.93373  1
 O  O7  1  0.87963  0.19438  0.94026  1
 O  O8  1  0.54625  0.19566  0.60124  1
 O  O9  1  0.04483  0.30275  0.60234  1
 O  O10  1  0.12037  0.69438  0.05974  1
