CIF file written using JARVIS-Tools package.
data_Th2BiN2
_symmetry_space_group_name_H-M  'I4/mmm'
_cell_length_a       4.09373
_cell_length_b       4.09374
_cell_length_c       7.59092
_cell_angle_alpha    105.643
_cell_angle_beta     105.643
_cell_angle_gamma    90

_symmetry_Int_Tables_number  139
_chemical_formula_structural  Th2BiN2
_chemical_formula_sum  Th2BiN2
_cell_volume  117.60084328143087
_cell_formula_units_Z  1
loop_
  _symmetry_equiv_pos_site_id
 _symmetry_equiv_pos_as_xyz
 1  'x, y, z'
loop_
 _atom_site_type_symbol
 _atom_site_label
 _atom_site_symmetry_multiplicity
 _atom_site_fract_x
 _atom_site_fract_y
 _atom_site_fract_z
 _atom_site_fract_occupancy
 Bi  Bi1  1  0.00000  0.00000  0.00000  1
 N  N1  1  0.75000  0.25000  0.50000  1
 N  N2  1  0.25000  0.75000  0.50000  1
 Th  Th1  1  0.33195  0.33195  0.66390  1
 Th  Th2  1  0.66805  0.66805  0.33610  1
