CIF file written using JARVIS-Tools package.
data_Te4MoW
_symmetry_space_group_name_H-M  'P-6m2'
_cell_length_a       3.56907
_cell_length_b       3.56899
_cell_length_c       14.4539
_cell_angle_alpha    90.0168
_cell_angle_beta     90
_cell_angle_gamma    120.001

_symmetry_Int_Tables_number  187
_chemical_formula_structural  Te4MoW
_chemical_formula_sum  Te4MoW
_cell_volume  159.44551637789934
_cell_formula_units_Z  1
loop_
  _symmetry_equiv_pos_site_id
 _symmetry_equiv_pos_as_xyz
 1  'x, y, z'
loop_
 _atom_site_type_symbol
 _atom_site_label
 _atom_site_symmetry_multiplicity
 _atom_site_fract_x
 _atom_site_fract_y
 _atom_site_fract_z
 _atom_site_fract_occupancy
 Mo  Mo1  1  0.66633  0.33266  0.55101  1
 Te  Te1  1  0.33310  0.66619  0.67639  1
 Te  Te2  1  0.66691  0.33382  0.92504  1
 Te  Te3  1  0.66711  0.33421  0.17667  1
 Te  Te4  1  0.33289  0.66577  0.42562  1
 W  W1  1  0.33367  0.66734  0.05086  1
