CIF file written using JARVIS-Tools package.
data_Mg6GaSi
_symmetry_space_group_name_H-M  'Amm2'
_cell_length_a       6.13762
_cell_length_b       6.13762
_cell_length_c       5.09718
_cell_angle_alpha    90
_cell_angle_beta     90
_cell_angle_gamma    121.153

_symmetry_Int_Tables_number  38
_chemical_formula_structural  Mg6GaSi
_chemical_formula_sum  Mg6GaSi
_cell_volume  164.32155768324415
_cell_formula_units_Z  1
loop_
  _symmetry_equiv_pos_site_id
 _symmetry_equiv_pos_as_xyz
 1  'x, y, z'
loop_
 _atom_site_type_symbol
 _atom_site_label
 _atom_site_symmetry_multiplicity
 _atom_site_fract_x
 _atom_site_fract_y
 _atom_site_fract_z
 _atom_site_fract_occupancy
 Ga  Ga1  1  0.36018  0.13982  0.75000  1
 Mg  Mg1  1  0.15910  0.85360  0.25000  1
 Mg  Mg2  1  0.64640  0.34090  0.25000  1
 Mg  Mg3  1  0.65939  0.84061  0.25000  1
 Mg  Mg4  1  0.33844  0.64201  0.75000  1
 Mg  Mg5  1  0.85799  0.16156  0.75000  1
 Mg  Mg6  1  0.83879  0.66121  0.75000  1
 Si  Si1  1  0.13972  0.36028  0.25000  1
