CIF file written using JARVIS-Tools package.
data_BaH2O2
_symmetry_space_group_name_H-M  'P2_1/c'
_cell_length_a       9.40454
_cell_length_b       7.89771
_cell_length_c       6.79279
_cell_angle_alpha    90
_cell_angle_beta     95.082
_cell_angle_gamma    90

_symmetry_Int_Tables_number  14
_chemical_formula_structural  BaH2O2
_chemical_formula_sum  Ba8H6O6
_cell_volume  502.54569886725335
_cell_formula_units_Z  8
loop_
  _symmetry_equiv_pos_site_id
 _symmetry_equiv_pos_as_xyz
 1  'x, y, z'
loop_
 _atom_site_type_symbol
 _atom_site_label
 _atom_site_symmetry_multiplicity
 _atom_site_fract_x
 _atom_site_fract_y
 _atom_site_fract_z
 _atom_site_fract_occupancy
 Ba  Ba1  1  0.89511  0.14478  0.25166  1
 Ba  Ba2  1  0.39511  0.35522  0.75166  1
 Ba  Ba3  1  0.10489  0.85522  0.74834  1
 Ba  Ba4  1  0.60489  0.64478  0.24834  1
 Ba  Ba5  1  0.31791  0.05027  0.28162  1
 Ba  Ba6  1  0.81791  0.44973  0.78162  1
 Ba  Ba7  1  0.68209  0.94973  0.71838  1
 Ba  Ba8  1  0.18209  0.55027  0.21838  1
 H  H1  1  0.47702  0.35118  0.28083  1
 H  H2  1  0.61749  0.04000  0.18673  1
 H  H3  1  0.11749  0.46000  0.68673  1
 H  H4  1  0.38251  0.96000  0.81327  1
 H  H5  1  0.02298  0.85118  0.21917  1
 H  H6  1  0.52298  0.64882  0.71917  1
 H  H7  1  0.97702  0.14882  0.78083  1
 H  H8  1  0.88251  0.54000  0.31327  1
 H  H9  1  0.87960  0.72582  0.06347  1
 H  H10  1  0.37960  0.77418  0.56347  1
 H  H11  1  0.12040  0.27418  0.93653  1
 H  H12  1  0.40736  0.73855  0.94454  1
 H  H13  1  0.90736  0.76145  0.44454  1
 H  H14  1  0.59264  0.26145  0.05546  1
 H  H15  1  0.09264  0.23855  0.55546  1
 H  H16  1  0.62040  0.22582  0.43653  1
 O  O1  1  0.65891  0.20218  0.97428  1
 O  O2  1  0.61935  0.99408  0.32218  1
 O  O3  1  0.11935  0.50592  0.82218  1
 O  O4  1  0.38065  0.00592  0.67782  1
 O  O5  1  0.08271  0.86155  0.34766  1
 O  O6  1  0.58271  0.63845  0.84766  1
 O  O7  1  0.88065  0.49408  0.17782  1
 O  O8  1  0.10552  0.16012  0.99060  1
 O  O9  1  0.89448  0.83988  0.00940  1
 O  O10  1  0.39448  0.66012  0.50940  1
 O  O11  1  0.60552  0.33988  0.49060  1
 O  O12  1  0.34109  0.79782  0.02572  1
 O  O13  1  0.84109  0.70218  0.52572  1
 O  O14  1  0.91729  0.13845  0.65234  1
 O  O15  1  0.41729  0.36155  0.15234  1
 O  O16  1  0.15891  0.29782  0.47428  1
