CIF file written using JARVIS-Tools package.
data_KSbS2
_symmetry_space_group_name_H-M  'C2/c'
_cell_length_a       6.27173
_cell_length_b       6.27173
_cell_length_c       6.96567
_cell_angle_alpha    111.812
_cell_angle_beta     111.812
_cell_angle_gamma    91.1024

_symmetry_Int_Tables_number  15
_chemical_formula_structural  KSbS2
_chemical_formula_sum  K2Sb2S4
_cell_volume  232.19983425155544
_cell_formula_units_Z  2
loop_
  _symmetry_equiv_pos_site_id
 _symmetry_equiv_pos_as_xyz
 1  'x, y, z'
loop_
 _atom_site_type_symbol
 _atom_site_label
 _atom_site_symmetry_multiplicity
 _atom_site_fract_x
 _atom_site_fract_y
 _atom_site_fract_z
 _atom_site_fract_occupancy
 K  K1  1  0.86189  0.13811  0.75000  1
 K  K2  1  0.13811  0.86189  0.25000  1
 S  S1  1  0.21306  0.37356  0.27666  1
 S  S2  1  0.62644  0.78694  0.22334  1
 S  S3  1  0.37356  0.21306  0.77666  1
 S  S4  1  0.78694  0.62644  0.72334  1
 Sb  Sb1  1  0.59456  0.40544  0.25000  1
 Sb  Sb2  1  0.40544  0.59456  0.75000  1
