CIF file written using JARVIS-Tools package.
data_SmSb2
_symmetry_space_group_name_H-M  'Cmce'
_cell_length_a       4.37771
_cell_length_b       4.37771
_cell_length_c       18.1252
_cell_angle_alpha    90
_cell_angle_beta     90
_cell_angle_gamma    91.2781

_symmetry_Int_Tables_number  64
_chemical_formula_structural  SmSb2
_chemical_formula_sum  Sm4Sb8
_cell_volume  347.27230734064096
_cell_formula_units_Z  4
loop_
  _symmetry_equiv_pos_site_id
 _symmetry_equiv_pos_as_xyz
 1  'x, y, z'
loop_
 _atom_site_type_symbol
 _atom_site_label
 _atom_site_symmetry_multiplicity
 _atom_site_fract_x
 _atom_site_fract_y
 _atom_site_fract_z
 _atom_site_fract_occupancy
 Sb  Sb1  1  0.87318  0.37318  0.25000  1
 Sb  Sb2  1  0.62682  0.12682  0.75000  1
 Sb  Sb3  1  0.12682  0.62682  0.75000  1
 Sb  Sb4  1  0.37318  0.87318  0.25000  1
 Sb  Sb5  1  0.86020  0.86020  0.43606  1
 Sb  Sb6  1  0.63980  0.63980  0.93606  1
 Sb  Sb7  1  0.36020  0.36020  0.06394  1
 Sb  Sb8  1  0.13980  0.13980  0.56394  1
 Sm  Sm1  1  0.64382  0.64382  0.61047  1
 Sm  Sm2  1  0.85618  0.85618  0.11047  1
 Sm  Sm3  1  0.14382  0.14382  0.88953  1
 Sm  Sm4  1  0.35618  0.35618  0.38953  1
