CIF file written using JARVIS-Tools package.
data_TaS2
_symmetry_space_group_name_H-M  'P6_3/mmc'
_cell_length_a       3.34297
_cell_length_b       3.34297
_cell_length_c       12.1777
_cell_angle_alpha    90
_cell_angle_beta     90
_cell_angle_gamma    120

_symmetry_Int_Tables_number  194
_chemical_formula_structural  TaS2
_chemical_formula_sum  Ta2S4
_cell_volume  117.85890114482596
_cell_formula_units_Z  2
loop_
  _symmetry_equiv_pos_site_id
 _symmetry_equiv_pos_as_xyz
 1  'x, y, z'
loop_
 _atom_site_type_symbol
 _atom_site_label
 _atom_site_symmetry_multiplicity
 _atom_site_fract_x
 _atom_site_fract_y
 _atom_site_fract_z
 _atom_site_fract_occupancy
 S  S1  1  0.66668  0.33332  0.62145  1
 S  S2  1  0.33332  0.66668  0.37855  1
 S  S3  1  0.33332  0.66668  0.12145  1
 S  S4  1  0.66668  0.33332  0.87855  1
 Ta  Ta1  1  0.00001  0.99999  0.75000  1
 Ta  Ta2  1  0.99999  0.00001  0.25000  1
