CIF file written using JARVIS-Tools package.
data_Al2O3
_symmetry_space_group_name_H-M  'C2/c'
_cell_length_a       5.23864
_cell_length_b       5.16609
_cell_length_c       5.23864
_cell_angle_alpha    66.6656
_cell_angle_beta     65.7529
_cell_angle_gamma    66.6654

_symmetry_Int_Tables_number  15
_chemical_formula_structural  Al2O3
_chemical_formula_sum  Al4O6
_cell_volume  113.98768852549759
_cell_formula_units_Z  2
loop_
  _symmetry_equiv_pos_site_id
 _symmetry_equiv_pos_as_xyz
 1  'x, y, z'
loop_
 _atom_site_type_symbol
 _atom_site_label
 _atom_site_symmetry_multiplicity
 _atom_site_fract_x
 _atom_site_fract_y
 _atom_site_fract_z
 _atom_site_fract_occupancy
 Al  Al1  1  0.03869  0.08587  0.12467  1
 Al  Al2  1  0.37533  0.41413  0.46131  1
 Al  Al3  1  0.22467  0.58587  0.93869  1
 Al  Al4  1  0.56131  0.91413  0.27532  1
 O  O1  1  0.10456  0.37461  0.80391  1
 O  O2  1  0.25159  0.25000  0.24841  1
 O  O3  1  0.49546  0.62539  0.59610  1
 O  O4  1  0.90390  0.87461  0.00454  1
 O  O5  1  0.34839  0.75000  0.15161  1
 O  O6  1  0.69610  0.12539  0.39544  1
