CIF file written using JARVIS-Tools package.
data_SmZn2
_symmetry_space_group_name_H-M  'Imma'
_cell_length_a       4.53532
_cell_length_b       5.71894
_cell_length_c       5.71894
_cell_angle_alpha    78.8833
_cell_angle_beta     66.6394
_cell_angle_gamma    66.6394

_symmetry_Int_Tables_number  74
_chemical_formula_structural  SmZn2
_chemical_formula_sum  Sm2Zn4
_cell_volume  124.89981550637229
_cell_formula_units_Z  2
loop_
  _symmetry_equiv_pos_site_id
 _symmetry_equiv_pos_as_xyz
 1  'x, y, z'
loop_
 _atom_site_type_symbol
 _atom_site_label
 _atom_site_symmetry_multiplicity
 _atom_site_fract_x
 _atom_site_fract_y
 _atom_site_fract_z
 _atom_site_fract_occupancy
 Sm  Sm1  1  0.53162  0.71838  0.21838  1
 Sm  Sm2  1  0.46838  0.28162  0.78162  1
 Zn  Zn1  1  0.83432  0.71264  0.61873  1
 Zn  Zn2  1  0.16568  0.28736  0.38127  1
 Zn  Zn3  1  0.83432  0.11873  0.21264  1
 Zn  Zn4  1  0.16568  0.88127  0.78736  1
