CIF file written using JARVIS-Tools package.
data_YS2
_symmetry_space_group_name_H-M  'P4/nmm'
_cell_length_a       3.8695
_cell_length_b       3.8695
_cell_length_c       7.93629
_cell_angle_alpha    90
_cell_angle_beta     90
_cell_angle_gamma    90

_symmetry_Int_Tables_number  129
_chemical_formula_structural  YS2
_chemical_formula_sum  Y2S4
_cell_volume  118.83017352004731
_cell_formula_units_Z  2
loop_
  _symmetry_equiv_pos_site_id
 _symmetry_equiv_pos_as_xyz
 1  'x, y, z'
loop_
 _atom_site_type_symbol
 _atom_site_label
 _atom_site_symmetry_multiplicity
 _atom_site_fract_x
 _atom_site_fract_y
 _atom_site_fract_z
 _atom_site_fract_occupancy
 S  S1  1  0.75000  0.25000  0.00000  1
 S  S2  1  0.25000  0.75000  0.00000  1
 S  S3  1  0.25000  0.25000  0.63192  1
 S  S4  1  0.75000  0.75000  0.36808  1
 Y  Y1  1  0.25000  0.25000  0.27387  1
 Y  Y2  1  0.75000  0.75000  0.72613  1
