CIF file written using JARVIS-Tools package.
data_Cr3Te4
_symmetry_space_group_name_H-M  'C2/m'
_cell_length_a       3.99423
_cell_length_b       6.94806
_cell_length_c       7.32436
_cell_angle_alpha    116.938
_cell_angle_beta     105.823
_cell_angle_gamma    90

_symmetry_Int_Tables_number  12
_chemical_formula_structural  Cr3Te4
_chemical_formula_sum  Cr3Te4
_cell_volume  172.52805487477704
_cell_formula_units_Z  1
loop_
  _symmetry_equiv_pos_site_id
 _symmetry_equiv_pos_as_xyz
 1  'x, y, z'
loop_
 _atom_site_type_symbol
 _atom_site_label
 _atom_site_symmetry_multiplicity
 _atom_site_fract_x
 _atom_site_fract_y
 _atom_site_fract_z
 _atom_site_fract_occupancy
 Cr  Cr1  1  0.00000  0.00000  0.00000  1
 Cr  Cr2  1  0.74066  0.72057  0.48132  1
 Cr  Cr3  1  0.25934  0.27943  0.51868  1
 Te  Te1  1  0.63267  0.97249  0.26534  1
 Te  Te2  1  0.36733  0.02751  0.73466  1
 Te  Te3  1  0.88030  0.54713  0.76059  1
 Te  Te4  1  0.11970  0.45287  0.23941  1
