CIF file written using JARVIS-Tools package.
data_Sm2BiO2
_symmetry_space_group_name_H-M  'I4/mmm'
_cell_length_a       3.96254
_cell_length_b       3.96254
_cell_length_c       7.41883
_cell_angle_alpha    105.489
_cell_angle_beta     105.489
_cell_angle_gamma    90

_symmetry_Int_Tables_number  139
_chemical_formula_structural  Sm2BiO2
_chemical_formula_sum  Sm2BiO2
_cell_volume  107.86073546528944
_cell_formula_units_Z  1
loop_
  _symmetry_equiv_pos_site_id
 _symmetry_equiv_pos_as_xyz
 1  'x, y, z'
loop_
 _atom_site_type_symbol
 _atom_site_label
 _atom_site_symmetry_multiplicity
 _atom_site_fract_x
 _atom_site_fract_y
 _atom_site_fract_z
 _atom_site_fract_occupancy
 Bi  Bi1  1  0.00000  0.00000  0.00000  1
 O  O1  1  0.25000  0.75000  0.50000  1
 O  O2  1  0.75000  0.25000  0.50000  1
 Sm  Sm1  1  0.66556  0.66556  0.33112  1
 Sm  Sm2  1  0.33444  0.33444  0.66888  1
