CIF file written using JARVIS-Tools package.
data_V2CdO6
_symmetry_space_group_name_H-M  'Pbcn'
_cell_length_a       4.92693
_cell_length_b       5.81441
_cell_length_c       14.2955
_cell_angle_alpha    90
_cell_angle_beta     90
_cell_angle_gamma    90

_symmetry_Int_Tables_number  60
_chemical_formula_structural  V2CdO6
_chemical_formula_sum  V8Cd4O24
_cell_volume  409.5247645171883
_cell_formula_units_Z  4
loop_
  _symmetry_equiv_pos_site_id
 _symmetry_equiv_pos_as_xyz
 1  'x, y, z'
loop_
 _atom_site_type_symbol
 _atom_site_label
 _atom_site_symmetry_multiplicity
 _atom_site_fract_x
 _atom_site_fract_y
 _atom_site_fract_z
 _atom_site_fract_occupancy
 Cd  Cd1  1  0.25000  0.71601  0.50000  1
 Cd  Cd2  1  0.75000  0.28399  0.50000  1
 Cd  Cd3  1  0.25000  0.21601  0.00000  1
 Cd  Cd4  1  0.75000  0.78399  0.00000  1
 O  O1  1  0.47512  0.92116  0.39381  1
 O  O2  1  0.52488  0.07884  0.60619  1
 O  O3  1  0.11709  0.38264  0.59029  1
 O  O4  1  0.09776  0.35067  0.24654  1
 O  O5  1  0.97512  0.07884  0.39381  1
 O  O6  1  0.40224  0.85067  0.74654  1
 O  O7  1  0.11709  0.88264  0.90971  1
 O  O8  1  0.59776  0.64933  0.24654  1
 O  O9  1  0.02488  0.92116  0.60619  1
 O  O10  1  0.47512  0.42116  0.10619  1
 O  O11  1  0.38291  0.38264  0.40971  1
 O  O12  1  0.38291  0.88264  0.09029  1
 O  O13  1  0.90224  0.64933  0.75346  1
 O  O14  1  0.02488  0.42116  0.89381  1
 O  O15  1  0.52488  0.57884  0.89381  1
 O  O16  1  0.59776  0.14933  0.25346  1
 O  O17  1  0.61709  0.11736  0.90971  1
 O  O18  1  0.88291  0.61736  0.40971  1
 O  O19  1  0.09776  0.85067  0.25346  1
 O  O20  1  0.88291  0.11736  0.09029  1
 O  O21  1  0.61709  0.61736  0.59029  1
 O  O22  1  0.40224  0.35067  0.75346  1
 O  O23  1  0.90224  0.14933  0.74654  1
 O  O24  1  0.97512  0.57884  0.10619  1
 V  V1  1  0.76836  0.81346  0.33286  1
 V  V2  1  0.73164  0.81346  0.66714  1
 V  V3  1  0.76836  0.31346  0.16714  1
 V  V4  1  0.26836  0.68654  0.16714  1
 V  V5  1  0.26836  0.18654  0.33286  1
 V  V6  1  0.73164  0.31346  0.83286  1
 V  V7  1  0.23164  0.68654  0.83286  1
 V  V8  1  0.23164  0.18654  0.66714  1
