CIF file written using JARVIS-Tools package.
data_Er2Cr2C3
_symmetry_space_group_name_H-M  'C2/m'
_cell_length_a       3.34458
_cell_length_b       5.45978
_cell_length_c       5.5048
_cell_angle_alpha    105.257
_cell_angle_beta     90
_cell_angle_gamma    107.836

_symmetry_Int_Tables_number  12
_chemical_formula_structural  Er2Cr2C3
_chemical_formula_sum  Er2Cr2C3
_cell_volume  91.96107196951634
_cell_formula_units_Z  1
loop_
  _symmetry_equiv_pos_site_id
 _symmetry_equiv_pos_as_xyz
 1  'x, y, z'
loop_
 _atom_site_type_symbol
 _atom_site_label
 _atom_site_symmetry_multiplicity
 _atom_site_fract_x
 _atom_site_fract_y
 _atom_site_fract_z
 _atom_site_fract_occupancy
 C  C1  1  -0.00000  -0.00000  0.50000  1
 C  C2  1  0.71613  0.43226  0.26668  1
 C  C3  1  0.28387  0.56774  0.73332  1
 Cr  Cr1  1  0.15597  0.31193  0.38689  1
 Cr  Cr2  1  0.84403  0.68807  0.61311  1
 Er  Er1  1  0.39334  0.78668  0.18361  1
 Er  Er2  1  0.60666  0.21332  0.81639  1
