CIF file written using JARVIS-Tools package.
data_ErCd3
_symmetry_space_group_name_H-M  'Cmcm'
_cell_length_a       4.83557
_cell_length_b       6.45374
_cell_length_c       6.45374
_cell_angle_alpha    113.563
_cell_angle_beta     90
_cell_angle_gamma    90

_symmetry_Int_Tables_number  63
_chemical_formula_structural  ErCd3
_chemical_formula_sum  Er2Cd6
_cell_volume  184.61239329021717
_cell_formula_units_Z  2
loop_
  _symmetry_equiv_pos_site_id
 _symmetry_equiv_pos_as_xyz
 1  'x, y, z'
loop_
 _atom_site_type_symbol
 _atom_site_label
 _atom_site_symmetry_multiplicity
 _atom_site_fract_x
 _atom_site_fract_y
 _atom_site_fract_z
 _atom_site_fract_occupancy
 Cd  Cd1  1  0.75000  0.87596  0.68689  1
 Cd  Cd2  1  0.25000  0.12404  0.31311  1
 Cd  Cd3  1  0.75000  0.82339  0.17661  1
 Cd  Cd4  1  0.25000  0.17661  0.82339  1
 Cd  Cd5  1  0.75000  0.31311  0.12404  1
 Cd  Cd6  1  0.25000  0.68689  0.87596  1
 Er  Er1  1  0.25000  0.63508  0.36492  1
 Er  Er2  1  0.75000  0.36492  0.63508  1
