CIF file written using JARVIS-Tools package.
data_Cu3PdAu4
_symmetry_space_group_name_H-M  'P4/mmm'
_cell_length_a       2.93265
_cell_length_b       2.93265
_cell_length_c       14.2689
_cell_angle_alpha    90
_cell_angle_beta     90
_cell_angle_gamma    90

_symmetry_Int_Tables_number  123
_chemical_formula_structural  Cu3PdAu4
_chemical_formula_sum  Cu3PdAu4
_cell_volume  122.71922028957303
_cell_formula_units_Z  1
loop_
  _symmetry_equiv_pos_site_id
 _symmetry_equiv_pos_as_xyz
 1  'x, y, z'
loop_
 _atom_site_type_symbol
 _atom_site_label
 _atom_site_symmetry_multiplicity
 _atom_site_fract_x
 _atom_site_fract_y
 _atom_site_fract_z
 _atom_site_fract_occupancy
 Au  Au1  1  0.00000  0.00000  0.86418  1
 Au  Au2  1  0.00000  0.00000  0.13582  1
 Au  Au3  1  0.00000  0.00000  0.37787  1
 Au  Au4  1  0.00000  0.00000  0.62213  1
 Cu  Cu1  1  0.50000  0.50000  0.25556  1
 Cu  Cu2  1  0.50000  0.50000  0.50000  1
 Cu  Cu3  1  0.50000  0.50000  0.74444  1
 Pd  Pd1  1  0.50000  0.50000  0.00000  1
