CIF file written using JARVIS-Tools package.
data_Al2Pb3F12
_symmetry_space_group_name_H-M  'P2_1/c'
_cell_length_a       9.51428
_cell_length_b       9.61666
_cell_length_c       10.0761
_cell_angle_alpha    90
_cell_angle_beta     90.5167
_cell_angle_gamma    90

_symmetry_Int_Tables_number  14
_chemical_formula_structural  Al2Pb3F12
_chemical_formula_sum  Al8Pb2F48
_cell_volume  921.8783893748405
_cell_formula_units_Z  4
loop_
  _symmetry_equiv_pos_site_id
 _symmetry_equiv_pos_as_xyz
 1  'x, y, z'
loop_
 _atom_site_type_symbol
 _atom_site_label
 _atom_site_symmetry_multiplicity
 _atom_site_fract_x
 _atom_site_fract_y
 _atom_site_fract_z
 _atom_site_fract_occupancy
 Al  Al1  1  0.68856  0.63938  0.41812  1
 Al  Al2  1  0.31144  0.36062  0.58188  1
 Al  Al3  1  0.18856  0.86062  0.91812  1
 Al  Al4  1  0.81144  0.13938  0.08188  1
 Al  Al5  1  0.31759  0.65051  0.37153  1
 Al  Al6  1  0.18241  0.15051  0.12847  1
 Al  Al7  1  0.68241  0.34949  0.62847  1
 Al  Al8  1  0.81759  0.84949  0.87153  1
 F  F1  1  0.12978  0.41770  0.56238  1
 F  F2  1  0.62978  0.08230  0.06238  1
 F  F3  1  0.87022  0.58230  0.43762  1
 F  F4  1  0.20739  0.73506  0.05159  1
 F  F5  1  0.29261  0.23506  0.44841  1
 F  F6  1  0.49649  0.63976  0.94692  1
 F  F7  1  0.70739  0.76494  0.55159  1
 F  F8  1  0.00351  0.13976  0.55308  1
 F  F9  1  0.28916  0.82540  0.30554  1
 F  F10  1  0.99649  0.86024  0.44692  1
 F  F11  1  0.50351  0.36024  0.05308  1
 F  F12  1  0.79261  0.26494  0.94841  1
 F  F13  1  0.37022  0.91770  0.93762  1
 F  F14  1  0.12217  0.08433  0.28445  1
 F  F15  1  0.23709  0.72676  0.80124  1
 F  F16  1  0.26291  0.22676  0.69876  1
 F  F17  1  0.93812  0.53413  0.15548  1
 F  F18  1  0.37783  0.58433  0.21555  1
 F  F19  1  0.87783  0.91567  0.71555  1
 F  F20  1  0.62217  0.41567  0.78445  1
 F  F21  1  0.36050  0.09650  0.16156  1
 F  F22  1  0.13950  0.59650  0.33844  1
 F  F23  1  0.63950  0.90350  0.83844  1
 F  F24  1  0.86050  0.40350  0.66156  1
 F  F25  1  0.27045  0.71525  0.53492  1
 F  F26  1  0.22955  0.21525  0.96508  1
 F  F27  1  0.72955  0.28475  0.46508  1
 F  F28  1  0.76291  0.27324  0.19876  1
 F  F29  1  0.56188  0.03413  0.34452  1
 F  F30  1  0.34536  0.48261  0.71171  1
 F  F31  1  0.77045  0.78475  0.03492  1
 F  F32  1  0.71084  0.17460  0.69446  1
 F  F33  1  0.06188  0.46587  0.84452  1
 F  F34  1  0.50316  0.70495  0.40723  1
 F  F35  1  0.99684  0.20495  0.09277  1
 F  F36  1  0.49684  0.29505  0.59277  1
 F  F37  1  0.00316  0.79505  0.90723  1
 F  F38  1  0.36585  0.48275  0.45064  1
 F  F39  1  0.78916  0.67460  0.80554  1
 F  F40  1  0.13415  0.98275  0.04936  1
 F  F41  1  0.86585  0.01725  0.95064  1
 F  F42  1  0.43812  0.96587  0.65548  1
 F  F43  1  0.65464  0.51739  0.28829  1
 F  F44  1  0.21084  0.32540  0.19446  1
 F  F45  1  0.73709  0.77324  0.30124  1
 F  F46  1  0.84536  0.01739  0.21171  1
 F  F47  1  0.15464  0.98261  0.78829  1
 F  F48  1  0.63415  0.51725  0.54936  1
 Pb  Pb1  1  0.98555  0.78161  0.21442  1
 Pb  Pb2  1  0.28934  0.49637  0.99623  1
 Pb  Pb3  1  0.01445  0.21839  0.78558  1
 Pb  Pb4  1  0.51587  0.87956  0.16864  1
 Pb  Pb5  1  0.51445  0.28161  0.28558  1
 Pb  Pb6  1  0.48413  0.12044  0.83136  1
 Pb  Pb7  1  0.01587  0.62044  0.66864  1
 Pb  Pb8  1  0.71066  0.50363  0.00377  1
 Pb  Pb9  1  0.21066  0.99637  0.50377  1
 Pb  Pb10  1  0.98413  0.37956  0.33136  1
 Pb  Pb11  1  0.78934  0.00363  0.49623  1
 Pb  Pb12  1  0.48555  0.71839  0.71442  1
