CIF file written using JARVIS-Tools package.
data_CaCeMg6
_symmetry_space_group_name_H-M  'P4/mmm'
_cell_length_a       6.72131
_cell_length_b       9.50919
_cell_length_c       4.72117
_cell_angle_alpha    90
_cell_angle_beta     90
_cell_angle_gamma    135.023

_symmetry_Int_Tables_number  123
_chemical_formula_structural  CaCeMg6
_chemical_formula_sum  CaCeMg6
_cell_volume  213.2832803736535
_cell_formula_units_Z  1
loop_
  _symmetry_equiv_pos_site_id
 _symmetry_equiv_pos_as_xyz
 1  'x, y, z'
loop_
 _atom_site_type_symbol
 _atom_site_label
 _atom_site_symmetry_multiplicity
 _atom_site_fract_x
 _atom_site_fract_y
 _atom_site_fract_z
 _atom_site_fract_occupancy
 Ca  Ca1  1  0.25002  0.37501  0.25000  1
 Ce  Ce1  1  0.24996  0.87498  0.25000  1
 Mg  Mg1  1  0.75003  0.37500  0.25000  1
 Mg  Mg2  1  0.75003  0.87503  0.25000  1
 Mg  Mg3  1  0.25000  0.12078  0.75000  1
 Mg  Mg4  1  0.25000  0.62922  0.75000  1
 Mg  Mg5  1  0.74158  0.12079  0.75000  1
 Mg  Mg6  1  0.75839  0.62919  0.75000  1
