CIF file written using JARVIS-Tools package.
data_SmO2
_symmetry_space_group_name_H-M  'I4/mmm'
_cell_length_a       3.85639
_cell_length_b       3.8571
_cell_length_c       5.81406
_cell_angle_alpha    90.0696
_cell_angle_beta     90
_cell_angle_gamma    90

_symmetry_Int_Tables_number  139
_chemical_formula_structural  SmO2
_chemical_formula_sum  Sm2O4
_cell_volume  86.48121315186285
_cell_formula_units_Z  2
loop_
  _symmetry_equiv_pos_site_id
 _symmetry_equiv_pos_as_xyz
 1  'x, y, z'
loop_
 _atom_site_type_symbol
 _atom_site_label
 _atom_site_symmetry_multiplicity
 _atom_site_fract_x
 _atom_site_fract_y
 _atom_site_fract_z
 _atom_site_fract_occupancy
 O  O1  1  0.75000  0.24981  0.50000  1
 O  O2  1  0.25000  0.75019  0.50000  1
 O  O3  1  0.25000  0.74980  0.00000  1
 O  O4  1  0.75000  0.25020  -0.00000  1
 Sm  Sm1  1  0.75000  0.74999  0.74999  1
 Sm  Sm2  1  0.25000  0.25001  0.25001  1
