CIF file written using JARVIS-Tools package.
data_BeVFe
_symmetry_space_group_name_H-M  'P3m1'
_cell_length_a       2.49722
_cell_length_b       2.49722
_cell_length_c       6.12214
_cell_angle_alpha    90
_cell_angle_beta     90
_cell_angle_gamma    120

_symmetry_Int_Tables_number  156
_chemical_formula_structural  BeVFe
_chemical_formula_sum  BeVFe
_cell_volume  33.0633406184225
_cell_formula_units_Z  1
loop_
  _symmetry_equiv_pos_site_id
 _symmetry_equiv_pos_as_xyz
 1  'x, y, z'
loop_
 _atom_site_type_symbol
 _atom_site_label
 _atom_site_symmetry_multiplicity
 _atom_site_fract_x
 _atom_site_fract_y
 _atom_site_fract_z
 _atom_site_fract_occupancy
 Be  Be1  1  0.00000  0.00000  0.98558  1
 Fe  Fe1  1  0.33333  0.66667  0.68358  1
 V  V1  1  0.66667  0.33333  0.33083  1
