CIF file written using JARVIS-Tools package.
data_InAgO2
_symmetry_space_group_name_H-M  'R-3m'
_cell_length_a       6.62755
_cell_length_b       6.62755
_cell_length_c       6.62755
_cell_angle_alpha    28.9851
_cell_angle_beta     28.9851
_cell_angle_gamma    28.9851

_symmetry_Int_Tables_number  166
_chemical_formula_structural  InAgO2
_chemical_formula_sum  InAgO2
_cell_volume  60.46126243732158
_cell_formula_units_Z  1
loop_
  _symmetry_equiv_pos_site_id
 _symmetry_equiv_pos_as_xyz
 1  'x, y, z'
loop_
 _atom_site_type_symbol
 _atom_site_label
 _atom_site_symmetry_multiplicity
 _atom_site_fract_x
 _atom_site_fract_y
 _atom_site_fract_z
 _atom_site_fract_occupancy
 Ag  Ag1  1  0.00000  0.00000  0.00000  1
 In  In1  1  0.50000  0.50000  0.50000  1
 O  O1  1  0.89036  0.89036  0.89036  1
 O  O2  1  0.10964  0.10964  0.10964  1
