CIF file written using JARVIS-Tools package.
data_NaPO
_symmetry_space_group_name_H-M  'Imma'
_cell_length_a       2.81279
_cell_length_b       5.79072
_cell_length_c       5.79072
_cell_angle_alpha    93.5439
_cell_angle_beta     75.9439
_cell_angle_gamma    75.9439

_symmetry_Int_Tables_number  74
_chemical_formula_structural  NaPO
_chemical_formula_sum  Na2P2O2
_cell_volume  88.0218445481091
_cell_formula_units_Z  2
loop_
  _symmetry_equiv_pos_site_id
 _symmetry_equiv_pos_as_xyz
 1  'x, y, z'
loop_
 _atom_site_type_symbol
 _atom_site_label
 _atom_site_symmetry_multiplicity
 _atom_site_fract_x
 _atom_site_fract_y
 _atom_site_fract_z
 _atom_site_fract_occupancy
 Na  Na1  1  0.50000  0.00000  0.50000  1
 Na  Na2  1  0.50000  0.50000  0.00000  1
 O  O1  1  0.19573  0.75000  0.75000  1
 O  O2  1  0.80427  0.25000  0.25000  1
 P  P1  1  0.50000  0.50000  0.50000  1
 P  P2  1  0.00000  0.00000  0.00000  1
