CIF file written using JARVIS-Tools package.
data_SrMg6Ni
_symmetry_space_group_name_H-M  'Amm2'
_cell_length_a       7.44659
_cell_length_b       5.95562
_cell_length_c       4.87224
_cell_angle_alpha    90
_cell_angle_beta     90
_cell_angle_gamma    113.571

_symmetry_Int_Tables_number  38
_chemical_formula_structural  SrMg6Ni
_chemical_formula_sum  SrMg6Ni
_cell_volume  198.05005586657185
_cell_formula_units_Z  1
loop_
  _symmetry_equiv_pos_site_id
 _symmetry_equiv_pos_as_xyz
 1  'x, y, z'
loop_
 _atom_site_type_symbol
 _atom_site_label
 _atom_site_symmetry_multiplicity
 _atom_site_fract_x
 _atom_site_fract_y
 _atom_site_fract_z
 _atom_site_fract_occupancy
 Mg  Mg1  1  0.61378  0.30231  0.25000  1
 Mg  Mg2  1  0.61378  0.81147  0.25000  1
 Mg  Mg3  1  0.34306  0.18422  0.75000  1
 Mg  Mg4  1  0.34306  0.65884  0.75000  1
 Mg  Mg5  1  0.92377  0.21189  0.75000  1
 Mg  Mg6  1  0.75944  0.62972  0.75000  1
 Ni  Ni1  1  0.30656  0.40328  0.25000  1
 Sr  Sr1  1  0.09655  0.79828  0.25000  1
