CIF file written using JARVIS-Tools package.
data_YCu2
_symmetry_space_group_name_H-M  'Imma'
_cell_length_a       4.27682
_cell_length_b       5.46607
_cell_length_c       5.46607
_cell_angle_alpha    77.8202
_cell_angle_beta     66.9699
_cell_angle_gamma    66.9699

_symmetry_Int_Tables_number  74
_chemical_formula_structural  YCu2
_chemical_formula_sum  Y2Cu4
_cell_volume  107.97200498211646
_cell_formula_units_Z  2
loop_
  _symmetry_equiv_pos_site_id
 _symmetry_equiv_pos_as_xyz
 1  'x, y, z'
loop_
 _atom_site_type_symbol
 _atom_site_label
 _atom_site_symmetry_multiplicity
 _atom_site_fract_x
 _atom_site_fract_y
 _atom_site_fract_z
 _atom_site_fract_occupancy
 Cu  Cu1  1  0.16505  0.28938  0.38051  1
 Cu  Cu2  1  0.83495  0.71062  0.61949  1
 Cu  Cu3  1  0.83495  0.11949  0.21062  1
 Cu  Cu4  1  0.16505  0.88051  0.78938  1
 Y  Y1  1  0.53919  0.71081  0.21081  1
 Y  Y2  1  0.46081  0.28919  0.78919  1
