CIF file written using JARVIS-Tools package.
data_CaV2O4
_symmetry_space_group_name_H-M  'Pnma'
_cell_length_a       2.97616
_cell_length_b       9.27067
_cell_length_c       10.7675
_cell_angle_alpha    90
_cell_angle_beta     90
_cell_angle_gamma    90

_symmetry_Int_Tables_number  62
_chemical_formula_structural  CaV2O4
_chemical_formula_sum  Ca4V8O6
_cell_volume  297.0874275339472
_cell_formula_units_Z  4
loop_
  _symmetry_equiv_pos_site_id
 _symmetry_equiv_pos_as_xyz
 1  'x, y, z'
loop_
 _atom_site_type_symbol
 _atom_site_label
 _atom_site_symmetry_multiplicity
 _atom_site_fract_x
 _atom_site_fract_y
 _atom_site_fract_z
 _atom_site_fract_occupancy
 Ca  Ca1  1  0.25000  0.24206  0.34515  1
 Ca  Ca2  1  0.25000  0.74206  0.15485  1
 Ca  Ca3  1  0.75000  0.25794  0.84515  1
 Ca  Ca4  1  0.75000  0.75794  0.65485  1
 O  O1  1  0.75000  0.70678  0.33550  1
 O  O2  1  0.75000  0.41696  0.42691  1
 O  O3  1  0.75000  0.20678  0.16450  1
 O  O4  1  0.25000  0.79322  0.83550  1
 O  O5  1  0.75000  0.61680  0.02357  1
 O  O6  1  0.25000  0.38320  0.97643  1
 O  O7  1  0.25000  0.29322  0.66450  1
 O  O8  1  0.25000  0.88320  0.52357  1
 O  O9  1  0.25000  0.47625  0.21661  1
 O  O10  1  0.75000  0.02375  0.71661  1
 O  O11  1  0.25000  0.97625  0.28339  1
 O  O12  1  0.25000  0.08304  0.92691  1
 O  O13  1  0.75000  0.11680  0.47643  1
 O  O14  1  0.75000  0.52375  0.78339  1
 O  O15  1  0.75000  0.91696  0.07309  1
 O  O16  1  0.25000  0.58304  0.57309  1
 V  V1  1  0.25000  0.08344  0.60533  1
 V  V2  1  0.25000  0.06360  0.11351  1
 V  V3  1  0.75000  0.43640  0.61351  1
 V  V4  1  0.25000  0.56360  0.38649  1
 V  V5  1  0.75000  0.91656  0.39467  1
 V  V6  1  0.75000  0.93640  0.88649  1
 V  V7  1  0.75000  0.41656  0.10533  1
 V  V8  1  0.25000  0.58344  0.89467  1
