CIF file written using JARVIS-Tools package.
data_SrH2Br2O
_symmetry_space_group_name_H-M  'Pnma'
_cell_length_a       11.3994
_cell_length_b       4.28327
_cell_length_c       9.20522
_cell_angle_alpha    90
_cell_angle_beta     90
_cell_angle_gamma    90

_symmetry_Int_Tables_number  62
_chemical_formula_structural  SrH2Br2O
_chemical_formula_sum  Sr4H8Br8O4
_cell_volume  449.4582495133961
_cell_formula_units_Z  4
loop_
  _symmetry_equiv_pos_site_id
 _symmetry_equiv_pos_as_xyz
 1  'x, y, z'
loop_
 _atom_site_type_symbol
 _atom_site_label
 _atom_site_symmetry_multiplicity
 _atom_site_fract_x
 _atom_site_fract_y
 _atom_site_fract_z
 _atom_site_fract_occupancy
 Br  Br1  1  0.11439  0.75000  0.34796  1
 Br  Br2  1  0.89920  0.25000  0.11637  1
 Br  Br3  1  0.39920  0.25000  0.38363  1
 Br  Br4  1  0.88561  0.25000  0.65204  1
 Br  Br5  1  0.10080  0.75000  0.88363  1
 Br  Br6  1  0.60080  0.75000  0.61637  1
 Br  Br7  1  0.38561  0.25000  0.84796  1
 Br  Br8  1  0.61439  0.75000  0.15204  1
 H  H1  1  0.88449  0.75000  0.30876  1
 H  H2  1  0.61551  0.25000  0.80876  1
 H  H3  1  0.62559  0.25000  0.97783  1
 H  H4  1  0.87441  0.75000  0.47783  1
 H  H5  1  0.37441  0.75000  0.02217  1
 H  H6  1  0.12559  0.25000  0.52217  1
 H  H7  1  0.38449  0.75000  0.19124  1
 H  H8  1  0.11551  0.25000  0.69124  1
 O  O1  1  0.17342  0.25000  0.61146  1
 O  O2  1  0.82658  0.75000  0.38854  1
 O  O3  1  0.67342  0.25000  0.88854  1
 O  O4  1  0.32658  0.75000  0.11146  1
 Sr  Sr1  1  0.81058  0.75000  0.88643  1
 Sr  Sr2  1  0.31058  0.75000  0.61357  1
 Sr  Sr3  1  0.18942  0.25000  0.11357  1
 Sr  Sr4  1  0.68942  0.25000  0.38643  1
