CIF file written using JARVIS-Tools package.
data_Mg6NbV
_symmetry_space_group_name_H-M  'Amm2'
_cell_length_a       6.25199
_cell_length_b       5.91611
_cell_length_c       4.96486
_cell_angle_alpha    90
_cell_angle_beta     90
_cell_angle_gamma    118.238

_symmetry_Int_Tables_number  38
_chemical_formula_structural  Mg6NbV
_chemical_formula_sum  Mg6NbV
_cell_volume  161.78244996088335
_cell_formula_units_Z  1
loop_
  _symmetry_equiv_pos_site_id
 _symmetry_equiv_pos_as_xyz
 1  'x, y, z'
loop_
 _atom_site_type_symbol
 _atom_site_label
 _atom_site_symmetry_multiplicity
 _atom_site_fract_x
 _atom_site_fract_y
 _atom_site_fract_z
 _atom_site_fract_occupancy
 Mg  Mg1  1  0.65402  0.32757  0.25000  1
 Mg  Mg2  1  0.65402  0.82645  0.25000  1
 Mg  Mg3  1  0.33027  0.16264  0.75000  1
 Mg  Mg4  1  0.33027  0.66763  0.75000  1
 Mg  Mg5  1  0.86334  0.18167  0.75000  1
 Mg  Mg6  1  0.85538  0.67769  0.75000  1
 Nb  Nb1  1  0.15323  0.82662  0.25000  1
 V  V1  1  0.15947  0.32973  0.25000  1
