CIF file written using JARVIS-Tools package.
data_NaLiMg6
_symmetry_space_group_name_H-M  'Amm2'
_cell_length_a       6.51105
_cell_length_b       6.51105
_cell_length_c       5.14878
_cell_angle_alpha    90
_cell_angle_beta     90
_cell_angle_gamma    120.301

_symmetry_Int_Tables_number  38
_chemical_formula_structural  NaLiMg6
_chemical_formula_sum  NaLiMg6
_cell_volume  188.45674030141555
_cell_formula_units_Z  1
loop_
  _symmetry_equiv_pos_site_id
 _symmetry_equiv_pos_as_xyz
 1  'x, y, z'
loop_
 _atom_site_type_symbol
 _atom_site_label
 _atom_site_symmetry_multiplicity
 _atom_site_fract_x
 _atom_site_fract_y
 _atom_site_fract_z
 _atom_site_fract_occupancy
 Li  Li1  1  0.16233  0.33767  0.25000  1
 Mg  Mg1  1  0.16700  0.82543  0.25000  1
 Mg  Mg2  1  0.67457  0.33300  0.25000  1
 Mg  Mg3  1  0.66795  0.83205  0.25000  1
 Mg  Mg4  1  0.32918  0.66379  0.75000  1
 Mg  Mg5  1  0.83621  0.17082  0.75000  1
 Mg  Mg6  1  0.83406  0.66594  0.75000  1
 Na  Na1  1  0.32871  0.17129  0.75000  1
