CIF file written using JARVIS-Tools package.
data_MgHg5
_symmetry_space_group_name_H-M  'Amm2'
_cell_length_a       3.75469
_cell_length_b       7.72113
_cell_length_c       5.29584
_cell_angle_alpha    90
_cell_angle_beta     90
_cell_angle_gamma    75.9279

_symmetry_Int_Tables_number  38
_chemical_formula_structural  MgHg5
_chemical_formula_sum  MgHg5
_cell_volume  148.92150395491984
_cell_formula_units_Z  1
loop_
  _symmetry_equiv_pos_site_id
 _symmetry_equiv_pos_as_xyz
 1  'x, y, z'
loop_
 _atom_site_type_symbol
 _atom_site_label
 _atom_site_symmetry_multiplicity
 _atom_site_fract_x
 _atom_site_fract_y
 _atom_site_fract_z
 _atom_site_fract_occupancy
 Hg  Hg1  1  0.32481  0.35039  0.00000  1
 Hg  Hg2  1  0.66068  0.67864  0.00000  1
 Hg  Hg3  1  -0.00507  0.01014  0.00000  1
 Hg  Hg4  1  0.44454  0.11092  0.50000  1
 Hg  Hg5  1  0.12533  0.74934  0.50000  1
 Mg  Mg1  1  0.78305  0.43391  0.50000  1
