CIF file written using JARVIS-Tools package.
data_Mg6VW
_symmetry_space_group_name_H-M  'Amm2'
_cell_length_a       6.2271
_cell_length_b       6.2271
_cell_length_c       4.72064
_cell_angle_alpha    90
_cell_angle_beta     90
_cell_angle_gamma    123.074

_symmetry_Int_Tables_number  38
_chemical_formula_structural  Mg6VW
_chemical_formula_sum  Mg6VW
_cell_volume  153.39139620709926
_cell_formula_units_Z  1
loop_
  _symmetry_equiv_pos_site_id
 _symmetry_equiv_pos_as_xyz
 1  'x, y, z'
loop_
 _atom_site_type_symbol
 _atom_site_label
 _atom_site_symmetry_multiplicity
 _atom_site_fract_x
 _atom_site_fract_y
 _atom_site_fract_z
 _atom_site_fract_occupancy
 Mg  Mg1  1  0.18273  0.83858  0.25000  1
 Mg  Mg2  1  0.66142  0.31727  0.25000  1
 Mg  Mg3  1  0.67143  0.82857  0.25000  1
 Mg  Mg4  1  0.31851  0.66584  0.75000  1
 Mg  Mg5  1  0.83416  0.18149  0.75000  1
 Mg  Mg6  1  0.82892  0.67108  0.75000  1
 V  V1  1  0.19617  0.30383  0.25000  1
 W  W1  1  0.30665  0.19335  0.75000  1
