CIF file written using JARVIS-Tools package.
data_Mg6SiB
_symmetry_space_group_name_H-M  'Amm2'
_cell_length_a       6.23179
_cell_length_b       6.23178
_cell_length_c       4.01143
_cell_angle_alpha    90
_cell_angle_beta     90
_cell_angle_gamma    102.984

_symmetry_Int_Tables_number  38
_chemical_formula_structural  Mg6SiB
_chemical_formula_sum  Mg6SiB
_cell_volume  151.80148546897442
_cell_formula_units_Z  1
loop_
  _symmetry_equiv_pos_site_id
 _symmetry_equiv_pos_as_xyz
 1  'x, y, z'
loop_
 _atom_site_type_symbol
 _atom_site_label
 _atom_site_symmetry_multiplicity
 _atom_site_fract_x
 _atom_site_fract_y
 _atom_site_fract_z
 _atom_site_fract_occupancy
 B  B1  1  0.48500  0.01500  0.75000  1
 Mg  Mg1  1  0.18677  0.94177  0.25000  1
 Mg  Mg2  1  0.55823  0.31323  0.25000  1
 Mg  Mg3  1  0.62961  0.87039  0.25000  1
 Mg  Mg4  1  0.33624  0.60047  0.75000  1
 Mg  Mg5  1  0.89953  0.16376  0.75000  1
 Mg  Mg6  1  0.85601  0.64399  0.75000  1
 Si  Si1  1  0.04861  0.45139  0.25000  1
