CIF file written using JARVIS-Tools package.
data_KCa12Si4S2O26F
_symmetry_space_group_name_H-M  'R-3m'
_cell_length_a       14.3303
_cell_length_b       14.3303
_cell_length_c       14.3303
_cell_angle_alpha    29.134
_cell_angle_beta     29.1341
_cell_angle_gamma    29.1341

_symmetry_Int_Tables_number  166
_chemical_formula_structural  KCa12Si4S2O26F
_chemical_formula_sum  KCa2Si4S2O26F
_cell_volume  617.0743053691722
_cell_formula_units_Z  1
loop_
  _symmetry_equiv_pos_site_id
 _symmetry_equiv_pos_as_xyz
 1  'x, y, z'
loop_
 _atom_site_type_symbol
 _atom_site_label
 _atom_site_symmetry_multiplicity
 _atom_site_fract_x
 _atom_site_fract_y
 _atom_site_fract_z
 _atom_site_fract_occupancy
 Ca  Ca1  1  0.55547  0.08307  0.55547  1
 Ca  Ca2  1  0.68810  0.22502  0.68810  1
 Ca  Ca3  1  0.55547  0.55547  0.08307  1
 Ca  Ca4  1  0.22502  0.68810  0.68810  1
 Ca  Ca5  1  0.77498  0.31190  0.31190  1
 Ca  Ca6  1  0.91693  0.44453  0.44453  1
 Ca  Ca7  1  0.08307  0.55547  0.55547  1
 Ca  Ca8  1  0.44453  0.44453  0.91693  1
 Ca  Ca9  1  0.31190  0.77498  0.31190  1
 Ca  Ca10  1  0.68810  0.68810  0.22502  1
 Ca  Ca11  1  0.31190  0.31190  0.77498  1
 Ca  Ca12  1  0.44453  0.91693  0.44453  1
 F  F1  1  0.50000  0.50000  0.50000  1
 K  K1  1  0.00000  0.00000  0.00000  1
 O  O1  1  0.31815  0.93943  0.31815  1
 O  O2  1  0.87690  0.87690  0.87690  1
 O  O3  1  0.80064  0.80064  0.46513  1
 O  O4  1  0.31815  0.31815  0.93943  1
 O  O5  1  0.06057  0.68185  0.68185  1
 O  O6  1  0.53487  0.19936  0.19936  1
 O  O7  1  0.19936  0.19936  0.53487  1
 O  O8  1  0.81823  0.19932  0.19932  1
 O  O9  1  0.93943  0.31815  0.31815  1
 O  O10  1  0.19936  0.53487  0.19936  1
 O  O11  1  0.68185  0.06057  0.68185  1
 O  O12  1  0.19932  0.81823  0.19932  1
 O  O13  1  0.46513  0.80064  0.80064  1
 O  O14  1  0.56825  0.56825  0.56825  1
 O  O15  1  0.19932  0.19932  0.81823  1
 O  O16  1  0.64002  0.64002  0.64002  1
 O  O17  1  0.35998  0.35998  0.35998  1
 O  O18  1  0.75519  0.75519  0.75519  1
 O  O19  1  0.80064  0.46513  0.80064  1
 O  O20  1  0.80068  0.80068  0.18177  1
 O  O21  1  0.18177  0.80068  0.80068  1
 O  O22  1  0.12310  0.12310  0.12310  1
 O  O23  1  0.80068  0.18177  0.80068  1
 O  O24  1  0.68185  0.68185  0.06057  1
 O  O25  1  0.24481  0.24481  0.24481  1
 O  O26  1  0.43175  0.43175  0.43175  1
 S  S1  1  0.32357  0.32357  0.32357  1
 S  S2  1  0.67643  0.67643  0.67643  1
 Si  Si1  1  0.08239  0.08239  0.08239  1
 Si  Si2  1  0.79595  0.79595  0.79595  1
 Si  Si3  1  0.20405  0.20405  0.20405  1
 Si  Si4  1  0.91761  0.91761  0.91761  1
