CIF file written using JARVIS-Tools package.
data_Rb2NbCl6
_symmetry_space_group_name_H-M  'Fm-3m'
_cell_length_a       7.06382
_cell_length_b       7.06381
_cell_length_c       7.06382
_cell_angle_alpha    90.0287
_cell_angle_beta     119.983
_cell_angle_gamma    119.983

_symmetry_Int_Tables_number  225
_chemical_formula_structural  Rb2NbCl6
_chemical_formula_sum  Rb2NbCl6
_cell_volume  249.29401022290804
_cell_formula_units_Z  1
loop_
  _symmetry_equiv_pos_site_id
 _symmetry_equiv_pos_as_xyz
 1  'x, y, z'
loop_
 _atom_site_type_symbol
 _atom_site_label
 _atom_site_symmetry_multiplicity
 _atom_site_fract_x
 _atom_site_fract_y
 _atom_site_fract_z
 _atom_site_fract_occupancy
 Cl  Cl1  1  -0.00000  0.24410  0.24410  1
 Cl  Cl2  1  0.00000  0.75590  0.75590  1
 Cl  Cl3  1  -0.00000  0.75601  0.24399  1
 Cl  Cl4  1  0.51201  0.75601  0.75601  1
 Cl  Cl5  1  0.00000  0.24399  0.75601  1
 Cl  Cl6  1  0.48799  0.24399  0.24399  1
 Nb  Nb1  1  0.00000  0.00000  0.00000  1
 Rb  Rb1  1  0.50000  0.75000  0.25000  1
 Rb  Rb2  1  0.50000  0.25000  0.75000  1
