CIF file written using JARVIS-Tools package.
data_NdPH5CO7
_symmetry_space_group_name_H-M  'P-1'
_cell_length_a       6.67599
_cell_length_b       7.05291
_cell_length_c       7.49143
_cell_angle_alpha    109.653
_cell_angle_beta     93.4506
_cell_angle_gamma    90.3531

_symmetry_Int_Tables_number  2
_chemical_formula_structural  NdPH5CO7
_chemical_formula_sum  Nd2P2H0C2O4
_cell_volume  331.4542953972899
_cell_formula_units_Z  2
loop_
  _symmetry_equiv_pos_site_id
 _symmetry_equiv_pos_as_xyz
 1  'x, y, z'
loop_
 _atom_site_type_symbol
 _atom_site_label
 _atom_site_symmetry_multiplicity
 _atom_site_fract_x
 _atom_site_fract_y
 _atom_site_fract_z
 _atom_site_fract_occupancy
 C  C1  1  0.93464  0.08955  0.49824  1
 C  C2  1  0.06536  0.91045  0.50176  1
 H  H1  1  0.39425  0.71867  0.79878  1
 H  H2  1  0.46744  0.24146  0.63721  1
 H  H3  1  0.43954  0.83653  0.56213  1
 H  H4  1  0.71461  0.66786  0.62277  1
 H  H5  1  0.53256  0.75854  0.36279  1
 H  H6  1  0.56046  0.16347  0.43787  1
 H  H7  1  0.28539  0.33214  0.37723  1
 H  H8  1  0.83511  0.48045  0.65892  1
 H  H9  1  0.60575  0.28133  0.20122  1
 H  H10  1  0.16489  0.51955  0.34108  1
 Nd  Nd1  1  0.86850  0.77248  0.05927  1
 Nd  Nd2  1  0.13150  0.22752  0.94073  1
 O  O1  1  0.19978  0.37600  0.28438  1
 O  O2  1  0.05322  0.75572  0.35374  1
 O  O3  1  0.79682  0.05976  0.95733  1
 O  O4  1  0.17519  0.93202  0.65069  1
 O  O5  1  0.20318  0.94024  0.04267  1
 O  O6  1  0.18229  0.57363  0.96566  1
 O  O7  1  0.94678  0.24428  0.64626  1
 O  O8  1  0.44086  0.22585  0.50170  1
 O  O9  1  0.48149  0.23859  0.88779  1
 O  O10  1  0.55914  0.77415  0.49830  1
 O  O11  1  0.51851  0.76141  0.11221  1
 O  O12  1  0.82481  0.06798  0.34931  1
 O  O13  1  0.81771  0.42637  0.03434  1
 O  O14  1  0.80022  0.62400  0.71562  1
 P  P1  1  0.66928  0.25168  0.01854  1
 P  P2  1  0.33072  0.74832  0.98146  1
