CIF file written using JARVIS-Tools package.
data_BaFe2Se4
_symmetry_space_group_name_H-M  'I4/m'
_cell_length_a       5.24912
_cell_length_b       6.18275
_cell_length_c       6.18275
_cell_angle_alpha    79.6187
_cell_angle_beta     64.8812
_cell_angle_gamma    64.8812

_symmetry_Int_Tables_number  87
_chemical_formula_structural  BaFe2Se4
_chemical_formula_sum  BaFe2Se4
_cell_volume  164.49732561734123
_cell_formula_units_Z  1
loop_
  _symmetry_equiv_pos_site_id
 _symmetry_equiv_pos_as_xyz
 1  'x, y, z'
loop_
 _atom_site_type_symbol
 _atom_site_label
 _atom_site_symmetry_multiplicity
 _atom_site_fract_x
 _atom_site_fract_y
 _atom_site_fract_z
 _atom_site_fract_occupancy
 Ba  Ba1  1  0.50000  0.00000  0.00000  1
 Fe  Fe1  1  0.75000  0.50000  0.50000  1
 Fe  Fe2  1  0.25000  0.50000  0.50000  1
 Se  Se1  1  0.29746  0.81900  0.58608  1
 Se  Se2  1  0.70254  0.18100  0.41392  1
 Se  Se3  1  0.88354  0.41392  0.81900  1
 Se  Se4  1  0.11646  0.58608  0.18100  1
