CIF file written using JARVIS-Tools package.
data_NaCrF6
_symmetry_space_group_name_H-M  'Pnma'
_cell_length_a       5.89207
_cell_length_b       7.60009
_cell_length_c       9.44237
_cell_angle_alpha    90
_cell_angle_beta     90
_cell_angle_gamma    90

_symmetry_Int_Tables_number  62
_chemical_formula_structural  NaCrF6
_chemical_formula_sum  Na4Cr4F24
_cell_volume  422.83217787743797
_cell_formula_units_Z  4
loop_
  _symmetry_equiv_pos_site_id
 _symmetry_equiv_pos_as_xyz
 1  'x, y, z'
loop_
 _atom_site_type_symbol
 _atom_site_label
 _atom_site_symmetry_multiplicity
 _atom_site_fract_x
 _atom_site_fract_y
 _atom_site_fract_z
 _atom_site_fract_occupancy
 Cr  Cr1  1  0.75000  0.11551  0.76984  1
 Cr  Cr2  1  0.75000  0.38449  0.26984  1
 Cr  Cr3  1  0.25000  0.61551  0.73016  1
 Cr  Cr4  1  0.25000  0.88449  0.23016  1
 F  F1  1  0.96194  0.44856  0.13936  1
 F  F2  1  0.53253  0.33047  0.39354  1
 F  F3  1  0.75000  0.60799  0.33077  1
 F  F4  1  0.25000  0.10799  0.16923  1
 F  F5  1  0.03253  0.83047  0.10646  1
 F  F6  1  0.96194  0.05144  0.63936  1
 F  F7  1  0.46747  0.83047  0.10646  1
 F  F8  1  0.75000  0.89201  0.83077  1
 F  F9  1  0.03806  0.55144  0.86064  1
 F  F10  1  0.75000  0.17095  0.20021  1
 F  F11  1  0.03806  0.94856  0.36064  1
 F  F12  1  0.25000  0.82905  0.79979  1
 F  F13  1  0.25000  0.39201  0.66923  1
 F  F14  1  0.96747  0.33047  0.39354  1
 F  F15  1  0.75000  0.32905  0.70021  1
 F  F16  1  0.46194  0.55144  0.86064  1
 F  F17  1  0.03253  0.66953  0.60646  1
 F  F18  1  0.46194  0.94856  0.36064  1
 F  F19  1  0.96747  0.16953  0.89354  1
 F  F20  1  0.25000  0.67095  0.29979  1
 F  F21  1  0.53806  0.05144  0.63936  1
 F  F22  1  0.53806  0.44856  0.13936  1
 F  F23  1  0.53253  0.16953  0.89354  1
 F  F24  1  0.46747  0.66953  0.60646  1
 Na  Na1  1  0.25000  0.33076  0.00269  1
 Na  Na2  1  0.75000  0.83076  0.49731  1
 Na  Na3  1  0.75000  0.66924  0.99731  1
 Na  Na4  1  0.25000  0.16924  0.50269  1
