CIF file written using JARVIS-Tools package.
data_La6Ti2S8O5
_symmetry_space_group_name_H-M  'P2_1/m'
_cell_length_a       4.02163
_cell_length_b       12.7144
_cell_length_c       16.4445
_cell_angle_alpha    96.9377
_cell_angle_beta     90
_cell_angle_gamma    90

_symmetry_Int_Tables_number  11
_chemical_formula_structural  La6Ti2S8O5
_chemical_formula_sum  La2Ti4S6O0
_cell_volume  834.6887692786022
_cell_formula_units_Z  2
loop_
  _symmetry_equiv_pos_site_id
 _symmetry_equiv_pos_as_xyz
 1  'x, y, z'
loop_
 _atom_site_type_symbol
 _atom_site_label
 _atom_site_symmetry_multiplicity
 _atom_site_fract_x
 _atom_site_fract_y
 _atom_site_fract_z
 _atom_site_fract_occupancy
 La  La1  1  0.75000  0.32088  0.64807  1
 La  La2  1  0.25000  0.61564  0.60248  1
 La  La3  1  0.75000  0.60445  0.12597  1
 La  La4  1  0.25000  0.39555  0.87403  1
 La  La5  1  0.25000  0.67912  0.35193  1
 La  La6  1  0.25000  0.73070  0.89718  1
 La  La7  1  0.75000  0.93174  0.11738  1
 La  La8  1  0.25000  0.06826  0.88262  1
 La  La9  1  0.75000  0.38436  0.39752  1
 La  La10  1  0.75000  0.99880  0.38040  1
 La  La11  1  0.75000  0.26930  0.10282  1
 La  La12  1  0.25000  0.00120  0.61960  1
 O  O1  1  0.75000  0.41483  0.78722  1
 O  O2  1  0.75000  0.43296  0.21920  1
 O  O3  1  0.75000  0.71239  0.80756  1
 O  O4  1  0.75000  0.54437  0.65965  1
 O  O5  1  0.25000  0.85024  0.78179  1
 O  O6  1  0.25000  0.58517  0.21278  1
 O  O7  1  0.75000  0.14976  0.21821  1
 O  O8  1  0.25000  0.28761  0.19244  1
 O  O9  1  0.25000  0.56704  0.78080  1
 O  O10  1  0.25000  0.45563  0.34035  1
 S  S1  1  0.75000  0.80462  0.62564  1
 S  S2  1  0.75000  0.03068  0.75428  1
 S  S3  1  0.75000  0.91296  0.93237  1
 S  S4  1  0.25000  0.96932  0.24572  1
 S  S5  1  0.75000  0.77517  0.26877  1
 S  S6  1  0.75000  0.56918  0.93854  1
 S  S7  1  0.25000  0.76401  0.07569  1
 S  S8  1  0.25000  0.43082  0.06146  1
 S  S9  1  0.25000  0.22483  0.73123  1
 S  S10  1  0.75000  0.60844  0.46560  1
 S  S11  1  0.25000  0.39156  0.53440  1
 S  S12  1  0.25000  0.19538  0.37436  1
 S  S13  1  0.75000  0.23599  0.92431  1
 S  S14  1  0.75000  0.11439  0.54507  1
 S  S15  1  0.25000  0.08704  0.06763  1
 S  S16  1  0.25000  0.88561  0.45493  1
 Ti  Ti1  1  0.75000  0.84667  0.76647  1
 Ti  Ti2  1  0.75000  0.55842  0.77344  1
 Ti  Ti3  1  0.25000  0.44158  0.22656  1
 Ti  Ti4  1  0.25000  0.15333  0.23353  1
