CIF file written using JARVIS-Tools package.
data_MgSn2
_symmetry_space_group_name_H-M  'P6_3/mmc'
_cell_length_a       3.38519
_cell_length_b       3.38519
_cell_length_c       15.7739
_cell_angle_alpha    90
_cell_angle_beta     90
_cell_angle_gamma    120

_symmetry_Int_Tables_number  194
_chemical_formula_structural  MgSn2
_chemical_formula_sum  Mg2Sn4
_cell_volume  156.54430268446532
_cell_formula_units_Z  2
loop_
  _symmetry_equiv_pos_site_id
 _symmetry_equiv_pos_as_xyz
 1  'x, y, z'
loop_
 _atom_site_type_symbol
 _atom_site_label
 _atom_site_symmetry_multiplicity
 _atom_site_fract_x
 _atom_site_fract_y
 _atom_site_fract_z
 _atom_site_fract_occupancy
 Mg  Mg1  1  0.33333  0.66667  0.75000  1
 Mg  Mg2  1  0.66667  0.33333  0.25000  1
 Sn  Sn1  1  0.66667  0.33333  0.90723  1
 Sn  Sn2  1  0.66667  0.33333  0.59277  1
 Sn  Sn3  1  0.33333  0.66667  0.40723  1
 Sn  Sn4  1  0.33333  0.66667  0.09277  1
