CIF file written using JARVIS-Tools package.
data_WO3
_symmetry_space_group_name_H-M  'P4/nmm'
_cell_length_a       5.37556
_cell_length_b       5.37556
_cell_length_c       3.95275
_cell_angle_alpha    90
_cell_angle_beta     90
_cell_angle_gamma    90

_symmetry_Int_Tables_number  129
_chemical_formula_structural  WO3
_chemical_formula_sum  W2O6
_cell_volume  114.22109529545727
_cell_formula_units_Z  2
loop_
  _symmetry_equiv_pos_site_id
 _symmetry_equiv_pos_as_xyz
 1  'x, y, z'
loop_
 _atom_site_type_symbol
 _atom_site_label
 _atom_site_symmetry_multiplicity
 _atom_site_fract_x
 _atom_site_fract_y
 _atom_site_fract_z
 _atom_site_fract_occupancy
 O  O1  1  0.50000  0.00000  0.48844  1
 O  O2  1  0.00000  0.50000  0.51156  1
 O  O3  1  0.75000  0.75000  0.00000  1
 O  O4  1  0.25000  0.75000  0.00000  1
 O  O5  1  0.25000  0.25000  0.00000  1
 O  O6  1  0.75000  0.25000  0.00000  1
 W  W1  1  0.50000  0.00000  0.93834  1
 W  W2  1  0.00000  0.50000  0.06166  1
