CIF file written using JARVIS-Tools package.
data_K4GeH4N2O3
_symmetry_space_group_name_H-M  'P2_1/c'
_cell_length_a       10.9221
_cell_length_b       6.4008
_cell_length_c       12.1621
_cell_angle_alpha    90
_cell_angle_beta     105.802
_cell_angle_gamma    90

_symmetry_Int_Tables_number  14
_chemical_formula_structural  K4GeH4N2O3
_chemical_formula_sum  K6Ge4H6N8O2
_cell_volume  818.1212038163277
_cell_formula_units_Z  4
loop_
  _symmetry_equiv_pos_site_id
 _symmetry_equiv_pos_as_xyz
 1  'x, y, z'
loop_
 _atom_site_type_symbol
 _atom_site_label
 _atom_site_symmetry_multiplicity
 _atom_site_fract_x
 _atom_site_fract_y
 _atom_site_fract_z
 _atom_site_fract_occupancy
 Ge  Ge1  1  0.69930  0.80857  0.89893  1
 Ge  Ge2  1  0.69930  0.69143  0.39893  1
 Ge  Ge3  1  0.30070  0.19143  0.10107  1
 Ge  Ge4  1  0.30070  0.30857  0.60107  1
 H  H1  1  0.01478  0.81294  0.31953  1
 H  H2  1  0.93556  0.08022  0.19720  1
 H  H3  1  0.06444  0.58022  0.30280  1
 H  H4  1  0.06444  0.91978  0.80280  1
 H  H5  1  0.93556  0.41978  0.69720  1
 H  H6  1  0.98522  0.18706  0.68047  1
 H  H7  1  0.98522  0.31294  0.18047  1
 H  H8  1  0.89090  0.55236  0.54054  1
 H  H9  1  0.89090  0.94764  0.04054  1
 H  H10  1  0.10910  0.44764  0.45946  1
 H  H11  1  0.06685  0.18124  0.06075  1
 H  H12  1  0.93315  0.68124  0.43925  1
 H  H13  1  0.93315  0.81876  0.93925  1
 H  H14  1  0.06685  0.31876  0.56075  1
 H  H15  1  0.10910  0.05236  0.95946  1
 H  H16  1  0.01478  0.68706  0.81953  1
 K  K1  1  0.63770  0.38702  0.61362  1
 K  K2  1  0.36230  0.88702  0.88638  1
 K  K3  1  0.19896  0.11216  0.32644  1
 K  K4  1  0.80104  0.61216  0.17356  1
 K  K5  1  0.19896  0.38784  0.82644  1
 K  K6  1  0.85516  0.18161  0.40105  1
 K  K7  1  0.14484  0.68161  0.09895  1
 K  K8  1  0.51433  0.12181  0.35282  1
 K  K9  1  0.85516  0.31839  0.90105  1
 K  K10  1  0.14484  0.81839  0.59895  1
 K  K11  1  0.48567  0.62181  0.14718  1
 K  K12  1  0.48567  0.87819  0.64718  1
 K  K13  1  0.51433  0.37819  0.85282  1
 K  K14  1  0.63770  0.11298  0.11362  1
 K  K15  1  0.36230  0.61298  0.38638  1
 K  K16  1  0.80104  0.88784  0.67356  1
 N  N1  1  0.12535  0.18937  0.00684  1
 N  N2  1  0.12535  0.31063  0.50684  1
 N  N3  1  0.87465  0.81063  0.99316  1
 N  N4  1  0.87465  0.68937  0.49316  1
 N  N5  1  0.90343  0.27708  0.66086  1
 N  N6  1  0.09657  0.77708  0.83914  1
 N  N7  1  0.90343  0.22292  0.16086  1
 N  N8  1  0.09657  0.72292  0.33914  1
 O  O1  1  0.34025  0.94234  0.16627  1
 O  O2  1  0.34025  0.55766  0.66627  1
 O  O3  1  0.39476  0.26362  0.00836  1
 O  O4  1  0.60524  0.76362  0.49164  1
 O  O5  1  0.60524  0.73638  0.99164  1
 O  O6  1  0.39476  0.23638  0.50836  1
 O  O7  1  0.30175  0.38299  0.20668  1
 O  O8  1  0.69825  0.88299  0.29332  1
 O  O9  1  0.69825  0.61701  0.79332  1
 O  O10  1  0.30175  0.11701  0.70668  1
 O  O11  1  0.65975  0.44234  0.33373  1
 O  O12  1  0.65975  0.05766  0.83373  1
