CIF file written using JARVIS-Tools package.
data_Tb2Ni2Sn
_symmetry_space_group_name_H-M  'Immm'
_cell_length_a       4.25004
_cell_length_b       5.44589
_cell_length_c       5.44589
_cell_angle_alpha    63.1835
_cell_angle_beta     67.0327
_cell_angle_gamma    67.0327

_symmetry_Int_Tables_number  71
_chemical_formula_structural  Tb2Ni2Sn
_chemical_formula_sum  Tb2Ni2Sn
_cell_volume  99.99350580291957
_cell_formula_units_Z  1
loop_
  _symmetry_equiv_pos_site_id
 _symmetry_equiv_pos_as_xyz
 1  'x, y, z'
loop_
 _atom_site_type_symbol
 _atom_site_label
 _atom_site_symmetry_multiplicity
 _atom_site_fract_x
 _atom_site_fract_y
 _atom_site_fract_z
 _atom_site_fract_occupancy
 Ni  Ni1  1  0.50000  0.29172  0.70828  1
 Ni  Ni2  1  0.50000  0.70828  0.29172  1
 Sn  Sn1  1  0.00000  0.00000  0.00000  1
 Tb  Tb1  1  0.79654  0.70346  0.70346  1
 Tb  Tb2  1  0.20346  0.29654  0.29654  1
