CIF file written using JARVIS-Tools package.
data_K2AgBi
_symmetry_space_group_name_H-M  'Cmcm'
_cell_length_a       6.38323
_cell_length_b       6.74849
_cell_length_c       6.74849
_cell_angle_alpha    103.319
_cell_angle_beta     90
_cell_angle_gamma    90

_symmetry_Int_Tables_number  63
_chemical_formula_structural  K2AgBi
_chemical_formula_sum  K4Ag2Bi2
_cell_volume  282.8861535806296
_cell_formula_units_Z  2
loop_
  _symmetry_equiv_pos_site_id
 _symmetry_equiv_pos_as_xyz
 1  'x, y, z'
loop_
 _atom_site_type_symbol
 _atom_site_label
 _atom_site_symmetry_multiplicity
 _atom_site_fract_x
 _atom_site_fract_y
 _atom_site_fract_z
 _atom_site_fract_occupancy
 Ag  Ag1  1  0.00000  0.50005  0.49995  1
 Ag  Ag2  1  0.50000  0.49995  0.50005  1
 Bi  Bi1  1  0.25000  0.22321  0.22321  1
 Bi  Bi2  1  0.75000  0.77679  0.77679  1
 K  K1  1  0.24994  0.67070  0.01917  1
 K  K2  1  0.74994  0.32930  0.98083  1
 K  K3  1  0.25006  0.01917  0.67070  1
 K  K4  1  0.75006  0.98083  0.32930  1
