CIF file written using JARVIS-Tools package.
data_SnP3
_symmetry_space_group_name_H-M  'R-3m'
_cell_length_a       5.62899
_cell_length_b       5.62898
_cell_length_c       5.62899
_cell_angle_alpha    83.2266
_cell_angle_beta     83.2266
_cell_angle_gamma    83.2265

_symmetry_Int_Tables_number  166
_chemical_formula_structural  SnP3
_chemical_formula_sum  Sn2P6
_cell_volume  174.89476189231186
_cell_formula_units_Z  2
loop_
  _symmetry_equiv_pos_site_id
 _symmetry_equiv_pos_as_xyz
 1  'x, y, z'
loop_
 _atom_site_type_symbol
 _atom_site_label
 _atom_site_symmetry_multiplicity
 _atom_site_fract_x
 _atom_site_fract_y
 _atom_site_fract_z
 _atom_site_fract_occupancy
 P  P1  1  0.20202  0.20202  0.74317  1
 P  P2  1  0.20202  0.74317  0.20202  1
 P  P3  1  0.79798  0.25683  0.79798  1
 P  P4  1  0.79798  0.79798  0.25683  1
 P  P5  1  0.25683  0.79798  0.79798  1
 P  P6  1  0.74317  0.20202  0.20202  1
 Sn  Sn1  1  0.74420  0.74420  0.74420  1
 Sn  Sn2  1  0.25580  0.25580  0.25580  1
