CIF file written using JARVIS-Tools package.
data_Er3Pb
_symmetry_space_group_name_H-M  'P6_3/mmc'
_cell_length_a       6.74835
_cell_length_b       6.74834
_cell_length_c       5.60377
_cell_angle_alpha    90
_cell_angle_beta     90
_cell_angle_gamma    120

_symmetry_Int_Tables_number  194
_chemical_formula_structural  Er3Pb
_chemical_formula_sum  Er6Pb2
_cell_volume  221.00665298519576
_cell_formula_units_Z  2
loop_
  _symmetry_equiv_pos_site_id
 _symmetry_equiv_pos_as_xyz
 1  'x, y, z'
loop_
 _atom_site_type_symbol
 _atom_site_label
 _atom_site_symmetry_multiplicity
 _atom_site_fract_x
 _atom_site_fract_y
 _atom_site_fract_z
 _atom_site_fract_occupancy
 Er  Er1  1  0.83192  0.16808  0.75000  1
 Er  Er2  1  0.33616  0.16808  0.75000  1
 Er  Er3  1  0.83192  0.66384  0.75000  1
 Er  Er4  1  0.16808  0.83192  0.25000  1
 Er  Er5  1  0.66384  0.83192  0.25000  1
 Er  Er6  1  0.16808  0.33616  0.25000  1
 Pb  Pb1  1  0.66667  0.33333  0.25000  1
 Pb  Pb2  1  0.33333  0.66667  0.75000  1
