CIF file written using JARVIS-Tools package.
data_Fe4Bi2O9
_symmetry_space_group_name_H-M  'Pbam'
_cell_length_a       5.83106
_cell_length_b       7.84007
_cell_length_c       8.34961
_cell_angle_alpha    90
_cell_angle_beta     90
_cell_angle_gamma    90

_symmetry_Int_Tables_number  55
_chemical_formula_structural  Fe4Bi2O9
_chemical_formula_sum  Fe8Bi4O8
_cell_volume  381.709731154294
_cell_formula_units_Z  2
loop_
  _symmetry_equiv_pos_site_id
 _symmetry_equiv_pos_as_xyz
 1  'x, y, z'
loop_
 _atom_site_type_symbol
 _atom_site_label
 _atom_site_symmetry_multiplicity
 _atom_site_fract_x
 _atom_site_fract_y
 _atom_site_fract_z
 _atom_site_fract_occupancy
 Bi  Bi1  1  0.00000  0.66181  0.33738  1
 Bi  Bi2  1  0.00000  0.33819  0.66262  1
 Bi  Bi3  1  0.00000  0.83819  0.83738  1
 Bi  Bi4  1  0.00000  0.16181  0.16262  1
 Fe  Fe1  1  0.50000  0.15297  0.83263  1
 Fe  Fe2  1  0.50000  0.84703  0.16737  1
 Fe  Fe3  1  0.74236  0.50000  0.00000  1
 Fe  Fe4  1  0.50000  0.34703  0.33263  1
 Fe  Fe5  1  0.25764  0.00000  0.50000  1
 Fe  Fe6  1  0.74236  0.00000  0.50000  1
 Fe  Fe7  1  0.25764  0.50000  0.00000  1
 Fe  Fe8  1  0.50000  0.65297  0.66737  1
 O  O1  1  0.75805  0.87186  0.30293  1
 O  O2  1  0.00000  0.14423  0.42802  1
 O  O3  1  0.00000  0.85577  0.57198  1
 O  O4  1  0.50000  0.00000  0.00000  1
 O  O5  1  0.00000  0.35577  0.92802  1
 O  O6  1  0.24195  0.37186  0.19707  1
 O  O7  1  0.24195  0.62814  0.80293  1
 O  O8  1  0.00000  0.64423  0.07198  1
 O  O9  1  0.50000  0.62845  0.08648  1
 O  O10  1  0.24195  0.12814  0.69707  1
 O  O11  1  0.24195  0.87186  0.30293  1
 O  O12  1  0.50000  0.12845  0.41352  1
 O  O13  1  0.50000  0.87155  0.58648  1
 O  O14  1  0.75805  0.12814  0.69707  1
 O  O15  1  0.50000  0.37155  0.91352  1
 O  O16  1  0.75805  0.37186  0.19707  1
 O  O17  1  0.75805  0.62814  0.80293  1
 O  O18  1  0.50000  0.50000  0.50000  1
