CIF file written using JARVIS-Tools package.
data_Mg6BiW
_symmetry_space_group_name_H-M  'Amm2'
_cell_length_a       6.23897
_cell_length_b       6.2695
_cell_length_c       5.04118
_cell_angle_alpha    90
_cell_angle_beta     90
_cell_angle_gamma    120.162

_symmetry_Int_Tables_number  38
_chemical_formula_structural  Mg6BiW
_chemical_formula_sum  Mg6BiW
_cell_volume  170.48963136054667
_cell_formula_units_Z  1
loop_
  _symmetry_equiv_pos_site_id
 _symmetry_equiv_pos_as_xyz
 1  'x, y, z'
loop_
 _atom_site_type_symbol
 _atom_site_label
 _atom_site_symmetry_multiplicity
 _atom_site_fract_x
 _atom_site_fract_y
 _atom_site_fract_z
 _atom_site_fract_occupancy
 Bi  Bi1  1  0.15828  0.82914  0.25000  1
 Mg  Mg1  1  0.66838  0.32896  0.25000  1
 Mg  Mg2  1  0.66838  0.83942  0.25000  1
 Mg  Mg3  1  0.32779  0.18331  0.75000  1
 Mg  Mg4  1  0.32779  0.64448  0.75000  1
 Mg  Mg5  1  0.85553  0.17777  0.75000  1
 Mg  Mg6  1  0.81229  0.65615  0.75000  1
 W  W1  1  0.18155  0.34077  0.25000  1
