CIF file written using JARVIS-Tools package.
data_CaNi5H
_symmetry_space_group_name_H-M  'Cm'
_cell_length_a       3.97423
_cell_length_b       4.95916
_cell_length_c       4.9591
_cell_angle_alpha    61.436
_cell_angle_beta     89.024
_cell_angle_gamma    89.0239

_symmetry_Int_Tables_number  8
_chemical_formula_structural  CaNi5H
_chemical_formula_sum  CaNi5H
_cell_volume  85.82485780770769
_cell_formula_units_Z  1
loop_
  _symmetry_equiv_pos_site_id
 _symmetry_equiv_pos_as_xyz
 1  'x, y, z'
loop_
 _atom_site_type_symbol
 _atom_site_label
 _atom_site_symmetry_multiplicity
 _atom_site_fract_x
 _atom_site_fract_y
 _atom_site_fract_z
 _atom_site_fract_occupancy
 Ca  Ca1  1  0.97844  0.99608  0.99611  1
 H  H1  1  0.30904  0.20217  0.20220  1
 Ni  Ni1  1  0.01129  0.34031  0.34034  1
 Ni  Ni2  1  0.00905  0.66109  0.66112  1
 Ni  Ni3  1  0.51294  0.50050  0.50053  1
 Ni  Ni4  1  0.51657  0.99125  0.51252  1
 Ni  Ni5  1  0.51657  0.51249  0.99127  1
