CIF file written using JARVIS-Tools package.
data_Li3H6Ir
_symmetry_space_group_name_H-M  'P1'
_cell_length_a       8.49211
_cell_length_b       4.75211
_cell_length_c       8.47212
_cell_angle_alpha    90
_cell_angle_beta     90
_cell_angle_gamma    90

_symmetry_Int_Tables_number  1
_chemical_formula_structural  Li3H6Ir
_chemical_formula_sum  Li2H24Ir4
_cell_volume  341.89639855666593
_cell_formula_units_Z  4
loop_
  _symmetry_equiv_pos_site_id
 _symmetry_equiv_pos_as_xyz
 1  'x, y, z'
loop_
 _atom_site_type_symbol
 _atom_site_label
 _atom_site_symmetry_multiplicity
 _atom_site_fract_x
 _atom_site_fract_y
 _atom_site_fract_z
 _atom_site_fract_occupancy
 H  H1  1  0.16576  0.75000  0.23368  1
 H  H2  1  0.83424  0.25000  0.76632  1
 H  H3  1  0.60471  0.00436  0.67921  1
 H  H4  1  0.72567  0.25000  0.60311  1
 H  H5  1  0.66576  0.75000  0.26632  1
 H  H6  1  0.89529  0.50436  0.17921  1
 H  H7  1  0.33424  0.25000  0.73368  1
 H  H8  1  0.22567  0.25000  0.89689  1
 H  H9  1  0.88748  0.75000  0.94053  1
 H  H10  1  0.11252  0.25000  0.05947  1
 H  H11  1  0.61252  0.25000  0.44053  1
 H  H12  1  0.10471  0.49564  0.82079  1
 H  H13  1  0.38748  0.75000  0.55947  1
 H  H14  1  0.39529  0.99564  0.32079  1
 H  H15  1  0.10471  0.00436  0.82079  1
 H  H16  1  0.60471  0.49564  0.67921  1
 H  H17  1  0.27433  0.75000  0.39689  1
 H  H18  1  0.84590  0.00137  0.52877  1
 H  H19  1  0.65410  -0.00137  0.02877  1
 H  H20  1  0.15410  0.50137  0.47123  1
 H  H21  1  0.65410  0.50137  0.02877  1
 H  H22  1  0.15410  -0.00137  0.47123  1
 H  H23  1  0.89529  0.99564  0.17921  1
 H  H24  1  0.34590  0.49863  0.97123  1
 Ir  Ir1  1  0.34590  0.00137  0.97123  1
 Ir  Ir2  1  0.84590  0.49863  0.52877  1
 Ir  Ir3  1  0.77433  0.75000  0.10311  1
 Ir  Ir4  1  0.39529  0.50436  0.32079  1
 Li  Li1  1  0.39708  0.25000  0.52146  1
 Li  Li2  1  0.04071  0.25000  0.63073  1
 Li  Li3  1  0.45929  0.75000  0.13073  1
 Li  Li4  1  0.95929  0.75000  0.36927  1
 Li  Li5  1  0.89708  0.25000  0.97854  1
 Li  Li6  1  0.72944  0.25000  0.25883  1
 Li  Li7  1  0.10292  0.75000  0.02146  1
 Li  Li8  1  0.60292  0.75000  0.47854  1
 Li  Li9  1  0.22944  0.25000  0.24117  1
 Li  Li10  1  0.27056  0.75000  0.74117  1
 Li  Li11  1  0.77056  0.75000  0.75883  1
 Li  Li12  1  0.54071  0.25000  0.86927  1
