CIF file written using JARVIS-Tools package.
data_SrLiAl3N4
_symmetry_space_group_name_H-M  'P-1'
_cell_length_a       5.87207
_cell_length_b       7.51317
_cell_length_c       9.9746
_cell_angle_alpha    83.6368
_cell_angle_beta     76.8441
_cell_angle_gamma    79.5895

_symmetry_Int_Tables_number  2
_chemical_formula_structural  SrLiAl3N4
_chemical_formula_sum  Sr4Li4Al2N6
_cell_volume  420.33682800710295
_cell_formula_units_Z  4
loop_
  _symmetry_equiv_pos_site_id
 _symmetry_equiv_pos_as_xyz
 1  'x, y, z'
loop_
 _atom_site_type_symbol
 _atom_site_label
 _atom_site_symmetry_multiplicity
 _atom_site_fract_x
 _atom_site_fract_y
 _atom_site_fract_z
 _atom_site_fract_occupancy
 Al  Al1  1  0.55238  0.95430  0.12351  1
 Al  Al2  1  0.16879  0.70762  0.14738  1
 Al  Al3  1  0.44762  0.04570  0.87649  1
 Al  Al4  1  0.82541  0.05975  0.60199  1
 Al  Al5  1  0.17459  0.94025  0.39801  1
 Al  Al6  1  0.83121  0.29238  0.85262  1
 Al  Al7  1  0.46886  0.56129  0.37527  1
 Al  Al8  1  0.81977  0.55684  0.10011  1
 Al  Al9  1  0.53114  0.43871  0.62473  1
 Al  Al10  1  0.18023  0.44316  0.89989  1
 Al  Al11  1  0.56221  0.20247  0.36721  1
 Al  Al12  1  0.43779  0.79753  0.63279  1
 Li  Li1  1  0.20810  0.18125  0.64469  1
 Li  Li2  1  0.79190  0.81875  0.35531  1
 Li  Li3  1  0.46664  0.32512  0.11286  1
 Li  Li4  1  0.53336  0.67488  0.88714  1
 N  N1  1  0.15221  0.93236  0.59245  1
 N  N2  1  0.34993  0.86681  0.02802  1
 N  N3  1  0.62740  0.64511  0.49527  1
 N  N4  1  0.65007  0.13319  0.97198  1
 N  N5  1  0.34258  0.59144  0.76162  1
 N  N6  1  0.37260  0.35489  0.50473  1
 N  N7  1  0.38324  0.08363  0.27931  1
 N  N8  1  0.61676  0.91637  0.72069  1
 N  N9  1  0.16908  0.20494  0.85562  1
 N  N10  1  0.65742  0.40856  0.23838  1
 N  N11  1  0.83811  0.52451  0.91077  1
 N  N12  1  0.16189  0.47549  0.08923  1
 N  N13  1  0.80302  0.29127  0.66705  1
 N  N14  1  0.19698  0.70873  0.33295  1
 N  N15  1  0.84779  0.06764  0.40755  1
 N  N16  1  0.83092  0.79506  0.14438  1
 Sr  Sr1  1  0.02320  0.38414  0.37156  1
 Sr  Sr2  1  0.97680  0.61586  0.62844  1
 Sr  Sr3  1  0.00428  0.13385  0.12740  1
 Sr  Sr4  1  0.99572  0.86615  0.87260  1
