CIF file written using JARVIS-Tools package.
data_CeSnIr
_symmetry_space_group_name_H-M  'P-62m'
_cell_length_a       7.5057
_cell_length_b       7.50569
_cell_length_c       4.06078
_cell_angle_alpha    90
_cell_angle_beta     90
_cell_angle_gamma    120

_symmetry_Int_Tables_number  189
_chemical_formula_structural  CeSnIr
_chemical_formula_sum  Ce3Sn3Ir3
_cell_volume  198.11700796362106
_cell_formula_units_Z  3
loop_
  _symmetry_equiv_pos_site_id
 _symmetry_equiv_pos_as_xyz
 1  'x, y, z'
loop_
 _atom_site_type_symbol
 _atom_site_label
 _atom_site_symmetry_multiplicity
 _atom_site_fract_x
 _atom_site_fract_y
 _atom_site_fract_z
 _atom_site_fract_occupancy
 Ce  Ce1  1  0.41130  0.41130  0.00000  1
 Ce  Ce2  1  0.58870  0.00000  0.00000  1
 Ce  Ce3  1  0.00000  0.58870  0.00000  1
 Ir  Ir1  1  0.00000  0.00000  0.00000  1
 Ir  Ir2  1  0.66667  0.33333  0.50000  1
 Ir  Ir3  1  0.33333  0.66667  0.50000  1
 Sn  Sn1  1  0.00000  0.25447  0.50000  1
 Sn  Sn2  1  0.74553  0.74553  0.50000  1
 Sn  Sn3  1  0.25447  0.00000  0.50000  1
