CIF file written using JARVIS-Tools package.
data_ScB2Ir3
_symmetry_space_group_name_H-M  'P6/mmm'
_cell_length_a       3.0778
_cell_length_b       5.44435
_cell_length_c       5.44436
_cell_angle_alpha    60.0001
_cell_angle_beta     89.9999
_cell_angle_gamma    89.9997

_symmetry_Int_Tables_number  191
_chemical_formula_structural  ScB2Ir3
_chemical_formula_sum  ScB2Ir3
_cell_volume  79.00686963481849
_cell_formula_units_Z  1
loop_
  _symmetry_equiv_pos_site_id
 _symmetry_equiv_pos_as_xyz
 1  'x, y, z'
loop_
 _atom_site_type_symbol
 _atom_site_label
 _atom_site_symmetry_multiplicity
 _atom_site_fract_x
 _atom_site_fract_y
 _atom_site_fract_z
 _atom_site_fract_occupancy
 B  B1  1  0.50000  0.16666  0.66668  1
 B  B2  1  0.50000  0.83334  0.33332  1
 Ir  Ir1  1  0.00000  0.00000  0.00000  1
 Ir  Ir2  1  0.00000  0.50000  0.50000  1
 Ir  Ir3  1  -0.00000  -0.00000  0.50000  1
 Sc  Sc1  1  0.50000  0.50000  0.00000  1
