CIF file written using JARVIS-Tools package.
data_Mg6CrSb
_symmetry_space_group_name_H-M  'Amm2'
_cell_length_a       6.26549
_cell_length_b       6.26548
_cell_length_c       5.04833
_cell_angle_alpha    90
_cell_angle_beta     90
_cell_angle_gamma    119.257

_symmetry_Int_Tables_number  38
_chemical_formula_structural  Mg6CrSb
_chemical_formula_sum  Mg6CrSb
_cell_volume  172.89868954482992
_cell_formula_units_Z  1
loop_
  _symmetry_equiv_pos_site_id
 _symmetry_equiv_pos_as_xyz
 1  'x, y, z'
loop_
 _atom_site_type_symbol
 _atom_site_label
 _atom_site_symmetry_multiplicity
 _atom_site_fract_x
 _atom_site_fract_y
 _atom_site_fract_z
 _atom_site_fract_occupancy
 Cr  Cr1  1  0.16660  0.33340  0.25000  1
 Mg  Mg1  1  0.16073  0.82118  0.25000  1
 Mg  Mg2  1  0.67882  0.33927  0.25000  1
 Mg  Mg3  1  0.66504  0.83496  0.25000  1
 Mg  Mg4  1  0.33083  0.66009  0.75000  1
 Mg  Mg5  1  0.83991  0.16917  0.75000  1
 Mg  Mg6  1  0.82980  0.67020  0.75000  1
 Sb  Sb1  1  0.32827  0.17173  0.75000  1
