CIF file written using JARVIS-Tools package.
data_Ti4Si7Ni4
_symmetry_space_group_name_H-M  'I4/mmm'
_cell_length_a       4.9803
_cell_length_b       9.2711
_cell_length_c       9.27109
_cell_angle_alpha    85.8632
_cell_angle_beta     74.4196
_cell_angle_gamma    74.4196

_symmetry_Int_Tables_number  139
_chemical_formula_structural  Ti4Si7Ni4
_chemical_formula_sum  Ti8Si4Ni8
_cell_volume  397.19122135476755
_cell_formula_units_Z  2
loop_
  _symmetry_equiv_pos_site_id
 _symmetry_equiv_pos_as_xyz
 1  'x, y, z'
loop_
 _atom_site_type_symbol
 _atom_site_label
 _atom_site_symmetry_multiplicity
 _atom_site_fract_x
 _atom_site_fract_y
 _atom_site_fract_z
 _atom_site_fract_occupancy
 Ni  Ni1  1  0.89871  0.49999  0.20264  1
 Ni  Ni2  1  0.89871  0.20264  0.49999  1
 Ni  Ni3  1  0.10129  0.50001  0.79736  1
 Ni  Ni4  1  0.60129  0.50001  0.79736  1
 Ni  Ni5  1  0.39871  0.20264  0.49999  1
 Ni  Ni6  1  0.10129  0.79736  0.50001  1
 Ni  Ni7  1  0.39871  0.49999  0.20264  1
 Ni  Ni8  1  0.60129  0.79736  0.50001  1
 Si  Si1  1  0.29622  -0.00000  0.40756  1
 Si  Si2  1  0.24914  -0.00000  -0.00000  1
 Si  Si3  1  0.00000  0.71406  0.28594  1
 Si  Si4  1  -0.00000  0.28594  0.71406  1
 Si  Si5  1  0.70378  0.00000  0.59244  1
 Si  Si6  1  0.70378  0.59244  0.00000  1
 Si  Si7  1  0.29622  0.40756  -0.00000  1
 Si  Si8  1  0.50000  0.59358  0.40642  1
 Si  Si9  1  0.09359  0.40642  0.40642  1
 Si  Si10  1  0.75086  0.00000  0.00000  1
 Si  Si11  1  0.50000  0.40642  0.59358  1
 Si  Si12  1  0.90641  0.59358  0.59358  1
 Si  Si13  1  0.71407  0.28593  0.28593  1
 Si  Si14  1  0.28593  0.71407  0.71407  1
 Ti  Ti1  1  0.13404  0.00000  0.73191  1
 Ti  Ti2  1  0.50000  0.18976  0.81024  1
 Ti  Ti3  1  0.68975  0.81024  0.81024  1
 Ti  Ti4  1  0.86596  -0.00000  0.26809  1
 Ti  Ti5  1  0.13404  0.73191  0.00000  1
 Ti  Ti6  1  0.86596  0.26809  -0.00000  1
 Ti  Ti7  1  0.50000  0.81024  0.18976  1
 Ti  Ti8  1  0.31025  0.18976  0.18976  1
