CIF file written using JARVIS-Tools package.
data_TbSi2
_symmetry_space_group_name_H-M  'I4_1/amd'
_cell_length_a       3.9673
_cell_length_b       3.96722
_cell_length_c       7.99171
_cell_angle_alpha    104.371
_cell_angle_beta     104.372
_cell_angle_gamma    90

_symmetry_Int_Tables_number  141
_chemical_formula_structural  TbSi2
_chemical_formula_sum  Tb2Si4
_cell_volume  117.7786848986836
_cell_formula_units_Z  2
loop_
  _symmetry_equiv_pos_site_id
 _symmetry_equiv_pos_as_xyz
 1  'x, y, z'
loop_
 _atom_site_type_symbol
 _atom_site_label
 _atom_site_symmetry_multiplicity
 _atom_site_fract_x
 _atom_site_fract_y
 _atom_site_fract_z
 _atom_site_fract_occupancy
 Si  Si1  1  0.04361  0.79361  0.58723  1
 Si  Si2  1  0.95639  0.20639  0.41277  1
 Si  Si3  1  0.20639  0.95639  0.91277  1
 Si  Si4  1  0.79361  0.04361  0.08723  1
 Tb  Tb1  1  0.62501  0.37501  0.75003  1
 Tb  Tb2  1  0.37499  0.62499  0.24997  1
