CIF file written using JARVIS-Tools package.
data_Li2MgMn3O8
_symmetry_space_group_name_H-M  'P4_332'
_cell_length_a       8.2116
_cell_length_b       8.2116
_cell_length_c       8.2116
_cell_angle_alpha    90
_cell_angle_beta     90
_cell_angle_gamma    90

_symmetry_Int_Tables_number  212
_chemical_formula_structural  Li2MgMn3O8
_chemical_formula_sum  Li8Mg4Mn2O32
_cell_volume  553.7104880556514
_cell_formula_units_Z  4
loop_
  _symmetry_equiv_pos_site_id
 _symmetry_equiv_pos_as_xyz
 1  'x, y, z'
loop_
 _atom_site_type_symbol
 _atom_site_label
 _atom_site_symmetry_multiplicity
 _atom_site_fract_x
 _atom_site_fract_y
 _atom_site_fract_z
 _atom_site_fract_occupancy
 Li  Li1  1  0.49734  0.99734  0.50266  1
 Li  Li2  1  0.24734  0.24734  0.24734  1
 Li  Li3  1  0.25266  0.75266  0.74734  1
 Li  Li4  1  0.74734  0.25266  0.75266  1
 Li  Li5  1  0.99734  0.50266  0.49734  1
 Li  Li6  1  0.75266  0.74734  0.25266  1
 Li  Li7  1  0.50266  0.49734  0.99734  1
 Li  Li8  1  0.00266  0.00266  0.00266  1
 Mg  Mg1  1  0.12500  0.87500  0.37500  1
 Mg  Mg2  1  0.37500  0.12500  0.87500  1
 Mg  Mg3  1  0.62500  0.62500  0.62500  1
 Mg  Mg4  1  0.87500  0.37500  0.12500  1
 Mn  Mn1  1  0.62981  0.87500  0.87981  1
 Mn  Mn2  1  0.87981  0.62981  0.87500  1
 Mn  Mn3  1  0.12500  0.37981  0.87019  1
 Mn  Mn4  1  0.37500  0.62019  0.37019  1
 Mn  Mn5  1  0.37981  0.87019  0.12500  1
 Mn  Mn6  1  0.62019  0.37019  0.37500  1
 Mn  Mn7  1  0.87500  0.87981  0.62981  1
 Mn  Mn8  1  0.12981  0.62500  0.12019  1
 Mn  Mn9  1  0.37019  0.37500  0.62019  1
 Mn  Mn10  1  0.87019  0.12500  0.37981  1
 Mn  Mn11  1  0.12019  0.12981  0.62500  1
 Mn  Mn12  1  0.62500  0.12019  0.12981  1
 O  O1  1  0.90063  0.62607  0.10792  1
 O  O2  1  0.37607  0.84937  0.35792  1
 O  O3  1  0.38383  0.38383  0.38383  1
 O  O4  1  0.59937  0.37393  0.60792  1
 O  O5  1  0.40063  0.87393  0.89208  1
 O  O6  1  0.87393  0.89208  0.40063  1
 O  O7  1  0.09937  0.12607  0.39208  1
 O  O8  1  0.36617  0.63383  0.13383  1
 O  O9  1  0.86617  0.86617  0.86617  1
 O  O10  1  0.39208  0.09937  0.12607  1
 O  O11  1  0.60792  0.59937  0.37393  1
 O  O12  1  0.12607  0.39208  0.09937  1
 O  O13  1  0.85792  0.12393  0.15063  1
 O  O14  1  0.15063  0.85792  0.12393  1
 O  O15  1  0.62607  0.10792  0.90063  1
 O  O16  1  0.62393  0.34937  0.14208  1
 O  O17  1  0.88383  0.11617  0.61617  1
 O  O18  1  0.65063  0.64208  0.87607  1
 O  O19  1  0.64208  0.87607  0.65063  1
 O  O20  1  0.13383  0.36617  0.63383  1
 O  O21  1  0.34937  0.14208  0.62393  1
 O  O22  1  0.10792  0.90063  0.62607  1
 O  O23  1  0.11617  0.61617  0.88383  1
 O  O24  1  0.37393  0.60792  0.59937  1
 O  O25  1  0.84937  0.35792  0.37607  1
 O  O26  1  0.63383  0.13383  0.36617  1
 O  O27  1  0.89208  0.40063  0.87393  1
 O  O28  1  0.87607  0.65063  0.64208  1
 O  O29  1  0.35792  0.37607  0.84937  1
 O  O30  1  0.61617  0.88383  0.11617  1
 O  O31  1  0.14208  0.62393  0.34937  1
 O  O32  1  0.12393  0.15063  0.85792  1
