CIF file written using JARVIS-Tools package.
data_PHSF2
_symmetry_space_group_name_H-M  'P2_1/c'
_cell_length_a       9.23022
_cell_length_b       4.26753
_cell_length_c       8.30653
_cell_angle_alpha    90
_cell_angle_beta     98.4396
_cell_angle_gamma    90

_symmetry_Int_Tables_number  14
_chemical_formula_structural  PHSF2
_chemical_formula_sum  P4H4S4F8
_cell_volume  323.6531611754572
_cell_formula_units_Z  4
loop_
  _symmetry_equiv_pos_site_id
 _symmetry_equiv_pos_as_xyz
 1  'x, y, z'
loop_
 _atom_site_type_symbol
 _atom_site_label
 _atom_site_symmetry_multiplicity
 _atom_site_fract_x
 _atom_site_fract_y
 _atom_site_fract_z
 _atom_site_fract_occupancy
 F  F1  1  0.38391  0.65792  0.21071  1
 F  F2  1  0.61609  0.34208  0.78929  1
 F  F3  1  0.38391  0.84208  0.71071  1
 F  F4  1  0.38901  0.26059  0.00817  1
 F  F5  1  0.61099  0.76059  0.49183  1
 F  F6  1  0.61609  0.15792  0.28929  1
 F  F7  1  0.61099  0.73941  0.99183  1
 F  F8  1  0.38901  0.23941  0.50817  1
 H  H1  1  0.23833  0.80452  0.45918  1
 H  H2  1  0.76167  0.30452  0.04082  1
 H  H3  1  0.76167  0.19548  0.54082  1
 H  H4  1  0.23833  0.69548  0.95918  1
 P  P1  1  0.27357  0.02964  0.58196  1
 P  P2  1  0.27357  0.47036  0.08196  1
 P  P3  1  0.72643  0.97036  0.41804  1
 P  P4  1  0.72643  0.52964  0.91804  1
 S  S1  1  0.87690  0.75192  0.83353  1
 S  S2  1  0.12310  0.24808  0.16647  1
 S  S3  1  0.12310  0.25192  0.66647  1
 S  S4  1  0.87690  0.74808  0.33353  1
