CIF file written using JARVIS-Tools package.
data_SrGe2Pd2
_symmetry_space_group_name_H-M  'I4/mmm'
_cell_length_a       6.02231
_cell_length_b       6.02231
_cell_length_c       6.02231
_cell_angle_alpha    136.605
_cell_angle_beta     136.605
_cell_angle_gamma    63.0459

_symmetry_Int_Tables_number  139
_chemical_formula_structural  SrGe2Pd2
_chemical_formula_sum  SrGe2Pd2
_cell_volume  101.79230249011688
_cell_formula_units_Z  1
loop_
  _symmetry_equiv_pos_site_id
 _symmetry_equiv_pos_as_xyz
 1  'x, y, z'
loop_
 _atom_site_type_symbol
 _atom_site_label
 _atom_site_symmetry_multiplicity
 _atom_site_fract_x
 _atom_site_fract_y
 _atom_site_fract_z
 _atom_site_fract_occupancy
 Ge  Ge1  1  0.62996  0.62996  0.00000  1
 Ge  Ge2  1  0.37004  0.37004  0.00000  1
 Pd  Pd1  1  0.25000  0.75000  0.50000  1
 Pd  Pd2  1  0.75000  0.25000  0.50000  1
 Sr  Sr1  1  0.00000  0.00000  0.00000  1
