CIF file written using JARVIS-Tools package.
data_TbLi4F8
_symmetry_space_group_name_H-M  'Pnma'
_cell_length_a       5.73573
_cell_length_b       9.86638
_cell_length_c       9.8467
_cell_angle_alpha    90
_cell_angle_beta     90
_cell_angle_gamma    90

_symmetry_Int_Tables_number  62
_chemical_formula_structural  TbLi4F8
_chemical_formula_sum  Tb4Li6F32
_cell_volume  557.233637273668
_cell_formula_units_Z  4
loop_
  _symmetry_equiv_pos_site_id
 _symmetry_equiv_pos_as_xyz
 1  'x, y, z'
loop_
 _atom_site_type_symbol
 _atom_site_label
 _atom_site_symmetry_multiplicity
 _atom_site_fract_x
 _atom_site_fract_y
 _atom_site_fract_z
 _atom_site_fract_occupancy
 F  F1  1  0.86330  0.26644  0.97160  1
 F  F2  1  0.61335  0.19129  0.75000  1
 F  F3  1  0.38665  0.80871  0.25000  1
 F  F4  1  0.62757  0.30177  0.25000  1
 F  F5  1  0.12757  0.19823  0.75000  1
 F  F6  1  0.36330  0.23356  0.47160  1
 F  F7  1  0.36330  0.23356  0.02840  1
 F  F8  1  0.61322  0.01953  0.38658  1
 F  F9  1  0.36664  0.51188  0.11050  1
 F  F10  1  0.88678  0.51953  0.11342  1
 F  F11  1  0.38678  0.98047  0.88658  1
 F  F12  1  0.11335  0.30871  0.25000  1
 F  F13  1  0.38678  0.98047  0.61342  1
 F  F14  1  0.11322  0.48047  0.88658  1
 F  F15  1  0.61322  0.01953  0.11342  1
 F  F16  1  0.13336  0.01188  0.38950  1
 F  F17  1  0.63336  0.48812  0.61050  1
 F  F18  1  0.87243  0.80177  0.25000  1
 F  F19  1  0.86664  0.98812  0.88950  1
 F  F20  1  0.86664  0.98812  0.61050  1
 F  F21  1  0.36664  0.51188  0.38950  1
 F  F22  1  0.63336  0.48812  0.88950  1
 F  F23  1  0.13336  0.01188  0.11050  1
 F  F24  1  0.88678  0.51953  0.38658  1
 F  F25  1  0.88665  0.69129  0.75000  1
 F  F26  1  0.37243  0.69823  0.75000  1
 F  F27  1  0.13670  0.73356  0.47160  1
 F  F28  1  0.63670  0.76644  0.52840  1
 F  F29  1  0.63670  0.76644  0.97160  1
 F  F30  1  0.13670  0.73356  0.02840  1
 F  F31  1  0.86330  0.26644  0.52840  1
 F  F32  1  0.11322  0.48047  0.61342  1
 Li  Li1  1  0.63283  0.39705  0.41998  1
 Li  Li2  1  0.13283  0.10295  0.58002  1
 Li  Li3  1  0.86717  0.89705  0.08002  1
 Li  Li4  1  0.36717  0.60295  0.91998  1
 Li  Li5  1  0.36717  0.60295  0.58002  1
 Li  Li6  1  0.86717  0.89705  0.41998  1
 Li  Li7  1  0.11938  0.36955  0.05891  1
 Li  Li8  1  0.11938  0.36955  0.44109  1
 Li  Li9  1  0.61938  0.13045  0.55891  1
 Li  Li10  1  0.38062  0.86955  0.05891  1
 Li  Li11  1  0.88062  0.63045  0.94109  1
 Li  Li12  1  0.88062  0.63045  0.55891  1
 Li  Li13  1  0.38062  0.86955  0.44109  1
 Li  Li14  1  0.61938  0.13045  0.94109  1
 Li  Li15  1  0.13283  0.10295  0.91998  1
 Li  Li16  1  0.63283  0.39705  0.08002  1
 Tb  Tb1  1  0.36393  0.13459  0.25000  1
 Tb  Tb2  1  0.13607  0.63459  0.25000  1
 Tb  Tb3  1  0.63607  0.86541  0.75000  1
 Tb  Tb4  1  0.86393  0.36541  0.75000  1
