CIF file written using JARVIS-Tools package.
data_SrB2N2
_symmetry_space_group_name_H-M  'C2/m'
_cell_length_a       3.98154
_cell_length_b       3.98154
_cell_length_c       7.1167
_cell_angle_alpha    73.9663
_cell_angle_beta     73.9663
_cell_angle_gamma    60.0418

_symmetry_Int_Tables_number  12
_chemical_formula_structural  SrB2N2
_chemical_formula_sum  SrB2N2
_cell_volume  92.6383244675962
_cell_formula_units_Z  1
loop_
  _symmetry_equiv_pos_site_id
 _symmetry_equiv_pos_as_xyz
 1  'x, y, z'
loop_
 _atom_site_type_symbol
 _atom_site_label
 _atom_site_symmetry_multiplicity
 _atom_site_fract_x
 _atom_site_fract_y
 _atom_site_fract_z
 _atom_site_fract_occupancy
 B  B1  1  0.64577  0.43518  0.37956  1
 B  B2  1  0.56482  0.35423  0.62044  1
 N  N1  1  0.70896  0.49866  0.19070  1
 N  N2  1  0.50134  0.29104  0.80930  1
 Sr  Sr1  1  0.10511  0.89489  0.00000  1
