CIF file written using JARVIS-Tools package.
data_Na2Si2O5
_symmetry_space_group_name_H-M  'P2_1/c'
_cell_length_a       4.86231
_cell_length_b       8.43469
_cell_length_c       12.0047
_cell_angle_alpha    90
_cell_angle_beta     90
_cell_angle_gamma    90.8165

_symmetry_Int_Tables_number  14
_chemical_formula_structural  Na2Si2O5
_chemical_formula_sum  Na8Si8O20
_cell_volume  492.29025625164167
_cell_formula_units_Z  4
loop_
  _symmetry_equiv_pos_site_id
 _symmetry_equiv_pos_as_xyz
 1  'x, y, z'
loop_
 _atom_site_type_symbol
 _atom_site_label
 _atom_site_symmetry_multiplicity
 _atom_site_fract_x
 _atom_site_fract_y
 _atom_site_fract_z
 _atom_site_fract_occupancy
 Na  Na1  1  0.75868  0.36762  0.99892  1
 Na  Na2  1  0.23131  0.11689  0.95875  1
 Na  Na3  1  0.25868  0.86762  0.50108  1
 Na  Na4  1  0.74132  0.13238  0.49892  1
 Na  Na5  1  0.73131  0.61689  0.54125  1
 Na  Na6  1  0.26869  0.38311  0.45875  1
 Na  Na7  1  0.24132  0.63238  0.00108  1
 Na  Na8  1  0.76869  0.88311  0.04125  1
 O  O1  1  0.75117  0.39052  0.42360  1
 O  O2  1  0.25117  0.89052  0.07640  1
 O  O3  1  0.73868  0.86213  0.45205  1
 O  O4  1  0.86103  0.56295  0.73216  1
 O  O5  1  0.26530  0.35694  0.71366  1
 O  O6  1  0.76132  0.63787  0.95205  1
 O  O7  1  0.36103  0.06295  0.76784  1
 O  O8  1  0.26132  0.13787  0.54795  1
 O  O9  1  0.24883  0.60948  0.57640  1
 O  O10  1  0.23868  0.36213  0.04795  1
 O  O11  1  0.13685  0.86122  0.30063  1
 O  O12  1  0.74883  0.10948  0.92360  1
 O  O13  1  0.23470  0.14306  0.21366  1
 O  O14  1  0.86315  0.13878  0.69937  1
 O  O15  1  0.76530  0.85694  0.78634  1
 O  O16  1  0.13897  0.43705  0.26784  1
 O  O17  1  0.73470  0.64306  0.28634  1
 O  O18  1  0.63897  0.93705  0.23216  1
 O  O19  1  0.36315  0.63878  0.80063  1
 O  O20  1  0.63685  0.36122  0.19937  1
 Si  Si1  1  0.19226  0.54562  0.70031  1
 Si  Si2  1  0.69573  0.67341  0.82393  1
 Si  Si3  1  0.80774  0.45438  0.29969  1
 Si  Si4  1  0.30774  0.95438  0.20031  1
 Si  Si5  1  0.30427  0.32659  0.17607  1
 Si  Si6  1  0.80427  0.82659  0.32393  1
 Si  Si7  1  0.19573  0.17341  0.67607  1
 Si  Si8  1  0.69226  0.04562  0.79969  1
