CIF file written using JARVIS-Tools package.
data_Al3Tc2
_symmetry_space_group_name_H-M  'P-3m1'
_cell_length_a       4.35576
_cell_length_b       4.35525
_cell_length_c       5.11528
_cell_angle_alpha    90
_cell_angle_beta     89.9937
_cell_angle_gamma    119.996

_symmetry_Int_Tables_number  164
_chemical_formula_structural  Al3Tc2
_chemical_formula_sum  Al3Tc2
_cell_volume  84.04169849316483
_cell_formula_units_Z  1
loop_
  _symmetry_equiv_pos_site_id
 _symmetry_equiv_pos_as_xyz
 1  'x, y, z'
loop_
 _atom_site_type_symbol
 _atom_site_label
 _atom_site_symmetry_multiplicity
 _atom_site_fract_x
 _atom_site_fract_y
 _atom_site_fract_z
 _atom_site_fract_occupancy
 Al  Al1  1  0.00000  0.00000  0.00000  1
 Al  Al2  1  0.33327  0.66663  0.61006  1
 Al  Al3  1  0.66673  0.33337  0.38994  1
 Tc  Tc1  1  0.33338  0.66669  0.10622  1
 Tc  Tc2  1  0.66662  0.33331  0.89378  1
