CIF file written using JARVIS-Tools package.
data_Mg6SiW
_symmetry_space_group_name_H-M  'Amm2'
_cell_length_a       6.03369
_cell_length_b       5.65568
_cell_length_c       5.01587
_cell_angle_alpha    90
_cell_angle_beta     90
_cell_angle_gamma    117.948

_symmetry_Int_Tables_number  38
_chemical_formula_structural  Mg6SiW
_chemical_formula_sum  Mg6SiW
_cell_volume  151.2016513684732
_cell_formula_units_Z  1
loop_
  _symmetry_equiv_pos_site_id
 _symmetry_equiv_pos_as_xyz
 1  'x, y, z'
loop_
 _atom_site_type_symbol
 _atom_site_label
 _atom_site_symmetry_multiplicity
 _atom_site_fract_x
 _atom_site_fract_y
 _atom_site_fract_z
 _atom_site_fract_occupancy
 Mg  Mg1  1  0.65346  0.32732  0.25000  1
 Mg  Mg2  1  0.65346  0.82614  0.25000  1
 Mg  Mg3  1  0.33809  0.16049  0.75000  1
 Mg  Mg4  1  0.33809  0.67759  0.75000  1
 Mg  Mg5  1  0.85493  0.17747  0.75000  1
 Mg  Mg6  1  0.85531  0.67765  0.75000  1
 Si  Si1  1  0.15683  0.32842  0.25000  1
 W  W1  1  0.14983  0.82491  0.25000  1
