CIF file written using JARVIS-Tools package.
data_Li4NbFe5O12
_symmetry_space_group_name_H-M  'C2/m'
_cell_length_a       4.88387
_cell_length_b       4.88386
_cell_length_c       9.94663
_cell_angle_alpha    94.6068
_cell_angle_beta     94.6068
_cell_angle_gamma    120.015

_symmetry_Int_Tables_number  12
_chemical_formula_structural  Li4NbFe5O12
_chemical_formula_sum  Li4NbFe5O2
_cell_volume  202.76362013932086
_cell_formula_units_Z  1
loop_
  _symmetry_equiv_pos_site_id
 _symmetry_equiv_pos_as_xyz
 1  'x, y, z'
loop_
 _atom_site_type_symbol
 _atom_site_label
 _atom_site_symmetry_multiplicity
 _atom_site_fract_x
 _atom_site_fract_y
 _atom_site_fract_z
 _atom_site_fract_occupancy
 Fe  Fe1  1  0.16161  0.83839  0.50000  1
 Fe  Fe2  1  0.33338  0.66662  -0.00000  1
 Fe  Fe3  1  0.50000  0.50000  0.50000  1
 Fe  Fe4  1  0.66662  0.33338  0.00000  1
 Fe  Fe5  1  0.83839  0.16161  0.50000  1
 Li  Li1  1  0.24734  0.58154  0.74087  1
 Li  Li2  1  0.41846  0.75266  0.25913  1
 Li  Li3  1  0.58154  0.24734  0.74087  1
 Li  Li4  1  0.75266  0.41846  0.25913  1
 Nb  Nb1  1  0.00000  0.00000  0.00000  1
 O  O1  1  0.68433  0.03806  0.11582  1
 O  O2  1  0.31567  -0.03806  0.88418  1
 O  O3  1  0.13297  0.47427  0.39687  1
 O  O4  1  0.52573  0.86703  0.60313  1
 O  O5  1  0.03806  0.68433  0.11582  1
 O  O6  1  0.86703  0.52573  0.60313  1
 O  O7  1  0.60853  0.60853  0.88419  1
 O  O8  1  0.79062  0.79062  0.39247  1
 O  O9  1  0.47427  0.13297  0.39687  1
 O  O10  1  0.20938  0.20938  0.60753  1
 O  O11  1  0.39147  0.39147  0.11581  1
 O  O12  1  -0.03806  0.31567  0.88418  1
