CIF file written using JARVIS-Tools package.
data_La4S3NCl3
_symmetry_space_group_name_H-M  'P6_3mc'
_cell_length_a       9.43292
_cell_length_b       9.43292
_cell_length_c       7.00064
_cell_angle_alpha    90
_cell_angle_beta     90
_cell_angle_gamma    120

_symmetry_Int_Tables_number  186
_chemical_formula_structural  La4S3NCl3
_chemical_formula_sum  La8S6N2Cl6
_cell_volume  539.461782324713
_cell_formula_units_Z  2
loop_
  _symmetry_equiv_pos_site_id
 _symmetry_equiv_pos_as_xyz
 1  'x, y, z'
loop_
 _atom_site_type_symbol
 _atom_site_label
 _atom_site_symmetry_multiplicity
 _atom_site_fract_x
 _atom_site_fract_y
 _atom_site_fract_z
 _atom_site_fract_occupancy
 Cl  Cl1  1  0.73899  0.86950  0.64325  1
 Cl  Cl2  1  0.13050  0.26101  0.64325  1
 Cl  Cl3  1  0.86950  0.13050  0.14325  1
 Cl  Cl4  1  0.13050  0.86950  0.64325  1
 Cl  Cl5  1  0.86950  0.73899  0.14325  1
 Cl  Cl6  1  0.26101  0.13050  0.14325  1
 La  La1  1  0.66667  0.33333  0.21058  1
 La  La2  1  0.20047  0.40095  0.25075  1
 La  La3  1  0.79953  0.59905  0.75075  1
 La  La4  1  0.40095  0.20047  0.75075  1
 La  La5  1  0.79953  0.20047  0.75075  1
 La  La6  1  0.33333  0.66667  0.71058  1
 La  La7  1  0.20047  0.79953  0.25075  1
 La  La8  1  0.59905  0.79953  0.25075  1
 N  N1  1  0.33333  0.66667  0.36619  1
 N  N2  1  0.66667  0.33333  0.86619  1
 S  S1  1  0.06137  0.53069  0.97031  1
 S  S2  1  0.93863  0.46931  0.47031  1
 S  S3  1  0.53069  0.06137  0.47031  1
 S  S4  1  0.46931  0.93863  0.97031  1
 S  S5  1  0.46931  0.53069  0.97031  1
 S  S6  1  0.53069  0.46931  0.47031  1
