CIF file written using JARVIS-Tools package.
data_AlPb3
_symmetry_space_group_name_H-M  'I4/mmm'
_cell_length_a       5.88951
_cell_length_b       5.88952
_cell_length_c       5.88951
_cell_angle_alpha    130.199
_cell_angle_beta     130.199
_cell_angle_gamma    73.0892

_symmetry_Int_Tables_number  139
_chemical_formula_structural  AlPb3
_chemical_formula_sum  AlPb3
_cell_volume  116.38180881254037
_cell_formula_units_Z  1
loop_
  _symmetry_equiv_pos_site_id
 _symmetry_equiv_pos_as_xyz
 1  'x, y, z'
loop_
 _atom_site_type_symbol
 _atom_site_label
 _atom_site_symmetry_multiplicity
 _atom_site_fract_x
 _atom_site_fract_y
 _atom_site_fract_z
 _atom_site_fract_occupancy
 Al  Al1  1  0.00000  0.00000  0.00000  1
 Pb  Pb1  1  0.75000  0.25000  0.50000  1
 Pb  Pb2  1  0.25000  0.75000  0.50000  1
 Pb  Pb3  1  0.50000  0.50000  0.00000  1
