CIF file written using JARVIS-Tools package.
data_Ni6SbTe2
_symmetry_space_group_name_H-M  'I4mm'
_cell_length_a       9.96757
_cell_length_b       9.96757
_cell_length_c       9.96756
_cell_angle_alpha    157.797
_cell_angle_beta     157.797
_cell_angle_gamma    31.6027

_symmetry_Int_Tables_number  107
_chemical_formula_structural  Ni6SbTe2
_chemical_formula_sum  Ni6SbTe2
_cell_volume  141.30943824695697
_cell_formula_units_Z  1
loop_
  _symmetry_equiv_pos_site_id
 _symmetry_equiv_pos_as_xyz
 1  'x, y, z'
loop_
 _atom_site_type_symbol
 _atom_site_label
 _atom_site_symmetry_multiplicity
 _atom_site_fract_x
 _atom_site_fract_y
 _atom_site_fract_z
 _atom_site_fract_occupancy
 Ni  Ni1  1  0.90566  0.40566  0.50000  1
 Ni  Ni2  1  0.40566  0.90566  0.50000  1
 Ni  Ni3  1  0.09284  0.59284  0.50000  1
 Ni  Ni4  1  0.59284  0.09284  0.50000  1
 Ni  Ni5  1  0.99876  0.99876  0.00000  1
 Ni  Ni6  1  0.68949  0.68949  -0.00000  1
 Sb  Sb1  1  0.49975  0.49975  0.00000  1
 Te  Te1  1  0.82145  0.82145  0.00000  1
 Te  Te2  1  0.18376  0.18376  -0.00000  1
