CIF file written using JARVIS-Tools package.
data_Mg6CrSi
_symmetry_space_group_name_H-M  'Amm2'
_cell_length_a       6.15216
_cell_length_b       6.15216
_cell_length_c       4.81194
_cell_angle_alpha    90
_cell_angle_beta     90
_cell_angle_gamma    119.451

_symmetry_Int_Tables_number  38
_chemical_formula_structural  Mg6CrSi
_chemical_formula_sum  Mg6CrSi
_cell_volume  158.5916930754114
_cell_formula_units_Z  1
loop_
  _symmetry_equiv_pos_site_id
 _symmetry_equiv_pos_as_xyz
 1  'x, y, z'
loop_
 _atom_site_type_symbol
 _atom_site_label
 _atom_site_symmetry_multiplicity
 _atom_site_fract_x
 _atom_site_fract_y
 _atom_site_fract_z
 _atom_site_fract_occupancy
 Cr  Cr1  1  0.32282  0.17718  0.75000  1
 Mg  Mg1  1  0.16940  0.84466  0.25000  1
 Mg  Mg2  1  0.65534  0.33060  0.25000  1
 Mg  Mg3  1  0.66803  0.83197  0.25000  1
 Mg  Mg4  1  0.33116  0.66106  0.75000  1
 Mg  Mg5  1  0.83894  0.16884  0.75000  1
 Mg  Mg6  1  0.83472  0.66528  0.75000  1
 Si  Si1  1  0.17959  0.32041  0.25000  1
