CIF file written using JARVIS-Tools package.
data_Ca2AlH8S2ClO12F2
_symmetry_space_group_name_H-M  'I4/m'
_cell_length_a       8.22578
_cell_length_b       8.22578
_cell_length_c       8.22578
_cell_angle_alpha    130.805
_cell_angle_beta     130.805
_cell_angle_gamma    72.1224

_symmetry_Int_Tables_number  87
_chemical_formula_structural  Ca2AlH8S2ClO12F2
_chemical_formula_sum  Ca2AlH8S2ClO2F2
_cell_volume  311.8131183395857
_cell_formula_units_Z  1
loop_
  _symmetry_equiv_pos_site_id
 _symmetry_equiv_pos_as_xyz
 1  'x, y, z'
loop_
 _atom_site_type_symbol
 _atom_site_label
 _atom_site_symmetry_multiplicity
 _atom_site_fract_x
 _atom_site_fract_y
 _atom_site_fract_z
 _atom_site_fract_occupancy
 Al  Al1  1  0.00000  0.00000  0.00000  1
 Ca  Ca1  1  0.30064  0.30064  0.00000  1
 Ca  Ca2  1  0.69936  0.69936  0.00000  1
 Cl  Cl1  1  0.50000  0.50000  0.00000  1
 F  F1  1  0.86620  0.86620  0.00000  1
 F  F2  1  0.13380  0.13380  0.00000  1
 H  H1  1  0.04684  0.59938  0.76885  1
 H  H2  1  0.40062  0.16947  0.44746  1
 H  H3  1  0.72201  0.95316  0.55254  1
 H  H4  1  0.83053  0.27799  0.23115  1
 H  H5  1  0.95316  0.40062  0.23115  1
 H  H6  1  0.59938  0.83053  0.55254  1
 H  H7  1  0.27799  0.04684  0.44746  1
 H  H8  1  0.16947  0.72201  0.76885  1
 O  O1  1  0.72322  0.94637  0.66959  1
 O  O2  1  0.27678  0.05363  0.33041  1
 O  O3  1  0.94637  0.27678  0.22315  1
 O  O4  1  0.05363  0.72322  0.77685  1
 O  O5  1  0.75384  0.02243  0.40613  1
 O  O6  1  0.61630  0.34771  0.59387  1
 O  O7  1  0.34771  0.75384  0.73141  1
 O  O8  1  0.24616  0.97757  0.59387  1
 O  O9  1  0.38370  0.65229  0.40613  1
 O  O10  1  0.65229  0.24616  0.26859  1
 O  O11  1  0.02243  0.61630  0.26859  1
 O  O12  1  0.97757  0.38370  0.73141  1
 S  S1  1  0.25000  0.75000  0.50000  1
 S  S2  1  0.75000  0.25000  0.50000  1
