CIF file written using JARVIS-Tools package.
data_ZnNiF6
_symmetry_space_group_name_H-M  'R-3'
_cell_length_a       5.22882
_cell_length_b       5.22882
_cell_length_c       5.22883
_cell_angle_alpha    55.1632
_cell_angle_beta     55.1631
_cell_angle_gamma    55.1632

_symmetry_Int_Tables_number  148
_chemical_formula_structural  ZnNiF6
_chemical_formula_sum  ZnNiF6
_cell_volume  89.71868977704919
_cell_formula_units_Z  1
loop_
  _symmetry_equiv_pos_site_id
 _symmetry_equiv_pos_as_xyz
 1  'x, y, z'
loop_
 _atom_site_type_symbol
 _atom_site_label
 _atom_site_symmetry_multiplicity
 _atom_site_fract_x
 _atom_site_fract_y
 _atom_site_fract_z
 _atom_site_fract_occupancy
 F  F1  1  0.91466  0.22921  0.61855  1
 F  F2  1  0.22921  0.61855  0.91466  1
 F  F3  1  0.38145  0.08534  0.77079  1
 F  F4  1  0.77079  0.38145  0.08534  1
 F  F5  1  0.08534  0.77079  0.38145  1
 F  F6  1  0.61855  0.91466  0.22921  1
 Ni  Ni1  1  0.00000  0.00000  0.00000  1
 Zn  Zn1  1  0.50000  0.50000  0.50000  1
