CIF file written using JARVIS-Tools package.
data_Pd3N2
_symmetry_space_group_name_H-M  'P4/mmm'
_cell_length_a       2.94388
_cell_length_b       4.16344
_cell_length_c       8.41071
_cell_angle_alpha    90
_cell_angle_beta     69.5231
_cell_angle_gamma    135.002

_symmetry_Int_Tables_number  123
_chemical_formula_structural  Pd3N2
_chemical_formula_sum  Pd3N2
_cell_volume  63.34422724221773
_cell_formula_units_Z  1
loop_
  _symmetry_equiv_pos_site_id
 _symmetry_equiv_pos_as_xyz
 1  'x, y, z'
loop_
 _atom_site_type_symbol
 _atom_site_label
 _atom_site_symmetry_multiplicity
 _atom_site_fract_x
 _atom_site_fract_y
 _atom_site_fract_z
 _atom_site_fract_occupancy
 N  N1  1  0.55055  0.27528  0.72478  1
 N  N2  1  0.44945  0.72472  0.27522  1
 Pd  Pd1  1  0.36899  0.18449  0.31543  1
 Pd  Pd2  1  0.63101  0.81551  0.68457  1
 Pd  Pd3  1  0.00000  0.00000  0.00000  1
