CIF file written using JARVIS-Tools package.
data_CeMg6Co
_symmetry_space_group_name_H-M  'Amm2'
_cell_length_a       6.78994
_cell_length_b       6.78993
_cell_length_c       4.82885
_cell_angle_alpha    90
_cell_angle_beta     90
_cell_angle_gamma    125.653

_symmetry_Int_Tables_number  38
_chemical_formula_structural  CeMg6Co
_chemical_formula_sum  CeMg6Co
_cell_volume  180.89795438404275
_cell_formula_units_Z  1
loop_
  _symmetry_equiv_pos_site_id
 _symmetry_equiv_pos_as_xyz
 1  'x, y, z'
loop_
 _atom_site_type_symbol
 _atom_site_label
 _atom_site_symmetry_multiplicity
 _atom_site_fract_x
 _atom_site_fract_y
 _atom_site_fract_z
 _atom_site_fract_occupancy
 Ce  Ce1  1  0.28723  0.21277  0.75000  1
 Co  Co1  1  0.22767  0.27233  0.25000  1
 Mg  Mg1  1  0.17535  0.84044  0.25000  1
 Mg  Mg2  1  0.65956  0.32465  0.25000  1
 Mg  Mg3  1  0.68379  0.81621  0.25000  1
 Mg  Mg4  1  0.31667  0.69457  0.75000  1
 Mg  Mg5  1  0.80543  0.18333  0.75000  1
 Mg  Mg6  1  0.84430  0.65570  0.75000  1
