CIF file written using JARVIS-Tools package.
data_MgFeO3
_symmetry_space_group_name_H-M  'R-3'
_cell_length_a       5.3689
_cell_length_b       5.3689
_cell_length_c       5.3689
_cell_angle_alpha    54.7686
_cell_angle_beta     54.7686
_cell_angle_gamma    54.7686

_symmetry_Int_Tables_number  148
_chemical_formula_structural  MgFeO3
_chemical_formula_sum  Mg2Fe2O6
_cell_volume  96.09887946589308
_cell_formula_units_Z  2
loop_
  _symmetry_equiv_pos_site_id
 _symmetry_equiv_pos_as_xyz
 1  'x, y, z'
loop_
 _atom_site_type_symbol
 _atom_site_label
 _atom_site_symmetry_multiplicity
 _atom_site_fract_x
 _atom_site_fract_y
 _atom_site_fract_z
 _atom_site_fract_occupancy
 Fe  Fe1  1  0.34100  0.34100  0.34100  1
 Fe  Fe2  1  0.65900  0.65900  0.65900  1
 Mg  Mg1  1  0.14074  0.14074  0.14074  1
 Mg  Mg2  1  0.85926  0.85926  0.85926  1
 O  O1  1  0.06091  0.71768  0.45287  1
 O  O2  1  0.54713  0.93909  0.28232  1
 O  O3  1  0.28232  0.54713  0.93909  1
 O  O4  1  0.71768  0.45287  0.06091  1
 O  O5  1  0.45287  0.06091  0.71768  1
 O  O6  1  0.93909  0.28232  0.54713  1
