CIF file written using JARVIS-Tools package.
data_CaHBr
_symmetry_space_group_name_H-M  'P4/nmm'
_cell_length_a       3.84081
_cell_length_b       3.84081
_cell_length_c       7.91197
_cell_angle_alpha    90
_cell_angle_beta     90
_cell_angle_gamma    90

_symmetry_Int_Tables_number  129
_chemical_formula_structural  CaHBr
_chemical_formula_sum  Ca2H2Br2
_cell_volume  116.71600381105077
_cell_formula_units_Z  2
loop_
  _symmetry_equiv_pos_site_id
 _symmetry_equiv_pos_as_xyz
 1  'x, y, z'
loop_
 _atom_site_type_symbol
 _atom_site_label
 _atom_site_symmetry_multiplicity
 _atom_site_fract_x
 _atom_site_fract_y
 _atom_site_fract_z
 _atom_site_fract_occupancy
 Br  Br1  1  0.00000  0.50000  0.66984  1
 Br  Br2  1  0.50000  0.00000  0.33016  1
 Ca  Ca1  1  0.00000  0.50000  0.16385  1
 Ca  Ca2  1  0.50000  0.00000  0.83615  1
 H  H1  1  0.50000  0.50000  0.00000  1
 H  H2  1  0.00000  0.00000  0.00000  1
