CIF file written using JARVIS-Tools package.
data_Li2FeF4
_symmetry_space_group_name_H-M  'Pbam'
_cell_length_a       3.15854
_cell_length_b       8.58509
_cell_length_c       8.61115
_cell_angle_alpha    90
_cell_angle_beta     90
_cell_angle_gamma    90

_symmetry_Int_Tables_number  55
_chemical_formula_structural  Li2FeF4
_chemical_formula_sum  Li4Fe2F8
_cell_volume  233.50285146286348
_cell_formula_units_Z  2
loop_
  _symmetry_equiv_pos_site_id
 _symmetry_equiv_pos_as_xyz
 1  'x, y, z'
loop_
 _atom_site_type_symbol
 _atom_site_label
 _atom_site_symmetry_multiplicity
 _atom_site_fract_x
 _atom_site_fract_y
 _atom_site_fract_z
 _atom_site_fract_occupancy
 F  F1  1  0.00000  0.11148  0.63533  1
 F  F2  1  0.50000  0.16476  0.91810  1
 F  F3  1  0.50000  0.32808  0.41802  1
 F  F4  1  0.00000  0.38142  0.13528  1
 F  F5  1  0.00000  0.61148  0.36467  1
 F  F6  1  0.50000  0.66476  0.08190  1
 F  F7  1  0.50000  0.82808  0.58198  1
 F  F8  1  0.00000  0.88142  0.86472  1
 Fe  Fe1  1  0.50000  -0.00356  0.75003  1
 Fe  Fe2  1  0.50000  0.49644  0.24997  1
 Li  Li1  1  0.00000  0.25832  0.48798  1
 Li  Li2  1  0.00000  0.23447  0.98807  1
 Li  Li3  1  0.00000  0.75832  0.51202  1
 Li  Li4  1  0.00000  0.73447  0.01193  1
