CIF file written using JARVIS-Tools package.
data_Mg7Si4H2O16
_symmetry_space_group_name_H-M  'Pmma'
_cell_length_a       5.8042
_cell_length_b       11.567
_cell_length_c       8.25862
_cell_angle_alpha    90
_cell_angle_beta     90
_cell_angle_gamma    90

_symmetry_Int_Tables_number  51
_chemical_formula_structural  Mg7Si4H2O16
_chemical_formula_sum  Mg4Si8H4O32
_cell_volume  554.4610881848922
_cell_formula_units_Z  2
loop_
  _symmetry_equiv_pos_site_id
 _symmetry_equiv_pos_as_xyz
 1  'x, y, z'
loop_
 _atom_site_type_symbol
 _atom_site_label
 _atom_site_symmetry_multiplicity
 _atom_site_fract_x
 _atom_site_fract_y
 _atom_site_fract_z
 _atom_site_fract_occupancy
 H  H1  1  0.50000  0.25000  0.40260  1
 H  H2  1  0.00000  0.75000  0.64117  1
 H  H3  1  0.00000  0.25000  0.35883  1
 H  H4  1  0.50000  0.75000  0.59740  1
 Mg  Mg1  1  0.74608  0.38519  0.25154  1
 Mg  Mg2  1  0.50000  0.00000  0.50000  1
 Mg  Mg3  1  0.50000  0.50000  0.50000  1
 Mg  Mg4  1  0.00000  0.25000  0.95498  1
 Mg  Mg5  1  0.00000  0.50000  0.00000  1
 Mg  Mg6  1  0.74608  0.11481  0.25154  1
 Mg  Mg7  1  0.25392  0.11481  0.25154  1
 Mg  Mg8  1  0.25392  0.88519  0.74846  1
 Mg  Mg9  1  0.00000  0.75000  0.04502  1
 Mg  Mg10  1  0.00000  0.00000  0.00000  1
 Mg  Mg11  1  0.25392  0.61481  0.74846  1
 Mg  Mg12  1  0.74608  0.88519  0.74846  1
 Mg  Mg13  1  0.74608  0.61481  0.74846  1
 Mg  Mg14  1  0.25392  0.38519  0.25154  1
 O  O1  1  0.25902  0.12458  0.00087  1
 O  O2  1  0.50000  0.51219  0.23893  1
 O  O3  1  0.50000  0.75000  0.71778  1
 O  O4  1  0.50000  0.01219  0.76107  1
 O  O5  1  0.00000  0.01440  0.75113  1
 O  O6  1  0.00000  0.98560  0.24887  1
 O  O7  1  0.00000  0.48560  0.75113  1
 O  O8  1  0.50000  0.98781  0.23893  1
 O  O9  1  0.00000  0.25000  0.71020  1
 O  O10  1  0.50000  0.25000  0.79387  1
 O  O11  1  0.50000  0.75000  0.20613  1
 O  O12  1  0.00000  0.75000  0.28980  1
 O  O13  1  0.74098  0.37542  0.00087  1
 O  O14  1  0.50000  0.25000  0.28222  1
 O  O15  1  0.76982  0.38246  0.49499  1
 O  O16  1  0.00000  0.75000  0.76111  1
 O  O17  1  0.00000  0.25000  0.23889  1
 O  O18  1  0.00000  0.51440  0.24887  1
 O  O19  1  0.76982  0.88246  0.50501  1
 O  O20  1  0.74098  0.87542  0.99913  1
 O  O21  1  0.23018  0.38246  0.49499  1
 O  O22  1  0.76982  0.11754  0.49499  1
 O  O23  1  0.74098  0.12458  0.00087  1
 O  O24  1  0.50000  0.48781  0.76107  1
 O  O25  1  0.25902  0.62458  0.99913  1
 O  O26  1  0.74098  0.62458  0.99913  1
 O  O27  1  0.25902  0.87542  0.99913  1
 O  O28  1  0.23018  0.61754  0.50501  1
 O  O29  1  0.23018  0.88246  0.50501  1
 O  O30  1  0.23018  0.11754  0.49499  1
 O  O31  1  0.25902  0.37542  0.00087  1
 O  O32  1  0.76982  0.61754  0.50501  1
 Si  Si1  1  0.00000  0.88107  0.39103  1
 Si  Si2  1  0.00000  0.38107  0.60897  1
 Si  Si3  1  0.00000  0.61893  0.39103  1
 Si  Si4  1  0.00000  0.11893  0.60897  1
 Si  Si5  1  0.50000  0.62365  0.11242  1
 Si  Si6  1  0.50000  0.87635  0.11242  1
 Si  Si7  1  0.50000  0.37635  0.88758  1
 Si  Si8  1  0.50000  0.12365  0.88758  1
