CIF file written using JARVIS-Tools package.
data_ZnGa3N3O
_symmetry_space_group_name_H-M  'P1'
_cell_length_a       6.45825
_cell_length_b       6.45871
_cell_length_c       10.5128
_cell_angle_alpha    89.9025
_cell_angle_beta     90.0284
_cell_angle_gamma    120.002

_symmetry_Int_Tables_number  1
_chemical_formula_structural  ZnGa3N3O
_chemical_formula_sum  Zn4Ga2N2O4
_cell_volume  379.7551973983885
_cell_formula_units_Z  4
loop_
  _symmetry_equiv_pos_site_id
 _symmetry_equiv_pos_as_xyz
 1  'x, y, z'
loop_
 _atom_site_type_symbol
 _atom_site_label
 _atom_site_symmetry_multiplicity
 _atom_site_fract_x
 _atom_site_fract_y
 _atom_site_fract_z
 _atom_site_fract_occupancy
 Ga  Ga1  1  0.16131  0.34015  0.50031  1
 Ga  Ga2  1  0.83504  0.17381  0.75221  1
 Ga  Ga3  1  0.32529  0.66486  0.75052  1
 Ga  Ga4  1  0.16542  0.33136  0.00033  1
 Ga  Ga5  1  0.66430  0.84019  0.00063  1
 Ga  Ga6  1  0.16218  0.82092  0.50199  1
 Ga  Ga7  1  0.84074  0.67515  0.25216  1
 Ga  Ga8  1  0.33271  0.16469  0.75020  1
 Ga  Ga9  1  0.33033  0.66417  0.25039  1
 Ga  Ga10  1  0.84163  0.16572  0.25201  1
 Ga  Ga11  1  0.17503  0.83995  0.00184  1
 Ga  Ga12  1  0.67831  0.33791  0.50219  1
 N  N1  1  0.83671  0.17274  0.43628  1
 N  N2  1  0.32744  0.66336  0.43615  1
 N  N3  1  0.16306  0.82369  0.18579  1
 N  N4  1  0.16700  0.33319  0.68659  1
 N  N5  1  0.32311  0.16277  0.93631  1
 N  N6  1  0.33329  0.66624  0.93669  1
 N  N7  1  0.16335  0.33912  0.18580  1
 N  N8  1  0.66016  0.32288  0.68656  1
 N  N9  1  0.83856  0.16305  0.93615  1
 N  N10  1  0.83695  0.66263  0.43684  1
 N  N11  1  0.66627  0.83296  0.18744  1
 N  N12  1  0.17552  0.83855  0.68595  1
 O  O1  1  0.33358  0.16733  0.44582  1
 O  O2  1  0.67789  0.33932  0.19525  1
 O  O3  1  0.83754  0.67805  0.94553  1
 O  O4  1  0.66062  0.83789  0.69712  1
 Zn  Zn1  1  0.32289  0.16175  0.24326  1
 Zn  Zn2  1  0.66617  0.83239  0.49510  1
 Zn  Zn3  1  0.65999  0.32228  0.99612  1
 Zn  Zn4  1  0.83761  0.66092  0.74643  1
