CIF file written using JARVIS-Tools package.
data_Mg6BiMo
_symmetry_space_group_name_H-M  'Amm2'
_cell_length_a       6.17459
_cell_length_b       6.17458
_cell_length_c       5.05218
_cell_angle_alpha    90
_cell_angle_beta     90
_cell_angle_gamma    118.065

_symmetry_Int_Tables_number  38
_chemical_formula_structural  Mg6BiMo
_chemical_formula_sum  Mg6BiMo
_cell_volume  169.9671005066661
_cell_formula_units_Z  1
loop_
  _symmetry_equiv_pos_site_id
 _symmetry_equiv_pos_as_xyz
 1  'x, y, z'
loop_
 _atom_site_type_symbol
 _atom_site_label
 _atom_site_symmetry_multiplicity
 _atom_site_fract_x
 _atom_site_fract_y
 _atom_site_fract_z
 _atom_site_fract_occupancy
 Bi  Bi1  1  0.33197  0.16803  0.75000  1
 Mg  Mg1  1  0.15619  0.82037  0.25000  1
 Mg  Mg2  1  0.67963  0.34381  0.25000  1
 Mg  Mg3  1  0.66276  0.83724  0.25000  1
 Mg  Mg4  1  0.32470  0.64667  0.75000  1
 Mg  Mg5  1  0.85333  0.17530  0.75000  1
 Mg  Mg6  1  0.83389  0.66611  0.75000  1
 Mo  Mo1  1  0.15753  0.34247  0.25000  1
