CIF file written using JARVIS-Tools package.
data_FeO2
_symmetry_space_group_name_H-M  'I4_1/amd'
_cell_length_a       3.70064
_cell_length_b       3.70065
_cell_length_c       5.11926
_cell_angle_alpha    68.8111
_cell_angle_beta     111.189
_cell_angle_gamma    90

_symmetry_Int_Tables_number  141
_chemical_formula_structural  FeO2
_chemical_formula_sum  Fe2O4
_cell_volume  60.256062654622994
_cell_formula_units_Z  2
loop_
  _symmetry_equiv_pos_site_id
 _symmetry_equiv_pos_as_xyz
 1  'x, y, z'
loop_
 _atom_site_type_symbol
 _atom_site_label
 _atom_site_symmetry_multiplicity
 _atom_site_fract_x
 _atom_site_fract_y
 _atom_site_fract_z
 _atom_site_fract_occupancy
 Fe  Fe1  1  0.00000  0.00000  0.00000  1
 Fe  Fe2  1  0.25000  0.25000  0.50000  1
 O  O1  1  0.46054  0.03946  0.92108  1
 O  O2  1  0.78946  0.21054  0.57892  1
 O  O3  1  0.21054  0.78946  0.42108  1
 O  O4  1  0.03946  0.46054  0.07892  1
