CIF file written using JARVIS-Tools package.
data_Ca2GaCu2
_symmetry_space_group_name_H-M  'Immm'
_cell_length_a       4.26438
_cell_length_b       5.47397
_cell_length_c       5.62312
_cell_angle_alpha    119.126
_cell_angle_beta     112.283
_cell_angle_gamma    90

_symmetry_Int_Tables_number  71
_chemical_formula_structural  Ca2GaCu2
_chemical_formula_sum  Ca2GaCu2
_cell_volume  103.2972623097224
_cell_formula_units_Z  1
loop_
  _symmetry_equiv_pos_site_id
 _symmetry_equiv_pos_as_xyz
 1  'x, y, z'
loop_
 _atom_site_type_symbol
 _atom_site_label
 _atom_site_symmetry_multiplicity
 _atom_site_fract_x
 _atom_site_fract_y
 _atom_site_fract_z
 _atom_site_fract_occupancy
 Ca  Ca1  1  0.80216  0.30216  0.60432  1
 Ca  Ca2  1  0.19784  0.69784  0.39568  1
 Cu  Cu1  1  0.50000  0.73736  0.00000  1
 Cu  Cu2  1  0.50000  0.26264  -0.00000  1
 Ga  Ga1  1  0.00000  0.00000  0.00000  1
