CIF file written using JARVIS-Tools package.
data_Hf2Bi
_symmetry_space_group_name_H-M  'C2/m'
_cell_length_a       3.83619
_cell_length_b       5.81431
_cell_length_c       7.40364
_cell_angle_alpha    112.597
_cell_angle_beta     90
_cell_angle_gamma    109.262

_symmetry_Int_Tables_number  12
_chemical_formula_structural  Hf2Bi
_chemical_formula_sum  Hf4Bi2
_cell_volume  142.393445732229
_cell_formula_units_Z  2
loop_
  _symmetry_equiv_pos_site_id
 _symmetry_equiv_pos_as_xyz
 1  'x, y, z'
loop_
 _atom_site_type_symbol
 _atom_site_label
 _atom_site_symmetry_multiplicity
 _atom_site_fract_x
 _atom_site_fract_y
 _atom_site_fract_z
 _atom_site_fract_occupancy
 Bi  Bi1  1  0.82959  0.65917  0.36668  1
 Bi  Bi2  1  0.17041  0.34083  0.63332  1
 Hf  Hf1  1  0.14886  0.29771  0.05037  1
 Hf  Hf2  1  0.85114  0.70229  0.94963  1
 Hf  Hf3  1  0.48152  0.96303  0.72961  1
 Hf  Hf4  1  0.51848  0.03697  0.27039  1
