CIF file written using JARVIS-Tools package.
data_Li2Nb2Fe3O10
_symmetry_space_group_name_H-M  'P1'
_cell_length_a       5.14251
_cell_length_b       5.06777
_cell_length_c       8.0825
_cell_angle_alpha    72.6328
_cell_angle_beta     70.3562
_cell_angle_gamma    79.5489

_symmetry_Int_Tables_number  1
_chemical_formula_structural  Li2Nb2Fe3O10
_chemical_formula_sum  Li2Nb2Fe3O0
_cell_volume  188.56423582853313
_cell_formula_units_Z  1
loop_
  _symmetry_equiv_pos_site_id
 _symmetry_equiv_pos_as_xyz
 1  'x, y, z'
loop_
 _atom_site_type_symbol
 _atom_site_label
 _atom_site_symmetry_multiplicity
 _atom_site_fract_x
 _atom_site_fract_y
 _atom_site_fract_z
 _atom_site_fract_occupancy
 Fe  Fe1  1  0.49090  0.00553  0.98659  1
 Fe  Fe2  1  0.98918  0.67647  0.09837  1
 Fe  Fe3  1  0.99140  0.30819  0.89657  1
 Li  Li1  1  0.63523  0.48503  0.57947  1
 Li  Li2  1  0.42971  0.41514  0.24551  1
 Nb  Nb1  1  0.93755  0.05506  0.31170  1
 Nb  Nb2  1  0.06333  0.89796  0.67772  1
 O  O1  1  0.76649  0.43241  0.31599  1
 O  O2  1  0.22908  0.77002  0.20749  1
 O  O3  1  0.22560  0.11196  0.44010  1
 O  O4  1  0.75999  0.19429  0.76722  1
 O  O5  1  0.77359  0.65099  0.95301  1
 O  O6  1  0.75088  0.02042  0.13914  1
 O  O7  1  0.21128  0.31822  0.07707  1
 O  O8  1  0.78217  0.83895  0.55504  1
 O  O9  1  0.21573  0.92507  0.87183  1
 O  O10  1  0.23495  0.53061  0.67805  1
