CIF file written using JARVIS-Tools package.
data_HgCN2
_symmetry_space_group_name_H-M  'Pbca'
_cell_length_a       6.63579
_cell_length_b       6.99731
_cell_length_c       10.6766
_cell_angle_alpha    90
_cell_angle_beta     90
_cell_angle_gamma    90

_symmetry_Int_Tables_number  61
_chemical_formula_structural  HgCN2
_chemical_formula_sum  Hg8C8N6
_cell_volume  495.7428494864668
_cell_formula_units_Z  8
loop_
  _symmetry_equiv_pos_site_id
 _symmetry_equiv_pos_as_xyz
 1  'x, y, z'
loop_
 _atom_site_type_symbol
 _atom_site_label
 _atom_site_symmetry_multiplicity
 _atom_site_fract_x
 _atom_site_fract_y
 _atom_site_fract_z
 _atom_site_fract_occupancy
 C  C1  1  0.33479  0.89998  0.88560  1
 C  C2  1  0.83479  0.60002  0.11440  1
 C  C3  1  0.16521  0.10002  0.38560  1
 C  C4  1  0.16521  0.39998  0.88560  1
 C  C5  1  0.66521  0.10002  0.11440  1
 C  C6  1  0.83479  0.89998  0.61440  1
 C  C7  1  0.33479  0.60002  0.38560  1
 C  C8  1  0.66521  0.39998  0.61440  1
 Hg  Hg1  1  0.65417  0.29364  0.87128  1
 Hg  Hg2  1  0.15417  0.29364  0.62872  1
 Hg  Hg3  1  0.65417  0.20636  0.37128  1
 Hg  Hg4  1  0.84583  0.79364  0.87128  1
 Hg  Hg5  1  0.34583  0.70636  0.12872  1
 Hg  Hg6  1  0.84583  0.70636  0.37128  1
 Hg  Hg7  1  0.34583  0.79364  0.62872  1
 Hg  Hg8  1  0.15417  0.20636  0.12872  1
 N  N1  1  0.07448  0.05584  0.28903  1
 N  N2  1  0.42552  0.55584  0.28903  1
 N  N3  1  0.57448  0.44416  0.71097  1
 N  N4  1  0.07448  0.44416  0.78903  1
 N  N5  1  0.57448  0.05584  0.21097  1
 N  N6  1  0.73865  0.62587  0.01705  1
 N  N7  1  0.23865  0.87413  0.98295  1
 N  N8  1  0.26135  0.37413  0.98295  1
 N  N9  1  0.76135  0.37413  0.51705  1
 N  N10  1  0.76135  0.12587  0.01705  1
 N  N11  1  0.73865  0.87413  0.51705  1
 N  N12  1  0.23865  0.62587  0.48295  1
 N  N13  1  0.42552  0.94416  0.78903  1
 N  N14  1  0.92552  0.55584  0.21097  1
 N  N15  1  0.26135  0.12587  0.48295  1
 N  N16  1  0.92552  0.94416  0.71097  1
