CIF file written using JARVIS-Tools package.
data_KCN
_symmetry_space_group_name_H-M  'Cc'
_cell_length_a       4.31759
_cell_length_b       4.31759
_cell_length_c       8.31847
_cell_angle_alpha    92.6369
_cell_angle_beta     104.255
_cell_angle_gamma    115.91

_symmetry_Int_Tables_number  9
_chemical_formula_structural  KCN
_chemical_formula_sum  K2C2N2
_cell_volume  133.07304326272285
_cell_formula_units_Z  2
loop_
  _symmetry_equiv_pos_site_id
 _symmetry_equiv_pos_as_xyz
 1  'x, y, z'
loop_
 _atom_site_type_symbol
 _atom_site_label
 _atom_site_symmetry_multiplicity
 _atom_site_fract_x
 _atom_site_fract_y
 _atom_site_fract_z
 _atom_site_fract_occupancy
 C  C1  1  0.48137  0.70389  0.33499  1
 C  C2  1  0.63110  0.35362  0.83499  1
 K  K1  1  0.97367  0.44855  0.54164  1
 K  K2  1  0.09309  0.06798  0.04164  1
 N  N1  1  0.58639  0.83998  0.22636  1
 N  N2  1  0.38638  0.13998  0.72636  1
