CIF file written using JARVIS-Tools package.
data_Na5Fe3F14
_symmetry_space_group_name_H-M  'P2_1/c'
_cell_length_a       7.22689
_cell_length_b       7.37319
_cell_length_c       10.3621
_cell_angle_alpha    90.3959
_cell_angle_beta     90
_cell_angle_gamma    90

_symmetry_Int_Tables_number  14
_chemical_formula_structural  Na5Fe3F14
_chemical_formula_sum  Na0Fe6F28
_cell_volume  552.1334651077494
_cell_formula_units_Z  2
loop_
  _symmetry_equiv_pos_site_id
 _symmetry_equiv_pos_as_xyz
 1  'x, y, z'
loop_
 _atom_site_type_symbol
 _atom_site_label
 _atom_site_symmetry_multiplicity
 _atom_site_fract_x
 _atom_site_fract_y
 _atom_site_fract_z
 _atom_site_fract_occupancy
 F  F1  1  0.75820  0.57147  0.54176  1
 F  F2  1  0.53462  0.52852  0.31638  1
 F  F3  1  0.28418  0.04128  0.38983  1
 F  F4  1  0.46538  0.47148  0.68362  1
 F  F5  1  0.51385  0.80198  0.10861  1
 F  F6  1  0.01385  0.69802  0.39139  1
 F  F7  1  0.56995  0.84658  0.86628  1
 F  F8  1  0.33987  0.04631  0.64689  1
 F  F9  1  0.06995  0.65342  0.63372  1
 F  F10  1  0.59092  0.25096  0.48602  1
 F  F11  1  0.74180  0.07147  0.04176  1
 F  F12  1  0.93005  0.34658  0.36628  1
 F  F13  1  0.16013  0.54631  0.14689  1
 F  F14  1  0.43005  0.15342  0.13372  1
 F  F15  1  0.78418  0.45872  0.11017  1
 F  F16  1  0.96538  0.02852  0.81638  1
 F  F17  1  0.66013  0.95369  0.35311  1
 F  F18  1  0.40908  0.74904  0.51398  1
 F  F19  1  0.71582  0.95872  0.61017  1
 F  F20  1  0.21582  0.54128  0.88983  1
 F  F21  1  0.25820  0.92853  0.95824  1
 F  F22  1  0.24180  0.42853  0.45824  1
 F  F23  1  0.48615  0.19802  0.89139  1
 F  F24  1  0.03462  0.97148  0.18362  1
 F  F25  1  0.09092  0.24904  0.01398  1
 F  F26  1  0.83987  0.45369  0.85311  1
 F  F27  1  0.90908  0.75096  0.98602  1
 F  F28  1  0.98615  0.30198  0.60861  1
 Fe  Fe1  1  0.00000  0.50000  -0.00000  1
 Fe  Fe2  1  0.00000  0.00000  0.00000  1
 Fe  Fe3  1  0.50000  0.00000  0.50000  1
 Fe  Fe4  1  0.00000  0.50000  0.50000  1
 Fe  Fe5  1  0.50000  0.00000  0.00000  1
 Fe  Fe6  1  0.50000  0.50000  0.50000  1
 Na  Na1  1  0.81213  0.73737  0.75151  1
 Na  Na2  1  0.27851  0.77731  0.26402  1
 Na  Na3  1  0.50000  0.50000  -0.00000  1
 Na  Na4  1  0.00000  0.00000  0.50000  1
 Na  Na5  1  0.77851  0.72269  0.23598  1
 Na  Na6  1  0.22149  0.27731  0.76402  1
 Na  Na7  1  0.72149  0.22269  0.73598  1
 Na  Na8  1  0.68787  0.23737  0.25151  1
 Na  Na9  1  0.18787  0.26263  0.24849  1
 Na  Na10  1  0.31213  0.76263  0.74849  1
