CIF file written using JARVIS-Tools package.
data_Mg6VCr
_symmetry_space_group_name_H-M  'Amm2'
_cell_length_a       6.26355
_cell_length_b       6.26356
_cell_length_c       4.63446
_cell_angle_alpha    90
_cell_angle_beta     90
_cell_angle_gamma    123.543

_symmetry_Int_Tables_number  38
_chemical_formula_structural  Mg6VCr
_chemical_formula_sum  Mg6VCr
_cell_volume  151.54187104051394
_cell_formula_units_Z  1
loop_
  _symmetry_equiv_pos_site_id
 _symmetry_equiv_pos_as_xyz
 1  'x, y, z'
loop_
 _atom_site_type_symbol
 _atom_site_label
 _atom_site_symmetry_multiplicity
 _atom_site_fract_x
 _atom_site_fract_y
 _atom_site_fract_z
 _atom_site_fract_occupancy
 Cr  Cr1  1  0.29907  0.20093  0.75000  1
 Mg  Mg1  1  0.18271  0.84076  0.25000  1
 Mg  Mg2  1  0.65924  0.31729  0.25000  1
 Mg  Mg3  1  0.67087  0.82913  0.25000  1
 Mg  Mg4  1  0.31901  0.65851  0.75000  1
 Mg  Mg5  1  0.84149  0.18099  0.75000  1
 Mg  Mg6  1  0.82808  0.67192  0.75000  1
 V  V1  1  0.19954  0.30046  0.25000  1
