CIF file written using JARVIS-Tools package.
data_SeBr
_symmetry_space_group_name_H-M  'P2_1/c'
_cell_length_a       4.85621
_cell_length_b       7.4255
_cell_length_c       14.0917
_cell_angle_alpha    90
_cell_angle_beta     90
_cell_angle_gamma    94.449

_symmetry_Int_Tables_number  14
_chemical_formula_structural  SeBr
_chemical_formula_sum  Se8Br8
_cell_volume  506.61414682909515
_cell_formula_units_Z  8
loop_
  _symmetry_equiv_pos_site_id
 _symmetry_equiv_pos_as_xyz
 1  'x, y, z'
loop_
 _atom_site_type_symbol
 _atom_site_label
 _atom_site_symmetry_multiplicity
 _atom_site_fract_x
 _atom_site_fract_y
 _atom_site_fract_z
 _atom_site_fract_occupancy
 Br  Br1  1  0.86367  0.66352  0.14553  1
 Br  Br2  1  0.63633  0.33648  0.64553  1
 Br  Br3  1  0.13633  0.33648  0.85447  1
 Br  Br4  1  0.36367  0.66352  0.35447  1
 Br  Br5  1  0.49312  0.04298  0.14715  1
 Br  Br6  1  0.00688  0.95702  0.64715  1
 Br  Br7  1  0.50688  0.95702  0.85285  1
 Br  Br8  1  0.99312  0.04298  0.35285  1
 Se  Se1  1  0.10070  0.38135  0.13644  1
 Se  Se2  1  0.39930  0.61865  0.63644  1
 Se  Se3  1  0.89930  0.61865  0.86356  1
 Se  Se4  1  0.60070  0.38135  0.36356  1
 Se  Se5  1  0.82839  0.20622  0.03802  1
 Se  Se6  1  0.67161  0.79378  0.53802  1
 Se  Se7  1  0.17161  0.79378  0.96198  1
 Se  Se8  1  0.32839  0.20622  0.46198  1
