CIF file written using JARVIS-Tools package.
data_NaNb3O8
_symmetry_space_group_name_H-M  'Pmmn'
_cell_length_a       3.831
_cell_length_b       8.90843
_cell_length_c       10.3034
_cell_angle_alpha    90
_cell_angle_beta     90
_cell_angle_gamma    90

_symmetry_Int_Tables_number  59
_chemical_formula_structural  NaNb3O8
_chemical_formula_sum  Na2Nb6O6
_cell_volume  351.63661891984145
_cell_formula_units_Z  2
loop_
  _symmetry_equiv_pos_site_id
 _symmetry_equiv_pos_as_xyz
 1  'x, y, z'
loop_
 _atom_site_type_symbol
 _atom_site_label
 _atom_site_symmetry_multiplicity
 _atom_site_fract_x
 _atom_site_fract_y
 _atom_site_fract_z
 _atom_site_fract_occupancy
 Na  Na1  1  0.75000  0.25000  0.92870  1
 Na  Na2  1  0.25000  0.75000  0.07130  1
 Nb  Nb1  1  0.25000  0.25000  0.48021  1
 Nb  Nb2  1  0.75000  0.75000  0.51979  1
 Nb  Nb3  1  0.75000  0.05618  0.24760  1
 Nb  Nb4  1  0.25000  0.55618  0.75240  1
 Nb  Nb5  1  0.25000  0.94382  0.75240  1
 Nb  Nb6  1  0.75000  0.44382  0.24760  1
 O  O1  1  0.75000  0.92004  0.12021  1
 O  O2  1  0.25000  0.40839  0.59510  1
 O  O3  1  0.75000  0.58975  0.69792  1
 O  O4  1  0.25000  0.07996  0.87979  1
 O  O5  1  0.25000  0.75000  0.57872  1
 O  O6  1  0.25000  0.75000  0.84799  1
 O  O7  1  0.25000  0.09161  0.59510  1
 O  O8  1  0.75000  0.25000  0.42128  1
 O  O9  1  0.75000  0.59161  0.40490  1
 O  O10  1  0.75000  0.25000  0.15201  1
 O  O11  1  0.75000  0.90839  0.40490  1
 O  O12  1  0.25000  0.42004  0.87979  1
 O  O13  1  0.75000  0.91025  0.69792  1
 O  O14  1  0.25000  0.08975  0.30208  1
 O  O15  1  0.75000  0.57996  0.12021  1
 O  O16  1  0.25000  0.41025  0.30208  1
