CIF file written using JARVIS-Tools package.
data_BaMg6Fe
_symmetry_space_group_name_H-M  'Amm2'
_cell_length_a       7.98164
_cell_length_b       7.98164
_cell_length_c       4.68253
_cell_angle_alpha    90
_cell_angle_beta     90
_cell_angle_gamma    134.313

_symmetry_Int_Tables_number  38
_chemical_formula_structural  BaMg6Fe
_chemical_formula_sum  BaMg6Fe
_cell_volume  213.44963204444068
_cell_formula_units_Z  1
loop_
  _symmetry_equiv_pos_site_id
 _symmetry_equiv_pos_as_xyz
 1  'x, y, z'
loop_
 _atom_site_type_symbol
 _atom_site_label
 _atom_site_symmetry_multiplicity
 _atom_site_fract_x
 _atom_site_fract_y
 _atom_site_fract_z
 _atom_site_fract_occupancy
 Ba  Ba1  1  0.27980  0.22020  0.75000  1
 Fe  Fe1  1  0.10616  0.39384  0.25000  1
 Mg  Mg1  1  0.20807  0.80424  0.25000  1
 Mg  Mg2  1  0.69576  0.29193  0.25000  1
 Mg  Mg3  1  0.68260  0.81740  0.25000  1
 Mg  Mg4  1  0.32052  0.67324  0.75000  1
 Mg  Mg5  1  0.82676  0.17948  0.75000  1
 Mg  Mg6  1  0.88034  0.61966  0.75000  1
