CIF file written using JARVIS-Tools package.
data_K4ZnP2
_symmetry_space_group_name_H-M  'R-3m'
_cell_length_a       9.30066
_cell_length_b       9.30066
_cell_length_c       9.30067
_cell_angle_alpha    35.0543
_cell_angle_beta     35.0543
_cell_angle_gamma    35.0543

_symmetry_Int_Tables_number  166
_chemical_formula_structural  K4ZnP2
_chemical_formula_sum  K4ZnP2
_cell_volume  236.99150311866273
_cell_formula_units_Z  1
loop_
  _symmetry_equiv_pos_site_id
 _symmetry_equiv_pos_as_xyz
 1  'x, y, z'
loop_
 _atom_site_type_symbol
 _atom_site_label
 _atom_site_symmetry_multiplicity
 _atom_site_fract_x
 _atom_site_fract_y
 _atom_site_fract_z
 _atom_site_fract_occupancy
 K  K1  1  0.20843  0.20843  0.20843  1
 K  K2  1  0.79157  0.79157  0.79157  1
 K  K3  1  0.38473  0.38473  0.38473  1
 K  K4  1  0.61527  0.61527  0.61527  1
 P  P1  1  0.08509  0.08509  0.08509  1
 P  P2  1  0.91491  0.91491  0.91491  1
 Zn  Zn1  1  0.00000  0.00000  0.00000  1
