CIF file written using JARVIS-Tools package.
data_Ta5Sb4
_symmetry_space_group_name_H-M  'I4/m'
_cell_length_a       3.59462
_cell_length_b       7.54117
_cell_length_c       7.54117
_cell_angle_alpha    86.7437
_cell_angle_beta     76.2117
_cell_angle_gamma    76.2118

_symmetry_Int_Tables_number  87
_chemical_formula_structural  Ta5Sb4
_chemical_formula_sum  Ta5Sb4
_cell_volume  192.81146581009006
_cell_formula_units_Z  1
loop_
  _symmetry_equiv_pos_site_id
 _symmetry_equiv_pos_as_xyz
 1  'x, y, z'
loop_
 _atom_site_type_symbol
 _atom_site_label
 _atom_site_symmetry_multiplicity
 _atom_site_fract_x
 _atom_site_fract_y
 _atom_site_fract_z
 _atom_site_fract_occupancy
 Sb  Sb1  1  0.70406  0.24172  0.35016  1
 Sb  Sb2  1  0.05422  0.64984  0.24172  1
 Sb  Sb3  1  0.94578  0.35016  0.75828  1
 Sb  Sb4  1  0.29594  0.75828  0.64984  1
 Ta  Ta1  1  0.62537  0.06022  0.68904  1
 Ta  Ta2  1  0.31441  0.31096  0.06022  1
 Ta  Ta3  1  0.68559  0.68904  0.93978  1
 Ta  Ta4  1  0.37463  0.93978  0.31096  1
 Ta  Ta5  1  0.00000  0.00000  0.00000  1
