CIF file written using JARVIS-Tools package.
data_Mg17Al12
_symmetry_space_group_name_H-M  'I-43m'
_cell_length_a       9.13631
_cell_length_b       9.13631
_cell_length_c       9.13631
_cell_angle_alpha    109.471
_cell_angle_beta     109.471
_cell_angle_gamma    109.471

_symmetry_Int_Tables_number  217
_chemical_formula_structural  Mg17Al12
_chemical_formula_sum  Mg7Al2
_cell_volume  587.071703898985
_cell_formula_units_Z  1
loop_
  _symmetry_equiv_pos_site_id
 _symmetry_equiv_pos_as_xyz
 1  'x, y, z'
loop_
 _atom_site_type_symbol
 _atom_site_label
 _atom_site_symmetry_multiplicity
 _atom_site_fract_x
 _atom_site_fract_y
 _atom_site_fract_z
 _atom_site_fract_occupancy
 Al  Al1  1  0.18624  0.18624  0.81870  1
 Al  Al2  1  0.36754  0.18130  0.36754  1
 Al  Al3  1  0.36754  0.36754  0.18130  1
 Al  Al4  1  0.81376  0.63246  -0.00000  1
 Al  Al5  1  -0.00000  0.81376  0.63246  1
 Al  Al6  1  0.63246  0.81376  -0.00000  1
 Al  Al7  1  0.18624  0.81870  0.18624  1
 Al  Al8  1  0.81376  -0.00000  0.63246  1
 Al  Al9  1  0.63246  -0.00000  0.81376  1
 Al  Al10  1  -0.00000  0.63246  0.81376  1
 Al  Al11  1  0.18130  0.36754  0.36754  1
 Al  Al12  1  0.81870  0.18624  0.18624  1
 Mg  Mg1  1  0.00000  0.31561  0.60267  1
 Mg  Mg2  1  0.65747  0.65747  0.65747  1
 Mg  Mg3  1  0.00000  0.00000  0.00000  1
 Mg  Mg4  1  -0.00000  -0.00000  0.34253  1
 Mg  Mg5  1  0.39733  0.39733  0.71294  1
 Mg  Mg6  1  0.60267  0.31561  0.00000  1
 Mg  Mg7  1  0.31561  0.60267  0.00000  1
 Mg  Mg8  1  0.71294  0.39733  0.39733  1
 Mg  Mg9  1  0.28706  0.68439  0.68439  1
 Mg  Mg10  1  0.68439  0.28706  0.68439  1
 Mg  Mg11  1  0.31561  0.00000  0.60267  1
 Mg  Mg12  1  0.60267  0.00000  0.31561  1
 Mg  Mg13  1  0.00000  0.60267  0.31561  1
 Mg  Mg14  1  0.39733  0.71294  0.39733  1
 Mg  Mg15  1  0.68439  0.68439  0.28706  1
 Mg  Mg16  1  -0.00000  0.34253  -0.00000  1
 Mg  Mg17  1  0.34253  0.00000  0.00000  1
