CIF file written using JARVIS-Tools package.
data_KC10
_symmetry_space_group_name_H-M  'Im-3'
_cell_length_a       9.81446
_cell_length_b       9.81446
_cell_length_c       9.81446
_cell_angle_alpha    109.471
_cell_angle_beta     109.471
_cell_angle_gamma    109.471

_symmetry_Int_Tables_number  204
_chemical_formula_structural  KC10
_chemical_formula_sum  K6C60
_cell_volume  727.7408554255493
_cell_formula_units_Z  6
loop_
  _symmetry_equiv_pos_site_id
 _symmetry_equiv_pos_as_xyz
 1  'x, y, z'
loop_
 _atom_site_type_symbol
 _atom_site_label
 _atom_site_symmetry_multiplicity
 _atom_site_fract_x
 _atom_site_fract_y
 _atom_site_fract_z
 _atom_site_fract_occupancy
 C  C1  1  0.56622  0.70706  0.73179  1
 C  C2  1  0.24594  0.93691  0.30903  1
 C  C3  1  0.93691  0.69097  0.62788  1
 C  C4  1  0.75406  0.06309  0.69097  1
 C  C5  1  0.93691  0.30903  0.24594  1
 C  C6  1  0.62788  0.93691  0.69097  1
 C  C7  1  0.06309  0.69097  0.75406  1
 C  C8  1  0.06309  0.30903  0.37212  1
 C  C9  1  0.37212  0.06309  0.30903  1
 C  C10  1  0.30903  0.24594  0.93691  1
 C  C11  1  0.69097  0.62788  0.93691  1
 C  C12  1  0.69097  0.75406  0.06309  1
 C  C13  1  0.37211  0.39546  0.22996  1
 C  C14  1  0.14215  0.77004  0.16550  1
 C  C15  1  0.97665  0.83450  0.60454  1
 C  C16  1  0.85785  0.02335  0.62789  1
 C  C17  1  0.77004  0.16550  0.14215  1
 C  C18  1  0.60454  0.97665  0.83450  1
 C  C19  1  0.02335  0.62789  0.85785  1
 C  C20  1  0.22996  0.37211  0.39546  1
 C  C21  1  0.39546  0.22996  0.37211  1
 C  C22  1  0.16550  0.14215  0.77004  1
 C  C23  1  0.83450  0.60454  0.97665  1
 C  C24  1  0.62789  0.85785  0.02335  1
 C  C25  1  0.62789  0.60454  0.77004  1
 C  C26  1  0.85785  0.22996  0.83450  1
 C  C27  1  0.02335  0.16550  0.39546  1
 C  C28  1  0.14215  0.97665  0.37211  1
 C  C29  1  0.22996  0.83450  0.85785  1
 C  C30  1  0.39546  0.02335  0.16550  1
 C  C31  1  0.97665  0.37211  0.14215  1
 C  C32  1  0.30903  0.37212  0.06309  1
 C  C33  1  0.60454  0.77004  0.62789  1
 C  C34  1  0.56622  0.83442  0.85916  1
 C  C35  1  0.16550  0.39546  0.02335  1
 C  C36  1  0.37211  0.14215  0.97665  1
 C  C37  1  0.43378  0.29294  0.26821  1
 C  C38  1  0.16558  0.73179  0.02473  1
 C  C39  1  0.14084  0.97527  0.70706  1
 C  C40  1  0.83442  0.85916  0.56622  1
 C  C41  1  0.73179  0.02473  0.16558  1
 C  C42  1  0.70706  0.14084  0.97527  1
 C  C43  1  0.85916  0.56622  0.83442  1
 C  C44  1  0.77004  0.62789  0.60454  1
 C  C45  1  0.29294  0.26821  0.43378  1
 C  C46  1  0.02473  0.16558  0.73179  1
 C  C47  1  0.26821  0.43378  0.29294  1
 C  C48  1  0.83450  0.85785  0.22996  1
 C  C49  1  0.43378  0.16558  0.14084  1
 C  C50  1  0.02473  0.29294  0.85916  1
 C  C51  1  0.97527  0.70706  0.14084  1
 C  C52  1  0.70706  0.73179  0.56622  1
 C  C53  1  0.73179  0.56622  0.70706  1
 C  C54  1  0.97527  0.83442  0.26821  1
 C  C55  1  0.29294  0.85916  0.02473  1
 C  C56  1  0.26821  0.97527  0.83442  1
 C  C57  1  0.16558  0.14084  0.43378  1
 C  C58  1  0.85916  0.02473  0.29294  1
 C  C59  1  0.83442  0.26821  0.97527  1
 C  C60  1  0.14084  0.43378  0.16558  1
 K  K1  1  0.50000  0.21915  0.71915  1
 K  K2  1  0.71915  0.50000  0.21915  1
 K  K3  1  0.50000  0.78085  0.28085  1
 K  K4  1  0.28085  0.50000  0.78085  1
 K  K5  1  0.78085  0.28085  0.50000  1
 K  K6  1  0.21915  0.71915  0.50000  1
