CIF file written using JARVIS-Tools package.
data_Mg6FeBi
_symmetry_space_group_name_H-M  'Amm2'
_cell_length_a       6.40624
_cell_length_b       6.40624
_cell_length_c       4.92909
_cell_angle_alpha    90
_cell_angle_beta     90
_cell_angle_gamma    120.783

_symmetry_Int_Tables_number  38
_chemical_formula_structural  Mg6FeBi
_chemical_formula_sum  Mg6FeBi
_cell_volume  173.78912084340394
_cell_formula_units_Z  1
loop_
  _symmetry_equiv_pos_site_id
 _symmetry_equiv_pos_as_xyz
 1  'x, y, z'
loop_
 _atom_site_type_symbol
 _atom_site_label
 _atom_site_symmetry_multiplicity
 _atom_site_fract_x
 _atom_site_fract_y
 _atom_site_fract_z
 _atom_site_fract_occupancy
 Bi  Bi1  1  0.33228  0.16772  0.75000  1
 Fe  Fe1  1  0.13513  0.36487  0.25000  1
 Mg  Mg1  1  0.16195  0.81025  0.25000  1
 Mg  Mg2  1  0.68975  0.33805  0.25000  1
 Mg  Mg3  1  0.66677  0.83323  0.25000  1
 Mg  Mg4  1  0.32712  0.64464  0.75000  1
 Mg  Mg5  1  0.85536  0.17288  0.75000  1
 Mg  Mg6  1  0.83165  0.66835  0.75000  1
