CIF file written using JARVIS-Tools package.
data_K2Zr
_symmetry_space_group_name_H-M  'Cmcm'
_cell_length_a       6.46043
_cell_length_b       6.46043
_cell_length_c       7.70864
_cell_angle_alpha    90
_cell_angle_beta     90
_cell_angle_gamma    120.029

_symmetry_Int_Tables_number  63
_chemical_formula_structural  K2Zr
_chemical_formula_sum  K4Zr2
_cell_volume  278.55137768669306
_cell_formula_units_Z  2
loop_
  _symmetry_equiv_pos_site_id
 _symmetry_equiv_pos_as_xyz
 1  'x, y, z'
loop_
 _atom_site_type_symbol
 _atom_site_label
 _atom_site_symmetry_multiplicity
 _atom_site_fract_x
 _atom_site_fract_y
 _atom_site_fract_z
 _atom_site_fract_occupancy
 K  K1  1  0.33391  0.66609  0.75000  1
 K  K2  1  0.66609  0.33391  0.25000  1
 K  K3  1  0.00000  0.00000  0.50000  1
 K  K4  1  0.00000  0.00000  0.00000  1
 Zr  Zr1  1  0.66737  0.33263  0.75000  1
 Zr  Zr2  1  0.33263  0.66737  0.25000  1
