CIF file written using JARVIS-Tools package.
data_ZrP2O7
_symmetry_space_group_name_H-M  'Pa-3'
_cell_length_a       8.50876
_cell_length_b       8.50876
_cell_length_c       8.50876
_cell_angle_alpha    90
_cell_angle_beta     90
_cell_angle_gamma    90

_symmetry_Int_Tables_number  205
_chemical_formula_structural  ZrP2O7
_chemical_formula_sum  Zr4P8O28
_cell_volume  616.0254111423927
_cell_formula_units_Z  4
loop_
  _symmetry_equiv_pos_site_id
 _symmetry_equiv_pos_as_xyz
 1  'x, y, z'
loop_
 _atom_site_type_symbol
 _atom_site_label
 _atom_site_symmetry_multiplicity
 _atom_site_fract_x
 _atom_site_fract_y
 _atom_site_fract_z
 _atom_site_fract_occupancy
 O  O1  1  0.55707  0.72377  0.07878  1
 O  O2  1  0.22377  0.42122  0.44293  1
 O  O3  1  0.72377  0.07878  0.55707  1
 O  O4  1  0.42122  0.44293  0.22377  1
 O  O5  1  0.27623  0.92122  0.44293  1
 O  O6  1  0.07878  0.94293  0.22377  1
 O  O7  1  0.22377  0.07878  0.94293  1
 O  O8  1  0.92122  0.44293  0.27623  1
 O  O9  1  0.55707  0.77623  0.57878  1
 O  O10  1  0.42122  0.05707  0.72377  1
 O  O11  1  0.05707  0.72377  0.42122  1
 O  O12  1  0.44293  0.27623  0.92122  1
 O  O13  1  0.94293  0.22377  0.07878  1
 O  O14  1  0.50000  0.50000  0.50000  1
 O  O15  1  0.00000  0.50000  0.00000  1
 O  O16  1  0.00000  0.00000  0.50000  1
 O  O17  1  0.50000  0.00000  0.00000  1
 O  O18  1  0.77623  0.57878  0.55707  1
 O  O19  1  0.05707  0.77623  0.92122  1
 O  O20  1  0.72377  0.42122  0.05707  1
 O  O21  1  0.94293  0.27623  0.57878  1
 O  O22  1  0.57878  0.55707  0.77623  1
 O  O23  1  0.57878  0.94293  0.27623  1
 O  O24  1  0.77623  0.92122  0.05707  1
 O  O25  1  0.92122  0.05707  0.77623  1
 O  O26  1  0.27623  0.57878  0.94293  1
 O  O27  1  0.07878  0.55707  0.72377  1
 O  O28  1  0.44293  0.22377  0.42122  1
 P  P1  1  0.39259  0.39259  0.39259  1
 P  P2  1  0.10741  0.60741  0.89259  1
 P  P3  1  0.89259  0.10741  0.60741  1
 P  P4  1  0.10741  0.89259  0.39259  1
 P  P5  1  0.89259  0.39259  0.10741  1
 P  P6  1  0.39259  0.10741  0.89259  1
 P  P7  1  0.60741  0.60741  0.60741  1
 P  P8  1  0.60741  0.89259  0.10741  1
 Zr  Zr1  1  0.00000  0.00000  0.00000  1
 Zr  Zr2  1  0.50000  0.00000  0.50000  1
 Zr  Zr3  1  0.50000  0.50000  0.00000  1
 Zr  Zr4  1  0.00000  0.50000  0.50000  1
