CIF file written using JARVIS-Tools package.
data_Mg6CdB
_symmetry_space_group_name_H-M  'Amm2'
_cell_length_a       6.76421
_cell_length_b       6.76422
_cell_length_c       4.54147
_cell_angle_alpha    90
_cell_angle_beta     90
_cell_angle_gamma    126.951

_symmetry_Int_Tables_number  38
_chemical_formula_structural  Mg6CdB
_chemical_formula_sum  Mg6CdB
_cell_volume  166.05763398189526
_cell_formula_units_Z  1
loop_
  _symmetry_equiv_pos_site_id
 _symmetry_equiv_pos_as_xyz
 1  'x, y, z'
loop_
 _atom_site_type_symbol
 _atom_site_label
 _atom_site_symmetry_multiplicity
 _atom_site_fract_x
 _atom_site_fract_y
 _atom_site_fract_z
 _atom_site_fract_occupancy
 B  B1  1  0.41396  0.08604  0.75000  1
 Cd  Cd1  1  0.15862  0.34138  0.25000  1
 Mg  Mg1  1  0.17064  0.87792  0.25000  1
 Mg  Mg2  1  0.62208  0.32936  0.25000  1
 Mg  Mg3  1  0.67138  0.82862  0.25000  1
 Mg  Mg4  1  0.31880  0.68091  0.75000  1
 Mg  Mg5  1  0.81909  0.18120  0.75000  1
 Mg  Mg6  1  0.82544  0.67456  0.75000  1
