CIF file written using JARVIS-Tools package.
data_SrMgP3N5O2
_symmetry_space_group_name_H-M  'P2_1/c'
_cell_length_a       6.97996
_cell_length_b       6.65693
_cell_length_c       13.9489
_cell_angle_alpha    90
_cell_angle_beta     118.366
_cell_angle_gamma    90

_symmetry_Int_Tables_number  14
_chemical_formula_structural  SrMgP3N5O2
_chemical_formula_sum  Sr4Mg4P2N20O8
_cell_volume  570.3159711934935
_cell_formula_units_Z  4
loop_
  _symmetry_equiv_pos_site_id
 _symmetry_equiv_pos_as_xyz
 1  'x, y, z'
loop_
 _atom_site_type_symbol
 _atom_site_label
 _atom_site_symmetry_multiplicity
 _atom_site_fract_x
 _atom_site_fract_y
 _atom_site_fract_z
 _atom_site_fract_occupancy
 Mg  Mg1  1  0.02054  0.49311  0.88513  1
 Mg  Mg2  1  0.97946  0.99311  0.61487  1
 Mg  Mg3  1  0.97946  0.50689  0.11487  1
 Mg  Mg4  1  0.02054  0.00689  0.38513  1
 N  N1  1  0.27174  0.91915  0.99831  1
 N  N2  1  0.48625  0.70160  0.70271  1
 N  N3  1  0.48625  0.79840  0.20271  1
 N  N4  1  0.51375  0.29840  0.29729  1
 N  N5  1  0.72826  0.41915  0.50169  1
 N  N6  1  0.05261  0.81146  0.11138  1
 N  N7  1  0.27174  0.58085  0.49831  1
 N  N8  1  0.72826  0.08085  0.00169  1
 N  N9  1  0.17841  0.47711  0.30322  1
 N  N10  1  0.17841  0.02289  0.80322  1
 N  N11  1  0.82159  0.52289  0.69678  1
 N  N12  1  0.94739  0.18854  0.88862  1
 N  N13  1  0.89389  0.79477  0.83880  1
 N  N14  1  0.05261  0.68854  0.61138  1
 N  N15  1  0.51375  0.20160  0.79729  1
 N  N16  1  0.89389  0.70523  0.33880  1
 N  N17  1  0.10611  0.20523  0.16120  1
 N  N18  1  0.10611  0.29477  0.66120  1
 N  N19  1  0.94739  0.31146  0.38862  1
 N  N20  1  0.82159  0.97711  0.19678  1
 O  O1  1  0.71120  0.59217  0.12909  1
 O  O2  1  0.22112  0.94959  0.55017  1
 O  O3  1  0.77888  0.44959  0.94983  1
 O  O4  1  0.77888  0.05041  0.44983  1
 O  O5  1  0.22112  0.55041  0.05017  1
 O  O6  1  0.28880  0.40783  0.87091  1
 O  O7  1  0.28880  0.09217  0.37091  1
 O  O8  1  0.71120  0.90783  0.62909  1
 P  P1  1  0.74011  0.22382  0.91022  1
 P  P2  1  0.27632  0.25981  0.28910  1
 P  P3  1  0.72368  0.75981  0.21090  1
 P  P4  1  0.72368  0.74019  0.71090  1
 P  P5  1  0.25989  0.77618  0.08978  1
 P  P6  1  0.27632  0.24019  0.78910  1
 P  P7  1  0.25989  0.72382  0.58978  1
 P  P8  1  0.06486  0.51723  0.38075  1
 P  P9  1  0.93514  0.01723  0.11925  1
 P  P10  1  0.93514  0.48277  0.61925  1
 P  P11  1  0.06486  0.98277  0.88075  1
 P  P12  1  0.74011  0.27618  0.41022  1
 Sr  Sr1  1  0.48229  0.24903  0.10418  1
 Sr  Sr2  1  0.51771  0.74903  0.39582  1
 Sr  Sr3  1  0.51771  0.75097  0.89582  1
 Sr  Sr4  1  0.48229  0.25097  0.60418  1
