CIF file written using JARVIS-Tools package.
data_LiMg6Si
_symmetry_space_group_name_H-M  'Amm2'
_cell_length_a       6.21145
_cell_length_b       6.20033
_cell_length_c       4.96894
_cell_angle_alpha    90
_cell_angle_beta     90
_cell_angle_gamma    119.941

_symmetry_Int_Tables_number  38
_chemical_formula_structural  LiMg6Si
_chemical_formula_sum  LiMg6Si
_cell_volume  165.82942010551145
_cell_formula_units_Z  1
loop_
  _symmetry_equiv_pos_site_id
 _symmetry_equiv_pos_as_xyz
 1  'x, y, z'
loop_
 _atom_site_type_symbol
 _atom_site_label
 _atom_site_symmetry_multiplicity
 _atom_site_fract_x
 _atom_site_fract_y
 _atom_site_fract_z
 _atom_site_fract_occupancy
 Li  Li1  1  0.16610  0.33305  0.25000  1
 Mg  Mg1  1  0.66949  0.33262  0.25000  1
 Mg  Mg2  1  0.66949  0.83687  0.25000  1
 Mg  Mg3  1  0.32681  0.16250  0.75000  1
 Mg  Mg4  1  0.32681  0.66432  0.75000  1
 Mg  Mg5  1  0.83629  0.16815  0.75000  1
 Mg  Mg6  1  0.83667  0.66834  0.75000  1
 Si  Si1  1  0.16833  0.83417  0.25000  1
