CIF file written using JARVIS-Tools package.
data_SrMg2In2
_symmetry_space_group_name_H-M  'I4/mmm'
_cell_length_a       7.20022
_cell_length_b       7.20022
_cell_length_c       7.20021
_cell_angle_alpha    142.057
_cell_angle_beta     142.057
_cell_angle_gamma    54.7434

_symmetry_Int_Tables_number  139
_chemical_formula_structural  SrMg2In2
_chemical_formula_sum  SrMg2In2
_cell_volume  140.14103230692373
_cell_formula_units_Z  1
loop_
  _symmetry_equiv_pos_site_id
 _symmetry_equiv_pos_as_xyz
 1  'x, y, z'
loop_
 _atom_site_type_symbol
 _atom_site_label
 _atom_site_symmetry_multiplicity
 _atom_site_fract_x
 _atom_site_fract_y
 _atom_site_fract_z
 _atom_site_fract_occupancy
 In  In1  1  0.38846  0.38846  0.00000  1
 In  In2  1  0.61154  0.61154  -0.00000  1
 Mg  Mg1  1  0.75000  0.25000  0.50000  1
 Mg  Mg2  1  0.25000  0.75000  0.50000  1
 Sr  Sr1  1  0.00000  0.00000  0.00000  1
