CIF file written using JARVIS-Tools package.
data_AsI3
_symmetry_space_group_name_H-M  'R-3'
_cell_length_a       7.92772
_cell_length_b       7.92772
_cell_length_c       7.92773
_cell_angle_alpha    53.8033
_cell_angle_beta     53.8033
_cell_angle_gamma    53.8033

_symmetry_Int_Tables_number  148
_chemical_formula_structural  AsI3
_chemical_formula_sum  As2I6
_cell_volume  301.2847960943317
_cell_formula_units_Z  2
loop_
  _symmetry_equiv_pos_site_id
 _symmetry_equiv_pos_as_xyz
 1  'x, y, z'
loop_
 _atom_site_type_symbol
 _atom_site_label
 _atom_site_symmetry_multiplicity
 _atom_site_fract_x
 _atom_site_fract_y
 _atom_site_fract_z
 _atom_site_fract_occupancy
 As  As1  1  0.17398  0.17398  0.17398  1
 As  As2  1  0.82602  0.82602  0.82602  1
 I  I1  1  0.42074  0.07204  0.75617  1
 I  I2  1  0.75617  0.42074  0.07204  1
 I  I3  1  0.07204  0.75617  0.42074  1
 I  I4  1  0.57926  0.92796  0.24383  1
 I  I5  1  0.24383  0.57926  0.92796  1
 I  I6  1  0.92796  0.24383  0.57926  1
