CIF file written using JARVIS-Tools package.
data_CuH12N2Cl4O2
_symmetry_space_group_name_H-M  'P4_2/mnm'
_cell_length_a       7.47814
_cell_length_b       7.47814
_cell_length_c       7.8612
_cell_angle_alpha    90
_cell_angle_beta     90
_cell_angle_gamma    90

_symmetry_Int_Tables_number  136
_chemical_formula_structural  CuH12N2Cl4O2
_chemical_formula_sum  Cu2H24N4Cl8O4
_cell_volume  439.6186497136676
_cell_formula_units_Z  2
loop_
  _symmetry_equiv_pos_site_id
 _symmetry_equiv_pos_as_xyz
 1  'x, y, z'
loop_
 _atom_site_type_symbol
 _atom_site_label
 _atom_site_symmetry_multiplicity
 _atom_site_fract_x
 _atom_site_fract_y
 _atom_site_fract_z
 _atom_site_fract_occupancy
 Cl  Cl1  1  0.71938  0.28062  0.50000  1
 Cl  Cl2  1  0.28062  0.71938  0.50000  1
 Cl  Cl3  1  0.77983  0.77983  0.50000  1
 Cl  Cl4  1  0.22017  0.22017  0.50000  1
 Cl  Cl5  1  0.72017  0.27983  0.00000  1
 Cl  Cl6  1  0.27983  0.72017  0.00000  1
 Cl  Cl7  1  0.78062  0.78062  0.00000  1
 Cl  Cl8  1  0.21938  0.21938  0.00000  1
 Cu  Cu1  1  0.50000  0.50000  0.50000  1
 Cu  Cu2  1  0.00000  0.00000  0.00000  1
 H  H1  1  0.58471  0.92425  0.82596  1
 H  H2  1  0.42280  0.57720  0.17771  1
 H  H3  1  0.57720  0.42280  0.17771  1
 H  H4  1  0.07720  0.07720  0.67771  1
 H  H5  1  0.92280  0.92280  0.67771  1
 H  H6  1  0.42280  0.57720  0.82229  1
 H  H7  1  0.92280  0.92280  0.32229  1
 H  H8  1  0.57720  0.42280  0.82229  1
 H  H9  1  0.08471  0.57575  0.32596  1
 H  H10  1  0.91529  0.42425  0.32596  1
 H  H11  1  0.07575  0.41529  0.17404  1
 H  H12  1  0.41529  0.07575  0.82596  1
 H  H13  1  0.07575  0.41529  0.82596  1
 H  H14  1  0.91529  0.42425  0.67404  1
 H  H15  1  0.08471  0.57575  0.67404  1
 H  H16  1  0.58471  0.92425  0.17404  1
 H  H17  1  0.92425  0.58471  0.17404  1
 H  H18  1  0.57575  0.08471  0.67404  1
 H  H19  1  0.42425  0.91529  0.67404  1
 H  H20  1  0.07720  0.07720  0.32229  1
 H  H21  1  0.41529  0.07575  0.17404  1
 H  H22  1  0.57575  0.08471  0.32596  1
 H  H23  1  0.42425  0.91529  0.32596  1
 H  H24  1  0.92425  0.58471  0.82596  1
 N  N1  1  0.00000  0.50000  0.25000  1
 N  N2  1  0.00000  0.50000  0.75000  1
 N  N3  1  0.50000  0.00000  0.25000  1
 N  N4  1  0.50000  0.00000  0.75000  1
 O  O1  1  0.00000  0.00000  0.75170  1
 O  O2  1  0.50000  0.50000  0.74830  1
 O  O3  1  0.50000  0.50000  0.25170  1
 O  O4  1  0.00000  0.00000  0.24830  1
