CIF file written using JARVIS-Tools package.
data_Zr2Rh
_symmetry_space_group_name_H-M  'I4/mcm'
_cell_length_a       5.39691
_cell_length_b       5.39695
_cell_length_c       5.3969
_cell_angle_alpha    105.69
_cell_angle_beta     105.692
_cell_angle_gamma    117.328

_symmetry_Int_Tables_number  140
_chemical_formula_structural  Zr2Rh
_chemical_formula_sum  Zr4Rh2
_cell_volume  119.28077048495052
_cell_formula_units_Z  2
loop_
  _symmetry_equiv_pos_site_id
 _symmetry_equiv_pos_as_xyz
 1  'x, y, z'
loop_
 _atom_site_type_symbol
 _atom_site_label
 _atom_site_symmetry_multiplicity
 _atom_site_fract_x
 _atom_site_fract_y
 _atom_site_fract_z
 _atom_site_fract_occupancy
 Rh  Rh1  1  0.25000  0.25000  1.00000  1
 Rh  Rh2  1  0.75000  0.75000  0.00000  1
 Zr  Zr1  1  0.16318  0.33682  0.50000  1
 Zr  Zr2  1  0.83682  0.66318  0.50000  1
 Zr  Zr3  1  0.33682  0.83682  0.17364  1
 Zr  Zr4  1  0.66318  0.16318  0.82636  1
