CIF file written using JARVIS-Tools package.
data_InCo3SnS2
_symmetry_space_group_name_H-M  'R-3m'
_cell_length_a       5.31771
_cell_length_b       5.31771
_cell_length_c       5.46943
_cell_angle_alpha    60.9135
_cell_angle_beta     60.9135
_cell_angle_gamma    60.0001

_symmetry_Int_Tables_number  166
_chemical_formula_structural  InCo3SnS2
_chemical_formula_sum  InCo3SnS2
_cell_volume  110.85045615877675
_cell_formula_units_Z  1
loop_
  _symmetry_equiv_pos_site_id
 _symmetry_equiv_pos_as_xyz
 1  'x, y, z'
loop_
 _atom_site_type_symbol
 _atom_site_label
 _atom_site_symmetry_multiplicity
 _atom_site_fract_x
 _atom_site_fract_y
 _atom_site_fract_z
 _atom_site_fract_occupancy
 Co  Co1  1  0.50000  0.50000  0.00000  1
 Co  Co2  1  0.50000  0.00000  0.00000  1
 Co  Co3  1  0.00000  0.50000  0.00000  1
 In  In1  1  0.50000  0.50000  0.50000  1
 S  S1  1  0.22072  0.22072  0.33785  1
 S  S2  1  0.77928  0.77928  0.66215  1
 Sn  Sn1  1  0.00000  0.00000  0.00000  1
