CIF file written using JARVIS-Tools package.
data_Li2SiCuO4
_symmetry_space_group_name_H-M  'P3_121'
_cell_length_a       5.00298
_cell_length_b       5.00301
_cell_length_c       11.4109
_cell_angle_alpha    89.9953
_cell_angle_beta     89.9999
_cell_angle_gamma    120

_symmetry_Int_Tables_number  152
_chemical_formula_structural  Li2SiCuO4
_chemical_formula_sum  Li6Si3Cu3O2
_cell_volume  247.34800544150968
_cell_formula_units_Z  3
loop_
  _symmetry_equiv_pos_site_id
 _symmetry_equiv_pos_as_xyz
 1  'x, y, z'
loop_
 _atom_site_type_symbol
 _atom_site_label
 _atom_site_symmetry_multiplicity
 _atom_site_fract_x
 _atom_site_fract_y
 _atom_site_fract_z
 _atom_site_fract_occupancy
 Cu  Cu1  1  0.54353  0.54356  0.83332  1
 Cu  Cu2  1  0.45648  0.00003  0.16668  1
 Cu  Cu3  1  1.00000  0.45643  0.50000  1
 Li  Li1  1  0.45371  0.11695  0.41364  1
 Li  Li2  1  0.54629  0.66323  0.58636  1
 Li  Li3  1  0.66323  0.54629  0.08030  1
 Li  Li4  1  0.11696  0.45372  0.25302  1
 Li  Li5  1  0.33677  0.88306  0.91971  1
 Li  Li6  1  0.88304  0.33676  0.74697  1
 O  O1  1  0.68894  0.56629  0.44279  1
 O  O2  1  0.87736  0.31106  0.10945  1
 O  O3  1  0.12265  0.43371  0.89054  1
 O  O4  1  0.14028  0.29296  0.62626  1
 O  O5  1  0.84730  0.70702  0.70707  1
 O  O6  1  0.15270  0.85972  0.29293  1
 O  O7  1  0.31105  0.87735  0.55721  1
 O  O8  1  0.70705  0.84733  0.95959  1
 O  O9  1  0.29296  0.14028  0.04041  1
 O  O10  1  0.85972  0.15267  0.37373  1
 O  O11  1  0.56632  0.68895  0.22388  1
 O  O12  1  0.43368  0.12264  0.77612  1
 Si  Si1  1  -0.00000  0.18359  -0.00000  1
 Si  Si2  1  0.18360  -0.00001  0.66667  1
 Si  Si3  1  0.81640  0.81640  0.33333  1
