CIF file written using JARVIS-Tools package.
data_VAu4
_symmetry_space_group_name_H-M  'I4/m'
_cell_length_a       4.02918
_cell_length_b       5.03782
_cell_length_c       5.03782
_cell_angle_alpha    80.7981
_cell_angle_beta     66.4285
_cell_angle_gamma    66.4285

_symmetry_Int_Tables_number  87
_chemical_formula_structural  VAu4
_chemical_formula_sum  VAu4
_cell_volume  85.90652590795688
_cell_formula_units_Z  1
loop_
  _symmetry_equiv_pos_site_id
 _symmetry_equiv_pos_as_xyz
 1  'x, y, z'
loop_
 _atom_site_type_symbol
 _atom_site_label
 _atom_site_symmetry_multiplicity
 _atom_site_fract_x
 _atom_site_fract_y
 _atom_site_fract_z
 _atom_site_fract_occupancy
 Au  Au1  1  0.60337  0.60233  0.19092  1
 Au  Au2  1  0.39663  0.39767  0.80908  1
 Au  Au3  1  0.20571  0.19092  0.39767  1
 Au  Au4  1  0.79429  0.80908  0.60233  1
 V  V1  1  0.00000  0.00000  0.00000  1
