CIF file written using JARVIS-Tools package.
data_KMg6Sn
_symmetry_space_group_name_H-M  'Amm2'
_cell_length_a       7.81678
_cell_length_b       6.31554
_cell_length_c       4.96617
_cell_angle_alpha    90
_cell_angle_beta     90
_cell_angle_gamma    113.827

_symmetry_Int_Tables_number  38
_chemical_formula_structural  KMg6Sn
_chemical_formula_sum  KMg6Sn
_cell_volume  224.270300696236
_cell_formula_units_Z  1
loop_
  _symmetry_equiv_pos_site_id
 _symmetry_equiv_pos_as_xyz
 1  'x, y, z'
loop_
 _atom_site_type_symbol
 _atom_site_label
 _atom_site_symmetry_multiplicity
 _atom_site_fract_x
 _atom_site_fract_y
 _atom_site_fract_z
 _atom_site_fract_occupancy
 K  K1  1  0.09148  0.79574  0.25000  1
 Mg  Mg1  1  0.64197  0.30884  0.25000  1
 Mg  Mg2  1  0.64197  0.83312  0.25000  1
 Mg  Mg3  1  0.36277  0.17246  0.75000  1
 Mg  Mg4  1  0.36277  0.69031  0.75000  1
 Mg  Mg5  1  0.86541  0.18270  0.75000  1
 Mg  Mg6  1  0.75370  0.62685  0.75000  1
 Sn  Sn1  1  0.27993  0.38997  0.25000  1
