CIF file written using JARVIS-Tools package.
data_Ho2SiSeO4
_symmetry_space_group_name_H-M  'Pbcm'
_cell_length_a       6.01406
_cell_length_b       6.91805
_cell_length_c       10.7822
_cell_angle_alpha    90
_cell_angle_beta     90
_cell_angle_gamma    90

_symmetry_Int_Tables_number  57
_chemical_formula_structural  Ho2SiSeO4
_chemical_formula_sum  Ho8Si4Se4O6
_cell_volume  448.59823218798164
_cell_formula_units_Z  4
loop_
  _symmetry_equiv_pos_site_id
 _symmetry_equiv_pos_as_xyz
 1  'x, y, z'
loop_
 _atom_site_type_symbol
 _atom_site_label
 _atom_site_symmetry_multiplicity
 _atom_site_fract_x
 _atom_site_fract_y
 _atom_site_fract_z
 _atom_site_fract_occupancy
 Ho  Ho1  1  0.13278  0.47334  0.25000  1
 Ho  Ho2  1  0.86722  0.97334  0.25000  1
 Ho  Ho3  1  0.86722  0.52666  0.75000  1
 Ho  Ho4  1  0.39259  0.75000  0.00000  1
 Ho  Ho5  1  0.39259  0.75000  0.50000  1
 Ho  Ho6  1  0.60741  0.25000  0.00000  1
 Ho  Ho7  1  0.60741  0.25000  0.50000  1
 Ho  Ho8  1  0.13278  0.02666  0.75000  1
 O  O1  1  0.05583  0.74206  0.37865  1
 O  O2  1  0.05583  0.74206  0.12135  1
 O  O3  1  0.27683  0.43275  0.46805  1
 O  O4  1  0.27683  0.06725  0.53195  1
 O  O5  1  0.72317  0.93275  0.46805  1
 O  O6  1  0.72317  0.56725  0.96805  1
 O  O7  1  0.72317  0.56725  0.53195  1
 O  O8  1  0.94417  0.24206  0.37865  1
 O  O9  1  0.27683  0.06725  0.96805  1
 O  O10  1  0.72317  0.93275  0.03195  1
 O  O11  1  0.94417  0.25794  0.62135  1
 O  O12  1  0.05583  0.75794  0.87865  1
 O  O13  1  0.94417  0.24206  0.12135  1
 O  O14  1  0.27683  0.43275  0.03195  1
 O  O15  1  0.05583  0.75794  0.62135  1
 O  O16  1  0.94417  0.25794  0.87865  1
 Se  Se1  1  0.57635  0.62726  0.25000  1
 Se  Se2  1  0.42365  0.37274  0.75000  1
 Se  Se3  1  0.42365  0.12726  0.25000  1
 Se  Se4  1  0.57635  0.87274  0.75000  1
 Si  Si1  1  0.11208  0.25000  0.50000  1
 Si  Si2  1  0.88792  0.75000  0.50000  1
 Si  Si3  1  0.88792  0.75000  0.00000  1
 Si  Si4  1  0.11208  0.25000  0.00000  1
