CIF file written using JARVIS-Tools package.
data_CaMg
_symmetry_space_group_name_H-M  'P3m1'
_cell_length_a       3.69325
_cell_length_b       3.69325
_cell_length_c       16.5332
_cell_angle_alpha    90
_cell_angle_beta     90
_cell_angle_gamma    120

_symmetry_Int_Tables_number  156
_chemical_formula_structural  CaMg
_chemical_formula_sum  Ca3Mg3
_cell_volume  195.30140253800042
_cell_formula_units_Z  3
loop_
  _symmetry_equiv_pos_site_id
 _symmetry_equiv_pos_as_xyz
 1  'x, y, z'
loop_
 _atom_site_type_symbol
 _atom_site_label
 _atom_site_symmetry_multiplicity
 _atom_site_fract_x
 _atom_site_fract_y
 _atom_site_fract_z
 _atom_site_fract_occupancy
 Ca  Ca1  1  0.33333  0.66667  0.84294  1
 Ca  Ca2  1  0.00000  0.00000  0.64877  1
 Ca  Ca3  1  0.33333  0.66667  0.17514  1
 Mg  Mg1  1  0.00000  0.00000  0.00881  1
 Mg  Mg2  1  0.33333  0.66667  0.48455  1
 Mg  Mg3  1  0.00000  0.00000  0.33980  1
