CIF file written using JARVIS-Tools package.
data_Yb4Br6O
_symmetry_space_group_name_H-M  'P6_3mc'
_cell_length_a       9.32147
_cell_length_b       9.32147
_cell_length_c       7.0714
_cell_angle_alpha    90
_cell_angle_beta     90
_cell_angle_gamma    120

_symmetry_Int_Tables_number  186
_chemical_formula_structural  Yb4Br6O
_chemical_formula_sum  Yb8Br2O2
_cell_volume  532.1140981297718
_cell_formula_units_Z  2
loop_
  _symmetry_equiv_pos_site_id
 _symmetry_equiv_pos_as_xyz
 1  'x, y, z'
loop_
 _atom_site_type_symbol
 _atom_site_label
 _atom_site_symmetry_multiplicity
 _atom_site_fract_x
 _atom_site_fract_y
 _atom_site_fract_z
 _atom_site_fract_occupancy
 Br  Br1  1  0.46452  0.92905  0.20469  1
 Br  Br2  1  0.72925  0.86462  0.88374  1
 Br  Br3  1  0.86462  0.13538  0.38374  1
 Br  Br4  1  0.92905  0.46452  0.70469  1
 Br  Br5  1  0.53548  0.07095  0.70469  1
 Br  Br6  1  0.53548  0.46452  0.70469  1
 Br  Br7  1  0.86462  0.72925  0.38374  1
 Br  Br8  1  0.27075  0.13538  0.38374  1
 Br  Br9  1  0.13538  0.86462  0.88374  1
 Br  Br10  1  0.07095  0.53548  0.20469  1
 Br  Br11  1  0.46452  0.53548  0.20469  1
 Br  Br12  1  0.13538  0.27075  0.88374  1
 O  O1  1  0.33333  0.66667  0.60192  1
 O  O2  1  0.66667  0.33333  0.10192  1
 Yb  Yb1  1  0.20266  0.79734  0.50339  1
 Yb  Yb2  1  0.20266  0.40532  0.50339  1
 Yb  Yb3  1  0.33333  0.66667  0.91193  1
 Yb  Yb4  1  0.59468  0.79734  0.50339  1
 Yb  Yb5  1  0.40532  0.20266  0.00339  1
 Yb  Yb6  1  0.79734  0.59468  0.00339  1
 Yb  Yb7  1  0.66667  0.33333  0.41193  1
 Yb  Yb8  1  0.79734  0.20266  0.00339  1
