CIF file written using JARVIS-Tools package.
data_TeO3
_symmetry_space_group_name_H-M  'P6_3cm'
_cell_length_a       6.39601
_cell_length_b       6.39602
_cell_length_c       10.0656
_cell_angle_alpha    90
_cell_angle_beta     90
_cell_angle_gamma    120

_symmetry_Int_Tables_number  185
_chemical_formula_structural  TeO3
_chemical_formula_sum  Te6O8
_cell_volume  356.60453905451504
_cell_formula_units_Z  6
loop_
  _symmetry_equiv_pos_site_id
 _symmetry_equiv_pos_as_xyz
 1  'x, y, z'
loop_
 _atom_site_type_symbol
 _atom_site_label
 _atom_site_symmetry_multiplicity
 _atom_site_fract_x
 _atom_site_fract_y
 _atom_site_fract_z
 _atom_site_fract_occupancy
 O  O1  1  0.53680  0.53680  0.83743  1
 O  O2  1  0.66667  0.33333  0.04301  1
 O  O3  1  0.33333  0.66667  0.54301  1
 O  O4  1  0.66667  0.33333  0.54301  1
 O  O5  1  0.33333  0.66667  0.04301  1
 O  O6  1  0.00000  0.00000  0.93127  1
 O  O7  1  0.75018  0.75018  0.16892  1
 O  O8  1  0.46320  -0.00000  0.83743  1
 O  O9  1  0.00000  0.00000  0.43127  1
 O  O10  1  0.00000  0.53680  0.33743  1
 O  O11  1  -0.00000  0.46320  0.83743  1
 O  O12  1  0.75018  -0.00000  0.66892  1
 O  O13  1  0.53680  0.00000  0.33743  1
 O  O14  1  0.24982  0.00000  0.16892  1
 O  O15  1  0.24982  0.24982  0.66892  1
 O  O16  1  -0.00000  0.75018  0.66892  1
 O  O17  1  0.00000  0.24982  0.16892  1
 O  O18  1  0.46320  0.46320  0.33743  1
 Te  Te1  1  0.33716  0.00000  -0.00113  1
 Te  Te2  1  0.33716  0.33716  0.49887  1
 Te  Te3  1  -0.00000  0.66284  0.49887  1
 Te  Te4  1  0.00000  0.33716  -0.00113  1
 Te  Te5  1  0.66284  0.66284  -0.00113  1
 Te  Te6  1  0.66284  -0.00000  0.49887  1
