CIF file written using JARVIS-Tools package.
data_NbSe2Br2
_symmetry_space_group_name_H-M  'C2/m'
_cell_length_a       6.70049
_cell_length_b       6.78393
_cell_length_c       7.13607
_cell_angle_alpha    79.3783
_cell_angle_beta     68.0845
_cell_angle_gamma    60.406

_symmetry_Int_Tables_number  12
_chemical_formula_structural  NbSe2Br2
_chemical_formula_sum  Nb2Se4Br4
_cell_volume  261.67616901565435
_cell_formula_units_Z  2
loop_
  _symmetry_equiv_pos_site_id
 _symmetry_equiv_pos_as_xyz
 1  'x, y, z'
loop_
 _atom_site_type_symbol
 _atom_site_label
 _atom_site_symmetry_multiplicity
 _atom_site_fract_x
 _atom_site_fract_y
 _atom_site_fract_z
 _atom_site_fract_occupancy
 Br  Br1  1  0.57138  0.41676  0.76706  1
 Br  Br2  1  0.42862  0.58324  0.23294  1
 Br  Br3  1  0.98814  0.58324  0.76706  1
 Br  Br4  1  0.01186  0.41676  0.23294  1
 Nb  Nb1  1  0.12632  0.74736  -0.00000  1
 Nb  Nb2  1  0.87368  0.25264  0.00000  1
 Se  Se1  1  0.85407  0.00000  0.33344  1
 Se  Se2  1  0.64858  -0.00000  0.13480  1
 Se  Se3  1  0.35142  0.00000  0.86520  1
 Se  Se4  1  0.14593  -0.00000  0.66656  1
