CIF file written using JARVIS-Tools package.
data_K2BiMoPO8
_symmetry_space_group_name_H-M  'Ibca'
_cell_length_a       7.07622
_cell_length_b       12.2298
_cell_length_c       12.2298
_cell_angle_alpha    61.5562
_cell_angle_beta     73.1837
_cell_angle_gamma    73.1837

_symmetry_Int_Tables_number  73
_chemical_formula_structural  K2BiMoPO8
_chemical_formula_sum  K8Bi4Mo4P4O32
_cell_volume  876.2622933591059
_cell_formula_units_Z  4
loop_
  _symmetry_equiv_pos_site_id
 _symmetry_equiv_pos_as_xyz
 1  'x, y, z'
loop_
 _atom_site_type_symbol
 _atom_site_label
 _atom_site_symmetry_multiplicity
 _atom_site_fract_x
 _atom_site_fract_y
 _atom_site_fract_z
 _atom_site_fract_occupancy
 Bi  Bi1  1  0.75000  0.17217  0.32783  1
 Bi  Bi2  1  0.25000  0.32783  0.17217  1
 Bi  Bi3  1  0.75000  0.67217  0.82783  1
 Bi  Bi4  1  0.25000  0.82783  0.67217  1
 K  K1  1  0.68883  0.26491  0.92428  1
 K  K2  1  0.37802  0.07572  0.73509  1
 K  K3  1  0.12198  0.76491  0.42428  1
 K  K4  1  0.18883  0.42428  0.76491  1
 K  K5  1  0.87802  0.23509  0.57572  1
 K  K6  1  0.81117  0.57572  0.23509  1
 K  K7  1  0.62198  0.92428  0.26491  1
 K  K8  1  0.31117  0.73509  0.07572  1
 Mo  Mo1  1  0.16880  0.08120  0.08120  1
 Mo  Mo2  1  0.33120  0.41880  0.41880  1
 Mo  Mo3  1  0.83120  0.91880  0.91880  1
 Mo  Mo4  1  0.66880  0.58120  0.58120  1
 O  O1  1  0.27577  0.91883  0.14380  1
 O  O2  1  0.90735  0.36145  0.16156  1
 O  O3  1  0.06964  0.16156  0.36145  1
 O  O4  1  0.32307  0.16194  0.10194  1
 O  O5  1  0.77577  0.64380  0.41883  1
 O  O6  1  0.22423  0.35620  0.58117  1
 O  O7  1  0.17693  0.39806  0.33806  1
 O  O8  1  0.59265  0.33844  0.13855  1
 O  O9  1  0.56964  0.86145  0.66156  1
 O  O10  1  0.83983  0.43865  0.93679  1
 O  O11  1  0.28473  0.93679  0.43865  1
 O  O12  1  0.40735  0.66156  0.86145  1
 O  O13  1  0.09265  0.63855  0.83844  1
 O  O14  1  0.58695  0.33806  0.39806  1
 O  O15  1  0.33983  0.43679  0.93865  1
 O  O16  1  0.78473  0.93865  0.43679  1
 O  O17  1  0.66017  0.56321  0.06135  1
 O  O18  1  0.67693  0.83806  0.89806  1
 O  O19  1  0.82307  0.60194  0.66194  1
 O  O20  1  0.43036  0.13855  0.33844  1
 O  O21  1  0.41305  0.66194  0.60194  1
 O  O22  1  0.66160  0.41883  0.64380  1
 O  O23  1  0.33840  0.58117  0.35620  1
 O  O24  1  0.16160  0.14380  0.91883  1
 O  O25  1  0.16017  0.56135  0.06321  1
 O  O26  1  0.71527  0.06321  0.56135  1
 O  O27  1  0.91305  0.10194  0.16194  1
 O  O28  1  0.72423  0.08117  0.85620  1
 O  O29  1  0.21527  0.06135  0.56321  1
 O  O30  1  0.08695  0.89806  0.83806  1
 O  O31  1  0.83840  0.85620  0.08117  1
 O  O32  1  0.93036  0.83844  0.63855  1
 P  P1  1  0.75000  0.42817  0.07183  1
 P  P2  1  0.25000  0.57183  0.92817  1
 P  P3  1  0.75000  0.92817  0.57183  1
 P  P4  1  0.25000  0.07183  0.42817  1
