CIF file written using JARVIS-Tools package.
data_CaMg2
_symmetry_space_group_name_H-M  'P-3m1'
_cell_length_a       3.54158
_cell_length_b       3.54158
_cell_length_c       16.1022
_cell_angle_alpha    90
_cell_angle_beta     90
_cell_angle_gamma    120

_symmetry_Int_Tables_number  164
_chemical_formula_structural  CaMg2
_chemical_formula_sum  Ca2Mg4
_cell_volume  174.90751962792245
_cell_formula_units_Z  2
loop_
  _symmetry_equiv_pos_site_id
 _symmetry_equiv_pos_as_xyz
 1  'x, y, z'
loop_
 _atom_site_type_symbol
 _atom_site_label
 _atom_site_symmetry_multiplicity
 _atom_site_fract_x
 _atom_site_fract_y
 _atom_site_fract_z
 _atom_site_fract_occupancy
 Ca  Ca1  1  0.66667  0.33333  0.10043  1
 Ca  Ca2  1  0.33333  0.66667  0.89957  1
 Mg  Mg1  1  0.33333  0.66667  0.27213  1
 Mg  Mg2  1  0.66667  0.33333  0.42450  1
 Mg  Mg3  1  0.33333  0.66667  0.57550  1
 Mg  Mg4  1  0.66667  0.33333  0.72787  1
