CIF file written using JARVIS-Tools package.
data_Mg5Hg
_symmetry_space_group_name_H-M  'R32'
_cell_length_a       5.42618
_cell_length_b       5.42618
_cell_length_c       6.01535
_cell_angle_alpha    116.81
_cell_angle_beta     63.1903
_cell_angle_gamma    120

_symmetry_Int_Tables_number  155
_chemical_formula_structural  Mg5Hg
_chemical_formula_sum  Mg5Hg
_cell_volume  130.94064749440065
_cell_formula_units_Z  1
loop_
  _symmetry_equiv_pos_site_id
 _symmetry_equiv_pos_as_xyz
 1  'x, y, z'
loop_
 _atom_site_type_symbol
 _atom_site_label
 _atom_site_symmetry_multiplicity
 _atom_site_fract_x
 _atom_site_fract_y
 _atom_site_fract_z
 _atom_site_fract_occupancy
 Hg  Hg1  1  0.83333  0.50000  0.50000  1
 Mg  Mg1  1  0.99644  -0.00000  0.00000  1
 Mg  Mg2  1  0.67022  0.33689  -0.00000  1
 Mg  Mg3  1  0.33333  0.66311  0.00000  1
 Mg  Mg4  1  0.50066  0.83267  0.49801  1
 Mg  Mg5  1  0.16600  0.16733  0.50198  1
