CIF file written using JARVIS-Tools package.
data_LiVNiO4
_symmetry_space_group_name_H-M  'Cmcm'
_cell_length_a       5.09753
_cell_length_b       5.09753
_cell_length_c       6.1597
_cell_angle_alpha    90
_cell_angle_beta     90
_cell_angle_gamma    66.6143

_symmetry_Int_Tables_number  63
_chemical_formula_structural  LiVNiO4
_chemical_formula_sum  Li2V2Ni2O8
_cell_volume  146.91000454007903
_cell_formula_units_Z  2
loop_
  _symmetry_equiv_pos_site_id
 _symmetry_equiv_pos_as_xyz
 1  'x, y, z'
loop_
 _atom_site_type_symbol
 _atom_site_label
 _atom_site_symmetry_multiplicity
 _atom_site_fract_x
 _atom_site_fract_y
 _atom_site_fract_z
 _atom_site_fract_occupancy
 Li  Li1  1  0.33561  0.33561  0.75000  1
 Li  Li2  1  0.66439  0.66439  0.25000  1
 Ni  Ni1  1  0.00000  0.00000  0.00000  1
 Ni  Ni2  1  0.00000  0.00000  0.50000  1
 O  O1  1  0.23498  0.23498  0.02538  1
 O  O2  1  0.23498  0.23498  0.47462  1
 O  O3  1  0.23431  0.73170  0.25000  1
 O  O4  1  0.26830  0.76569  0.75000  1
 O  O5  1  0.73170  0.23431  0.25000  1
 O  O6  1  0.76569  0.26830  0.75000  1
 O  O7  1  0.76502  0.76502  0.97462  1
 O  O8  1  0.76502  0.76502  0.52538  1
 V  V1  1  0.35244  0.35244  0.25000  1
 V  V2  1  0.64756  0.64756  0.75000  1
