CIF file written using JARVIS-Tools package.
data_Li4FeN2
_symmetry_space_group_name_H-M  'Immm'
_cell_length_a       3.36714
_cell_length_b       5.67743
_cell_length_c       5.67743
_cell_angle_alpha    53.7797
_cell_angle_beta     72.7503
_cell_angle_gamma    72.7503

_symmetry_Int_Tables_number  71
_chemical_formula_structural  Li4FeN2
_chemical_formula_sum  Li4FeN2
_cell_volume  82.57807441738163
_cell_formula_units_Z  1
loop_
  _symmetry_equiv_pos_site_id
 _symmetry_equiv_pos_as_xyz
 1  'x, y, z'
loop_
 _atom_site_type_symbol
 _atom_site_label
 _atom_site_symmetry_multiplicity
 _atom_site_fract_x
 _atom_site_fract_y
 _atom_site_fract_z
 _atom_site_fract_occupancy
 Fe  Fe1  1  0.00000  0.00000  0.00000  1
 Li  Li1  1  0.65882  0.60148  0.08088  1
 Li  Li2  1  0.34118  0.39852  -0.08088  1
 Li  Li3  1  0.34118  -0.08088  0.39852  1
 Li  Li4  1  0.65882  0.08088  0.60148  1
 N  N1  1  0.17925  0.82075  0.82075  1
 N  N2  1  0.82075  0.17925  0.17925  1
