CIF file written using JARVIS-Tools package.
data_YbAl2Ga2
_symmetry_space_group_name_H-M  'I4/mmm'
_cell_length_a       4.22248
_cell_length_b       4.22248
_cell_length_c       6.25779
_cell_angle_alpha    109.717
_cell_angle_beta     109.717
_cell_angle_gamma    90

_symmetry_Int_Tables_number  139
_chemical_formula_structural  YbAl2Ga2
_chemical_formula_sum  YbAl2Ga2
_cell_volume  98.05397827334298
_cell_formula_units_Z  1
loop_
  _symmetry_equiv_pos_site_id
 _symmetry_equiv_pos_as_xyz
 1  'x, y, z'
loop_
 _atom_site_type_symbol
 _atom_site_label
 _atom_site_symmetry_multiplicity
 _atom_site_fract_x
 _atom_site_fract_y
 _atom_site_fract_z
 _atom_site_fract_occupancy
 Al  Al1  1  0.25000  0.75000  0.50000  1
 Al  Al2  1  0.75000  0.25000  0.50000  1
 Ga  Ga1  1  0.61188  0.61188  0.22377  1
 Ga  Ga2  1  0.38812  0.38812  0.77623  1
 Yb  Yb1  1  0.00000  0.00000  0.00000  1
