CIF file written using JARVIS-Tools package.
data_Y2HgO4
_symmetry_space_group_name_H-M  'C2/m'
_cell_length_a       3.62021
_cell_length_b       7.06004
_cell_length_c       8.82574
_cell_angle_alpha    95.6291
_cell_angle_beta     101.831
_cell_angle_gamma    104.857

_symmetry_Int_Tables_number  12
_chemical_formula_structural  Y2HgO4
_chemical_formula_sum  Y4Hg2O8
_cell_volume  210.67919779246424
_cell_formula_units_Z  2
loop_
  _symmetry_equiv_pos_site_id
 _symmetry_equiv_pos_as_xyz
 1  'x, y, z'
loop_
 _atom_site_type_symbol
 _atom_site_label
 _atom_site_symmetry_multiplicity
 _atom_site_fract_x
 _atom_site_fract_y
 _atom_site_fract_z
 _atom_site_fract_occupancy
 Hg  Hg1  1  0.04875  0.93560  0.15934  1
 Hg  Hg2  1  0.95288  0.06441  0.83921  1
 O  O1  1  0.62145  0.85350  0.38694  1
 O  O2  1  0.85233  0.64898  0.05317  1
 O  O3  1  0.75307  0.78677  0.71713  1
 O  O4  1  0.93077  0.51235  0.34674  1
 O  O5  1  0.07088  0.48765  0.65181  1
 O  O6  1  0.24860  0.21324  0.28143  1
 O  O7  1  0.14932  0.35103  0.94538  1
 O  O8  1  0.38021  0.14648  0.61160  1
 Y  Y1  1  0.15860  0.77697  0.53786  1
 Y  Y2  1  0.36146  0.52103  0.19938  1
 Y  Y3  1  0.64021  0.47898  0.79919  1
 Y  Y4  1  0.84307  0.22303  0.46069  1
