CIF file written using JARVIS-Tools package.
data_ThSiNi
_symmetry_space_group_name_H-M  'I4_1md'
_cell_length_a       4.09777
_cell_length_b       4.09777
_cell_length_c       7.61814
_cell_angle_alpha    105.602
_cell_angle_beta     105.602
_cell_angle_gamma    90

_symmetry_Int_Tables_number  109
_chemical_formula_structural  ThSiNi
_chemical_formula_sum  Th2Si2Ni2
_cell_volume  118.30740147237175
_cell_formula_units_Z  2
loop_
  _symmetry_equiv_pos_site_id
 _symmetry_equiv_pos_as_xyz
 1  'x, y, z'
loop_
 _atom_site_type_symbol
 _atom_site_label
 _atom_site_symmetry_multiplicity
 _atom_site_fract_x
 _atom_site_fract_y
 _atom_site_fract_z
 _atom_site_fract_occupancy
 Ni  Ni1  1  0.83705  0.33705  0.67409  1
 Ni  Ni2  1  0.58705  0.58705  0.17409  1
 Si  Si1  1  0.66816  0.16816  0.33631  1
 Si  Si2  1  0.41816  0.41816  0.83631  1
 Th  Th1  1  0.24880  0.74880  0.49759  1
 Th  Th2  1  0.99880  0.99880  0.99759  1
