CIF file written using JARVIS-Tools package.
data_Fe7C3
_symmetry_space_group_name_H-M  'Pnma'
_cell_length_a       4.51897
_cell_length_b       6.84033
_cell_length_c       11.6988
_cell_angle_alpha    90
_cell_angle_beta     90
_cell_angle_gamma    90

_symmetry_Int_Tables_number  62
_chemical_formula_structural  Fe7C3
_chemical_formula_sum  Fe28C2
_cell_volume  361.62421237031924
_cell_formula_units_Z  4
loop_
  _symmetry_equiv_pos_site_id
 _symmetry_equiv_pos_as_xyz
 1  'x, y, z'
loop_
 _atom_site_type_symbol
 _atom_site_label
 _atom_site_symmetry_multiplicity
 _atom_site_fract_x
 _atom_site_fract_y
 _atom_site_fract_z
 _atom_site_fract_occupancy
 C  C1  1  0.03180  0.75000  0.06170  1
 C  C2  1  0.53180  0.75000  0.43830  1
 C  C3  1  0.46820  0.25000  0.56170  1
 C  C4  1  0.54231  0.02639  0.14635  1
 C  C5  1  0.04231  0.47361  0.35365  1
 C  C6  1  0.96820  0.25000  0.93830  1
 C  C7  1  0.95769  0.97361  0.64635  1
 C  C8  1  0.45769  0.97361  0.85365  1
 C  C9  1  0.54231  0.47361  0.14635  1
 C  C10  1  0.04231  0.02639  0.35365  1
 C  C11  1  0.95769  0.52639  0.64635  1
 C  C12  1  0.45769  0.52639  0.85365  1
 Fe  Fe1  1  0.70449  0.75000  0.80129  1
 Fe  Fe2  1  0.75083  0.43381  0.48468  1
 Fe  Fe3  1  0.93828  0.93610  0.19197  1
 Fe  Fe4  1  0.43828  0.56390  0.30803  1
 Fe  Fe5  1  0.06172  0.43610  0.80803  1
 Fe  Fe6  1  0.56172  0.06390  0.69197  1
 Fe  Fe7  1  0.29551  0.25000  0.19871  1
 Fe  Fe8  1  0.79551  0.25000  0.30129  1
 Fe  Fe9  1  0.20449  0.75000  0.69871  1
 Fe  Fe10  1  0.56172  0.43610  0.69197  1
 Fe  Fe11  1  0.72519  0.75000  0.58848  1
 Fe  Fe12  1  0.22519  0.75000  0.91152  1
 Fe  Fe13  1  0.08072  0.25000  0.62742  1
 Fe  Fe14  1  0.58072  0.25000  0.87258  1
 Fe  Fe15  1  0.91928  0.75000  0.37258  1
 Fe  Fe16  1  0.41928  0.75000  0.12742  1
 Fe  Fe17  1  0.43828  0.93610  0.30803  1
 Fe  Fe18  1  0.27481  0.25000  0.41152  1
 Fe  Fe19  1  0.77481  0.25000  0.08848  1
 Fe  Fe20  1  0.06172  0.06390  0.80803  1
 Fe  Fe21  1  0.75083  0.06619  0.48468  1
 Fe  Fe22  1  0.25083  0.43381  0.01532  1
 Fe  Fe23  1  0.24917  0.56619  0.51532  1
 Fe  Fe24  1  0.74917  0.93381  0.98468  1
 Fe  Fe25  1  0.24917  0.93381  0.51532  1
 Fe  Fe26  1  0.74917  0.56619  0.98468  1
 Fe  Fe27  1  0.93828  0.56390  0.19197  1
 Fe  Fe28  1  0.25083  0.06619  0.01532  1
