CIF file written using JARVIS-Tools package.
data_InAgS2
_symmetry_space_group_name_H-M  'Pna2_1'
_cell_length_a       7.07975
_cell_length_b       8.29955
_cell_length_c       6.79082
_cell_angle_alpha    90
_cell_angle_beta     90
_cell_angle_gamma    90

_symmetry_Int_Tables_number  33
_chemical_formula_structural  InAgS2
_chemical_formula_sum  In4Ag4S8
_cell_volume  399.0203274711666
_cell_formula_units_Z  4
loop_
  _symmetry_equiv_pos_site_id
 _symmetry_equiv_pos_as_xyz
 1  'x, y, z'
loop_
 _atom_site_type_symbol
 _atom_site_label
 _atom_site_symmetry_multiplicity
 _atom_site_fract_x
 _atom_site_fract_y
 _atom_site_fract_z
 _atom_site_fract_occupancy
 Ag  Ag1  1  0.08958  0.12481  0.00105  1
 Ag  Ag2  1  0.91042  0.87519  0.50105  1
 Ag  Ag3  1  0.41042  0.62481  0.50105  1
 Ag  Ag4  1  0.58958  0.37519  0.00105  1
 In  In1  1  0.07730  0.62575  0.99456  1
 In  In2  1  0.92270  0.37425  0.49456  1
 In  In3  1  0.42270  0.12575  0.49456  1
 In  In4  1  0.57730  0.87425  0.99456  1
 S  S1  1  0.08785  0.12610  0.37603  1
 S  S2  1  0.91215  0.87390  0.87603  1
 S  S3  1  0.41215  0.62610  0.87603  1
 S  S4  1  0.58785  0.37390  0.37603  1
 S  S5  1  0.07357  0.62359  0.36366  1
 S  S6  1  0.92643  0.37641  0.86366  1
 S  S7  1  0.42643  0.12359  0.86366  1
 S  S8  1  0.57357  0.87641  0.36366  1
