CIF file written using JARVIS-Tools package.
data_MnO2
_symmetry_space_group_name_H-M  'Pmmn'
_cell_length_a       2.84823
_cell_length_b       5.86701
_cell_length_c       3.77949
_cell_angle_alpha    90
_cell_angle_beta     90
_cell_angle_gamma    90

_symmetry_Int_Tables_number  59
_chemical_formula_structural  MnO2
_chemical_formula_sum  Mn2O4
_cell_volume  63.157439122413194
_cell_formula_units_Z  2
loop_
  _symmetry_equiv_pos_site_id
 _symmetry_equiv_pos_as_xyz
 1  'x, y, z'
loop_
 _atom_site_type_symbol
 _atom_site_label
 _atom_site_symmetry_multiplicity
 _atom_site_fract_x
 _atom_site_fract_y
 _atom_site_fract_z
 _atom_site_fract_occupancy
 Mn  Mn1  1  1.00000  0.96041  1.00000  1
 Mn  Mn2  1  0.50000  0.28959  0.50000  1
 O  O1  1  0.00000  0.04103  0.50000  1
 O  O2  1  0.50000  0.20897  1.00000  1
 O  O3  1  1.00000  0.47712  0.50000  1
 O  O4  1  0.50000  0.77288  1.00000  1
