CIF file written using JARVIS-Tools package.
data_BW
_symmetry_space_group_name_H-M  'I4_1/amd'
_cell_length_a       3.14895
_cell_length_b       3.14895
_cell_length_c       8.80574
_cell_angle_alpha    100.3
_cell_angle_beta     100.3
_cell_angle_gamma    89.9999

_symmetry_Int_Tables_number  141
_chemical_formula_structural  BW
_chemical_formula_sum  B4W4
_cell_volume  84.47937861396193
_cell_formula_units_Z  4
loop_
  _symmetry_equiv_pos_site_id
 _symmetry_equiv_pos_as_xyz
 1  'x, y, z'
loop_
 _atom_site_type_symbol
 _atom_site_label
 _atom_site_symmetry_multiplicity
 _atom_site_fract_x
 _atom_site_fract_y
 _atom_site_fract_z
 _atom_site_fract_occupancy
 B  B1  1  0.78076  0.03076  0.06153  1
 B  B2  1  0.53076  0.28076  0.56153  1
 B  B3  1  0.21924  0.96924  0.93847  1
 B  B4  1  0.46924  0.71924  0.43847  1
 W  W1  1  0.92789  0.17789  0.35577  1
 W  W2  1  0.67789  0.42789  0.85577  1
 W  W3  1  0.07211  0.82211  0.64423  1
 W  W4  1  0.32211  0.57211  0.14423  1
