CIF file written using JARVIS-Tools package.
data_LiMg6Nb
_symmetry_space_group_name_H-M  'P-6m2'
_cell_length_a       6.2414
_cell_length_b       6.2414
_cell_length_c       4.94584
_cell_angle_alpha    90
_cell_angle_beta     90
_cell_angle_gamma    120.003

_symmetry_Int_Tables_number  187
_chemical_formula_structural  LiMg6Nb
_chemical_formula_sum  LiMg6Nb
_cell_volume  166.84869069808838
_cell_formula_units_Z  1
loop_
  _symmetry_equiv_pos_site_id
 _symmetry_equiv_pos_as_xyz
 1  'x, y, z'
loop_
 _atom_site_type_symbol
 _atom_site_label
 _atom_site_symmetry_multiplicity
 _atom_site_fract_x
 _atom_site_fract_y
 _atom_site_fract_z
 _atom_site_fract_occupancy
 Li  Li1  1  0.08323  0.41677  0.25000  1
 Mg  Mg1  1  0.09817  0.92412  0.25000  1
 Mg  Mg2  1  0.57588  0.40183  0.25000  1
 Mg  Mg3  1  0.57596  0.92404  0.25000  1
 Mg  Mg4  1  0.41576  0.58284  0.75000  1
 Mg  Mg5  1  0.91716  0.08424  0.75000  1
 Mg  Mg6  1  0.91713  0.58287  0.75000  1
 Nb  Nb1  1  0.41672  0.08328  0.75000  1
