CIF file written using JARVIS-Tools package.
data_K3SbO3
_symmetry_space_group_name_H-M  'P2_13'
_cell_length_a       8.33522
_cell_length_b       8.33522
_cell_length_c       8.33522
_cell_angle_alpha    90
_cell_angle_beta     90
_cell_angle_gamma    90

_symmetry_Int_Tables_number  198
_chemical_formula_structural  K3SbO3
_chemical_formula_sum  K2Sb4O2
_cell_volume  579.0971803842259
_cell_formula_units_Z  4
loop_
  _symmetry_equiv_pos_site_id
 _symmetry_equiv_pos_as_xyz
 1  'x, y, z'
loop_
 _atom_site_type_symbol
 _atom_site_label
 _atom_site_symmetry_multiplicity
 _atom_site_fract_x
 _atom_site_fract_y
 _atom_site_fract_z
 _atom_site_fract_occupancy
 K  K1  1  0.47188  0.97188  0.52812  1
 K  K2  1  0.52812  0.47188  0.97188  1
 K  K3  1  0.02812  0.02812  0.02812  1
 K  K4  1  0.21286  0.71286  0.78714  1
 K  K5  1  0.28714  0.28714  0.28714  1
 K  K6  1  0.20898  0.29102  0.70898  1
 K  K7  1  0.97188  0.52812  0.47188  1
 K  K8  1  0.70898  0.20898  0.29102  1
 K  K9  1  0.79102  0.79102  0.79102  1
 K  K10  1  0.71286  0.78714  0.21286  1
 K  K11  1  0.78714  0.21286  0.71286  1
 K  K12  1  0.29102  0.70898  0.20898  1
 O  O1  1  0.21391  0.43564  0.00591  1
 O  O2  1  0.50591  0.28609  0.56436  1
 O  O3  1  0.71391  0.06436  0.99409  1
 O  O4  1  0.78609  0.93564  0.49409  1
 O  O5  1  0.93564  0.49409  0.78609  1
 O  O6  1  0.28609  0.56436  0.50591  1
 O  O7  1  0.43564  0.00591  0.21391  1
 O  O8  1  0.49409  0.78609  0.93564  1
 O  O9  1  0.56436  0.50591  0.28609  1
 O  O10  1  0.06436  0.99409  0.71391  1
 O  O11  1  0.99409  0.71391  0.06436  1
 O  O12  1  0.00591  0.21391  0.43564  1
 Sb  Sb1  1  0.98196  0.48196  0.01804  1
 Sb  Sb2  1  0.51804  0.51804  0.51804  1
 Sb  Sb3  1  0.01804  0.98196  0.48196  1
 Sb  Sb4  1  0.48196  0.01804  0.98196  1
