CIF file written using JARVIS-Tools package.
data_Na6CoO4
_symmetry_space_group_name_H-M  'P4_2/nmc'
_cell_length_a       7.42155
_cell_length_b       7.42155
_cell_length_c       5.40534
_cell_angle_alpha    90
_cell_angle_beta     90
_cell_angle_gamma    90

_symmetry_Int_Tables_number  137
_chemical_formula_structural  Na6CoO4
_chemical_formula_sum  Na2Co2O8
_cell_volume  297.7231971077904
_cell_formula_units_Z  2
loop_
  _symmetry_equiv_pos_site_id
 _symmetry_equiv_pos_as_xyz
 1  'x, y, z'
loop_
 _atom_site_type_symbol
 _atom_site_label
 _atom_site_symmetry_multiplicity
 _atom_site_fract_x
 _atom_site_fract_y
 _atom_site_fract_z
 _atom_site_fract_occupancy
 Co  Co1  1  0.00000  0.00000  0.50000  1
 Co  Co2  1  0.50000  0.50000  0.00000  1
 Na  Na1  1  0.71113  0.71113  0.50000  1
 Na  Na2  1  0.28887  0.28887  0.50000  1
 Na  Na3  1  0.50000  0.00000  0.59513  1
 Na  Na4  1  0.50000  0.00000  0.09513  1
 Na  Na5  1  0.28887  0.71113  0.50000  1
 Na  Na6  1  0.71113  0.28887  0.50000  1
 Na  Na7  1  0.21113  0.21113  0.00000  1
 Na  Na8  1  0.21113  0.78887  0.00000  1
 Na  Na9  1  0.00000  0.50000  0.90487  1
 Na  Na10  1  0.00000  0.50000  0.40487  1
 Na  Na11  1  0.78887  0.78887  0.00000  1
 Na  Na12  1  0.78887  0.21113  0.00000  1
 O  O1  1  0.00000  0.24529  0.67490  1
 O  O2  1  0.00000  0.75471  0.67490  1
 O  O3  1  0.75471  0.00000  0.32510  1
 O  O4  1  0.50000  0.25471  0.82510  1
 O  O5  1  0.50000  0.74529  0.82510  1
 O  O6  1  0.24529  0.00000  0.32510  1
 O  O7  1  0.25471  0.50000  0.17490  1
 O  O8  1  0.74529  0.50000  0.17490  1
