CIF file written using JARVIS-Tools package.
data_CrP2W
_symmetry_space_group_name_H-M  'Pmc2_1'
_cell_length_a       3.20073
_cell_length_b       5.57331
_cell_length_c       6.11783
_cell_angle_alpha    90
_cell_angle_beta     90
_cell_angle_gamma    90

_symmetry_Int_Tables_number  26
_chemical_formula_structural  CrP2W
_chemical_formula_sum  Cr2P4W2
_cell_volume  109.13388863800029
_cell_formula_units_Z  2
loop_
  _symmetry_equiv_pos_site_id
 _symmetry_equiv_pos_as_xyz
 1  'x, y, z'
loop_
 _atom_site_type_symbol
 _atom_site_label
 _atom_site_symmetry_multiplicity
 _atom_site_fract_x
 _atom_site_fract_y
 _atom_site_fract_z
 _atom_site_fract_occupancy
 Cr  Cr1  1  0.50000  0.48777  0.06374  1
 Cr  Cr2  1  0.50000  0.98777  0.93626  1
 P  P1  1  0.50000  0.31549  0.70091  1
 P  P2  1  0.50000  0.81549  0.29909  1
 P  P3  1  0.00000  0.69023  0.83473  1
 P  P4  1  0.00000  0.19023  0.16527  1
 W  W1  1  0.00000  0.50652  0.44319  1
 W  W2  1  0.00000  0.00652  0.55681  1
