CIF file written using JARVIS-Tools package.
data_CaAs2Ru2
_symmetry_space_group_name_H-M  'I4/mmm'
_cell_length_a       4.21295
_cell_length_b       4.21294
_cell_length_c       6.00286
_cell_angle_alpha    110.543
_cell_angle_beta     110.543
_cell_angle_gamma    90

_symmetry_Int_Tables_number  139
_chemical_formula_structural  CaAs2Ru2
_chemical_formula_sum  CaAs2Ru2
_cell_volume  92.49868392852106
_cell_formula_units_Z  1
loop_
  _symmetry_equiv_pos_site_id
 _symmetry_equiv_pos_as_xyz
 1  'x, y, z'
loop_
 _atom_site_type_symbol
 _atom_site_label
 _atom_site_symmetry_multiplicity
 _atom_site_fract_x
 _atom_site_fract_y
 _atom_site_fract_z
 _atom_site_fract_occupancy
 As  As1  1  0.36754  0.36754  0.73509  1
 As  As2  1  0.63246  0.63246  0.26491  1
 Ca  Ca1  1  0.00000  0.00000  0.00000  1
 Ru  Ru1  1  0.75000  0.25000  0.50000  1
 Ru  Ru2  1  0.25000  0.75000  0.50000  1
