CIF file written using JARVIS-Tools package.
data_ScCl
_symmetry_space_group_name_H-M  'R-3m'
_cell_length_a       9.05265
_cell_length_b       9.05265
_cell_length_c       9.05266
_cell_angle_alpha    22.121
_cell_angle_beta     22.1211
_cell_angle_gamma    22.121

_symmetry_Int_Tables_number  166
_chemical_formula_structural  ScCl
_chemical_formula_sum  Sc2Cl2
_cell_volume  92.23516834314638
_cell_formula_units_Z  2
loop_
  _symmetry_equiv_pos_site_id
 _symmetry_equiv_pos_as_xyz
 1  'x, y, z'
loop_
 _atom_site_type_symbol
 _atom_site_label
 _atom_site_symmetry_multiplicity
 _atom_site_fract_x
 _atom_site_fract_y
 _atom_site_fract_z
 _atom_site_fract_occupancy
 Cl  Cl1  1  0.60898  0.60898  0.60898  1
 Cl  Cl2  1  0.39102  0.39102  0.39102  1
 Sc  Sc1  1  0.78595  0.78595  0.78595  1
 Sc  Sc2  1  0.21405  0.21405  0.21405  1
