CIF file written using JARVIS-Tools package.
data_ZnS
_symmetry_space_group_name_H-M  'P3m1'
_cell_length_a       3.84154
_cell_length_b       3.84154
_cell_length_c       50.2263
_cell_angle_alpha    90
_cell_angle_beta     90
_cell_angle_gamma    120

_symmetry_Int_Tables_number  156
_chemical_formula_structural  ZnS
_chemical_formula_sum  Zn6S6
_cell_volume  641.9065198720659
_cell_formula_units_Z  16
loop_
  _symmetry_equiv_pos_site_id
 _symmetry_equiv_pos_as_xyz
 1  'x, y, z'
loop_
 _atom_site_type_symbol
 _atom_site_label
 _atom_site_symmetry_multiplicity
 _atom_site_fract_x
 _atom_site_fract_y
 _atom_site_fract_z
 _atom_site_fract_occupancy
 S  S1  1  0.33333  0.66667  0.48436  1
 S  S2  1  0.66667  0.33333  0.17194  1
 S  S3  1  0.00000  0.00000  0.23441  1
 S  S4  1  0.33333  0.66667  0.29689  1
 S  S5  1  0.66667  0.33333  0.35937  1
 S  S6  1  0.66667  0.33333  0.54686  1
 S  S7  1  0.66667  0.33333  0.73430  1
 S  S8  1  0.33333  0.66667  0.10948  1
 S  S9  1  0.66667  0.33333  0.92187  1
 S  S10  1  0.00000  0.00000  0.79676  1
 S  S11  1  0.33333  0.66667  0.67183  1
 S  S12  1  0.00000  0.00000  0.42187  1
 S  S13  1  0.33333  0.66667  0.85921  1
 S  S14  1  0.00000  0.00000  0.60935  1
 S  S15  1  0.00000  0.00000  0.04699  1
 S  S16  1  0.33333  0.66667  0.98433  1
 Zn  Zn1  1  0.33333  0.66667  0.62498  1
 Zn  Zn2  1  0.00000  0.00000  0.37501  1
 Zn  Zn3  1  0.33333  0.66667  0.06265  1
 Zn  Zn4  1  0.66667  0.33333  0.50000  1
 Zn  Zn5  1  0.33333  0.66667  0.25003  1
 Zn  Zn6  1  0.66667  0.33333  0.31252  1
 Zn  Zn7  1  0.00000  0.00000  0.00005  1
 Zn  Zn8  1  0.66667  0.33333  0.68746  1
 Zn  Zn9  1  0.00000  0.00000  0.18756  1
 Zn  Zn10  1  0.33333  0.66667  0.43751  1
 Zn  Zn11  1  0.33333  0.66667  0.93752  1
 Zn  Zn12  1  0.00000  0.00000  0.56249  1
 Zn  Zn13  1  0.66667  0.33333  0.87493  1
 Zn  Zn14  1  0.33333  0.66667  0.81238  1
 Zn  Zn15  1  0.66667  0.33333  0.12509  1
 Zn  Zn16  1  0.00000  0.00000  0.74992  1
