CIF file written using JARVIS-Tools package.
data_H3ClO5
_symmetry_space_group_name_H-M  'Pna2_1'
_cell_length_a       8.98066
_cell_length_b       5.55655
_cell_length_c       7.30396
_cell_angle_alpha    90
_cell_angle_beta     90
_cell_angle_gamma    90

_symmetry_Int_Tables_number  33
_chemical_formula_structural  H3ClO5
_chemical_formula_sum  H2Cl4O20
_cell_volume  364.478431103196
_cell_formula_units_Z  4
loop_
  _symmetry_equiv_pos_site_id
 _symmetry_equiv_pos_as_xyz
 1  'x, y, z'
loop_
 _atom_site_type_symbol
 _atom_site_label
 _atom_site_symmetry_multiplicity
 _atom_site_fract_x
 _atom_site_fract_y
 _atom_site_fract_z
 _atom_site_fract_occupancy
 Cl  Cl1  1  0.57698  0.78391  0.79619  1
 Cl  Cl2  1  0.42302  0.28391  0.20381  1
 Cl  Cl3  1  0.92302  0.28391  0.29619  1
 Cl  Cl4  1  0.07698  0.78391  0.70381  1
 H  H1  1  0.35892  0.21816  0.54655  1
 H  H2  1  0.22641  0.19275  0.70653  1
 H  H3  1  0.85892  0.21816  0.95345  1
 H  H4  1  0.72641  0.19275  0.79347  1
 H  H5  1  0.72475  0.96381  0.37323  1
 H  H6  1  0.77359  0.69275  0.29347  1
 H  H7  1  0.14108  0.71816  0.04655  1
 H  H8  1  0.27359  0.69275  0.20653  1
 H  H9  1  0.77525  0.46381  0.87323  1
 H  H10  1  0.27525  0.46381  0.62677  1
 H  H11  1  0.22475  0.96381  0.12677  1
 H  H12  1  0.64108  0.71816  0.45345  1
 O  O1  1  0.44070  0.77109  0.89687  1
 O  O2  1  0.79485  0.23254  0.41458  1
 O  O3  1  0.81142  0.29584  0.84201  1
 O  O4  1  0.20515  0.73254  0.58542  1
 O  O5  1  0.70515  0.73254  0.91458  1
 O  O6  1  0.05930  0.27109  0.39687  1
 O  O7  1  0.55930  0.27109  0.10313  1
 O  O8  1  0.94070  0.77109  0.60313  1
 O  O9  1  0.29485  0.23254  0.08542  1
 O  O10  1  0.68858  0.79584  0.34201  1
 O  O11  1  0.59668  0.02428  0.71582  1
 O  O12  1  0.09668  0.02428  0.78418  1
 O  O13  1  0.57544  0.60856  0.64515  1
 O  O14  1  0.90332  0.52428  0.21582  1
 O  O15  1  0.42456  0.10856  0.35485  1
 O  O16  1  0.18858  0.79584  0.15799  1
 O  O17  1  0.92456  0.10856  0.14515  1
 O  O18  1  0.07544  0.60856  0.85485  1
 O  O19  1  0.40332  0.52428  0.28418  1
 O  O20  1  0.31142  0.29584  0.65799  1
