CIF file written using JARVIS-Tools package.
data_BaBr3
_symmetry_space_group_name_H-M  'P6_3/mmc'
_cell_length_a       6.86043
_cell_length_b       6.86042
_cell_length_c       6.05905
_cell_angle_alpha    90
_cell_angle_beta     90
_cell_angle_gamma    120

_symmetry_Int_Tables_number  194
_chemical_formula_structural  BaBr3
_chemical_formula_sum  Ba2Br6
_cell_volume  246.96600727871393
_cell_formula_units_Z  2
loop_
  _symmetry_equiv_pos_site_id
 _symmetry_equiv_pos_as_xyz
 1  'x, y, z'
loop_
 _atom_site_type_symbol
 _atom_site_label
 _atom_site_symmetry_multiplicity
 _atom_site_fract_x
 _atom_site_fract_y
 _atom_site_fract_z
 _atom_site_fract_occupancy
 Ba  Ba1  1  0.33333  0.66667  0.75000  1
 Ba  Ba2  1  0.66667  0.33333  0.25000  1
 Br  Br1  1  0.17167  0.34334  0.25000  1
 Br  Br2  1  0.65666  0.82833  0.25000  1
 Br  Br3  1  0.17167  0.82833  0.25000  1
 Br  Br4  1  0.82833  0.65666  0.75000  1
 Br  Br5  1  0.34334  0.17167  0.75000  1
 Br  Br6  1  0.82833  0.17167  0.75000  1
