CIF file written using JARVIS-Tools package.
data_KSrMg6
_symmetry_space_group_name_H-M  'Amm2'
_cell_length_a       7.52522
_cell_length_b       7.80337
_cell_length_c       5.09424
_cell_angle_alpha    90
_cell_angle_beta     90
_cell_angle_gamma    121.231

_symmetry_Int_Tables_number  38
_chemical_formula_structural  KSrMg6
_chemical_formula_sum  KSrMg6
_cell_volume  255.79523513392186
_cell_formula_units_Z  1
loop_
  _symmetry_equiv_pos_site_id
 _symmetry_equiv_pos_as_xyz
 1  'x, y, z'
loop_
 _atom_site_type_symbol
 _atom_site_label
 _atom_site_symmetry_multiplicity
 _atom_site_fract_x
 _atom_site_fract_y
 _atom_site_fract_z
 _atom_site_fract_occupancy
 K  K1  1  0.08579  0.29289  0.25000  1
 Mg  Mg1  1  0.67056  0.38825  0.25000  1
 Mg  Mg2  1  0.67056  0.78232  0.25000  1
 Mg  Mg3  1  0.39602  0.25204  0.75000  1
 Mg  Mg4  1  0.39602  0.64398  0.75000  1
 Mg  Mg5  1  0.67891  0.08946  0.75000  1
 Mg  Mg6  1  0.85378  0.67689  0.75000  1
 Sr  Sr1  1  0.24836  0.87418  0.25000  1
