CIF file written using JARVIS-Tools package.
data_CdCuN
_symmetry_space_group_name_H-M  'P-6m2'
_cell_length_a       3.93821
_cell_length_b       3.93844
_cell_length_c       3.69435
_cell_angle_alpha    90
_cell_angle_beta     90
_cell_angle_gamma    119.998

_symmetry_Int_Tables_number  187
_chemical_formula_structural  CdCuN
_chemical_formula_sum  CdCuN
_cell_volume  49.62509560411986
_cell_formula_units_Z  1
loop_
  _symmetry_equiv_pos_site_id
 _symmetry_equiv_pos_as_xyz
 1  'x, y, z'
loop_
 _atom_site_type_symbol
 _atom_site_label
 _atom_site_symmetry_multiplicity
 _atom_site_fract_x
 _atom_site_fract_y
 _atom_site_fract_z
 _atom_site_fract_occupancy
 Cd  Cd1  1  -0.00000  0.00002  0.50000  1
 Cu  Cu1  1  0.66667  0.33339  0.00000  1
 N  N1  1  0.66668  0.33339  0.50000  1
