CIF file written using JARVIS-Tools package.
data_Na2Bi5AuO11
_symmetry_space_group_name_H-M  'P4/mbm'
_cell_length_a       3.925
_cell_length_b       12.3802
_cell_length_c       12.3802
_cell_angle_alpha    90
_cell_angle_beta     90
_cell_angle_gamma    90

_symmetry_Int_Tables_number  127
_chemical_formula_structural  Na2Bi5AuO11
_chemical_formula_sum  Na4Bi0Au2O22
_cell_volume  601.578579100471
_cell_formula_units_Z  2
loop_
  _symmetry_equiv_pos_site_id
 _symmetry_equiv_pos_as_xyz
 1  'x, y, z'
loop_
 _atom_site_type_symbol
 _atom_site_label
 _atom_site_symmetry_multiplicity
 _atom_site_fract_x
 _atom_site_fract_y
 _atom_site_fract_z
 _atom_site_fract_occupancy
 Au  Au1  1  0.00000  0.50000  0.50000  1
 Au  Au2  1  0.00000  0.00000  0.00000  1
 Bi  Bi1  1  0.50000  0.72921  0.45217  1
 Bi  Bi2  1  0.50000  0.45217  0.27079  1
 Bi  Bi3  1  0.50000  0.95217  0.22921  1
 Bi  Bi4  1  0.00000  0.00000  0.50000  1
 Bi  Bi5  1  0.50000  0.54783  0.72921  1
 Bi  Bi6  1  0.50000  0.04783  0.77079  1
 Bi  Bi7  1  0.00000  0.50000  0.00000  1
 Bi  Bi8  1  0.50000  0.27079  0.54783  1
 Bi  Bi9  1  0.50000  0.77079  0.95217  1
 Bi  Bi10  1  0.50000  0.22921  0.04783  1
 Na  Na1  1  0.00000  0.20563  0.29437  1
 Na  Na2  1  0.00000  0.79437  0.70563  1
 Na  Na3  1  0.00000  0.29437  0.79437  1
 Na  Na4  1  0.00000  0.70563  0.20563  1
 O  O1  1  0.00000  0.17301  0.49637  1
 O  O2  1  0.00000  0.62069  0.38923  1
 O  O3  1  0.00000  0.00363  0.32699  1
 O  O4  1  0.00000  0.11077  0.87931  1
 O  O5  1  0.00000  0.50363  0.17301  1
 O  O6  1  0.50000  0.78775  0.28775  1
 O  O7  1  0.50000  0.28775  0.21225  1
 O  O8  1  0.00000  0.99637  0.67301  1
 O  O9  1  0.00000  0.87931  0.88923  1
 O  O10  1  0.00000  0.49637  0.82699  1
 O  O11  1  0.00000  0.38923  0.37931  1
 O  O12  1  0.00000  0.32699  0.99637  1
 O  O13  1  0.00000  0.37931  0.61077  1
 O  O14  1  0.50000  0.00000  0.50000  1
 O  O15  1  0.50000  0.21225  0.71225  1
 O  O16  1  0.00000  0.12069  0.11077  1
 O  O17  1  0.00000  0.67301  0.00363  1
 O  O18  1  0.50000  0.71225  0.78775  1
 O  O19  1  0.50000  0.50000  0.00000  1
 O  O20  1  0.00000  0.88923  0.12069  1
 O  O21  1  0.00000  0.82699  0.50363  1
 O  O22  1  0.00000  0.61077  0.62069  1
