CIF file written using JARVIS-Tools package.
data_RbMg6B
_symmetry_space_group_name_H-M  'Amm2'
_cell_length_a       8.36068
_cell_length_b       8.36068
_cell_length_c       3.27252
_cell_angle_alpha    90
_cell_angle_beta     90
_cell_angle_gamma    118.471

_symmetry_Int_Tables_number  38
_chemical_formula_structural  RbMg6B
_chemical_formula_sum  RbMg6B
_cell_volume  201.08646692984752
_cell_formula_units_Z  1
loop_
  _symmetry_equiv_pos_site_id
 _symmetry_equiv_pos_as_xyz
 1  'x, y, z'
loop_
 _atom_site_type_symbol
 _atom_site_label
 _atom_site_symmetry_multiplicity
 _atom_site_fract_x
 _atom_site_fract_y
 _atom_site_fract_z
 _atom_site_fract_occupancy
 B  B1  1  0.40040  0.09960  0.75000  1
 Mg  Mg1  1  0.17078  0.94032  0.25000  1
 Mg  Mg2  1  0.55968  0.32922  0.25000  1
 Mg  Mg3  1  0.71354  0.78646  0.25000  1
 Mg  Mg4  1  0.37279  0.79247  0.75000  1
 Mg  Mg5  1  0.70753  0.12721  0.75000  1
 Mg  Mg6  1  0.91384  0.58616  0.75000  1
 Rb  Rb1  1  0.16144  0.33856  0.25000  1
