CIF file written using JARVIS-Tools package.
data_MnAu4
_symmetry_space_group_name_H-M  'I4/m'
_cell_length_a       4.00447
_cell_length_b       5.05169
_cell_length_c       5.05169
_cell_angle_alpha    80.9618
_cell_angle_beta     66.6499
_cell_angle_gamma    66.6499

_symmetry_Int_Tables_number  87
_chemical_formula_structural  MnAu4
_chemical_formula_sum  MnAu4
_cell_volume  86.13872269451268
_cell_formula_units_Z  1
loop_
  _symmetry_equiv_pos_site_id
 _symmetry_equiv_pos_as_xyz
 1  'x, y, z'
loop_
 _atom_site_type_symbol
 _atom_site_label
 _atom_site_symmetry_multiplicity
 _atom_site_fract_x
 _atom_site_fract_y
 _atom_site_fract_z
 _atom_site_fract_occupancy
 Au  Au1  1  0.60146  0.60412  0.19297  1
 Au  Au2  1  0.39854  0.39588  0.80703  1
 Au  Au3  1  0.20557  0.19297  0.39588  1
 Au  Au4  1  0.79443  0.80703  0.60412  1
 Mn  Mn1  1  0.00000  0.00000  0.00000  1
