CIF file written using JARVIS-Tools package.
data_C
_symmetry_space_group_name_H-M  'Fm-3'
_cell_length_a       9.97429
_cell_length_b       9.97429
_cell_length_c       9.97429
_cell_angle_alpha    60
_cell_angle_beta     60
_cell_angle_gamma    60

_symmetry_Int_Tables_number  202
_chemical_formula_structural  C
_chemical_formula_sum  C60
_cell_volume  701.6668680002252
_cell_formula_units_Z  60
loop_
  _symmetry_equiv_pos_site_id
 _symmetry_equiv_pos_as_xyz
 1  'x, y, z'
loop_
 _atom_site_type_symbol
 _atom_site_label
 _atom_site_symmetry_multiplicity
 _atom_site_fract_x
 _atom_site_fract_y
 _atom_site_fract_z
 _atom_site_fract_occupancy
 C  C1  1  0.70431  0.39849  0.92764  1
 C  C2  1  0.76736  0.80288  0.39894  1
 C  C3  1  0.39849  0.92764  0.70431  1
 C  C4  1  0.03044  0.29569  0.07236  1
 C  C5  1  0.60106  0.96918  0.23264  1
 C  C6  1  0.92764  0.70431  0.39849  1
 C  C7  1  0.60106  0.23264  0.19712  1
 C  C8  1  0.70320  0.29680  0.19755  1
 C  C9  1  0.60106  0.19712  0.96918  1
 C  C10  1  0.03044  0.60151  0.29569  1
 C  C11  1  0.39894  0.80288  0.03082  1
 C  C12  1  0.70320  0.80245  0.29680  1
 C  C13  1  0.07236  0.60151  0.03044  1
 C  C14  1  0.03044  0.07236  0.60151  1
 C  C15  1  0.70431  0.92764  0.96956  1
 C  C16  1  0.23264  0.60106  0.96918  1
 C  C17  1  0.39849  0.96956  0.92764  1
 C  C18  1  0.60151  0.03044  0.07236  1
 C  C19  1  0.60151  0.29569  0.03044  1
 C  C20  1  0.76736  0.03082  0.80288  1
 C  C21  1  0.29569  0.03044  0.60151  1
 C  C22  1  0.29680  0.19755  0.70320  1
 C  C23  1  0.96918  0.23264  0.60106  1
 C  C24  1  0.39894  0.03082  0.76736  1
 C  C25  1  0.96956  0.39849  0.70431  1
 C  C26  1  0.96956  0.92764  0.39849  1
 C  C27  1  0.29680  0.70320  0.80245  1
 C  C28  1  0.07236  0.29569  0.60151  1
 C  C29  1  0.39894  0.76736  0.80288  1
 C  C30  1  0.29569  0.07236  0.03044  1
 C  C31  1  0.03082  0.80288  0.76736  1
 C  C32  1  0.19712  0.96918  0.60106  1
 C  C33  1  0.19755  0.80245  0.70320  1
 C  C34  1  0.19712  0.23264  0.96918  1
 C  C35  1  0.29569  0.60151  0.07236  1
 C  C36  1  0.70320  0.19755  0.80245  1
 C  C37  1  0.76736  0.39894  0.03082  1
 C  C38  1  0.96918  0.19712  0.23264  1
 C  C39  1  0.80288  0.39894  0.76736  1
 C  C40  1  0.92764  0.96956  0.70431  1
 C  C41  1  0.80288  0.03082  0.39894  1
 C  C42  1  0.80245  0.19755  0.29680  1
 C  C43  1  0.96918  0.60106  0.19712  1
 C  C44  1  0.03082  0.39894  0.80288  1
 C  C45  1  0.19755  0.29680  0.80245  1
 C  C46  1  0.70431  0.96956  0.39849  1
 C  C47  1  0.92764  0.39849  0.96956  1
 C  C48  1  0.23264  0.96918  0.19712  1
 C  C49  1  0.80245  0.70320  0.19755  1
 C  C50  1  0.19755  0.70320  0.29680  1
 C  C51  1  0.07236  0.03044  0.29569  1
 C  C52  1  0.60151  0.07236  0.29569  1
 C  C53  1  0.80288  0.76736  0.03082  1
 C  C54  1  0.03082  0.76736  0.39894  1
 C  C55  1  0.96956  0.70431  0.92764  1
 C  C56  1  0.23264  0.19712  0.60106  1
 C  C57  1  0.29680  0.80245  0.19755  1
 C  C58  1  0.19712  0.60106  0.23264  1
 C  C59  1  0.39849  0.70431  0.96956  1
 C  C60  1  0.80245  0.29680  0.70320  1
