CIF file written using JARVIS-Tools package.
data_Na2TiO3
_symmetry_space_group_name_H-M  'Immm'
_cell_length_a       3.0138
_cell_length_b       4.22823
_cell_length_c       5.68683
_cell_angle_alpha    111.824
_cell_angle_beta     105.366
_cell_angle_gamma    90

_symmetry_Int_Tables_number  71
_chemical_formula_structural  Na2TiO3
_chemical_formula_sum  Na2TiO3
_cell_volume  64.47503019540468
_cell_formula_units_Z  1
loop_
  _symmetry_equiv_pos_site_id
 _symmetry_equiv_pos_as_xyz
 1  'x, y, z'
loop_
 _atom_site_type_symbol
 _atom_site_label
 _atom_site_symmetry_multiplicity
 _atom_site_fract_x
 _atom_site_fract_y
 _atom_site_fract_z
 _atom_site_fract_occupancy
 Na  Na1  1  0.67732  0.67732  0.35465  1
 Na  Na2  1  0.32268  0.32268  0.64535  1
 O  O1  1  0.62995  0.12995  0.25991  1
 O  O2  1  0.37005  0.87005  0.74009  1
 O  O3  1  0.00000  0.50000  0.00000  1
 Ti  Ti1  1  0.00000  0.00000  0.00000  1
