CIF file written using JARVIS-Tools package.
data_ThSi3Ir
_symmetry_space_group_name_H-M  'I4mm'
_cell_length_a       4.31196
_cell_length_b       4.31196
_cell_length_c       5.754
_cell_angle_alpha    112.005
_cell_angle_beta     112.005
_cell_angle_gamma    90

_symmetry_Int_Tables_number  107
_chemical_formula_structural  ThSi3Ir
_chemical_formula_sum  ThSi3Ir
_cell_volume  90.72929540384635
_cell_formula_units_Z  1
loop_
  _symmetry_equiv_pos_site_id
 _symmetry_equiv_pos_as_xyz
 1  'x, y, z'
loop_
 _atom_site_type_symbol
 _atom_site_label
 _atom_site_symmetry_multiplicity
 _atom_site_fract_x
 _atom_site_fract_y
 _atom_site_fract_z
 _atom_site_fract_occupancy
 Ir  Ir1  1  0.65518  0.65518  0.31036  1
 Si  Si1  1  0.41024  0.41024  0.82049  1
 Si  Si2  1  0.76413  0.26413  0.52826  1
 Si  Si3  1  0.26413  0.76413  0.52826  1
 Th  Th1  1  0.00032  0.00032  0.00063  1
