CIF file written using JARVIS-Tools package.
data_Li6CoOF6
_symmetry_space_group_name_H-M  'I4/mmm'
_cell_length_a       2.84909
_cell_length_b       2.84909
_cell_length_c       14.6444
_cell_angle_alpha    95.5823
_cell_angle_beta     84.4177
_cell_angle_gamma    90

_symmetry_Int_Tables_number  139
_chemical_formula_structural  Li6CoOF6
_chemical_formula_sum  Li6CoOF6
_cell_volume  117.7432137462655
_cell_formula_units_Z  1
loop_
  _symmetry_equiv_pos_site_id
 _symmetry_equiv_pos_as_xyz
 1  'x, y, z'
loop_
 _atom_site_type_symbol
 _atom_site_label
 _atom_site_symmetry_multiplicity
 _atom_site_fract_x
 _atom_site_fract_y
 _atom_site_fract_z
 _atom_site_fract_occupancy
 Co  Co1  1  0.42857  0.57143  0.14286  1
 F  F1  1  0.50618  0.49382  0.98765  1
 F  F2  1  0.35097  0.64903  0.29806  1
 F  F3  1  0.78244  0.21756  0.43511  1
 F  F4  1  0.21313  0.78687  0.57375  1
 F  F5  1  0.64402  0.35598  0.71197  1
 F  F6  1  0.07470  0.92530  0.85060  1
 Li  Li1  1  0.00406  0.99594  0.99188  1
 Li  Li2  1  0.85308  0.14692  0.29383  1
 Li  Li3  1  0.28205  0.71795  0.43590  1
 Li  Li4  1  0.71321  0.28679  0.57358  1
 Li  Li5  1  0.14393  0.85607  0.71213  1
 Li  Li6  1  0.57509  0.42491  0.84982  1
 O  O1  1  0.92857  0.07143  0.14286  1
