CIF file written using JARVIS-Tools package.
data_LiMg4Si2
_symmetry_space_group_name_H-M  'P4/mmm'
_cell_length_a       4.50522
_cell_length_b       4.50522
_cell_length_c       6.69322
_cell_angle_alpha    90
_cell_angle_beta     90
_cell_angle_gamma    90

_symmetry_Int_Tables_number  123
_chemical_formula_structural  LiMg4Si2
_chemical_formula_sum  LiMg4Si2
_cell_volume  135.85179998128237
_cell_formula_units_Z  1
loop_
  _symmetry_equiv_pos_site_id
 _symmetry_equiv_pos_as_xyz
 1  'x, y, z'
loop_
 _atom_site_type_symbol
 _atom_site_label
 _atom_site_symmetry_multiplicity
 _atom_site_fract_x
 _atom_site_fract_y
 _atom_site_fract_z
 _atom_site_fract_occupancy
 Li  Li1  1  0.50000  0.50000  0.00000  1
 Mg  Mg1  1  0.50000  -0.00000  0.73574  1
 Mg  Mg2  1  -0.00000  0.50000  0.26426  1
 Mg  Mg3  1  0.50000  -0.00000  0.26426  1
 Mg  Mg4  1  -0.00000  0.50000  0.73574  1
 Si  Si1  1  0.00000  0.00000  0.00000  1
 Si  Si2  1  0.50000  0.50000  0.50000  1
