CIF file written using JARVIS-Tools package.
data_ErPS4
_symmetry_space_group_name_H-M  'I4_1/acd'
_cell_length_a       10.6275
_cell_length_b       10.6275
_cell_length_c       12.1073
_cell_angle_alpha    116.033
_cell_angle_beta     116.033
_cell_angle_gamma    90

_symmetry_Int_Tables_number  142
_chemical_formula_structural  ErPS4
_chemical_formula_sum  Er8P8S32
_cell_volume  1072.164856465295
_cell_formula_units_Z  8
loop_
  _symmetry_equiv_pos_site_id
 _symmetry_equiv_pos_as_xyz
 1  'x, y, z'
loop_
 _atom_site_type_symbol
 _atom_site_label
 _atom_site_symmetry_multiplicity
 _atom_site_fract_x
 _atom_site_fract_y
 _atom_site_fract_z
 _atom_site_fract_occupancy
 Er  Er1  1  0.12500  0.37500  0.25000  1
 Er  Er2  1  0.87500  0.62500  0.75000  1
 Er  Er3  1  0.62500  0.87500  0.25000  1
 Er  Er4  1  0.37500  0.62500  0.75000  1
 Er  Er5  1  0.62500  0.37500  0.25000  1
 Er  Er6  1  0.12500  0.87500  0.25000  1
 Er  Er7  1  0.87500  0.12500  0.75000  1
 Er  Er8  1  0.37500  0.12500  0.75000  1
 P  P1  1  0.25000  0.21256  0.00000  1
 P  P2  1  0.21256  0.75000  0.50000  1
 P  P3  1  0.71256  0.75000  0.50000  1
 P  P4  1  0.75000  0.28744  -0.00000  1
 P  P5  1  0.75000  0.78744  -0.00000  1
 P  P6  1  0.78744  0.25000  0.50000  1
 P  P7  1  0.28744  0.25000  0.50000  1
 P  P8  1  0.25000  0.71256  0.00000  1
 S  S1  1  0.58973  0.89229  0.00822  1
 S  S2  1  0.89229  0.41850  0.50822  1
 S  S3  1  0.61593  0.58973  0.50822  1
 S  S4  1  0.34528  0.40820  0.18000  1
 S  S5  1  0.08150  0.60771  0.99178  1
 S  S6  1  0.27179  0.34528  0.68000  1
 S  S7  1  0.15472  0.22821  0.82000  1
 S  S8  1  0.22821  0.66528  0.32000  1
 S  S9  1  0.09180  0.15472  0.32000  1
 S  S10  1  0.65472  0.59180  0.82000  1
 S  S11  1  0.72821  0.65472  0.32000  1
 S  S12  1  0.59180  0.16528  0.32000  1
 S  S13  1  0.41850  0.61593  0.00822  1
 S  S14  1  0.66528  0.09180  0.82000  1
 S  S15  1  0.88407  0.08150  0.49178  1
 S  S16  1  0.90820  0.84528  0.68000  1
 S  S17  1  0.33472  0.90820  0.18000  1
 S  S18  1  0.84528  0.77179  0.18000  1
 S  S19  1  0.77179  0.33472  0.68000  1
 S  S20  1  0.58150  0.38407  0.99178  1
 S  S21  1  0.91850  0.39229  0.00822  1
 S  S22  1  0.38407  0.41027  0.49178  1
 S  S23  1  0.40820  0.83472  0.68000  1
 S  S24  1  0.41027  0.10771  0.99178  1
 S  S25  1  0.10771  0.58150  0.49178  1
 S  S26  1  0.11593  0.91850  0.50822  1
 S  S27  1  0.39229  0.08973  0.50822  1
 S  S28  1  0.08973  0.11593  0.00822  1
 S  S29  1  0.16528  0.72821  0.82000  1
 S  S30  1  0.91027  0.88407  0.99178  1
 S  S31  1  0.60771  0.91027  0.49178  1
 S  S32  1  0.83472  0.27179  0.18000  1
