CIF file written using JARVIS-Tools package.
data_HfFeO3
_symmetry_space_group_name_H-M  'Pnma'
_cell_length_a       5.38182
_cell_length_b       7.81724
_cell_length_c       5.43407
_cell_angle_alpha    90
_cell_angle_beta     89.9986
_cell_angle_gamma    90

_symmetry_Int_Tables_number  62
_chemical_formula_structural  HfFeO3
_chemical_formula_sum  Hf4Fe4O2
_cell_volume  228.61655130029564
_cell_formula_units_Z  4
loop_
  _symmetry_equiv_pos_site_id
 _symmetry_equiv_pos_as_xyz
 1  'x, y, z'
loop_
 _atom_site_type_symbol
 _atom_site_label
 _atom_site_symmetry_multiplicity
 _atom_site_fract_x
 _atom_site_fract_y
 _atom_site_fract_z
 _atom_site_fract_occupancy
 Fe  Fe1  1  0.98792  0.00000  0.96574  1
 Fe  Fe2  1  0.51209  0.00000  0.46575  1
 Fe  Fe3  1  0.48793  0.50000  0.53426  1
 Fe  Fe4  1  0.01207  0.50000  0.03425  1
 Hf  Hf1  1  0.00001  0.25000  0.50000  1
 Hf  Hf2  1  0.00001  0.75000  0.50000  1
 Hf  Hf3  1  0.50000  0.25000  0.00000  1
 Hf  Hf4  1  0.50000  0.75000  0.00000  1
 O  O1  1  0.12331  0.50000  0.41594  1
 O  O2  1  0.83470  0.68198  0.83064  1
 O  O3  1  0.16529  0.18199  0.16934  1
 O  O4  1  0.33471  0.81801  0.66934  1
 O  O5  1  0.16529  0.81801  0.16934  1
 O  O6  1  0.66530  0.68198  0.33064  1
 O  O7  1  0.62329  0.00000  0.08406  1
 O  O8  1  0.66530  0.31802  0.33064  1
 O  O9  1  0.33471  0.18199  0.66934  1
 O  O10  1  0.83470  0.31802  0.83064  1
 O  O11  1  0.37670  0.50000  0.91595  1
 O  O12  1  0.87671  0.00000  0.58405  1
