CIF file written using JARVIS-Tools package.
data_Zr2Sn
_symmetry_space_group_name_H-M  'P-62m'
_cell_length_a       5.62858
_cell_length_b       5.62859
_cell_length_c       4.96788
_cell_angle_alpha    90
_cell_angle_beta     90
_cell_angle_gamma    120

_symmetry_Int_Tables_number  189
_chemical_formula_structural  Zr2Sn
_chemical_formula_sum  Zr4Sn2
_cell_volume  136.30125541935476
_cell_formula_units_Z  2
loop_
  _symmetry_equiv_pos_site_id
 _symmetry_equiv_pos_as_xyz
 1  'x, y, z'
loop_
 _atom_site_type_symbol
 _atom_site_label
 _atom_site_symmetry_multiplicity
 _atom_site_fract_x
 _atom_site_fract_y
 _atom_site_fract_z
 _atom_site_fract_occupancy
 Sn  Sn1  1  0.66667  0.33333  0.00000  1
 Sn  Sn2  1  0.33333  0.66667  0.00000  1
 Zr  Zr1  1  0.64792  0.64792  0.50000  1
 Zr  Zr2  1  0.00000  0.00000  0.00000  1
 Zr  Zr3  1  -0.00000  0.35208  0.50000  1
 Zr  Zr4  1  0.35208  0.00000  0.50000  1
