CIF file written using JARVIS-Tools package.
data_Li2SnN2
_symmetry_space_group_name_H-M  'P-3m1'
_cell_length_a       3.28779
_cell_length_b       3.2878
_cell_length_c       5.44369
_cell_angle_alpha    90
_cell_angle_beta     90
_cell_angle_gamma    120

_symmetry_Int_Tables_number  164
_chemical_formula_structural  Li2SnN2
_chemical_formula_sum  Li2SnN2
_cell_volume  50.96051813777201
_cell_formula_units_Z  1
loop_
  _symmetry_equiv_pos_site_id
 _symmetry_equiv_pos_as_xyz
 1  'x, y, z'
loop_
 _atom_site_type_symbol
 _atom_site_label
 _atom_site_symmetry_multiplicity
 _atom_site_fract_x
 _atom_site_fract_y
 _atom_site_fract_z
 _atom_site_fract_occupancy
 Li  Li1  1  0.66667  0.33333  0.38043  1
 Li  Li2  1  0.33333  0.66667  0.61957  1
 N  N1  1  0.66667  0.33333  0.77056  1
 N  N2  1  0.33333  0.66667  0.22944  1
 Sn  Sn1  1  0.00000  0.00000  0.00000  1
