CIF file written using JARVIS-Tools package.
data_SmAu3
_symmetry_space_group_name_H-M  'Pmmn'
_cell_length_a       5.08607
_cell_length_b       5.14521
_cell_length_c       6.39651
_cell_angle_alpha    90
_cell_angle_beta     90
_cell_angle_gamma    90

_symmetry_Int_Tables_number  59
_chemical_formula_structural  SmAu3
_chemical_formula_sum  Sm2Au6
_cell_volume  167.3895218096926
_cell_formula_units_Z  2
loop_
  _symmetry_equiv_pos_site_id
 _symmetry_equiv_pos_as_xyz
 1  'x, y, z'
loop_
 _atom_site_type_symbol
 _atom_site_label
 _atom_site_symmetry_multiplicity
 _atom_site_fract_x
 _atom_site_fract_y
 _atom_site_fract_z
 _atom_site_fract_occupancy
 Au  Au1  1  0.00000  0.83603  0.25993  1
 Au  Au2  1  0.50000  0.16397  0.24007  1
 Au  Au3  1  0.00000  0.83603  0.74007  1
 Au  Au4  1  0.50000  0.16397  0.75993  1
 Au  Au5  1  0.00000  0.32681  0.50000  1
 Au  Au6  1  0.50000  0.67319  0.00000  1
 Sm  Sm1  1  0.50000  0.65970  0.50000  1
 Sm  Sm2  1  0.00000  0.34030  0.00000  1
