CIF file written using JARVIS-Tools package.
data_Pr2Ga5Cu3
_symmetry_space_group_name_H-M  'P-4m2'
_cell_length_a       4.2555
_cell_length_b       4.2555
_cell_length_c       10.2556
_cell_angle_alpha    90
_cell_angle_beta     90
_cell_angle_gamma    90

_symmetry_Int_Tables_number  115
_chemical_formula_structural  Pr2Ga5Cu3
_chemical_formula_sum  Pr2Ga5Cu3
_cell_volume  185.72222714447608
_cell_formula_units_Z  1
loop_
  _symmetry_equiv_pos_site_id
 _symmetry_equiv_pos_as_xyz
 1  'x, y, z'
loop_
 _atom_site_type_symbol
 _atom_site_label
 _atom_site_symmetry_multiplicity
 _atom_site_fract_x
 _atom_site_fract_y
 _atom_site_fract_z
 _atom_site_fract_occupancy
 Cu  Cu1  1  0.00000  0.00000  0.50000  1
 Cu  Cu2  1  0.00000  0.00000  0.00000  1
 Cu  Cu3  1  0.50000  0.50000  0.50000  1
 Ga  Ga1  1  0.00000  0.50000  0.86359  1
 Ga  Ga2  1  0.50000  0.00000  0.38103  1
 Ga  Ga3  1  0.50000  0.00000  0.13641  1
 Ga  Ga4  1  0.00000  0.50000  0.61897  1
 Ga  Ga5  1  0.50000  0.50000  0.00000  1
 Pr  Pr1  1  0.50000  0.00000  0.74394  1
 Pr  Pr2  1  0.00000  0.50000  0.25606  1
