CIF file written using JARVIS-Tools package.
data_KNdTe2
_symmetry_space_group_name_H-M  'R-3m'
_cell_length_a       8.55389
_cell_length_b       8.55389
_cell_length_c       8.55389
_cell_angle_alpha    31.1576
_cell_angle_beta     31.1576
_cell_angle_gamma    31.1576

_symmetry_Int_Tables_number  166
_chemical_formula_structural  KNdTe2
_chemical_formula_sum  KNdTe2
_cell_volume  148.6682373661819
_cell_formula_units_Z  1
loop_
  _symmetry_equiv_pos_site_id
 _symmetry_equiv_pos_as_xyz
 1  'x, y, z'
loop_
 _atom_site_type_symbol
 _atom_site_label
 _atom_site_symmetry_multiplicity
 _atom_site_fract_x
 _atom_site_fract_y
 _atom_site_fract_z
 _atom_site_fract_occupancy
 K  K1  1  0.50000  0.50000  0.50000  1
 Nd  Nd1  1  0.00000  0.00000  0.00000  1
 Te  Te1  1  0.26038  0.26038  0.26038  1
 Te  Te2  1  0.73962  0.73962  0.73962  1
