CIF file written using JARVIS-Tools package.
data_K2PdSe2
_symmetry_space_group_name_H-M  'Immm'
_cell_length_a       3.79542
_cell_length_b       6.35722
_cell_length_c       6.35722
_cell_angle_alpha    70.8444
_cell_angle_beta     72.6317
_cell_angle_gamma    72.6317

_symmetry_Int_Tables_number  71
_chemical_formula_structural  K2PdSe2
_chemical_formula_sum  K2PdSe2
_cell_volume  134.82401998691313
_cell_formula_units_Z  1
loop_
  _symmetry_equiv_pos_site_id
 _symmetry_equiv_pos_as_xyz
 1  'x, y, z'
loop_
 _atom_site_type_symbol
 _atom_site_label
 _atom_site_symmetry_multiplicity
 _atom_site_fract_x
 _atom_site_fract_y
 _atom_site_fract_z
 _atom_site_fract_occupancy
 K  K1  1  0.19770  0.30230  0.30230  1
 K  K2  1  0.80230  0.69770  0.69770  1
 Pd  Pd1  1  0.00000  0.00000  0.00000  1
 Se  Se1  1  0.50000  0.22457  0.77543  1
 Se  Se2  1  0.50000  0.77543  0.22457  1
