CIF file written using JARVIS-Tools package.
data_Ca5Sn2As6
_symmetry_space_group_name_H-M  'Pbam'
_cell_length_a       4.1665
_cell_length_b       12.0434
_cell_length_c       13.412
_cell_angle_alpha    90
_cell_angle_beta     90
_cell_angle_gamma    90

_symmetry_Int_Tables_number  55
_chemical_formula_structural  Ca5Sn2As6
_chemical_formula_sum  Ca0Sn4As2
_cell_volume  673.0010142695031
_cell_formula_units_Z  2
loop_
  _symmetry_equiv_pos_site_id
 _symmetry_equiv_pos_as_xyz
 1  'x, y, z'
loop_
 _atom_site_type_symbol
 _atom_site_label
 _atom_site_symmetry_multiplicity
 _atom_site_fract_x
 _atom_site_fract_y
 _atom_site_fract_z
 _atom_site_fract_occupancy
 As  As1  1  0.00000  0.87903  0.79354  1
 As  As2  1  0.00000  0.12097  0.20646  1
 As  As3  1  0.50000  0.92801  0.39840  1
 As  As4  1  0.50000  0.07199  0.60160  1
 As  As5  1  0.50000  0.42801  0.10160  1
 As  As6  1  0.50000  0.57199  0.89840  1
 As  As7  1  0.50000  0.66519  0.58395  1
 As  As8  1  0.50000  0.33481  0.41605  1
 As  As9  1  0.50000  0.16519  0.91605  1
 As  As10  1  0.50000  0.83481  0.08395  1
 As  As11  1  0.00000  0.62097  0.29354  1
 As  As12  1  0.00000  0.37903  0.70646  1
 Ca  Ca1  1  0.00000  0.62447  0.74436  1
 Ca  Ca2  1  0.00000  0.63386  0.06500  1
 Ca  Ca3  1  0.00000  0.36614  0.93500  1
 Ca  Ca4  1  0.00000  0.13386  0.43500  1
 Ca  Ca5  1  0.00000  0.86614  0.56500  1
 Ca  Ca6  1  0.00000  0.50000  0.50000  1
 Ca  Ca7  1  0.00000  0.00000  0.00000  1
 Ca  Ca8  1  0.00000  0.87553  0.24436  1
 Ca  Ca9  1  0.00000  0.12447  0.75564  1
 Ca  Ca10  1  0.00000  0.37553  0.25564  1
 Sn  Sn1  1  0.50000  0.79124  0.89045  1
 Sn  Sn2  1  0.50000  0.20876  0.10955  1
 Sn  Sn3  1  0.50000  0.29124  0.60955  1
 Sn  Sn4  1  0.50000  0.70876  0.39045  1
