CIF file written using JARVIS-Tools package.
data_H2C2S3N2O6F6
_symmetry_space_group_name_H-M  'C2/c'
_cell_length_a       5.28018
_cell_length_b       5.28018
_cell_length_c       20.8315
_cell_angle_alpha    85.6091
_cell_angle_beta     94.3909
_cell_angle_gamma    117.598

_symmetry_Int_Tables_number  15
_chemical_formula_structural  H2C2S3N2O6F6
_chemical_formula_sum  H4C4S6N4O2F2
_cell_volume  512.6402216805706
_cell_formula_units_Z  2
loop_
  _symmetry_equiv_pos_site_id
 _symmetry_equiv_pos_as_xyz
 1  'x, y, z'
loop_
 _atom_site_type_symbol
 _atom_site_label
 _atom_site_symmetry_multiplicity
 _atom_site_fract_x
 _atom_site_fract_y
 _atom_site_fract_z
 _atom_site_fract_occupancy
 C  C1  1  0.32034  0.22770  0.93070  1
 C  C2  1  0.22770  0.32034  0.56930  1
 C  C3  1  0.67966  0.77230  0.06930  1
 C  C4  1  0.77230  0.67966  0.43070  1
 F  F1  1  0.65365  0.39960  0.42051  1
 F  F2  1  0.39960  0.65365  0.07949  1
 F  F3  1  0.25146  0.42948  0.94692  1
 F  F4  1  0.42948  0.25146  0.55308  1
 F  F5  1  0.74854  0.57052  0.05308  1
 F  F6  1  0.57052  0.74854  0.44692  1
 F  F7  1  0.02368  0.25563  0.52158  1
 F  F8  1  0.74437  0.97632  0.02158  1
 F  F9  1  0.97632  0.74437  0.47842  1
 F  F10  1  0.60040  0.34635  0.92051  1
 F  F11  1  0.34635  0.60040  0.57949  1
 F  F12  1  0.25563  0.02368  0.97842  1
 H  H1  1  0.04221  0.41066  0.79856  1
 H  H2  1  0.41066  0.04221  0.70144  1
 H  H3  1  0.95779  0.58934  0.20144  1
 H  H4  1  0.58934  0.95779  0.29856  1
 N  N1  1  0.68089  0.82097  0.30344  1
 N  N2  1  0.31911  0.17903  0.69656  1
 N  N3  1  0.17903  0.31911  0.80344  1
 N  N4  1  0.82097  0.68089  0.19656  1
 O  O1  1  0.80925  0.94747  0.87206  1
 O  O2  1  0.94747  0.80925  0.62794  1
 O  O3  1  0.87117  0.21473  0.66288  1
 O  O4  1  0.21473  0.87117  0.83712  1
 O  O5  1  0.19075  0.05253  0.12794  1
 O  O6  1  0.78527  0.12883  0.16288  1
 O  O7  1  0.68076  0.42862  0.78027  1
 O  O8  1  0.42862  0.68076  0.71973  1
 O  O9  1  0.57138  0.31924  0.28027  1
 O  O10  1  0.12883  0.78527  0.33712  1
 O  O11  1  0.05253  0.19075  0.37206  1
 O  O12  1  0.31924  0.57138  0.21973  1
 S  S1  1  0.89979  0.95166  0.14290  1
 S  S2  1  0.10021  0.04834  0.85710  1
 S  S3  1  0.04834  0.10021  0.64290  1
 S  S4  1  0.95166  0.89979  0.35710  1
 S  S5  1  0.43119  0.43119  0.75000  1
 S  S6  1  0.56881  0.56881  0.25000  1
