CIF file written using JARVIS-Tools package.
data_Rb2SnH12N6
_symmetry_space_group_name_H-M  'P-3'
_cell_length_a       6.61984
_cell_length_b       6.61982
_cell_length_c       5.5998
_cell_angle_alpha    90
_cell_angle_beta     89.9999
_cell_angle_gamma    120.001

_symmetry_Int_Tables_number  147
_chemical_formula_structural  Rb2SnH12N6
_chemical_formula_sum  Rb2SnH2N6
_cell_volume  212.51725617594536
_cell_formula_units_Z  1
loop_
  _symmetry_equiv_pos_site_id
 _symmetry_equiv_pos_as_xyz
 1  'x, y, z'
loop_
 _atom_site_type_symbol
 _atom_site_label
 _atom_site_symmetry_multiplicity
 _atom_site_fract_x
 _atom_site_fract_y
 _atom_site_fract_z
 _atom_site_fract_occupancy
 H  H1  1  0.71353  0.57568  0.22669  1
 H  H2  1  0.26553  0.20775  0.39425  1
 H  H3  1  0.79225  0.05778  0.39425  1
 H  H4  1  0.94222  0.73447  0.39425  1
 H  H5  1  0.73447  0.79225  0.60575  1
 H  H6  1  0.05778  0.26553  0.60575  1
 H  H7  1  0.20775  0.94222  0.60575  1
 H  H8  1  0.86214  0.28646  0.22669  1
 H  H9  1  0.57568  0.86214  0.77331  1
 H  H10  1  0.13786  0.71354  0.77331  1
 H  H11  1  0.28647  0.42432  0.77331  1
 H  H12  1  0.42432  0.13786  0.22669  1
 N  N1  1  0.68345  0.79139  0.77934  1
 N  N2  1  0.20860  0.89206  0.77934  1
 N  N3  1  0.10794  0.31655  0.77934  1
 N  N4  1  0.31655  0.20861  0.22066  1
 N  N5  1  0.89206  0.68345  0.22066  1
 N  N6  1  0.79140  0.10794  0.22066  1
 Rb  Rb1  1  0.33333  0.66667  0.20683  1
 Rb  Rb2  1  0.66667  0.33333  0.79317  1
 Sn  Sn1  1  0.00000  0.00000  0.00000  1
