CIF file written using JARVIS-Tools package.
data_Li2CrSiO4
_symmetry_space_group_name_H-M  'Pmn2_1'
_cell_length_a       4.84726
_cell_length_b       6.53908
_cell_length_c       5.21588
_cell_angle_alpha    90
_cell_angle_beta     90.0009
_cell_angle_gamma    90

_symmetry_Int_Tables_number  31
_chemical_formula_structural  Li2CrSiO4
_chemical_formula_sum  Li4Cr2Si2O8
_cell_volume  165.32576394399345
_cell_formula_units_Z  2
loop_
  _symmetry_equiv_pos_site_id
 _symmetry_equiv_pos_as_xyz
 1  'x, y, z'
loop_
 _atom_site_type_symbol
 _atom_site_label
 _atom_site_symmetry_multiplicity
 _atom_site_fract_x
 _atom_site_fract_y
 _atom_site_fract_z
 _atom_site_fract_occupancy
 Cr  Cr1  1  0.00776  0.00000  0.20480  1
 Cr  Cr2  1  0.50775  0.50000  0.79520  1
 Li  Li1  1  0.99332  0.24771  0.67166  1
 Li  Li2  1  0.49332  0.25229  0.32833  1
 Li  Li3  1  0.49332  0.74771  0.32833  1
 Li  Li4  1  0.99332  0.75229  0.67166  1
 O  O1  1  0.57521  0.00000  0.14260  1
 O  O2  1  0.13968  0.00000  0.82230  1
 O  O3  1  0.59128  0.20924  0.69105  1
 O  O4  1  0.09128  0.29076  0.30895  1
 O  O5  1  0.63968  0.50000  0.17770  1
 O  O6  1  0.07520  0.50000  0.85740  1
 O  O7  1  0.09128  0.70924  0.30895  1
 O  O8  1  0.59128  0.79076  0.69105  1
 Si  Si1  1  0.48016  0.00000  0.83519  1
 Si  Si2  1  0.98016  0.50000  0.16481  1
