CIF file written using JARVIS-Tools package.
data_IrC2
_symmetry_space_group_name_H-M  'C2/m'
_cell_length_a       2.85565
_cell_length_b       4.13343
_cell_length_c       7.54336
_cell_angle_alpha    47.5908
_cell_angle_beta     79.0891
_cell_angle_gamma    69.7918

_symmetry_Int_Tables_number  12
_chemical_formula_structural  IrC2
_chemical_formula_sum  Ir2C4
_cell_volume  61.572157415555274
_cell_formula_units_Z  2
loop_
  _symmetry_equiv_pos_site_id
 _symmetry_equiv_pos_as_xyz
 1  'x, y, z'
loop_
 _atom_site_type_symbol
 _atom_site_label
 _atom_site_symmetry_multiplicity
 _atom_site_fract_x
 _atom_site_fract_y
 _atom_site_fract_z
 _atom_site_fract_occupancy
 C  C1  1  0.91453  0.22484  0.94611  1
 C  C2  1  0.08547  0.77516  0.05389  1
 C  C3  1  0.58825  0.31203  0.51148  1
 C  C4  1  0.41175  0.68797  0.48852  1
 Ir  Ir1  1  0.26241  -0.27577  0.75095  1
 Ir  Ir2  1  0.73759  0.27577  0.24905  1
