CIF file written using JARVIS-Tools package.
data_V2CoSe4
_symmetry_space_group_name_H-M  'C2/m'
_cell_length_a       3.40151
_cell_length_b       6.13524
_cell_length_c       6.60184
_cell_angle_alpha    115.614
_cell_angle_beta     104.929
_cell_angle_gamma    90

_symmetry_Int_Tables_number  12
_chemical_formula_structural  V2CoSe4
_chemical_formula_sum  V2CoSe4
_cell_volume  119.05637888295806
_cell_formula_units_Z  1
loop_
  _symmetry_equiv_pos_site_id
 _symmetry_equiv_pos_as_xyz
 1  'x, y, z'
loop_
 _atom_site_type_symbol
 _atom_site_label
 _atom_site_symmetry_multiplicity
 _atom_site_fract_x
 _atom_site_fract_y
 _atom_site_fract_z
 _atom_site_fract_occupancy
 Co  Co1  1  0.00000  0.00000  0.00000  1
 Se  Se1  1  0.63542  0.97618  0.27084  1
 Se  Se2  1  0.36458  0.02382  0.72916  1
 Se  Se3  1  0.89740  0.55899  0.79480  1
 Se  Se4  1  0.10260  0.44101  0.20520  1
 V  V1  1  0.74302  0.68538  0.48604  1
 V  V2  1  0.25698  0.31462  0.51396  1
