CIF file written using JARVIS-Tools package.
data_SrGe3Ir
_symmetry_space_group_name_H-M  'I4mm'
_cell_length_a       4.52724
_cell_length_b       4.52724
_cell_length_c       6.00869
_cell_angle_alpha    112.131
_cell_angle_beta     112.131
_cell_angle_gamma    90

_symmetry_Int_Tables_number  107
_chemical_formula_structural  SrGe3Ir
_chemical_formula_sum  SrGe3Ir
_cell_volume  104.22021893879885
_cell_formula_units_Z  1
loop_
  _symmetry_equiv_pos_site_id
 _symmetry_equiv_pos_as_xyz
 1  'x, y, z'
loop_
 _atom_site_type_symbol
 _atom_site_label
 _atom_site_symmetry_multiplicity
 _atom_site_fract_x
 _atom_site_fract_y
 _atom_site_fract_z
 _atom_site_fract_occupancy
 Ge  Ge1  1  0.75387  0.25387  0.50775  1
 Ge  Ge2  1  0.25387  0.75387  0.50775  1
 Ge  Ge3  1  0.41151  0.41151  0.82301  1
 Ir  Ir1  1  0.64926  0.64926  0.29851  1
 Sr  Sr1  1  0.00049  0.00049  0.00098  1
