CIF file written using JARVIS-Tools package.
data_LaCl3O3
_symmetry_space_group_name_H-M  'P-62m'
_cell_length_a       5.23045
_cell_length_b       5.1503
_cell_length_c       5.1503
_cell_angle_alpha    120
_cell_angle_beta     90
_cell_angle_gamma    90

_symmetry_Int_Tables_number  189
_chemical_formula_structural  LaCl3O3
_chemical_formula_sum  LaCl3O3
_cell_volume  120.15325715688479
_cell_formula_units_Z  1
loop_
  _symmetry_equiv_pos_site_id
 _symmetry_equiv_pos_as_xyz
 1  'x, y, z'
loop_
 _atom_site_type_symbol
 _atom_site_label
 _atom_site_symmetry_multiplicity
 _atom_site_fract_x
 _atom_site_fract_y
 _atom_site_fract_z
 _atom_site_fract_occupancy
 Cl  Cl1  1  0.50000  0.33801  0.33801  1
 Cl  Cl2  1  0.50000  0.00000  0.66199  1
 Cl  Cl3  1  0.50000  0.66199  0.00000  1
 La  La1  1  0.00000  0.00000  0.00000  1
 O  O1  1  0.00000  0.50381  1.00000  1
 O  O2  1  0.00000  0.49619  0.49619  1
 O  O3  1  0.00000  1.00000  0.50381  1
