CIF file written using JARVIS-Tools package.
data_VCuO3
_symmetry_space_group_name_H-M  'Cm'
_cell_length_a       3.18753
_cell_length_b       4.40381
_cell_length_c       5.58463
_cell_angle_alpha    112.51
_cell_angle_beta     106.539
_cell_angle_gamma    89.9437

_symmetry_Int_Tables_number  8
_chemical_formula_structural  VCuO3
_chemical_formula_sum  VCuO3
_cell_volume  68.90595589916754
_cell_formula_units_Z  1
loop_
  _symmetry_equiv_pos_site_id
 _symmetry_equiv_pos_as_xyz
 1  'x, y, z'
loop_
 _atom_site_type_symbol
 _atom_site_label
 _atom_site_symmetry_multiplicity
 _atom_site_fract_x
 _atom_site_fract_y
 _atom_site_fract_z
 _atom_site_fract_occupancy
 Cu  Cu1  1  0.40640  0.00984  0.46453  1
 O  O1  1  0.85777  0.21559  0.36792  1
 O  O2  1  0.58077  -0.00740  0.81288  1
 O  O3  1  0.23931  0.55918  0.13157  1
 V  V1  1  0.72435  0.33709  0.10101  1
