CIF file written using JARVIS-Tools package.
data_CdPb2Cl2O2
_symmetry_space_group_name_H-M  'C2/m'
_cell_length_a       3.87573
_cell_length_b       6.47785
_cell_length_c       7.034
_cell_angle_alpha    68.4553
_cell_angle_beta     74.0082
_cell_angle_gamma    72.5933

_symmetry_Int_Tables_number  12
_chemical_formula_structural  CdPb2Cl2O2
_chemical_formula_sum  CdPb2Cl2O2
_cell_volume  153.98345344886263
_cell_formula_units_Z  1
loop_
  _symmetry_equiv_pos_site_id
 _symmetry_equiv_pos_as_xyz
 1  'x, y, z'
loop_
 _atom_site_type_symbol
 _atom_site_label
 _atom_site_symmetry_multiplicity
 _atom_site_fract_x
 _atom_site_fract_y
 _atom_site_fract_z
 _atom_site_fract_occupancy
 Cd  Cd1  1  0.00000  0.00000  0.00000  1
 Cl  Cl1  1  0.43614  0.82314  0.30457  1
 Cl  Cl2  1  0.56386  0.17686  0.69543  1
 O  O1  1  0.19326  0.68347  0.93001  1
 O  O2  1  0.80674  0.31653  0.06999  1
 Pb  Pb1  1  0.18655  0.38326  0.24364  1
 Pb  Pb2  1  0.81345  0.61674  0.75636  1
