CIF file written using JARVIS-Tools package.
data_Ta2FeO6
_symmetry_space_group_name_H-M  'P4_2/mnm'
_cell_length_a       4.75564
_cell_length_b       4.75564
_cell_length_c       8.83914
_cell_angle_alpha    90
_cell_angle_beta     90
_cell_angle_gamma    90

_symmetry_Int_Tables_number  136
_chemical_formula_structural  Ta2FeO6
_chemical_formula_sum  Ta4Fe2O2
_cell_volume  199.90706721114185
_cell_formula_units_Z  2
loop_
  _symmetry_equiv_pos_site_id
 _symmetry_equiv_pos_as_xyz
 1  'x, y, z'
loop_
 _atom_site_type_symbol
 _atom_site_label
 _atom_site_symmetry_multiplicity
 _atom_site_fract_x
 _atom_site_fract_y
 _atom_site_fract_z
 _atom_site_fract_occupancy
 Fe  Fe1  1  0.00000  0.00000  0.00000  1
 Fe  Fe2  1  0.50000  0.50000  0.50000  1
 O  O1  1  0.70170  0.70170  0.33614  1
 O  O2  1  0.80176  0.19823  0.50000  1
 O  O3  1  0.19823  0.80176  0.50000  1
 O  O4  1  0.30177  0.30177  0.00000  1
 O  O5  1  0.70170  0.70170  0.66386  1
 O  O6  1  0.29830  0.29830  0.66386  1
 O  O7  1  0.29830  0.29830  0.33614  1
 O  O8  1  0.79830  0.20170  0.83614  1
 O  O9  1  0.20170  0.79830  0.83614  1
 O  O10  1  0.20170  0.79830  0.16386  1
 O  O11  1  0.79830  0.20170  0.16386  1
 O  O12  1  0.69824  0.69824  0.00000  1
 Ta  Ta1  1  0.50000  0.50000  0.82784  1
 Ta  Ta2  1  0.50000  0.50000  0.17216  1
 Ta  Ta3  1  0.00000  0.00000  0.67216  1
 Ta  Ta4  1  0.00000  0.00000  0.32784  1
