CIF file written using JARVIS-Tools package.
data_Al2FeS4
_symmetry_space_group_name_H-M  'R-3m'
_cell_length_a       3.56737
_cell_length_b       3.56737
_cell_length_c       12.0877
_cell_angle_alpha    81.5143
_cell_angle_beta     81.5143
_cell_angle_gamma    59.9999

_symmetry_Int_Tables_number  166
_chemical_formula_structural  Al2FeS4
_chemical_formula_sum  Al2FeS4
_cell_volume  131.27104541270734
_cell_formula_units_Z  1
loop_
  _symmetry_equiv_pos_site_id
 _symmetry_equiv_pos_as_xyz
 1  'x, y, z'
loop_
 _atom_site_type_symbol
 _atom_site_label
 _atom_site_symmetry_multiplicity
 _atom_site_fract_x
 _atom_site_fract_y
 _atom_site_fract_z
 _atom_site_fract_occupancy
 Al  Al1  1  0.24036  0.24036  0.27891  1
 Al  Al2  1  0.75849  0.75849  0.72453  1
 Fe  Fe1  1  0.99943  0.99943  0.00169  1
 S  S1  1  0.12079  0.12079  0.63762  1
 S  S2  1  0.87806  0.87806  0.36582  1
 S  S3  1  0.69635  0.69635  0.91096  1
 S  S4  1  0.30251  0.30251  0.09246  1
