CIF file written using JARVIS-Tools package.
data_LiH2NO3
_symmetry_space_group_name_H-M  'P2_1/c'
_cell_length_a       3.25021
_cell_length_b       14.0881
_cell_length_c       6.45469
_cell_angle_alpha    90
_cell_angle_beta     110.428
_cell_angle_gamma    90

_symmetry_Int_Tables_number  14
_chemical_formula_structural  LiH2NO3
_chemical_formula_sum  Li4H8N4O2
_cell_volume  276.96772349206606
_cell_formula_units_Z  4
loop_
  _symmetry_equiv_pos_site_id
 _symmetry_equiv_pos_as_xyz
 1  'x, y, z'
loop_
 _atom_site_type_symbol
 _atom_site_label
 _atom_site_symmetry_multiplicity
 _atom_site_fract_x
 _atom_site_fract_y
 _atom_site_fract_z
 _atom_site_fract_occupancy
 H  H1  1  0.06132  0.03456  0.25808  1
 H  H2  1  0.93868  0.53456  0.24192  1
 H  H3  1  0.93868  0.96544  0.74192  1
 H  H4  1  0.06132  0.46544  0.75808  1
 H  H5  1  0.90617  0.11368  0.06210  1
 H  H6  1  0.09383  0.61368  0.43790  1
 H  H7  1  0.09383  0.88632  0.93790  1
 H  H8  1  0.90617  0.38632  0.56210  1
 Li  Li1  1  0.39269  0.66342  0.14558  1
 Li  Li2  1  0.60731  0.16342  0.35442  1
 Li  Li3  1  0.60731  0.33658  0.85442  1
 Li  Li4  1  0.39269  0.83658  0.64558  1
 N  N1  1  0.74482  0.13986  0.77182  1
 N  N2  1  0.25518  0.63986  0.72818  1
 N  N3  1  0.25518  0.86014  0.22818  1
 N  N4  1  0.74482  0.36014  0.27182  1
 O  O1  1  0.59607  0.21816  0.67907  1
 O  O2  1  0.40393  0.71816  0.82093  1
 O  O3  1  0.40393  0.78184  0.32093  1
 O  O4  1  0.59607  0.28184  0.17907  1
 O  O5  1  0.81539  0.07872  0.64438  1
 O  O6  1  0.18461  0.57872  0.85562  1
 O  O7  1  0.18461  0.92128  0.35562  1
 O  O8  1  0.81539  0.42128  0.14438  1
 O  O9  1  0.02044  0.10409  0.22604  1
 O  O10  1  0.97956  0.60409  0.27396  1
 O  O11  1  0.97956  0.89591  0.77396  1
 O  O12  1  0.02044  0.39591  0.72604  1
