CIF file written using JARVIS-Tools package.
data_NaPH4O5
_symmetry_space_group_name_H-M  'Pna2_1'
_cell_length_a       7.34522
_cell_length_b       7.56373
_cell_length_c       7.82349
_cell_angle_alpha    90
_cell_angle_beta     90
_cell_angle_gamma    90

_symmetry_Int_Tables_number  33
_chemical_formula_structural  NaPH4O5
_chemical_formula_sum  Na4P4H6O20
_cell_volume  434.65135451909185
_cell_formula_units_Z  4
loop_
  _symmetry_equiv_pos_site_id
 _symmetry_equiv_pos_as_xyz
 1  'x, y, z'
loop_
 _atom_site_type_symbol
 _atom_site_label
 _atom_site_symmetry_multiplicity
 _atom_site_fract_x
 _atom_site_fract_y
 _atom_site_fract_z
 _atom_site_fract_occupancy
 H  H1  1  0.70984  0.80528  0.27118  1
 H  H2  1  0.45871  0.94855  0.60900  1
 H  H3  1  0.20984  0.19472  0.72882  1
 H  H4  1  0.35012  0.78946  0.34183  1
 H  H5  1  0.35012  0.28946  0.15817  1
 H  H6  1  0.22258  0.27908  0.90955  1
 H  H7  1  0.70984  0.30528  0.22882  1
 H  H8  1  0.72258  0.22092  0.40955  1
 H  H9  1  0.45871  0.44855  0.89100  1
 H  H10  1  0.85012  0.21054  0.65817  1
 H  H11  1  0.85012  0.71054  0.84183  1
 H  H12  1  0.95871  0.05145  0.39100  1
 H  H13  1  0.20984  0.69472  0.77118  1
 H  H14  1  0.95871  0.55145  0.10900  1
 H  H15  1  0.72258  0.72092  0.09045  1
 H  H16  1  0.22258  0.77908  0.59045  1
 Na  Na1  1  0.98133  0.50200  0.48535  1
 Na  Na2  1  0.48133  0.49800  0.51465  1
 Na  Na3  1  0.98133  0.00200  0.01465  1
 Na  Na4  1  0.48133  0.99800  0.98535  1
 O  O1  1  0.21145  0.66370  0.64811  1
 O  O2  1  0.36464  0.66650  0.28705  1
 O  O3  1  0.23388  0.77892  0.00167  1
 O  O4  1  0.05359  0.57463  0.20259  1
 O  O5  1  0.21145  0.16370  0.85189  1
 O  O6  1  0.86464  0.83350  0.78705  1
 O  O7  1  0.73388  0.22108  -0.00167  1
 O  O8  1  0.71145  0.33630  0.35189  1
 O  O9  1  0.05359  0.07463  0.29741  1
 O  O10  1  0.82762  0.04455  0.54512  1
 O  O11  1  0.23388  0.27892  0.49833  1
 O  O12  1  0.32762  0.45545  0.04512  1
 O  O13  1  0.32762  0.95545  0.45488  1
 O  O14  1  0.36464  0.16650  0.21295  1
 O  O15  1  0.55359  0.42537  0.79741  1
 O  O16  1  0.86464  0.33350  0.71295  1
 O  O17  1  0.82762  0.54455  0.95488  1
 O  O18  1  0.73388  0.72108  0.50167  1
 O  O19  1  0.71145  0.83630  0.14811  1
 O  O20  1  0.55359  0.92537  0.70259  1
 P  P1  1  0.24653  0.62484  0.12330  1
 P  P2  1  0.74653  0.37516  0.87670  1
 P  P3  1  0.24653  0.12484  0.37670  1
 P  P4  1  0.74653  0.87516  0.62330  1
