CIF file written using JARVIS-Tools package.
data_BaGe3Ir
_symmetry_space_group_name_H-M  'I4mm'
_cell_length_a       4.61336
_cell_length_b       4.61336
_cell_length_c       6.10615
_cell_angle_alpha    112.195
_cell_angle_beta     112.195
_cell_angle_gamma    90

_symmetry_Int_Tables_number  107
_chemical_formula_structural  BaGe3Ir
_chemical_formula_sum  BaGe3Ir
_cell_volume  109.85750265834976
_cell_formula_units_Z  1
loop_
  _symmetry_equiv_pos_site_id
 _symmetry_equiv_pos_as_xyz
 1  'x, y, z'
loop_
 _atom_site_type_symbol
 _atom_site_label
 _atom_site_symmetry_multiplicity
 _atom_site_fract_x
 _atom_site_fract_y
 _atom_site_fract_z
 _atom_site_fract_occupancy
 Ba  Ba1  1  0.58976  0.58976  0.17952  1
 Ge  Ge1  1  0.00087  0.00087  0.00175  1
 Ge  Ge2  1  0.84200  0.34200  0.68400  1
 Ge  Ge3  1  0.34200  0.84200  0.68400  1
 Ir  Ir1  1  0.24037  0.24037  0.48074  1
