CIF file written using JARVIS-Tools package.
data_LiFeOF
_symmetry_space_group_name_H-M  'P4/mmm'
_cell_length_a       2.87067
_cell_length_b       2.87066
_cell_length_c       4.61227
_cell_angle_alpha    90
_cell_angle_beta     90.0006
_cell_angle_gamma    90

_symmetry_Int_Tables_number  123
_chemical_formula_structural  LiFeOF
_chemical_formula_sum  LiFeOF
_cell_volume  38.00837427007013
_cell_formula_units_Z  1
loop_
  _symmetry_equiv_pos_site_id
 _symmetry_equiv_pos_as_xyz
 1  'x, y, z'
loop_
 _atom_site_type_symbol
 _atom_site_label
 _atom_site_symmetry_multiplicity
 _atom_site_fract_x
 _atom_site_fract_y
 _atom_site_fract_z
 _atom_site_fract_occupancy
 F  F1  1  0.51527  0.00000  0.74603  1
 Fe  Fe1  1  0.51510  0.00000  0.24619  1
 Li  Li1  1  0.01529  0.50000  0.74668  1
 O  O1  1  0.01512  0.50000  0.24580  1
