CIF file written using JARVIS-Tools package.
data_CrCoSi2
_symmetry_space_group_name_H-M  'P2_1'
_cell_length_a       4.45527
_cell_length_b       4.57793
_cell_length_c       4.566
_cell_angle_alpha    89.8514
_cell_angle_beta     90
_cell_angle_gamma    90

_symmetry_Int_Tables_number  4
_chemical_formula_structural  CrCoSi2
_chemical_formula_sum  Cr2Co2Si4
_cell_volume  93.12752711104093
_cell_formula_units_Z  2
loop_
  _symmetry_equiv_pos_site_id
 _symmetry_equiv_pos_as_xyz
 1  'x, y, z'
loop_
 _atom_site_type_symbol
 _atom_site_label
 _atom_site_symmetry_multiplicity
 _atom_site_fract_x
 _atom_site_fract_y
 _atom_site_fract_z
 _atom_site_fract_occupancy
 Co  Co1  1  0.36335  0.63693  0.60963  1
 Co  Co2  1  0.86335  0.36307  0.39037  1
 Cr  Cr1  1  0.63685  0.87669  0.10072  1
 Cr  Cr2  1  0.13685  0.12331  0.89928  1
 Si  Si1  1  0.65721  0.35990  0.90902  1
 Si  Si2  1  0.15721  0.64010  0.09098  1
 Si  Si3  1  0.34259  0.16132  0.41631  1
 Si  Si4  1  0.84259  0.83868  0.58369  1
