CIF file written using JARVIS-Tools package.
data_NdCoP
_symmetry_space_group_name_H-M  'P4/nmm'
_cell_length_a       3.92944
_cell_length_b       3.92944
_cell_length_c       6.94829
_cell_angle_alpha    90
_cell_angle_beta     90
_cell_angle_gamma    90

_symmetry_Int_Tables_number  129
_chemical_formula_structural  NdCoP
_chemical_formula_sum  Nd2Co2P2
_cell_volume  107.28490157326517
_cell_formula_units_Z  2
loop_
  _symmetry_equiv_pos_site_id
 _symmetry_equiv_pos_as_xyz
 1  'x, y, z'
loop_
 _atom_site_type_symbol
 _atom_site_label
 _atom_site_symmetry_multiplicity
 _atom_site_fract_x
 _atom_site_fract_y
 _atom_site_fract_z
 _atom_site_fract_occupancy
 Co  Co1  1  0.75000  0.25000  0.00000  1
 Co  Co2  1  0.25000  0.75000  0.00000  1
 Nd  Nd1  1  0.75000  0.75000  0.32227  1
 Nd  Nd2  1  0.25000  0.25000  0.67773  1
 P  P1  1  0.75000  0.75000  0.81784  1
 P  P2  1  0.25000  0.25000  0.18216  1
