CIF file written using JARVIS-Tools package.
data_Pr2InPd2
_symmetry_space_group_name_H-M  'P4/mbm'
_cell_length_a       3.91588
_cell_length_b       7.89137
_cell_length_c       7.89137
_cell_angle_alpha    90
_cell_angle_beta     90
_cell_angle_gamma    90

_symmetry_Int_Tables_number  127
_chemical_formula_structural  Pr2InPd2
_chemical_formula_sum  Pr4In2Pd4
_cell_volume  243.8562941843162
_cell_formula_units_Z  2
loop_
  _symmetry_equiv_pos_site_id
 _symmetry_equiv_pos_as_xyz
 1  'x, y, z'
loop_
 _atom_site_type_symbol
 _atom_site_label
 _atom_site_symmetry_multiplicity
 _atom_site_fract_x
 _atom_site_fract_y
 _atom_site_fract_z
 _atom_site_fract_occupancy
 In  In1  1  0.00000  0.00000  0.00000  1
 In  In2  1  0.00000  0.50000  0.50000  1
 Pd  Pd1  1  0.00000  0.12651  0.37349  1
 Pd  Pd2  1  0.00000  0.37349  0.87349  1
 Pd  Pd3  1  0.00000  0.62651  0.12651  1
 Pd  Pd4  1  0.00000  0.87349  0.62651  1
 Pr  Pr1  1  0.50000  0.82444  0.32444  1
 Pr  Pr2  1  0.50000  0.67556  0.82444  1
 Pr  Pr3  1  0.50000  0.32444  0.17556  1
 Pr  Pr4  1  0.50000  0.17556  0.67556  1
