CIF file written using JARVIS-Tools package.
data_Na4Li5B3O9
_symmetry_space_group_name_H-M  'C2/c'
_cell_length_a       7.20509
_cell_length_b       7.20508
_cell_length_c       9.78521
_cell_angle_alpha    74.9198
_cell_angle_beta     74.9198
_cell_angle_gamma    61.1731

_symmetry_Int_Tables_number  15
_chemical_formula_structural  Na4Li5B3O9
_chemical_formula_sum  Na8Li0B6O8
_cell_volume  424.2224171944652
_cell_formula_units_Z  2
loop_
  _symmetry_equiv_pos_site_id
 _symmetry_equiv_pos_as_xyz
 1  'x, y, z'
loop_
 _atom_site_type_symbol
 _atom_site_label
 _atom_site_symmetry_multiplicity
 _atom_site_fract_x
 _atom_site_fract_y
 _atom_site_fract_z
 _atom_site_fract_occupancy
 B  B1  1  0.08244  0.25252  0.09551  1
 B  B2  1  0.60577  0.39423  0.75000  1
 B  B3  1  0.39423  0.60577  0.25000  1
 B  B4  1  0.25252  0.08244  0.59551  1
 B  B5  1  0.74748  0.91756  0.40449  1
 B  B6  1  0.91756  0.74748  0.90449  1
 Li  Li1  1  0.51713  0.29778  0.51154  1
 Li  Li2  1  0.01419  0.07682  0.86033  1
 Li  Li3  1  0.98581  0.92318  0.13967  1
 Li  Li4  1  0.29778  0.51713  0.01154  1
 Li  Li5  1  0.48287  0.70222  0.48846  1
 Li  Li6  1  0.07682  0.01419  0.36033  1
 Li  Li7  1  0.72125  0.27875  0.25000  1
 Li  Li8  1  0.70222  0.48287  0.98846  1
 Li  Li9  1  0.92318  0.98581  0.63967  1
 Li  Li10  1  0.27875  0.72125  0.75000  1
 Na  Na1  1  0.87913  0.36366  0.48377  1
 Na  Na2  1  0.36366  0.87913  0.98377  1
 Na  Na3  1  0.77709  0.66644  0.21482  1
 Na  Na4  1  0.33356  0.22291  0.28518  1
 Na  Na5  1  0.63634  0.12087  0.01623  1
 Na  Na6  1  0.66644  0.77709  0.71482  1
 Na  Na7  1  0.22291  0.33356  0.78518  1
 Na  Na8  1  0.12087  0.63634  0.51623  1
 O  O1  1  0.79041  0.03378  0.47726  1
 O  O2  1  0.96622  0.20959  0.02274  1
 O  O3  1  0.53374  0.52133  0.85517  1
 O  O4  1  -0.00122  0.29138  0.23658  1
 O  O5  1  0.20959  0.96622  0.52274  1
 O  O6  1  0.29138  -0.00122  0.73658  1
 O  O7  1  0.75043  0.72231  0.47127  1
 O  O8  1  0.27769  0.24957  0.02873  1
 O  O9  1  0.03378  0.79041  0.97726  1
 O  O10  1  0.47867  0.46626  0.64483  1
 O  O11  1  0.52133  0.53374  0.35517  1
 O  O12  1  0.46626  0.47867  0.14483  1
 O  O13  1  0.20605  0.79395  0.25000  1
 O  O14  1  0.00122  0.70862  0.76342  1
 O  O15  1  0.70862  0.00122  0.26342  1
 O  O16  1  0.72231  0.75043  0.97127  1
 O  O17  1  0.79395  0.20605  0.75000  1
 O  O18  1  0.24957  0.27769  0.52873  1
