CIF file written using JARVIS-Tools package.
data_K2SbPO6
_symmetry_space_group_name_H-M  'Pnma'
_cell_length_a       5.96627
_cell_length_b       9.43514
_cell_length_c       10.954
_cell_angle_alpha    90
_cell_angle_beta     90
_cell_angle_gamma    90

_symmetry_Int_Tables_number  62
_chemical_formula_structural  K2SbPO6
_chemical_formula_sum  K8Sb4P4O24
_cell_volume  616.6314120184494
_cell_formula_units_Z  4
loop_
  _symmetry_equiv_pos_site_id
 _symmetry_equiv_pos_as_xyz
 1  'x, y, z'
loop_
 _atom_site_type_symbol
 _atom_site_label
 _atom_site_symmetry_multiplicity
 _atom_site_fract_x
 _atom_site_fract_y
 _atom_site_fract_z
 _atom_site_fract_occupancy
 K  K1  1  0.25000  0.61795  0.84085  1
 K  K2  1  0.25000  0.67454  0.19622  1
 K  K3  1  0.25000  0.17454  0.30378  1
 K  K4  1  0.25000  0.11795  0.65915  1
 K  K5  1  0.75000  0.32546  0.80378  1
 K  K6  1  0.75000  0.82546  0.69622  1
 K  K7  1  0.75000  0.88205  0.34085  1
 K  K8  1  0.75000  0.38205  0.15915  1
 O  O1  1  0.96409  0.28639  0.52953  1
 O  O2  1  0.75000  0.06176  0.56837  1
 O  O3  1  0.75000  0.17244  0.35208  1
 O  O4  1  0.25000  0.82756  0.64792  1
 O  O5  1  0.75000  0.67244  0.14792  1
 O  O6  1  0.25000  0.43824  0.06837  1
 O  O7  1  0.53591  0.78639  0.97047  1
 O  O8  1  0.96409  0.78639  0.97047  1
 O  O9  1  0.75000  0.56176  0.93163  1
 O  O10  1  0.75000  0.99916  0.12020  1
 O  O11  1  0.25000  0.96392  0.12028  1
 O  O12  1  0.75000  0.03608  0.87972  1
 O  O13  1  0.46409  0.71361  0.47047  1
 O  O14  1  0.25000  0.32756  0.85208  1
 O  O15  1  0.25000  0.00084  0.87980  1
 O  O16  1  0.03591  0.71361  0.47047  1
 O  O17  1  0.25000  0.46392  0.37972  1
 O  O18  1  0.25000  0.50084  0.62020  1
 O  O19  1  0.75000  0.49916  0.37980  1
 O  O20  1  0.25000  0.93824  0.43163  1
 O  O21  1  0.53591  0.28639  0.52953  1
 O  O22  1  0.03591  0.21361  0.02953  1
 O  O23  1  0.46409  0.21361  0.02953  1
 O  O24  1  0.75000  0.53608  0.62028  1
 P  P1  1  0.75000  0.69322  0.01075  1
 P  P2  1  0.25000  0.80678  0.51075  1
 P  P3  1  0.75000  0.19322  0.48925  1
 P  P4  1  0.25000  0.30678  0.98925  1
 Sb  Sb1  1  0.00000  0.00000  0.00000  1
 Sb  Sb2  1  0.50000  0.50000  0.50000  1
 Sb  Sb3  1  0.50000  0.00000  0.00000  1
 Sb  Sb4  1  0.00000  0.50000  0.50000  1
