CIF file written using JARVIS-Tools package.
data_YB2Ir3
_symmetry_space_group_name_H-M  'P6/mmm'
_cell_length_a       3.17067
_cell_length_b       5.46453
_cell_length_c       5.46424
_cell_angle_alpha    59.9983
_cell_angle_beta     89.9979
_cell_angle_gamma    89.9959

_symmetry_Int_Tables_number  191
_chemical_formula_structural  YB2Ir3
_chemical_formula_sum  YB2Ir3
_cell_volume  81.98915836065942
_cell_formula_units_Z  1
loop_
  _symmetry_equiv_pos_site_id
 _symmetry_equiv_pos_as_xyz
 1  'x, y, z'
loop_
 _atom_site_type_symbol
 _atom_site_label
 _atom_site_symmetry_multiplicity
 _atom_site_fract_x
 _atom_site_fract_y
 _atom_site_fract_z
 _atom_site_fract_occupancy
 B  B1  1  0.50000  0.16667  0.66666  1
 B  B2  1  0.50000  0.83333  0.33334  1
 Ir  Ir1  1  0.00000  0.00000  0.00000  1
 Ir  Ir2  1  -0.00000  0.50000  0.50000  1
 Ir  Ir3  1  -0.00000  0.00000  0.50000  1
 Y  Y1  1  0.50000  0.50000  0.00000  1
