data_image0
_chemical_formula_structural       Cl28Fe4S4
_chemical_formula_sum              "Cl28 Fe4 S4"
_cell_length_a       6.02167
_cell_length_b       11.7358
_cell_length_c       11.2877
_cell_angle_alpha    90
_cell_angle_beta     90
_cell_angle_gamma    104.695

_space_group_name_H-M_alt    "P 1"
_space_group_IT_number       1

loop_
  _space_group_symop_operation_xyz
  'x, y, z'

loop_
  _atom_site_type_symbol
  _atom_site_label
  _atom_site_symmetry_multiplicity
  _atom_site_fract_x
  _atom_site_fract_y
  _atom_site_fract_z
  _atom_site_occupancy
  Cl  Cl1       1.0  0.89600  0.18100  0.56300  1.0000
  Cl  Cl2       1.0  0.10400  0.31900  0.06320  1.0000
  Cl  Cl3       1.0  0.10400  0.81900  0.43700  1.0000
  Cl  Cl4       1.0  0.89600  0.68100  0.93700  1.0000
  Cl  Cl5       1.0  0.74800  0.87200  0.65000  1.0000
  Cl  Cl6       1.0  0.25200  0.62800  0.15000  1.0000
  Cl  Cl7       1.0  0.25200  0.12800  0.35000  1.0000
  Cl  Cl8       1.0  0.74800  0.37200  0.85000  1.0000
  Cl  Cl9       1.0  0.10900  0.96300  0.87300  1.0000
  Cl  Cl10      1.0  0.89100  0.53700  0.37300  1.0000
  Cl  Cl11      1.0  0.89100  0.03710  0.12700  1.0000
  Cl  Cl12      1.0  0.10900  0.46300  0.62700  1.0000
  Cl  Cl13      1.0  0.71600  0.09040  0.85600  1.0000
  Cl  Cl14      1.0  0.28400  0.41000  0.35600  1.0000
  Cl  Cl15      1.0  0.28400  0.91000  0.14400  1.0000
  Cl  Cl16      1.0  0.71600  0.59000  0.64400  1.0000
  Cl  Cl17      1.0  0.37400  0.03040  0.60700  1.0000
  Cl  Cl18      1.0  0.62600  0.47000  0.10700  1.0000
  Cl  Cl19      1.0  0.62600  0.97000  0.39300  1.0000
  Cl  Cl20      1.0  0.37400  0.53000  0.89300  1.0000
  Cl  Cl21      1.0  0.75600  0.23800  0.30100  1.0000
  Cl  Cl22      1.0  0.24400  0.26200  0.80100  1.0000
  Cl  Cl23      1.0  0.24400  0.76200  0.69900  1.0000
  Cl  Cl24      1.0  0.75600  0.73800  0.19900  1.0000
  Cl  Cl25      1.0  0.50900  0.30900  0.53700  1.0000
  Cl  Cl26      1.0  0.49100  0.19100  0.03730  1.0000
  Cl  Cl27      1.0  0.49100  0.69100  0.46300  1.0000
  Cl  Cl28      1.0  0.50900  0.80900  0.96300  1.0000
  Fe  Fe1       1.0  0.57300  0.14800  0.45800  1.0000
  Fe  Fe2       1.0  0.42700  0.35200  0.95800  1.0000
  Fe  Fe3       1.0  0.42700  0.85200  0.54200  1.0000
  Fe  Fe4       1.0  0.57300  0.64800  0.04240  1.0000
  S   S1        1.0  0.96700  0.05440  0.75800  1.0000
  S   S2        1.0  0.03330  0.44600  0.25800  1.0000
  S   S3        1.0  0.03330  0.94600  0.24200  1.0000
  S   S4        1.0  0.96700  0.55400  0.74200  1.0000
