CIF file written using JARVIS-Tools package.
data_Zr2CrCo3
_symmetry_space_group_name_H-M  'R-3m'
_cell_length_a       4.81213
_cell_length_b       4.81213
_cell_length_c       4.81213
_cell_angle_alpha    62.6234
_cell_angle_beta     62.6234
_cell_angle_gamma    62.6234

_symmetry_Int_Tables_number  166
_chemical_formula_structural  Zr2CrCo3
_chemical_formula_sum  Zr2CrCo3
_cell_volume  83.39718588224896
_cell_formula_units_Z  1
loop_
  _symmetry_equiv_pos_site_id
 _symmetry_equiv_pos_as_xyz
 1  'x, y, z'
loop_
 _atom_site_type_symbol
 _atom_site_label
 _atom_site_symmetry_multiplicity
 _atom_site_fract_x
 _atom_site_fract_y
 _atom_site_fract_z
 _atom_site_fract_occupancy
 Co  Co1  1  0.00000  0.50000  -0.00000  1
 Co  Co2  1  0.50000  -0.00000  -0.00000  1
 Co  Co3  1  0.00000  0.00000  0.50000  1
 Cr  Cr1  1  0.00000  0.00000  0.00000  1
 Zr  Zr1  1  0.62736  0.62736  0.62736  1
 Zr  Zr2  1  0.37264  0.37264  0.37264  1
