CIF file written using JARVIS-Tools package.
data_K3Cu8S6
_symmetry_space_group_name_H-M  'C2/m'
_cell_length_a       3.85974
_cell_length_b       8.83985
_cell_length_c       9.68835
_cell_angle_alpha    104.69
_cell_angle_beta     90
_cell_angle_gamma    102.61

_symmetry_Int_Tables_number  12
_chemical_formula_structural  K3Cu8S6
_chemical_formula_sum  K3Cu8S6
_cell_volume  311.50584271300136
_cell_formula_units_Z  1
loop_
  _symmetry_equiv_pos_site_id
 _symmetry_equiv_pos_as_xyz
 1  'x, y, z'
loop_
 _atom_site_type_symbol
 _atom_site_label
 _atom_site_symmetry_multiplicity
 _atom_site_fract_x
 _atom_site_fract_y
 _atom_site_fract_z
 _atom_site_fract_occupancy
 Cu  Cu1  1  0.48184  0.96367  0.35794  1
 Cu  Cu2  1  0.90626  0.81253  0.20015  1
 Cu  Cu3  1  0.69641  0.39282  0.90942  1
 Cu  Cu4  1  0.09374  0.18747  0.79985  1
 Cu  Cu5  1  0.90502  0.81005  0.46557  1
 Cu  Cu6  1  0.09498  0.18995  0.53443  1
 Cu  Cu7  1  0.30359  0.60718  0.09058  1
 Cu  Cu8  1  0.51816  0.03633  0.64206  1
 K  K1  1  0.50000  0.00000  0.00000  1
 K  K2  1  0.69058  0.38117  0.29941  1
 K  K3  1  0.30942  0.61883  0.70059  1
 S  S1  1  0.04214  0.08427  0.29359  1
 S  S2  1  0.95786  0.91573  0.70641  1
 S  S3  1  0.34185  0.68370  0.35419  1
 S  S4  1  0.83908  0.67817  0.97282  1
 S  S5  1  0.16092  0.32183  0.02718  1
 S  S6  1  0.65815  0.31630  0.64581  1
