CIF file written using JARVIS-Tools package.
data_SrGe3Pt
_symmetry_space_group_name_H-M  'I4mm'
_cell_length_a       4.55948
_cell_length_b       4.55948
_cell_length_c       6.03636
_cell_angle_alpha    112.189
_cell_angle_beta     112.189
_cell_angle_gamma    90

_symmetry_Int_Tables_number  107
_chemical_formula_structural  SrGe3Pt
_chemical_formula_sum  SrGe3Pt
_cell_volume  106.09082751723099
_cell_formula_units_Z  1
loop_
  _symmetry_equiv_pos_site_id
 _symmetry_equiv_pos_as_xyz
 1  'x, y, z'
loop_
 _atom_site_type_symbol
 _atom_site_label
 _atom_site_symmetry_multiplicity
 _atom_site_fract_x
 _atom_site_fract_y
 _atom_site_fract_z
 _atom_site_fract_occupancy
 Ge  Ge1  1  0.75554  0.25554  0.51109  1
 Ge  Ge2  1  0.25554  0.75554  0.51109  1
 Ge  Ge3  1  0.40208  0.40208  0.80416  1
 Pt  Pt1  1  0.64584  0.64584  0.29168  1
 Sr  Sr1  1  0.00099  0.00099  0.00198  1
