CIF file written using JARVIS-Tools package.
data_YMg5
_symmetry_space_group_name_H-M  'C2/m'
_cell_length_a       3.99205
_cell_length_b       6.04452
_cell_length_c       6.81998
_cell_angle_alpha    72.9854
_cell_angle_beta     90
_cell_angle_gamma    109.282

_symmetry_Int_Tables_number  12
_chemical_formula_structural  YMg5
_chemical_formula_sum  YMg5
_cell_volume  147.68213579305814
_cell_formula_units_Z  1
loop_
  _symmetry_equiv_pos_site_id
 _symmetry_equiv_pos_as_xyz
 1  'x, y, z'
loop_
 _atom_site_type_symbol
 _atom_site_label
 _atom_site_symmetry_multiplicity
 _atom_site_fract_x
 _atom_site_fract_y
 _atom_site_fract_z
 _atom_site_fract_occupancy
 Mg  Mg1  1  0.03319  0.06639  0.94841  1
 Mg  Mg2  1  0.68608  0.37217  0.11841  1
 Mg  Mg3  1  0.36109  0.72219  0.27779  1
 Mg  Mg4  1  0.03618  0.07237  0.43707  1
 Mg  Mg5  1  0.68900  0.37800  0.60723  1
 Y  Y1  1  0.36111  0.72222  0.77776  1
