CIF file written using JARVIS-Tools package.
data_MnO2
_symmetry_space_group_name_H-M  'Pnnm'
_cell_length_a       2.87077
_cell_length_b       4.52567
_cell_length_c       4.33674
_cell_angle_alpha    90
_cell_angle_beta     90
_cell_angle_gamma    90

_symmetry_Int_Tables_number  58
_chemical_formula_structural  MnO2
_chemical_formula_sum  Mn2O4
_cell_volume  56.34351331901436
_cell_formula_units_Z  2
loop_
  _symmetry_equiv_pos_site_id
 _symmetry_equiv_pos_as_xyz
 1  'x, y, z'
loop_
 _atom_site_type_symbol
 _atom_site_label
 _atom_site_symmetry_multiplicity
 _atom_site_fract_x
 _atom_site_fract_y
 _atom_site_fract_z
 _atom_site_fract_occupancy
 Mn  Mn1  1  0.00000  0.00000  0.00000  1
 Mn  Mn2  1  0.50000  0.50000  0.50000  1
 O  O1  1  0.50000  0.82886  0.22105  1
 O  O2  1  0.00000  0.32886  0.27895  1
 O  O3  1  0.00000  0.67114  0.72105  1
 O  O4  1  0.50000  0.17114  0.77895  1
