CIF file written using JARVIS-Tools package.
data_CeSi3Ir
_symmetry_space_group_name_H-M  'I4mm'
_cell_length_a       4.26491
_cell_length_b       4.26491
_cell_length_c       5.76204
_cell_angle_alpha    111.721
_cell_angle_beta     111.721
_cell_angle_gamma    90

_symmetry_Int_Tables_number  107
_chemical_formula_structural  CeSi3Ir
_chemical_formula_sum  CeSi3Ir
_cell_volume  89.30710276939826
_cell_formula_units_Z  1
loop_
  _symmetry_equiv_pos_site_id
 _symmetry_equiv_pos_as_xyz
 1  'x, y, z'
loop_
 _atom_site_type_symbol
 _atom_site_label
 _atom_site_symmetry_multiplicity
 _atom_site_fract_x
 _atom_site_fract_y
 _atom_site_fract_z
 _atom_site_fract_occupancy
 Ce  Ce1  1  -0.00000  -0.00000  -0.00000  1
 Ir  Ir1  1  0.65789  0.65789  0.31579  1
 Si  Si1  1  0.41704  0.41704  0.83407  1
 Si  Si2  1  0.76704  0.26704  0.53407  1
 Si  Si3  1  0.26704  0.76704  0.53407  1
