CIF file written using JARVIS-Tools package.
data_Ce2MgZn
_symmetry_space_group_name_H-M  'P4/mmm'
_cell_length_a       3.81831
_cell_length_b       3.81831
_cell_length_c       7.06568
_cell_angle_alpha    90
_cell_angle_beta     90
_cell_angle_gamma    90

_symmetry_Int_Tables_number  123
_chemical_formula_structural  Ce2MgZn
_chemical_formula_sum  Ce2MgZn
_cell_volume  103.01422126657938
_cell_formula_units_Z  1
loop_
  _symmetry_equiv_pos_site_id
 _symmetry_equiv_pos_as_xyz
 1  'x, y, z'
loop_
 _atom_site_type_symbol
 _atom_site_label
 _atom_site_symmetry_multiplicity
 _atom_site_fract_x
 _atom_site_fract_y
 _atom_site_fract_z
 _atom_site_fract_occupancy
 Ce  Ce1  1  0.00000  0.00000  0.78142  1
 Ce  Ce2  1  0.00000  0.00000  0.21858  1
 Mg  Mg1  1  0.50000  0.50000  0.50000  1
 Zn  Zn1  1  0.50000  0.50000  0.00000  1
