CIF file written using JARVIS-Tools package.
data_Ho5Rh3
_symmetry_space_group_name_H-M  'P6_3/mcm'
_cell_length_a       8.16779
_cell_length_b       8.16778
_cell_length_c       6.23677
_cell_angle_alpha    90
_cell_angle_beta     90
_cell_angle_gamma    120

_symmetry_Int_Tables_number  193
_chemical_formula_structural  Ho5Rh3
_chemical_formula_sum  Ho0Rh6
_cell_volume  360.3291628319524
_cell_formula_units_Z  2
loop_
  _symmetry_equiv_pos_site_id
 _symmetry_equiv_pos_as_xyz
 1  'x, y, z'
loop_
 _atom_site_type_symbol
 _atom_site_label
 _atom_site_symmetry_multiplicity
 _atom_site_fract_x
 _atom_site_fract_y
 _atom_site_fract_z
 _atom_site_fract_occupancy
 Ho  Ho1  1  0.00000  0.75124  0.75000  1
 Ho  Ho2  1  -0.00000  0.24876  0.25000  1
 Ho  Ho3  1  0.75124  0.75124  0.25000  1
 Ho  Ho4  1  0.75124  0.00000  0.75000  1
 Ho  Ho5  1  0.24876  0.24876  0.75000  1
 Ho  Ho6  1  0.24876  0.00000  0.25000  1
 Ho  Ho7  1  0.33333  0.66667  0.50000  1
 Ho  Ho8  1  0.66667  0.33333  0.00000  1
 Ho  Ho9  1  0.66667  0.33333  0.50000  1
 Ho  Ho10  1  0.33333  0.66667  0.00000  1
 Rh  Rh1  1  0.39658  0.00000  0.75000  1
 Rh  Rh2  1  0.39658  0.39658  0.25000  1
 Rh  Rh3  1  -0.00000  0.60342  0.25000  1
 Rh  Rh4  1  0.00000  0.39658  0.75000  1
 Rh  Rh5  1  0.60342  0.60342  0.75000  1
 Rh  Rh6  1  0.60342  0.00000  0.25000  1
