CIF file written using JARVIS-Tools package.
data_PuB2Ru3
_symmetry_space_group_name_H-M  'P6/mmm'
_cell_length_a       2.91491
_cell_length_b       5.5235
_cell_length_c       5.52345
_cell_angle_alpha    120.001
_cell_angle_beta     89.9994
_cell_angle_gamma    90.0017

_symmetry_Int_Tables_number  191
_chemical_formula_structural  PuB2Ru3
_chemical_formula_sum  PuB2Ru3
_cell_volume  77.01514439818007
_cell_formula_units_Z  1
loop_
  _symmetry_equiv_pos_site_id
 _symmetry_equiv_pos_as_xyz
 1  'x, y, z'
loop_
 _atom_site_type_symbol
 _atom_site_label
 _atom_site_symmetry_multiplicity
 _atom_site_fract_x
 _atom_site_fract_y
 _atom_site_fract_z
 _atom_site_fract_occupancy
 B  B1  1  -0.00000  0.33333  0.66666  1
 B  B2  1  1.00000  0.66667  0.33334  1
 Pu  Pu1  1  0.00000  1.00000  0.00000  1
 Ru  Ru1  1  0.50000  0.50000  0.50000  1
 Ru  Ru2  1  0.50000  0.00000  0.50000  1
 Ru  Ru3  1  0.50000  0.50000  1.00000  1
