CIF file written using JARVIS-Tools package.
data_Mg6SiB
_symmetry_space_group_name_H-M  'Amm2'
_cell_length_a       6.06723
_cell_length_b       8.32306
_cell_length_c       4.10319
_cell_angle_alpha    90
_cell_angle_beta     90
_cell_angle_gamma    133.307

_symmetry_Int_Tables_number  38
_chemical_formula_structural  Mg6SiB
_chemical_formula_sum  Mg6SiB
_cell_volume  150.78016895559108
_cell_formula_units_Z  1
loop_
  _symmetry_equiv_pos_site_id
 _symmetry_equiv_pos_as_xyz
 1  'x, y, z'
loop_
 _atom_site_type_symbol
 _atom_site_label
 _atom_site_symmetry_multiplicity
 _atom_site_fract_x
 _atom_site_fract_y
 _atom_site_fract_z
 _atom_site_fract_occupancy
 B  B1  1  0.07518  0.78759  0.25000  1
 Mg  Mg1  1  0.77641  0.38973  0.25000  1
 Mg  Mg2  1  0.77641  0.88668  0.25000  1
 Mg  Mg3  1  0.26473  0.05696  0.75000  1
 Mg  Mg4  1  0.26473  0.70778  0.75000  1
 Mg  Mg5  1  0.88707  0.19354  0.75000  1
 Mg  Mg6  1  0.68326  0.59163  0.75000  1
 Si  Si1  1  0.27220  0.38610  0.25000  1
