CIF file written using JARVIS-Tools package.
data_Ho2Sn3Pb3S12
_symmetry_space_group_name_H-M  'Pmc2_1'
_cell_length_a       3.92675
_cell_length_b       11.6068
_cell_length_c       20.3355
_cell_angle_alpha    90
_cell_angle_beta     90
_cell_angle_gamma    90

_symmetry_Int_Tables_number  26
_chemical_formula_structural  Ho2Sn3Pb3S12
_chemical_formula_sum  Ho4Sn6Pb6S24
_cell_volume  926.830085789896
_cell_formula_units_Z  2
loop_
  _symmetry_equiv_pos_site_id
 _symmetry_equiv_pos_as_xyz
 1  'x, y, z'
loop_
 _atom_site_type_symbol
 _atom_site_label
 _atom_site_symmetry_multiplicity
 _atom_site_fract_x
 _atom_site_fract_y
 _atom_site_fract_z
 _atom_site_fract_occupancy
 Ho  Ho1  1  0.00000  0.86692  0.10669  1
 Ho  Ho2  1  0.00000  0.36692  0.89331  1
 Ho  Ho3  1  0.00000  0.55147  0.41187  1
 Ho  Ho4  1  0.00000  0.05147  0.58813  1
 Pb  Pb1  1  0.00000  0.48939  0.08396  1
 Pb  Pb2  1  0.00000  0.28739  0.26187  1
 Pb  Pb3  1  0.00000  0.98939  0.91604  1
 Pb  Pb4  1  0.00000  0.78739  0.73813  1
 Pb  Pb5  1  0.00000  0.42449  0.62092  1
 Pb  Pb6  1  0.00000  0.92449  0.37908  1
 S  S1  1  0.00000  0.59106  0.83921  1
 S  S2  1  0.50000  0.01115  0.49103  1
 S  S3  1  0.50000  0.47848  0.96718  1
 S  S4  1  0.50000  0.39270  0.36306  1
 S  S5  1  0.50000  0.09729  0.32339  1
 S  S6  1  0.50000  0.89270  0.63694  1
 S  S7  1  0.00000  0.25694  0.01753  1
 S  S8  1  0.50000  0.85757  0.84041  1
 S  S9  1  0.00000  0.75694  0.98247  1
 S  S10  1  0.00000  0.75544  0.50244  1
 S  S11  1  0.50000  0.21422  0.62602  1
 S  S12  1  0.50000  0.71422  0.37398  1
 S  S13  1  0.50000  0.70076  0.12370  1
 S  S14  1  0.00000  0.84590  0.24284  1
 S  S15  1  0.50000  0.35757  0.15959  1
 S  S16  1  0.50000  0.59729  0.67661  1
 S  S17  1  0.00000  0.09106  0.16079  1
 S  S18  1  0.00000  0.54734  0.26259  1
 S  S19  1  0.50000  0.20076  0.87630  1
 S  S20  1  0.00000  0.34590  0.75716  1
 S  S21  1  0.00000  0.25544  0.49756  1
 S  S22  1  0.50000  0.97848  0.03282  1
 S  S23  1  0.50000  0.51115  0.50897  1
 S  S24  1  0.00000  0.04734  0.73741  1
 Sn  Sn1  1  0.50000  0.17490  0.09016  1
 Sn  Sn2  1  0.50000  0.70335  0.57132  1
 Sn  Sn3  1  0.50000  0.19244  0.75054  1
 Sn  Sn4  1  0.50000  0.20335  0.42868  1
 Sn  Sn5  1  0.50000  0.69244  0.24946  1
 Sn  Sn6  1  0.50000  0.67490  0.90984  1
