CIF file written using JARVIS-Tools package.
data_MgNi2
_symmetry_space_group_name_H-M  'P6_3/mmc'
_cell_length_a       4.80448
_cell_length_b       4.80448
_cell_length_c       15.7693
_cell_angle_alpha    90
_cell_angle_beta     90
_cell_angle_gamma    120

_symmetry_Int_Tables_number  194
_chemical_formula_structural  MgNi2
_chemical_formula_sum  Mg8Ni6
_cell_volume  315.2363536026485
_cell_formula_units_Z  8
loop_
  _symmetry_equiv_pos_site_id
 _symmetry_equiv_pos_as_xyz
 1  'x, y, z'
loop_
 _atom_site_type_symbol
 _atom_site_label
 _atom_site_symmetry_multiplicity
 _atom_site_fract_x
 _atom_site_fract_y
 _atom_site_fract_z
 _atom_site_fract_occupancy
 Mg  Mg1  1  0.00000  0.00000  0.09313  1
 Mg  Mg2  1  0.00000  0.00000  0.59313  1
 Mg  Mg3  1  0.00000  0.00000  0.90687  1
 Mg  Mg4  1  0.00000  0.00000  0.40687  1
 Mg  Mg5  1  0.33333  0.66667  0.84411  1
 Mg  Mg6  1  0.66667  0.33333  0.34411  1
 Mg  Mg7  1  0.66667  0.33333  0.15589  1
 Mg  Mg8  1  0.33333  0.66667  0.65589  1
 Ni  Ni1  1  0.50000  0.50000  0.00000  1
 Ni  Ni2  1  -0.00000  0.50000  0.50000  1
 Ni  Ni3  1  0.50000  0.00000  0.50000  1
 Ni  Ni4  1  0.66667  0.33333  0.87484  1
 Ni  Ni5  1  -0.00000  0.50000  0.00000  1
 Ni  Ni6  1  0.50000  0.50000  0.50000  1
 Ni  Ni7  1  0.50000  0.00000  0.00000  1
 Ni  Ni8  1  0.67166  0.83583  0.25000  1
 Ni  Ni9  1  0.83583  0.67166  0.75000  1
 Ni  Ni10  1  0.16417  0.32834  0.25000  1
 Ni  Ni11  1  0.16417  0.83583  0.25000  1
 Ni  Ni12  1  0.83583  0.16417  0.75000  1
 Ni  Ni13  1  0.33333  0.66667  0.12516  1
 Ni  Ni14  1  0.66667  0.33333  0.62516  1
 Ni  Ni15  1  0.32834  0.16417  0.75000  1
 Ni  Ni16  1  0.33333  0.66667  0.37484  1
