CIF file written using JARVIS-Tools package.
data_RbMgCl3
_symmetry_space_group_name_H-M  'P6_3/mmc'
_cell_length_a       7.07224
_cell_length_b       7.07224
_cell_length_c       17.5749
_cell_angle_alpha    90
_cell_angle_beta     90
_cell_angle_gamma    120

_symmetry_Int_Tables_number  194
_chemical_formula_structural  RbMgCl3
_chemical_formula_sum  Rb6Mg6Cl8
_cell_volume  761.2686926444669
_cell_formula_units_Z  6
loop_
  _symmetry_equiv_pos_site_id
 _symmetry_equiv_pos_as_xyz
 1  'x, y, z'
loop_
 _atom_site_type_symbol
 _atom_site_label
 _atom_site_symmetry_multiplicity
 _atom_site_fract_x
 _atom_site_fract_y
 _atom_site_fract_z
 _atom_site_fract_occupancy
 Cl  Cl1  1  0.83400  0.66800  0.41812  1
 Cl  Cl2  1  0.83400  0.16600  0.41812  1
 Cl  Cl3  1  0.50620  0.01241  0.25000  1
 Cl  Cl4  1  0.49380  0.50620  0.75000  1
 Cl  Cl5  1  0.50620  0.49380  0.25000  1
 Cl  Cl6  1  0.66800  0.83400  0.91812  1
 Cl  Cl7  1  0.83400  0.16600  0.08188  1
 Cl  Cl8  1  0.33200  0.16600  0.08188  1
 Cl  Cl9  1  0.33200  0.16600  0.41812  1
 Cl  Cl10  1  0.16600  0.83400  0.58188  1
 Cl  Cl11  1  0.16600  0.33200  0.91812  1
 Cl  Cl12  1  0.16600  0.83400  0.91812  1
 Cl  Cl13  1  0.66800  0.83400  0.58188  1
 Cl  Cl14  1  0.49380  0.98759  0.75000  1
 Cl  Cl15  1  0.01241  0.50620  0.75000  1
 Cl  Cl16  1  0.98759  0.49380  0.25000  1
 Cl  Cl17  1  0.83400  0.66800  0.08188  1
 Cl  Cl18  1  0.16600  0.33200  0.58188  1
 Mg  Mg1  1  0.00000  0.00000  0.50000  1
 Mg  Mg2  1  0.33333  0.66667  0.66070  1
 Mg  Mg3  1  0.66667  0.33333  0.33930  1
 Mg  Mg4  1  0.33333  0.66667  0.83930  1
 Mg  Mg5  1  0.66667  0.33333  0.16070  1
 Mg  Mg6  1  0.00000  0.00000  0.00000  1
 Rb  Rb1  1  0.33333  0.66667  0.08734  1
 Rb  Rb2  1  0.00000  0.00000  0.75000  1
 Rb  Rb3  1  0.00000  0.00000  0.25000  1
 Rb  Rb4  1  0.33333  0.66667  0.41266  1
 Rb  Rb5  1  0.66667  0.33333  0.91266  1
 Rb  Rb6  1  0.66667  0.33333  0.58734  1
