CIF file written using JARVIS-Tools package.
data_TaTe5Pt
_symmetry_space_group_name_H-M  'Cmcm'
_cell_length_a       3.78228
_cell_length_b       7.06037
_cell_length_c       15.6879
_cell_angle_alpha    90
_cell_angle_beta     90
_cell_angle_gamma    105.537

_symmetry_Int_Tables_number  63
_chemical_formula_structural  TaTe5Pt
_chemical_formula_sum  Ta2Te0Pt2
_cell_volume  403.62659450516566
_cell_formula_units_Z  2
loop_
  _symmetry_equiv_pos_site_id
 _symmetry_equiv_pos_as_xyz
 1  'x, y, z'
loop_
 _atom_site_type_symbol
 _atom_site_label
 _atom_site_symmetry_multiplicity
 _atom_site_fract_x
 _atom_site_fract_y
 _atom_site_fract_z
 _atom_site_fract_occupancy
 Pt  Pt1  1  0.00000  0.00000  0.00000  1
 Pt  Pt2  1  0.00000  0.00000  0.50000  1
 Ta  Ta1  1  0.48901  0.97801  0.75000  1
 Ta  Ta2  1  0.51099  0.02199  0.25000  1
 Te  Te1  1  0.83165  0.66331  0.75000  1
 Te  Te2  1  0.16835  0.33669  0.25000  1
 Te  Te3  1  0.60949  0.21898  0.08038  1
 Te  Te4  1  0.39051  0.78102  0.91962  1
 Te  Te5  1  0.10039  0.20078  0.85140  1
 Te  Te6  1  0.89961  0.79922  0.14860  1
 Te  Te7  1  0.89961  0.79922  0.35140  1
 Te  Te8  1  0.10039  0.20078  0.64860  1
 Te  Te9  1  0.60949  0.21898  0.41962  1
 Te  Te10  1  0.39051  0.78102  0.58038  1
