CIF file written using JARVIS-Tools package.
data_MnTlO3
_symmetry_space_group_name_H-M  'R-3'
_cell_length_a       6.98858
_cell_length_b       6.98858
_cell_length_c       6.98857
_cell_angle_alpha    42.2536
_cell_angle_beta     42.2536
_cell_angle_gamma    42.2536

_symmetry_Int_Tables_number  148
_chemical_formula_structural  MnTlO3
_chemical_formula_sum  Mn2Tl2O6
_cell_volume  139.6698672740422
_cell_formula_units_Z  2
loop_
  _symmetry_equiv_pos_site_id
 _symmetry_equiv_pos_as_xyz
 1  'x, y, z'
loop_
 _atom_site_type_symbol
 _atom_site_label
 _atom_site_symmetry_multiplicity
 _atom_site_fract_x
 _atom_site_fract_y
 _atom_site_fract_z
 _atom_site_fract_occupancy
 Mn  Mn1  1  0.66631  0.66631  0.66631  1
 Mn  Mn2  1  0.33369  0.33369  0.33369  1
 O  O1  1  0.94480  0.33727  0.55180  1
 O  O2  1  0.55180  0.94480  0.33727  1
 O  O3  1  0.33727  0.55180  0.94480  1
 O  O4  1  0.66273  0.44820  0.05520  1
 O  O5  1  0.44820  0.05520  0.66273  1
 O  O6  1  0.05520  0.66273  0.44820  1
 Tl  Tl1  1  0.87684  0.87684  0.87684  1
 Tl  Tl2  1  0.12316  0.12316  0.12316  1
