CIF file written using JARVIS-Tools package.
data_MgAs
_symmetry_space_group_name_H-M  'R32'
_cell_length_a       5.07569
_cell_length_b       5.07569
_cell_length_c       5.0757
_cell_angle_alpha    86.3217
_cell_angle_beta     86.3217
_cell_angle_gamma    86.3216

_symmetry_Int_Tables_number  155
_chemical_formula_structural  MgAs
_chemical_formula_sum  Mg3As3
_cell_volume  129.98879214213287
_cell_formula_units_Z  3
loop_
  _symmetry_equiv_pos_site_id
 _symmetry_equiv_pos_as_xyz
 1  'x, y, z'
loop_
 _atom_site_type_symbol
 _atom_site_label
 _atom_site_symmetry_multiplicity
 _atom_site_fract_x
 _atom_site_fract_y
 _atom_site_fract_z
 _atom_site_fract_occupancy
 As  As1  1  0.00000  0.00000  0.00000  1
 As  As2  1  0.36345  0.36345  0.36345  1
 As  As3  1  0.63655  0.63655  0.63655  1
 Mg  Mg1  1  0.13721  0.86279  0.50000  1
 Mg  Mg2  1  0.50000  0.13721  0.86279  1
 Mg  Mg3  1  0.86279  0.50000  0.13721  1
