CIF file written using JARVIS-Tools package.
data_CaIn2N2
_symmetry_space_group_name_H-M  'R-3m'
_cell_length_a       3.44287
_cell_length_b       3.44232
_cell_length_c       8.07045
_cell_angle_alpha    90
_cell_angle_beta     102.282
_cell_angle_gamma    119.995

_symmetry_Int_Tables_number  166
_chemical_formula_structural  CaIn2N2
_chemical_formula_sum  CaIn2N2
_cell_volume  80.29911015113505
_cell_formula_units_Z  1
loop_
  _symmetry_equiv_pos_site_id
 _symmetry_equiv_pos_as_xyz
 1  'x, y, z'
loop_
 _atom_site_type_symbol
 _atom_site_label
 _atom_site_symmetry_multiplicity
 _atom_site_fract_x
 _atom_site_fract_y
 _atom_site_fract_z
 _atom_site_fract_occupancy
 Ca  Ca1  1  0.00000  0.00000  0.50000  1
 In  In1  1  0.44392  0.22196  0.16481  1
 In  In2  1  0.55608  0.77804  0.83519  1
 N  N1  1  0.79510  0.39755  0.69325  1
 N  N2  1  0.20490  0.60245  0.30675  1
