CIF file written using JARVIS-Tools package.
data_GeBr2
_symmetry_space_group_name_H-M  'R-3m'
_cell_length_a       6.9809
_cell_length_b       8.06328
_cell_length_c       12.9253
_cell_angle_alpha    90
_cell_angle_beta     100.379
_cell_angle_gamma    90

_symmetry_Int_Tables_number  166
_chemical_formula_structural  GeBr2
_chemical_formula_sum  Ge8Br6
_cell_volume  715.6502983944595
_cell_formula_units_Z  8
loop_
  _symmetry_equiv_pos_site_id
 _symmetry_equiv_pos_as_xyz
 1  'x, y, z'
loop_
 _atom_site_type_symbol
 _atom_site_label
 _atom_site_symmetry_multiplicity
 _atom_site_fract_x
 _atom_site_fract_y
 _atom_site_fract_z
 _atom_site_fract_occupancy
 Br  Br1  1  0.12595  0.37473  0.12787  1
 Br  Br2  1  0.62599  0.87501  0.62791  1
 Br  Br3  1  0.87401  0.37501  0.37209  1
 Br  Br4  1  0.37401  0.12499  0.37209  1
 Br  Br5  1  0.12605  0.12482  0.62789  1
 Br  Br6  1  0.62608  0.62499  0.12791  1
 Br  Br7  1  0.87392  0.12499  0.87209  1
 Br  Br8  1  0.12599  0.62499  0.62791  1
 Br  Br9  1  0.12608  0.87501  0.12791  1
 Br  Br10  1  0.87405  0.62527  0.87213  1
 Br  Br11  1  0.62595  0.12527  0.12787  1
 Br  Br12  1  0.37395  0.62482  0.37211  1
 Br  Br13  1  0.37405  0.87473  0.87213  1
 Br  Br14  1  0.87395  0.87518  0.37211  1
 Br  Br15  1  0.62605  0.37518  0.62789  1
 Br  Br16  1  0.37392  0.37501  0.87209  1
 Ge  Ge1  1  0.24993  0.87510  0.50011  1
 Ge  Ge2  1  0.25007  0.37510  0.49989  1
 Ge  Ge3  1  0.75007  0.12490  0.49989  1
 Ge  Ge4  1  0.74993  0.62490  0.50011  1
 Ge  Ge5  1  0.25004  0.62511  -0.00001  1
 Ge  Ge6  1  0.24996  0.12511  0.00001  1
 Ge  Ge7  1  0.74996  0.37489  0.00001  1
 Ge  Ge8  1  0.75004  0.87489  -0.00001  1
