CIF file written using JARVIS-Tools package.
data_RbPH4O5
_symmetry_space_group_name_H-M  'P2_1/c'
_cell_length_a       7.13915
_cell_length_b       7.73566
_cell_length_c       9.44052
_cell_angle_alpha    90
_cell_angle_beta     104.01
_cell_angle_gamma    90

_symmetry_Int_Tables_number  14
_chemical_formula_structural  RbPH4O5
_chemical_formula_sum  Rb4P4H6O20
_cell_volume  505.85467603995966
_cell_formula_units_Z  4
loop_
  _symmetry_equiv_pos_site_id
 _symmetry_equiv_pos_as_xyz
 1  'x, y, z'
loop_
 _atom_site_type_symbol
 _atom_site_label
 _atom_site_symmetry_multiplicity
 _atom_site_fract_x
 _atom_site_fract_y
 _atom_site_fract_z
 _atom_site_fract_occupancy
 H  H1  1  0.42229  0.49089  0.33165  1
 H  H2  1  0.93319  0.51646  0.28844  1
 H  H3  1  0.57771  0.99089  0.16835  1
 H  H4  1  0.42229  0.00911  0.83165  1
 H  H5  1  0.57771  0.50911  0.66835  1
 H  H6  1  0.93319  0.98354  0.78844  1
 H  H7  1  0.06681  0.48354  0.71156  1
 H  H8  1  0.06681  0.01646  0.21156  1
 H  H9  1  0.63761  0.82427  0.55871  1
 H  H10  1  0.87926  0.59026  0.72289  1
 H  H11  1  0.87926  0.90974  0.22289  1
 H  H12  1  0.12074  0.09026  0.77711  1
 H  H13  1  0.36239  0.32427  0.94129  1
 H  H14  1  0.63761  0.67573  0.05871  1
 H  H15  1  0.36239  0.17573  0.44129  1
 H  H16  1  0.12074  0.40974  0.27711  1
 O  O1  1  0.79776  0.91364  0.90195  1
 O  O2  1  0.43017  0.62165  0.34668  1
 O  O3  1  0.63946  0.86839  0.45741  1
 O  O4  1  0.99665  0.96520  0.28099  1
 O  O5  1  0.37739  0.29152  0.30130  1
 O  O6  1  0.62261  0.79152  0.19870  1
 O  O7  1  0.62261  0.70848  0.69870  1
 O  O8  1  0.37739  0.20848  0.80130  1
 O  O9  1  0.36054  0.36839  0.04259  1
 O  O10  1  0.63946  0.63161  0.95741  1
 O  O11  1  0.99665  0.53480  0.78099  1
 O  O12  1  0.36054  0.13161  0.54259  1
 O  O13  1  0.43017  0.87835  0.84668  1
 O  O14  1  0.00335  0.46520  0.21901  1
 O  O15  1  0.00335  0.03480  0.71901  1
 O  O16  1  0.79776  0.58636  0.40195  1
 O  O17  1  0.20224  0.08636  0.09805  1
 O  O18  1  0.56983  0.37835  0.65332  1
 O  O19  1  0.56983  0.12165  0.15332  1
 O  O20  1  0.20224  0.41364  0.59805  1
 P  P1  1  0.36745  0.29002  0.65115  1
 P  P2  1  0.63255  0.79002  0.84885  1
 P  P3  1  0.63255  0.70998  0.34885  1
 P  P4  1  0.36745  0.20998  0.15115  1
 Rb  Rb1  1  0.82332  0.27871  0.95950  1
 Rb  Rb2  1  0.17668  0.77871  0.54050  1
 Rb  Rb3  1  0.17668  0.72129  0.04050  1
 Rb  Rb4  1  0.82332  0.22129  0.45950  1
