CIF file written using JARVIS-Tools package.
data_VPH5NO6
_symmetry_space_group_name_H-M  'Pca2_1'
_cell_length_a       6.82954
_cell_length_b       9.2071
_cell_length_c       8.69142
_cell_angle_alpha    90
_cell_angle_beta     90
_cell_angle_gamma    90

_symmetry_Int_Tables_number  29
_chemical_formula_structural  VPH5NO6
_chemical_formula_sum  V4P4H20N4O24
_cell_volume  546.5181761677075
_cell_formula_units_Z  4
loop_
  _symmetry_equiv_pos_site_id
 _symmetry_equiv_pos_as_xyz
 1  'x, y, z'
loop_
 _atom_site_type_symbol
 _atom_site_label
 _atom_site_symmetry_multiplicity
 _atom_site_fract_x
 _atom_site_fract_y
 _atom_site_fract_z
 _atom_site_fract_occupancy
 H  H1  1  0.79026  0.15533  0.70253  1
 H  H2  1  0.12543  0.23350  0.17834  1
 H  H3  1  0.87457  0.73350  0.82166  1
 H  H4  1  0.37457  0.73350  0.17834  1
 H  H5  1  0.62543  0.23350  0.82166  1
 H  H6  1  0.34056  0.17812  0.10632  1
 H  H7  1  0.65944  0.67812  0.89368  1
 H  H8  1  0.15944  0.67812  0.10632  1
 H  H9  1  0.20974  0.65533  0.29747  1
 H  H10  1  0.22225  0.81631  0.90542  1
 H  H11  1  0.29026  0.15533  0.29747  1
 H  H12  1  0.83940  0.32311  0.77491  1
 H  H13  1  0.70974  0.65533  0.70253  1
 H  H14  1  0.84056  0.17812  0.89368  1
 H  H15  1  0.72225  0.81631  0.09458  1
 H  H16  1  0.77775  0.31631  0.09458  1
 H  H17  1  0.16060  0.82311  0.22509  1
 H  H18  1  0.66060  0.82311  0.77491  1
 H  H19  1  0.33940  0.32311  0.22509  1
 H  H20  1  0.27775  0.31631  0.90542  1
 N  N1  1  0.72582  0.72350  0.79743  1
 N  N2  1  0.27418  0.22350  0.20257  1
 N  N3  1  0.22582  0.72350  0.20257  1
 N  N4  1  0.77418  0.22350  0.79743  1
 O  O1  1  0.22008  0.41469  0.93888  1
 O  O2  1  0.12295  0.04489  0.71213  1
 O  O3  1  0.98033  0.96837  0.29741  1
 O  O4  1  0.37705  0.54489  0.71213  1
 O  O5  1  0.62295  0.04489  0.28787  1
 O  O6  1  0.62430  0.66945  0.11455  1
 O  O7  1  0.79051  0.01813  0.55309  1
 O  O8  1  0.20949  0.51813  0.44691  1
 O  O9  1  0.70949  0.51813  0.55309  1
 O  O10  1  0.29051  0.01813  0.44691  1
 O  O11  1  0.01967  0.46837  0.70259  1
 O  O12  1  0.51967  0.46837  0.29741  1
 O  O13  1  0.72008  0.41469  0.06112  1
 O  O14  1  0.48033  0.96837  0.70259  1
 O  O15  1  0.27992  0.91469  0.93888  1
 O  O16  1  0.37570  0.16945  0.88545  1
 O  O17  1  0.12430  0.66945  0.88545  1
 O  O18  1  0.45852  0.29077  0.54878  1
 O  O19  1  0.95852  0.29077  0.45122  1
 O  O20  1  0.04148  0.79077  0.54878  1
 O  O21  1  0.87570  0.16945  0.11455  1
 O  O22  1  0.77992  0.91469  0.06112  1
 O  O23  1  0.87705  0.54489  0.28787  1
 O  O24  1  0.54148  0.79077  0.45122  1
 P  P1  1  0.31507  0.02901  0.80748  1
 P  P2  1  0.68493  0.52901  0.19252  1
 P  P3  1  0.18493  0.52901  0.80748  1
 P  P4  1  0.81507  0.02901  0.19252  1
 V  V1  1  0.03420  0.96436  0.51978  1
 V  V2  1  0.96580  0.46436  0.48022  1
 V  V3  1  0.46580  0.46436  0.51978  1
 V  V4  1  0.53420  0.96436  0.48022  1
