CIF file written using JARVIS-Tools package.
data_Rb2NiO2
_symmetry_space_group_name_H-M  'I4/mmm'
_cell_length_a       4.14872
_cell_length_b       4.14872
_cell_length_c       7.18576
_cell_angle_alpha    106.779
_cell_angle_beta     106.779
_cell_angle_gamma    90

_symmetry_Int_Tables_number  139
_chemical_formula_structural  Rb2NiO2
_chemical_formula_sum  Rb2NiO2
_cell_volume  112.90388157963493
_cell_formula_units_Z  1
loop_
  _symmetry_equiv_pos_site_id
 _symmetry_equiv_pos_as_xyz
 1  'x, y, z'
loop_
 _atom_site_type_symbol
 _atom_site_label
 _atom_site_symmetry_multiplicity
 _atom_site_fract_x
 _atom_site_fract_y
 _atom_site_fract_z
 _atom_site_fract_occupancy
 Ni  Ni1  1  0.00000  0.00000  0.00000  1
 O  O1  1  0.87005  0.87005  0.74010  1
 O  O2  1  0.12995  0.12995  0.25990  1
 Rb  Rb1  1  0.34840  0.34840  0.69679  1
 Rb  Rb2  1  0.65160  0.65160  0.30321  1
