CIF file written using JARVIS-Tools package.
data_KZrCuS3
_symmetry_space_group_name_H-M  'Cmcm'
_cell_length_a       3.75829
_cell_length_b       7.22469
_cell_length_c       9.82082
_cell_angle_alpha    90
_cell_angle_beta     90
_cell_angle_gamma    105.076

_symmetry_Int_Tables_number  63
_chemical_formula_structural  KZrCuS3
_chemical_formula_sum  K2Zr2Cu2S6
_cell_volume  257.4813048758197
_cell_formula_units_Z  2
loop_
  _symmetry_equiv_pos_site_id
 _symmetry_equiv_pos_as_xyz
 1  'x, y, z'
loop_
 _atom_site_type_symbol
 _atom_site_label
 _atom_site_symmetry_multiplicity
 _atom_site_fract_x
 _atom_site_fract_y
 _atom_site_fract_z
 _atom_site_fract_occupancy
 Cu  Cu1  1  0.53593  0.07185  0.25000  1
 Cu  Cu2  1  0.46407  0.92815  0.75000  1
 K  K1  1  0.25537  0.51073  0.25000  1
 K  K2  1  0.74463  0.48927  0.75000  1
 S  S1  1  0.93547  0.87093  0.25000  1
 S  S2  1  0.06453  0.12907  0.75000  1
 S  S3  1  0.37618  0.75236  0.55212  1
 S  S4  1  0.37618  0.75236  0.94788  1
 S  S5  1  0.62382  0.24764  0.05212  1
 S  S6  1  0.62382  0.24764  0.44788  1
 Zr  Zr1  1  0.00000  0.00000  0.00000  1
 Zr  Zr2  1  0.00000  0.00000  0.50000  1
