CIF file written using JARVIS-Tools package.
data_Ca5MnSi9Pb9O33
_symmetry_space_group_name_H-M  'P-6'
_cell_length_a       9.81956
_cell_length_b       9.81956
_cell_length_c       10.2141
_cell_angle_alpha    90
_cell_angle_beta     90
_cell_angle_gamma    120

_symmetry_Int_Tables_number  174
_chemical_formula_structural  Ca5MnSi9Pb9O33
_chemical_formula_sum  Ca5MnSi9Pb9O33
_cell_volume  852.9353004543385
_cell_formula_units_Z  1
loop_
  _symmetry_equiv_pos_site_id
 _symmetry_equiv_pos_as_xyz
 1  'x, y, z'
loop_
 _atom_site_type_symbol
 _atom_site_label
 _atom_site_symmetry_multiplicity
 _atom_site_fract_x
 _atom_site_fract_y
 _atom_site_fract_z
 _atom_site_fract_occupancy
 Ca  Ca1  1  0.33333  0.66667  0.66204  1
 Ca  Ca2  1  0.66667  0.33333  0.67663  1
 Ca  Ca3  1  0.33333  0.66667  0.33796  1
 Ca  Ca4  1  0.66667  0.33333  0.32337  1
 Ca  Ca5  1  0.33333  0.66667  0.00000  1
 Mn  Mn1  1  0.66667  0.33333  0.00000  1
 O  O1  1  0.50661  0.83307  0.50000  1
 O  O2  1  0.32646  0.49339  0.50000  1
 O  O3  1  0.46183  0.86832  0.82993  1
 O  O4  1  0.07046  0.30632  0.74595  1
 O  O5  1  0.13168  0.59351  0.17007  1
 O  O6  1  0.16693  0.67354  0.50000  1
 O  O7  1  0.62909  0.70711  0.00000  1
 O  O8  1  0.83560  0.34455  0.85025  1
 O  O9  1  0.51939  0.12057  0.50000  1
 O  O10  1  0.40649  0.53817  0.17007  1
 O  O11  1  0.29289  0.92199  0.00000  1
 O  O12  1  0.69368  0.76414  0.25405  1
 O  O13  1  0.35441  0.26216  0.37389  1
 O  O14  1  0.60118  0.48061  0.50000  1
 O  O15  1  0.07046  0.30632  0.25405  1
 O  O16  1  0.50895  0.16440  0.14975  1
 O  O17  1  0.65545  0.49105  0.85025  1
 O  O18  1  0.50895  0.16440  0.85025  1
 O  O19  1  0.13168  0.59351  0.82993  1
 O  O20  1  0.65545  0.49105  0.14975  1
 O  O21  1  0.23586  0.92954  0.25405  1
 O  O22  1  0.69368  0.76414  0.74595  1
 O  O23  1  0.73784  0.09225  0.62611  1
 O  O24  1  0.07801  0.37091  0.00000  1
 O  O25  1  0.23586  0.92954  0.74595  1
 O  O26  1  0.83560  0.34455  0.14975  1
 O  O27  1  0.90775  0.64559  0.62611  1
 O  O28  1  0.87943  0.39882  0.50000  1
 O  O29  1  0.46183  0.86832  0.17007  1
 O  O30  1  0.73784  0.09225  0.37389  1
 O  O31  1  0.40649  0.53817  0.82993  1
 O  O32  1  0.90775  0.64559  0.37389  1
 O  O33  1  0.35441  0.26216  0.62611  1
 Pb  Pb1  1  0.27030  0.26286  0.82583  1
 Pb  Pb2  1  0.99256  0.72970  0.82583  1
 Pb  Pb3  1  0.75136  0.74648  0.50000  1
 Pb  Pb4  1  0.73714  0.00744  0.17417  1
 Pb  Pb5  1  0.25352  0.00488  0.50000  1
 Pb  Pb6  1  0.99512  0.24864  0.50000  1
 Pb  Pb7  1  0.73714  0.00744  0.82583  1
 Pb  Pb8  1  0.27030  0.26286  0.17417  1
 Pb  Pb9  1  0.99256  0.72970  0.17417  1
 Si  Si1  1  0.59946  0.62016  0.85083  1
 Si  Si2  1  0.37984  0.97930  0.85083  1
 Si  Si3  1  0.97754  0.59326  0.50000  1
 Si  Si4  1  0.02070  0.40054  0.14917  1
 Si  Si5  1  0.59946  0.62016  0.14917  1
 Si  Si6  1  0.40674  0.38427  0.50000  1
 Si  Si7  1  0.37984  0.97930  0.14917  1
 Si  Si8  1  0.02070  0.40054  0.85083  1
 Si  Si9  1  0.61573  0.02246  0.50000  1
