CIF file written using JARVIS-Tools package.
data_NbCuTe2
_symmetry_space_group_name_H-M  'P2_1/m'
_cell_length_a       6.80188
_cell_length_b       3.8557
_cell_length_c       7.36903
_cell_angle_alpha    90
_cell_angle_beta     107.823
_cell_angle_gamma    90

_symmetry_Int_Tables_number  11
_chemical_formula_structural  NbCuTe2
_chemical_formula_sum  Nb2Cu2Te4
_cell_volume  183.98488052798137
_cell_formula_units_Z  2
loop_
  _symmetry_equiv_pos_site_id
 _symmetry_equiv_pos_as_xyz
 1  'x, y, z'
loop_
 _atom_site_type_symbol
 _atom_site_label
 _atom_site_symmetry_multiplicity
 _atom_site_fract_x
 _atom_site_fract_y
 _atom_site_fract_z
 _atom_site_fract_occupancy
 Cu  Cu1  1  0.39293  0.75000  0.40962  1
 Cu  Cu2  1  0.60707  0.25000  0.59038  1
 Nb  Nb1  1  0.17384  0.75000  0.99434  1
 Nb  Nb2  1  0.82616  0.25000  0.00566  1
 Te  Te1  1  0.01022  0.25000  0.71245  1
 Te  Te2  1  0.49411  0.25000  0.20591  1
 Te  Te3  1  0.98978  0.75000  0.28755  1
 Te  Te4  1  0.50589  0.75000  0.79409  1
