CIF file written using JARVIS-Tools package.
data_Mg3Os
_symmetry_space_group_name_H-M  'P6_3/mmc'
_cell_length_a       5.87071
_cell_length_b       5.8707
_cell_length_c       4.6607
_cell_angle_alpha    90
_cell_angle_beta     90
_cell_angle_gamma    120

_symmetry_Int_Tables_number  194
_chemical_formula_structural  Mg3Os
_chemical_formula_sum  Mg6Os2
_cell_volume  139.11127300448518
_cell_formula_units_Z  2
loop_
  _symmetry_equiv_pos_site_id
 _symmetry_equiv_pos_as_xyz
 1  'x, y, z'
loop_
 _atom_site_type_symbol
 _atom_site_label
 _atom_site_symmetry_multiplicity
 _atom_site_fract_x
 _atom_site_fract_y
 _atom_site_fract_z
 _atom_site_fract_occupancy
 Mg  Mg1  1  0.17562  0.35124  0.25000  1
 Mg  Mg2  1  0.17562  0.82438  0.25000  1
 Mg  Mg3  1  0.64876  0.82438  0.25000  1
 Mg  Mg4  1  0.35124  0.17562  0.75000  1
 Mg  Mg5  1  0.82438  0.17562  0.75000  1
 Mg  Mg6  1  0.82438  0.64876  0.75000  1
 Os  Os1  1  0.66667  0.33333  0.25000  1
 Os  Os2  1  0.33333  0.66667  0.75000  1
