CIF file written using JARVIS-Tools package.
data_Tl2TeS3
_symmetry_space_group_name_H-M  'Pnma'
_cell_length_a       6.05522
_cell_length_b       8.21661
_cell_length_c       13.5562
_cell_angle_alpha    90
_cell_angle_beta     90
_cell_angle_gamma    90

_symmetry_Int_Tables_number  62
_chemical_formula_structural  Tl2TeS3
_chemical_formula_sum  Tl8Te4S2
_cell_volume  674.4647438115672
_cell_formula_units_Z  4
loop_
  _symmetry_equiv_pos_site_id
 _symmetry_equiv_pos_as_xyz
 1  'x, y, z'
loop_
 _atom_site_type_symbol
 _atom_site_label
 _atom_site_symmetry_multiplicity
 _atom_site_fract_x
 _atom_site_fract_y
 _atom_site_fract_z
 _atom_site_fract_occupancy
 S  S1  1  0.82193  0.93880  0.60906  1
 S  S2  1  0.32193  0.56120  0.10906  1
 S  S3  1  0.67807  0.43880  0.60906  1
 S  S4  1  0.17807  0.06120  0.39094  1
 S  S5  1  0.17807  0.06120  0.10906  1
 S  S6  1  0.67807  0.43880  0.89094  1
 S  S7  1  0.32193  0.56120  0.39094  1
 S  S8  1  0.33911  0.07668  0.75000  1
 S  S9  1  0.66089  0.92332  0.25000  1
 S  S10  1  0.16089  0.57668  0.75000  1
 S  S11  1  0.82193  0.93880  0.89094  1
 S  S12  1  0.83911  0.42332  0.25000  1
 Te  Te1  1  0.73571  0.10948  0.75000  1
 Te  Te2  1  0.23571  0.39052  0.25000  1
 Te  Te3  1  0.26429  0.89052  0.25000  1
 Te  Te4  1  0.76429  0.60948  0.75000  1
 Tl  Tl1  1  0.80534  0.67481  0.42107  1
 Tl  Tl2  1  0.19466  0.32519  0.57893  1
 Tl  Tl3  1  0.80534  0.67481  0.07893  1
 Tl  Tl4  1  0.30534  0.82519  0.92107  1
 Tl  Tl5  1  0.69466  0.17481  0.42107  1
 Tl  Tl6  1  0.69466  0.17481  0.07893  1
 Tl  Tl7  1  0.19466  0.32519  0.92107  1
 Tl  Tl8  1  0.30534  0.82519  0.57893  1
