CIF file written using JARVIS-Tools package.
data_K2LiAlF6
_symmetry_space_group_name_H-M  'P6/mmm'
_cell_length_a       11.2516
_cell_length_b       11.2516
_cell_length_c       11.2516
_cell_angle_alpha    44.9525
_cell_angle_beta     44.9525
_cell_angle_gamma    44.9525

_symmetry_Int_Tables_number  191
_chemical_formula_structural  K2LiAlF6
_chemical_formula_sum  K6Li3Al3F8
_cell_volume  647.1055009729813
_cell_formula_units_Z  3
loop_
  _symmetry_equiv_pos_site_id
 _symmetry_equiv_pos_as_xyz
 1  'x, y, z'
loop_
 _atom_site_type_symbol
 _atom_site_label
 _atom_site_symmetry_multiplicity
 _atom_site_fract_x
 _atom_site_fract_y
 _atom_site_fract_z
 _atom_site_fract_occupancy
 Al  Al1  1  0.33333  0.33333  0.33333  1
 Al  Al2  1  0.00000  0.00000  0.00000  1
 Al  Al3  1  0.66667  0.66667  0.66667  1
 F  F1  1  0.41520  0.91525  0.41520  1
 F  F2  1  0.58192  0.08187  0.08187  1
 F  F3  1  0.08187  0.08187  0.58192  1
 F  F4  1  0.25146  0.25146  0.75142  1
 F  F5  1  0.41808  0.91813  0.91813  1
 F  F6  1  0.91813  0.91813  0.41808  1
 F  F7  1  0.91813  0.41808  0.91813  1
 F  F8  1  0.24858  0.74854  0.74854  1
 F  F9  1  0.08187  0.58192  0.08187  1
 F  F10  1  0.74854  0.24858  0.74854  1
 F  F11  1  0.58480  0.58480  0.08475  1
 F  F12  1  0.58480  0.08475  0.58480  1
 F  F13  1  0.91525  0.41520  0.41520  1
 F  F14  1  0.25146  0.75142  0.25146  1
 F  F15  1  0.74854  0.74854  0.24858  1
 F  F16  1  0.75142  0.25146  0.25146  1
 F  F17  1  0.08475  0.58480  0.58480  1
 F  F18  1  0.41520  0.41520  0.91525  1
 K  K1  1  0.42509  0.42509  0.42509  1
 K  K2  1  0.24157  0.24157  0.24157  1
 K  K3  1  0.75843  0.75843  0.75843  1
 K  K4  1  0.57491  0.57491  0.57491  1
 K  K5  1  0.09176  0.09176  0.09176  1
 K  K6  1  0.90824  0.90824  0.90824  1
 Li  Li1  1  0.83333  0.83333  0.83333  1
 Li  Li2  1  0.16667  0.16667  0.16667  1
 Li  Li3  1  0.50000  0.50000  0.50000  1
