CIF file written using JARVIS-Tools package.
data_SbRu
_symmetry_space_group_name_H-M  'Pnma'
_cell_length_a       3.89208
_cell_length_b       5.90214
_cell_length_c       6.62522
_cell_angle_alpha    90
_cell_angle_beta     90
_cell_angle_gamma    90

_symmetry_Int_Tables_number  62
_chemical_formula_structural  SbRu
_chemical_formula_sum  Sb4Ru4
_cell_volume  152.19197516591137
_cell_formula_units_Z  4
loop_
  _symmetry_equiv_pos_site_id
 _symmetry_equiv_pos_as_xyz
 1  'x, y, z'
loop_
 _atom_site_type_symbol
 _atom_site_label
 _atom_site_symmetry_multiplicity
 _atom_site_fract_x
 _atom_site_fract_y
 _atom_site_fract_z
 _atom_site_fract_occupancy
 Ru  Ru1  1  0.75000  0.99498  0.20765  1
 Ru  Ru2  1  0.25000  0.00502  0.79235  1
 Ru  Ru3  1  0.75000  0.49498  0.29235  1
 Ru  Ru4  1  0.25000  0.50502  0.70765  1
 Sb  Sb1  1  0.75000  0.79760  0.58558  1
 Sb  Sb2  1  0.25000  0.20240  0.41442  1
 Sb  Sb3  1  0.75000  0.29760  0.91442  1
 Sb  Sb4  1  0.25000  0.70240  0.08558  1
