CIF file written using JARVIS-Tools package.
data_SrLiBO3
_symmetry_space_group_name_H-M  'P2_1/c'
_cell_length_a       6.4669
_cell_length_b       6.73381
_cell_length_c       6.91918
_cell_angle_alpha    90
_cell_angle_beta     109.978
_cell_angle_gamma    90

_symmetry_Int_Tables_number  14
_chemical_formula_structural  SrLiBO3
_chemical_formula_sum  Sr4Li4B4O2
_cell_volume  283.1762493831644
_cell_formula_units_Z  4
loop_
  _symmetry_equiv_pos_site_id
 _symmetry_equiv_pos_as_xyz
 1  'x, y, z'
loop_
 _atom_site_type_symbol
 _atom_site_label
 _atom_site_symmetry_multiplicity
 _atom_site_fract_x
 _atom_site_fract_y
 _atom_site_fract_z
 _atom_site_fract_occupancy
 B  B1  1  0.31009  0.63574  0.07392  1
 B  B2  1  0.18991  0.13574  0.42608  1
 B  B3  1  0.68991  0.36426  0.92608  1
 B  B4  1  0.81009  0.86426  0.57392  1
 Li  Li1  1  0.60162  0.09093  0.69469  1
 Li  Li2  1  0.89838  0.59093  0.80531  1
 Li  Li3  1  0.39838  0.90907  0.30531  1
 Li  Li4  1  0.10162  0.40907  0.19469  1
 O  O1  1  0.65967  0.38634  0.71730  1
 O  O2  1  0.10744  0.30113  0.49274  1
 O  O3  1  0.89256  0.69887  0.50726  1
 O  O4  1  0.19578  0.49008  0.93760  1
 O  O5  1  0.30422  0.99008  0.56240  1
 O  O6  1  0.80422  0.50992  0.06240  1
 O  O7  1  0.34033  0.61366  0.28270  1
 O  O8  1  0.60744  0.19887  0.99274  1
 O  O9  1  0.39256  0.80113  0.00726  1
 O  O10  1  0.84033  0.88634  0.78270  1
 O  O11  1  0.69578  0.00992  0.43760  1
 O  O12  1  0.15967  0.11366  0.21730  1
 Sr  Sr1  1  0.30217  0.62441  0.63513  1
 Sr  Sr2  1  0.69783  0.37559  0.36487  1
 Sr  Sr3  1  0.80217  0.87559  0.13513  1
 Sr  Sr4  1  0.19783  0.12441  0.86487  1
