CIF file written using JARVIS-Tools package.
data_Mg2Cd
_symmetry_space_group_name_H-M  'P-6m2'
_cell_length_a       3.24957
_cell_length_b       3.24957
_cell_length_c       14.6145
_cell_angle_alpha    90
_cell_angle_beta     90
_cell_angle_gamma    120

_symmetry_Int_Tables_number  187
_chemical_formula_structural  Mg2Cd
_chemical_formula_sum  Mg4Cd2
_cell_volume  133.6490037869535
_cell_formula_units_Z  2
loop_
  _symmetry_equiv_pos_site_id
 _symmetry_equiv_pos_as_xyz
 1  'x, y, z'
loop_
 _atom_site_type_symbol
 _atom_site_label
 _atom_site_symmetry_multiplicity
 _atom_site_fract_x
 _atom_site_fract_y
 _atom_site_fract_z
 _atom_site_fract_occupancy
 Cd  Cd1  1  0.00000  0.00000  0.66296  1
 Cd  Cd2  1  0.00000  0.00000  0.33704  1
 Mg  Mg1  1  0.00000  0.00000  0.00000  1
 Mg  Mg2  1  0.66667  0.33333  0.82640  1
 Mg  Mg3  1  0.66667  0.33333  0.50000  1
 Mg  Mg4  1  0.66667  0.33333  0.17360  1
