CIF file written using JARVIS-Tools package.
data_GaTe4Mo4Se4
_symmetry_space_group_name_H-M  'F-43m'
_cell_length_a       7.60536
_cell_length_b       7.60536
_cell_length_c       7.60536
_cell_angle_alpha    60
_cell_angle_beta     60
_cell_angle_gamma    60

_symmetry_Int_Tables_number  216
_chemical_formula_structural  GaTe4Mo4Se4
_chemical_formula_sum  GaTe4Mo4Se4
_cell_volume  311.05976074061687
_cell_formula_units_Z  1
loop_
  _symmetry_equiv_pos_site_id
 _symmetry_equiv_pos_as_xyz
 1  'x, y, z'
loop_
 _atom_site_type_symbol
 _atom_site_label
 _atom_site_symmetry_multiplicity
 _atom_site_fract_x
 _atom_site_fract_y
 _atom_site_fract_z
 _atom_site_fract_occupancy
 Ga  Ga1  1  0.00000  0.00000  0.00000  1
 Mo  Mo1  1  0.40453  0.78643  0.40453  1
 Mo  Mo2  1  0.40453  0.40453  0.40453  1
 Mo  Mo3  1  0.40453  0.40453  0.78643  1
 Mo  Mo4  1  0.78643  0.40453  0.40453  1
 Se  Se1  1  0.63153  0.10542  0.63153  1
 Se  Se2  1  0.63153  0.63153  0.63153  1
 Se  Se3  1  0.63153  0.63153  0.10542  1
 Se  Se4  1  0.10542  0.63153  0.63153  1
 Te  Te1  1  0.13770  0.13770  0.13770  1
 Te  Te2  1  0.58691  0.13770  0.13770  1
 Te  Te3  1  0.13770  0.58691  0.13770  1
 Te  Te4  1  0.13770  0.13770  0.58691  1
