CIF file written using JARVIS-Tools package.
data_Rb2MgH4
_symmetry_space_group_name_H-M  'Cmcm'
_cell_length_a       14.0103
_cell_length_b       5.89515
_cell_length_c       5.85744
_cell_angle_alpha    90
_cell_angle_beta     90
_cell_angle_gamma    90

_symmetry_Int_Tables_number  63
_chemical_formula_structural  Rb2MgH4
_chemical_formula_sum  Rb8Mg4H6
_cell_volume  483.7824817294776
_cell_formula_units_Z  4
loop_
  _symmetry_equiv_pos_site_id
 _symmetry_equiv_pos_as_xyz
 1  'x, y, z'
loop_
 _atom_site_type_symbol
 _atom_site_label
 _atom_site_symmetry_multiplicity
 _atom_site_fract_x
 _atom_site_fract_y
 _atom_site_fract_z
 _atom_site_fract_occupancy
 H  H1  1  0.24996  0.75068  0.00003  1
 H  H2  1  0.60770  -0.00055  0.25000  1
 H  H3  1  0.75004  0.24932  0.50003  1
 H  H4  1  0.39230  0.00055  0.75000  1
 H  H5  1  0.89230  0.49945  0.75000  1
 H  H6  1  0.89229  0.99930  0.25000  1
 H  H7  1  0.39229  0.50070  0.25000  1
 H  H8  1  0.10770  0.50055  0.25000  1
 H  H9  1  0.60771  0.49930  0.75000  1
 H  H10  1  0.75004  0.24932  -0.00003  1
 H  H11  1  0.25004  0.25068  0.50003  1
 H  H12  1  0.24996  0.75068  0.49997  1
 H  H13  1  0.74996  0.74932  0.00003  1
 H  H14  1  0.25004  0.25068  -0.00003  1
 H  H15  1  0.74996  0.74932  0.49997  1
 H  H16  1  0.10771  0.00070  0.75000  1
 Mg  Mg1  1  0.74999  -0.00064  0.25000  1
 Mg  Mg2  1  0.24999  0.50064  0.25000  1
 Mg  Mg3  1  0.25001  0.00064  0.75000  1
 Mg  Mg4  1  0.75001  0.49936  0.75000  1
 Rb  Rb1  1  0.10447  0.50059  0.75000  1
 Rb  Rb2  1  0.60447  -0.00059  0.75000  1
 Rb  Rb3  1  0.89553  0.49941  0.25000  1
 Rb  Rb4  1  0.39553  0.00059  0.25000  1
 Rb  Rb5  1  0.39551  0.50053  0.75000  1
 Rb  Rb6  1  0.89551  -0.00053  0.75000  1
 Rb  Rb7  1  0.60449  0.49947  0.25000  1
 Rb  Rb8  1  0.10449  0.00053  0.25000  1
