CIF file written using JARVIS-Tools package.
data_NdSi3Rh
_symmetry_space_group_name_H-M  'I4mm'
_cell_length_a       4.27422
_cell_length_b       4.27422
_cell_length_c       5.778
_cell_angle_alpha    111.708
_cell_angle_beta     111.708
_cell_angle_gamma    90

_symmetry_Int_Tables_number  107
_chemical_formula_structural  NdSi3Rh
_chemical_formula_sum  NdSi3Rh
_cell_volume  89.96547572597667
_cell_formula_units_Z  1
loop_
  _symmetry_equiv_pos_site_id
 _symmetry_equiv_pos_as_xyz
 1  'x, y, z'
loop_
 _atom_site_type_symbol
 _atom_site_label
 _atom_site_symmetry_multiplicity
 _atom_site_fract_x
 _atom_site_fract_y
 _atom_site_fract_z
 _atom_site_fract_occupancy
 Nd  Nd1  1  0.00010  0.00010  0.00020  1
 Rh  Rh1  1  0.65484  0.65484  0.30967  1
 Si  Si1  1  0.41399  0.41399  0.82797  1
 Si  Si2  1  0.76254  0.26254  0.52508  1
 Si  Si3  1  0.26254  0.76254  0.52508  1
