CIF file written using JARVIS-Tools package.
data_Cr2FeS4
_symmetry_space_group_name_H-M  'C2/m'
_cell_length_a       3.18453
_cell_length_b       5.69183
_cell_length_c       6.16458
_cell_angle_alpha    114.127
_cell_angle_beta     104.969
_cell_angle_gamma    90

_symmetry_Int_Tables_number  12
_chemical_formula_structural  Cr2FeS4
_chemical_formula_sum  Cr2FeS4
_cell_volume  97.80752716830257
_cell_formula_units_Z  1
loop_
  _symmetry_equiv_pos_site_id
 _symmetry_equiv_pos_as_xyz
 1  'x, y, z'
loop_
 _atom_site_type_symbol
 _atom_site_label
 _atom_site_symmetry_multiplicity
 _atom_site_fract_x
 _atom_site_fract_y
 _atom_site_fract_z
 _atom_site_fract_occupancy
 Cr  Cr1  1  0.73827  0.68140  0.47655  1
 Cr  Cr2  1  0.26173  0.31860  0.52345  1
 Fe  Fe1  1  0.00000  0.00000  0.00000  1
 S  S1  1  0.63779  0.97880  0.27557  1
 S  S2  1  0.36221  0.02120  0.72443  1
 S  S3  1  0.89413  0.56082  0.78826  1
 S  S4  1  0.10587  0.43918  0.21174  1
