CIF file written using JARVIS-Tools package.
data_InRh3PbS2
_symmetry_space_group_name_H-M  'R-3m'
_cell_length_a       5.70878
_cell_length_b       5.70878
_cell_length_c       5.70878
_cell_angle_alpha    60.1126
_cell_angle_beta     60.1126
_cell_angle_gamma    60.1126

_symmetry_Int_Tables_number  166
_chemical_formula_structural  InRh3PbS2
_chemical_formula_sum  InRh3PbS2
_cell_volume  131.89287957800838
_cell_formula_units_Z  1
loop_
  _symmetry_equiv_pos_site_id
 _symmetry_equiv_pos_as_xyz
 1  'x, y, z'
loop_
 _atom_site_type_symbol
 _atom_site_label
 _atom_site_symmetry_multiplicity
 _atom_site_fract_x
 _atom_site_fract_y
 _atom_site_fract_z
 _atom_site_fract_occupancy
 In  In1  1  0.00000  0.00000  0.00000  1
 Pb  Pb1  1  0.50000  0.50000  0.50000  1
 Rh  Rh1  1  0.50000  0.50000  -0.00000  1
 Rh  Rh2  1  0.50000  0.00000  0.50000  1
 Rh  Rh3  1  0.00000  0.50000  0.50000  1
 S  S1  1  0.78291  0.78291  0.78291  1
 S  S2  1  0.21709  0.21709  0.21709  1
