CIF file written using JARVIS-Tools package.
data_F
_symmetry_space_group_name_H-M  'C2/m'
_cell_length_a       5.43636
_cell_length_b       3.05425
_cell_length_c       7.13642
_cell_angle_alpha    90
_cell_angle_beta     108.289
_cell_angle_gamma    90

_symmetry_Int_Tables_number  12
_chemical_formula_structural  F
_chemical_formula_sum  F8
_cell_volume  112.50734607085268
_cell_formula_units_Z  8
loop_
  _symmetry_equiv_pos_site_id
 _symmetry_equiv_pos_as_xyz
 1  'x, y, z'
loop_
 _atom_site_type_symbol
 _atom_site_label
 _atom_site_symmetry_multiplicity
 _atom_site_fract_x
 _atom_site_fract_y
 _atom_site_fract_z
 _atom_site_fract_occupancy
 F  F1  1  0.50455  0.00000  0.40073  1
 F  F2  1  0.08809  0.00000  0.09888  1
 F  F3  1  0.49545  0.00000  0.59927  1
 F  F4  1  0.91191  0.00000  0.90112  1
 F  F5  1  0.00455  0.50000  0.40073  1
 F  F6  1  0.58809  0.50000  0.09888  1
 F  F7  1  -0.00455  0.50000  0.59927  1
 F  F8  1  0.41191  0.50000  0.90112  1
