CIF file written using JARVIS-Tools package.
data_Li3AlSiO5
_symmetry_space_group_name_H-M  'Pna2_1'
_cell_length_a       5.34718
_cell_length_b       15.5408
_cell_length_c       4.82227
_cell_angle_alpha    90
_cell_angle_beta     90
_cell_angle_gamma    90

_symmetry_Int_Tables_number  33
_chemical_formula_structural  Li3AlSiO5
_chemical_formula_sum  Li2Al4Si4O20
_cell_volume  400.72796377012907
_cell_formula_units_Z  4
loop_
  _symmetry_equiv_pos_site_id
 _symmetry_equiv_pos_as_xyz
 1  'x, y, z'
loop_
 _atom_site_type_symbol
 _atom_site_label
 _atom_site_symmetry_multiplicity
 _atom_site_fract_x
 _atom_site_fract_y
 _atom_site_fract_z
 _atom_site_fract_occupancy
 Al  Al1  1  0.83054  0.69995  0.39852  1
 Al  Al2  1  0.66946  0.19995  0.89852  1
 Al  Al3  1  0.16946  0.30005  0.89852  1
 Al  Al4  1  0.33054  0.80005  0.39852  1
 Li  Li1  1  0.83639  0.49539  0.39467  1
 Li  Li2  1  0.82708  0.30329  0.39767  1
 Li  Li3  1  0.32708  0.19671  0.39767  1
 Li  Li4  1  0.67292  0.80329  0.89767  1
 Li  Li5  1  0.17292  0.69671  0.89767  1
 Li  Li6  1  0.67095  0.40420  0.89705  1
 Li  Li7  1  0.33639  0.00461  0.39467  1
 Li  Li8  1  0.66361  0.99539  0.89467  1
 Li  Li9  1  0.32905  0.59580  0.39705  1
 Li  Li10  1  0.82905  0.90420  0.39705  1
 Li  Li11  1  0.17095  0.09580  0.89705  1
 Li  Li12  1  0.16361  0.50461  0.89467  1
 O  O1  1  0.81333  0.68636  0.76844  1
 O  O2  1  0.12536  0.10233  0.30001  1
 O  O3  1  0.62536  0.39767  0.30001  1
 O  O4  1  0.37464  0.60233  0.80001  1
 O  O5  1  0.81383  0.51210  0.79648  1
 O  O6  1  0.68617  0.01210  0.29648  1
 O  O7  1  0.18617  0.48790  0.29648  1
 O  O8  1  0.85076  0.29116  0.80690  1
 O  O9  1  0.18667  0.31364  0.26844  1
 O  O10  1  0.31383  0.98790  0.79648  1
 O  O11  1  0.68667  0.18636  0.26844  1
 O  O12  1  0.14924  0.70884  0.30690  1
 O  O13  1  0.68938  0.60835  0.24091  1
 O  O14  1  0.31062  0.39165  0.74091  1
 O  O15  1  0.81062  0.10835  0.74091  1
 O  O16  1  0.18938  0.89165  0.24091  1
 O  O17  1  0.64924  0.79116  0.30690  1
 O  O18  1  0.35076  0.20884  0.80690  1
 O  O19  1  0.87464  0.89767  0.80001  1
 O  O20  1  0.31333  0.81364  0.76844  1
 Si  Si1  1  0.66580  0.59768  0.89486  1
 Si  Si2  1  0.16580  0.90232  0.89486  1
 Si  Si3  1  0.83420  0.09768  0.39486  1
 Si  Si4  1  0.33420  0.40232  0.39486  1
