CIF file written using JARVIS-Tools package.
data_ZrSc2
_symmetry_space_group_name_H-M  'C2/m'
_cell_length_a       3.25571
_cell_length_b       6.08565
_cell_length_c       7.59831
_cell_angle_alpha    102.6
_cell_angle_beta     90
_cell_angle_gamma    105.515

_symmetry_Int_Tables_number  12
_chemical_formula_structural  ZrSc2
_chemical_formula_sum  Zr2Sc4
_cell_volume  141.29401273763222
_cell_formula_units_Z  2
loop_
  _symmetry_equiv_pos_site_id
 _symmetry_equiv_pos_as_xyz
 1  'x, y, z'
loop_
 _atom_site_type_symbol
 _atom_site_label
 _atom_site_symmetry_multiplicity
 _atom_site_fract_x
 _atom_site_fract_y
 _atom_site_fract_z
 _atom_site_fract_occupancy
 Sc  Sc1  1  0.80795  0.61590  0.86233  1
 Sc  Sc2  1  0.19205  0.38410  0.13767  1
 Sc  Sc3  1  0.86599  0.73197  0.47400  1
 Sc  Sc4  1  0.13401  0.26803  0.52600  1
 Zr  Zr1  1  0.47355  0.94710  0.19294  1
 Zr  Zr2  1  0.52645  0.05290  0.80706  1
