CIF file written using JARVIS-Tools package.
data_NiTeO4
_symmetry_space_group_name_H-M  'P2/m'
_cell_length_a       4.73098
_cell_length_b       9.60864
_cell_length_c       9.08643
_cell_angle_alpha    18.9764
_cell_angle_beta     33.1824
_cell_angle_gamma    37.6791

_symmetry_Int_Tables_number  10
_chemical_formula_structural  NiTeO4
_chemical_formula_sum  NiTeO4
_cell_volume  73.51204478816229
_cell_formula_units_Z  1
loop_
  _symmetry_equiv_pos_site_id
 _symmetry_equiv_pos_as_xyz
 1  'x, y, z'
loop_
 _atom_site_type_symbol
 _atom_site_label
 _atom_site_symmetry_multiplicity
 _atom_site_fract_x
 _atom_site_fract_y
 _atom_site_fract_z
 _atom_site_fract_occupancy
 Ni  Ni1  1  0.50000  0.50000  0.50000  1
 O  O1  1  0.21472  0.00000  0.24677  1
 O  O2  1  0.28141  0.50000  0.22796  1
 O  O3  1  0.78528  -0.00000  0.75323  1
 O  O4  1  0.71859  0.50000  0.77204  1
 Te  Te1  1  0.50000  0.00000  0.50000  1
