CIF file written using JARVIS-Tools package.
data_U2N3
_symmetry_space_group_name_H-M  'P-3m1'
_cell_length_a       3.69638
_cell_length_b       3.6964
_cell_length_c       5.78503
_cell_angle_alpha    90
_cell_angle_beta     89.9984
_cell_angle_gamma    120

_symmetry_Int_Tables_number  164
_chemical_formula_structural  U2N3
_chemical_formula_sum  U2N3
_cell_volume  68.45301677234886
_cell_formula_units_Z  1
loop_
  _symmetry_equiv_pos_site_id
 _symmetry_equiv_pos_as_xyz
 1  'x, y, z'
loop_
 _atom_site_type_symbol
 _atom_site_label
 _atom_site_symmetry_multiplicity
 _atom_site_fract_x
 _atom_site_fract_y
 _atom_site_fract_z
 _atom_site_fract_occupancy
 N  N1  1  0.00000  0.00000  0.00000  1
 N  N2  1  0.33334  0.66667  0.64302  1
 N  N3  1  0.66666  0.33333  0.35698  1
 U  U1  1  0.33333  0.66666  0.24220  1
 U  U2  1  0.66667  0.33334  0.75780  1
