CIF file written using JARVIS-Tools package.
data_Er2Se3
_symmetry_space_group_name_H-M  'P-4m2'
_cell_length_a       3.92142
_cell_length_b       3.92142
_cell_length_c       8.02945
_cell_angle_alpha    90
_cell_angle_beta     90
_cell_angle_gamma    90

_symmetry_Int_Tables_number  115
_chemical_formula_structural  Er2Se3
_chemical_formula_sum  Er2Se3
_cell_volume  123.47317686803476
_cell_formula_units_Z  1
loop_
  _symmetry_equiv_pos_site_id
 _symmetry_equiv_pos_as_xyz
 1  'x, y, z'
loop_
 _atom_site_type_symbol
 _atom_site_label
 _atom_site_symmetry_multiplicity
 _atom_site_fract_x
 _atom_site_fract_y
 _atom_site_fract_z
 _atom_site_fract_occupancy
 Er  Er1  1  0.50000  0.00000  0.76165  1
 Er  Er2  1  0.00000  0.50000  0.23835  1
 Se  Se1  1  0.00000  0.50000  0.86562  1
 Se  Se2  1  0.50000  0.00000  0.13438  1
 Se  Se3  1  0.50000  0.50000  0.50000  1
