CIF file written using JARVIS-Tools package.
data_Li5Mg
_symmetry_space_group_name_H-M  'R32'
_cell_length_a       5.26282
_cell_length_b       5.26282
_cell_length_c       5.83627
_cell_angle_alpha    116.796
_cell_angle_beta     63.2003
_cell_angle_gamma    120

_symmetry_Int_Tables_number  155
_chemical_formula_structural  Li5Mg
_chemical_formula_sum  Li5Mg
_cell_volume  119.52615748810051
_cell_formula_units_Z  1
loop_
  _symmetry_equiv_pos_site_id
 _symmetry_equiv_pos_as_xyz
 1  'x, y, z'
loop_
 _atom_site_type_symbol
 _atom_site_label
 _atom_site_symmetry_multiplicity
 _atom_site_fract_x
 _atom_site_fract_y
 _atom_site_fract_z
 _atom_site_fract_occupancy
 Li  Li1  1  -0.00027  0.00000  0.00000  1
 Li  Li2  1  0.66693  0.33360  0.00000  1
 Li  Li3  1  0.33333  0.66640  -0.00000  1
 Li  Li4  1  0.49971  0.83362  0.50085  1
 Li  Li5  1  0.16695  0.16638  0.49915  1
 Mg  Mg1  1  0.83333  0.50000  0.50000  1
