CIF file written using JARVIS-Tools package.
data_Nd2Ge5Rh3
_symmetry_space_group_name_H-M  'Ibam'
_cell_length_a       6.1115
_cell_length_b       8.46723
_cell_length_c       8.46723
_cell_angle_alpha    91.2028
_cell_angle_beta     111.158
_cell_angle_gamma    111.158

_symmetry_Int_Tables_number  72
_chemical_formula_structural  Nd2Ge5Rh3
_chemical_formula_sum  Nd4Ge0Rh6
_cell_volume  375.2653781768121
_cell_formula_units_Z  2
loop_
  _symmetry_equiv_pos_site_id
 _symmetry_equiv_pos_as_xyz
 1  'x, y, z'
loop_
 _atom_site_type_symbol
 _atom_site_label
 _atom_site_symmetry_multiplicity
 _atom_site_fract_x
 _atom_site_fract_y
 _atom_site_fract_z
 _atom_site_fract_occupancy
 Ge  Ge1  1  0.33982  0.74102  0.93844  1
 Ge  Ge2  1  0.75000  0.22348  0.77652  1
 Ge  Ge3  1  0.25000  0.77652  0.22348  1
 Ge  Ge4  1  0.75000  0.50004  0.49996  1
 Ge  Ge5  1  0.25000  0.22353  0.77647  1
 Ge  Ge6  1  0.75000  0.77647  0.22353  1
 Ge  Ge7  1  0.25000  0.49996  0.50004  1
 Ge  Ge8  1  0.66018  0.25898  0.06156  1
 Ge  Ge9  1  0.83982  0.93844  0.74102  1
 Ge  Ge10  1  0.16018  0.06156  0.25898  1
 Nd  Nd1  1  0.73162  0.59829  0.86487  1
 Nd  Nd2  1  0.76838  0.13513  0.40171  1
 Nd  Nd3  1  0.23162  0.86487  0.59829  1
 Nd  Nd4  1  0.26838  0.40171  0.13513  1
 Rh  Rh1  1  0.75000  0.00005  0.99995  1
 Rh  Rh2  1  0.10656  0.46612  0.74713  1
 Rh  Rh3  1  0.60656  0.74713  0.46612  1
 Rh  Rh4  1  0.89344  0.53388  0.25287  1
 Rh  Rh5  1  0.25000  0.99995  0.00005  1
 Rh  Rh6  1  0.39344  0.25287  0.53388  1
