CIF file written using JARVIS-Tools package.
data_AlSeBr3N
_symmetry_space_group_name_H-M  'P2_1/c'
_cell_length_a       7.6612
_cell_length_b       9.4511
_cell_length_c       9.87373
_cell_angle_alpha    90
_cell_angle_beta     90
_cell_angle_gamma    110.157

_symmetry_Int_Tables_number  14
_chemical_formula_structural  AlSeBr3N
_chemical_formula_sum  Al4Se4Br2N4
_cell_volume  671.1374362185439
_cell_formula_units_Z  4
loop_
  _symmetry_equiv_pos_site_id
 _symmetry_equiv_pos_as_xyz
 1  'x, y, z'
loop_
 _atom_site_type_symbol
 _atom_site_label
 _atom_site_symmetry_multiplicity
 _atom_site_fract_x
 _atom_site_fract_y
 _atom_site_fract_z
 _atom_site_fract_occupancy
 Al  Al1  1  0.38624  0.15878  0.12859  1
 Al  Al2  1  0.11376  0.34122  0.62859  1
 Al  Al3  1  0.88624  0.65878  0.37141  1
 Al  Al4  1  0.61376  0.84122  0.87141  1
 Br  Br1  1  0.88151  0.28724  0.46631  1
 Br  Br2  1  0.18558  0.12494  0.67112  1
 Br  Br3  1  0.57096  0.95358  0.67576  1
 Br  Br4  1  0.61849  0.21276  0.96631  1
 Br  Br5  1  0.81442  0.87506  0.32888  1
 Br  Br6  1  0.92904  0.54642  0.17576  1
 Br  Br7  1  0.07096  0.45358  0.82424  1
 Br  Br8  1  0.42904  0.04642  0.32424  1
 Br  Br9  1  0.38151  0.78724  0.03369  1
 Br  Br10  1  0.31442  0.37506  0.17112  1
 Br  Br11  1  0.68558  0.62494  0.82888  1
 Br  Br12  1  0.11849  0.71276  0.53369  1
 N  N1  1  0.65353  0.54925  0.45359  1
 N  N2  1  0.84647  0.95075  0.95359  1
 N  N3  1  0.34647  0.45075  0.54641  1
 N  N4  1  0.15353  0.04925  0.04641  1
 Se  Se1  1  0.03019  0.86841  0.96442  1
 Se  Se2  1  0.96981  0.13159  0.03558  1
 Se  Se3  1  0.53019  0.36841  0.53558  1
 Se  Se4  1  0.46981  0.63159  0.46442  1
