CIF file written using JARVIS-Tools package.
data_PrBr3
_symmetry_space_group_name_H-M  'P6_3/m'
_cell_length_a       7.93398
_cell_length_b       7.93398
_cell_length_c       4.45835
_cell_angle_alpha    90
_cell_angle_beta     90
_cell_angle_gamma    120

_symmetry_Int_Tables_number  176
_chemical_formula_structural  PrBr3
_chemical_formula_sum  Pr2Br6
_cell_volume  243.0453818834016
_cell_formula_units_Z  2
loop_
  _symmetry_equiv_pos_site_id
 _symmetry_equiv_pos_as_xyz
 1  'x, y, z'
loop_
 _atom_site_type_symbol
 _atom_site_label
 _atom_site_symmetry_multiplicity
 _atom_site_fract_x
 _atom_site_fract_y
 _atom_site_fract_z
 _atom_site_fract_occupancy
 Br  Br1  1  0.91447  0.61677  0.75000  1
 Br  Br2  1  0.29770  0.91447  0.25000  1
 Br  Br3  1  0.08553  0.38323  0.25000  1
 Br  Br4  1  0.70230  0.08553  0.75000  1
 Br  Br5  1  0.38323  0.29770  0.75000  1
 Br  Br6  1  0.61677  0.70230  0.25000  1
 Pr  Pr1  1  0.33333  0.66667  0.75000  1
 Pr  Pr2  1  0.66667  0.33333  0.25000  1
