CIF file written using JARVIS-Tools package.
data_Te2Mo
_symmetry_space_group_name_H-M  'P-6m2'
_cell_length_a       3.56256
_cell_length_b       3.56256
_cell_length_c       16.3716
_cell_angle_alpha    90.0004
_cell_angle_beta     89.9996
_cell_angle_gamma    120

_symmetry_Int_Tables_number  187
_chemical_formula_structural  Te2Mo
_chemical_formula_sum  Te2Mo
_cell_volume  179.9482406887269
_cell_formula_units_Z  1
loop_
  _symmetry_equiv_pos_site_id
 _symmetry_equiv_pos_as_xyz
 1  'x, y, z'
loop_
 _atom_site_type_symbol
 _atom_site_label
 _atom_site_symmetry_multiplicity
 _atom_site_fract_x
 _atom_site_fract_y
 _atom_site_fract_z
 _atom_site_fract_occupancy
 Mo  Mo1  1  0.33333  0.66667  0.21709  1
 Te  Te1  1  0.66667  0.33333  0.10643  1
 Te  Te2  1  0.66666  0.33334  0.32775  1
