CIF file written using JARVIS-Tools package.
data_RbLi7Si2O8
_symmetry_space_group_name_H-M  'C2/m'
_cell_length_a       6.35803
_cell_length_b       7.76832
_cell_length_c       8.43637
_cell_angle_alpha    90.4434
_cell_angle_beta     112.137
_cell_angle_gamma    90

_symmetry_Int_Tables_number  12
_chemical_formula_structural  RbLi7Si2O8
_chemical_formula_sum  Rb2Li4Si4O6
_cell_volume  385.95387126634927
_cell_formula_units_Z  2
loop_
  _symmetry_equiv_pos_site_id
 _symmetry_equiv_pos_as_xyz
 1  'x, y, z'
loop_
 _atom_site_type_symbol
 _atom_site_label
 _atom_site_symmetry_multiplicity
 _atom_site_fract_x
 _atom_site_fract_y
 _atom_site_fract_z
 _atom_site_fract_occupancy
 Li  Li1  1  0.18423  0.36724  0.86071  1
 Li  Li2  1  0.32352  0.63276  0.13929  1
 Li  Li3  1  0.81577  0.63276  0.13929  1
 Li  Li4  1  0.06699  0.29084  0.13399  1
 Li  Li5  1  0.92767  0.13437  0.36836  1
 Li  Li6  1  0.93301  0.70916  0.86601  1
 Li  Li7  1  0.50000  0.00000  0.00000  1
 Li  Li8  1  0.67648  0.36724  0.86071  1
 Li  Li9  1  0.35618  0.13433  0.71236  1
 Li  Li10  1  0.55931  0.86563  0.63164  1
 Li  Li11  1  0.07233  0.86563  0.63164  1
 Li  Li12  1  0.64382  0.86567  0.28764  1
 Li  Li13  1  0.00000  0.00000  0.00000  1
 Li  Li14  1  0.44069  0.13437  0.36836  1
 O  O1  1  0.38042  0.39535  0.19797  1
 O  O2  1  0.58392  0.19505  0.60562  1
 O  O3  1  0.87196  0.92953  0.74392  1
 O  O4  1  0.41608  0.80495  0.39438  1
 O  O5  1  0.81754  0.39535  0.19797  1
 O  O6  1  0.61622  0.10214  0.23245  1
 O  O7  1  0.18246  0.60465  0.80203  1
 O  O8  1  0.46642  0.25137  0.93285  1
 O  O9  1  0.53358  0.74863  0.06715  1
 O  O10  1  0.05214  0.76354  0.10429  1
 O  O11  1  0.94786  0.23646  0.89571  1
 O  O12  1  0.61958  0.60465  0.80203  1
 O  O13  1  0.38378  0.89786  0.76755  1
 O  O14  1  0.12804  0.07047  0.25608  1
 O  O15  1  0.97831  0.80495  0.39438  1
 O  O16  1  0.02169  0.19505  0.60562  1
 Rb  Rb1  1  0.75550  0.53199  0.51099  1
 Rb  Rb2  1  0.24450  0.46801  0.48901  1
 Si  Si1  1  0.42960  0.70567  0.85921  1
 Si  Si2  1  0.85265  0.13924  0.70530  1
 Si  Si3  1  0.57040  0.29433  0.14079  1
 Si  Si4  1  0.14735  0.86076  0.29470  1
