CIF file written using JARVIS-Tools package.
data_NdScSb
_symmetry_space_group_name_H-M  'I4/mmm'
_cell_length_a       4.44838
_cell_length_b       4.44838
_cell_length_c       8.86429
_cell_angle_alpha    104.532
_cell_angle_beta     104.532
_cell_angle_gamma    90

_symmetry_Int_Tables_number  139
_chemical_formula_structural  NdScSb
_chemical_formula_sum  Nd2Sc2Sb2
_cell_volume  163.99268694555784
_cell_formula_units_Z  2
loop_
  _symmetry_equiv_pos_site_id
 _symmetry_equiv_pos_as_xyz
 1  'x, y, z'
loop_
 _atom_site_type_symbol
 _atom_site_label
 _atom_site_symmetry_multiplicity
 _atom_site_fract_x
 _atom_site_fract_y
 _atom_site_fract_z
 _atom_site_fract_occupancy
 Nd  Nd1  1  0.82417  0.82417  0.64833  1
 Nd  Nd2  1  0.17583  0.17583  0.35167  1
 Sb  Sb1  1  0.62622  0.62622  0.25244  1
 Sb  Sb2  1  0.37378  0.37378  0.74756  1
 Sc  Sc1  1  0.50000  0.00000  0.00000  1
 Sc  Sc2  1  0.00000  0.50000  0.00000  1
