CIF file written using JARVIS-Tools package.
data_RbAsOF4
_symmetry_space_group_name_H-M  'P2_1/c'
_cell_length_a       5.12143
_cell_length_b       5.94978
_cell_length_c       14.0731
_cell_angle_alpha    90
_cell_angle_beta     91.6976
_cell_angle_gamma    90

_symmetry_Int_Tables_number  14
_chemical_formula_structural  RbAsOF4
_chemical_formula_sum  Rb4As4O4F6
_cell_volume  428.6401918335587
_cell_formula_units_Z  4
loop_
  _symmetry_equiv_pos_site_id
 _symmetry_equiv_pos_as_xyz
 1  'x, y, z'
loop_
 _atom_site_type_symbol
 _atom_site_label
 _atom_site_symmetry_multiplicity
 _atom_site_fract_x
 _atom_site_fract_y
 _atom_site_fract_z
 _atom_site_fract_occupancy
 As  As1  1  0.07373  0.11795  0.07873  1
 As  As2  1  0.42627  0.61795  0.42127  1
 As  As3  1  0.92627  0.88205  0.92127  1
 As  As4  1  0.57373  0.38205  0.57873  1
 F  F1  1  0.72395  0.15514  0.51588  1
 F  F2  1  0.05428  0.09004  0.83957  1
 F  F3  1  0.44572  0.59004  0.66043  1
 F  F4  1  0.35793  0.11888  0.15720  1
 F  F5  1  0.22395  0.34486  0.01588  1
 F  F6  1  0.64207  0.88112  0.84280  1
 F  F7  1  0.85793  0.38112  0.65720  1
 F  F8  1  0.92916  0.32781  0.15237  1
 F  F9  1  0.07084  0.67219  0.84763  1
 F  F10  1  0.94572  0.90996  0.16043  1
 F  F11  1  0.42916  0.17219  0.65237  1
 F  F12  1  0.14207  0.61888  0.34280  1
 F  F13  1  0.77605  0.65514  0.98412  1
 F  F14  1  0.57084  0.82781  0.34763  1
 F  F15  1  0.55428  0.40996  0.33957  1
 F  F16  1  0.27605  0.84486  0.48412  1
 O  O1  1  0.20966  0.89970  0.00248  1
 O  O2  1  0.29034  0.39970  0.49752  1
 O  O3  1  0.79034  0.10030  0.99752  1
 O  O4  1  0.70966  0.60030  0.50248  1
 Rb  Rb1  1  0.01391  0.12799  0.34681  1
 Rb  Rb2  1  0.98609  0.87201  0.65319  1
 Rb  Rb3  1  0.51391  0.37201  0.84681  1
 Rb  Rb4  1  0.48609  0.62799  0.15319  1
