CIF file written using JARVIS-Tools package.
data_RbTiBr3
_symmetry_space_group_name_H-M  'P6_3/mmc'
_cell_length_a       7.57719
_cell_length_b       7.57719
_cell_length_c       5.87251
_cell_angle_alpha    90
_cell_angle_beta     90
_cell_angle_gamma    120

_symmetry_Int_Tables_number  194
_chemical_formula_structural  RbTiBr3
_chemical_formula_sum  Rb2Ti2Br6
_cell_volume  291.9921203752766
_cell_formula_units_Z  2
loop_
  _symmetry_equiv_pos_site_id
 _symmetry_equiv_pos_as_xyz
 1  'x, y, z'
loop_
 _atom_site_type_symbol
 _atom_site_label
 _atom_site_symmetry_multiplicity
 _atom_site_fract_x
 _atom_site_fract_y
 _atom_site_fract_z
 _atom_site_fract_occupancy
 Br  Br1  1  0.83068  0.66136  0.25000  1
 Br  Br2  1  0.66136  0.83068  0.75000  1
 Br  Br3  1  0.33864  0.16932  0.25000  1
 Br  Br4  1  0.16932  0.33864  0.75000  1
 Br  Br5  1  0.83068  0.16932  0.25000  1
 Br  Br6  1  0.16932  0.83068  0.75000  1
 Rb  Rb1  1  0.33333  0.66667  0.25000  1
 Rb  Rb2  1  0.66667  0.33333  0.75000  1
 Ti  Ti1  1  0.00000  0.00000  0.00000  1
 Ti  Ti2  1  0.00000  0.00000  0.50000  1
