CIF file written using JARVIS-Tools package.
data_ThGeS
_symmetry_space_group_name_H-M  'I4/mmm'
_cell_length_a       3.97638
_cell_length_b       3.97638
_cell_length_c       9.051
_cell_angle_alpha    102.689
_cell_angle_beta     102.689
_cell_angle_gamma    90

_symmetry_Int_Tables_number  139
_chemical_formula_structural  ThGeS
_chemical_formula_sum  Th2Ge2S2
_cell_volume  136.03034778648302
_cell_formula_units_Z  2
loop_
  _symmetry_equiv_pos_site_id
 _symmetry_equiv_pos_as_xyz
 1  'x, y, z'
loop_
 _atom_site_type_symbol
 _atom_site_label
 _atom_site_symmetry_multiplicity
 _atom_site_fract_x
 _atom_site_fract_y
 _atom_site_fract_z
 _atom_site_fract_occupancy
 Ge  Ge1  1  0.50000  0.00000  0.00000  1
 Ge  Ge2  1  0.00000  0.50000  0.00000  1
 S  S1  1  0.68779  0.68779  0.37559  1
 S  S2  1  0.31221  0.31221  0.62441  1
 Th  Th1  1  0.86000  0.86000  0.72001  1
 Th  Th2  1  0.14000  0.14000  0.27999  1
