CIF file written using JARVIS-Tools package.
data_ThSi2Ir2
_symmetry_space_group_name_H-M  'I4/mmm'
_cell_length_a       4.27088
_cell_length_b       4.27088
_cell_length_c       5.83216
_cell_angle_alpha    111.478
_cell_angle_beta     111.478
_cell_angle_gamma    90

_symmetry_Int_Tables_number  139
_chemical_formula_structural  ThSi2Ir2
_chemical_formula_sum  ThSi2Ir2
_cell_volume  91.00846279913152
_cell_formula_units_Z  1
loop_
  _symmetry_equiv_pos_site_id
 _symmetry_equiv_pos_as_xyz
 1  'x, y, z'
loop_
 _atom_site_type_symbol
 _atom_site_label
 _atom_site_symmetry_multiplicity
 _atom_site_fract_x
 _atom_site_fract_y
 _atom_site_fract_z
 _atom_site_fract_occupancy
 Ir  Ir1  1  0.65660  0.65660  0.31320  1
 Ir  Ir2  1  0.38940  0.38940  0.77881  1
 Si  Si1  1  0.77300  0.27300  0.54600  1
 Si  Si2  1  0.27300  0.77300  0.54600  1
 Th  Th1  1  0.02300  0.02300  0.04599  1
