CIF file written using JARVIS-Tools package.
data_NaMnF3
_symmetry_space_group_name_H-M  'Pnma'
_cell_length_a       5.52196
_cell_length_b       5.77952
_cell_length_c       7.99629
_cell_angle_alpha    90
_cell_angle_beta     90
_cell_angle_gamma    90

_symmetry_Int_Tables_number  62
_chemical_formula_structural  NaMnF3
_chemical_formula_sum  Na4Mn4F2
_cell_volume  255.19587705361377
_cell_formula_units_Z  4
loop_
  _symmetry_equiv_pos_site_id
 _symmetry_equiv_pos_as_xyz
 1  'x, y, z'
loop_
 _atom_site_type_symbol
 _atom_site_label
 _atom_site_symmetry_multiplicity
 _atom_site_fract_x
 _atom_site_fract_y
 _atom_site_fract_z
 _atom_site_fract_occupancy
 F  F1  1  0.81063  0.30523  0.56497  1
 F  F2  1  0.62382  0.55555  0.25000  1
 F  F3  1  0.68937  0.80523  0.93503  1
 F  F4  1  0.87618  0.05555  0.25000  1
 F  F5  1  0.37618  0.44445  0.75000  1
 F  F6  1  0.12382  0.94445  0.75000  1
 F  F7  1  0.31063  0.19477  0.06497  1
 F  F8  1  0.68937  0.80523  0.56497  1
 F  F9  1  0.18937  0.69477  0.43503  1
 F  F10  1  0.18937  0.69477  0.06497  1
 F  F11  1  0.31063  0.19477  0.43503  1
 F  F12  1  0.81063  0.30523  0.93503  1
 Mn  Mn1  1  0.50000  0.50000  0.50000  1
 Mn  Mn2  1  0.00000  0.00000  0.50000  1
 Mn  Mn3  1  0.00000  0.00000  0.00000  1
 Mn  Mn4  1  0.50000  0.50000  0.00000  1
 Na  Na1  1  0.51806  0.06220  0.75000  1
 Na  Na2  1  0.01806  0.43780  0.25000  1
 Na  Na3  1  0.98194  0.56220  0.75000  1
 Na  Na4  1  0.48194  0.93780  0.25000  1
