CIF file written using JARVIS-Tools package.
data_MgTi2P2O10
_symmetry_space_group_name_H-M  'P2_1/c'
_cell_length_a       7.40692
_cell_length_b       7.44788
_cell_length_c       7.42173
_cell_angle_alpha    90
_cell_angle_beta     90
_cell_angle_gamma    120.69

_symmetry_Int_Tables_number  14
_chemical_formula_structural  MgTi2P2O10
_chemical_formula_sum  Mg2Ti4P4O20
_cell_volume  352.0808235166389
_cell_formula_units_Z  2
loop_
  _symmetry_equiv_pos_site_id
 _symmetry_equiv_pos_as_xyz
 1  'x, y, z'
loop_
 _atom_site_type_symbol
 _atom_site_label
 _atom_site_symmetry_multiplicity
 _atom_site_fract_x
 _atom_site_fract_y
 _atom_site_fract_z
 _atom_site_fract_occupancy
 Mg  Mg1  1  0.00000  0.00000  0.00000  1
 Mg  Mg2  1  0.50000  0.50000  0.50000  1
 O  O1  1  0.13045  0.57273  0.23668  1
 O  O2  1  0.64706  0.58838  0.74641  1
 O  O3  1  0.14706  0.08838  0.75359  1
 O  O4  1  0.08076  0.82310  0.51029  1
 O  O5  1  0.35294  0.41162  0.25359  1
 O  O6  1  0.40225  0.18604  0.49801  1
 O  O7  1  0.85294  0.91162  0.24641  1
 O  O8  1  0.59775  0.81396  0.50199  1
 O  O9  1  0.63045  0.07273  0.26332  1
 O  O10  1  0.77132  0.00315  0.83868  1
 O  O11  1  0.58076  0.32310  0.98971  1
 O  O12  1  0.72868  0.49685  0.33868  1
 O  O13  1  0.91924  0.17690  0.48971  1
 O  O14  1  0.86955  0.42727  0.76332  1
 O  O15  1  0.22868  -0.00315  0.16132  1
 O  O16  1  0.90225  0.68604  0.00199  1
 O  O17  1  0.36955  0.92727  0.73668  1
 O  O18  1  0.09775  0.31396  0.99801  1
 O  O19  1  0.27132  0.50315  0.66132  1
 O  O20  1  0.41924  0.67690  0.01029  1
 P  P1  1  0.74973  0.50563  0.87647  1
 P  P2  1  0.24973  0.00563  0.62353  1
 P  P3  1  0.25027  0.49437  0.12353  1
 P  P4  1  0.75027  0.99437  0.37647  1
 Ti  Ti1  1  0.47533  0.20793  0.22233  1
 Ti  Ti2  1  0.52467  0.79207  0.77767  1
 Ti  Ti3  1  0.97533  0.70793  0.27767  1
 Ti  Ti4  1  0.02467  0.29207  0.72233  1
