CIF file written using JARVIS-Tools package.
data_Sr3Li2
_symmetry_space_group_name_H-M  'P4_2/mnm'
_cell_length_a       8.60232
_cell_length_b       9.62559
_cell_length_c       9.62559
_cell_angle_alpha    90
_cell_angle_beta     90
_cell_angle_gamma    90

_symmetry_Int_Tables_number  136
_chemical_formula_structural  Sr3Li2
_chemical_formula_sum  Sr2Li8
_cell_volume  797.0222474398754
_cell_formula_units_Z  4
loop_
  _symmetry_equiv_pos_site_id
 _symmetry_equiv_pos_as_xyz
 1  'x, y, z'
loop_
 _atom_site_type_symbol
 _atom_site_label
 _atom_site_symmetry_multiplicity
 _atom_site_fract_x
 _atom_site_fract_y
 _atom_site_fract_z
 _atom_site_fract_occupancy
 Li  Li1  1  0.68123  0.88709  0.88709  1
 Li  Li2  1  0.18123  0.38709  0.61291  1
 Li  Li3  1  0.18123  0.61291  0.38709  1
 Li  Li4  1  0.31877  0.88709  0.88709  1
 Li  Li5  1  0.81877  0.61291  0.38709  1
 Li  Li6  1  0.81877  0.38709  0.61291  1
 Li  Li7  1  0.31877  0.11291  0.11291  1
 Li  Li8  1  0.68123  0.11291  0.11291  1
 Sr  Sr1  1  0.75000  0.00000  0.50000  1
 Sr  Sr2  1  0.00000  0.14968  0.85032  1
 Sr  Sr3  1  0.50000  0.64968  0.64968  1
 Sr  Sr4  1  0.00000  0.85032  0.14968  1
 Sr  Sr5  1  0.00000  0.71218  0.71218  1
 Sr  Sr6  1  0.50000  0.78782  0.21218  1
 Sr  Sr7  1  0.50000  0.21218  0.78782  1
 Sr  Sr8  1  0.00000  0.28782  0.28782  1
 Sr  Sr9  1  0.75000  0.50000  0.00000  1
 Sr  Sr10  1  0.25000  0.50000  0.00000  1
 Sr  Sr11  1  0.50000  0.35032  0.35032  1
 Sr  Sr12  1  0.25000  0.00000  0.50000  1
