CIF file written using JARVIS-Tools package.
data_CdClO
_symmetry_space_group_name_H-M  'P6_3mc'
_cell_length_a       3.76729
_cell_length_b       3.76729
_cell_length_c       9.33632
_cell_angle_alpha    90
_cell_angle_beta     90
_cell_angle_gamma    119.999

_symmetry_Int_Tables_number  186
_chemical_formula_structural  CdClO
_chemical_formula_sum  Cd2Cl2O2
_cell_volume  114.75401238000349
_cell_formula_units_Z  2
loop_
  _symmetry_equiv_pos_site_id
 _symmetry_equiv_pos_as_xyz
 1  'x, y, z'
loop_
 _atom_site_type_symbol
 _atom_site_label
 _atom_site_symmetry_multiplicity
 _atom_site_fract_x
 _atom_site_fract_y
 _atom_site_fract_z
 _atom_site_fract_occupancy
 Cd  Cd1  1  0.33340  0.66660  0.47904  1
 Cd  Cd2  1  0.66660  0.33340  0.97904  1
 Cl  Cl1  1  0.33328  0.66672  0.16504  1
 Cl  Cl2  1  0.66672  0.33328  0.66504  1
 O  O1  1  0.00005  -0.00005  0.41891  1
 O  O2  1  -0.00005  0.00005  0.91891  1
