CIF file written using JARVIS-Tools package.
data_NaCdPO4
_symmetry_space_group_name_H-M  'Pnma'
_cell_length_a       5.0832
_cell_length_b       6.56164
_cell_length_c       10.9092
_cell_angle_alpha    90
_cell_angle_beta     90
_cell_angle_gamma    90

_symmetry_Int_Tables_number  62
_chemical_formula_structural  NaCdPO4
_chemical_formula_sum  Na4Cd4P4O6
_cell_volume  363.86791722890234
_cell_formula_units_Z  4
loop_
  _symmetry_equiv_pos_site_id
 _symmetry_equiv_pos_as_xyz
 1  'x, y, z'
loop_
 _atom_site_type_symbol
 _atom_site_label
 _atom_site_symmetry_multiplicity
 _atom_site_fract_x
 _atom_site_fract_y
 _atom_site_fract_z
 _atom_site_fract_occupancy
 Cd  Cd1  1  0.02047  0.24958  0.21455  1
 Cd  Cd2  1  0.47953  0.24958  0.71455  1
 Cd  Cd3  1  0.52047  0.74958  0.28545  1
 Cd  Cd4  1  0.97953  0.74958  0.78545  1
 Na  Na1  1  0.50000  0.49959  -0.00000  1
 Na  Na2  1  0.50000  0.99959  0.00000  1
 Na  Na3  1  -0.00000  0.99959  0.50000  1
 Na  Na4  1  0.00000  0.49959  0.50000  1
 O  O1  1  0.82068  0.24959  0.03094  1
 O  O2  1  0.17932  0.74959  0.96906  1
 O  O3  1  0.67932  0.24959  0.53094  1
 O  O4  1  0.80613  0.06145  0.83024  1
 O  O5  1  0.69387  0.06145  0.33024  1
 O  O6  1  0.30613  0.56145  0.66976  1
 O  O7  1  0.80613  0.43771  0.83024  1
 O  O8  1  0.32068  0.74959  0.46906  1
 O  O9  1  0.19387  0.93771  0.16976  1
 O  O10  1  0.23331  0.24959  0.89611  1
 O  O11  1  0.30613  0.93771  0.66976  1
 O  O12  1  0.19387  0.56145  0.16976  1
 O  O13  1  0.26669  0.24959  0.39611  1
 O  O14  1  0.76669  0.74959  0.10389  1
 O  O15  1  0.69387  0.43771  0.33024  1
 O  O16  1  0.73331  0.74959  0.60389  1
 P  P1  1  0.06995  0.74959  0.10212  1
 P  P2  1  0.43005  0.74959  0.60212  1
 P  P3  1  0.93005  0.24959  0.89788  1
 P  P4  1  0.56995  0.24959  0.39788  1
