CIF file written using JARVIS-Tools package.
data_MgCo
_symmetry_space_group_name_H-M  'Fd-3m'
_cell_length_a       7.95336
_cell_length_b       7.95336
_cell_length_c       7.95336
_cell_angle_alpha    60
_cell_angle_beta     60
_cell_angle_gamma    60

_symmetry_Int_Tables_number  227
_chemical_formula_structural  MgCo
_chemical_formula_sum  Mg2Co2
_cell_volume  355.74313946695736
_cell_formula_units_Z  12
loop_
  _symmetry_equiv_pos_site_id
 _symmetry_equiv_pos_as_xyz
 1  'x, y, z'
loop_
 _atom_site_type_symbol
 _atom_site_label
 _atom_site_symmetry_multiplicity
 _atom_site_fract_x
 _atom_site_fract_y
 _atom_site_fract_z
 _atom_site_fract_occupancy
 Co  Co1  1  0.70061  0.70061  0.70061  1
 Co  Co2  1  0.50000  0.50000  0.00000  1
 Co  Co3  1  0.00000  0.50000  0.50000  1
 Co  Co4  1  0.50000  0.00000  0.50000  1
 Co  Co5  1  0.29939  0.29939  0.29939  1
 Co  Co6  1  0.70061  0.70061  0.39817  1
 Co  Co7  1  0.39817  0.70061  0.70061  1
 Co  Co8  1  0.70061  0.39817  0.70061  1
 Co  Co9  1  0.60183  0.29939  0.29939  1
 Co  Co10  1  0.29939  0.60183  0.29939  1
 Co  Co11  1  0.50000  0.50000  0.50000  1
 Co  Co12  1  0.29939  0.29939  0.60183  1
 Mg  Mg1  1  0.07882  0.67118  0.67118  1
 Mg  Mg2  1  0.92118  0.92118  0.32882  1
 Mg  Mg3  1  0.32882  0.32882  0.92118  1
 Mg  Mg4  1  0.92118  0.32882  0.32882  1
 Mg  Mg5  1  0.92118  0.32882  0.92118  1
 Mg  Mg6  1  0.32882  0.92118  0.32882  1
 Mg  Mg7  1  0.07882  0.67118  0.07882  1
 Mg  Mg8  1  0.07882  0.07882  0.67118  1
 Mg  Mg9  1  0.67118  0.67118  0.07882  1
 Mg  Mg10  1  0.67118  0.07882  0.67118  1
 Mg  Mg11  1  0.67118  0.07882  0.07882  1
 Mg  Mg12  1  0.32882  0.92118  0.92118  1
