CIF file written using JARVIS-Tools package.
data_HoIO
_symmetry_space_group_name_H-M  'R-3m'
_cell_length_a       10.874
_cell_length_b       10.874
_cell_length_c       10.874
_cell_angle_alpha    20.63
_cell_angle_beta     20.63
_cell_angle_gamma    20.63

_symmetry_Int_Tables_number  166
_chemical_formula_structural  HoIO
_chemical_formula_sum  Ho2I2O2
_cell_volume  139.72381703970285
_cell_formula_units_Z  2
loop_
  _symmetry_equiv_pos_site_id
 _symmetry_equiv_pos_as_xyz
 1  'x, y, z'
loop_
 _atom_site_type_symbol
 _atom_site_label
 _atom_site_symmetry_multiplicity
 _atom_site_fract_x
 _atom_site_fract_y
 _atom_site_fract_z
 _atom_site_fract_occupancy
 Ho  Ho1  1  0.37707  0.37707  0.37707  1
 Ho  Ho2  1  0.62293  0.62293  0.62293  1
 I  I1  1  0.11151  0.11151  0.11151  1
 I  I2  1  0.88849  0.88849  0.88849  1
 O  O1  1  0.30656  0.30656  0.30656  1
 O  O2  1  0.69344  0.69344  0.69344  1
