CIF file written using JARVIS-Tools package.
data_Na2TeO3
_symmetry_space_group_name_H-M  'P2_1/c'
_cell_length_a       4.93886
_cell_length_b       6.86752
_cell_length_c       10.2432
_cell_angle_alpha    90
_cell_angle_beta     90
_cell_angle_gamma    91.5705

_symmetry_Int_Tables_number  14
_chemical_formula_structural  Na2TeO3
_chemical_formula_sum  Na8Te4O2
_cell_volume  347.297450252741
_cell_formula_units_Z  4
loop_
  _symmetry_equiv_pos_site_id
 _symmetry_equiv_pos_as_xyz
 1  'x, y, z'
loop_
 _atom_site_type_symbol
 _atom_site_label
 _atom_site_symmetry_multiplicity
 _atom_site_fract_x
 _atom_site_fract_y
 _atom_site_fract_z
 _atom_site_fract_occupancy
 Na  Na1  1  0.74431  0.90273  0.25386  1
 Na  Na2  1  0.25569  0.59727  0.75386  1
 Na  Na3  1  0.25569  0.09727  0.74614  1
 Na  Na4  1  0.74431  0.40273  0.24614  1
 Na  Na5  1  0.24611  0.13837  0.41342  1
 Na  Na6  1  0.75389  0.36163  0.91342  1
 Na  Na7  1  0.75389  0.86163  0.58658  1
 Na  Na8  1  0.24611  0.63837  0.08658  1
 O  O1  1  0.64637  0.14651  0.09383  1
 O  O2  1  0.75209  0.66315  0.06345  1
 O  O3  1  0.24791  0.83685  0.56345  1
 O  O4  1  0.24791  0.33685  0.93655  1
 O  O5  1  0.75209  0.16315  0.43655  1
 O  O6  1  0.23157  0.85389  0.28092  1
 O  O7  1  0.76843  0.64611  0.78092  1
 O  O8  1  0.64637  0.64651  0.40617  1
 O  O9  1  0.23157  0.35389  0.21908  1
 O  O10  1  0.35363  0.85349  0.90617  1
 O  O11  1  0.35363  0.35349  0.59383  1
 O  O12  1  0.76843  0.14611  0.71908  1
 Te  Te1  1  0.73896  0.33580  0.58255  1
 Te  Te2  1  0.73896  0.83580  0.91745  1
 Te  Te3  1  0.26104  0.16420  0.08255  1
 Te  Te4  1  0.26104  0.66420  0.41745  1
