CIF file written using JARVIS-Tools package.
data_CrP2H15N2O11
_symmetry_space_group_name_H-M  'C2/m'
_cell_length_a       8.85748
_cell_length_b       8.85748
_cell_length_c       7.4163
_cell_angle_alpha    79.0279
_cell_angle_beta     100.972
_cell_angle_gamma    94.4372

_symmetry_Int_Tables_number  12
_chemical_formula_structural  CrP2H15N2O11
_chemical_formula_sum  Cr2P4H30N4O22
_cell_volume  560.2559269631563
_cell_formula_units_Z  2
loop_
  _symmetry_equiv_pos_site_id
 _symmetry_equiv_pos_as_xyz
 1  'x, y, z'
loop_
 _atom_site_type_symbol
 _atom_site_label
 _atom_site_symmetry_multiplicity
 _atom_site_fract_x
 _atom_site_fract_y
 _atom_site_fract_z
 _atom_site_fract_occupancy
 Cr  Cr1  1  0.78045  0.21955  0.21843  1
 Cr  Cr2  1  0.21955  0.78045  0.78157  1
 H  H1  1  0.60054  0.26240  0.45830  1
 H  H2  1  0.26240  0.60054  0.54170  1
 H  H3  1  0.31604  0.31604  0.00000  1
 H  H4  1  0.04172  0.35212  0.34087  1
 H  H5  1  0.64788  0.95828  0.34087  1
 H  H6  1  0.95828  0.64788  0.65913  1
 H  H7  1  0.35212  0.04172  0.65913  1
 H  H8  1  0.68396  0.68396  -0.00000  1
 H  H9  1  0.75915  0.00479  0.52437  1
 H  H10  1  0.00479  0.75915  0.47563  1
 H  H11  1  0.24085  0.99521  0.47563  1
 H  H12  1  0.58820  0.41180  0.28580  1
 H  H13  1  0.41180  0.58820  0.71420  1
 H  H14  1  0.99521  0.24085  0.52437  1
 H  H15  1  0.85577  0.72831  0.23305  1
 H  H16  1  0.39946  0.73760  0.54170  1
 H  H17  1  0.73760  0.39946  0.45830  1
 H  H18  1  0.35033  0.97932  0.26238  1
 H  H19  1  0.02656  0.97344  0.81648  1
 H  H20  1  0.83159  0.03207  0.99925  1
 H  H21  1  0.03207  0.83159  0.00075  1
 H  H22  1  0.16841  0.96793  0.00075  1
 H  H23  1  0.14423  0.27169  0.76695  1
 H  H24  1  0.96793  0.16841  0.99925  1
 H  H25  1  0.27169  0.14423  0.23305  1
 H  H26  1  0.97344  0.02656  0.18352  1
 H  H27  1  0.64967  0.02068  0.73762  1
 H  H28  1  0.02068  0.64967  0.26238  1
 H  H29  1  0.97932  0.35033  0.73762  1
 H  H30  1  0.72831  0.85577  0.76695  1
 N  N1  1  0.33596  0.66404  0.62754  1
 N  N2  1  0.90164  0.09836  0.08438  1
 N  N3  1  0.09836  0.90164  0.91562  1
 N  N4  1  0.66404  0.33596  0.37246  1
 O  O1  1  0.58859  0.17855  0.04961  1
 O  O2  1  0.85067  0.49049  0.70495  1
 O  O3  1  0.66023  0.71629  0.14258  1
 O  O4  1  0.28371  0.33977  0.14258  1
 O  O5  1  0.33977  0.28371  0.85742  1
 O  O6  1  0.17855  0.58859  0.95039  1
 O  O7  1  0.41141  0.82145  0.95039  1
 O  O8  1  0.14933  0.50951  0.29505  1
 O  O9  1  0.82145  0.41141  0.04961  1
 O  O10  1  0.96908  0.74676  0.26073  1
 O  O11  1  0.71629  0.66023  0.85742  1
 O  O12  1  0.58800  0.41200  0.78875  1
 O  O13  1  0.49049  0.85067  0.29505  1
 O  O14  1  0.98097  0.25450  0.38251  1
 O  O15  1  0.74550  0.01903  0.38251  1
 O  O16  1  0.01903  0.74550  0.61749  1
 O  O17  1  0.25450  0.98097  0.61749  1
 O  O18  1  0.74676  0.96908  0.73927  1
 O  O19  1  0.03092  0.25324  0.73927  1
 O  O20  1  0.50951  0.14933  0.70495  1
 O  O21  1  0.41200  0.58800  0.21125  1
 O  O22  1  0.25324  0.03092  0.26073  1
 P  P1  1  0.75551  0.49407  0.85342  1
 P  P2  1  0.50593  0.24449  0.85342  1
 P  P3  1  0.24449  0.50593  0.14658  1
 P  P4  1  0.49407  0.75551  0.14658  1
