CIF file written using JARVIS-Tools package.
data_TiB
_symmetry_space_group_name_H-M  'Pnma'
_cell_length_a       3.05143
_cell_length_b       4.56946
_cell_length_c       6.12234
_cell_angle_alpha    90
_cell_angle_beta     90
_cell_angle_gamma    90

_symmetry_Int_Tables_number  62
_chemical_formula_structural  TiB
_chemical_formula_sum  Ti4B4
_cell_volume  85.36609342872964
_cell_formula_units_Z  4
loop_
  _symmetry_equiv_pos_site_id
 _symmetry_equiv_pos_as_xyz
 1  'x, y, z'
loop_
 _atom_site_type_symbol
 _atom_site_label
 _atom_site_symmetry_multiplicity
 _atom_site_fract_x
 _atom_site_fract_y
 _atom_site_fract_z
 _atom_site_fract_occupancy
 B  B1  1  0.25000  0.90222  0.52990  1
 B  B2  1  0.75000  0.09778  0.47010  1
 B  B3  1  0.75000  0.40222  0.97010  1
 B  B4  1  0.25000  0.59778  0.02990  1
 Ti  Ti1  1  0.25000  0.37863  0.67685  1
 Ti  Ti2  1  0.75000  0.62137  0.32315  1
 Ti  Ti3  1  0.75000  0.87863  0.82315  1
 Ti  Ti4  1  0.25000  0.12137  0.17685  1
