CIF file written using JARVIS-Tools package.
data_SrLiFeF6
_symmetry_space_group_name_H-M  'P2_1/c'
_cell_length_a       5.23068
_cell_length_b       8.67633
_cell_length_c       10.2602
_cell_angle_alpha    90
_cell_angle_beta     92.0162
_cell_angle_gamma    90

_symmetry_Int_Tables_number  14
_chemical_formula_structural  SrLiFeF6
_chemical_formula_sum  Sr4Li4Fe4F24
_cell_volume  465.34976819268934
_cell_formula_units_Z  4
loop_
  _symmetry_equiv_pos_site_id
 _symmetry_equiv_pos_as_xyz
 1  'x, y, z'
loop_
 _atom_site_type_symbol
 _atom_site_label
 _atom_site_symmetry_multiplicity
 _atom_site_fract_x
 _atom_site_fract_y
 _atom_site_fract_z
 _atom_site_fract_occupancy
 F  F1  1  0.07449  0.40708  0.14838  1
 F  F2  1  0.36438  0.42048  0.84781  1
 F  F3  1  0.99357  0.54248  0.36112  1
 F  F4  1  0.88010  0.24789  0.35422  1
 F  F5  1  0.63562  0.57952  0.15219  1
 F  F6  1  0.99357  0.95752  0.86112  1
 F  F7  1  0.49002  0.95293  0.13831  1
 F  F8  1  0.00643  0.04248  0.13888  1
 F  F9  1  0.63562  0.92048  0.65219  1
 F  F10  1  0.11990  0.75211  0.64578  1
 F  F11  1  0.50998  0.04707  0.86169  1
 F  F12  1  0.88010  0.25211  0.85422  1
 F  F13  1  0.92551  0.90708  0.35162  1
 F  F14  1  0.11990  0.74789  0.14578  1
 F  F15  1  0.39200  0.72619  0.85308  1
 F  F16  1  0.36438  0.07952  0.34781  1
 F  F17  1  0.60800  0.22619  0.64692  1
 F  F18  1  0.60800  0.27381  0.14692  1
 F  F19  1  0.00643  0.45752  0.63888  1
 F  F20  1  0.50998  0.45293  0.36169  1
 F  F21  1  0.39200  0.77381  0.35308  1
 F  F22  1  0.49002  0.54707  0.63831  1
 F  F23  1  0.07449  0.09292  0.64838  1
 F  F24  1  0.92551  0.59292  0.85162  1
 Fe  Fe1  1  0.21553  0.91760  0.24970  1
 Fe  Fe2  1  0.78447  0.41760  0.25030  1
 Fe  Fe3  1  0.21553  0.58240  0.74970  1
 Fe  Fe4  1  0.78447  0.08240  0.75030  1
 Li  Li1  1  0.28568  0.58061  0.24008  1
 Li  Li2  1  0.71432  0.08061  0.25992  1
 Li  Li3  1  0.71432  0.41939  0.75992  1
 Li  Li4  1  0.28568  0.91939  0.74008  1
 Sr  Sr1  1  0.74807  0.71423  0.50014  1
 Sr  Sr2  1  0.25193  0.21423  0.99986  1
 Sr  Sr3  1  0.74807  0.78577  0.00014  1
 Sr  Sr4  1  0.25193  0.28577  0.49986  1
