CIF file written using JARVIS-Tools package.
data_BaTeMo2O9
_symmetry_space_group_name_H-M  'P2_1'
_cell_length_a       5.54229
_cell_length_b       7.52553
_cell_length_c       8.88276
_cell_angle_alpha    90
_cell_angle_beta     90.6564
_cell_angle_gamma    90

_symmetry_Int_Tables_number  4
_chemical_formula_structural  BaTeMo2O9
_chemical_formula_sum  Ba2Te2Mo4O8
_cell_volume  370.4632917260546
_cell_formula_units_Z  2
loop_
  _symmetry_equiv_pos_site_id
 _symmetry_equiv_pos_as_xyz
 1  'x, y, z'
loop_
 _atom_site_type_symbol
 _atom_site_label
 _atom_site_symmetry_multiplicity
 _atom_site_fract_x
 _atom_site_fract_y
 _atom_site_fract_z
 _atom_site_fract_occupancy
 Ba  Ba1  1  0.27215  0.74743  0.06663  1
 Ba  Ba2  1  0.72785  0.24743  0.93337  1
 Mo  Mo1  1  0.22394  0.27292  0.22959  1
 Mo  Mo2  1  0.77606  0.77292  0.77041  1
 Mo  Mo3  1  0.78463  0.95160  0.32558  1
 Mo  Mo4  1  0.21537  0.45160  0.67442  1
 O  O1  1  0.71301  0.96644  0.13236  1
 O  O2  1  0.98049  0.29870  0.66621  1
 O  O3  1  0.01951  0.79870  0.33379  1
 O  O4  1  0.03614  0.65696  0.64373  1
 O  O5  1  0.96386  0.15696  0.35627  1
 O  O6  1  0.77974  0.62164  0.92035  1
 O  O7  1  0.22026  0.12164  0.07965  1
 O  O8  1  0.29496  0.42982  0.44201  1
 O  O9  1  0.70504  0.92982  0.55799  1
 O  O10  1  0.44402  0.08983  0.36958  1
 O  O11  1  0.28699  0.46644  0.86764  1
 O  O12  1  0.45869  0.22900  0.67061  1
 O  O13  1  0.51036  0.39006  0.19467  1
 O  O14  1  0.48964  0.89006  0.80533  1
 O  O15  1  0.01967  0.43555  0.16782  1
 O  O16  1  0.98033  0.93555  0.83218  1
 O  O17  1  0.54131  0.72900  0.32939  1
 O  O18  1  0.55598  0.58983  0.63042  1
 Te  Te1  1  0.37154  0.01009  0.57975  1
 Te  Te2  1  0.62846  0.51009  0.42025  1
