CIF file written using JARVIS-Tools package.
data_RbFeS2
_symmetry_space_group_name_H-M  'C2/c'
_cell_length_a       5.33361
_cell_length_b       6.72635
_cell_length_c       6.72635
_cell_angle_alpha    116.985
_cell_angle_beta     101.452
_cell_angle_gamma    101.452

_symmetry_Int_Tables_number  15
_chemical_formula_structural  RbFeS2
_chemical_formula_sum  Rb2Fe2S4
_cell_volume  198.91683587011693
_cell_formula_units_Z  2
loop_
  _symmetry_equiv_pos_site_id
 _symmetry_equiv_pos_as_xyz
 1  'x, y, z'
loop_
 _atom_site_type_symbol
 _atom_site_label
 _atom_site_symmetry_multiplicity
 _atom_site_fract_x
 _atom_site_fract_y
 _atom_site_fract_z
 _atom_site_fract_occupancy
 Fe  Fe1  1  0.25000  0.99938  0.00062  1
 Fe  Fe2  1  0.75000  0.00062  0.99938  1
 Rb  Rb1  1  0.75000  0.64435  0.35565  1
 Rb  Rb2  1  0.25000  0.35565  0.64435  1
 S  S1  1  0.40706  0.91998  0.71170  1
 S  S2  1  0.09294  0.28830  0.08002  1
 S  S3  1  0.90706  0.71170  0.91998  1
 S  S4  1  0.59294  0.08002  0.28830  1
