CIF file written using JARVIS-Tools package.
data_SmSnAu
_symmetry_space_group_name_H-M  'P6_3mc'
_cell_length_a       4.73962
_cell_length_b       4.73962
_cell_length_c       7.56877
_cell_angle_alpha    90
_cell_angle_beta     90
_cell_angle_gamma    120

_symmetry_Int_Tables_number  186
_chemical_formula_structural  SmSnAu
_chemical_formula_sum  Sm2Sn2Au2
_cell_volume  147.24593652422573
_cell_formula_units_Z  2
loop_
  _symmetry_equiv_pos_site_id
 _symmetry_equiv_pos_as_xyz
 1  'x, y, z'
loop_
 _atom_site_type_symbol
 _atom_site_label
 _atom_site_symmetry_multiplicity
 _atom_site_fract_x
 _atom_site_fract_y
 _atom_site_fract_z
 _atom_site_fract_occupancy
 Au  Au1  1  0.66667  0.33333  0.79681  1
 Au  Au2  1  0.33333  0.66667  0.29681  1
 Sm  Sm1  1  0.00000  0.00000  0.47397  1
 Sm  Sm2  1  0.00000  0.00000  0.97397  1
 Sn  Sn1  1  0.33333  0.66667  0.69922  1
 Sn  Sn2  1  0.66667  0.33333  0.19922  1
