CIF file written using JARVIS-Tools package.
data_CoRh2Se4
_symmetry_space_group_name_H-M  'C2/m'
_cell_length_a       3.70545
_cell_length_b       6.40844
_cell_length_c       6.38171
_cell_angle_alpha    118.466
_cell_angle_beta     106.877
_cell_angle_gamma    90

_symmetry_Int_Tables_number  12
_chemical_formula_structural  CoRh2Se4
_chemical_formula_sum  CoRh2Se4
_cell_volume  125.74525818405324
_cell_formula_units_Z  1
loop_
  _symmetry_equiv_pos_site_id
 _symmetry_equiv_pos_as_xyz
 1  'x, y, z'
loop_
 _atom_site_type_symbol
 _atom_site_label
 _atom_site_symmetry_multiplicity
 _atom_site_fract_x
 _atom_site_fract_y
 _atom_site_fract_z
 _atom_site_fract_occupancy
 Co  Co1  1  0.00000  0.00000  0.00000  1
 Rh  Rh1  1  0.73663  0.71861  0.47325  1
 Rh  Rh2  1  0.26337  0.28139  0.52675  1
 Se  Se1  1  0.62742  0.97127  0.25484  1
 Se  Se2  1  0.37258  0.02873  0.74516  1
 Se  Se3  1  0.88429  0.55461  0.76858  1
 Se  Se4  1  0.11571  0.44539  0.23142  1
