CIF file written using JARVIS-Tools package.
data_CrP2O7
_symmetry_space_group_name_H-M  'C2'
_cell_length_a       5.046
_cell_length_b       5.046
_cell_length_c       4.48432
_cell_angle_alpha    81.7292
_cell_angle_beta     81.7293
_cell_angle_gamma    99.6125

_symmetry_Int_Tables_number  5
_chemical_formula_structural  CrP2O7
_chemical_formula_sum  CrP2O7
_cell_volume  109.74506020002579
_cell_formula_units_Z  1
loop_
  _symmetry_equiv_pos_site_id
 _symmetry_equiv_pos_as_xyz
 1  'x, y, z'
loop_
 _atom_site_type_symbol
 _atom_site_label
 _atom_site_symmetry_multiplicity
 _atom_site_fract_x
 _atom_site_fract_y
 _atom_site_fract_z
 _atom_site_fract_occupancy
 Cr  Cr1  1  0.88897  0.11103  -0.00000  1
 O  O1  1  0.85082  0.42819  0.73197  1
 O  O2  1  0.14147  0.33218  0.18565  1
 O  O3  1  0.18845  0.07396  0.70875  1
 O  O4  1  0.66782  0.85853  0.81435  1
 O  O5  1  0.44841  0.55159  0.50000  1
 O  O6  1  0.92604  0.81155  0.29125  1
 O  O7  1  0.57181  0.14918  0.26803  1
 P  P1  1  0.33296  0.26326  0.40920  1
 P  P2  1  0.73674  0.66704  0.59080  1
