CIF file written using JARVIS-Tools package.
data_Lu2O3
_symmetry_space_group_name_H-M  'C2/m'
_cell_length_a       3.37684
_cell_length_b       7.05147
_cell_length_c       8.38583
_cell_angle_alpha    99.9619
_cell_angle_beta     90
_cell_angle_gamma    103.854

_symmetry_Int_Tables_number  12
_chemical_formula_structural  Lu2O3
_chemical_formula_sum  Lu6O9
_cell_volume  190.769509580044
_cell_formula_units_Z  3
loop_
  _symmetry_equiv_pos_site_id
 _symmetry_equiv_pos_as_xyz
 1  'x, y, z'
loop_
 _atom_site_type_symbol
 _atom_site_label
 _atom_site_symmetry_multiplicity
 _atom_site_fract_x
 _atom_site_fract_y
 _atom_site_fract_z
 _atom_site_fract_occupancy
 Lu  Lu1  1  0.36470  0.72940  0.51345  1
 Lu  Lu2  1  0.69115  0.38229  0.13720  1
 Lu  Lu3  1  0.96761  0.93522  0.18552  1
 Lu  Lu4  1  0.63530  0.27060  0.48655  1
 Lu  Lu5  1  0.03239  0.06478  0.81448  1
 Lu  Lu6  1  0.30885  0.61771  0.86280  1
 O  O1  1  0.79211  0.58423  0.37739  1
 O  O2  1  0.87284  0.74568  0.71903  1
 O  O3  1  0.82567  0.65133  0.03225  1
 O  O4  1  0.53043  0.06086  0.65691  1
 O  O5  1  0.17433  0.34867  0.96775  1
 O  O6  1  0.12716  0.25432  0.28097  1
 O  O7  1  0.20789  0.41577  0.62261  1
 O  O8  1  0.50000  0.00000  0.00000  1
 O  O9  1  0.46957  0.93914  0.34309  1
