CIF file written using JARVIS-Tools package.
data_Sm2Se3O9
_symmetry_space_group_name_H-M  'P-1'
_cell_length_a       7.00182
_cell_length_b       7.88458
_cell_length_c       9.0515
_cell_angle_alpha    95.5868
_cell_angle_beta     104.42
_cell_angle_gamma    117.07

_symmetry_Int_Tables_number  2
_chemical_formula_structural  Sm2Se3O9
_chemical_formula_sum  Sm4Se6O8
_cell_volume  417.8836516817889
_cell_formula_units_Z  2
loop_
  _symmetry_equiv_pos_site_id
 _symmetry_equiv_pos_as_xyz
 1  'x, y, z'
loop_
 _atom_site_type_symbol
 _atom_site_label
 _atom_site_symmetry_multiplicity
 _atom_site_fract_x
 _atom_site_fract_y
 _atom_site_fract_z
 _atom_site_fract_occupancy
 O  O1  1  0.65237  0.33895  0.14430  1
 O  O2  1  0.29986  0.97925  0.83768  1
 O  O3  1  0.70014  0.02075  0.16232  1
 O  O4  1  0.56555  0.20527  0.61538  1
 O  O5  1  0.14782  0.99341  0.40066  1
 O  O6  1  0.81807  0.21592  0.89661  1
 O  O7  1  0.34763  0.66105  0.85570  1
 O  O8  1  0.76039  0.66239  0.05149  1
 O  O9  1  0.43445  0.79473  0.38462  1
 O  O10  1  0.86216  0.56728  0.81343  1
 O  O11  1  0.85218  0.00659  0.59934  1
 O  O12  1  0.28530  0.32275  0.63565  1
 O  O13  1  0.18193  0.78408  0.10339  1
 O  O14  1  0.71470  0.67725  0.36435  1
 O  O15  1  0.87204  0.33059  0.40903  1
 O  O16  1  0.13784  0.43272  0.18657  1
 O  O17  1  0.23961  0.33761  0.94851  1
 O  O18  1  0.12796  0.66941  0.59097  1
 Se  Se1  1  0.35213  0.22782  0.48334  1
 Se  Se2  1  0.37557  0.83169  0.74336  1
 Se  Se3  1  0.03508  0.22438  0.04279  1
 Se  Se4  1  0.62443  0.16831  0.25664  1
 Se  Se5  1  0.96492  0.77562  0.95721  1
 Se  Se6  1  0.64787  0.77218  0.51666  1
 Sm  Sm1  1  0.53592  0.31677  0.87049  1
 Sm  Sm2  1  0.46408  0.68323  0.12951  1
 Sm  Sm3  1  0.97792  0.34939  0.68056  1
 Sm  Sm4  1  0.02208  0.65061  0.31944  1
