CIF file written using JARVIS-Tools package.
data_EuF3
_symmetry_space_group_name_H-M  'Pnma'
_cell_length_a       4.39515
_cell_length_b       6.59286
_cell_length_c       7.00203
_cell_angle_alpha    90
_cell_angle_beta     90
_cell_angle_gamma    90

_symmetry_Int_Tables_number  62
_chemical_formula_structural  EuF3
_chemical_formula_sum  Eu4F2
_cell_volume  202.89533047876316
_cell_formula_units_Z  4
loop_
  _symmetry_equiv_pos_site_id
 _symmetry_equiv_pos_as_xyz
 1  'x, y, z'
loop_
 _atom_site_type_symbol
 _atom_site_label
 _atom_site_symmetry_multiplicity
 _atom_site_fract_x
 _atom_site_fract_y
 _atom_site_fract_z
 _atom_site_fract_occupancy
 Eu  Eu1  1  0.93458  0.63128  0.75000  1
 Eu  Eu2  1  0.43458  0.86872  0.25000  1
 Eu  Eu3  1  0.56542  0.13128  0.75000  1
 Eu  Eu4  1  0.06542  0.36872  0.25000  1
 F  F1  1  0.38892  0.16558  0.43612  1
 F  F2  1  0.88892  0.33442  0.56388  1
 F  F3  1  0.11108  0.66558  0.06388  1
 F  F4  1  0.61108  0.83442  0.93612  1
 F  F5  1  0.57882  0.51955  0.25000  1
 F  F6  1  0.07882  0.98045  0.75000  1
 F  F7  1  0.92118  0.01955  0.25000  1
 F  F8  1  0.42118  0.48045  0.75000  1
 F  F9  1  0.38892  0.16558  0.06388  1
 F  F10  1  0.88892  0.33442  0.93612  1
 F  F11  1  0.11108  0.66558  0.43612  1
 F  F12  1  0.61108  0.83442  0.56388  1
