CIF file written using JARVIS-Tools package.
data_Ca4GaSi3
_symmetry_space_group_name_H-M  'Pmm2'
_cell_length_a       4.00048
_cell_length_b       4.48366
_cell_length_c       10.7804
_cell_angle_alpha    90
_cell_angle_beta     90
_cell_angle_gamma    90

_symmetry_Int_Tables_number  25
_chemical_formula_structural  Ca4GaSi3
_chemical_formula_sum  Ca4GaSi3
_cell_volume  193.36554920247315
_cell_formula_units_Z  1
loop_
  _symmetry_equiv_pos_site_id
 _symmetry_equiv_pos_as_xyz
 1  'x, y, z'
loop_
 _atom_site_type_symbol
 _atom_site_label
 _atom_site_symmetry_multiplicity
 _atom_site_fract_x
 _atom_site_fract_y
 _atom_site_fract_z
 _atom_site_fract_occupancy
 Ca  Ca1  1  0.00000  0.00000  0.36381  1
 Ca  Ca2  1  0.00000  0.50000  0.85906  1
 Ca  Ca3  1  0.50000  0.50000  0.13946  1
 Ca  Ca4  1  0.50000  0.00000  0.63904  1
 Ga  Ga1  1  0.00000  0.00000  0.07102  1
 Si  Si1  1  0.00000  0.50000  0.56911  1
 Si  Si2  1  0.50000  0.50000  0.43190  1
 Si  Si3  1  0.50000  0.00000  0.92661  1
