CIF file written using JARVIS-Tools package.
data_BaSnF4
_symmetry_space_group_name_H-M  'R-3m'
_cell_length_a       7.3289
_cell_length_b       7.3289
_cell_length_c       7.32891
_cell_angle_alpha    34.1276
_cell_angle_beta     34.1276
_cell_angle_gamma    34.1277

_symmetry_Int_Tables_number  166
_chemical_formula_structural  BaSnF4
_chemical_formula_sum  BaSnF4
_cell_volume  110.47261009720053
_cell_formula_units_Z  1
loop_
  _symmetry_equiv_pos_site_id
 _symmetry_equiv_pos_as_xyz
 1  'x, y, z'
loop_
 _atom_site_type_symbol
 _atom_site_label
 _atom_site_symmetry_multiplicity
 _atom_site_fract_x
 _atom_site_fract_y
 _atom_site_fract_z
 _atom_site_fract_occupancy
 Ba  Ba1  1  0.00000  0.00000  0.00000  1
 F  F1  1  0.62062  0.62062  0.62062  1
 F  F2  1  0.13054  0.13054  0.13054  1
 F  F3  1  0.86946  0.86946  0.86946  1
 F  F4  1  0.37938  0.37938  0.37938  1
 Sn  Sn1  1  0.50000  0.50000  0.50000  1
