CIF file written using JARVIS-Tools package.
data_NaPF3
_symmetry_space_group_name_H-M  'P1'
_cell_length_a       5.83673
_cell_length_b       6.95627
_cell_length_c       5.02939
_cell_angle_alpha    43.2378
_cell_angle_beta     30.5654
_cell_angle_gamma    50.9522

_symmetry_Int_Tables_number  1
_chemical_formula_structural  NaPF3
_chemical_formula_sum  NaPF3
_cell_volume  71.13216717431925
_cell_formula_units_Z  1
loop_
  _symmetry_equiv_pos_site_id
 _symmetry_equiv_pos_as_xyz
 1  'x, y, z'
loop_
 _atom_site_type_symbol
 _atom_site_label
 _atom_site_symmetry_multiplicity
 _atom_site_fract_x
 _atom_site_fract_y
 _atom_site_fract_z
 _atom_site_fract_occupancy
 F  F1  1  0.59188  0.74961  -0.08310  1
 F  F2  1  0.58800  0.30191  -0.03286  1
 F  F3  1  0.58944  0.77352  0.35506  1
 Na  Na1  1  0.08976  -0.01346  -0.06437  1
 P  P1  1  0.59093  0.48842  0.45027  1
