CIF file written using JARVIS-Tools package.
data_CeGe2Au2
_symmetry_space_group_name_H-M  'I4/mmm'
_cell_length_a       4.47133
_cell_length_b       4.47133
_cell_length_c       6.09763
_cell_angle_alpha    111.509
_cell_angle_beta     111.509
_cell_angle_gamma    90

_symmetry_Int_Tables_number  139
_chemical_formula_structural  CeGe2Au2
_chemical_formula_sum  CeGe2Au2
_cell_volume  104.2402486307915
_cell_formula_units_Z  1
loop_
  _symmetry_equiv_pos_site_id
 _symmetry_equiv_pos_as_xyz
 1  'x, y, z'
loop_
 _atom_site_type_symbol
 _atom_site_label
 _atom_site_symmetry_multiplicity
 _atom_site_fract_x
 _atom_site_fract_y
 _atom_site_fract_z
 _atom_site_fract_occupancy
 Au  Au1  1  0.25000  0.75000  0.50000  1
 Au  Au2  1  0.75000  0.25000  0.50000  1
 Ce  Ce1  1  0.00000  0.00000  0.00000  1
 Ge  Ge1  1  0.61735  0.61735  0.23469  1
 Ge  Ge2  1  0.38265  0.38265  0.76531  1
