CIF file written using JARVIS-Tools package.
data_Na5P3H2O11
_symmetry_space_group_name_H-M  'P-1'
_cell_length_a       10.8238
_cell_length_b       8.66887
_cell_length_c       6.8623
_cell_angle_alpha    128.451
_cell_angle_beta     98.4029
_cell_angle_gamma    88.9254

_symmetry_Int_Tables_number  2
_chemical_formula_structural  Na5P3H2O11
_chemical_formula_sum  Na0P6H4O22
_cell_volume  496.67964298392417
_cell_formula_units_Z  2
loop_
  _symmetry_equiv_pos_site_id
 _symmetry_equiv_pos_as_xyz
 1  'x, y, z'
loop_
 _atom_site_type_symbol
 _atom_site_label
 _atom_site_symmetry_multiplicity
 _atom_site_fract_x
 _atom_site_fract_y
 _atom_site_fract_z
 _atom_site_fract_occupancy
 H  H1  1  0.97520  0.97541  0.94319  1
 H  H2  1  0.50000  -0.00000  0.00000  1
 H  H3  1  0.02480  0.02459  0.05681  1
 H  H4  1  0.00000  0.50000  -0.00000  1
 Na  Na1  1  0.00653  0.81555  0.52107  1
 Na  Na2  1  0.50428  0.22076  0.54827  1
 Na  Na3  1  0.24495  0.00088  0.08511  1
 Na  Na4  1  0.75330  0.43762  0.98606  1
 Na  Na5  1  0.24670  0.56238  0.01394  1
 Na  Na6  1  0.74951  0.41603  0.46015  1
 Na  Na7  1  0.25049  0.58397  0.53985  1
 Na  Na8  1  0.75505  0.99912  0.91489  1
 Na  Na9  1  0.49572  0.77924  0.45173  1
 Na  Na10  1  -0.00653  0.18445  0.47893  1
 O  O1  1  0.39932  0.61293  0.84355  1
 O  O2  1  0.58167  0.82503  0.19383  1
 O  O3  1  0.54331  0.84415  0.84189  1
 O  O4  1  0.37899  0.47299  0.24351  1
 O  O5  1  0.62101  0.52701  0.75649  1
 O  O6  1  0.68042  0.06531  0.63578  1
 O  O7  1  0.24184  0.91740  0.68492  1
 O  O8  1  0.10517  0.68138  0.82404  1
 O  O9  1  0.31958  0.93469  0.36422  1
 O  O10  1  0.41833  0.17497  0.80617  1
 O  O11  1  0.99432  0.84174  0.17855  1
 O  O12  1  0.75816  0.08260  0.31508  1
 O  O13  1  0.60068  0.38707  0.15645  1
 O  O14  1  0.80705  0.79225  0.32016  1
 O  O15  1  0.89483  0.31862  0.17596  1
 O  O16  1  0.06566  0.51841  0.17478  1
 O  O17  1  0.12887  0.28583  0.26489  1
 O  O18  1  0.87113  0.71417  0.73511  1
 O  O19  1  0.19295  0.20775  0.67984  1
 O  O20  1  0.45669  0.15585  0.15811  1
 O  O21  1  0.93434  0.48159  0.82522  1
 O  O22  1  0.00568  0.15826  0.82145  1
 P  P1  1  0.53363  0.68857  0.88910  1
 P  P2  1  0.71944  0.95165  0.37653  1
 P  P3  1  0.28056  0.04835  0.62347  1
 P  P4  1  0.97260  0.68258  0.88348  1
 P  P5  1  0.46637  0.31143  0.11090  1
 P  P6  1  0.02740  0.31742  0.11652  1
