CIF file written using JARVIS-Tools package.
data_Fe4C
_symmetry_space_group_name_H-M  'I4/m'
_cell_length_a       2.46865
_cell_length_b       4.46606
_cell_length_c       4.46606
_cell_angle_alpha    85.6191
_cell_angle_beta     73.9557
_cell_angle_gamma    73.9557

_symmetry_Int_Tables_number  87
_chemical_formula_structural  Fe4C
_chemical_formula_sum  Fe4C
_cell_volume  45.477796704071544
_cell_formula_units_Z  1
loop_
  _symmetry_equiv_pos_site_id
 _symmetry_equiv_pos_as_xyz
 1  'x, y, z'
loop_
 _atom_site_type_symbol
 _atom_site_label
 _atom_site_symmetry_multiplicity
 _atom_site_fract_x
 _atom_site_fract_y
 _atom_site_fract_z
 _atom_site_fract_occupancy
 C  C1  1  0.00000  0.00000  0.00000  1
 Fe  Fe1  1  0.23620  0.18967  0.33793  1
 Fe  Fe2  1  0.76380  0.81033  0.66207  1
 Fe  Fe3  1  0.42587  0.33793  0.81033  1
 Fe  Fe4  1  0.57413  0.66207  0.18967  1
