CIF file written using JARVIS-Tools package.
data_Ce2Co17
_symmetry_space_group_name_H-M  'P6_3/mmc'
_cell_length_a       8.29573
_cell_length_b       8.29573
_cell_length_c       8.05998
_cell_angle_alpha    90
_cell_angle_beta     90
_cell_angle_gamma    120

_symmetry_Int_Tables_number  194
_chemical_formula_structural  Ce2Co17
_chemical_formula_sum  Ce4Co34
_cell_volume  480.3677425563473
_cell_formula_units_Z  2
loop_
  _symmetry_equiv_pos_site_id
 _symmetry_equiv_pos_as_xyz
 1  'x, y, z'
loop_
 _atom_site_type_symbol
 _atom_site_label
 _atom_site_symmetry_multiplicity
 _atom_site_fract_x
 _atom_site_fract_y
 _atom_site_fract_z
 _atom_site_fract_occupancy
 Ce  Ce1  1  0.00000  0.00000  0.25000  1
 Ce  Ce2  1  0.66667  0.33333  0.25000  1
 Ce  Ce3  1  0.00000  0.00000  0.75000  1
 Ce  Ce4  1  0.33333  0.66667  0.75000  1
 Co  Co1  1  0.16681  0.83319  0.52357  1
 Co  Co2  1  0.83319  0.16681  0.02357  1
 Co  Co3  1  0.33333  0.66667  0.10456  1
 Co  Co4  1  0.66667  0.33333  0.60456  1
 Co  Co5  1  0.66667  0.33333  0.89544  1
 Co  Co6  1  0.33333  0.66667  0.39544  1
 Co  Co7  1  0.50000  0.00000  0.00000  1
 Co  Co8  1  0.00000  0.50000  0.50000  1
 Co  Co9  1  0.66637  0.83319  0.52357  1
 Co  Co10  1  0.00000  0.50000  0.00000  1
 Co  Co11  1  0.50000  0.50000  0.00000  1
 Co  Co12  1  0.50000  0.00000  0.50000  1
 Co  Co13  1  0.32774  0.95183  0.25000  1
 Co  Co14  1  0.37591  0.32774  0.75000  1
 Co  Co15  1  0.50000  0.50000  0.50000  1
 Co  Co16  1  0.95183  0.62409  0.75000  1
 Co  Co17  1  0.33363  0.16681  0.47643  1
 Co  Co18  1  0.04817  0.37591  0.25000  1
 Co  Co19  1  0.83319  0.16681  0.47643  1
 Co  Co20  1  0.83319  0.66637  0.02357  1
 Co  Co21  1  0.33363  0.16681  0.02357  1
 Co  Co22  1  0.66637  0.83319  0.97643  1
 Co  Co23  1  0.16681  0.33363  0.97643  1
 Co  Co24  1  0.83319  0.66637  0.47643  1
 Co  Co25  1  0.16681  0.33363  0.52357  1
 Co  Co26  1  0.37591  0.04817  0.75000  1
 Co  Co27  1  0.32774  0.37591  0.25000  1
 Co  Co28  1  0.62409  0.95183  0.25000  1
 Co  Co29  1  0.04817  0.67226  0.25000  1
 Co  Co30  1  0.95183  0.32774  0.75000  1
 Co  Co31  1  0.67226  0.04817  0.75000  1
 Co  Co32  1  0.67226  0.62409  0.75000  1
 Co  Co33  1  0.16681  0.83319  0.97643  1
 Co  Co34  1  0.62409  0.67226  0.25000  1
