CIF file written using JARVIS-Tools package.
data_CuAgS
_symmetry_space_group_name_H-M  'Cmcm'
_cell_length_a       3.95574
_cell_length_b       3.95574
_cell_length_c       8.26024
_cell_angle_alpha    90
_cell_angle_beta     90
_cell_angle_gamma    119.383

_symmetry_Int_Tables_number  63
_chemical_formula_structural  CuAgS
_chemical_formula_sum  Cu2Ag2S2
_cell_volume  112.62741611585444
_cell_formula_units_Z  2
loop_
  _symmetry_equiv_pos_site_id
 _symmetry_equiv_pos_as_xyz
 1  'x, y, z'
loop_
 _atom_site_type_symbol
 _atom_site_label
 _atom_site_symmetry_multiplicity
 _atom_site_fract_x
 _atom_site_fract_y
 _atom_site_fract_z
 _atom_site_fract_occupancy
 Ag  Ag1  1  -0.00004  0.00004  0.03061  1
 Ag  Ag2  1  0.00004  -0.00004  0.53061  1
 Cu  Cu1  1  0.46964  0.53036  0.28067  1
 Cu  Cu2  1  0.53036  0.46964  0.78067  1
 S  S1  1  0.80841  0.19159  0.28061  1
 S  S2  1  0.19159  0.80841  0.78061  1
