CIF file written using JARVIS-Tools package.
data_NaNdS2O8
_symmetry_space_group_name_H-M  'P-1'
_cell_length_a       6.34873
_cell_length_b       6.9446
_cell_length_c       7.09476
_cell_angle_alpha    98.6551
_cell_angle_beta     96.7322
_cell_angle_gamma    90.3016

_symmetry_Int_Tables_number  2
_chemical_formula_structural  NaNdS2O8
_chemical_formula_sum  Na2Nd2S4O6
_cell_volume  307.025193952667
_cell_formula_units_Z  2
loop_
  _symmetry_equiv_pos_site_id
 _symmetry_equiv_pos_as_xyz
 1  'x, y, z'
loop_
 _atom_site_type_symbol
 _atom_site_label
 _atom_site_symmetry_multiplicity
 _atom_site_fract_x
 _atom_site_fract_y
 _atom_site_fract_z
 _atom_site_fract_occupancy
 Na  Na1  1  0.06180  0.68929  0.28531  1
 Na  Na2  1  0.93820  0.31071  0.71469  1
 Nd  Nd1  1  0.63834  0.80587  0.79516  1
 Nd  Nd2  1  0.36166  0.19413  0.20484  1
 O  O1  1  0.41342  0.54404  0.25146  1
 O  O2  1  0.28182  0.29912  0.53922  1
 O  O3  1  0.71818  0.70088  0.46078  1
 O  O4  1  0.75456  0.25370  0.38039  1
 O  O5  1  0.24544  0.74630  0.61961  1
 O  O6  1  0.99600  0.33883  0.15763  1
 O  O7  1  0.00400  0.66117  0.84237  1
 O  O8  1  0.98129  0.97450  0.74941  1
 O  O9  1  0.01871  0.02550  0.25059  1
 O  O10  1  0.69161  0.70467  0.12073  1
 O  O11  1  0.30295  0.89302  0.94450  1
 O  O12  1  0.30839  0.29533  0.87927  1
 O  O13  1  0.44611  0.89080  0.31438  1
 O  O14  1  0.55389  0.10920  0.68562  1
 O  O15  1  0.58658  0.45596  0.74854  1
 O  O16  1  0.69705  0.10698  0.05550  1
 S  S1  1  0.86797  0.18177  0.21489  1
 S  S2  1  0.13203  0.81823  0.78511  1
 S  S3  1  0.43234  0.28946  0.71430  1
 S  S4  1  0.56766  0.71054  0.28570  1
