CIF file written using JARVIS-Tools package.
data_EuBrO
_symmetry_space_group_name_H-M  'P4/nmm'
_cell_length_a       3.91908
_cell_length_b       3.91908
_cell_length_c       8.09314
_cell_angle_alpha    90
_cell_angle_beta     90
_cell_angle_gamma    90

_symmetry_Int_Tables_number  129
_chemical_formula_structural  EuBrO
_chemical_formula_sum  Eu2Br2O2
_cell_volume  124.3043026396647
_cell_formula_units_Z  2
loop_
  _symmetry_equiv_pos_site_id
 _symmetry_equiv_pos_as_xyz
 1  'x, y, z'
loop_
 _atom_site_type_symbol
 _atom_site_label
 _atom_site_symmetry_multiplicity
 _atom_site_fract_x
 _atom_site_fract_y
 _atom_site_fract_z
 _atom_site_fract_occupancy
 Br  Br1  1  0.25000  0.25000  0.65758  1
 Br  Br2  1  0.75000  0.75000  0.34242  1
 Eu  Eu1  1  0.25000  0.25000  0.14478  1
 Eu  Eu2  1  0.75000  0.75000  0.85522  1
 O  O1  1  0.25000  0.75000  0.00000  1
 O  O2  1  0.75000  0.25000  0.00000  1
