CIF file written using JARVIS-Tools package.
data_Tm5Mg
_symmetry_space_group_name_H-M  'R32'
_cell_length_a       6.44856
_cell_length_b       6.44855
_cell_length_c       6.44855
_cell_angle_alpha    55.2323
_cell_angle_beta     55.2323
_cell_angle_gamma    55.2323

_symmetry_Int_Tables_number  155
_chemical_formula_structural  Tm5Mg
_chemical_formula_sum  Tm5Mg
_cell_volume  168.60120647302153
_cell_formula_units_Z  1
loop_
  _symmetry_equiv_pos_site_id
 _symmetry_equiv_pos_as_xyz
 1  'x, y, z'
loop_
 _atom_site_type_symbol
 _atom_site_label
 _atom_site_symmetry_multiplicity
 _atom_site_fract_x
 _atom_site_fract_y
 _atom_site_fract_z
 _atom_site_fract_occupancy
 Mg  Mg1  1  0.50000  0.50000  0.50000  1
 Tm  Tm1  1  0.66209  0.33791  -0.00000  1
 Tm  Tm2  1  0.00000  0.66209  0.33791  1
 Tm  Tm3  1  0.33791  0.00000  0.66209  1
 Tm  Tm4  1  0.83280  0.83280  0.83280  1
 Tm  Tm5  1  0.16720  0.16720  0.16720  1
