CIF file written using JARVIS-Tools package.
data_DyErMn4
_symmetry_space_group_name_H-M  'F-43m'
_cell_length_a       5.06865
_cell_length_b       5.06864
_cell_length_c       5.06865
_cell_angle_alpha    60
_cell_angle_beta     60.0001
_cell_angle_gamma    60

_symmetry_Int_Tables_number  216
_chemical_formula_structural  DyErMn4
_chemical_formula_sum  DyErMn4
_cell_volume  92.0790981657085
_cell_formula_units_Z  1
loop_
  _symmetry_equiv_pos_site_id
 _symmetry_equiv_pos_as_xyz
 1  'x, y, z'
loop_
 _atom_site_type_symbol
 _atom_site_label
 _atom_site_symmetry_multiplicity
 _atom_site_fract_x
 _atom_site_fract_y
 _atom_site_fract_z
 _atom_site_fract_occupancy
 Dy  Dy1  1  0.25000  0.25000  0.25000  1
 Er  Er1  1  0.00000  0.00000  0.00000  1
 Mn  Mn1  1  0.62507  0.62507  0.12480  1
 Mn  Mn2  1  0.62507  0.12480  0.62507  1
 Mn  Mn3  1  0.12480  0.62507  0.62507  1
 Mn  Mn4  1  0.62507  0.62507  0.62507  1
