CIF file written using JARVIS-Tools package.
data_CaAg2
_symmetry_space_group_name_H-M  'Imma'
_cell_length_a       4.69594
_cell_length_b       5.93149
_cell_length_c       5.93149
_cell_angle_alpha    74.6612
_cell_angle_beta     66.6811
_cell_angle_gamma    66.6811

_symmetry_Int_Tables_number  74
_chemical_formula_structural  CaAg2
_chemical_formula_sum  Ca2Ag4
_cell_volume  138.18306256559026
_cell_formula_units_Z  2
loop_
  _symmetry_equiv_pos_site_id
 _symmetry_equiv_pos_as_xyz
 1  'x, y, z'
loop_
 _atom_site_type_symbol
 _atom_site_label
 _atom_site_symmetry_multiplicity
 _atom_site_fract_x
 _atom_site_fract_y
 _atom_site_fract_z
 _atom_site_fract_occupancy
 Ag  Ag1  1  0.66276  0.29092  0.88356  1
 Ag  Ag2  1  0.33724  0.70908  0.11644  1
 Ag  Ag3  1  0.33724  0.11644  0.70908  1
 Ag  Ag4  1  0.66276  0.88356  0.29092  1
 Ca  Ca1  1  0.95736  0.29264  0.29264  1
 Ca  Ca2  1  0.04264  0.70736  0.70736  1
