CIF file written using JARVIS-Tools package.
data_Ta2Se
_symmetry_space_group_name_H-M  'P4/nmm'
_cell_length_a       3.39167
_cell_length_b       3.39167
_cell_length_c       10.132
_cell_angle_alpha    90
_cell_angle_beta     90
_cell_angle_gamma    90

_symmetry_Int_Tables_number  129
_chemical_formula_structural  Ta2Se
_chemical_formula_sum  Ta4Se2
_cell_volume  116.5523257228189
_cell_formula_units_Z  2
loop_
  _symmetry_equiv_pos_site_id
 _symmetry_equiv_pos_as_xyz
 1  'x, y, z'
loop_
 _atom_site_type_symbol
 _atom_site_label
 _atom_site_symmetry_multiplicity
 _atom_site_fract_x
 _atom_site_fract_y
 _atom_site_fract_z
 _atom_site_fract_occupancy
 Se  Se1  1  0.50000  0.00000  0.64119  1
 Se  Se2  1  0.00000  0.50000  0.35881  1
 Ta  Ta1  1  0.00000  0.50000  0.76393  1
 Ta  Ta2  1  0.50000  0.00000  0.23607  1
 Ta  Ta3  1  0.50000  0.00000  0.92492  1
 Ta  Ta4  1  0.00000  0.50000  0.07508  1
