CIF file written using JARVIS-Tools package.
data_Mg3SiO4F2
_symmetry_space_group_name_H-M  'Pnma'
_cell_length_a       4.74624
_cell_length_b       8.77427
_cell_length_c       10.3211
_cell_angle_alpha    90
_cell_angle_beta     90
_cell_angle_gamma    90

_symmetry_Int_Tables_number  62
_chemical_formula_structural  Mg3SiO4F2
_chemical_formula_sum  Mg2Si4O6F8
_cell_volume  429.8214503531654
_cell_formula_units_Z  4
loop_
  _symmetry_equiv_pos_site_id
 _symmetry_equiv_pos_as_xyz
 1  'x, y, z'
loop_
 _atom_site_type_symbol
 _atom_site_label
 _atom_site_symmetry_multiplicity
 _atom_site_fract_x
 _atom_site_fract_y
 _atom_site_fract_z
 _atom_site_fract_occupancy
 F  F1  1  0.27262  0.58469  0.03320  1
 F  F2  1  0.77262  0.41531  0.46680  1
 F  F3  1  0.72738  0.41531  0.96680  1
 F  F4  1  0.72738  0.08469  0.96680  1
 F  F5  1  0.22738  0.58469  0.53320  1
 F  F6  1  0.27262  0.91531  0.03320  1
 F  F7  1  0.77262  0.08469  0.46680  1
 F  F8  1  0.22738  0.91531  0.53320  1
 Mg  Mg1  1  0.50526  0.25000  0.40678  1
 Mg  Mg2  1  0.99474  0.25000  0.90678  1
 Mg  Mg3  1  0.99003  0.43024  0.63282  1
 Mg  Mg4  1  0.99003  0.06976  0.63282  1
 Mg  Mg5  1  0.49003  0.56976  0.86718  1
 Mg  Mg6  1  0.00997  0.56976  0.36718  1
 Mg  Mg7  1  0.49474  0.75000  0.59322  1
 Mg  Mg8  1  0.50997  0.43024  0.13282  1
 Mg  Mg9  1  0.00997  0.93024  0.36718  1
 Mg  Mg10  1  0.49003  0.93024  0.86718  1
 Mg  Mg11  1  0.00526  0.75000  0.09322  1
 Mg  Mg12  1  0.50997  0.06976  0.13282  1
 O  O1  1  0.76427  0.25000  0.72097  1
 O  O2  1  0.73244  0.89738  0.20850  1
 O  O3  1  0.26756  0.10262  0.79150  1
 O  O4  1  0.23573  0.75000  0.27903  1
 O  O5  1  0.27715  0.25000  0.57360  1
 O  O6  1  0.72285  0.75000  0.42640  1
 O  O7  1  0.76756  0.89738  0.70850  1
 O  O8  1  0.26756  0.39738  0.79150  1
 O  O9  1  0.26427  0.75000  0.77903  1
 O  O10  1  0.23244  0.10262  0.29150  1
 O  O11  1  0.22285  0.25000  0.07360  1
 O  O12  1  0.73573  0.25000  0.22097  1
 O  O13  1  0.23244  0.39738  0.29150  1
 O  O14  1  0.73244  0.60262  0.20850  1
 O  O15  1  0.77715  0.75000  0.92640  1
 O  O16  1  0.76756  0.60262  0.70850  1
 Si  Si1  1  0.42096  0.25000  0.71969  1
 Si  Si2  1  0.07904  0.25000  0.21969  1
 Si  Si3  1  0.57904  0.75000  0.28031  1
 Si  Si4  1  0.92096  0.75000  0.78031  1
