CIF file written using JARVIS-Tools package.
data_AlO2
_symmetry_space_group_name_H-M  'Cmcm'
_cell_length_a       2.97105
_cell_length_b       3.64373
_cell_length_c       5.52385
_cell_angle_alpha    90
_cell_angle_beta     105.6
_cell_angle_gamma    90

_symmetry_Int_Tables_number  63
_chemical_formula_structural  AlO2
_chemical_formula_sum  Al2O4
_cell_volume  57.59657500644397
_cell_formula_units_Z  2
loop_
  _symmetry_equiv_pos_site_id
 _symmetry_equiv_pos_as_xyz
 1  'x, y, z'
loop_
 _atom_site_type_symbol
 _atom_site_label
 _atom_site_symmetry_multiplicity
 _atom_site_fract_x
 _atom_site_fract_y
 _atom_site_fract_z
 _atom_site_fract_occupancy
 Al  Al1  1  0.66724  0.25000  0.33448  1
 Al  Al2  1  0.33276  0.75000  0.66552  1
 O  O1  1  0.29489  0.25000  0.58978  1
 O  O2  1  0.70511  0.75000  0.41022  1
 O  O3  1  0.05886  0.25000  0.11773  1
 O  O4  1  0.94114  0.75000  0.88227  1
