CIF file written using JARVIS-Tools package.
data_MgTi
_symmetry_space_group_name_H-M  'P3m1'
_cell_length_a       2.97534
_cell_length_b       2.97534
_cell_length_c       15.0665
_cell_angle_alpha    90
_cell_angle_beta     90
_cell_angle_gamma    120

_symmetry_Int_Tables_number  156
_chemical_formula_structural  MgTi
_chemical_formula_sum  Mg3Ti3
_cell_volume  115.50933874844233
_cell_formula_units_Z  3
loop_
  _symmetry_equiv_pos_site_id
 _symmetry_equiv_pos_as_xyz
 1  'x, y, z'
loop_
 _atom_site_type_symbol
 _atom_site_label
 _atom_site_symmetry_multiplicity
 _atom_site_fract_x
 _atom_site_fract_y
 _atom_site_fract_z
 _atom_site_fract_occupancy
 Mg  Mg1  1  0.00000  0.00000  0.99381  1
 Mg  Mg2  1  0.66667  0.33333  0.50935  1
 Mg  Mg3  1  0.00000  0.00000  0.33197  1
 Ti  Ti1  1  0.66667  0.33333  0.82195  1
 Ti  Ti2  1  0.00000  0.00000  0.67810  1
 Ti  Ti3  1  0.66667  0.33333  0.16482  1
