CIF file written using JARVIS-Tools package.
data_MgCd2
_symmetry_space_group_name_H-M  'P-6m2'
_cell_length_a       3.28085
_cell_length_b       3.28085
_cell_length_c       14.2386
_cell_angle_alpha    90
_cell_angle_beta     90
_cell_angle_gamma    120

_symmetry_Int_Tables_number  187
_chemical_formula_structural  MgCd2
_chemical_formula_sum  Mg2Cd4
_cell_volume  132.73093792803368
_cell_formula_units_Z  2
loop_
  _symmetry_equiv_pos_site_id
 _symmetry_equiv_pos_as_xyz
 1  'x, y, z'
loop_
 _atom_site_type_symbol
 _atom_site_label
 _atom_site_symmetry_multiplicity
 _atom_site_fract_x
 _atom_site_fract_y
 _atom_site_fract_z
 _atom_site_fract_occupancy
 Cd  Cd1  1  0.33333  0.66667  0.50000  1
 Cd  Cd2  1  0.00000  0.00000  0.33002  1
 Cd  Cd3  1  0.00000  0.00000  0.00000  1
 Cd  Cd4  1  0.00000  0.00000  0.66998  1
 Mg  Mg1  1  0.33333  0.66667  0.16527  1
 Mg  Mg2  1  0.33333  0.66667  0.83473  1
