CIF file written using JARVIS-Tools package.
data_ZnGa2Te4
_symmetry_space_group_name_H-M  'I-4'
_cell_length_a       6.02405
_cell_length_b       6.02405
_cell_length_c       7.34469
_cell_angle_alpha    114.211
_cell_angle_beta     114.211
_cell_angle_gamma    90

_symmetry_Int_Tables_number  82
_chemical_formula_structural  ZnGa2Te4
_chemical_formula_sum  ZnGa2Te4
_cell_volume  217.12899842394728
_cell_formula_units_Z  1
loop_
  _symmetry_equiv_pos_site_id
 _symmetry_equiv_pos_as_xyz
 1  'x, y, z'
loop_
 _atom_site_type_symbol
 _atom_site_label
 _atom_site_symmetry_multiplicity
 _atom_site_fract_x
 _atom_site_fract_y
 _atom_site_fract_z
 _atom_site_fract_occupancy
 Ga  Ga1  1  0.50000  0.50000  0.00000  1
 Ga  Ga2  1  0.25000  0.75000  0.50000  1
 Te  Te1  1  0.40447  0.36726  0.26891  1
 Te  Te2  1  0.09836  0.59553  0.73109  1
 Te  Te3  1  0.63274  0.13556  0.73109  1
 Te  Te4  1  0.86444  0.90164  0.26891  1
 Zn  Zn1  1  0.00000  0.00000  0.00000  1
