CIF file written using JARVIS-Tools package.
data_TiS
_symmetry_space_group_name_H-M  'R-3m'
_cell_length_a       3.45941
_cell_length_b       3.45941
_cell_length_c       9.10716
_cell_angle_alpha    79.0514
_cell_angle_beta     79.0514
_cell_angle_gamma    59.9998

_symmetry_Int_Tables_number  166
_chemical_formula_structural  TiS
_chemical_formula_sum  Ti3S3
_cell_volume  92.09030234766904
_cell_formula_units_Z  3
loop_
  _symmetry_equiv_pos_site_id
 _symmetry_equiv_pos_as_xyz
 1  'x, y, z'
loop_
 _atom_site_type_symbol
 _atom_site_label
 _atom_site_symmetry_multiplicity
 _atom_site_fract_x
 _atom_site_fract_y
 _atom_site_fract_z
 _atom_site_fract_occupancy
 S  S1  1  0.00000  0.00000  0.00000  1
 S  S2  1  0.22319  0.22319  0.33044  1
 S  S3  1  0.77681  0.77681  0.66956  1
 Ti  Ti1  1  0.50000  0.50000  0.50000  1
 Ti  Ti2  1  0.38212  0.38212  0.85364  1
 Ti  Ti3  1  0.61788  0.61788  0.14636  1
