CIF file written using JARVIS-Tools package.
data_KZrCuSe3
_symmetry_space_group_name_H-M  'Cmcm'
_cell_length_a       3.90196
_cell_length_b       7.51611
_cell_length_c       10.226
_cell_angle_alpha    90
_cell_angle_beta     90
_cell_angle_gamma    105.045

_symmetry_Int_Tables_number  63
_chemical_formula_structural  KZrCuSe3
_chemical_formula_sum  K2Zr2Cu2Se6
_cell_volume  289.6250798062865
_cell_formula_units_Z  2
loop_
  _symmetry_equiv_pos_site_id
 _symmetry_equiv_pos_as_xyz
 1  'x, y, z'
loop_
 _atom_site_type_symbol
 _atom_site_label
 _atom_site_symmetry_multiplicity
 _atom_site_fract_x
 _atom_site_fract_y
 _atom_site_fract_z
 _atom_site_fract_occupancy
 Cu  Cu1  1  0.46541  0.93083  0.75000  1
 Cu  Cu2  1  0.53459  0.06917  0.25000  1
 K  K1  1  0.74871  0.49741  0.75000  1
 K  K2  1  0.25129  0.50259  0.25000  1
 Se  Se1  1  0.37352  0.74703  0.94827  1
 Se  Se2  1  0.93130  0.86260  0.25000  1
 Se  Se3  1  0.62648  0.25297  0.44827  1
 Se  Se4  1  0.62648  0.25297  0.05173  1
 Se  Se5  1  0.37352  0.74703  0.55173  1
 Se  Se6  1  0.06870  0.13740  0.75000  1
 Zr  Zr1  1  0.00000  0.00000  0.00000  1
 Zr  Zr2  1  0.00000  0.00000  0.50000  1
