CIF file written using JARVIS-Tools package.
data_Na3CoF6
_symmetry_space_group_name_H-M  'Fm-3m'
_cell_length_a       5.63227
_cell_length_b       5.63227
_cell_length_c       5.63228
_cell_angle_alpha    60
_cell_angle_beta     60
_cell_angle_gamma    59.9999

_symmetry_Int_Tables_number  225
_chemical_formula_structural  Na3CoF6
_chemical_formula_sum  Na3CoF6
_cell_volume  126.3388057479374
_cell_formula_units_Z  1
loop_
  _symmetry_equiv_pos_site_id
 _symmetry_equiv_pos_as_xyz
 1  'x, y, z'
loop_
 _atom_site_type_symbol
 _atom_site_label
 _atom_site_symmetry_multiplicity
 _atom_site_fract_x
 _atom_site_fract_y
 _atom_site_fract_z
 _atom_site_fract_occupancy
 Co  Co1  1  0.00000  0.00000  0.00000  1
 F  F1  1  0.76836  0.23164  0.23164  1
 F  F2  1  0.23164  0.76836  0.76836  1
 F  F3  1  0.23164  0.76836  0.23164  1
 F  F4  1  0.76836  0.23164  0.76836  1
 F  F5  1  0.23164  0.23164  0.76836  1
 F  F6  1  0.76836  0.76836  0.23164  1
 Na  Na1  1  0.25000  0.25000  0.25000  1
 Na  Na2  1  0.75000  0.75000  0.75000  1
 Na  Na3  1  0.50000  0.50000  0.50000  1
