CIF file written using JARVIS-Tools package.
data_Mg6NbSi
_symmetry_space_group_name_H-M  'Amm2'
_cell_length_a       6.15366
_cell_length_b       5.76854
_cell_length_c       5.04908
_cell_angle_alpha    90
_cell_angle_beta     90
_cell_angle_gamma    117.951

_symmetry_Int_Tables_number  38
_chemical_formula_structural  Mg6NbSi
_chemical_formula_sum  Mg6NbSi
_cell_volume  158.3236974080724
_cell_formula_units_Z  1
loop_
  _symmetry_equiv_pos_site_id
 _symmetry_equiv_pos_as_xyz
 1  'x, y, z'
loop_
 _atom_site_type_symbol
 _atom_site_label
 _atom_site_symmetry_multiplicity
 _atom_site_fract_x
 _atom_site_fract_y
 _atom_site_fract_z
 _atom_site_fract_occupancy
 Mg  Mg1  1  0.65286  0.32706  0.25000  1
 Mg  Mg2  1  0.65286  0.82580  0.25000  1
 Mg  Mg3  1  0.33999  0.16311  0.75000  1
 Mg  Mg4  1  0.33999  0.67688  0.75000  1
 Mg  Mg5  1  0.85781  0.17891  0.75000  1
 Mg  Mg6  1  0.84820  0.67410  0.75000  1
 Nb  Nb1  1  0.14830  0.82415  0.25000  1
 Si  Si1  1  0.16000  0.33000  0.25000  1
