CIF file written using JARVIS-Tools package.
data_SiO2
_symmetry_space_group_name_H-M  'P1'
_cell_length_a       5.00858
_cell_length_b       5.43637
_cell_length_c       6.21677
_cell_angle_alpha    95.6949
_cell_angle_beta     92.052
_cell_angle_gamma    90.6024

_symmetry_Int_Tables_number  1
_chemical_formula_structural  SiO2
_chemical_formula_sum  Si4O8
_cell_volume  168.31301338141446
_cell_formula_units_Z  4
loop_
  _symmetry_equiv_pos_site_id
 _symmetry_equiv_pos_as_xyz
 1  'x, y, z'
loop_
 _atom_site_type_symbol
 _atom_site_label
 _atom_site_symmetry_multiplicity
 _atom_site_fract_x
 _atom_site_fract_y
 _atom_site_fract_z
 _atom_site_fract_occupancy
 O  O1  1  0.79096  0.71785  0.02241  1
 O  O2  1  0.60326  0.41962  0.65466  1
 O  O3  1  0.93194  0.24897  0.94880  1
 O  O4  1  0.38222  0.45716  0.03310  1
 O  O5  1  0.45131  0.73351  0.39144  1
 O  O6  1  0.19156  0.28544  0.36416  1
 O  O7  1  0.34261  0.96288  0.04282  1
 O  O8  1  0.09872  0.60227  0.68949  1
 Si  Si1  1  0.49505  0.72879  0.13060  1
 Si  Si2  1  0.20386  0.22719  0.10008  1
 Si  Si3  1  0.85393  0.49663  0.82551  1
 Si  Si4  1  0.33590  0.51040  0.52834  1
