CIF file written using JARVIS-Tools package.
data_KCrF3
_symmetry_space_group_name_H-M  'Pm-3m'
_cell_length_a       4.15151
_cell_length_b       4.15175
_cell_length_c       4.15175
_cell_angle_alpha    90
_cell_angle_beta     90
_cell_angle_gamma    90

_symmetry_Int_Tables_number  221
_chemical_formula_structural  KCrF3
_chemical_formula_sum  KCrF3
_cell_volume  71.55971600596187
_cell_formula_units_Z  1
loop_
  _symmetry_equiv_pos_site_id
 _symmetry_equiv_pos_as_xyz
 1  'x, y, z'
loop_
 _atom_site_type_symbol
 _atom_site_label
 _atom_site_symmetry_multiplicity
 _atom_site_fract_x
 _atom_site_fract_y
 _atom_site_fract_z
 _atom_site_fract_occupancy
 Cr  Cr1  1  0.00000  0.00000  0.00000  1
 F  F1  1  0.50000  0.00000  0.00000  1
 F  F2  1  0.00000  0.00000  0.50000  1
 F  F3  1  0.00000  0.50000  0.00000  1
 K  K1  1  0.50000  0.50000  0.50000  1
