CIF file written using JARVIS-Tools package.
data_Pr2Se2O
_symmetry_space_group_name_H-M  'P2_1/c'
_cell_length_a       7.39305
_cell_length_b       7.40055
_cell_length_c       8.91495
_cell_angle_alpha    100
_cell_angle_beta     90
_cell_angle_gamma    90

_symmetry_Int_Tables_number  14
_chemical_formula_structural  Pr2Se2O
_chemical_formula_sum  Pr8Se8O4
_cell_volume  480.350879747195
_cell_formula_units_Z  4
loop_
  _symmetry_equiv_pos_site_id
 _symmetry_equiv_pos_as_xyz
 1  'x, y, z'
loop_
 _atom_site_type_symbol
 _atom_site_label
 _atom_site_symmetry_multiplicity
 _atom_site_fract_x
 _atom_site_fract_y
 _atom_site_fract_z
 _atom_site_fract_occupancy
 O  O1  1  0.91476  0.64975  0.61426  1
 O  O2  1  0.08524  0.35025  0.38574  1
 O  O3  1  0.41476  0.85025  0.38574  1
 O  O4  1  0.58524  0.14975  0.61426  1
 Pr  Pr1  1  0.14746  0.67443  0.42481  1
 Pr  Pr2  1  0.94675  0.25300  0.14158  1
 Pr  Pr3  1  0.64746  0.82557  0.57519  1
 Pr  Pr4  1  0.05325  0.74700  0.85842  1
 Pr  Pr5  1  0.55325  0.75300  0.14158  1
 Pr  Pr6  1  0.85254  0.32557  0.57519  1
 Pr  Pr7  1  0.35254  0.17443  0.42481  1
 Pr  Pr8  1  0.44675  0.24700  0.85842  1
 Se  Se1  1  0.87119  0.93088  0.31939  1
 Se  Se2  1  0.72173  0.97119  0.92183  1
 Se  Se3  1  0.12881  0.06912  0.68061  1
 Se  Se4  1  0.62881  0.43088  0.31939  1
 Se  Se5  1  0.37119  0.56912  0.68061  1
 Se  Se6  1  0.27827  0.02881  0.07817  1
 Se  Se7  1  0.77827  0.47119  0.92183  1
 Se  Se8  1  0.22173  0.52881  0.07817  1
