CIF file written using JARVIS-Tools package.
data_UCu2As2
_symmetry_space_group_name_H-M  'P-3m1'
_cell_length_a       4.07843
_cell_length_b       4.07854
_cell_length_c       6.58376
_cell_angle_alpha    90
_cell_angle_beta     89.9998
_cell_angle_gamma    120.001

_symmetry_Int_Tables_number  164
_chemical_formula_structural  UCu2As2
_chemical_formula_sum  UCu2As2
_cell_volume  94.84144703615753
_cell_formula_units_Z  1
loop_
  _symmetry_equiv_pos_site_id
 _symmetry_equiv_pos_as_xyz
 1  'x, y, z'
loop_
 _atom_site_type_symbol
 _atom_site_label
 _atom_site_symmetry_multiplicity
 _atom_site_fract_x
 _atom_site_fract_y
 _atom_site_fract_z
 _atom_site_fract_occupancy
 As  As1  1  0.33333  0.66666  0.25452  1
 As  As2  1  0.66667  0.33334  0.74548  1
 Cu  Cu1  1  0.33338  0.66669  0.63872  1
 Cu  Cu2  1  0.66662  0.33331  0.36128  1
 U  U1  1  0.00000  0.00000  0.00000  1
