CIF file written using JARVIS-Tools package.
data_Sr2InSbO6
_symmetry_space_group_name_H-M  'P2_1/c'
_cell_length_a       5.77807
_cell_length_b       5.81548
_cell_length_c       8.17641
_cell_angle_alpha    90
_cell_angle_beta     89.9185
_cell_angle_gamma    90

_symmetry_Int_Tables_number  14
_chemical_formula_structural  Sr2InSbO6
_chemical_formula_sum  Sr4In2Sb2O2
_cell_volume  274.74580101362454
_cell_formula_units_Z  2
loop_
  _symmetry_equiv_pos_site_id
 _symmetry_equiv_pos_as_xyz
 1  'x, y, z'
loop_
 _atom_site_type_symbol
 _atom_site_label
 _atom_site_symmetry_multiplicity
 _atom_site_fract_x
 _atom_site_fract_y
 _atom_site_fract_z
 _atom_site_fract_occupancy
 In  In1  1  0.00000  0.50000  0.50000  1
 In  In2  1  0.50000  0.00000  0.00000  1
 O  O1  1  0.20042  0.77788  0.95857  1
 O  O2  1  0.70042  0.72212  0.45857  1
 O  O3  1  0.79958  0.22212  0.04143  1
 O  O4  1  0.92369  0.48005  0.76008  1
 O  O5  1  0.29958  0.27788  0.54143  1
 O  O6  1  0.72226  0.70303  0.03905  1
 O  O7  1  0.57631  0.98005  0.73992  1
 O  O8  1  0.07631  0.51995  0.23992  1
 O  O9  1  0.77774  0.20303  0.46095  1
 O  O10  1  0.27774  0.29697  0.96095  1
 O  O11  1  0.22226  0.79697  0.53905  1
 O  O12  1  0.42369  0.01995  0.26008  1
 Sb  Sb1  1  0.00000  0.50000  0.00000  1
 Sb  Sb2  1  0.50000  0.00000  0.50000  1
 Sr  Sr1  1  0.50741  0.46502  0.24987  1
 Sr  Sr2  1  0.99259  0.96502  0.25013  1
 Sr  Sr3  1  0.49259  0.53498  0.75013  1
 Sr  Sr4  1  0.00741  0.03498  0.74987  1
