CIF file written using JARVIS-Tools package.
data_Rb2Te2Pd
_symmetry_space_group_name_H-M  'Immm'
_cell_length_a       4.06781
_cell_length_b       6.99589
_cell_length_c       6.99589
_cell_angle_alpha    70.5651
_cell_angle_beta     73.0985
_cell_angle_gamma    73.0985

_symmetry_Int_Tables_number  71
_chemical_formula_structural  Rb2Te2Pd
_chemical_formula_sum  Rb2Te2Pd
_cell_volume  175.43411184107848
_cell_formula_units_Z  1
loop_
  _symmetry_equiv_pos_site_id
 _symmetry_equiv_pos_as_xyz
 1  'x, y, z'
loop_
 _atom_site_type_symbol
 _atom_site_label
 _atom_site_symmetry_multiplicity
 _atom_site_fract_x
 _atom_site_fract_y
 _atom_site_fract_z
 _atom_site_fract_occupancy
 Pd  Pd1  1  0.00000  0.00000  0.00000  1
 Rb  Rb1  1  0.20016  0.29984  0.29984  1
 Rb  Rb2  1  0.79984  0.70016  0.70016  1
 Te  Te1  1  0.50000  0.21800  0.78200  1
 Te  Te2  1  0.50000  0.78200  0.21800  1
