CIF file written using JARVIS-Tools package.
data_NbS
_symmetry_space_group_name_H-M  'P6_3/mmc'
_cell_length_a       3.31706
_cell_length_b       3.31706
_cell_length_c       6.71191
_cell_angle_alpha    90
_cell_angle_beta     90
_cell_angle_gamma    120

_symmetry_Int_Tables_number  194
_chemical_formula_structural  NbS
_chemical_formula_sum  Nb2S2
_cell_volume  63.95634144022498
_cell_formula_units_Z  2
loop_
  _symmetry_equiv_pos_site_id
 _symmetry_equiv_pos_as_xyz
 1  'x, y, z'
loop_
 _atom_site_type_symbol
 _atom_site_label
 _atom_site_symmetry_multiplicity
 _atom_site_fract_x
 _atom_site_fract_y
 _atom_site_fract_z
 _atom_site_fract_occupancy
 Nb  Nb1  1  0.00000  0.00000  0.50000  1
 Nb  Nb2  1  0.00000  0.00000  0.00000  1
 S  S1  1  0.66667  0.33333  0.75000  1
 S  S2  1  0.33333  0.66667  0.25000  1
