CIF file written using JARVIS-Tools package.
data_ZrS
_symmetry_space_group_name_H-M  'P4/nmm'
_cell_length_a       3.62179
_cell_length_b       3.62179
_cell_length_c       5.51834
_cell_angle_alpha    90
_cell_angle_beta     90
_cell_angle_gamma    90

_symmetry_Int_Tables_number  129
_chemical_formula_structural  ZrS
_chemical_formula_sum  Zr2S2
_cell_volume  72.3859400580677
_cell_formula_units_Z  2
loop_
  _symmetry_equiv_pos_site_id
 _symmetry_equiv_pos_as_xyz
 1  'x, y, z'
loop_
 _atom_site_type_symbol
 _atom_site_label
 _atom_site_symmetry_multiplicity
 _atom_site_fract_x
 _atom_site_fract_y
 _atom_site_fract_z
 _atom_site_fract_occupancy
 S  S1  1  0.50000  0.00000  0.29603  1
 S  S2  1  0.00000  0.50000  0.70397  1
 Zr  Zr1  1  0.50000  0.00000  0.81071  1
 Zr  Zr2  1  0.00000  0.50000  0.18929  1
