CIF file written using JARVIS-Tools package.
data_ZrMoC2
_symmetry_space_group_name_H-M  'R-3m'
_cell_length_a       5.55697
_cell_length_b       5.55698
_cell_length_c       5.55698
_cell_angle_alpha    33.4739
_cell_angle_beta     33.4738
_cell_angle_gamma    33.4738

_symmetry_Int_Tables_number  166
_chemical_formula_structural  ZrMoC2
_chemical_formula_sum  ZrMoC2
_cell_volume  46.49219029488475
_cell_formula_units_Z  1
loop_
  _symmetry_equiv_pos_site_id
 _symmetry_equiv_pos_as_xyz
 1  'x, y, z'
loop_
 _atom_site_type_symbol
 _atom_site_label
 _atom_site_symmetry_multiplicity
 _atom_site_fract_x
 _atom_site_fract_y
 _atom_site_fract_z
 _atom_site_fract_occupancy
 C  C1  1  0.74484  0.74484  0.74484  1
 C  C2  1  0.25516  0.25516  0.25516  1
 Mo  Mo1  1  0.00000  0.00000  0.00000  1
 Zr  Zr1  1  0.50000  0.50000  0.50000  1
