CIF file written using JARVIS-Tools package.
data_Li4Fe3CoO8
_symmetry_space_group_name_H-M  'C2/m'
_cell_length_a       4.91669
_cell_length_b       5.66742
_cell_length_c       5.70993
_cell_angle_alpha    119.753
_cell_angle_beta     106.663
_cell_angle_gamma    89.9997

_symmetry_Int_Tables_number  12
_chemical_formula_structural  Li4Fe3CoO8
_chemical_formula_sum  Li4Fe3CoO8
_cell_volume  130.38127176764144
_cell_formula_units_Z  1
loop_
  _symmetry_equiv_pos_site_id
 _symmetry_equiv_pos_as_xyz
 1  'x, y, z'
loop_
 _atom_site_type_symbol
 _atom_site_label
 _atom_site_symmetry_multiplicity
 _atom_site_fract_x
 _atom_site_fract_y
 _atom_site_fract_z
 _atom_site_fract_occupancy
 Co  Co1  1  -0.00000  0.50000  0.50000  1
 Fe  Fe1  1  0.50000  0.75533  0.50000  1
 Fe  Fe2  1  0.50000  0.24467  0.50000  1
 Fe  Fe3  1  -0.00000  -0.00000  0.50000  1
 Li  Li1  1  0.50366  0.25267  0.00535  1
 Li  Li2  1  0.49634  0.74733  0.99465  1
 Li  Li3  1  0.00000  0.50000  -0.00000  1
 Li  Li4  1  0.00000  0.00000  0.00000  1
 O  O1  1  0.75955  0.13853  0.27804  1
 O  O2  1  0.75955  0.63951  0.27804  1
 O  O3  1  0.74651  0.11538  0.73075  1
 O  O4  1  0.73676  0.60848  0.71696  1
 O  O5  1  0.26324  0.39152  0.28304  1
 O  O6  1  0.25349  0.88462  0.26925  1
 O  O7  1  0.24045  0.36049  0.72196  1
 O  O8  1  0.24045  0.86147  0.72196  1
