CIF file written using JARVIS-Tools package.
data_NClO4
_symmetry_space_group_name_H-M  'F-43m'
_cell_length_a       5.29779
_cell_length_b       5.29779
_cell_length_c       5.29779
_cell_angle_alpha    60
_cell_angle_beta     60
_cell_angle_gamma    60

_symmetry_Int_Tables_number  216
_chemical_formula_structural  NClO4
_chemical_formula_sum  NClO4
_cell_volume  105.140327682298
_cell_formula_units_Z  1
loop_
  _symmetry_equiv_pos_site_id
 _symmetry_equiv_pos_as_xyz
 1  'x, y, z'
loop_
 _atom_site_type_symbol
 _atom_site_label
 _atom_site_symmetry_multiplicity
 _atom_site_fract_x
 _atom_site_fract_y
 _atom_site_fract_z
 _atom_site_fract_occupancy
 Cl  Cl1  1  0.00000  0.00000  0.00000  1
 N  N1  1  0.50000  0.50000  0.50000  1
 O  O1  1  0.33619  0.88794  0.88794  1
 O  O2  1  0.88794  0.33619  0.88794  1
 O  O3  1  0.88794  0.88794  0.33619  1
 O  O4  1  0.88794  0.88794  0.88794  1
