CIF file written using JARVIS-Tools package.
data_LiMnF4
_symmetry_space_group_name_H-M  'Cmmm'
_cell_length_a       6.28564
_cell_length_b       6.30518
_cell_length_c       6.55503
_cell_angle_alpha    90
_cell_angle_beta     90
_cell_angle_gamma    90

_symmetry_Int_Tables_number  65
_chemical_formula_structural  LiMnF4
_chemical_formula_sum  Li4Mn4F6
_cell_volume  259.78926238836647
_cell_formula_units_Z  4
loop_
  _symmetry_equiv_pos_site_id
 _symmetry_equiv_pos_as_xyz
 1  'x, y, z'
loop_
 _atom_site_type_symbol
 _atom_site_label
 _atom_site_symmetry_multiplicity
 _atom_site_fract_x
 _atom_site_fract_y
 _atom_site_fract_z
 _atom_site_fract_occupancy
 F  F1  1  0.74995  0.75000  0.44574  1
 F  F2  1  0.00000  0.95978  0.74992  1
 F  F3  1  0.00000  0.54022  0.74992  1
 F  F4  1  0.24995  0.75000  0.05426  1
 F  F5  1  1.00000  0.45978  0.25008  1
 F  F6  1  0.25006  0.75000  0.44574  1
 F  F7  1  0.25005  0.25000  0.55426  1
 F  F8  1  0.24994  0.25000  0.94574  1
 F  F9  1  0.50000  0.45978  0.24992  1
 F  F10  1  0.50000  0.95978  0.75008  1
 F  F11  1  0.50000  0.54022  0.75008  1
 F  F12  1  1.00000  0.04022  0.25008  1
 F  F13  1  0.74994  0.25000  0.55426  1
 F  F14  1  0.75006  0.75000  0.05426  1
 F  F15  1  0.75005  0.25000  0.94574  1
 F  F16  1  0.50000  0.04022  0.24992  1
 Li  Li1  1  0.75002  0.75000  0.74997  1
 Li  Li2  1  0.74998  0.25000  0.24997  1
 Li  Li3  1  0.25002  0.75000  0.75003  1
 Li  Li4  1  0.24998  0.25000  0.25003  1
 Mn  Mn1  1  0.00001  0.75000  0.25008  1
 Mn  Mn2  1  0.49999  0.25000  0.75008  1
 Mn  Mn3  1  0.50001  0.75000  0.24992  1
 Mn  Mn4  1  -0.00001  0.25000  0.74992  1
