CIF file written using JARVIS-Tools package.
data_CaAlBO4
_symmetry_space_group_name_H-M  'Ccc2'
_cell_length_a       5.79987
_cell_length_b       8.29147
_cell_length_c       8.68424
_cell_angle_alpha    118.515
_cell_angle_beta     90
_cell_angle_gamma    90

_symmetry_Int_Tables_number  37
_chemical_formula_structural  CaAlBO4
_chemical_formula_sum  Ca4Al4B4O6
_cell_volume  366.9599001100201
_cell_formula_units_Z  4
loop_
  _symmetry_equiv_pos_site_id
 _symmetry_equiv_pos_as_xyz
 1  'x, y, z'
loop_
 _atom_site_type_symbol
 _atom_site_label
 _atom_site_symmetry_multiplicity
 _atom_site_fract_x
 _atom_site_fract_y
 _atom_site_fract_z
 _atom_site_fract_occupancy
 Al  Al1  1  0.73941  0.27882  0.58787  1
 Al  Al2  1  0.73941  0.72118  0.41213  1
 Al  Al3  1  0.23941  0.69094  0.41213  1
 Al  Al4  1  0.23941  0.30906  0.58787  1
 B  B1  1  0.97491  0.37220  0.21895  1
 B  B2  1  0.47491  0.15325  0.78105  1
 B  B3  1  0.97491  0.62780  0.78105  1
 B  B4  1  0.47491  0.84675  0.21895  1
 Ca  Ca1  1  0.01133  0.94992  0.18538  1
 Ca  Ca2  1  0.01133  0.05008  0.81462  1
 Ca  Ca3  1  0.51133  0.76454  0.81462  1
 Ca  Ca4  1  0.51133  0.23546  0.18538  1
 O  O1  1  0.69247  0.82933  0.27737  1
 O  O2  1  0.77950  0.48252  0.26381  1
 O  O3  1  0.27950  0.78129  0.26381  1
 O  O4  1  0.19247  0.44805  0.27737  1
 O  O5  1  0.19247  0.55195  0.72263  1
 O  O6  1  0.69247  0.17067  0.72263  1
 O  O7  1  0.99317  0.79949  0.53439  1
 O  O8  1  0.94291  0.81225  0.88455  1
 O  O9  1  0.27950  0.21871  0.73619  1
 O  O10  1  0.99317  0.20051  0.46561  1
 O  O11  1  0.44291  0.07230  0.88455  1
 O  O12  1  0.49317  0.26510  0.46561  1
 O  O13  1  0.49317  0.73490  0.53439  1
 O  O14  1  0.77950  0.51748  0.73619  1
 O  O15  1  0.44291  0.92770  0.11545  1
 O  O16  1  0.94291  0.18775  0.11545  1
