CIF file written using JARVIS-Tools package.
data_RbMnO2
_symmetry_space_group_name_H-M  'P-1'
_cell_length_a       6.54305
_cell_length_b       7.71778
_cell_length_c       8.52768
_cell_angle_alpha    77.5039
_cell_angle_beta     88.8807
_cell_angle_gamma    78.9856

_symmetry_Int_Tables_number  2
_chemical_formula_structural  RbMnO2
_chemical_formula_sum  Rb6Mn6O2
_cell_volume  412.5766908760889
_cell_formula_units_Z  6
loop_
  _symmetry_equiv_pos_site_id
 _symmetry_equiv_pos_as_xyz
 1  'x, y, z'
loop_
 _atom_site_type_symbol
 _atom_site_label
 _atom_site_symmetry_multiplicity
 _atom_site_fract_x
 _atom_site_fract_y
 _atom_site_fract_z
 _atom_site_fract_occupancy
 Mn  Mn1  1  0.59979  0.32514  0.44986  1
 Mn  Mn2  1  0.58286  0.31907  0.78485  1
 Mn  Mn3  1  0.59762  0.32086  0.11751  1
 Mn  Mn4  1  0.40238  0.67914  0.88249  1
 Mn  Mn5  1  0.40021  0.67486  0.55014  1
 Mn  Mn6  1  0.41714  0.68093  0.21515  1
 O  O1  1  0.39678  0.37115  0.27782  1
 O  O2  1  0.77331  0.22913  0.96275  1
 O  O3  1  0.77200  0.22053  0.63722  1
 O  O4  1  0.60322  0.62885  0.72218  1
 O  O5  1  0.38810  0.38185  0.94482  1
 O  O6  1  0.61108  0.61565  0.39496  1
 O  O7  1  0.22669  0.77087  0.03725  1
 O  O8  1  0.79049  0.23694  0.29840  1
 O  O9  1  0.61190  0.61815  0.05518  1
 O  O10  1  0.38892  0.38435  0.60504  1
 O  O11  1  0.20951  0.76306  0.70160  1
 O  O12  1  0.22800  0.77947  0.36278  1
 Rb  Rb1  1  0.98255  0.54347  0.23527  1
 Rb  Rb2  1  0.17726  0.12611  0.53051  1
 Rb  Rb3  1  0.01745  0.45653  0.76473  1
 Rb  Rb4  1  0.82274  0.87389  0.46949  1
 Rb  Rb5  1  0.84159  0.88686  0.88150  1
 Rb  Rb6  1  0.15841  0.11314  0.11850  1
