CIF file written using JARVIS-Tools package.
data_SrZrSi2O7
_symmetry_space_group_name_H-M  'P2_1/c'
_cell_length_a       7.81892
_cell_length_b       8.11525
_cell_length_c       10.167
_cell_angle_alpha    90
_cell_angle_beta     111.849
_cell_angle_gamma    90

_symmetry_Int_Tables_number  14
_chemical_formula_structural  SrZrSi2O7
_chemical_formula_sum  Sr4Zr4Si8O28
_cell_volume  598.7835209252308
_cell_formula_units_Z  4
loop_
  _symmetry_equiv_pos_site_id
 _symmetry_equiv_pos_as_xyz
 1  'x, y, z'
loop_
 _atom_site_type_symbol
 _atom_site_label
 _atom_site_symmetry_multiplicity
 _atom_site_fract_x
 _atom_site_fract_y
 _atom_site_fract_z
 _atom_site_fract_occupancy
 O  O1  1  0.19211  0.23128  0.12583  1
 O  O2  1  0.36888  0.59374  0.59341  1
 O  O3  1  0.36888  0.90626  0.09341  1
 O  O4  1  0.63112  0.40626  0.40659  1
 O  O5  1  0.69585  0.29349  0.12682  1
 O  O6  1  0.30415  0.79349  0.37318  1
 O  O7  1  0.30415  0.70651  0.87318  1
 O  O8  1  0.69585  0.20651  0.62682  1
 O  O9  1  0.52516  0.40952  0.85046  1
 O  O10  1  0.86837  0.34591  0.93934  1
 O  O11  1  0.19211  0.26872  0.62583  1
 O  O12  1  0.52516  0.09048  0.35046  1
 O  O13  1  0.17283  0.36661  0.88213  1
 O  O14  1  0.82717  0.86661  0.61787  1
 O  O15  1  0.82717  0.63339  0.11787  1
 O  O16  1  0.17283  0.13339  0.38213  1
 O  O17  1  0.86837  0.15409  0.43934  1
 O  O18  1  0.13163  0.65409  0.06066  1
 O  O19  1  0.13163  0.84591  0.56066  1
 O  O20  1  0.47484  0.90952  0.64954  1
 O  O21  1  0.63112  0.09374  0.90659  1
 O  O22  1  0.80789  0.76872  0.87417  1
 O  O23  1  0.01224  0.42148  0.37080  1
 O  O24  1  0.98776  0.92148  0.12920  1
 O  O25  1  0.98776  0.57852  0.62920  1
 O  O26  1  0.01224  0.07852  0.87080  1
 O  O27  1  0.80789  0.73128  0.37417  1
 O  O28  1  0.47484  0.59048  0.14954  1
 Si  Si1  1  0.06621  0.24693  0.45853  1
 Si  Si2  1  0.93379  0.74693  0.04147  1
 Si  Si3  1  0.67520  0.21339  0.46120  1
 Si  Si4  1  0.93379  0.75307  0.54147  1
 Si  Si5  1  0.32480  0.78661  0.53880  1
 Si  Si6  1  0.67520  0.28661  0.96120  1
 Si  Si7  1  0.06621  0.25307  0.95853  1
 Si  Si8  1  0.32480  0.71339  0.03880  1
 Sr  Sr1  1  0.71658  0.51784  0.70531  1
 Sr  Sr2  1  0.28342  0.01784  0.79469  1
 Sr  Sr3  1  0.71658  0.98216  0.20531  1
 Sr  Sr4  1  0.28342  0.48216  0.29469  1
 Zr  Zr1  1  0.25671  0.01080  0.24479  1
 Zr  Zr2  1  0.74329  0.51080  0.25521  1
 Zr  Zr3  1  0.74329  0.98920  0.75521  1
 Zr  Zr4  1  0.25671  0.48920  0.74479  1
