CIF file written using JARVIS-Tools package.
data_Th2Pd
_symmetry_space_group_name_H-M  'I4/mcm'
_cell_length_a       5.97752
_cell_length_b       6.00257
_cell_length_c       6.00257
_cell_angle_alpha    75.6456
_cell_angle_beta     60.1379
_cell_angle_gamma    60.1379

_symmetry_Int_Tables_number  140
_chemical_formula_structural  Th2Pd
_chemical_formula_sum  Th4Pd2
_cell_volume  161.97960535954826
_cell_formula_units_Z  2
loop_
  _symmetry_equiv_pos_site_id
 _symmetry_equiv_pos_as_xyz
 1  'x, y, z'
loop_
 _atom_site_type_symbol
 _atom_site_label
 _atom_site_symmetry_multiplicity
 _atom_site_fract_x
 _atom_site_fract_y
 _atom_site_fract_z
 _atom_site_fract_occupancy
 Pd  Pd1  1  0.25000  0.00000  0.00000  1
 Pd  Pd2  1  0.75000  0.00000  0.00000  1
 Th  Th1  1  0.16226  0.50000  0.17549  1
 Th  Th2  1  0.33774  0.82451  0.50000  1
 Th  Th3  1  0.66226  0.17549  0.50000  1
 Th  Th4  1  0.83774  0.50000  0.82451  1
