CIF file written using JARVIS-Tools package.
data_Fe4OF7
_symmetry_space_group_name_H-M  'C2/m'
_cell_length_a       9.14655
_cell_length_b       5.73901
_cell_length_c       5.73901
_cell_angle_alpha    73.9754
_cell_angle_beta     86.6997
_cell_angle_gamma    86.6997

_symmetry_Int_Tables_number  12
_chemical_formula_structural  Fe4OF7
_chemical_formula_sum  Fe8O2F4
_cell_volume  288.79389316210205
_cell_formula_units_Z  2
loop_
  _symmetry_equiv_pos_site_id
 _symmetry_equiv_pos_as_xyz
 1  'x, y, z'
loop_
 _atom_site_type_symbol
 _atom_site_label
 _atom_site_symmetry_multiplicity
 _atom_site_fract_x
 _atom_site_fract_y
 _atom_site_fract_z
 _atom_site_fract_occupancy
 F  F1  1  0.49504  0.78939  0.19164  1
 F  F2  1  0.75000  0.55386  0.94614  1
 F  F3  1  0.25000  0.45704  0.04296  1
 F  F4  1  0.75000  0.94614  0.55386  1
 F  F5  1  0.23017  0.98111  0.98111  1
 F  F6  1  0.47641  0.70893  0.70893  1
 F  F7  1  0.49504  0.19164  0.78939  1
 F  F8  1  0.26983  0.51889  0.51889  1
 F  F9  1  0.02359  0.79107  0.79107  1
 F  F10  1  0.77220  0.01684  0.01684  1
 F  F11  1  0.25000  0.04296  0.45704  1
 F  F12  1  0.00496  0.71061  0.30836  1
 F  F13  1  0.00496  0.30836  0.71061  1
 F  F14  1  0.72780  0.48316  0.48316  1
 Fe  Fe1  1  0.00144  0.02441  0.02441  1
 Fe  Fe2  1  0.38733  0.13493  0.13493  1
 Fe  Fe3  1  0.11267  0.36507  0.36507  1
 Fe  Fe4  1  0.75000  0.25000  0.25000  1
 Fe  Fe5  1  0.25000  0.75000  0.75000  1
 Fe  Fe6  1  0.49856  0.47559  0.47559  1
 Fe  Fe7  1  0.88032  0.63067  0.63067  1
 Fe  Fe8  1  0.61968  0.86933  0.86933  1
 O  O1  1  0.53496  0.26700  0.26700  1
 O  O2  1  0.96504  0.23300  0.23300  1
