CIF file written using JARVIS-Tools package.
data_Mg6SiGe2
_symmetry_space_group_name_H-M  'Immm'
_cell_length_a       7.80785
_cell_length_b       7.80785
_cell_length_c       7.80785
_cell_angle_alpha    146.448
_cell_angle_beta     131.813
_cell_angle_gamma    59.9946

_symmetry_Int_Tables_number  71
_chemical_formula_structural  Mg6SiGe2
_chemical_formula_sum  Mg6SiGe2
_cell_volume  194.2876255885219
_cell_formula_units_Z  1
loop_
  _symmetry_equiv_pos_site_id
 _symmetry_equiv_pos_as_xyz
 1  'x, y, z'
loop_
 _atom_site_type_symbol
 _atom_site_label
 _atom_site_symmetry_multiplicity
 _atom_site_fract_x
 _atom_site_fract_y
 _atom_site_fract_z
 _atom_site_fract_occupancy
 Ge  Ge1  1  0.66668  0.66668  0.00000  1
 Ge  Ge2  1  0.33332  0.33332  -0.00000  1
 Mg  Mg1  1  0.75080  0.50000  0.25080  1
 Mg  Mg2  1  0.41581  0.16622  0.24958  1
 Mg  Mg3  1  0.08336  0.83378  0.24958  1
 Mg  Mg4  1  0.24920  0.50000  0.74920  1
 Mg  Mg5  1  0.91664  0.16622  0.75042  1
 Mg  Mg6  1  0.58419  0.83378  0.75042  1
 Si  Si1  1  0.00000  0.00000  0.00000  1
