CIF file written using JARVIS-Tools package.
data_Bi2O3
_symmetry_space_group_name_H-M  'P-1'
_cell_length_a       4.33596
_cell_length_b       8.76919
_cell_length_c       7.2018
_cell_angle_alpha    23.1091
_cell_angle_beta     52.4603
_cell_angle_gamma    59.9876

_symmetry_Int_Tables_number  2
_chemical_formula_structural  Bi2O3
_chemical_formula_sum  Bi2O3
_cell_volume  83.60883481483185
_cell_formula_units_Z  1
loop_
  _symmetry_equiv_pos_site_id
 _symmetry_equiv_pos_as_xyz
 1  'x, y, z'
loop_
 _atom_site_type_symbol
 _atom_site_label
 _atom_site_symmetry_multiplicity
 _atom_site_fract_x
 _atom_site_fract_y
 _atom_site_fract_z
 _atom_site_fract_occupancy
 Bi  Bi1  1  0.94497  0.16514  -0.16358  1
 Bi  Bi2  1  0.04025  0.43487  0.03514  1
 O  O1  1  0.29888  0.07180  0.11902  1
 O  O2  1  -0.00746  0.79999  0.93584  1
 O  O3  1  0.68636  0.52820  0.75258  1
