CIF file written using JARVIS-Tools package.
data_TlFeS2
_symmetry_space_group_name_H-M  'C2/m'
_cell_length_a       5.08494
_cell_length_b       6.30176
_cell_length_c       6.72524
_cell_angle_alpha    114.093
_cell_angle_beta     90
_cell_angle_gamma    113.794

_symmetry_Int_Tables_number  12
_chemical_formula_structural  TlFeS2
_chemical_formula_sum  Tl2Fe2S4
_cell_volume  176.47485245613697
_cell_formula_units_Z  2
loop_
  _symmetry_equiv_pos_site_id
 _symmetry_equiv_pos_as_xyz
 1  'x, y, z'
loop_
 _atom_site_type_symbol
 _atom_site_label
 _atom_site_symmetry_multiplicity
 _atom_site_fract_x
 _atom_site_fract_y
 _atom_site_fract_z
 _atom_site_fract_occupancy
 Fe  Fe1  1  0.25050  0.00000  0.00000  1
 Fe  Fe2  1  0.74950  0.00000  0.00000  1
 S  S1  1  0.33700  0.67400  0.92355  1
 S  S2  1  0.66300  0.32600  0.07645  1
 S  S3  1  0.03138  0.06276  0.27372  1
 S  S4  1  0.96862  0.93724  0.72628  1
 Tl  Tl1  1  0.67725  0.35449  0.63153  1
 Tl  Tl2  1  0.32275  0.64551  0.36847  1
