CIF file written using JARVIS-Tools package.
data_Mg2Sb
_symmetry_space_group_name_H-M  'P-6m2'
_cell_length_a       3.57102
_cell_length_b       3.57103
_cell_length_c       13.7718
_cell_angle_alpha    90
_cell_angle_beta     90
_cell_angle_gamma    120

_symmetry_Int_Tables_number  187
_chemical_formula_structural  Mg2Sb
_chemical_formula_sum  Mg4Sb2
_cell_volume  152.09166610152116
_cell_formula_units_Z  2
loop_
  _symmetry_equiv_pos_site_id
 _symmetry_equiv_pos_as_xyz
 1  'x, y, z'
loop_
 _atom_site_type_symbol
 _atom_site_label
 _atom_site_symmetry_multiplicity
 _atom_site_fract_x
 _atom_site_fract_y
 _atom_site_fract_z
 _atom_site_fract_occupancy
 Mg  Mg1  1  0.00000  0.00000  0.50000  1
 Mg  Mg2  1  0.66667  0.33333  0.32614  1
 Mg  Mg3  1  0.66667  0.33333  0.00000  1
 Mg  Mg4  1  0.66667  0.33333  0.67386  1
 Sb  Sb1  1  0.00000  0.00000  0.15958  1
 Sb  Sb2  1  0.00000  0.00000  0.84042  1
