CIF file written using JARVIS-Tools package.
data_SrC2S2N2
_symmetry_space_group_name_H-M  'C2/c'
_cell_length_a       5.96166
_cell_length_b       5.96166
_cell_length_c       8.04057
_cell_angle_alpha    88.6975
_cell_angle_beta     88.6975
_cell_angle_gamma    67.2336

_symmetry_Int_Tables_number  15
_chemical_formula_structural  SrC2S2N2
_chemical_formula_sum  Sr2C4S4N4
_cell_volume  263.40990127133546
_cell_formula_units_Z  2
loop_
  _symmetry_equiv_pos_site_id
 _symmetry_equiv_pos_as_xyz
 1  'x, y, z'
loop_
 _atom_site_type_symbol
 _atom_site_label
 _atom_site_symmetry_multiplicity
 _atom_site_fract_x
 _atom_site_fract_y
 _atom_site_fract_z
 _atom_site_fract_occupancy
 C  C1  1  0.75326  0.48648  0.10162  1
 C  C2  1  0.48648  0.75326  0.60162  1
 C  C3  1  0.24674  0.51352  0.89838  1
 C  C4  1  0.51352  0.24674  0.39838  1
 N  N1  1  0.83536  0.28377  0.05264  1
 N  N2  1  0.28377  0.83536  0.55264  1
 N  N3  1  0.71623  0.16464  0.44736  1
 N  N4  1  0.16464  0.71623  0.94736  1
 S  S1  1  0.35365  0.23768  0.82960  1
 S  S2  1  0.76232  0.64635  0.67040  1
 S  S3  1  0.64635  0.76232  0.17040  1
 S  S4  1  0.23768  0.35365  0.32960  1
 Sr  Sr1  1  0.90790  0.09210  0.75000  1
 Sr  Sr2  1  0.09210  0.90790  0.25000  1
