CIF file written using JARVIS-Tools package.
data_K3B12H12Br
_symmetry_space_group_name_H-M  'R-3m'
_cell_length_a       6.79641
_cell_length_b       6.79641
_cell_length_c       6.7964
_cell_angle_alpha    93.5516
_cell_angle_beta     93.5517
_cell_angle_gamma    93.5516

_symmetry_Int_Tables_number  166
_chemical_formula_structural  K3B12H12Br
_chemical_formula_sum  K3B2H2Br
_cell_volume  312.0463689966585
_cell_formula_units_Z  1
loop_
  _symmetry_equiv_pos_site_id
 _symmetry_equiv_pos_as_xyz
 1  'x, y, z'
loop_
 _atom_site_type_symbol
 _atom_site_label
 _atom_site_symmetry_multiplicity
 _atom_site_fract_x
 _atom_site_fract_y
 _atom_site_fract_z
 _atom_site_fract_occupancy
 B  B1  1  0.93778  0.75894  0.93778  1
 B  B2  1  0.06222  0.24106  0.06222  1
 B  B3  1  0.93778  0.93778  0.75894  1
 B  B4  1  0.87392  0.87392  0.16453  1
 B  B5  1  0.87392  0.16453  0.87392  1
 B  B6  1  0.83547  0.12608  0.12608  1
 B  B7  1  0.12608  0.12608  0.83547  1
 B  B8  1  0.12608  0.83547  0.12608  1
 B  B9  1  0.06222  0.06222  0.24106  1
 B  B10  1  0.16453  0.87392  0.87392  1
 B  B11  1  0.24106  0.06222  0.06222  1
 B  B12  1  0.75894  0.93778  0.93778  1
 Br  Br1  1  0.50000  0.50000  0.50000  1
 H  H1  1  0.78203  0.78203  0.27873  1
 H  H2  1  0.27873  0.78203  0.78203  1
 H  H3  1  0.72127  0.21797  0.21797  1
 H  H4  1  0.21797  0.21797  0.72127  1
 H  H5  1  0.21797  0.72127  0.21797  1
 H  H6  1  0.89248  0.89248  0.58815  1
 H  H7  1  0.41185  0.10752  0.10752  1
 H  H8  1  0.58815  0.89248  0.89248  1
 H  H9  1  0.10752  0.10752  0.41185  1
 H  H10  1  0.10752  0.41185  0.10752  1
 H  H11  1  0.78203  0.27873  0.78203  1
 H  H12  1  0.89248  0.58815  0.89248  1
 K  K1  1  -0.00000  0.50000  0.50000  1
 K  K2  1  0.50000  -0.00000  0.50000  1
 K  K3  1  0.50000  0.50000  0.00000  1
