CIF file written using JARVIS-Tools package.
data_CeCoGe3
_symmetry_space_group_name_H-M  'I4mm'
_cell_length_a       4.32432
_cell_length_b       4.32432
_cell_length_c       5.76957
_cell_angle_alpha    112.009
_cell_angle_beta     112.009
_cell_angle_gamma    90

_symmetry_Int_Tables_number  107
_chemical_formula_structural  CeCoGe3
_chemical_formula_sum  CeCoGe3
_cell_volume  91.49130944150153
_cell_formula_units_Z  1
loop_
  _symmetry_equiv_pos_site_id
 _symmetry_equiv_pos_as_xyz
 1  'x, y, z'
loop_
 _atom_site_type_symbol
 _atom_site_label
 _atom_site_symmetry_multiplicity
 _atom_site_fract_x
 _atom_site_fract_y
 _atom_site_fract_z
 _atom_site_fract_occupancy
 Ce  Ce1  1  0.99426  0.99426  0.98852  1
 Co  Co1  1  0.66739  0.66739  0.33478  1
 Ge  Ge1  1  0.43433  0.43433  0.86865  1
 Ge  Ge2  1  0.25686  0.75686  0.51372  1
 Ge  Ge3  1  0.75686  0.25686  0.51372  1
