CIF file written using JARVIS-Tools package.
data_PSN9
_symmetry_space_group_name_H-M  'P2_1/c'
_cell_length_a       6.13245
_cell_length_b       14.8899
_cell_length_c       7.68879
_cell_angle_alpha    90
_cell_angle_beta     98.1582
_cell_angle_gamma    90

_symmetry_Int_Tables_number  14
_chemical_formula_structural  PSN9
_chemical_formula_sum  P4S4N36
_cell_volume  694.9690691459391
_cell_formula_units_Z  4
loop_
  _symmetry_equiv_pos_site_id
 _symmetry_equiv_pos_as_xyz
 1  'x, y, z'
loop_
 _atom_site_type_symbol
 _atom_site_label
 _atom_site_symmetry_multiplicity
 _atom_site_fract_x
 _atom_site_fract_y
 _atom_site_fract_z
 _atom_site_fract_occupancy
 N  N1  1  0.76827  0.13046  0.25198  1
 N  N2  1  0.66683  0.78671  0.53783  1
 N  N3  1  0.81475  0.75527  0.64637  1
 N  N4  1  0.18525  0.24473  0.35363  1
 N  N5  1  0.98399  0.13365  0.67611  1
 N  N6  1  0.01601  0.63365  0.82389  1
 N  N7  1  0.01601  0.86635  0.32389  1
 N  N8  1  0.98399  0.36635  0.17611  1
 N  N9  1  0.87439  0.06563  0.63244  1
 N  N10  1  0.15950  0.82709  0.03123  1
 N  N11  1  0.12561  0.56563  0.86756  1
 N  N12  1  0.87439  0.43437  0.13244  1
 N  N13  1  0.77309  0.00520  0.57772  1
 N  N14  1  0.22691  0.50520  0.92228  1
 N  N15  1  0.22691  0.99480  0.42228  1
 N  N16  1  0.77309  0.49480  0.07772  1
 N  N17  1  0.18525  0.25527  0.85363  1
 N  N18  1  0.23173  0.86954  0.74802  1
 N  N19  1  0.81475  0.74473  0.14637  1
 N  N20  1  0.12561  0.93437  0.36756  1
 N  N21  1  0.23173  0.63046  0.24802  1
 N  N22  1  0.76827  0.36954  0.75198  1
 N  N23  1  0.81229  0.35005  0.61786  1
 N  N24  1  0.33317  0.21329  0.46217  1
 N  N25  1  0.47024  0.32016  0.05544  1
 N  N26  1  0.33317  0.28671  0.96217  1
 N  N27  1  0.52976  0.67984  0.94456  1
 N  N28  1  0.47024  0.17984  0.55544  1
 N  N29  1  0.84050  0.17291  0.96877  1
 N  N30  1  0.52976  0.82016  0.44456  1
 N  N31  1  0.18771  0.64995  0.38214  1
 N  N32  1  0.84050  0.32709  0.46877  1
 N  N33  1  0.81229  0.14995  0.11786  1
 N  N34  1  0.66683  0.71329  0.03783  1
 N  N35  1  0.18771  0.85005  0.88214  1
 N  N36  1  0.15950  0.67291  0.53123  1
 P  P1  1  0.08208  0.34796  0.39015  1
 P  P2  1  0.91792  0.84796  0.10985  1
 P  P3  1  0.91792  0.65204  0.60985  1
 P  P4  1  0.08208  0.15204  0.89015  1
 S  S1  1  0.28176  0.43098  0.51922  1
 S  S2  1  0.71824  0.93098  0.98078  1
 S  S3  1  0.71824  0.56902  0.48078  1
 S  S4  1  0.28176  0.06902  0.01922  1
