CIF file written using JARVIS-Tools package.
data_C2SO4F4
_symmetry_space_group_name_H-M  'P2_1/c'
_cell_length_a       6.19574
_cell_length_b       8.64468
_cell_length_c       10.8869
_cell_angle_alpha    107.662
_cell_angle_beta     90
_cell_angle_gamma    90

_symmetry_Int_Tables_number  14
_chemical_formula_structural  C2SO4F4
_chemical_formula_sum  C8S4O6F6
_cell_volume  555.6186141219074
_cell_formula_units_Z  4
loop_
  _symmetry_equiv_pos_site_id
 _symmetry_equiv_pos_as_xyz
 1  'x, y, z'
loop_
 _atom_site_type_symbol
 _atom_site_label
 _atom_site_symmetry_multiplicity
 _atom_site_fract_x
 _atom_site_fract_y
 _atom_site_fract_z
 _atom_site_fract_occupancy
 C  C1  1  0.63366  0.74903  0.16104  1
 C  C2  1  0.71511  0.66202  0.56243  1
 C  C3  1  0.36634  0.25097  0.83896  1
 C  C4  1  0.78489  0.16202  0.56243  1
 C  C5  1  0.86634  0.24903  0.16104  1
 C  C6  1  0.28489  0.33798  0.43757  1
 C  C7  1  0.13366  0.75097  0.83896  1
 C  C8  1  0.21511  0.83798  0.43757  1
 F  F1  1  0.09853  0.60458  0.85321  1
 F  F2  1  0.20917  0.24410  0.75372  1
 F  F3  1  0.40147  0.10458  0.85321  1
 F  F4  1  0.79083  0.75590  0.24628  1
 F  F5  1  0.68392  0.64101  0.04693  1
 F  F6  1  0.26473  0.47937  0.53060  1
 F  F7  1  0.76473  0.02063  0.46940  1
 F  F8  1  0.90147  0.39542  0.14679  1
 F  F9  1  0.23527  0.97937  0.53060  1
 F  F10  1  0.31608  0.35899  0.95307  1
 F  F11  1  0.81608  0.14101  0.04693  1
 F  F12  1  0.29083  0.74410  0.75372  1
 F  F13  1  0.18392  0.85899  0.95307  1
 F  F14  1  0.70917  0.25590  0.24628  1
 F  F15  1  0.59853  0.89542  0.14679  1
 F  F16  1  0.73527  0.52063  0.46940  1
 O  O1  1  0.06243  0.03424  0.25767  1
 O  O2  1  0.20871  0.67299  0.13319  1
 O  O3  1  0.41624  0.23662  0.43652  1
 O  O4  1  0.56243  0.46576  0.74233  1
 O  O5  1  0.13300  0.33563  0.34744  1
 O  O6  1  0.63300  0.16437  0.65256  1
 O  O7  1  0.70871  0.82701  0.86681  1
 O  O8  1  0.58376  0.76338  0.56348  1
 O  O9  1  0.86700  0.66437  0.65256  1
 O  O10  1  0.29129  0.17299  0.13319  1
 O  O11  1  0.79129  0.32701  0.86681  1
 O  O12  1  0.93757  0.96576  0.74233  1
 O  O13  1  0.36700  0.83563  0.34744  1
 O  O14  1  0.91624  0.26338  0.56348  1
 O  O15  1  0.08376  0.73662  0.43652  1
 O  O16  1  0.43757  0.53424  0.25767  1
 S  S1  1  0.61812  0.32824  0.78167  1
 S  S2  1  0.38188  0.67176  0.21833  1
 S  S3  1  0.88188  0.82824  0.78167  1
 S  S4  1  0.11812  0.17176  0.21833  1
