CIF file written using JARVIS-Tools package.
data_CaV2O5
_symmetry_space_group_name_H-M  'Pmmn'
_cell_length_a       3.58965
_cell_length_b       4.95569
_cell_length_c       11.3612
_cell_angle_alpha    90
_cell_angle_beta     90
_cell_angle_gamma    90

_symmetry_Int_Tables_number  59
_chemical_formula_structural  CaV2O5
_chemical_formula_sum  Ca2V4O0
_cell_volume  202.10579147885224
_cell_formula_units_Z  2
loop_
  _symmetry_equiv_pos_site_id
 _symmetry_equiv_pos_as_xyz
 1  'x, y, z'
loop_
 _atom_site_type_symbol
 _atom_site_label
 _atom_site_symmetry_multiplicity
 _atom_site_fract_x
 _atom_site_fract_y
 _atom_site_fract_z
 _atom_site_fract_occupancy
 Ca  Ca1  1  0.75000  0.84760  0.25000  1
 Ca  Ca2  1  0.25000  0.15240  0.75000  1
 O  O1  1  0.75000  0.45522  0.75000  1
 O  O2  1  0.25000  0.54478  0.25000  1
 O  O3  1  0.75000  0.52947  0.07430  1
 O  O4  1  0.25000  0.47054  0.92570  1
 O  O5  1  0.75000  0.52947  0.42570  1
 O  O6  1  0.25000  0.47054  0.57430  1
 O  O7  1  0.25000  0.05154  0.37695  1
 O  O8  1  0.75000  0.94846  0.62305  1
 O  O9  1  0.75000  0.94846  0.87695  1
 O  O10  1  0.25000  0.05154  0.12305  1
 V  V1  1  0.25000  0.38463  0.09636  1
 V  V2  1  0.75000  0.61537  0.90364  1
 V  V3  1  0.75000  0.61537  0.59636  1
 V  V4  1  0.25000  0.38463  0.40364  1
