CIF file written using JARVIS-Tools package.
data_Ti3AgS6
_symmetry_space_group_name_H-M  'R-3'
_cell_length_a       7.18207
_cell_length_b       7.18208
_cell_length_c       7.18207
_cell_angle_alpha    48.9599
_cell_angle_beta     48.9598
_cell_angle_gamma    48.9599

_symmetry_Int_Tables_number  148
_chemical_formula_structural  Ti3AgS6
_chemical_formula_sum  Ti3AgS6
_cell_volume  193.4951141681315
_cell_formula_units_Z  1
loop_
  _symmetry_equiv_pos_site_id
 _symmetry_equiv_pos_as_xyz
 1  'x, y, z'
loop_
 _atom_site_type_symbol
 _atom_site_label
 _atom_site_symmetry_multiplicity
 _atom_site_fract_x
 _atom_site_fract_y
 _atom_site_fract_z
 _atom_site_fract_occupancy
 Ag  Ag1  1  0.00000  0.00000  0.00000  1
 S  S1  1  0.56905  0.24880  0.90937  1
 S  S2  1  0.90937  0.56905  0.24880  1
 S  S3  1  0.24880  0.90937  0.56905  1
 S  S4  1  0.75120  0.09063  0.43095  1
 S  S5  1  0.09063  0.43095  0.75120  1
 S  S6  1  0.43095  0.75120  0.09063  1
 Ti  Ti1  1  0.50000  0.50000  0.50000  1
 Ti  Ti2  1  0.16733  0.16733  0.16733  1
 Ti  Ti3  1  0.83267  0.83267  0.83267  1
