CIF file written using JARVIS-Tools package.
data_Li3Fe2Si2O8
_symmetry_space_group_name_H-M  'P1'
_cell_length_a       4.96584
_cell_length_b       5.39937
_cell_length_c       6.19137
_cell_angle_alpha    89.1777
_cell_angle_beta     89.7418
_cell_angle_gamma    89.3334

_symmetry_Int_Tables_number  1
_chemical_formula_structural  Li3Fe2Si2O8
_chemical_formula_sum  Li3Fe2Si2O8
_cell_volume  165.9756066879338
_cell_formula_units_Z  1
loop_
  _symmetry_equiv_pos_site_id
 _symmetry_equiv_pos_as_xyz
 1  'x, y, z'
loop_
 _atom_site_type_symbol
 _atom_site_label
 _atom_site_symmetry_multiplicity
 _atom_site_fract_x
 _atom_site_fract_y
 _atom_site_fract_z
 _atom_site_fract_occupancy
 Fe  Fe1  1  0.00880  0.82635  0.00743  1
 Fe  Fe2  1  0.49970  0.17571  0.49076  1
 Li  Li1  1  0.51074  0.66351  0.25216  1
 Li  Li2  1  0.50713  0.66814  0.75101  1
 Li  Li3  1  -0.00069  0.33134  0.74901  1
 O  O1  1  0.61462  0.87731  0.99939  1
 O  O2  1  0.16336  0.14847  0.98002  1
 O  O3  1  0.57854  0.31701  0.21322  1
 O  O4  1  0.12203  0.70605  0.28478  1
 O  O5  1  0.11702  0.11992  0.52095  1
 O  O6  1  0.66993  0.83887  0.50138  1
 O  O7  1  0.10330  0.67695  0.72542  1
 O  O8  1  0.60254  0.31589  0.77442  1
 Si  Si1  1  0.49215  0.16784  0.99536  1
 Si  Si2  1  0.00490  0.83571  0.50516  1
