CIF file written using JARVIS-Tools package.
data_NaHNO2
_symmetry_space_group_name_H-M  'Pbcm'
_cell_length_a       6.36108
_cell_length_b       9.68813
_cell_length_c       6.66707
_cell_angle_alpha    90.0019
_cell_angle_beta     90.0029
_cell_angle_gamma    90.0013

_symmetry_Int_Tables_number  57
_chemical_formula_structural  NaHNO2
_chemical_formula_sum  Na8H8N8O6
_cell_volume  410.87165815098615
_cell_formula_units_Z  8
loop_
  _symmetry_equiv_pos_site_id
 _symmetry_equiv_pos_as_xyz
 1  'x, y, z'
loop_
 _atom_site_type_symbol
 _atom_site_label
 _atom_site_symmetry_multiplicity
 _atom_site_fract_x
 _atom_site_fract_y
 _atom_site_fract_z
 _atom_site_fract_occupancy
 H  H1  1  0.82034  0.27740  0.10678  1
 H  H2  1  0.17967  0.72261  0.60679  1
 H  H3  1  0.82033  0.22261  0.89321  1
 H  H4  1  0.17966  0.77739  0.39322  1
 H  H5  1  0.17967  0.77739  0.10679  1
 H  H6  1  0.82033  0.27739  0.39321  1
 H  H7  1  0.82034  0.22261  0.60678  1
 H  H8  1  0.17966  0.72261  0.89322  1
 N  N1  1  0.38749  0.97443  0.75001  1
 N  N2  1  0.57467  0.02613  0.74999  1
 N  N3  1  0.42533  0.97387  0.25000  1
 N  N4  1  0.57467  0.47387  0.25000  1
 N  N5  1  0.42533  0.52613  0.75001  1
 N  N6  1  0.38749  0.52557  0.25001  1
 N  N7  1  0.61251  0.47444  0.74999  1
 N  N8  1  0.61251  0.02557  0.24999  1
 Na  Na1  1  0.00000  0.50000  0.50000  1
 Na  Na2  1  0.67220  0.75000  0.50000  1
 Na  Na3  1  0.67220  0.75000  1.00000  1
 Na  Na4  1  0.32780  0.25000  0.50000  1
 Na  Na5  1  1.00000  0.00000  0.00000  1
 Na  Na6  1  0.00000  -0.00000  0.50000  1
 Na  Na7  1  0.00000  0.50000  0.00000  1
 Na  Na8  1  0.32780  0.25000  0.00000  1
 O  O1  1  0.73783  0.94135  0.74999  1
 O  O2  1  0.26217  0.05865  0.25001  1
 O  O3  1  0.73783  0.55865  0.24999  1
 O  O4  1  0.26217  0.44135  0.75001  1
 O  O5  1  0.60801  0.16131  0.74999  1
 O  O6  1  0.39199  0.83869  0.25001  1
 O  O7  1  0.60801  0.33869  0.24999  1
 O  O8  1  0.76401  0.92883  0.24999  1
 O  O9  1  0.23599  0.07117  0.75001  1
 O  O10  1  0.23599  0.42882  0.25001  1
 O  O11  1  0.76401  0.57118  0.74999  1
 O  O12  1  0.92146  0.25000  0.50000  1
 O  O13  1  0.07854  0.75000  -0.00000  1
 O  O14  1  0.07854  0.75000  0.50000  1
 O  O15  1  0.39199  0.66131  0.75001  1
 O  O16  1  0.92146  0.25000  1.00000  1
