CIF file written using JARVIS-Tools package.
data_NbSbO4
_symmetry_space_group_name_H-M  'Pna2_1'
_cell_length_a       4.99096
_cell_length_b       5.62773
_cell_length_c       11.9276
_cell_angle_alpha    90
_cell_angle_beta     90
_cell_angle_gamma    90

_symmetry_Int_Tables_number  33
_chemical_formula_structural  NbSbO4
_chemical_formula_sum  Nb4Sb4O6
_cell_volume  335.01871240339244
_cell_formula_units_Z  4
loop_
  _symmetry_equiv_pos_site_id
 _symmetry_equiv_pos_as_xyz
 1  'x, y, z'
loop_
 _atom_site_type_symbol
 _atom_site_label
 _atom_site_symmetry_multiplicity
 _atom_site_fract_x
 _atom_site_fract_y
 _atom_site_fract_z
 _atom_site_fract_occupancy
 Nb  Nb1  1  0.01279  0.89485  0.00151  1
 Nb  Nb2  1  0.98721  0.10515  0.50151  1
 Nb  Nb3  1  0.48721  0.39485  0.00151  1
 Nb  Nb4  1  0.51279  0.60515  0.50151  1
 O  O1  1  0.78655  0.14431  0.04330  1
 O  O2  1  0.28655  0.35569  0.54330  1
 O  O3  1  0.71345  0.64431  0.04330  1
 O  O4  1  0.33559  0.64635  0.33900  1
 O  O5  1  0.66441  0.35365  0.83900  1
 O  O6  1  0.16441  0.14635  0.33900  1
 O  O7  1  0.83559  0.85365  0.83900  1
 O  O8  1  0.16537  0.81890  0.14991  1
 O  O9  1  0.83463  0.18110  0.64991  1
 O  O10  1  0.19648  0.57349  0.93724  1
 O  O11  1  0.33463  0.31890  0.14991  1
 O  O12  1  0.80352  0.42651  0.43724  1
 O  O13  1  0.30352  0.07349  0.93724  1
 O  O14  1  0.69648  0.92651  0.43724  1
 O  O15  1  0.21345  0.85569  0.54330  1
 O  O16  1  0.66537  0.68110  0.64991  1
 Sb  Sb1  1  0.04538  0.46298  0.25415  1
 Sb  Sb2  1  0.45462  0.96298  0.25415  1
 Sb  Sb3  1  0.54538  0.03702  0.75415  1
 Sb  Sb4  1  0.95462  0.53702  0.75415  1
