CIF file written using JARVIS-Tools package.
data_MnCoP
_symmetry_space_group_name_H-M  'Pnma'
_cell_length_a       3.46469
_cell_length_b       5.89096
_cell_length_c       6.68649
_cell_angle_alpha    90
_cell_angle_beta     90
_cell_angle_gamma    90

_symmetry_Int_Tables_number  62
_chemical_formula_structural  MnCoP
_chemical_formula_sum  Mn4Co4P4
_cell_volume  136.47348534227402
_cell_formula_units_Z  4
loop_
  _symmetry_equiv_pos_site_id
 _symmetry_equiv_pos_as_xyz
 1  'x, y, z'
loop_
 _atom_site_type_symbol
 _atom_site_label
 _atom_site_symmetry_multiplicity
 _atom_site_fract_x
 _atom_site_fract_y
 _atom_site_fract_z
 _atom_site_fract_occupancy
 Co  Co1  1  0.25000  0.35788  0.43441  1
 Co  Co2  1  0.75000  0.64212  0.56559  1
 Co  Co3  1  0.25000  0.85788  0.06559  1
 Co  Co4  1  0.75000  0.14212  0.93441  1
 Mn  Mn1  1  0.75000  0.02824  0.33274  1
 Mn  Mn2  1  0.25000  0.97176  0.66726  1
 Mn  Mn3  1  0.75000  0.52824  0.16726  1
 Mn  Mn4  1  0.25000  0.47176  0.83274  1
 P  P1  1  0.25000  0.73469  0.37461  1
 P  P2  1  0.75000  0.26531  0.62538  1
 P  P3  1  0.25000  0.23469  0.12538  1
 P  P4  1  0.75000  0.76531  0.87462  1
