CIF file written using JARVIS-Tools package.
data_NaVO3
_symmetry_space_group_name_H-M  'C2/c'
_cell_length_a       7.13443
_cell_length_b       7.13443
_cell_length_c       5.93076
_cell_angle_alpha    75.498
_cell_angle_beta     104.502
_cell_angle_gamma    97.2228

_symmetry_Int_Tables_number  15
_chemical_formula_structural  NaVO3
_chemical_formula_sum  Na4V4O2
_cell_volume  282.30631188490804
_cell_formula_units_Z  4
loop_
  _symmetry_equiv_pos_site_id
 _symmetry_equiv_pos_as_xyz
 1  'x, y, z'
loop_
 _atom_site_type_symbol
 _atom_site_label
 _atom_site_symmetry_multiplicity
 _atom_site_fract_x
 _atom_site_fract_y
 _atom_site_fract_z
 _atom_site_fract_occupancy
 Na  Na1  1  0.57672  0.59531  0.74249  1
 Na  Na2  1  0.20410  0.22270  0.74250  1
 Na  Na3  1  0.40469  0.42328  0.24249  1
 Na  Na4  1  0.77730  0.79590  0.24250  1
 O  O1  1  0.13237  0.85714  0.94543  1
 O  O2  1  0.83854  0.15099  0.53958  1
 O  O3  1  0.59619  0.90036  0.82061  1
 O  O4  1  0.26201  0.53460  0.82768  1
 O  O5  1  0.14286  0.86763  0.44543  1
 O  O6  1  0.46540  0.73799  0.32768  1
 O  O7  1  0.51598  0.28059  0.65731  1
 O  O8  1  0.71941  0.48402  0.15731  1
 O  O9  1  0.09964  0.40381  0.32061  1
 O  O10  1  0.38522  0.11823  0.16439  1
 O  O11  1  0.88177  0.61478  0.66439  1
 O  O12  1  0.84901  0.16146  0.03958  1
 V  V1  1  0.87380  0.30731  0.25831  1
 V  V2  1  0.69269  0.12620  0.75831  1
 V  V3  1  0.28871  0.89240  0.22669  1
 V  V4  1  0.10760  0.71129  0.72669  1
