CIF file written using JARVIS-Tools package.
data_ThSn2
_symmetry_space_group_name_H-M  'Cmcm'
_cell_length_a       4.42753
_cell_length_b       4.51092
_cell_length_c       8.91094
_cell_angle_alpha    104.662
_cell_angle_beta     90
_cell_angle_gamma    90

_symmetry_Int_Tables_number  63
_chemical_formula_structural  ThSn2
_chemical_formula_sum  Th2Sn4
_cell_volume  172.17614542308786
_cell_formula_units_Z  2
loop_
  _symmetry_equiv_pos_site_id
 _symmetry_equiv_pos_as_xyz
 1  'x, y, z'
loop_
 _atom_site_type_symbol
 _atom_site_label
 _atom_site_symmetry_multiplicity
 _atom_site_fract_x
 _atom_site_fract_y
 _atom_site_fract_z
 _atom_site_fract_occupancy
 Sn  Sn1  1  0.75000  0.74976  0.49952  1
 Sn  Sn2  1  0.25000  0.25024  0.50048  1
 Sn  Sn3  1  0.75000  0.43925  0.87851  1
 Sn  Sn4  1  0.25000  0.56075  0.12149  1
 Th  Th1  1  0.75000  0.10335  0.20669  1
 Th  Th2  1  0.25000  0.89665  0.79331  1
