CIF file written using JARVIS-Tools package.
data_ErHCl
_symmetry_space_group_name_H-M  'R-3m'
_cell_length_a       9.26339
_cell_length_b       9.26339
_cell_length_c       9.26339
_cell_angle_alpha    23.0146
_cell_angle_beta     23.0146
_cell_angle_gamma    23.0146

_symmetry_Int_Tables_number  166
_chemical_formula_structural  ErHCl
_chemical_formula_sum  Er2H2Cl2
_cell_volume  106.63884474048703
_cell_formula_units_Z  2
loop_
  _symmetry_equiv_pos_site_id
 _symmetry_equiv_pos_as_xyz
 1  'x, y, z'
loop_
 _atom_site_type_symbol
 _atom_site_label
 _atom_site_symmetry_multiplicity
 _atom_site_fract_x
 _atom_site_fract_y
 _atom_site_fract_z
 _atom_site_fract_occupancy
 Cl  Cl1  1  0.38805  0.38805  0.38805  1
 Cl  Cl2  1  0.61195  0.61195  0.61195  1
 Er  Er1  1  0.88313  0.88313  0.88313  1
 Er  Er2  1  0.11687  0.11687  0.11687  1
 H  H1  1  0.80306  0.80306  0.80306  1
 H  H2  1  0.19694  0.19694  0.19694  1
