CIF file written using JARVIS-Tools package.
data_Nb2ZnO6
_symmetry_space_group_name_H-M  'Pbcn'
_cell_length_a       5.08597
_cell_length_b       5.80722
_cell_length_c       14.3582
_cell_angle_alpha    90
_cell_angle_beta     90
_cell_angle_gamma    90

_symmetry_Int_Tables_number  60
_chemical_formula_structural  Nb2ZnO6
_chemical_formula_sum  Nb8Zn4O24
_cell_volume  424.0753279164898
_cell_formula_units_Z  4
loop_
  _symmetry_equiv_pos_site_id
 _symmetry_equiv_pos_as_xyz
 1  'x, y, z'
loop_
 _atom_site_type_symbol
 _atom_site_label
 _atom_site_symmetry_multiplicity
 _atom_site_fract_x
 _atom_site_fract_y
 _atom_site_fract_z
 _atom_site_fract_occupancy
 Nb  Nb1  1  0.25086  0.31619  0.65981  1
 Nb  Nb2  1  0.74914  0.68381  0.34019  1
 Nb  Nb3  1  0.24914  0.81619  0.15981  1
 Nb  Nb4  1  0.75086  0.68381  0.65981  1
 Nb  Nb5  1  0.75086  0.18381  0.84019  1
 Nb  Nb6  1  0.74914  0.18381  0.15981  1
 Nb  Nb7  1  0.24914  0.31619  0.34019  1
 Nb  Nb8  1  0.25086  0.81619  0.84019  1
 O  O1  1  0.07922  0.62193  0.74444  1
 O  O2  1  0.57922  0.87807  0.75556  1
 O  O3  1  0.42078  0.62193  0.25556  1
 O  O4  1  0.07445  0.10510  0.09506  1
 O  O5  1  0.92078  0.87807  0.24444  1
 O  O6  1  0.92555  0.89490  0.90494  1
 O  O7  1  0.58605  0.38463  0.07928  1
 O  O8  1  0.08605  0.11537  0.42072  1
 O  O9  1  0.07922  0.12193  0.75556  1
 O  O10  1  0.42555  0.60510  0.59506  1
 O  O11  1  0.57445  0.89490  0.09506  1
 O  O12  1  0.41395  0.11537  0.57928  1
 O  O13  1  0.57922  0.37807  0.74444  1
 O  O14  1  0.92555  0.39490  0.59506  1
 O  O15  1  0.07445  0.60510  0.40494  1
 O  O16  1  0.92078  0.37807  0.25556  1
 O  O17  1  0.91395  0.38463  0.92072  1
 O  O18  1  0.91395  0.88463  0.57928  1
 O  O19  1  0.41395  0.61537  0.92072  1
 O  O20  1  0.58605  0.88463  0.42072  1
 O  O21  1  0.08605  0.61537  0.07928  1
 O  O22  1  0.42555  0.10510  0.90494  1
 O  O23  1  0.42078  0.12193  0.24444  1
 O  O24  1  0.57445  0.39490  0.40494  1
 Zn  Zn1  1  0.25000  0.32857  0.00000  1
 Zn  Zn2  1  0.75000  0.67143  0.00000  1
 Zn  Zn3  1  0.25000  0.82857  0.50000  1
 Zn  Zn4  1  0.75000  0.17143  0.50000  1
