CIF file written using JARVIS-Tools package.
data_CeSi2Ir2
_symmetry_space_group_name_H-M  'I4/mmm'
_cell_length_a       4.21337
_cell_length_b       4.21337
_cell_length_c       5.83867
_cell_angle_alpha    111.15
_cell_angle_beta     111.15
_cell_angle_gamma    90

_symmetry_Int_Tables_number  139
_chemical_formula_structural  CeSi2Ir2
_chemical_formula_sum  CeSi2Ir2
_cell_volume  89.14117065948714
_cell_formula_units_Z  1
loop_
  _symmetry_equiv_pos_site_id
 _symmetry_equiv_pos_as_xyz
 1  'x, y, z'
loop_
 _atom_site_type_symbol
 _atom_site_label
 _atom_site_symmetry_multiplicity
 _atom_site_fract_x
 _atom_site_fract_y
 _atom_site_fract_z
 _atom_site_fract_occupancy
 Ce  Ce1  1  0.36480  0.36480  0.72960  1
 Ir  Ir1  1  0.99586  0.99586  0.99172  1
 Ir  Ir2  1  0.73374  0.73374  0.46748  1
 Si  Si1  1  0.61480  0.11480  0.22960  1
 Si  Si2  1  0.11480  0.61480  0.22960  1
