CIF file written using JARVIS-Tools package.
data_VNi3
_symmetry_space_group_name_H-M  'P4/mmm'
_cell_length_a       2.50293
_cell_length_b       2.50293
_cell_length_c       7.17195
_cell_angle_alpha    90
_cell_angle_beta     90
_cell_angle_gamma    90

_symmetry_Int_Tables_number  123
_chemical_formula_structural  VNi3
_chemical_formula_sum  VNi3
_cell_volume  44.92995587910263
_cell_formula_units_Z  1
loop_
  _symmetry_equiv_pos_site_id
 _symmetry_equiv_pos_as_xyz
 1  'x, y, z'
loop_
 _atom_site_type_symbol
 _atom_site_label
 _atom_site_symmetry_multiplicity
 _atom_site_fract_x
 _atom_site_fract_y
 _atom_site_fract_z
 _atom_site_fract_occupancy
 Ni  Ni1  1  0.50000  0.50000  0.74567  1
 Ni  Ni2  1  0.00000  0.00000  0.50000  1
 Ni  Ni3  1  0.50000  0.50000  0.25433  1
 V  V1  1  0.00000  0.00000  0.00000  1
