CIF file written using JARVIS-Tools package.
data_Nb3CrSe6
_symmetry_space_group_name_H-M  'P6_322'
_cell_length_a       6.06658
_cell_length_b       6.06658
_cell_length_c       12.7413
_cell_angle_alpha    90
_cell_angle_beta     90
_cell_angle_gamma    120

_symmetry_Int_Tables_number  182
_chemical_formula_structural  Nb3CrSe6
_chemical_formula_sum  Nb6Cr2Se2
_cell_volume  406.09826176337674
_cell_formula_units_Z  2
loop_
  _symmetry_equiv_pos_site_id
 _symmetry_equiv_pos_as_xyz
 1  'x, y, z'
loop_
 _atom_site_type_symbol
 _atom_site_label
 _atom_site_symmetry_multiplicity
 _atom_site_fract_x
 _atom_site_fract_y
 _atom_site_fract_z
 _atom_site_fract_occupancy
 Cr  Cr1  1  0.66667  0.33333  0.75000  1
 Cr  Cr2  1  0.33333  0.66667  0.25000  1
 Nb  Nb1  1  0.66667  0.33333  0.00001  1
 Nb  Nb2  1  0.00000  0.00000  0.00000  1
 Nb  Nb3  1  0.00000  0.00000  0.50000  1
 Nb  Nb4  1  0.66667  0.33333  0.49999  1
 Nb  Nb5  1  0.33333  0.66667  -0.00001  1
 Nb  Nb6  1  0.33333  0.66667  0.50001  1
 Se  Se1  1  0.32869  0.99541  0.86769  1
 Se  Se2  1  0.99541  0.32869  0.13231  1
 Se  Se3  1  0.66671  0.67131  0.86769  1
 Se  Se4  1  0.66671  0.99541  0.63231  1
 Se  Se5  1  0.67131  0.00459  0.36769  1
 Se  Se6  1  0.33329  0.32869  0.36769  1
 Se  Se7  1  0.00459  0.33329  0.86769  1
 Se  Se8  1  0.99541  0.66671  0.36769  1
 Se  Se9  1  0.00459  0.67131  0.63231  1
 Se  Se10  1  0.33329  0.00459  0.13231  1
 Se  Se11  1  0.32869  0.33329  0.63231  1
 Se  Se12  1  0.67131  0.66671  0.13231  1
