CIF file written using JARVIS-Tools package.
data_KPrS2
_symmetry_space_group_name_H-M  'R-3m'
_cell_length_a       7.70039
_cell_length_b       7.70039
_cell_length_c       7.7004
_cell_angle_alpha    31.7575
_cell_angle_beta     31.7575
_cell_angle_gamma    31.7576

_symmetry_Int_Tables_number  166
_chemical_formula_structural  KPrS2
_chemical_formula_sum  KPrS2
_cell_volume  112.3405930873081
_cell_formula_units_Z  1
loop_
  _symmetry_equiv_pos_site_id
 _symmetry_equiv_pos_as_xyz
 1  'x, y, z'
loop_
 _atom_site_type_symbol
 _atom_site_label
 _atom_site_symmetry_multiplicity
 _atom_site_fract_x
 _atom_site_fract_y
 _atom_site_fract_z
 _atom_site_fract_occupancy
 K  K1  1  0.50000  0.50000  0.50000  1
 Pr  Pr1  1  0.00000  0.00000  0.00000  1
 S  S1  1  0.73753  0.73753  0.73753  1
 S  S2  1  0.26247  0.26247  0.26247  1
