CIF file written using JARVIS-Tools package.
data_Sm2Cr2C3
_symmetry_space_group_name_H-M  'C2/m'
_cell_length_a       3.48717
_cell_length_b       5.45554
_cell_length_c       5.69548
_cell_angle_alpha    104.436
_cell_angle_beta     90
_cell_angle_gamma    108.639

_symmetry_Int_Tables_number  12
_chemical_formula_structural  Sm2Cr2C3
_chemical_formula_sum  Sm2Cr2C3
_cell_volume  99.05315287092273
_cell_formula_units_Z  1
loop_
  _symmetry_equiv_pos_site_id
 _symmetry_equiv_pos_as_xyz
 1  'x, y, z'
loop_
 _atom_site_type_symbol
 _atom_site_label
 _atom_site_symmetry_multiplicity
 _atom_site_fract_x
 _atom_site_fract_y
 _atom_site_fract_z
 _atom_site_fract_occupancy
 C  C1  1  0.29474  0.58947  0.71789  1
 C  C2  1  0.70526  0.41053  0.28211  1
 C  C3  1  -0.00000  0.00000  0.50000  1
 Cr  Cr1  1  0.15907  0.31813  0.39634  1
 Cr  Cr2  1  0.84093  0.68187  0.60366  1
 Sm  Sm1  1  0.39833  0.79666  0.18183  1
 Sm  Sm2  1  0.60167  0.20334  0.81817  1
