CIF file written using JARVIS-Tools package.
data_Mn3N2
_symmetry_space_group_name_H-M  'I4/mmm'
_cell_length_a       2.85725
_cell_length_b       2.85725
_cell_length_c       6.29949
_cell_angle_alpha    103.108
_cell_angle_beta     103.108
_cell_angle_gamma    90

_symmetry_Int_Tables_number  139
_chemical_formula_structural  Mn3N2
_chemical_formula_sum  Mn3N2
_cell_volume  48.71158411467497
_cell_formula_units_Z  1
loop_
  _symmetry_equiv_pos_site_id
 _symmetry_equiv_pos_as_xyz
 1  'x, y, z'
loop_
 _atom_site_type_symbol
 _atom_site_label
 _atom_site_symmetry_multiplicity
 _atom_site_fract_x
 _atom_site_fract_y
 _atom_site_fract_z
 _atom_site_fract_occupancy
 Mn  Mn1  1  0.00000  0.00000  0.00000  1
 Mn  Mn2  1  0.33122  0.33122  0.66245  1
 Mn  Mn3  1  0.66878  0.66878  0.33755  1
 N  N1  1  0.15972  0.15972  0.31945  1
 N  N2  1  0.84028  0.84028  0.68055  1
