CIF file written using JARVIS-Tools package.
data_TlFeO3
_symmetry_space_group_name_H-M  'Pnma'
_cell_length_a       5.38821
_cell_length_b       5.41003
_cell_length_c       7.65045
_cell_angle_alpha    90
_cell_angle_beta     90
_cell_angle_gamma    90

_symmetry_Int_Tables_number  62
_chemical_formula_structural  TlFeO3
_chemical_formula_sum  Tl4Fe4O2
_cell_volume  223.01342255440477
_cell_formula_units_Z  4
loop_
  _symmetry_equiv_pos_site_id
 _symmetry_equiv_pos_as_xyz
 1  'x, y, z'
loop_
 _atom_site_type_symbol
 _atom_site_label
 _atom_site_symmetry_multiplicity
 _atom_site_fract_x
 _atom_site_fract_y
 _atom_site_fract_z
 _atom_site_fract_occupancy
 Fe  Fe1  1  0.50000  0.00000  0.00000  1
 Fe  Fe2  1  0.00000  0.50000  0.00000  1
 Fe  Fe3  1  0.00000  0.50000  0.50000  1
 Fe  Fe4  1  0.50000  0.00000  0.50000  1
 O  O1  1  0.28485  0.71721  0.95420  1
 O  O2  1  0.08719  0.48125  0.25000  1
 O  O3  1  0.21515  0.21721  0.54580  1
 O  O4  1  0.41281  0.98125  0.25000  1
 O  O5  1  0.91281  0.51875  0.75000  1
 O  O6  1  0.58719  0.01875  0.75000  1
 O  O7  1  0.21515  0.21721  0.95420  1
 O  O8  1  0.71515  0.28279  0.45420  1
 O  O9  1  0.28485  0.71721  0.54580  1
 O  O10  1  0.71515  0.28279  0.04580  1
 O  O11  1  0.78485  0.78279  0.04580  1
 O  O12  1  0.78485  0.78279  0.45420  1
 Tl  Tl1  1  0.00749  0.97111  0.75000  1
 Tl  Tl2  1  0.50749  0.52889  0.25000  1
 Tl  Tl3  1  0.49251  0.47111  0.75000  1
 Tl  Tl4  1  0.99251  0.02889  0.25000  1
