CIF file written using JARVIS-Tools package.
data_FeP3H6O9
_symmetry_space_group_name_H-M  'Cc'
_cell_length_a       7.48263
_cell_length_b       7.48263
_cell_length_c       9.66054
_cell_angle_alpha    76.6015
_cell_angle_beta     103.398
_cell_angle_gamma    129.028

_symmetry_Int_Tables_number  9
_chemical_formula_structural  FeP3H6O9
_chemical_formula_sum  Fe2P6H2O8
_cell_volume  406.1037651808255
_cell_formula_units_Z  2
loop_
  _symmetry_equiv_pos_site_id
 _symmetry_equiv_pos_as_xyz
 1  'x, y, z'
loop_
 _atom_site_type_symbol
 _atom_site_label
 _atom_site_symmetry_multiplicity
 _atom_site_fract_x
 _atom_site_fract_y
 _atom_site_fract_z
 _atom_site_fract_occupancy
 Fe  Fe1  1  0.08931  0.69912  0.64349  1
 Fe  Fe2  1  0.30088  0.91069  0.14349  1
 H  H1  1  0.60905  0.78468  0.89108  1
 H  H2  1  0.72357  0.14366  0.51583  1
 H  H3  1  0.78682  0.64665  0.26248  1
 H  H4  1  0.35335  0.21318  0.76248  1
 H  H5  1  0.21532  0.39095  0.39108  1
 H  H6  1  0.30645  0.33517  0.04460  1
 H  H7  1  0.80400  0.60043  0.86243  1
 H  H8  1  0.39957  0.19600  0.36243  1
 H  H9  1  0.85634  0.27643  0.01583  1
 H  H10  1  0.70256  0.94428  0.27899  1
 H  H11  1  0.66483  0.69355  0.54460  1
 H  H12  1  0.05572  0.29744  0.77899  1
 O  O1  1  0.13638  0.57921  0.50281  1
 O  O2  1  0.01156  0.59442  0.14073  1
 O  O3  1  0.40558  0.98844  0.64073  1
 O  O4  1  0.77908  0.39555  0.66446  1
 O  O5  1  0.60445  0.22092  0.16446  1
 O  O6  1  0.68915  0.47593  0.93211  1
 O  O7  1  0.93707  0.81504  0.48392  1
 O  O8  1  0.52407  0.31085  0.43211  1
 O  O9  1  0.01439  0.81707  0.77637  1
 O  O10  1  0.18293  0.98561  0.27637  1
 O  O11  1  0.98916  0.14095  0.75337  1
 O  O12  1  0.85905  0.01084  0.25337  1
 O  O13  1  0.43764  0.79974  0.32134  1
 O  O14  1  0.36291  0.48678  0.07007  1
 O  O15  1  0.51322  0.63709  0.57007  1
 O  O16  1  0.18496  0.06293  0.98392  1
 O  O17  1  0.20026  0.56236  0.82134  1
 O  O18  1  0.42079  0.86362  0.00281  1
 P  P1  1  0.79418  0.39003  0.06633  1
 P  P2  1  0.60997  0.20582  0.56633  1
 P  P3  1  0.94202  0.85772  0.32102  1
 P  P4  1  0.14228  0.05798  0.82102  1
 P  P5  1  0.32123  0.60172  0.44268  1
 P  P6  1  0.39828  0.67877  0.94268  1
