CIF file written using JARVIS-Tools package.
data_Mn6Ni16P7
_symmetry_space_group_name_H-M  'Fm-3m'
_cell_length_a       7.79352
_cell_length_b       7.79352
_cell_length_c       7.79352
_cell_angle_alpha    60
_cell_angle_beta     60
_cell_angle_gamma    60

_symmetry_Int_Tables_number  225
_chemical_formula_structural  Mn6Ni16P7
_chemical_formula_sum  Mn6Ni6P7
_cell_volume  334.7230141819095
_cell_formula_units_Z  1
loop_
  _symmetry_equiv_pos_site_id
 _symmetry_equiv_pos_as_xyz
 1  'x, y, z'
loop_
 _atom_site_type_symbol
 _atom_site_label
 _atom_site_symmetry_multiplicity
 _atom_site_fract_x
 _atom_site_fract_y
 _atom_site_fract_z
 _atom_site_fract_occupancy
 Mn  Mn1  1  0.19082  0.80918  0.19082  1
 Mn  Mn2  1  0.80918  0.19082  0.19082  1
 Mn  Mn3  1  0.80918  0.80918  0.19082  1
 Mn  Mn4  1  0.19082  0.19082  0.80918  1
 Mn  Mn5  1  0.80918  0.19082  0.80918  1
 Mn  Mn6  1  0.19082  0.80918  0.80918  1
 Ni  Ni1  1  0.14986  0.61671  0.61671  1
 Ni  Ni2  1  0.16354  0.16354  0.50939  1
 Ni  Ni3  1  0.16354  0.16354  0.16354  1
 Ni  Ni4  1  0.61671  0.61671  0.14986  1
 Ni  Ni5  1  0.38329  0.38329  0.38329  1
 Ni  Ni6  1  0.61671  0.14986  0.61671  1
 Ni  Ni7  1  0.85014  0.38329  0.38329  1
 Ni  Ni8  1  0.83646  0.83646  0.49061  1
 Ni  Ni9  1  0.83646  0.49061  0.83646  1
 Ni  Ni10  1  0.50939  0.16354  0.16354  1
 Ni  Ni11  1  0.16354  0.50939  0.16354  1
 Ni  Ni12  1  0.61671  0.61671  0.61671  1
 Ni  Ni13  1  0.83646  0.83646  0.83646  1
 Ni  Ni14  1  0.38329  0.38329  0.85014  1
 Ni  Ni15  1  0.38329  0.85014  0.38329  1
 Ni  Ni16  1  0.49061  0.83646  0.83646  1
 P  P1  1  0.50000  0.00000  0.00000  1
 P  P2  1  0.50000  0.00000  0.50000  1
 P  P3  1  -0.00000  0.50000  0.00000  1
 P  P4  1  -0.00000  0.50000  0.50000  1
 P  P5  1  0.50000  0.50000  0.00000  1
 P  P6  1  0.00000  0.00000  0.50000  1
 P  P7  1  0.50000  0.50000  0.50000  1
