CIF file written using JARVIS-Tools package.
data_Pu2W2C3
_symmetry_space_group_name_H-M  'C2/m'
_cell_length_a       3.27817
_cell_length_b       5.67855
_cell_length_c       6.00059
_cell_angle_alpha    104.862
_cell_angle_beta     105.852
_cell_angle_gamma    90

_symmetry_Int_Tables_number  12
_chemical_formula_structural  Pu2W2C3
_chemical_formula_sum  Pu2W2C3
_cell_volume  103.56482489191187
_cell_formula_units_Z  1
loop_
  _symmetry_equiv_pos_site_id
 _symmetry_equiv_pos_as_xyz
 1  'x, y, z'
loop_
 _atom_site_type_symbol
 _atom_site_label
 _atom_site_symmetry_multiplicity
 _atom_site_fract_x
 _atom_site_fract_y
 _atom_site_fract_z
 _atom_site_fract_occupancy
 C  C1  1  -0.00000  0.50000  -0.00000  1
 C  C2  1  0.26285  0.74726  0.52571  1
 C  C3  1  0.73715  0.25274  0.47429  1
 Pu  Pu1  1  0.60946  0.83383  0.21891  1
 Pu  Pu2  1  0.39054  0.16617  0.78109  1
 W  W1  1  0.84805  0.62257  0.69610  1
 W  W2  1  0.15195  0.37743  0.30390  1
