CIF file written using JARVIS-Tools package.
data_SrZrP2O8
_symmetry_space_group_name_H-M  'P-1'
_cell_length_a       5.17329
_cell_length_b       7.76684
_cell_length_c       7.89843
_cell_angle_alpha    92.7305
_cell_angle_beta     95.7991
_cell_angle_gamma    90.1834

_symmetry_Int_Tables_number  2
_chemical_formula_structural  SrZrP2O8
_chemical_formula_sum  Sr2Zr2P4O6
_cell_volume  315.36742243035593
_cell_formula_units_Z  2
loop_
  _symmetry_equiv_pos_site_id
 _symmetry_equiv_pos_as_xyz
 1  'x, y, z'
loop_
 _atom_site_type_symbol
 _atom_site_label
 _atom_site_symmetry_multiplicity
 _atom_site_fract_x
 _atom_site_fract_y
 _atom_site_fract_z
 _atom_site_fract_occupancy
 O  O1  1  0.73920  0.58483  0.45859  1
 O  O2  1  0.69255  0.91713  0.46524  1
 O  O3  1  0.30745  0.08287  0.53476  1
 O  O4  1  0.95034  0.83190  0.75785  1
 O  O5  1  0.18961  0.60130  0.92232  1
 O  O6  1  0.23032  0.92050  0.02555  1
 O  O7  1  0.76968  0.07950  0.97445  1
 O  O8  1  0.04966  0.16810  0.24215  1
 O  O9  1  0.07366  0.77233  0.33191  1
 O  O10  1  0.59218  0.75754  0.20543  1
 O  O11  1  0.40782  0.24246  0.79457  1
 O  O12  1  0.43686  0.81205  0.76881  1
 O  O13  1  0.92634  0.22767  0.66809  1
 O  O14  1  0.56314  0.18795  0.23119  1
 O  O15  1  0.26080  0.41517  0.54141  1
 O  O16  1  0.81039  0.39870  0.07768  1
 P  P1  1  0.80055  0.21109  0.12653  1
 P  P2  1  0.78733  0.74775  0.37010  1
 P  P3  1  0.21267  0.25225  0.62990  1
 P  P4  1  0.19945  0.78891  0.87347  1
 Sr  Sr1  1  0.30313  0.47652  0.22908  1
 Sr  Sr2  1  0.69687  0.52348  0.77092  1
 Zr  Zr1  1  0.65980  0.02631  0.72242  1
 Zr  Zr2  1  0.34020  0.97369  0.27758  1
