CIF file written using JARVIS-Tools package.
data_LiTiPO5
_symmetry_space_group_name_H-M  'Pnma'
_cell_length_a       6.42903
_cell_length_b       7.25774
_cell_length_c       7.41447
_cell_angle_alpha    90
_cell_angle_beta     90
_cell_angle_gamma    90

_symmetry_Int_Tables_number  62
_chemical_formula_structural  LiTiPO5
_chemical_formula_sum  Li4Ti4P4O20
_cell_volume  345.96125150044264
_cell_formula_units_Z  4
loop_
  _symmetry_equiv_pos_site_id
 _symmetry_equiv_pos_as_xyz
 1  'x, y, z'
loop_
 _atom_site_type_symbol
 _atom_site_label
 _atom_site_symmetry_multiplicity
 _atom_site_fract_x
 _atom_site_fract_y
 _atom_site_fract_z
 _atom_site_fract_occupancy
 Li  Li1  1  0.00000  0.00000  0.00000  1
 Li  Li2  1  0.50000  0.50000  0.50000  1
 Li  Li3  1  0.00000  0.50000  0.50000  1
 Li  Li4  1  0.50000  0.00000  0.00000  1
 O  O1  1  0.75000  0.50352  0.29451  1
 O  O2  1  0.25000  0.49648  0.70549  1
 O  O3  1  0.25000  0.00352  0.20549  1
 O  O4  1  0.75000  -0.00352  0.79451  1
 O  O5  1  0.05629  0.24423  0.87235  1
 O  O6  1  0.25000  0.84547  0.88942  1
 O  O7  1  0.25000  0.48496  0.04913  1
 O  O8  1  0.75000  0.15453  0.11058  1
 O  O9  1  0.44371  0.24423  0.87235  1
 O  O10  1  0.94371  0.75577  0.12765  1
 O  O11  1  0.55629  0.74423  0.62765  1
 O  O12  1  0.25000  0.65453  0.38942  1
 O  O13  1  0.75000  0.51504  0.95087  1
 O  O14  1  0.25000  0.01504  0.54913  1
 O  O15  1  0.44371  0.25577  0.37235  1
 O  O16  1  0.55629  0.75577  0.12765  1
 O  O17  1  0.94371  0.74423  0.62765  1
 O  O18  1  0.05629  0.25577  0.37235  1
 O  O19  1  0.75000  0.98496  0.45087  1
 O  O20  1  0.75000  0.34547  0.61058  1
 P  P1  1  0.25000  0.36947  0.87401  1
 P  P2  1  0.75000  0.63053  0.12599  1
 P  P3  1  0.75000  0.86947  0.62599  1
 P  P4  1  0.25000  0.13053  0.37401  1
 Ti  Ti1  1  0.75000  0.22134  0.33578  1
 Ti  Ti2  1  0.25000  0.77866  0.66422  1
 Ti  Ti3  1  0.75000  0.27866  0.83578  1
 Ti  Ti4  1  0.25000  0.72134  0.16422  1
