CIF file written using JARVIS-Tools package.
data_Mg2Sc
_symmetry_space_group_name_H-M  'Cmcm'
_cell_length_a       8.37959
_cell_length_b       8.37959
_cell_length_c       5.13528
_cell_angle_alpha    90
_cell_angle_beta     90
_cell_angle_gamma    157.538

_symmetry_Int_Tables_number  63
_chemical_formula_structural  Mg2Sc
_chemical_formula_sum  Mg4Sc2
_cell_volume  137.76879835022697
_cell_formula_units_Z  2
loop_
  _symmetry_equiv_pos_site_id
 _symmetry_equiv_pos_as_xyz
 1  'x, y, z'
loop_
 _atom_site_type_symbol
 _atom_site_label
 _atom_site_symmetry_multiplicity
 _atom_site_fract_x
 _atom_site_fract_y
 _atom_site_fract_z
 _atom_site_fract_occupancy
 Mg  Mg1  1  0.10889  0.89111  0.25000  1
 Mg  Mg2  1  0.77600  0.22400  0.25000  1
 Mg  Mg3  1  0.89111  0.10889  0.75000  1
 Mg  Mg4  1  0.22400  0.77600  0.75000  1
 Sc  Sc1  1  0.44306  0.55694  0.25000  1
 Sc  Sc2  1  0.55694  0.44306  0.75000  1
