CIF file written using JARVIS-Tools package.
data_K
_symmetry_space_group_name_H-M  'P4/mmm'
_cell_length_a       6.03499
_cell_length_b       6.03499
_cell_length_c       11.1095
_cell_angle_alpha    90
_cell_angle_beta     90
_cell_angle_gamma    90.0286

_symmetry_Int_Tables_number  123
_chemical_formula_structural  K
_chemical_formula_sum  K5
_cell_volume  404.61993413984067
_cell_formula_units_Z  5
loop_
  _symmetry_equiv_pos_site_id
 _symmetry_equiv_pos_as_xyz
 1  'x, y, z'
loop_
 _atom_site_type_symbol
 _atom_site_label
 _atom_site_symmetry_multiplicity
 _atom_site_fract_x
 _atom_site_fract_y
 _atom_site_fract_z
 _atom_site_fract_occupancy
 K  K1  1  0.00000  0.00000  0.00000  1
 K  K2  1  0.50000  0.00000  0.30899  1
 K  K3  1  0.00000  0.50000  0.30899  1
 K  K4  1  0.00000  0.50000  0.69101  1
 K  K5  1  0.50000  0.00000  0.69101  1
