CIF file written using JARVIS-Tools package.
data_Cr2NiS4
_symmetry_space_group_name_H-M  'C2/m'
_cell_length_a       3.14977
_cell_length_b       5.67998
_cell_length_c       6.30883
_cell_angle_alpha    113.659
_cell_angle_beta     104.456
_cell_angle_gamma    90

_symmetry_Int_Tables_number  12
_chemical_formula_structural  Cr2NiS4
_chemical_formula_sum  Cr2NiS4
_cell_volume  99.46909334883813
_cell_formula_units_Z  1
loop_
  _symmetry_equiv_pos_site_id
 _symmetry_equiv_pos_as_xyz
 1  'x, y, z'
loop_
 _atom_site_type_symbol
 _atom_site_label
 _atom_site_symmetry_multiplicity
 _atom_site_fract_x
 _atom_site_fract_y
 _atom_site_fract_z
 _atom_site_fract_occupancy
 Cr  Cr1  1  0.75914  0.81550  0.51828  1
 Cr  Cr2  1  0.24086  0.18450  0.48172  1
 Ni  Ni1  1  0.50000  0.50000  0.00000  1
 S  S1  1  0.60884  0.94459  0.21768  1
 S  S2  1  0.39116  0.05541  0.78232  1
 S  S3  1  0.14177  0.48189  0.28355  1
 S  S4  1  0.85823  0.51811  0.71645  1
