CIF file written using JARVIS-Tools package.
data_TlInF6
_symmetry_space_group_name_H-M  'R-3'
_cell_length_a       5.90132
_cell_length_b       5.90132
_cell_length_c       5.90132
_cell_angle_alpha    52.3318
_cell_angle_beta     52.3318
_cell_angle_gamma    52.3319

_symmetry_Int_Tables_number  148
_chemical_formula_structural  TlInF6
_chemical_formula_sum  TlInF6
_cell_volume  119.14867263824198
_cell_formula_units_Z  1
loop_
  _symmetry_equiv_pos_site_id
 _symmetry_equiv_pos_as_xyz
 1  'x, y, z'
loop_
 _atom_site_type_symbol
 _atom_site_label
 _atom_site_symmetry_multiplicity
 _atom_site_fract_x
 _atom_site_fract_y
 _atom_site_fract_z
 _atom_site_fract_occupancy
 F  F1  1  0.59014  0.92277  0.24323  1
 F  F2  1  0.24323  0.59014  0.92277  1
 F  F3  1  0.92277  0.24323  0.59014  1
 F  F4  1  0.75677  0.40986  0.07723  1
 F  F5  1  0.07723  0.75677  0.40986  1
 F  F6  1  0.40986  0.07723  0.75677  1
 In  In1  1  0.00000  0.00000  0.00000  1
 Tl  Tl1  1  0.50000  0.50000  0.50000  1
