CIF file written using JARVIS-Tools package.
data_ZrAlW4
_symmetry_space_group_name_H-M  'F-43m'
_cell_length_a       5.33191
_cell_length_b       5.33192
_cell_length_c       5.33191
_cell_angle_alpha    60
_cell_angle_beta     60
_cell_angle_gamma    60

_symmetry_Int_Tables_number  216
_chemical_formula_structural  ZrAlW4
_chemical_formula_sum  ZrAlW4
_cell_volume  107.18498245731202
_cell_formula_units_Z  1
loop_
  _symmetry_equiv_pos_site_id
 _symmetry_equiv_pos_as_xyz
 1  'x, y, z'
loop_
 _atom_site_type_symbol
 _atom_site_label
 _atom_site_symmetry_multiplicity
 _atom_site_fract_x
 _atom_site_fract_y
 _atom_site_fract_z
 _atom_site_fract_occupancy
 Al  Al1  1  0.25000  0.25000  0.25000  1
 W  W1  1  0.62438  0.62438  0.12687  1
 W  W2  1  0.62438  0.12687  0.62438  1
 W  W3  1  0.12687  0.62438  0.62438  1
 W  W4  1  0.62438  0.62438  0.62438  1
 Zr  Zr1  1  0.00000  0.00000  0.00000  1
