CIF file written using JARVIS-Tools package.
data_BaAl2O4
_symmetry_space_group_name_H-M  'P6_322'
_cell_length_a       10.4969
_cell_length_b       10.4969
_cell_length_c       8.95766
_cell_angle_alpha    90
_cell_angle_beta     90
_cell_angle_gamma    120

_symmetry_Int_Tables_number  182
_chemical_formula_structural  BaAl2O4
_chemical_formula_sum  Ba8Al6O32
_cell_volume  854.7658786701788
_cell_formula_units_Z  8
loop_
  _symmetry_equiv_pos_site_id
 _symmetry_equiv_pos_as_xyz
 1  'x, y, z'
loop_
 _atom_site_type_symbol
 _atom_site_label
 _atom_site_symmetry_multiplicity
 _atom_site_fract_x
 _atom_site_fract_y
 _atom_site_fract_z
 _atom_site_fract_occupancy
 Al  Al1  1  0.33333  0.16667  0.55373  1
 Al  Al2  1  0.83333  0.16667  0.94627  1
 Al  Al3  1  0.83333  0.66667  0.55373  1
 Al  Al4  1  0.16667  0.33333  0.05373  1
 Al  Al5  1  0.83333  0.16667  0.55373  1
 Al  Al6  1  0.66667  0.83333  0.05373  1
 Al  Al7  1  0.16667  0.83333  0.05373  1
 Al  Al8  1  0.83333  0.66667  0.94627  1
 Al  Al9  1  0.33333  0.66667  0.55373  1
 Al  Al10  1  0.66667  0.33333  0.05373  1
 Al  Al11  1  0.66667  0.33333  0.44627  1
 Al  Al12  1  0.33333  0.66667  0.94627  1
 Al  Al13  1  0.16667  0.83333  0.44627  1
 Al  Al14  1  0.16667  0.33333  0.44627  1
 Al  Al15  1  0.33333  0.16667  0.94627  1
 Al  Al16  1  0.66667  0.83333  0.44627  1
 Ba  Ba1  1  -0.00000  0.00000  0.25000  1
 Ba  Ba2  1  0.50001  0.00002  0.25000  1
 Ba  Ba3  1  0.49999  0.50001  0.75000  1
 Ba  Ba4  1  0.00000  -0.00000  0.75000  1
 Ba  Ba5  1  0.99998  0.49999  0.25000  1
 Ba  Ba6  1  0.50001  0.49999  0.25000  1
 Ba  Ba7  1  0.49999  0.99998  0.75000  1
 Ba  Ba8  1  0.00002  0.50001  0.75000  1
 O  O1  1  -0.00000  0.82360  0.50000  1
 O  O2  1  0.50000  0.82360  0.50000  1
 O  O3  1  0.32360  0.82360  -0.00000  1
 O  O4  1  0.67640  0.50000  0.00000  1
 O  O5  1  0.82360  0.32360  0.00000  1
 O  O6  1  0.17640  0.67640  0.50000  1
 O  O7  1  0.32360  0.32360  0.00000  1
 O  O8  1  0.50000  0.17640  0.00000  1
 O  O9  1  0.32360  -0.00000  0.50000  1
 O  O10  1  0.00000  0.67640  0.00000  1
 O  O11  1  -0.00000  0.32360  0.50000  1
 O  O12  1  0.17640  0.00000  -0.00000  1
 O  O13  1  0.17640  0.50000  -0.00000  1
 O  O14  1  0.32360  0.50000  0.50000  1
 O  O15  1  0.82360  0.50000  0.50000  1
 O  O16  1  0.82360  -0.00000  0.50000  1
 O  O17  1  0.50000  0.32360  0.50000  1
 O  O18  1  0.16666  0.33333  0.25000  1
 O  O19  1  0.83334  0.16666  0.75000  1
 O  O20  1  0.33333  0.16666  0.75000  1
 O  O21  1  0.66667  0.83334  0.25000  1
 O  O22  1  0.16666  0.83334  0.25000  1
 O  O23  1  0.83334  0.66667  0.75000  1
 O  O24  1  0.33333  0.66667  0.75000  1
 O  O25  1  0.17640  0.17640  0.50000  1
 O  O26  1  0.66667  0.33333  0.25000  1
 O  O27  1  0.50000  0.67640  -0.00000  1
 O  O28  1  0.67640  0.00000  -0.00000  1
 O  O29  1  0.67640  0.67640  0.50000  1
 O  O30  1  0.82360  0.82360  0.00000  1
 O  O31  1  0.67640  0.17640  0.50000  1
 O  O32  1  0.00000  0.17640  0.00000  1
