CIF file written using JARVIS-Tools package.
data_CuHgSI
_symmetry_space_group_name_H-M  'Pna2_1'
_cell_length_a       7.05917
_cell_length_b       7.18039
_cell_length_c       8.47245
_cell_angle_alpha    90
_cell_angle_beta     90
_cell_angle_gamma    90

_symmetry_Int_Tables_number  33
_chemical_formula_structural  CuHgSI
_chemical_formula_sum  Cu4Hg4S4I4
_cell_volume  429.4486485913572
_cell_formula_units_Z  4
loop_
  _symmetry_equiv_pos_site_id
 _symmetry_equiv_pos_as_xyz
 1  'x, y, z'
loop_
 _atom_site_type_symbol
 _atom_site_label
 _atom_site_symmetry_multiplicity
 _atom_site_fract_x
 _atom_site_fract_y
 _atom_site_fract_z
 _atom_site_fract_occupancy
 Cu  Cu1  1  0.29486  0.07708  0.35922  1
 Cu  Cu2  1  0.79486  0.92292  0.64078  1
 Cu  Cu3  1  0.79486  0.42292  0.85922  1
 Cu  Cu4  1  0.29486  0.57708  0.14078  1
 Hg  Hg1  1  0.18528  0.03026  0.95185  1
 Hg  Hg2  1  0.68528  0.96974  0.04815  1
 Hg  Hg3  1  0.68528  0.46974  0.45185  1
 Hg  Hg4  1  0.18528  0.53026  0.54815  1
 I  I1  1  0.40901  0.91430  0.62518  1
 I  I2  1  0.90901  0.08570  0.37482  1
 I  I3  1  0.90901  0.58570  0.12518  1
 I  I4  1  0.40901  0.41430  0.87482  1
 S  S1  1  0.87732  0.11676  0.84143  1
 S  S2  1  0.37732  0.88324  0.15857  1
 S  S3  1  0.37732  0.38324  0.34143  1
 S  S4  1  0.87732  0.61676  0.65857  1
