CIF file written using JARVIS-Tools package.
data_AlH4NF4
_symmetry_space_group_name_H-M  'P4_2/mbc'
_cell_length_a       5.07689
_cell_length_b       5.07689
_cell_length_c       12.7937
_cell_angle_alpha    90
_cell_angle_beta     90
_cell_angle_gamma    90

_symmetry_Int_Tables_number  135
_chemical_formula_structural  AlH4NF4
_chemical_formula_sum  Al4H6N4F6
_cell_volume  329.75619677203963
_cell_formula_units_Z  4
loop_
  _symmetry_equiv_pos_site_id
 _symmetry_equiv_pos_as_xyz
 1  'x, y, z'
loop_
 _atom_site_type_symbol
 _atom_site_label
 _atom_site_symmetry_multiplicity
 _atom_site_fract_x
 _atom_site_fract_y
 _atom_site_fract_z
 _atom_site_fract_occupancy
 Al  Al1  1  0.00000  0.50000  0.50000  1
 Al  Al2  1  0.50000  0.00000  0.00000  1
 Al  Al3  1  0.50000  0.00000  0.50000  1
 Al  Al4  1  0.00000  0.50000  0.00000  1
 F  F1  1  0.80348  0.19688  0.00000  1
 F  F2  1  0.69652  0.69688  0.00000  1
 F  F3  1  0.30312  0.69652  0.50000  1
 F  F4  1  0.19652  0.80312  0.00000  1
 F  F5  1  0.19688  0.19652  0.50000  1
 F  F6  1  0.00000  0.50000  0.85948  1
 F  F7  1  0.50000  0.00000  0.85948  1
 F  F8  1  0.80312  0.80348  0.50000  1
 F  F9  1  0.00000  0.50000  0.35948  1
 F  F10  1  0.00000  0.50000  0.14052  1
 F  F11  1  0.50000  0.00000  0.64052  1
 F  F12  1  0.00000  0.50000  0.64052  1
 F  F13  1  0.69688  0.30348  0.50000  1
 F  F14  1  0.50000  0.00000  0.14052  1
 F  F15  1  0.50000  0.00000  0.35948  1
 F  F16  1  0.30348  0.30312  0.00000  1
 H  H1  1  0.83181  0.99888  0.29651  1
 H  H2  1  0.16819  0.00112  0.70349  1
 H  H3  1  0.50112  0.66819  0.20349  1
 H  H4  1  0.33181  0.50112  0.70349  1
 H  H5  1  0.00112  0.83181  0.79651  1
 H  H6  1  0.16819  0.00112  0.29651  1
 H  H7  1  0.50112  0.66819  0.79651  1
 H  H8  1  0.33181  0.50112  0.29651  1
 H  H9  1  0.00112  0.83181  0.20349  1
 H  H10  1  0.99888  0.16819  0.79651  1
 H  H11  1  0.49888  0.33181  0.79651  1
 H  H12  1  0.66819  0.49888  0.29651  1
 H  H13  1  0.99888  0.16819  0.20349  1
 H  H14  1  0.83181  0.99888  0.70349  1
 H  H15  1  0.49888  0.33181  0.20349  1
 H  H16  1  0.66819  0.49888  0.70349  1
 N  N1  1  0.50000  0.50000  0.75000  1
 N  N2  1  0.50000  0.50000  0.25000  1
 N  N3  1  0.00000  0.00000  0.75000  1
 N  N4  1  0.00000  0.00000  0.25000  1
