CIF file written using JARVIS-Tools package.
data_Ca4H12Rh3
_symmetry_space_group_name_H-M  'Im-3m'
_cell_length_a       6.30844
_cell_length_b       6.30844
_cell_length_c       6.30844
_cell_angle_alpha    109.471
_cell_angle_beta     109.471
_cell_angle_gamma    109.471

_symmetry_Int_Tables_number  229
_chemical_formula_structural  Ca4H12Rh3
_chemical_formula_sum  Ca4H2Rh3
_cell_volume  193.2607504231865
_cell_formula_units_Z  1
loop_
  _symmetry_equiv_pos_site_id
 _symmetry_equiv_pos_as_xyz
 1  'x, y, z'
loop_
 _atom_site_type_symbol
 _atom_site_label
 _atom_site_symmetry_multiplicity
 _atom_site_fract_x
 _atom_site_fract_y
 _atom_site_fract_z
 _atom_site_fract_occupancy
 Ca  Ca1  1  -0.00000  -0.00000  0.50000  1
 Ca  Ca2  1  0.00000  0.50000  -0.00000  1
 Ca  Ca3  1  0.50000  0.00000  0.00000  1
 Ca  Ca4  1  0.50000  0.50000  0.50000  1
 H  H1  1  0.73562  0.73562  0.00000  1
 H  H2  1  0.26438  -0.00000  0.26438  1
 H  H3  1  -0.00000  0.26438  0.26438  1
 H  H4  1  0.26438  0.26438  -0.00000  1
 H  H5  1  0.73562  0.00000  0.73562  1
 H  H6  1  0.00000  0.73562  0.73562  1
 H  H7  1  0.75000  0.25000  0.50000  1
 H  H8  1  0.75000  0.50000  0.25000  1
 H  H9  1  0.50000  0.25000  0.75000  1
 H  H10  1  0.25000  0.50000  0.75000  1
 H  H11  1  0.25000  0.75000  0.50000  1
 H  H12  1  0.50000  0.75000  0.25000  1
 Rh  Rh1  1  0.00000  0.50000  0.50000  1
 Rh  Rh2  1  0.50000  0.50000  0.00000  1
 Rh  Rh3  1  0.50000  0.00000  0.50000  1
