CIF file written using JARVIS-Tools package.
data_MgAl2Cu
_symmetry_space_group_name_H-M  'Cmcm'
_cell_length_a       4.00656
_cell_length_b       5.05797
_cell_length_c       7.17128
_cell_angle_alpha    90
_cell_angle_beta     90
_cell_angle_gamma    113.332

_symmetry_Int_Tables_number  63
_chemical_formula_structural  MgAl2Cu
_chemical_formula_sum  Mg2Al4Cu2
_cell_volume  133.4417026358372
_cell_formula_units_Z  2
loop_
  _symmetry_equiv_pos_site_id
 _symmetry_equiv_pos_as_xyz
 1  'x, y, z'
loop_
 _atom_site_type_symbol
 _atom_site_label
 _atom_site_symmetry_multiplicity
 _atom_site_fract_x
 _atom_site_fract_y
 _atom_site_fract_z
 _atom_site_fract_occupancy
 Al  Al1  1  0.35606  0.71212  0.94543  1
 Al  Al2  1  0.35606  0.71212  0.55457  1
 Al  Al3  1  0.64394  0.28788  0.05457  1
 Al  Al4  1  0.64394  0.28788  0.44543  1
 Cu  Cu1  1  0.77979  0.55958  0.75000  1
 Cu  Cu2  1  0.22021  0.44042  0.25000  1
 Mg  Mg1  1  0.06446  0.12892  0.75000  1
 Mg  Mg2  1  0.93554  0.87108  0.25000  1
