data_image0
_chemical_formula_structural       Lu2NiSn6
_chemical_formula_sum              "Lu2 Ni1 Sn6"
_cell_length_a       11.4065
_cell_length_b       4.35009
_cell_length_c       4.4059
_cell_angle_alpha    90
_cell_angle_beta     90
_cell_angle_gamma    100.993

_space_group_name_H-M_alt    "P 1"
_space_group_IT_number       1

loop_
  _space_group_symop_operation_xyz
  'x, y, z'

loop_
  _atom_site_type_symbol
  _atom_site_label
  _atom_site_symmetry_multiplicity
  _atom_site_fract_x
  _atom_site_fract_y
  _atom_site_fract_z
  _atom_site_occupancy
  Lu  Lu1       1.0  0.35700  0.17900  0.00000  1.0000
  Lu  Lu2       1.0  0.64300  0.82100  0.00000  1.0000
  Ni  Ni1       1.0  0.00000  0.50000  0.50000  1.0000
  Sn  Sn1       1.0  0.85900  0.42900  0.00000  1.0000
  Sn  Sn2       1.0  0.14100  0.57100  0.00000  1.0000
  Sn  Sn3       1.0  0.14200  0.07120  0.50000  1.0000
  Sn  Sn4       1.0  0.59300  0.29700  0.50000  1.0000
  Sn  Sn5       1.0  0.40700  0.70300  0.50000  1.0000
  Sn  Sn6       1.0  0.85800  0.92900  0.50000  1.0000
