CIF file written using JARVIS-Tools package.
data_Sc2Te3
_symmetry_space_group_name_H-M  'Fddd'
_cell_length_a       7.15265
_cell_length_b       7.15264
_cell_length_c       13.029
_cell_angle_alpha    100.559
_cell_angle_beta     100.559
_cell_angle_gamma    109.413

_symmetry_Int_Tables_number  70
_chemical_formula_structural  Sc2Te3
_chemical_formula_sum  Sc8Te2
_cell_volume  596.2087352827085
_cell_formula_units_Z  4
loop_
  _symmetry_equiv_pos_site_id
 _symmetry_equiv_pos_as_xyz
 1  'x, y, z'
loop_
 _atom_site_type_symbol
 _atom_site_label
 _atom_site_symmetry_multiplicity
 _atom_site_fract_x
 _atom_site_fract_y
 _atom_site_fract_z
 _atom_site_fract_occupancy
 Sc  Sc1  1  0.20728  0.95728  0.91457  1
 Sc  Sc2  1  0.04272  0.79272  0.58543  1
 Sc  Sc3  1  0.79272  0.04272  0.08543  1
 Sc  Sc4  1  0.95728  0.20728  0.41457  1
 Sc  Sc5  1  0.87553  0.62553  0.25107  1
 Sc  Sc6  1  0.37447  0.12447  0.24893  1
 Sc  Sc7  1  0.12447  0.37447  0.74893  1
 Sc  Sc8  1  0.62553  0.87553  0.75107  1
 Te  Te1  1  0.37862  0.12862  0.75000  1
 Te  Te2  1  0.79070  0.04189  0.58329  1
 Te  Te3  1  0.62138  0.87138  0.25000  1
 Te  Te4  1  0.12862  0.37862  0.25000  1
 Te  Te5  1  0.87138  0.62138  0.75000  1
 Te  Te6  1  0.95811  0.20930  0.91671  1
 Te  Te7  1  0.20930  0.95811  0.41671  1
 Te  Te8  1  0.54140  0.29259  0.08329  1
 Te  Te9  1  0.04189  0.79070  0.08329  1
 Te  Te10  1  0.29259  0.54140  0.58329  1
 Te  Te11  1  0.70741  0.45860  0.41671  1
 Te  Te12  1  0.45860  0.70741  0.91671  1
