CIF file written using JARVIS-Tools package.
data_BaNaFe4As4
_symmetry_space_group_name_H-M  'Cmmm'
_cell_length_a       6.94674
_cell_length_b       6.94674
_cell_length_c       5.45926
_cell_angle_alpha    90
_cell_angle_beta     90
_cell_angle_gamma    133.757

_symmetry_Int_Tables_number  65
_chemical_formula_structural  BaNaFe4As4
_chemical_formula_sum  BaNaFe4As4
_cell_volume  190.28407435426033
_cell_formula_units_Z  1
loop_
  _symmetry_equiv_pos_site_id
 _symmetry_equiv_pos_as_xyz
 1  'x, y, z'
loop_
 _atom_site_type_symbol
 _atom_site_label
 _atom_site_symmetry_multiplicity
 _atom_site_fract_x
 _atom_site_fract_y
 _atom_site_fract_z
 _atom_site_fract_occupancy
 As  As1  1  0.35132  0.64868  0.00000  1
 As  As2  1  0.85090  0.14910  0.50000  1
 As  As3  1  0.14910  0.85090  0.50000  1
 As  As4  1  0.64868  0.35132  0.00000  1
 Ba  Ba1  1  0.50000  0.50000  0.50000  1
 Fe  Fe1  1  0.50000  -0.00000  0.75100  1
 Fe  Fe2  1  -0.00000  0.50000  0.24900  1
 Fe  Fe3  1  -0.00000  0.50000  0.75100  1
 Fe  Fe4  1  0.50000  -0.00000  0.24900  1
 Na  Na1  1  0.00000  0.00000  0.00000  1
