CIF file written using JARVIS-Tools package.
data_Na2Te3Mo3O16
_symmetry_space_group_name_H-M  'C2'
_cell_length_a       7.29704
_cell_length_b       7.66815
_cell_length_c       7.66815
_cell_angle_alpha    95.1701
_cell_angle_beta     114.874
_cell_angle_gamma    114.874

_symmetry_Int_Tables_number  5
_chemical_formula_structural  Na2Te3Mo3O16
_chemical_formula_sum  Na2Te3Mo3O6
_cell_volume  334.05410470296243
_cell_formula_units_Z  1
loop_
  _symmetry_equiv_pos_site_id
 _symmetry_equiv_pos_as_xyz
 1  'x, y, z'
loop_
 _atom_site_type_symbol
 _atom_site_label
 _atom_site_symmetry_multiplicity
 _atom_site_fract_x
 _atom_site_fract_y
 _atom_site_fract_z
 _atom_site_fract_occupancy
 Mo  Mo1  1  0.98670  0.48960  0.97228  1
 Mo  Mo2  1  0.01330  0.02772  0.51040  1
 Mo  Mo3  1  0.50000  0.42206  0.57794  1
 Na  Na1  1  0.50000  0.91316  0.08684  1
 Na  Na2  1  0.00000  0.51432  0.48568  1
 O  O1  1  0.22914  0.15543  0.40285  1
 O  O2  1  0.87754  0.17019  0.44451  1
 O  O3  1  0.77086  0.59715  0.84457  1
 O  O4  1  0.77350  0.37998  0.11254  1
 O  O5  1  0.81272  0.81381  0.29336  1
 O  O6  1  0.66434  0.24400  0.70595  1
 O  O7  1  0.12246  0.55549  0.82981  1
 O  O8  1  0.33566  0.29405  0.75600  1
 O  O9  1  0.07827  0.28979  0.04337  1
 O  O10  1  0.18728  0.70664  0.18619  1
 O  O11  1  0.63289  0.46355  0.43009  1
 O  O12  1  0.34503  0.12390  0.06526  1
 O  O13  1  0.65497  0.93474  0.87610  1
 O  O14  1  0.36711  0.56991  0.53645  1
 O  O15  1  0.92173  0.95663  0.71021  1
 O  O16  1  0.22650  0.88746  0.62002  1
 Te  Te1  1  0.49755  0.94911  0.60590  1
 Te  Te2  1  0.50245  0.39410  0.05089  1
 Te  Te3  1  -0.00000  0.00385  0.99615  1
