CIF file written using JARVIS-Tools package.
data_MgCrF6
_symmetry_space_group_name_H-M  'R-3'
_cell_length_a       5.30127
_cell_length_b       5.30126
_cell_length_c       5.30126
_cell_angle_alpha    56.1349
_cell_angle_beta     56.135
_cell_angle_gamma    56.1349

_symmetry_Int_Tables_number  148
_chemical_formula_structural  MgCrF6
_chemical_formula_sum  MgCrF6
_cell_volume  95.92004652176927
_cell_formula_units_Z  1
loop_
  _symmetry_equiv_pos_site_id
 _symmetry_equiv_pos_as_xyz
 1  'x, y, z'
loop_
 _atom_site_type_symbol
 _atom_site_label
 _atom_site_symmetry_multiplicity
 _atom_site_fract_x
 _atom_site_fract_y
 _atom_site_fract_z
 _atom_site_fract_occupancy
 Cr  Cr1  1  0.00000  0.00000  0.00000  1
 F  F1  1  0.23776  0.63907  0.88330  1
 F  F2  1  0.63907  0.88330  0.23776  1
 F  F3  1  0.11670  0.76224  0.36093  1
 F  F4  1  0.36093  0.11670  0.76224  1
 F  F5  1  0.76224  0.36093  0.11670  1
 F  F6  1  0.88330  0.23776  0.63907  1
 Mg  Mg1  1  0.50000  0.50000  0.50000  1
