CIF file written using JARVIS-Tools package.
data_Li2Mn3CoO8
_symmetry_space_group_name_H-M  'R3m'
_cell_length_a       5.77206
_cell_length_b       5.77206
_cell_length_c       5.77206
_cell_angle_alpha    59.675
_cell_angle_beta     59.675
_cell_angle_gamma    59.675

_symmetry_Int_Tables_number  160
_chemical_formula_structural  Li2Mn3CoO8
_chemical_formula_sum  Li2Mn3CoO8
_cell_volume  134.97715043598092
_cell_formula_units_Z  1
loop_
  _symmetry_equiv_pos_site_id
 _symmetry_equiv_pos_as_xyz
 1  'x, y, z'
loop_
 _atom_site_type_symbol
 _atom_site_label
 _atom_site_symmetry_multiplicity
 _atom_site_fract_x
 _atom_site_fract_y
 _atom_site_fract_z
 _atom_site_fract_occupancy
 Co  Co1  1  0.88068  0.88068  0.88068  1
 Li  Li1  1  0.11875  0.11875  0.11875  1
 Li  Li2  1  0.49839  0.49839  0.49839  1
 Mn  Mn1  1  0.00543  0.49908  0.49908  1
 Mn  Mn2  1  0.49908  0.00543  0.49908  1
 Mn  Mn3  1  0.49908  0.49908  0.00543  1
 O  O1  1  0.26130  0.26130  0.26130  1
 O  O2  1  0.25163  0.25163  0.71213  1
 O  O3  1  0.25163  0.71213  0.25163  1
 O  O4  1  0.71213  0.25163  0.25163  1
 O  O5  1  0.28378  0.74787  0.74787  1
 O  O6  1  0.74787  0.28378  0.74787  1
 O  O7  1  0.74787  0.74787  0.28378  1
 O  O8  1  0.74236  0.74236  0.74236  1
