CIF file written using JARVIS-Tools package.
data_ErSi2
_symmetry_space_group_name_H-M  'I4_1/amd'
_cell_length_a       3.8905
_cell_length_b       3.8905
_cell_length_c       8.07688
_cell_angle_alpha    103.936
_cell_angle_beta     103.936
_cell_angle_gamma    90

_symmetry_Int_Tables_number  141
_chemical_formula_structural  ErSi2
_chemical_formula_sum  Er2Si4
_cell_volume  114.94179593188663
_cell_formula_units_Z  2
loop_
  _symmetry_equiv_pos_site_id
 _symmetry_equiv_pos_as_xyz
 1  'x, y, z'
loop_
 _atom_site_type_symbol
 _atom_site_label
 _atom_site_symmetry_multiplicity
 _atom_site_fract_x
 _atom_site_fract_y
 _atom_site_fract_z
 _atom_site_fract_occupancy
 Er  Er1  1  0.25000  0.75000  0.50000  1
 Er  Er2  1  0.00000  0.00000  0.00000  1
 Si  Si1  1  0.66949  0.16949  0.33898  1
 Si  Si2  1  0.58051  0.58051  0.16102  1
 Si  Si3  1  0.83051  0.33051  0.66102  1
 Si  Si4  1  0.41949  0.41949  0.83898  1
