CIF file written using JARVIS-Tools package.
data_DyYFe4
_symmetry_space_group_name_H-M  'F-43m'
_cell_length_a       5.09796
_cell_length_b       5.09795
_cell_length_c       5.09795
_cell_angle_alpha    90
_cell_angle_beta     60
_cell_angle_gamma    120

_symmetry_Int_Tables_number  216
_chemical_formula_structural  DyYFe4
_chemical_formula_sum  DyYFe4
_cell_volume  93.68550271436473
_cell_formula_units_Z  1
loop_
  _symmetry_equiv_pos_site_id
 _symmetry_equiv_pos_as_xyz
 1  'x, y, z'
loop_
 _atom_site_type_symbol
 _atom_site_label
 _atom_site_symmetry_multiplicity
 _atom_site_fract_x
 _atom_site_fract_y
 _atom_site_fract_z
 _atom_site_fract_occupancy
 Dy  Dy1  1  0.50000  0.75000  0.75000  1
 Fe  Fe1  1  0.75029  0.37515  0.87457  1
 Fe  Fe2  1  0.24971  0.37515  0.37515  1
 Fe  Fe3  1  0.24971  0.87457  0.37515  1
 Fe  Fe4  1  0.75029  0.37515  0.37515  1
 Y  Y1  1  0.00000  0.00000  0.00000  1
