CIF file written using JARVIS-Tools package.
data_LiH3CO3
_symmetry_space_group_name_H-M  'Pna2_1'
_cell_length_a       4.79932
_cell_length_b       6.28161
_cell_length_c       9.93972
_cell_angle_alpha    90
_cell_angle_beta     90
_cell_angle_gamma    90

_symmetry_Int_Tables_number  33
_chemical_formula_structural  LiH3CO3
_chemical_formula_sum  Li4H2C4O2
_cell_volume  299.6570211929493
_cell_formula_units_Z  4
loop_
  _symmetry_equiv_pos_site_id
 _symmetry_equiv_pos_as_xyz
 1  'x, y, z'
loop_
 _atom_site_type_symbol
 _atom_site_label
 _atom_site_symmetry_multiplicity
 _atom_site_fract_x
 _atom_site_fract_y
 _atom_site_fract_z
 _atom_site_fract_occupancy
 C  C1  1  0.24396  0.11138  0.20091  1
 C  C2  1  0.74396  0.88862  0.79909  1
 C  C3  1  0.24396  0.38862  0.70091  1
 C  C4  1  0.74396  0.61138  0.29909  1
 H  H1  1  0.62600  0.10418  0.37081  1
 H  H2  1  0.62600  0.39582  0.87081  1
 H  H3  1  0.62161  0.65802  0.20892  1
 H  H4  1  0.85098  0.47986  0.98057  1
 H  H5  1  0.12600  0.60418  0.12919  1
 H  H6  1  0.62161  0.84198  0.70892  1
 H  H7  1  0.12161  0.15802  0.29108  1
 H  H8  1  0.12161  0.34198  0.79108  1
 H  H9  1  0.35098  0.97986  0.51943  1
 H  H10  1  0.12600  0.89582  0.62919  1
 H  H11  1  0.85098  0.02014  0.48057  1
 H  H12  1  0.35098  0.52014  0.01943  1
 Li  Li1  1  0.72707  0.38445  0.55090  1
 Li  Li2  1  0.72707  0.11555  0.05090  1
 Li  Li3  1  0.22707  0.61555  0.44910  1
 Li  Li4  1  0.22707  0.88445  0.94910  1
 O  O1  1  0.00640  0.90333  0.78621  1
 O  O2  1  0.50640  0.09667  0.21379  1
 O  O3  1  0.17618  0.89611  0.53068  1
 O  O4  1  0.67618  0.39611  0.96932  1
 O  O5  1  0.11300  0.42163  0.59243  1
 O  O6  1  0.61300  0.57837  0.40757  1
 O  O7  1  0.17618  0.60389  0.03068  1
 O  O8  1  0.00640  0.59667  0.28621  1
 O  O9  1  0.61300  0.92163  0.90757  1
 O  O10  1  0.50640  0.40333  0.71379  1
 O  O11  1  0.67618  0.10389  0.46932  1
 O  O12  1  0.11300  0.07837  0.09243  1
