CIF file written using JARVIS-Tools package.
data_UF5
_symmetry_space_group_name_H-M  'I-42d'
_cell_length_a       5.76889
_cell_length_b       8.71109
_cell_length_c       8.71109
_cell_angle_alpha    83.7053
_cell_angle_beta     70.6631
_cell_angle_gamma    70.6631

_symmetry_Int_Tables_number  122
_chemical_formula_structural  UF5
_chemical_formula_sum  U4F20
_cell_volume  389.76413505231136
_cell_formula_units_Z  4
loop_
  _symmetry_equiv_pos_site_id
 _symmetry_equiv_pos_as_xyz
 1  'x, y, z'
loop_
 _atom_site_type_symbol
 _atom_site_label
 _atom_site_symmetry_multiplicity
 _atom_site_fract_x
 _atom_site_fract_y
 _atom_site_fract_z
 _atom_site_fract_occupancy
 F  F1  1  0.15231  0.71674  0.55496  1
 F  F2  1  0.85289  0.38818  0.27234  1
 F  F3  1  0.87477  0.27234  0.61182  1
 F  F4  1  0.75893  0.72766  0.38818  1
 F  F5  1  0.37252  0.00248  0.50248  1
 F  F6  1  0.12500  0.50248  0.99752  1
 F  F7  1  0.62500  0.49752  0.00248  1
 F  F8  1  0.87748  0.99752  0.49752  1
 F  F9  1  0.09769  0.94504  0.78326  1
 F  F10  1  0.11905  0.78326  0.05496  1
 F  F11  1  0.51341  0.61182  0.72766  1
 F  F12  1  0.82599  0.05496  0.21674  1
 F  F13  1  0.42401  0.28326  0.44504  1
 F  F14  1  0.29274  0.55496  0.28326  1
 F  F15  1  0.13095  0.44504  0.71674  1
 F  F16  1  0.49107  0.11182  0.77234  1
 F  F17  1  0.73659  0.77234  0.88818  1
 F  F18  1  0.39711  0.22766  0.11182  1
 F  F19  1  0.37523  0.88818  0.22766  1
 F  F20  1  0.95726  0.21674  0.94504  1
 U  U1  1  0.12500  0.67847  0.82153  1
 U  U2  1  0.05347  0.82153  0.32153  1
 U  U3  1  0.62500  0.32153  0.17847  1
 U  U4  1  0.19653  0.17847  0.67847  1
