CIF file written using JARVIS-Tools package.
data_PrZn2
_symmetry_space_group_name_H-M  'Imma'
_cell_length_a       4.61538
_cell_length_b       5.80789
_cell_length_c       5.80789
_cell_angle_alpha    81.3367
_cell_angle_beta     66.5882
_cell_angle_gamma    66.5882

_symmetry_Int_Tables_number  74
_chemical_formula_structural  PrZn2
_chemical_formula_sum  Pr2Zn4
_cell_volume  131.10027967844343
_cell_formula_units_Z  2
loop_
  _symmetry_equiv_pos_site_id
 _symmetry_equiv_pos_as_xyz
 1  'x, y, z'
loop_
 _atom_site_type_symbol
 _atom_site_label
 _atom_site_symmetry_multiplicity
 _atom_site_fract_x
 _atom_site_fract_y
 _atom_site_fract_z
 _atom_site_fract_occupancy
 Pr  Pr1  1  0.75000  0.71272  0.78728  1
 Pr  Pr2  1  0.25000  0.28728  0.21272  1
 Zn  Zn1  1  0.55390  0.28091  0.61128  1
 Zn  Zn2  1  0.44610  0.71909  0.38872  1
 Zn  Zn3  1  0.05390  0.11128  0.78091  1
 Zn  Zn4  1  0.94610  0.88872  0.21909  1
