CIF file written using JARVIS-Tools package.
data_Li7CuO4
_symmetry_space_group_name_H-M  'P4_2/nmc'
_cell_length_a       6.60226
_cell_length_b       6.60226
_cell_length_c       4.67736
_cell_angle_alpha    90
_cell_angle_beta     90
_cell_angle_gamma    90

_symmetry_Int_Tables_number  137
_chemical_formula_structural  Li7CuO4
_chemical_formula_sum  Li4Cu2O8
_cell_volume  203.88505403535203
_cell_formula_units_Z  2
loop_
  _symmetry_equiv_pos_site_id
 _symmetry_equiv_pos_as_xyz
 1  'x, y, z'
loop_
 _atom_site_type_symbol
 _atom_site_label
 _atom_site_symmetry_multiplicity
 _atom_site_fract_x
 _atom_site_fract_y
 _atom_site_fract_z
 _atom_site_fract_occupancy
 Cu  Cu1  1  0.00000  0.50000  0.75017  1
 Cu  Cu2  1  0.50000  0.00000  0.25017  1
 Li  Li1  1  0.74766  0.75236  0.74994  1
 Li  Li2  1  0.25234  0.24764  0.74994  1
 Li  Li3  1  0.74766  0.24764  0.74994  1
 Li  Li4  1  0.50000  0.00000  0.75014  1
 Li  Li5  1  0.50000  0.50000  0.77059  1
 Li  Li6  1  0.25234  0.75236  0.74994  1
 Li  Li7  1  0.50000  0.50000  0.27059  1
 Li  Li8  1  0.24764  0.25234  0.24994  1
 Li  Li9  1  0.24764  0.74766  0.24994  1
 Li  Li10  1  0.00000  0.00000  0.22944  1
 Li  Li11  1  0.00000  0.50000  0.25014  1
 Li  Li12  1  0.75236  0.25234  0.24994  1
 Li  Li13  1  0.75236  0.74766  0.24994  1
 Li  Li14  1  0.00000  0.00000  0.72944  1
 O  O1  1  0.00000  0.24082  0.48259  1
 O  O2  1  0.00000  0.75918  0.48259  1
 O  O3  1  0.74080  0.50000  0.01742  1
 O  O4  1  0.50000  0.74080  0.51742  1
 O  O5  1  0.50000  0.25920  0.51742  1
 O  O6  1  0.25920  0.50000  0.01742  1
 O  O7  1  0.24082  0.00000  0.98259  1
 O  O8  1  0.75918  0.00000  0.98259  1
