CIF file written using JARVIS-Tools package.
data_CoH6Cl2
_symmetry_space_group_name_H-M  'C2/m'
_cell_length_a       4.61893
_cell_length_b       4.61893
_cell_length_c       5.80671
_cell_angle_alpha    80.2391
_cell_angle_beta     80.2391
_cell_angle_gamma    74.856

_symmetry_Int_Tables_number  12
_chemical_formula_structural  CoH6Cl2
_chemical_formula_sum  CoH6Cl2
_cell_volume  116.82428649342742
_cell_formula_units_Z  1
loop_
  _symmetry_equiv_pos_site_id
 _symmetry_equiv_pos_as_xyz
 1  'x, y, z'
loop_
 _atom_site_type_symbol
 _atom_site_label
 _atom_site_symmetry_multiplicity
 _atom_site_fract_x
 _atom_site_fract_y
 _atom_site_fract_z
 _atom_site_fract_occupancy
 Cl  Cl1  1  0.80003  0.80003  0.77708  1
 Cl  Cl2  1  0.19997  0.19997  0.22292  1
 Co  Co1  1  0.00000  0.00000  0.00000  1
 H  H1  1  0.09230  0.23963  0.77317  1
 H  H2  1  0.90770  0.76037  0.22683  1
 H  H3  1  0.76037  0.90770  0.22683  1
 H  H4  1  0.23963  0.09230  0.77317  1
 H  H5  1  0.51514  0.51514  0.55795  1
 H  H6  1  0.48486  0.48486  0.44205  1
