CIF file written using JARVIS-Tools package.
data_Sr2UO4
_symmetry_space_group_name_H-M  'I4/mmm'
_cell_length_a       4.39992
_cell_length_b       4.39992
_cell_length_c       7.15892
_cell_angle_alpha    107.897
_cell_angle_beta     107.897
_cell_angle_gamma    90

_symmetry_Int_Tables_number  139
_chemical_formula_structural  Sr2UO4
_chemical_formula_sum  Sr2UO4
_cell_volume  124.81948056973309
_cell_formula_units_Z  1
loop_
  _symmetry_equiv_pos_site_id
 _symmetry_equiv_pos_as_xyz
 1  'x, y, z'
loop_
 _atom_site_type_symbol
 _atom_site_label
 _atom_site_symmetry_multiplicity
 _atom_site_fract_x
 _atom_site_fract_y
 _atom_site_fract_z
 _atom_site_fract_occupancy
 O  O1  1  0.50000  0.00000  0.00000  1
 O  O2  1  -0.00000  0.50000  0.00000  1
 O  O3  1  0.17064  0.17064  0.34127  1
 O  O4  1  0.82936  0.82936  0.65873  1
 Sr  Sr1  1  0.35290  0.35290  0.70579  1
 Sr  Sr2  1  0.64710  0.64710  0.29421  1
 U  U1  1  0.00000  0.00000  0.00000  1
