CIF file written using JARVIS-Tools package.
data_KCrO2
_symmetry_space_group_name_H-M  'R-3m'
_cell_length_a       6.18184
_cell_length_b       6.18184
_cell_length_c       6.18184
_cell_angle_alpha    28.8746
_cell_angle_beta     28.8746
_cell_angle_gamma    28.8746

_symmetry_Int_Tables_number  166
_chemical_formula_structural  KCrO2
_chemical_formula_sum  KCrO2
_cell_volume  48.715922789852506
_cell_formula_units_Z  1
loop_
  _symmetry_equiv_pos_site_id
 _symmetry_equiv_pos_as_xyz
 1  'x, y, z'
loop_
 _atom_site_type_symbol
 _atom_site_label
 _atom_site_symmetry_multiplicity
 _atom_site_fract_x
 _atom_site_fract_y
 _atom_site_fract_z
 _atom_site_fract_occupancy
 Cr  Cr1  1  0.50000  0.50000  0.50000  1
 K  K1  1  0.00000  0.00000  0.00000  1
 O  O1  1  0.77671  0.77671  0.77671  1
 O  O2  1  0.22329  0.22329  0.22329  1
