CIF file written using JARVIS-Tools package.
data_S
_symmetry_space_group_name_H-M  'Fddd'
_cell_length_a       8.21416
_cell_length_b       8.21416
_cell_length_c       13.3274
_cell_angle_alpha    104.195
_cell_angle_beta     104.195
_cell_angle_gamma    101.786

_symmetry_Int_Tables_number  70
_chemical_formula_structural  S
_chemical_formula_sum  S32
_cell_volume  811.0311419247944
_cell_formula_units_Z  32
loop_
  _symmetry_equiv_pos_site_id
 _symmetry_equiv_pos_as_xyz
 1  'x, y, z'
loop_
 _atom_site_type_symbol
 _atom_site_label
 _atom_site_symmetry_multiplicity
 _atom_site_fract_x
 _atom_site_fract_y
 _atom_site_fract_z
 _atom_site_fract_occupancy
 S  S1  1  0.13889  0.04799  0.89912  1
 S  S2  1  0.14887  0.73977  0.60088  1
 S  S3  1  0.95201  0.86111  0.60088  1
 S  S4  1  0.26023  0.85113  0.89912  1
 S  S5  1  0.86111  0.95201  0.10088  1
 S  S6  1  0.85113  0.26023  0.39912  1
 S  S7  1  0.04799  0.13889  0.39912  1
 S  S8  1  0.73977  0.14887  0.10088  1
 S  S9  1  0.31307  0.28239  0.00575  1
 S  S10  1  0.27665  0.80733  0.49425  1
 S  S11  1  0.71761  0.68693  0.49425  1
 S  S12  1  0.19267  0.72335  0.00575  1
 S  S13  1  0.68693  0.71761  0.99425  1
 S  S14  1  0.72335  0.19267  0.50575  1
 S  S15  1  0.28239  0.31307  0.50575  1
 S  S16  1  0.80733  0.27665  0.99425  1
 S  S17  1  0.25726  0.32682  0.15179  1
 S  S18  1  0.17503  0.60547  0.34821  1
 S  S19  1  0.67318  0.74274  0.34821  1
 S  S20  1  0.39453  0.82497  0.15179  1
 S  S21  1  0.74274  0.67318  0.84821  1
 S  S22  1  0.82497  0.39453  0.65179  1
 S  S23  1  0.32682  0.25726  0.65179  1
 S  S24  1  0.60547  0.17503  0.84821  1
 S  S25  1  0.43491  0.25544  0.26015  1
 S  S26  1  0.99528  0.67475  0.23985  1
 S  S27  1  0.74456  0.56509  0.23985  1
 S  S28  1  0.32525  0.00472  0.26015  1
 S  S29  1  0.56509  0.74456  0.73985  1
 S  S30  1  0.00472  0.32525  0.76015  1
 S  S31  1  0.25544  0.43491  0.76015  1
 S  S32  1  0.67475  0.99528  0.73985  1
