CIF file written using JARVIS-Tools package.
data_Ho4SiGe3
_symmetry_space_group_name_H-M  'Pmm2'
_cell_length_a       3.92075
_cell_length_b       4.24316
_cell_length_c       10.6151
_cell_angle_alpha    90
_cell_angle_beta     90
_cell_angle_gamma    90

_symmetry_Int_Tables_number  25
_chemical_formula_structural  Ho4SiGe3
_chemical_formula_sum  Ho4SiGe3
_cell_volume  176.59748275901148
_cell_formula_units_Z  1
loop_
  _symmetry_equiv_pos_site_id
 _symmetry_equiv_pos_as_xyz
 1  'x, y, z'
loop_
 _atom_site_type_symbol
 _atom_site_label
 _atom_site_symmetry_multiplicity
 _atom_site_fract_x
 _atom_site_fract_y
 _atom_site_fract_z
 _atom_site_fract_occupancy
 Ge  Ge1  1  0.00000  0.50000  0.91181  1
 Ge  Ge2  1  0.50000  0.50000  0.08718  1
 Ge  Ge3  1  0.50000  0.00000  0.58363  1
 Ho  Ho1  1  0.00000  0.00000  0.14034  1
 Ho  Ho2  1  0.00000  0.50000  0.63690  1
 Ho  Ho3  1  0.50000  0.50000  0.36207  1
 Ho  Ho4  1  0.50000  0.00000  0.86159  1
 Si  Si1  1  0.00000  0.00000  0.41648  1
