CIF file written using JARVIS-Tools package.
data_LaSc3B4O12
_symmetry_space_group_name_H-M  'R32'
_cell_length_a       6.21084
_cell_length_b       6.21084
_cell_length_c       6.21084
_cell_angle_alpha    100.935
_cell_angle_beta     100.935
_cell_angle_gamma    100.935

_symmetry_Int_Tables_number  155
_chemical_formula_structural  LaSc3B4O12
_chemical_formula_sum  LaSc3B4O2
_cell_volume  224.54109368125225
_cell_formula_units_Z  1
loop_
  _symmetry_equiv_pos_site_id
 _symmetry_equiv_pos_as_xyz
 1  'x, y, z'
loop_
 _atom_site_type_symbol
 _atom_site_label
 _atom_site_symmetry_multiplicity
 _atom_site_fract_x
 _atom_site_fract_y
 _atom_site_fract_z
 _atom_site_fract_occupancy
 B  B1  1  0.99088  0.50000  0.00912  1
 B  B2  1  0.00912  0.99088  0.50000  1
 B  B3  1  0.50000  0.50000  0.50000  1
 B  B4  1  0.50000  0.00912  0.99088  1
 La  La1  1  0.00000  0.00000  0.00000  1
 O  O1  1  0.37799  0.17215  0.00674  1
 O  O2  1  0.13574  0.50000  0.86426  1
 O  O3  1  0.35474  0.64526  0.50000  1
 O  O4  1  0.00674  0.37799  0.17215  1
 O  O5  1  0.99326  0.82785  0.62201  1
 O  O6  1  0.50000  0.86426  0.13574  1
 O  O7  1  0.62201  0.99326  0.82785  1
 O  O8  1  0.50000  0.35474  0.64526  1
 O  O9  1  0.82785  0.62201  0.99326  1
 O  O10  1  0.17215  0.00674  0.37799  1
 O  O11  1  0.86426  0.13574  0.50000  1
 O  O12  1  0.64526  0.50000  0.35474  1
 Sc  Sc1  1  0.50539  0.00000  0.49461  1
 Sc  Sc2  1  0.00000  0.49461  0.50539  1
 Sc  Sc3  1  0.49461  0.50539  -0.00000  1
