CIF file written using JARVIS-Tools package.
data_KMnCl
_symmetry_space_group_name_H-M  'P4/mmm'
_cell_length_a       6.01916
_cell_length_b       6.89563
_cell_length_c       6.89563
_cell_angle_alpha    51.7534
_cell_angle_beta     64.1226
_cell_angle_gamma    64.1226

_symmetry_Int_Tables_number  123
_chemical_formula_structural  KMnCl
_chemical_formula_sum  K2Mn2Cl2
_cell_volume  196.55877652693846
_cell_formula_units_Z  2
loop_
  _symmetry_equiv_pos_site_id
 _symmetry_equiv_pos_as_xyz
 1  'x, y, z'
loop_
 _atom_site_type_symbol
 _atom_site_label
 _atom_site_symmetry_multiplicity
 _atom_site_fract_x
 _atom_site_fract_y
 _atom_site_fract_z
 _atom_site_fract_occupancy
 Cl  Cl1  1  0.24994  0.25000  0.25000  1
 Cl  Cl2  1  0.75006  0.75000  0.75000  1
 K  K1  1  0.25006  0.75000  0.75000  1
 K  K2  1  0.74994  0.25000  0.25000  1
 Mn  Mn1  1  0.50000  0.00000  0.00000  1
 Mn  Mn2  1  -0.00000  0.50000  0.50000  1
