CIF file written using JARVIS-Tools package.
data_NaAlSiO4
_symmetry_space_group_name_H-M  'P1'
_cell_length_a       9.68566
_cell_length_b       9.59516
_cell_length_c       9.42669
_cell_angle_alpha    86.5638
_cell_angle_beta     91.5569
_cell_angle_gamma    119.841

_symmetry_Int_Tables_number  1
_chemical_formula_structural  NaAlSiO4
_chemical_formula_sum  Na8Al8Si8O32
_cell_volume  758.544474593691
_cell_formula_units_Z  8
loop_
  _symmetry_equiv_pos_site_id
 _symmetry_equiv_pos_as_xyz
 1  'x, y, z'
loop_
 _atom_site_type_symbol
 _atom_site_label
 _atom_site_symmetry_multiplicity
 _atom_site_fract_x
 _atom_site_fract_y
 _atom_site_fract_z
 _atom_site_fract_occupancy
 Al  Al1  1  0.23805  0.93425  0.66464  1
 Al  Al2  1  0.68103  0.76496  0.69588  1
 Al  Al3  1  0.13366  0.36798  0.68010  1
 Al  Al4  1  0.89883  0.64733  0.17905  1
 Al  Al5  1  0.32315  0.23130  0.18482  1
 Al  Al6  1  0.32390  0.66053  0.15827  1
 Al  Al7  1  0.66515  0.31524  0.67068  1
 Al  Al8  1  0.75681  0.08239  0.19654  1
 Na  Na1  1  0.49641  -0.06056  0.47093  1
 Na  Na2  1  0.56909  0.51371  0.98356  1
 Na  Na3  1  -0.00863  -0.01364  0.02200  1
 Na  Na4  1  0.44356  0.46506  0.45569  1
 Na  Na5  1  0.00773  0.59321  0.49671  1
 Na  Na6  1  -0.00998  0.42449  0.96586  1
 Na  Na7  1  0.46559  0.04496  0.97387  1
 Na  Na8  1  -0.01586  -0.00748  0.48510  1
 O  O1  1  0.74704  0.15477  0.01275  1
 O  O2  1  0.66976  0.16311  0.30361  1
 O  O3  1  0.12166  0.86987  0.40062  1
 O  O4  1  0.26002  0.02826  0.15559  1
 O  O5  1  0.26898  0.00366  0.47808  1
 O  O6  1  0.19384  0.52679  0.79461  1
 O  O7  1  0.35128  0.83990  0.70858  1
 O  O8  1  0.59472  0.31736  0.49589  1
 O  O9  1  0.22997  0.16070  0.91256  1
 O  O10  1  0.29690  0.30466  0.00751  1
 O  O11  1  0.48960  0.64003  0.21240  1
 O  O12  1  0.52153  0.29516  0.79640  1
 O  O13  1  0.14969  0.46903  0.17414  1
 O  O14  1  0.58836  0.73563  0.51919  1
 O  O15  1  0.83414  0.96995  0.68864  1
 O  O16  1  0.84443  0.49324  0.70262  1
 O  O17  1  0.70042  0.15359  0.68992  1
 O  O18  1  0.71842  0.75981  0.41767  1
 O  O19  1  0.51611  0.69490  0.80814  1
 O  O20  1  0.52724  0.33594  0.22287  1
 O  O21  1  0.84261  0.54554  0.01340  1
 O  O22  1  0.81749  0.07629  0.92709  1
 O  O23  1  0.82831  0.48911  0.31015  1
 O  O24  1  0.05155  0.30030  0.43096  1
 O  O25  1  0.80063  0.76187  0.16132  1
 O  O26  1  0.28377  0.31628  0.65631  1
 O  O27  1  0.31645  0.79880  0.26900  1
 O  O28  1  0.96133  0.14151  0.21619  1
 O  O29  1  0.14602  0.45822  0.50150  1
 O  O30  1  0.03271  0.80694  0.66960  1
 O  O31  1  0.94933  0.69519  0.92093  1
 O  O32  1  0.34225  0.75111  0.98500  1
 Si  Si1  1  0.65571  0.32351  0.33316  1
 Si  Si2  1  0.35065  0.70174  0.82254  1
 Si  Si3  1  0.17944  0.85050  0.23869  1
 Si  Si4  1  0.32967  0.20084  0.75740  1
 Si  Si5  1  0.85423  0.13825  0.74477  1
 Si  Si6  1  0.12449  0.30472  0.26386  1
 Si  Si7  1  0.87134  0.66748  0.75038  1
 Si  Si8  1  0.66942  0.79170  0.24224  1
