CIF file written using JARVIS-Tools package.
data_TeO2
_symmetry_space_group_name_H-M  'Cmcm'
_cell_length_a       3.32573
_cell_length_b       3.4194
_cell_length_c       6.79403
_cell_angle_alpha    90
_cell_angle_beta     104.167
_cell_angle_gamma    90

_symmetry_Int_Tables_number  63
_chemical_formula_structural  TeO2
_chemical_formula_sum  Te2O4
_cell_volume  74.91189092030064
_cell_formula_units_Z  2
loop_
  _symmetry_equiv_pos_site_id
 _symmetry_equiv_pos_as_xyz
 1  'x, y, z'
loop_
 _atom_site_type_symbol
 _atom_site_label
 _atom_site_symmetry_multiplicity
 _atom_site_fract_x
 _atom_site_fract_y
 _atom_site_fract_z
 _atom_site_fract_occupancy
 O  O1  1  0.24999  0.75000  0.49997  1
 O  O2  1  0.75001  0.25000  0.50003  1
 O  O3  1  0.40743  0.25000  0.81485  1
 O  O4  1  0.59257  0.75000  0.18515  1
 Te  Te1  1  0.14251  0.25000  0.28501  1
 Te  Te2  1  0.85749  0.75000  0.71499  1
