CIF file written using JARVIS-Tools package.
data_Ba3NiO4
_symmetry_space_group_name_H-M  'R-3c'
_cell_length_a       7.2012
_cell_length_b       7.2012
_cell_length_c       7.2012
_cell_angle_alpha    66.4096
_cell_angle_beta     66.4096
_cell_angle_gamma    66.4096

_symmetry_Int_Tables_number  167
_chemical_formula_structural  Ba3NiO4
_chemical_formula_sum  Ba6Ni2O8
_cell_volume  300.544047269632
_cell_formula_units_Z  2
loop_
  _symmetry_equiv_pos_site_id
 _symmetry_equiv_pos_as_xyz
 1  'x, y, z'
loop_
 _atom_site_type_symbol
 _atom_site_label
 _atom_site_symmetry_multiplicity
 _atom_site_fract_x
 _atom_site_fract_y
 _atom_site_fract_z
 _atom_site_fract_occupancy
 Ba  Ba1  1  0.75000  0.33558  0.16443  1
 Ba  Ba2  1  0.16443  0.75000  0.33557  1
 Ba  Ba3  1  0.25000  0.66442  0.83557  1
 Ba  Ba4  1  0.66443  0.83557  0.25000  1
 Ba  Ba5  1  0.83557  0.25000  0.66443  1
 Ba  Ba6  1  0.33558  0.16442  0.75000  1
 Ni  Ni1  1  0.75000  0.75000  0.75000  1
 Ni  Ni2  1  0.25000  0.25000  0.25000  1
 O  O1  1  0.75000  0.98299  0.51701  1
 O  O2  1  0.48299  0.25000  0.01702  1
 O  O3  1  0.00000  0.00000  0.00000  1
 O  O4  1  0.50000  0.50000  0.50000  1
 O  O5  1  0.01701  0.48298  0.25000  1
 O  O6  1  0.51701  0.75000  0.98299  1
 O  O7  1  0.25000  0.01701  0.48298  1
 O  O8  1  0.98299  0.51701  0.75000  1
