CIF file written using JARVIS-Tools package.
data_Tl2Au
_symmetry_space_group_name_H-M  'I4/mcm'
_cell_length_a       6.13002
_cell_length_b       6.13002
_cell_length_c       6.13002
_cell_angle_alpha    101.315
_cell_angle_beta     101.315
_cell_angle_gamma    127.416

_symmetry_Int_Tables_number  140
_chemical_formula_structural  Tl2Au
_chemical_formula_sum  Tl4Au2
_cell_volume  164.02672505068514
_cell_formula_units_Z  2
loop_
  _symmetry_equiv_pos_site_id
 _symmetry_equiv_pos_as_xyz
 1  'x, y, z'
loop_
 _atom_site_type_symbol
 _atom_site_label
 _atom_site_symmetry_multiplicity
 _atom_site_fract_x
 _atom_site_fract_y
 _atom_site_fract_z
 _atom_site_fract_occupancy
 Au  Au1  1  0.00000  0.00000  0.00000  1
 Au  Au2  1  0.50000  0.50000  0.00000  1
 Tl  Tl1  1  0.65194  0.15194  0.80387  1
 Tl  Tl2  1  0.84806  0.65194  0.50000  1
 Tl  Tl3  1  0.15194  0.34806  0.50000  1
 Tl  Tl4  1  0.34806  0.84806  0.19613  1
