CIF file written using JARVIS-Tools package.
data_SnCCl3
_symmetry_space_group_name_H-M  'R3m'
_cell_length_a       4.8223
_cell_length_b       4.82229
_cell_length_c       4.8223
_cell_angle_alpha    83.3484
_cell_angle_beta     83.3484
_cell_angle_gamma    83.3484

_symmetry_Int_Tables_number  160
_chemical_formula_structural  SnCCl3
_chemical_formula_sum  SnCCl3
_cell_volume  110.03787757730589
_cell_formula_units_Z  1
loop_
  _symmetry_equiv_pos_site_id
 _symmetry_equiv_pos_as_xyz
 1  'x, y, z'
loop_
 _atom_site_type_symbol
 _atom_site_label
 _atom_site_symmetry_multiplicity
 _atom_site_fract_x
 _atom_site_fract_y
 _atom_site_fract_z
 _atom_site_fract_occupancy
 C  C1  1  0.93200  0.93200  0.93200  1
 Cl  Cl1  1  -0.00451  0.53686  -0.00451  1
 Cl  Cl2  1  -0.00451  -0.00451  0.53686  1
 Cl  Cl3  1  0.53686  -0.00451  -0.00451  1
 Sn  Sn1  1  0.50917  0.50917  0.50917  1
