CIF file written using JARVIS-Tools package.
data_LiCuSbO4
_symmetry_space_group_name_H-M  'Imma'
_cell_length_a       6.10437
_cell_length_b       6.26825
_cell_length_c       6.26825
_cell_angle_alpha    54.8678
_cell_angle_beta     60.8612
_cell_angle_gamma    60.8612

_symmetry_Int_Tables_number  74
_chemical_formula_structural  LiCuSbO4
_chemical_formula_sum  Li2Cu2Sb2O8
_cell_volume  163.99711847995573
_cell_formula_units_Z  2
loop_
  _symmetry_equiv_pos_site_id
 _symmetry_equiv_pos_as_xyz
 1  'x, y, z'
loop_
 _atom_site_type_symbol
 _atom_site_label
 _atom_site_symmetry_multiplicity
 _atom_site_fract_x
 _atom_site_fract_y
 _atom_site_fract_z
 _atom_site_fract_occupancy
 Cu  Cu1  1  0.50000  0.00000  0.50000  1
 Cu  Cu2  1  0.50000  0.50000  -0.00000  1
 Li  Li1  1  0.09468  0.15532  0.15532  1
 Li  Li2  1  0.90532  0.84468  0.84468  1
 O  O1  1  0.24427  0.28434  0.28434  1
 O  O2  1  0.23541  0.28095  0.74823  1
 O  O3  1  0.23541  0.74823  0.28095  1
 O  O4  1  0.68704  0.28434  0.28434  1
 O  O5  1  0.31296  0.71566  0.71566  1
 O  O6  1  0.76459  0.71905  0.25177  1
 O  O7  1  0.76459  0.25177  0.71905  1
 O  O8  1  0.75573  0.71566  0.71566  1
 Sb  Sb1  1  -0.00000  0.50000  0.50000  1
 Sb  Sb2  1  0.50000  0.50000  0.50000  1
