CIF file written using JARVIS-Tools package.
data_LiUPH8O10
_symmetry_space_group_name_H-M  'P4/n'
_cell_length_a       6.90242
_cell_length_b       6.90242
_cell_length_c       9.03169
_cell_angle_alpha    90
_cell_angle_beta     90
_cell_angle_gamma    90

_symmetry_Int_Tables_number  85
_chemical_formula_structural  LiUPH8O10
_chemical_formula_sum  Li2U2P2H6O20
_cell_volume  430.3000091572246
_cell_formula_units_Z  2
loop_
  _symmetry_equiv_pos_site_id
 _symmetry_equiv_pos_as_xyz
 1  'x, y, z'
loop_
 _atom_site_type_symbol
 _atom_site_label
 _atom_site_symmetry_multiplicity
 _atom_site_fract_x
 _atom_site_fract_y
 _atom_site_fract_z
 _atom_site_fract_occupancy
 H  H1  1  0.33531  0.57516  0.72907  1
 H  H2  1  0.41589  0.10431  0.61461  1
 H  H3  1  0.91589  0.60431  0.38539  1
 H  H4  1  0.39569  0.41589  0.61461  1
 H  H5  1  0.66469  0.42484  0.27093  1
 H  H6  1  0.89569  0.91589  0.38539  1
 H  H7  1  0.58411  0.89569  0.38539  1
 H  H8  1  0.42484  0.83531  0.27093  1
 H  H9  1  0.83531  0.07516  0.27093  1
 H  H10  1  0.07516  0.66469  0.27093  1
 H  H11  1  0.08411  0.39569  0.61461  1
 H  H12  1  0.60431  0.58411  0.38539  1
 H  H13  1  0.16469  0.92484  0.72907  1
 H  H14  1  0.10431  0.08411  0.61461  1
 H  H15  1  0.57516  0.16469  0.72907  1
 H  H16  1  0.92484  0.33531  0.72907  1
 Li  Li1  1  0.75000  0.25000  0.50000  1
 Li  Li2  1  0.25000  0.75000  0.50000  1
 O  O1  1  0.69307  0.47110  0.37254  1
 O  O2  1  0.69495  0.07883  0.89745  1
 O  O3  1  0.19495  0.57883  0.10255  1
 O  O4  1  0.25000  0.25000  0.90272  1
 O  O5  1  0.92117  0.19495  0.10255  1
 O  O6  1  0.30505  0.92117  0.10255  1
 O  O7  1  0.19307  0.97110  0.62746  1
 O  O8  1  0.52890  0.19307  0.62746  1
 O  O9  1  0.75000  0.75000  0.09728  1
 O  O10  1  0.42117  0.69495  0.89745  1
 O  O11  1  0.97110  0.30693  0.62746  1
 O  O12  1  0.80505  0.42117  0.89745  1
 O  O13  1  0.80693  0.02890  0.37254  1
 O  O14  1  0.57883  0.30505  0.10255  1
 O  O15  1  0.02890  0.69307  0.37254  1
 O  O16  1  0.07883  0.80505  0.89745  1
 O  O17  1  0.47110  0.80693  0.37254  1
 O  O18  1  0.25000  0.25000  0.30608  1
 O  O19  1  0.75000  0.75000  0.69392  1
 O  O20  1  0.30693  0.52890  0.62746  1
 P  P1  1  0.25000  0.75000  0.00000  1
 P  P2  1  0.75000  0.25000  0.00000  1
 U  U1  1  0.25000  0.25000  0.10430  1
 U  U2  1  0.75000  0.75000  0.89570  1
