CIF file written using JARVIS-Tools package.
data_Ba7Al4Ge9
_symmetry_space_group_name_H-M  'Fmm2'
_cell_length_a       6.78399
_cell_length_b       6.78396
_cell_length_c       13.6662
_cell_angle_alpha    101.927
_cell_angle_beta     101.927
_cell_angle_gamma    99.6364

_symmetry_Int_Tables_number  42
_chemical_formula_structural  Ba7Al4Ge9
_chemical_formula_sum  Ba7Al4Ge9
_cell_volume  587.4077396700958
_cell_formula_units_Z  1
loop_
  _symmetry_equiv_pos_site_id
 _symmetry_equiv_pos_as_xyz
 1  'x, y, z'
loop_
 _atom_site_type_symbol
 _atom_site_label
 _atom_site_symmetry_multiplicity
 _atom_site_fract_x
 _atom_site_fract_y
 _atom_site_fract_z
 _atom_site_fract_occupancy
 Al  Al1  1  0.58861  0.58861  0.59970  1
 Al  Al2  1  0.98891  0.98891  0.40031  1
 Al  Al3  1  0.05580  0.05580  0.12110  1
 Al  Al4  1  0.93470  0.93470  0.87890  1
 Ba  Ba1  1  0.41086  0.96460  0.79434  1
 Ba  Ba2  1  0.62494  0.62494  1.00000  1
 Ba  Ba3  1  0.96460  0.41086  0.79434  1
 Ba  Ba4  1  0.61653  0.17026  0.20566  1
 Ba  Ba5  1  0.04559  0.54559  0.50000  1
 Ba  Ba6  1  0.17026  0.61653  0.20566  1
 Ba  Ba7  1  0.54559  0.04559  0.50000  1
 Ge  Ge1  1  0.23764  0.23764  0.00000  1
 Ge  Ge2  1  0.41609  0.41609  0.71387  1
 Ge  Ge3  1  0.70221  0.70221  0.28614  1
 Ge  Ge4  1  0.10314  0.10313  0.59427  1
 Ge  Ge5  1  0.82412  0.21067  -0.00000  1
 Ge  Ge6  1  0.19496  0.19496  0.31172  1
 Ge  Ge7  1  0.88324  0.88325  0.68827  1
 Ge  Ge8  1  0.21067  0.82412  -0.00000  1
 Ge  Ge9  1  0.50885  0.50885  0.40573  1
