CIF file written using JARVIS-Tools package.
data_KLi2BO3
_symmetry_space_group_name_H-M  'Pnma'
_cell_length_a       6.3773
_cell_length_b       6.47472
_cell_length_c       7.91913
_cell_angle_alpha    90
_cell_angle_beta     90
_cell_angle_gamma    90

_symmetry_Int_Tables_number  62
_chemical_formula_structural  KLi2BO3
_chemical_formula_sum  K4Li8B4O2
_cell_volume  326.99056657925576
_cell_formula_units_Z  4
loop_
  _symmetry_equiv_pos_site_id
 _symmetry_equiv_pos_as_xyz
 1  'x, y, z'
loop_
 _atom_site_type_symbol
 _atom_site_label
 _atom_site_symmetry_multiplicity
 _atom_site_fract_x
 _atom_site_fract_y
 _atom_site_fract_z
 _atom_site_fract_occupancy
 B  B1  1  0.25000  0.32992  0.34316  1
 B  B2  1  0.25000  0.17008  0.84316  1
 B  B3  1  0.75000  0.82992  0.15684  1
 B  B4  1  0.75000  0.67008  0.65684  1
 K  K1  1  0.75000  0.39355  0.99702  1
 K  K2  1  0.25000  0.60645  0.00298  1
 K  K3  1  0.25000  0.89355  0.50298  1
 K  K4  1  0.75000  0.10645  0.49702  1
 Li  Li1  1  0.45960  0.03506  0.14000  1
 Li  Li2  1  0.04040  0.46494  0.64000  1
 Li  Li3  1  0.95960  0.96494  0.86000  1
 Li  Li4  1  0.95960  0.53506  0.36000  1
 Li  Li5  1  0.45960  0.46494  0.64000  1
 Li  Li6  1  0.04040  0.03506  0.14000  1
 Li  Li7  1  0.54040  0.53506  0.36000  1
 Li  Li8  1  0.54040  0.96494  0.86000  1
 O  O1  1  0.05821  0.25942  0.28546  1
 O  O2  1  0.75000  0.99091  0.03751  1
 O  O3  1  0.55821  0.75942  0.21454  1
 O  O4  1  0.94179  0.75942  0.21454  1
 O  O5  1  0.05821  0.24058  0.78546  1
 O  O6  1  0.44179  0.24058  0.78546  1
 O  O7  1  0.75000  0.50909  0.53751  1
 O  O8  1  0.94179  0.74058  0.71454  1
 O  O9  1  0.44179  0.25942  0.28546  1
 O  O10  1  0.25000  0.00909  0.96249  1
 O  O11  1  0.25000  0.49091  0.46249  1
 O  O12  1  0.55821  0.74058  0.71454  1
