CIF file written using JARVIS-Tools package.
data_SiH8C2NClO
_symmetry_space_group_name_H-M  'P-1'
_cell_length_a       5.59615
_cell_length_b       6.35073
_cell_length_c       8.62866
_cell_angle_alpha    100.939
_cell_angle_beta     102.617
_cell_angle_gamma    94.1268

_symmetry_Int_Tables_number  2
_chemical_formula_structural  SiH8C2NClO
_chemical_formula_sum  Si2H6C4N2Cl2O2
_cell_volume  291.7507747130956
_cell_formula_units_Z  2
loop_
  _symmetry_equiv_pos_site_id
 _symmetry_equiv_pos_as_xyz
 1  'x, y, z'
loop_
 _atom_site_type_symbol
 _atom_site_label
 _atom_site_symmetry_multiplicity
 _atom_site_fract_x
 _atom_site_fract_y
 _atom_site_fract_z
 _atom_site_fract_occupancy
 C  C1  1  0.66429  0.91860  0.76954  1
 C  C2  1  0.33571  0.08140  0.23046  1
 C  C3  1  0.70819  0.26219  0.96427  1
 C  C4  1  0.29181  0.73781  0.03573  1
 Cl  Cl1  1  0.71120  0.59509  0.36379  1
 Cl  Cl2  1  0.28880  0.40491  0.63621  1
 H  H1  1  0.81653  0.15158  0.51980  1
 H  H2  1  0.49333  0.75301  0.05253  1
 H  H3  1  0.46190  0.90826  0.74573  1
 H  H4  1  0.84766  0.50567  0.72481  1
 H  H5  1  0.73477  0.83569  0.86852  1
 H  H6  1  0.50667  0.24699  0.94747  1
 H  H7  1  0.26523  0.16431  0.13148  1
 H  H8  1  0.20750  0.80747  0.93189  1
 H  H9  1  0.15234  0.49433  0.27519  1
 H  H10  1  0.22258  0.56595  0.01391  1
 H  H11  1  0.79250  0.19253  0.06811  1
 H  H12  1  0.28499  0.15735  0.34206  1
 H  H13  1  0.71501  0.84265  0.65794  1
 H  H14  1  0.53810  0.09174  0.25427  1
 H  H15  1  0.77742  0.43405  0.98609  1
 H  H16  1  0.18347  0.84842  0.48020  1
 N  N1  1  0.23956  0.85298  0.18569  1
 N  N2  1  0.76044  0.14702  0.81431  1
 O  O1  1  0.96371  0.83112  0.16749  1
 O  O2  1  0.03629  0.16888  0.83251  1
 Si  Si1  1  0.05895  0.70330  0.32236  1
 Si  Si2  1  0.94105  0.29670  0.67764  1
