CIF file written using JARVIS-Tools package.
data_Na3Li3Al2F12
_symmetry_space_group_name_H-M  'Ia-3d'
_cell_length_a       10.5062
_cell_length_b       10.5062
_cell_length_c       10.5062
_cell_angle_alpha    109.471
_cell_angle_beta     109.471
_cell_angle_gamma    109.471

_symmetry_Int_Tables_number  230
_chemical_formula_structural  Na3Li3Al2F12
_chemical_formula_sum  Na2Li2Al8F48
_cell_volume  892.7239576646551
_cell_formula_units_Z  4
loop_
  _symmetry_equiv_pos_site_id
 _symmetry_equiv_pos_as_xyz
 1  'x, y, z'
loop_
 _atom_site_type_symbol
 _atom_site_label
 _atom_site_symmetry_multiplicity
 _atom_site_fract_x
 _atom_site_fract_y
 _atom_site_fract_z
 _atom_site_fract_occupancy
 Al  Al1  1  0.00000  0.00000  0.00000  1
 Al  Al2  1  0.50000  0.00000  0.50000  1
 Al  Al3  1  0.50000  0.50000  -0.00000  1
 Al  Al4  1  -0.00000  0.50000  0.50000  1
 Al  Al5  1  0.50000  0.00000  0.00000  1
 Al  Al6  1  0.00000  0.00000  0.50000  1
 Al  Al7  1  0.50000  0.50000  0.50000  1
 Al  Al8  1  -0.00000  0.50000  -0.00000  1
 F  F1  1  0.68660  0.51570  0.61067  1
 F  F2  1  0.98430  0.67090  0.09497  1
 F  F3  1  0.59497  0.17090  0.48430  1
 F  F4  1  0.92407  0.31340  0.32910  1
 F  F5  1  0.31340  0.48430  0.38933  1
 F  F6  1  0.57593  0.90503  0.38933  1
 F  F7  1  0.11067  0.01570  0.18660  1
 F  F8  1  0.48430  0.59497  0.17090  1
 F  F9  1  0.38933  0.57593  0.90503  1
 F  F10  1  0.90503  0.01570  0.32910  1
 F  F11  1  0.59497  0.92407  0.11067  1
 F  F12  1  0.31340  0.32910  0.92407  1
 F  F13  1  0.48430  0.38933  0.31340  1
 F  F14  1  0.67090  0.09497  0.98430  1
 F  F15  1  0.51570  0.61067  0.68660  1
 F  F16  1  0.88933  0.40503  0.07593  1
 F  F17  1  0.81340  0.42407  0.82910  1
 F  F18  1  0.81340  0.88933  0.98430  1
 F  F19  1  0.42407  0.82910  0.81340  1
 F  F20  1  0.40503  0.82910  0.51570  1
 F  F21  1  0.82910  0.81340  0.42407  1
 F  F22  1  0.09497  0.61067  0.42407  1
 F  F23  1  0.67090  0.07593  0.68660  1
 F  F24  1  0.61067  0.68660  0.51570  1
 F  F25  1  0.07593  0.68660  0.67090  1
 F  F26  1  0.82910  0.51570  0.40503  1
 F  F27  1  0.42407  0.09497  0.61067  1
 F  F28  1  0.88933  0.98430  0.81340  1
 F  F29  1  0.51570  0.40503  0.82910  1
 F  F30  1  0.11067  0.59497  0.92407  1
 F  F31  1  0.09497  0.98430  0.67090  1
 F  F32  1  0.40503  0.07593  0.88933  1
 F  F33  1  0.07593  0.88933  0.40503  1
 F  F34  1  0.98430  0.81340  0.88933  1
 F  F35  1  0.01570  0.18660  0.11067  1
 F  F36  1  0.61067  0.42407  0.09497  1
 F  F37  1  0.32910  0.90503  0.01570  1
 F  F38  1  0.68660  0.67090  0.07593  1
 F  F39  1  0.38933  0.31340  0.48430  1
 F  F40  1  0.17090  0.48430  0.59497  1
 F  F41  1  0.18660  0.57593  0.17090  1
 F  F42  1  0.92407  0.11067  0.59497  1
 F  F43  1  0.57593  0.17090  0.18660  1
 F  F44  1  0.01570  0.32910  0.90503  1
 F  F45  1  0.17090  0.18660  0.57593  1
 F  F46  1  0.90503  0.38933  0.57593  1
 F  F47  1  0.18660  0.11067  0.01570  1
 F  F48  1  0.32910  0.92407  0.31340  1
 Li  Li1  1  0.12500  0.87500  0.25000  1
 Li  Li2  1  0.25000  0.62500  0.37500  1
 Li  Li3  1  0.75000  0.37500  0.62500  1
 Li  Li4  1  0.62500  0.75000  0.37500  1
 Li  Li5  1  0.37500  0.62500  0.75000  1
 Li  Li6  1  0.75000  0.87500  0.12500  1
 Li  Li7  1  0.87500  0.12500  0.75000  1
 Li  Li8  1  0.12500  0.75000  0.87500  1
 Li  Li9  1  0.87500  0.25000  0.12500  1
 Li  Li10  1  0.25000  0.12500  0.87500  1
 Li  Li11  1  0.37500  0.25000  0.62500  1
 Li  Li12  1  0.62500  0.37500  0.25000  1
 Na  Na1  1  0.37500  0.75000  0.12500  1
 Na  Na2  1  0.75000  0.12500  0.37500  1
 Na  Na3  1  0.12500  0.25000  0.37500  1
 Na  Na4  1  0.25000  0.37500  0.12500  1
 Na  Na5  1  0.87500  0.75000  0.62500  1
 Na  Na6  1  0.25000  0.87500  0.62500  1
 Na  Na7  1  0.62500  0.87500  0.75000  1
 Na  Na8  1  0.62500  0.25000  0.87500  1
 Na  Na9  1  0.87500  0.62500  0.25000  1
 Na  Na10  1  0.12500  0.37500  0.75000  1
 Na  Na11  1  0.75000  0.62500  0.87500  1
 Na  Na12  1  0.37500  0.12500  0.25000  1
