CIF file written using JARVIS-Tools package.
data_Li2LaTa2O7
_symmetry_space_group_name_H-M  'I4/mmm'
_cell_length_a       3.9943
_cell_length_b       3.99429
_cell_length_c       9.55518
_cell_angle_alpha    102.064
_cell_angle_beta     102.064
_cell_angle_gamma    90

_symmetry_Int_Tables_number  139
_chemical_formula_structural  Li2LaTa2O7
_chemical_formula_sum  Li2LaTa2O7
_cell_volume  145.63496843495895
_cell_formula_units_Z  1
loop_
  _symmetry_equiv_pos_site_id
 _symmetry_equiv_pos_as_xyz
 1  'x, y, z'
loop_
 _atom_site_type_symbol
 _atom_site_label
 _atom_site_symmetry_multiplicity
 _atom_site_fract_x
 _atom_site_fract_y
 _atom_site_fract_z
 _atom_site_fract_occupancy
 La  La1  1  0.00000  0.00000  0.00000  1
 Li  Li1  1  0.75000  0.25000  0.50000  1
 Li  Li2  1  0.25000  0.75000  0.50000  1
 O  O1  1  0.71891  0.71891  0.43783  1
 O  O2  1  0.50000  0.50000  0.00000  1
 O  O3  1  0.09828  0.59828  0.19657  1
 O  O4  1  0.59828  0.09828  0.19657  1
 O  O5  1  0.40172  0.90172  0.80343  1
 O  O6  1  0.90172  0.40172  0.80343  1
 O  O7  1  0.28109  0.28109  0.56217  1
 Ta  Ta1  1  0.61499  0.61499  0.22999  1
 Ta  Ta2  1  0.38501  0.38501  0.77001  1
