CIF file written using JARVIS-Tools package.
data_Er2InNi2
_symmetry_space_group_name_H-M  'Cmmm'
_cell_length_a       3.60736
_cell_length_b       3.87629
_cell_length_c       7.33578
_cell_angle_alpha    105.32
_cell_angle_beta     90
_cell_angle_gamma    90

_symmetry_Int_Tables_number  65
_chemical_formula_structural  Er2InNi2
_chemical_formula_sum  Er2InNi2
_cell_volume  98.93278506362195
_cell_formula_units_Z  1
loop_
  _symmetry_equiv_pos_site_id
 _symmetry_equiv_pos_as_xyz
 1  'x, y, z'
loop_
 _atom_site_type_symbol
 _atom_site_label
 _atom_site_symmetry_multiplicity
 _atom_site_fract_x
 _atom_site_fract_y
 _atom_site_fract_z
 _atom_site_fract_occupancy
 Er  Er1  1  0.50000  0.63887  0.27773  1
 Er  Er2  1  0.50000  0.36113  0.72227  1
 In  In1  1  0.00000  0.00000  0.00000  1
 Ni  Ni1  1  0.00000  0.80198  0.60395  1
 Ni  Ni2  1  0.00000  0.19802  0.39605  1
