CIF file written using JARVIS-Tools package.
data_InSe
_symmetry_space_group_name_H-M  'R3m'
_cell_length_a       8.72944
_cell_length_b       8.72944
_cell_length_c       8.72944
_cell_angle_alpha    27.0124
_cell_angle_beta     27.0125
_cell_angle_gamma    27.0124

_symmetry_Int_Tables_number  160
_chemical_formula_structural  InSe
_chemical_formula_sum  In2Se2
_cell_volume  121.03661599908206
_cell_formula_units_Z  2
loop_
  _symmetry_equiv_pos_site_id
 _symmetry_equiv_pos_as_xyz
 1  'x, y, z'
loop_
 _atom_site_type_symbol
 _atom_site_label
 _atom_site_symmetry_multiplicity
 _atom_site_fract_x
 _atom_site_fract_y
 _atom_site_fract_z
 _atom_site_fract_occupancy
 In  In1  1  0.11189  0.11189  0.11189  1
 In  In2  1  0.00033  0.00033  0.00033  1
 Se  Se1  1  0.61629  0.61629  0.61629  1
 Se  Se2  1  0.82919  0.82919  0.82919  1
