CIF file written using JARVIS-Tools package.
data_YCrO3
_symmetry_space_group_name_H-M  'Pnma'
_cell_length_a       5.25082
_cell_length_b       5.57613
_cell_length_c       7.5608
_cell_angle_alpha    90
_cell_angle_beta     90
_cell_angle_gamma    90

_symmetry_Int_Tables_number  62
_chemical_formula_structural  YCrO3
_chemical_formula_sum  Y4Cr4O2
_cell_volume  221.37488453766622
_cell_formula_units_Z  4
loop_
  _symmetry_equiv_pos_site_id
 _symmetry_equiv_pos_as_xyz
 1  'x, y, z'
loop_
 _atom_site_type_symbol
 _atom_site_label
 _atom_site_symmetry_multiplicity
 _atom_site_fract_x
 _atom_site_fract_y
 _atom_site_fract_z
 _atom_site_fract_occupancy
 Cr  Cr1  1  0.00000  0.50000  0.00000  1
 Cr  Cr2  1  0.50000  0.00000  0.00000  1
 Cr  Cr3  1  0.50000  0.00000  0.50000  1
 Cr  Cr4  1  0.00000  0.50000  0.50000  1
 O  O1  1  0.39112  0.96299  0.25000  1
 O  O2  1  0.19143  0.19703  0.55531  1
 O  O3  1  0.80857  0.80297  0.05531  1
 O  O4  1  0.30857  0.69703  0.94469  1
 O  O5  1  0.30857  0.69703  0.55531  1
 O  O6  1  0.80857  0.80297  0.44469  1
 O  O7  1  0.19143  0.19703  0.94469  1
 O  O8  1  0.60888  0.03701  0.75000  1
 O  O9  1  0.69143  0.30297  0.44469  1
 O  O10  1  0.10888  0.46299  0.25000  1
 O  O11  1  0.89112  0.53701  0.75000  1
 O  O12  1  0.69143  0.30297  0.05531  1
 Y  Y1  1  0.48087  0.42973  0.75000  1
 Y  Y2  1  0.01913  0.92973  0.75000  1
 Y  Y3  1  0.51913  0.57027  0.25000  1
 Y  Y4  1  0.98087  0.07027  0.25000  1
