CIF file written using JARVIS-Tools package.
data_PdN2Cl2
_symmetry_space_group_name_H-M  'P1'
_cell_length_a       3.34267
_cell_length_b       3.34204
_cell_length_c       9.1749
_cell_angle_alpha    83.7908
_cell_angle_beta     105.776
_cell_angle_gamma    61.7574

_symmetry_Int_Tables_number  1
_chemical_formula_structural  PdN2Cl2
_chemical_formula_sum  PdN2Cl2
_cell_volume  83.43407398712365
_cell_formula_units_Z  1
loop_
  _symmetry_equiv_pos_site_id
 _symmetry_equiv_pos_as_xyz
 1  'x, y, z'
loop_
 _atom_site_type_symbol
 _atom_site_label
 _atom_site_symmetry_multiplicity
 _atom_site_fract_x
 _atom_site_fract_y
 _atom_site_fract_z
 _atom_site_fract_occupancy
 Cl  Cl1  1  0.11231  0.71435  0.33420  1
 Cl  Cl2  1  -0.15742  -0.21834  0.66180  1
 N  N1  1  0.06809  0.61770  0.85890  1
 N  N2  1  0.88403  0.88158  0.13710  1
 Pd  Pd1  1  0.21998  0.00571  -0.00200  1
