CIF file written using JARVIS-Tools package.
data_U2Mo2C3
_symmetry_space_group_name_H-M  'C2/m'
_cell_length_a       3.16273
_cell_length_b       5.59931
_cell_length_c       6.00372
_cell_angle_alpha    105.171
_cell_angle_beta     105.272
_cell_angle_gamma    90

_symmetry_Int_Tables_number  12
_chemical_formula_structural  U2Mo2C3
_chemical_formula_sum  U2Mo2C3
_cell_volume  98.71984456713254
_cell_formula_units_Z  1
loop_
  _symmetry_equiv_pos_site_id
 _symmetry_equiv_pos_as_xyz
 1  'x, y, z'
loop_
 _atom_site_type_symbol
 _atom_site_label
 _atom_site_symmetry_multiplicity
 _atom_site_fract_x
 _atom_site_fract_y
 _atom_site_fract_z
 _atom_site_fract_occupancy
 C  C1  1  0.00000  0.50000  0.00000  1
 C  C2  1  0.25411  0.76140  0.50821  1
 C  C3  1  0.74589  0.23860  0.49179  1
 Mo  Mo1  1  0.84503  0.62932  0.69006  1
 Mo  Mo2  1  0.15497  0.37068  0.30994  1
 U  U1  1  0.60473  0.83057  0.20945  1
 U  U2  1  0.39527  0.16943  0.79055  1
