CIF file written using JARVIS-Tools package.
data_Li3H6Rh
_symmetry_space_group_name_H-M  'Pnma'
_cell_length_a       8.45098
_cell_length_b       4.73383
_cell_length_c       8.42452
_cell_angle_alpha    90
_cell_angle_beta     90
_cell_angle_gamma    90

_symmetry_Int_Tables_number  62
_chemical_formula_structural  Li3H6Rh
_chemical_formula_sum  Li2H24Rh4
_cell_volume  337.0270599619548
_cell_formula_units_Z  4
loop_
  _symmetry_equiv_pos_site_id
 _symmetry_equiv_pos_as_xyz
 1  'x, y, z'
loop_
 _atom_site_type_symbol
 _atom_site_label
 _atom_site_symmetry_multiplicity
 _atom_site_fract_x
 _atom_site_fract_y
 _atom_site_fract_z
 _atom_site_fract_occupancy
 H  H1  1  0.16646  0.75000  0.23337  1
 H  H2  1  0.89276  0.99495  0.17931  1
 H  H3  1  0.66646  0.75000  0.26663  1
 H  H4  1  0.34707  0.49819  0.96844  1
 H  H5  1  0.33354  0.25000  0.73337  1
 H  H6  1  0.83354  0.25000  0.76663  1
 H  H7  1  0.38550  0.75000  0.55831  1
 H  H8  1  0.11450  0.25000  0.05831  1
 H  H9  1  0.61450  0.25000  0.44169  1
 H  H10  1  0.10724  0.49495  0.82069  1
 H  H11  1  0.60724  0.00505  0.67931  1
 H  H12  1  0.39276  0.99495  0.32069  1
 H  H13  1  0.10724  0.00505  0.82069  1
 H  H14  1  0.60724  0.49495  0.67931  1
 H  H15  1  0.84707  0.00181  0.53156  1
 H  H16  1  0.65293  -0.00181  0.03156  1
 H  H17  1  0.15293  0.50181  0.46844  1
 H  H18  1  0.65293  0.50181  0.03156  1
 H  H19  1  0.15293  -0.00181  0.46844  1
 H  H20  1  0.34707  0.00181  0.96844  1
 H  H21  1  0.84707  0.49819  0.53156  1
 H  H22  1  0.89276  0.50505  0.17931  1
 H  H23  1  0.88550  0.75000  0.94169  1
 H  H24  1  0.39276  0.50505  0.32069  1
 Li  Li1  1  0.54318  0.25000  0.87182  1
 Li  Li2  1  0.39888  0.25000  0.52124  1
 Li  Li3  1  0.04318  0.25000  0.62818  1
 Li  Li4  1  0.45682  0.75000  0.12818  1
 Li  Li5  1  0.95682  0.75000  0.37182  1
 Li  Li6  1  0.89888  0.25000  0.97876  1
 Li  Li7  1  0.77660  0.75000  0.75450  1
 Li  Li8  1  0.10112  0.75000  0.02124  1
 Li  Li9  1  0.60112  0.75000  0.47876  1
 Li  Li10  1  0.72340  0.25000  0.25450  1
 Li  Li11  1  0.22340  0.25000  0.24550  1
 Li  Li12  1  0.27660  0.75000  0.74550  1
 Rh  Rh1  1  0.27300  0.75000  0.39617  1
 Rh  Rh2  1  0.72700  0.25000  0.60383  1
 Rh  Rh3  1  0.22700  0.25000  0.89617  1
 Rh  Rh4  1  0.77300  0.75000  0.10383  1
