CIF file written using JARVIS-Tools package.
data_Zn2AsHO5
_symmetry_space_group_name_H-M  'Pnnm'
_cell_length_a       8.33765
_cell_length_b       8.62712
_cell_length_c       6.14001
_cell_angle_alpha    90
_cell_angle_beta     90
_cell_angle_gamma    90

_symmetry_Int_Tables_number  58
_chemical_formula_structural  Zn2AsHO5
_chemical_formula_sum  Zn8As4H4O20
_cell_volume  441.65047062995814
_cell_formula_units_Z  4
loop_
  _symmetry_equiv_pos_site_id
 _symmetry_equiv_pos_as_xyz
 1  'x, y, z'
loop_
 _atom_site_type_symbol
 _atom_site_label
 _atom_site_symmetry_multiplicity
 _atom_site_fract_x
 _atom_site_fract_y
 _atom_site_fract_z
 _atom_site_fract_occupancy
 As  As1  1  0.24800  0.24650  0.50000  1
 As  As2  1  0.74800  0.25350  0.00000  1
 As  As3  1  0.25200  0.74650  -0.00000  1
 As  As4  1  0.75200  0.75350  0.50000  1
 H  H1  1  0.28166  0.58442  0.50000  1
 H  H2  1  0.71834  0.41558  0.50000  1
 H  H3  1  0.21834  0.08442  -0.00000  1
 H  H4  1  0.78166  0.91558  0.00000  1
 O  O1  1  0.10579  0.60588  -0.00000  1
 O  O2  1  0.43235  0.64786  -0.00000  1
 O  O3  1  0.89038  0.87204  -0.00000  1
 O  O4  1  0.76941  0.13378  0.22370  1
 O  O5  1  0.10962  0.12796  0.00000  1
 O  O6  1  0.39038  0.62796  0.50000  1
 O  O7  1  0.60962  0.37204  0.50000  1
 O  O8  1  0.93235  0.85214  0.50000  1
 O  O9  1  0.06765  0.14786  0.50000  1
 O  O10  1  0.73059  0.63378  0.27630  1
 O  O11  1  0.56765  0.35214  0.00000  1
 O  O12  1  0.60579  0.89412  0.50000  1
 O  O13  1  0.76941  0.13378  0.77630  1
 O  O14  1  0.26941  0.36622  0.27630  1
 O  O15  1  0.26941  0.36622  0.72370  1
 O  O16  1  0.73059  0.63378  0.72370  1
 O  O17  1  0.23059  0.86622  0.22370  1
 O  O18  1  0.89421  0.39412  0.00000  1
 O  O19  1  0.39421  0.10588  0.50000  1
 O  O20  1  0.23059  0.86622  0.77630  1
 Zn  Zn1  1  0.86504  0.63567  -0.00000  1
 Zn  Zn2  1  0.13496  0.36433  0.00000  1
 Zn  Zn3  1  0.36504  0.86433  0.50000  1
 Zn  Zn4  1  0.63496  0.13567  0.50000  1
 Zn  Zn5  1  -0.00000  0.00000  0.24726  1
 Zn  Zn6  1  0.50000  0.50000  0.25274  1
 Zn  Zn7  1  0.00000  -0.00000  0.75274  1
 Zn  Zn8  1  0.50000  0.50000  0.74726  1
