CIF file written using JARVIS-Tools package.
data_TiGe2
_symmetry_space_group_name_H-M  'Fddd'
_cell_length_a       5.08814
_cell_length_b       5.08814
_cell_length_c       5.04514
_cell_angle_alpha    104.682
_cell_angle_beta     104.682
_cell_angle_gamma    119.827

_symmetry_Int_Tables_number  70
_chemical_formula_structural  TiGe2
_chemical_formula_sum  Ti2Ge4
_cell_volume  97.76344510498791
_cell_formula_units_Z  2
loop_
  _symmetry_equiv_pos_site_id
 _symmetry_equiv_pos_as_xyz
 1  'x, y, z'
loop_
 _atom_site_type_symbol
 _atom_site_label
 _atom_site_symmetry_multiplicity
 _atom_site_fract_x
 _atom_site_fract_y
 _atom_site_fract_z
 _atom_site_fract_occupancy
 Ge  Ge1  1  0.20449  0.45449  0.90898  1
 Ge  Ge2  1  0.79551  0.54551  0.09102  1
 Ge  Ge3  1  0.45449  0.20449  0.40898  1
 Ge  Ge4  1  0.54551  0.79551  0.59102  1
 Ti  Ti1  1  0.87500  0.12500  0.25000  1
 Ti  Ti2  1  0.12500  0.87500  0.75000  1
