CIF file written using JARVIS-Tools package.
data_YbZnPb
_symmetry_space_group_name_H-M  'P6_3mc'
_cell_length_a       4.71297
_cell_length_b       4.71297
_cell_length_c       7.5372
_cell_angle_alpha    90
_cell_angle_beta     90
_cell_angle_gamma    120.001

_symmetry_Int_Tables_number  186
_chemical_formula_structural  YbZnPb
_chemical_formula_sum  Yb2Zn2Pb2
_cell_volume  144.98578027648085
_cell_formula_units_Z  2
loop_
  _symmetry_equiv_pos_site_id
 _symmetry_equiv_pos_as_xyz
 1  'x, y, z'
loop_
 _atom_site_type_symbol
 _atom_site_label
 _atom_site_symmetry_multiplicity
 _atom_site_fract_x
 _atom_site_fract_y
 _atom_site_fract_z
 _atom_site_fract_occupancy
 Pb  Pb1  1  0.33334  0.66666  0.04075  1
 Pb  Pb2  1  0.66666  0.33334  0.54075  1
 Yb  Yb1  1  0.99999  0.00001  0.25898  1
 Yb  Yb2  1  0.00001  0.99999  0.75898  1
 Zn  Zn1  1  0.33333  0.66667  0.44128  1
 Zn  Zn2  1  0.66667  0.33333  0.94128  1
