CIF file written using JARVIS-Tools package.
data_ZrB4Mo
_symmetry_space_group_name_H-M  'P6/mmm'
_cell_length_a       3.12433
_cell_length_b       3.12433
_cell_length_c       6.78593
_cell_angle_alpha    90
_cell_angle_beta     90
_cell_angle_gamma    120

_symmetry_Int_Tables_number  191
_chemical_formula_structural  ZrB4Mo
_chemical_formula_sum  ZrB4Mo
_cell_volume  57.365722620906716
_cell_formula_units_Z  1
loop_
  _symmetry_equiv_pos_site_id
 _symmetry_equiv_pos_as_xyz
 1  'x, y, z'
loop_
 _atom_site_type_symbol
 _atom_site_label
 _atom_site_symmetry_multiplicity
 _atom_site_fract_x
 _atom_site_fract_y
 _atom_site_fract_z
 _atom_site_fract_occupancy
 B  B1  1  0.66667  0.33333  0.76018  1
 B  B2  1  0.66667  0.33333  0.23982  1
 B  B3  1  0.33333  0.66667  0.76018  1
 B  B4  1  0.33333  0.66667  0.23982  1
 Mo  Mo1  1  0.00000  0.00000  0.00000  1
 Zr  Zr1  1  0.00000  0.00000  0.50000  1
