CIF file written using JARVIS-Tools package.
data_SmTiGe
_symmetry_space_group_name_H-M  'P4/nmm'
_cell_length_a       4.10015
_cell_length_b       4.10015
_cell_length_c       7.75589
_cell_angle_alpha    90
_cell_angle_beta     90
_cell_angle_gamma    90

_symmetry_Int_Tables_number  129
_chemical_formula_structural  SmTiGe
_chemical_formula_sum  Sm2Ti2Ge2
_cell_volume  130.38620148434956
_cell_formula_units_Z  2
loop_
  _symmetry_equiv_pos_site_id
 _symmetry_equiv_pos_as_xyz
 1  'x, y, z'
loop_
 _atom_site_type_symbol
 _atom_site_label
 _atom_site_symmetry_multiplicity
 _atom_site_fract_x
 _atom_site_fract_y
 _atom_site_fract_z
 _atom_site_fract_occupancy
 Ge  Ge1  1  0.00000  0.50000  0.23366  1
 Ge  Ge2  1  0.50000  0.00000  0.76634  1
 Sm  Sm1  1  0.50000  0.00000  0.34593  1
 Sm  Sm2  1  0.00000  0.50000  0.65407  1
 Ti  Ti1  1  0.00000  0.00000  0.00000  1
 Ti  Ti2  1  0.50000  0.50000  0.00000  1
