CIF file written using JARVIS-Tools package.
data_RbHSeO4
_symmetry_space_group_name_H-M  'P1'
_cell_length_a       4.6319
_cell_length_b       7.51645
_cell_length_c       10.5716
_cell_angle_alpha    110.833
_cell_angle_beta     102.108
_cell_angle_gamma    89.4533

_symmetry_Int_Tables_number  1
_chemical_formula_structural  RbHSeO4
_chemical_formula_sum  Rb3H3Se3O2
_cell_volume  335.48544162839255
_cell_formula_units_Z  3
loop_
  _symmetry_equiv_pos_site_id
 _symmetry_equiv_pos_as_xyz
 1  'x, y, z'
loop_
 _atom_site_type_symbol
 _atom_site_label
 _atom_site_symmetry_multiplicity
 _atom_site_fract_x
 _atom_site_fract_y
 _atom_site_fract_z
 _atom_site_fract_occupancy
 H  H1  1  0.45708  0.87316  0.00811  1
 H  H2  1  0.85289  0.55428  0.68504  1
 H  H3  1  0.14724  0.87064  0.31638  1
 O  O1  1  0.07053  0.58845  0.74026  1
 O  O2  1  0.70630  0.83471  0.93565  1
 O  O3  1  0.46803  0.34651  0.79522  1
 O  O4  1  0.06567  0.06086  0.87144  1
 O  O5  1  0.94563  0.18761  0.13110  1
 O  O6  1  0.29059  0.89135  0.06430  1
 O  O7  1  0.47565  0.90867  0.39367  1
 O  O8  1  0.08508  0.23169  0.53781  1
 O  O9  1  0.53612  0.55390  0.20378  1
 O  O10  1  0.52473  0.51355  0.60659  1
 O  O11  1  0.92983  0.84887  0.26036  1
 O  O12  1  0.91846  0.69176  0.46142  1
 Rb  Rb1  1  0.57070  0.25110  0.32870  1
 Rb  Rb2  1  0.42791  0.91994  0.67030  1
 Rb  Rb3  1  0.99788  0.49266  0.00027  1
 Se  Se1  1  0.70694  0.74246  0.33453  1
 Se  Se2  1  0.29531  0.40702  0.66514  1
 Se  Se3  1  0.98952  0.00122  0.99715  1
