CIF file written using JARVIS-Tools package.
data_FeCo3
_symmetry_space_group_name_H-M  'P4/mmm'
_cell_length_a       2.43529
_cell_length_b       2.43529
_cell_length_c       6.91503
_cell_angle_alpha    90
_cell_angle_beta     90
_cell_angle_gamma    90

_symmetry_Int_Tables_number  123
_chemical_formula_structural  FeCo3
_chemical_formula_sum  FeCo3
_cell_volume  41.01065298979424
_cell_formula_units_Z  1
loop_
  _symmetry_equiv_pos_site_id
 _symmetry_equiv_pos_as_xyz
 1  'x, y, z'
loop_
 _atom_site_type_symbol
 _atom_site_label
 _atom_site_symmetry_multiplicity
 _atom_site_fract_x
 _atom_site_fract_y
 _atom_site_fract_z
 _atom_site_fract_occupancy
 Co  Co1  1  0.50000  0.50000  0.75248  1
 Co  Co2  1  0.00000  0.00000  0.50000  1
 Co  Co3  1  0.50000  0.50000  0.24752  1
 Fe  Fe1  1  0.00000  0.00000  0.00000  1
