CIF file written using JARVIS-Tools package.
data_Er2S2O
_symmetry_space_group_name_H-M  'P2_1/c'
_cell_length_a       6.8017
_cell_length_b       6.81911
_cell_length_c       8.18367
_cell_angle_alpha    90
_cell_angle_beta     99.6719
_cell_angle_gamma    90

_symmetry_Int_Tables_number  14
_chemical_formula_structural  Er2S2O
_chemical_formula_sum  Er8S8O4
_cell_volume  374.17563646706043
_cell_formula_units_Z  4
loop_
  _symmetry_equiv_pos_site_id
 _symmetry_equiv_pos_as_xyz
 1  'x, y, z'
loop_
 _atom_site_type_symbol
 _atom_site_label
 _atom_site_symmetry_multiplicity
 _atom_site_fract_x
 _atom_site_fract_y
 _atom_site_fract_z
 _atom_site_fract_occupancy
 Er  Er1  1  0.17719  0.35501  0.42421  1
 Er  Er2  1  0.82281  0.64499  0.57579  1
 Er  Er3  1  0.67719  0.14499  0.42421  1
 Er  Er4  1  0.25087  0.44601  0.86204  1
 Er  Er5  1  0.24913  0.94601  0.13796  1
 Er  Er6  1  0.74913  0.55399  0.13796  1
 Er  Er7  1  0.75087  0.05399  0.86204  1
 Er  Er8  1  0.32281  0.85501  0.57579  1
 O  O1  1  0.85000  0.41302  0.38329  1
 O  O2  1  0.65000  0.91302  0.61671  1
 O  O3  1  0.15000  0.58698  0.61671  1
 O  O4  1  0.35000  0.08698  0.38329  1
 S  S1  1  0.96953  0.72209  0.92396  1
 S  S2  1  0.53047  0.22209  0.07604  1
 S  S3  1  0.03047  0.27791  0.07604  1
 S  S4  1  0.46953  0.77791  0.92396  1
 S  S5  1  0.92098  0.86825  0.31822  1
 S  S6  1  0.42098  0.63175  0.31822  1
 S  S7  1  0.57902  0.36825  0.68178  1
 S  S8  1  0.07902  0.13175  0.68178  1
