CIF file written using JARVIS-Tools package.
data_Ca2CdPd2
_symmetry_space_group_name_H-M  'Immm'
_cell_length_a       4.4946
_cell_length_b       5.65516
_cell_length_c       5.65516
_cell_angle_alpha    63.4618
_cell_angle_beta     66.5849
_cell_angle_gamma    66.5849

_symmetry_Int_Tables_number  71
_chemical_formula_structural  Ca2CdPd2
_chemical_formula_sum  Ca2CdPd2
_cell_volume  113.69674124936411
_cell_formula_units_Z  1
loop_
  _symmetry_equiv_pos_site_id
 _symmetry_equiv_pos_as_xyz
 1  'x, y, z'
loop_
 _atom_site_type_symbol
 _atom_site_label
 _atom_site_symmetry_multiplicity
 _atom_site_fract_x
 _atom_site_fract_y
 _atom_site_fract_z
 _atom_site_fract_occupancy
 Ca  Ca1  1  0.79776  0.70224  0.70224  1
 Ca  Ca2  1  0.20224  0.29776  0.29776  1
 Cd  Cd1  1  0.00000  0.00000  0.00000  1
 Pd  Pd1  1  0.50000  0.27276  0.72724  1
 Pd  Pd2  1  0.50000  0.72724  0.27276  1
