CIF file written using JARVIS-Tools package.
data_RbEuS2
_symmetry_space_group_name_H-M  'R-3m'
_cell_length_a       7.99374
_cell_length_b       7.99374
_cell_length_c       7.99374
_cell_angle_alpha    29.8401
_cell_angle_beta     29.84
_cell_angle_gamma    29.8401

_symmetry_Int_Tables_number  166
_chemical_formula_structural  RbEuS2
_chemical_formula_sum  RbEuS2
_cell_volume  111.99549781094572
_cell_formula_units_Z  1
loop_
  _symmetry_equiv_pos_site_id
 _symmetry_equiv_pos_as_xyz
 1  'x, y, z'
loop_
 _atom_site_type_symbol
 _atom_site_label
 _atom_site_symmetry_multiplicity
 _atom_site_fract_x
 _atom_site_fract_y
 _atom_site_fract_z
 _atom_site_fract_occupancy
 Eu  Eu1  1  0.50000  0.50000  0.50000  1
 Rb  Rb1  1  0.00000  0.00000  0.00000  1
 S  S1  1  0.76775  0.76775  0.76775  1
 S  S2  1  0.23225  0.23225  0.23225  1
