CIF file written using JARVIS-Tools package.
data_RbTlF3
_symmetry_space_group_name_H-M  'Cm'
_cell_length_a       4.6988
_cell_length_b       4.69907
_cell_length_c       4.69944
_cell_angle_alpha    90.0155
_cell_angle_beta     90.0082
_cell_angle_gamma    89.9854

_symmetry_Int_Tables_number  8
_chemical_formula_structural  RbTlF3
_chemical_formula_sum  RbTlF3
_cell_volume  103.76372794634216
_cell_formula_units_Z  1
loop_
  _symmetry_equiv_pos_site_id
 _symmetry_equiv_pos_as_xyz
 1  'x, y, z'
loop_
 _atom_site_type_symbol
 _atom_site_label
 _atom_site_symmetry_multiplicity
 _atom_site_fract_x
 _atom_site_fract_y
 _atom_site_fract_z
 _atom_site_fract_occupancy
 F  F1  1  0.48647  0.99982  0.50217  1
 F  F2  1  0.98815  0.50113  0.50243  1
 F  F3  1  0.48719  0.50178  0.99740  1
 Rb  Rb1  1  0.98992  0.99762  0.99108  1
 Tl  Tl1  1  0.48828  0.49965  0.49692  1
