CIF file written using JARVIS-Tools package.
data_Ba2ZnSi2O7
_symmetry_space_group_name_H-M  'C2/c'
_cell_length_a       6.87915
_cell_length_b       6.87915
_cell_length_c       8.52332
_cell_angle_alpha    102.946
_cell_angle_beta     102.946
_cell_angle_gamma    103.553

_symmetry_Int_Tables_number  15
_chemical_formula_structural  Ba2ZnSi2O7
_chemical_formula_sum  Ba4Zn2Si4O4
_cell_volume  365.50869525923025
_cell_formula_units_Z  2
loop_
  _symmetry_equiv_pos_site_id
 _symmetry_equiv_pos_as_xyz
 1  'x, y, z'
loop_
 _atom_site_type_symbol
 _atom_site_label
 _atom_site_symmetry_multiplicity
 _atom_site_fract_x
 _atom_site_fract_y
 _atom_site_fract_z
 _atom_site_fract_occupancy
 Ba  Ba1  1  0.81666  0.73135  0.02633  1
 Ba  Ba2  1  0.73135  0.81666  0.52633  1
 Ba  Ba3  1  0.26865  0.18334  0.47367  1
 Ba  Ba4  1  0.18334  0.26865  0.97367  1
 O  O1  1  0.38155  0.67468  0.95551  1
 O  O2  1  0.95815  0.64469  0.73609  1
 O  O3  1  0.02324  0.75921  0.36705  1
 O  O4  1  0.24079  0.97676  0.13295  1
 O  O5  1  0.33473  0.66527  0.25000  1
 O  O6  1  0.35531  0.04185  0.76391  1
 O  O7  1  0.66527  0.33473  0.75000  1
 O  O8  1  0.04185  0.35531  0.26391  1
 O  O9  1  0.67468  0.38155  0.45551  1
 O  O10  1  0.61845  0.32532  0.04449  1
 O  O11  1  0.64469  0.95815  0.23609  1
 O  O12  1  0.75921  0.02324  0.86705  1
 O  O13  1  0.97676  0.24079  0.63295  1
 O  O14  1  0.32532  0.61845  0.54449  1
 Si  Si1  1  0.60402  0.16786  0.86261  1
 Si  Si2  1  0.83214  0.39598  0.63739  1
 Si  Si3  1  0.39598  0.83214  0.13739  1
 Si  Si4  1  0.16786  0.60402  0.36261  1
 Zn  Zn1  1  0.25900  0.74100  0.75000  1
 Zn  Zn2  1  0.74100  0.25900  0.25000  1
