CIF file written using JARVIS-Tools package.
data_LaScGe
_symmetry_space_group_name_H-M  'I4/mmm'
_cell_length_a       4.35117
_cell_length_b       4.35117
_cell_length_c       8.6779
_cell_angle_alpha    104.519
_cell_angle_beta     104.519
_cell_angle_gamma    90

_symmetry_Int_Tables_number  139
_chemical_formula_structural  LaScGe
_chemical_formula_sum  La2Sc2Ge2
_cell_volume  153.62277603460032
_cell_formula_units_Z  2
loop_
  _symmetry_equiv_pos_site_id
 _symmetry_equiv_pos_as_xyz
 1  'x, y, z'
loop_
 _atom_site_type_symbol
 _atom_site_label
 _atom_site_symmetry_multiplicity
 _atom_site_fract_x
 _atom_site_fract_y
 _atom_site_fract_z
 _atom_site_fract_occupancy
 Ge  Ge1  1  0.88070  0.88070  0.76140  1
 Ge  Ge2  1  0.11930  0.11930  0.23860  1
 La  La1  1  0.67680  0.67680  0.35360  1
 La  La2  1  0.32320  0.32320  0.64640  1
 Sc  Sc1  1  0.50000  0.00000  0.00000  1
 Sc  Sc2  1  0.00000  0.50000  0.00000  1
