CIF file written using JARVIS-Tools package.
data_MnCdF5
_symmetry_space_group_name_H-M  'C2/c'
_cell_length_a       5.51819
_cell_length_b       5.51745
_cell_length_c       7.75759
_cell_angle_alpha    97.1194
_cell_angle_beta     111.007
_cell_angle_gamma    108.78

_symmetry_Int_Tables_number  15
_chemical_formula_structural  MnCdF5
_chemical_formula_sum  Mn2Cd2F0
_cell_volume  200.95290442878812
_cell_formula_units_Z  2
loop_
  _symmetry_equiv_pos_site_id
 _symmetry_equiv_pos_as_xyz
 1  'x, y, z'
loop_
 _atom_site_type_symbol
 _atom_site_label
 _atom_site_symmetry_multiplicity
 _atom_site_fract_x
 _atom_site_fract_y
 _atom_site_fract_z
 _atom_site_fract_occupancy
 Cd  Cd1  1  0.70576  0.45574  0.24993  1
 Cd  Cd2  1  0.29424  0.54426  0.75007  1
 F  F1  1  0.33390  0.08342  0.24967  1
 F  F2  1  0.66610  0.91658  0.75033  1
 F  F3  1  0.56950  0.73572  0.37739  1
 F  F4  1  0.85907  0.19182  0.12344  1
 F  F5  1  0.75226  0.67722  0.02544  1
 F  F6  1  0.15220  0.72660  0.47439  1
 F  F7  1  0.24774  0.32278  0.97456  1
 F  F8  1  0.84780  0.27340  0.52561  1
 F  F9  1  0.14093  0.80818  0.87656  1
 F  F10  1  0.43050  0.26428  0.62261  1
 Mn  Mn1  1  0.50000  -0.00000  0.50000  1
 Mn  Mn2  1  0.00000  0.00000  0.00000  1
