CIF file written using JARVIS-Tools package.
data_KHI2F12
_symmetry_space_group_name_H-M  'I4/mcm'
_cell_length_a       8.70886
_cell_length_b       8.70886
_cell_length_c       8.70886
_cell_angle_alpha    110.92
_cell_angle_beta     110.92
_cell_angle_gamma    106.611

_symmetry_Int_Tables_number  140
_chemical_formula_structural  KHI2F12
_chemical_formula_sum  K2H2I4F24
_cell_volume  507.5216424305408
_cell_formula_units_Z  2
loop_
  _symmetry_equiv_pos_site_id
 _symmetry_equiv_pos_as_xyz
 1  'x, y, z'
loop_
 _atom_site_type_symbol
 _atom_site_label
 _atom_site_symmetry_multiplicity
 _atom_site_fract_x
 _atom_site_fract_y
 _atom_site_fract_z
 _atom_site_fract_occupancy
 F  F1  1  0.59274  0.45188  0.30300  1
 F  F2  1  0.63878  0.13878  0.50000  1
 F  F3  1  0.13878  0.63878  0.50000  1
 F  F4  1  0.36122  0.86122  0.50000  1
 F  F5  1  0.86122  0.36122  0.50000  1
 F  F6  1  0.79179  0.29179  0.08357  1
 F  F7  1  0.20821  0.70821  0.91643  1
 F  F8  1  0.29179  0.20821  0.50000  1
 F  F9  1  0.35112  0.04812  0.14087  1
 F  F10  1  0.45188  0.14888  0.85913  1
 F  F11  1  0.28975  0.59274  0.14087  1
 F  F12  1  0.70821  0.79179  0.50000  1
 F  F13  1  0.78975  0.64888  0.69700  1
 F  F14  1  0.71025  0.40726  0.85913  1
 F  F15  1  0.85112  0.71025  0.30300  1
 F  F16  1  0.90726  0.21025  0.85913  1
 F  F17  1  0.21025  0.35112  0.30300  1
 F  F18  1  0.04812  0.90726  0.69700  1
 F  F19  1  0.40726  0.54812  0.69700  1
 F  F20  1  0.54812  0.85112  0.14087  1
 F  F21  1  0.09274  0.78975  0.14087  1
 F  F22  1  0.64888  0.95188  0.85913  1
 F  F23  1  0.14888  0.28975  0.69700  1
 F  F24  1  0.95188  0.09274  0.30300  1
 H  H1  1  0.75000  0.25000  0.50000  1
 H  H2  1  0.25000  0.75000  0.50000  1
 I  I1  1  0.84318  0.65682  0.50000  1
 I  I2  1  0.15682  0.34318  0.50000  1
 I  I3  1  0.34318  0.84318  0.18637  1
 I  I4  1  0.65682  0.15682  0.81363  1
 K  K1  1  0.75000  0.75000  0.00000  1
 K  K2  1  0.25000  0.25000  0.00000  1
