CIF file written using JARVIS-Tools package.
data_CaB2H8
_symmetry_space_group_name_H-M  'Pbca'
_cell_length_a       7.25983
_cell_length_b       8.65466
_cell_length_c       13.1189
_cell_angle_alpha    90
_cell_angle_beta     90
_cell_angle_gamma    90

_symmetry_Int_Tables_number  61
_chemical_formula_structural  CaB2H8
_chemical_formula_sum  Ca8B6H64
_cell_volume  824.2803942636958
_cell_formula_units_Z  8
loop_
  _symmetry_equiv_pos_site_id
 _symmetry_equiv_pos_as_xyz
 1  'x, y, z'
loop_
 _atom_site_type_symbol
 _atom_site_label
 _atom_site_symmetry_multiplicity
 _atom_site_fract_x
 _atom_site_fract_y
 _atom_site_fract_z
 _atom_site_fract_occupancy
 B  B1  1  0.35896  0.80956  0.51289  1
 B  B2  1  0.14104  0.30956  0.48711  1
 B  B3  1  0.53746  0.06343  0.21643  1
 B  B4  1  0.46254  0.43657  0.71643  1
 B  B5  1  0.85896  0.69044  0.51289  1
 B  B6  1  0.96254  0.56343  0.78357  1
 B  B7  1  0.03746  0.93657  0.28357  1
 B  B8  1  0.64104  0.19044  0.48711  1
 B  B9  1  0.35896  0.30956  0.98711  1
 B  B10  1  0.96254  0.06343  0.71643  1
 B  B11  1  0.14104  0.80956  0.01289  1
 B  B12  1  0.64104  0.69044  0.01289  1
 B  B13  1  0.85896  0.19044  0.98711  1
 B  B14  1  0.46254  0.93657  0.78357  1
 B  B15  1  0.53746  0.56343  0.28357  1
 B  B16  1  0.03746  0.43657  0.21643  1
 Ca  Ca1  1  0.69022  0.43196  0.88569  1
 Ca  Ca2  1  0.80978  0.43196  0.38569  1
 Ca  Ca3  1  0.69022  0.93196  0.61431  1
 Ca  Ca4  1  0.30978  0.56804  0.11431  1
 Ca  Ca5  1  0.19022  0.56804  0.61431  1
 Ca  Ca6  1  0.80978  0.93196  0.11431  1
 Ca  Ca7  1  0.30978  0.06804  0.38569  1
 Ca  Ca8  1  0.19022  0.06804  0.88569  1
 H  H1  1  0.81814  0.31091  0.02990  1
 H  H2  1  0.81814  0.81091  0.47010  1
 H  H3  1  0.31552  0.36619  0.70960  1
 H  H4  1  0.98858  0.63565  0.46450  1
 H  H5  1  0.08520  0.65838  0.76911  1
 H  H6  1  0.91480  0.34162  0.23089  1
 H  H7  1  0.49841  0.00538  0.86311  1
 H  H8  1  0.72619  0.10305  0.98295  1
 H  H9  1  0.51142  0.63565  0.96450  1
 H  H10  1  0.27381  0.89695  0.01705  1
 H  H11  1  0.99841  0.49462  0.86311  1
 H  H12  1  0.44814  0.53263  0.78572  1
 H  H13  1  0.50159  0.99462  0.13689  1
 H  H14  1  0.99841  0.99462  0.63689  1
 H  H15  1  0.18186  0.68909  0.97010  1
 H  H16  1  0.44814  0.03263  0.71428  1
 H  H17  1  0.59195  0.71564  0.10125  1
 H  H18  1  0.94814  0.46737  0.71428  1
 H  H19  1  0.55186  0.46737  0.21428  1
 H  H20  1  0.90805  0.21564  0.89875  1
 H  H21  1  0.27381  0.39695  0.48295  1
 H  H22  1  0.77381  0.60305  0.01705  1
 H  H23  1  0.40805  0.28436  0.89875  1
 H  H24  1  0.94814  0.96737  0.78572  1
 H  H25  1  0.55186  0.96737  0.28572  1
 H  H26  1  0.08520  0.15838  0.73089  1
 H  H27  1  0.31552  0.86619  0.79040  1
 H  H28  1  0.58520  0.34162  0.73089  1
 H  H29  1  0.31814  0.18909  0.02990  1
 H  H30  1  0.77381  0.10305  0.48295  1
 H  H31  1  0.48858  0.86435  0.46450  1
 H  H32  1  0.18448  0.86619  0.29040  1
 H  H33  1  0.48858  0.36435  0.03550  1
 H  H34  1  0.09195  0.78436  0.10125  1
 H  H35  1  0.09195  0.28436  0.39875  1
 H  H36  1  0.68186  0.81091  0.97010  1
 H  H37  1  0.81552  0.13381  0.70960  1
 H  H38  1  0.72619  0.60305  0.51705  1
 H  H39  1  0.58520  0.84162  0.76911  1
 H  H40  1  0.00159  0.00538  0.36311  1
 H  H41  1  0.05186  0.53263  0.28572  1
 H  H42  1  0.90805  0.71564  0.60125  1
 H  H43  1  0.68186  0.31091  0.52990  1
 H  H44  1  0.18186  0.18909  0.52990  1
 H  H45  1  0.59195  0.21564  0.39875  1
 H  H46  1  0.51142  0.13565  0.53550  1
 H  H47  1  0.50159  0.49462  0.36311  1
 H  H48  1  0.22619  0.89695  0.51705  1
 H  H49  1  0.91480  0.84162  0.26911  1
 H  H50  1  0.49841  0.50538  0.63689  1
 H  H51  1  0.31814  0.68909  0.47010  1
 H  H52  1  0.01142  0.86435  0.96450  1
 H  H53  1  0.41480  0.15838  0.23089  1
 H  H54  1  0.68448  0.13381  0.20960  1
 H  H55  1  0.05186  0.03263  0.21428  1
 H  H56  1  0.01142  0.36435  0.53550  1
 H  H57  1  0.18448  0.36619  0.20960  1
 H  H58  1  0.40805  0.78436  0.60125  1
 H  H59  1  0.98858  0.13565  0.03550  1
 H  H60  1  0.81552  0.63381  0.79040  1
 H  H61  1  0.00159  0.50538  0.13689  1
 H  H62  1  0.22619  0.39695  0.98295  1
 H  H63  1  0.41480  0.65838  0.26911  1
 H  H64  1  0.68448  0.63381  0.29040  1
