CIF file written using JARVIS-Tools package.
data_Li3ScB2O6
_symmetry_space_group_name_H-M  'P2_1/c'
_cell_length_a       4.78407
_cell_length_b       5.92523
_cell_length_c       8.18046
_cell_angle_alpha    90
_cell_angle_beta     90.6595
_cell_angle_gamma    90

_symmetry_Int_Tables_number  14
_chemical_formula_structural  Li3ScB2O6
_chemical_formula_sum  Li6Sc2B4O2
_cell_volume  231.87384290388587
_cell_formula_units_Z  2
loop_
  _symmetry_equiv_pos_site_id
 _symmetry_equiv_pos_as_xyz
 1  'x, y, z'
loop_
 _atom_site_type_symbol
 _atom_site_label
 _atom_site_symmetry_multiplicity
 _atom_site_fract_x
 _atom_site_fract_y
 _atom_site_fract_z
 _atom_site_fract_occupancy
 B  B1  1  0.48508  0.30714  0.87547  1
 B  B2  1  0.01492  0.80714  0.62453  1
 B  B3  1  0.51492  0.69286  0.12453  1
 B  B4  1  0.98508  0.19286  0.37547  1
 Li  Li1  1  0.50000  0.00000  0.50000  1
 Li  Li2  1  0.51563  0.24944  0.20376  1
 Li  Li3  1  0.48437  0.75056  0.79624  1
 Li  Li4  1  0.98437  0.74944  0.29624  1
 Li  Li5  1  0.01563  0.25056  0.70376  1
 Li  Li6  1  0.00000  0.50000  0.00000  1
 O  O1  1  0.13147  0.91633  0.75925  1
 O  O2  1  0.86853  0.08367  0.24075  1
 O  O3  1  0.31201  0.24815  0.00418  1
 O  O4  1  0.18799  0.74815  0.49582  1
 O  O5  1  0.36853  0.41633  0.74075  1
 O  O6  1  0.26821  0.23453  0.38890  1
 O  O7  1  0.73179  0.76547  0.61110  1
 O  O8  1  0.81201  0.25185  0.50418  1
 O  O9  1  0.63147  0.58367  0.25925  1
 O  O10  1  0.23179  0.73453  0.11110  1
 O  O11  1  0.76821  0.26547  0.88890  1
 O  O12  1  0.68799  0.75185  0.99582  1
 Sc  Sc1  1  0.00000  0.00000  0.00000  1
 Sc  Sc2  1  0.50000  0.50000  0.50000  1
