CIF file written using JARVIS-Tools package.
data_CrIrO4
_symmetry_space_group_name_H-M  'Cmmm'
_cell_length_a       4.48719
_cell_length_b       4.48718
_cell_length_c       3.07158
_cell_angle_alpha    90
_cell_angle_beta     90
_cell_angle_gamma    90.1946

_symmetry_Int_Tables_number  65
_chemical_formula_structural  CrIrO4
_chemical_formula_sum  CrIrO4
_cell_volume  61.84535252098161
_cell_formula_units_Z  1
loop_
  _symmetry_equiv_pos_site_id
 _symmetry_equiv_pos_as_xyz
 1  'x, y, z'
loop_
 _atom_site_type_symbol
 _atom_site_label
 _atom_site_symmetry_multiplicity
 _atom_site_fract_x
 _atom_site_fract_y
 _atom_site_fract_z
 _atom_site_fract_occupancy
 Cr  Cr1  1  0.00000  0.00000  0.50000  1
 Ir  Ir1  1  0.50000  0.50000  0.00000  1
 O  O1  1  0.81073  0.81073  0.00000  1
 O  O2  1  0.69998  0.30002  0.50000  1
 O  O3  1  0.18927  0.18927  0.00000  1
 O  O4  1  0.30002  0.69998  0.50000  1
