CIF file written using JARVIS-Tools package.
data_Al2O3
_symmetry_space_group_name_H-M  'Cmc2_1'
_cell_length_a       5.6159
_cell_length_b       5.6159
_cell_length_c       4.96844
_cell_angle_alpha    90
_cell_angle_beta     90
_cell_angle_gamma    59.025

_symmetry_Int_Tables_number  36
_chemical_formula_structural  Al2O3
_chemical_formula_sum  Al4O6
_cell_volume  134.35030729708208
_cell_formula_units_Z  2
loop_
  _symmetry_equiv_pos_site_id
 _symmetry_equiv_pos_as_xyz
 1  'x, y, z'
loop_
 _atom_site_type_symbol
 _atom_site_label
 _atom_site_symmetry_multiplicity
 _atom_site_fract_x
 _atom_site_fract_y
 _atom_site_fract_z
 _atom_site_fract_occupancy
 Al  Al1  1  0.00445  0.33040  0.93140  1
 Al  Al2  1  0.66960  0.99555  0.93140  1
 Al  Al3  1  0.33040  0.00445  0.43140  1
 Al  Al4  1  0.99555  0.66960  0.43140  1
 O  O1  1  0.22467  0.77533  0.49100  1
 O  O2  1  0.10032  0.33941  0.58697  1
 O  O3  1  0.66059  0.89968  0.58697  1
 O  O4  1  0.33941  0.10032  0.08697  1
 O  O5  1  0.89968  0.66059  0.08697  1
 O  O6  1  0.77533  0.22467  0.99100  1
