CIF file written using JARVIS-Tools package.
data_Cr3NiP4
_symmetry_space_group_name_H-M  'Pm'
_cell_length_a       3.1198
_cell_length_b       5.3514
_cell_length_c       5.9704
_cell_angle_alpha    89.9202
_cell_angle_beta     90
_cell_angle_gamma    90

_symmetry_Int_Tables_number  6
_chemical_formula_structural  Cr3NiP4
_chemical_formula_sum  Cr3NiP4
_cell_volume  99.67744219639061
_cell_formula_units_Z  1
loop_
  _symmetry_equiv_pos_site_id
 _symmetry_equiv_pos_as_xyz
 1  'x, y, z'
loop_
 _atom_site_type_symbol
 _atom_site_label
 _atom_site_symmetry_multiplicity
 _atom_site_fract_x
 _atom_site_fract_y
 _atom_site_fract_z
 _atom_site_fract_occupancy
 Cr  Cr1  1  0.00000  0.00723  0.80813  1
 Cr  Cr2  1  0.50000  0.49373  0.29239  1
 Cr  Cr3  1  0.50000  0.99501  0.19845  1
 Ni  Ni1  1  0.00000  0.50552  0.69605  1
 P  P1  1  0.00000  0.69910  0.07007  1
 P  P2  1  0.00000  0.18794  0.43707  1
 P  P3  1  0.50000  0.30343  0.93021  1
 P  P4  1  0.50000  0.80805  0.56761  1
