CIF file written using JARVIS-Tools package.
data_Bi2O3
_symmetry_space_group_name_H-M  'P2_1/c'
_cell_length_a       5.93424
_cell_length_b       8.13918
_cell_length_c       7.46306
_cell_angle_alpha    90
_cell_angle_beta     112.05
_cell_angle_gamma    90

_symmetry_Int_Tables_number  14
_chemical_formula_structural  Bi2O3
_chemical_formula_sum  Bi8O2
_cell_volume  334.09991618380235
_cell_formula_units_Z  4
loop_
  _symmetry_equiv_pos_site_id
 _symmetry_equiv_pos_as_xyz
 1  'x, y, z'
loop_
 _atom_site_type_symbol
 _atom_site_label
 _atom_site_symmetry_multiplicity
 _atom_site_fract_x
 _atom_site_fract_y
 _atom_site_fract_z
 _atom_site_fract_occupancy
 Bi  Bi1  1  0.03815  0.54376  0.27479  1
 Bi  Bi2  1  0.96185  0.04376  0.22521  1
 Bi  Bi3  1  0.96185  0.45624  0.72521  1
 Bi  Bi4  1  0.03815  0.95624  0.77479  1
 Bi  Bi5  1  0.52217  0.68984  0.86914  1
 Bi  Bi6  1  0.47783  0.18984  0.63086  1
 Bi  Bi7  1  0.47783  0.31016  0.13086  1
 Bi  Bi8  1  0.52217  0.81016  0.36914  1
 O  O1  1  0.27218  0.53439  0.01602  1
 O  O2  1  0.22172  0.29267  0.29323  1
 O  O3  1  0.72782  0.46561  0.98398  1
 O  O4  1  0.27218  0.96561  0.51602  1
 O  O5  1  0.72782  0.03439  0.48398  1
 O  O6  1  0.77828  0.70733  0.70677  1
 O  O7  1  0.76337  0.44637  0.37773  1
 O  O8  1  0.23663  0.94637  0.12227  1
 O  O9  1  0.23663  0.55363  0.62227  1
 O  O10  1  0.22172  0.20733  0.79323  1
 O  O11  1  0.76337  0.05363  0.87773  1
 O  O12  1  0.77828  0.79267  0.20677  1
