CIF file written using JARVIS-Tools package.
data_NdAl2Pt3
_symmetry_space_group_name_H-M  'P6/mmm'
_cell_length_a       5.63113
_cell_length_b       5.63114
_cell_length_c       3.97113
_cell_angle_alpha    90
_cell_angle_beta     90
_cell_angle_gamma    120

_symmetry_Int_Tables_number  191
_chemical_formula_structural  NdAl2Pt3
_chemical_formula_sum  NdAl2Pt3
_cell_volume  109.0528600986946
_cell_formula_units_Z  1
loop_
  _symmetry_equiv_pos_site_id
 _symmetry_equiv_pos_as_xyz
 1  'x, y, z'
loop_
 _atom_site_type_symbol
 _atom_site_label
 _atom_site_symmetry_multiplicity
 _atom_site_fract_x
 _atom_site_fract_y
 _atom_site_fract_z
 _atom_site_fract_occupancy
 Al  Al1  1  0.66667  0.33333  0.00000  1
 Al  Al2  1  0.33333  0.66667  0.00000  1
 Nd  Nd1  1  0.00000  0.00000  0.00000  1
 Pt  Pt1  1  0.50000  0.50000  0.50000  1
 Pt  Pt2  1  0.50000  0.00000  0.50000  1
 Pt  Pt3  1  0.00000  0.50000  0.50000  1
