CIF file written using JARVIS-Tools package.
data_TaS2
_symmetry_space_group_name_H-M  'R-3m'
_cell_length_a       3.38246
_cell_length_b       3.38246
_cell_length_c       12.2336
_cell_angle_alpha    82.0537
_cell_angle_beta     82.0537
_cell_angle_gamma    60.0001

_symmetry_Int_Tables_number  166
_chemical_formula_structural  TaS2
_chemical_formula_sum  Ta2S4
_cell_volume  119.65799502430217
_cell_formula_units_Z  2
loop_
  _symmetry_equiv_pos_site_id
 _symmetry_equiv_pos_as_xyz
 1  'x, y, z'
loop_
 _atom_site_type_symbol
 _atom_site_label
 _atom_site_symmetry_multiplicity
 _atom_site_fract_x
 _atom_site_fract_y
 _atom_site_fract_z
 _atom_site_fract_occupancy
 S  S1  1  0.20862  0.20862  0.37414  1
 S  S2  1  0.79138  0.79138  0.62586  1
 S  S3  1  0.37339  0.37339  0.87984  1
 S  S4  1  0.62661  0.62661  0.12016  1
 Ta  Ta1  1  0.08236  0.08236  0.75291  1
 Ta  Ta2  1  0.91764  0.91764  0.24709  1
