CIF file written using JARVIS-Tools package.
data_Hg
_symmetry_space_group_name_H-M  'Fmmm'
_cell_length_a       6.08359
_cell_length_b       5.58323
_cell_length_c       5.62857
_cell_angle_alpha    90
_cell_angle_beta     90
_cell_angle_gamma    117.288

_symmetry_Int_Tables_number  69
_chemical_formula_structural  Hg
_chemical_formula_sum  Hg6
_cell_volume  169.90541783560968
_cell_formula_units_Z  6
loop_
  _symmetry_equiv_pos_site_id
 _symmetry_equiv_pos_as_xyz
 1  'x, y, z'
loop_
 _atom_site_type_symbol
 _atom_site_label
 _atom_site_symmetry_multiplicity
 _atom_site_fract_x
 _atom_site_fract_y
 _atom_site_fract_z
 _atom_site_fract_occupancy
 Hg  Hg1  1  0.00000  0.50000  0.50000  1
 Hg  Hg2  1  0.00000  0.00000  0.00000  1
 Hg  Hg3  1  0.66663  0.33330  0.99976  1
 Hg  Hg4  1  0.33337  0.16670  0.49976  1
 Hg  Hg5  1  0.33337  0.66670  0.00024  1
 Hg  Hg6  1  0.66663  0.83330  0.50024  1
