CIF file written using JARVIS-Tools package.
data_NaCoPO4
_symmetry_space_group_name_H-M  'Pnma'
_cell_length_a       5.01793
_cell_length_b       6.79542
_cell_length_c       8.91239
_cell_angle_alpha    90
_cell_angle_beta     90
_cell_angle_gamma    90

_symmetry_Int_Tables_number  62
_chemical_formula_structural  NaCoPO4
_chemical_formula_sum  Na4Co4P4O6
_cell_volume  303.90302527825975
_cell_formula_units_Z  4
loop_
  _symmetry_equiv_pos_site_id
 _symmetry_equiv_pos_as_xyz
 1  'x, y, z'
loop_
 _atom_site_type_symbol
 _atom_site_label
 _atom_site_symmetry_multiplicity
 _atom_site_fract_x
 _atom_site_fract_y
 _atom_site_fract_z
 _atom_site_fract_occupancy
 Co  Co1  1  0.00000  0.50000  0.00000  1
 Co  Co2  1  0.50000  0.00000  0.50000  1
 Co  Co3  1  0.50000  0.50000  0.50000  1
 Co  Co4  1  0.00000  0.00000  0.00000  1
 Na  Na1  1  0.02973  0.75000  0.64719  1
 Na  Na2  1  0.97027  0.25000  0.35281  1
 Na  Na3  1  0.52973  0.25000  0.85281  1
 Na  Na4  1  0.47027  0.75000  0.14719  1
 O  O1  1  0.68221  0.93590  0.87933  1
 O  O2  1  0.18221  0.06410  0.62067  1
 O  O3  1  0.31779  0.43590  0.12067  1
 O  O4  1  0.68221  0.56410  0.87933  1
 O  O5  1  0.31779  0.06410  0.12067  1
 O  O6  1  0.81779  0.93590  0.37933  1
 O  O7  1  0.94913  0.75000  0.14709  1
 O  O8  1  0.81779  0.56410  0.37933  1
 O  O9  1  0.44913  0.25000  0.35291  1
 O  O10  1  0.75571  0.25000  0.11727  1
 O  O11  1  0.55087  0.75000  0.64709  1
 O  O12  1  0.18221  0.43590  0.62067  1
 O  O13  1  0.24429  0.75000  0.88273  1
 O  O14  1  0.25571  0.75000  0.38273  1
 O  O15  1  0.05087  0.25000  0.85291  1
 O  O16  1  0.74429  0.25000  0.61727  1
 P  P1  1  0.03601  0.25000  0.67668  1
 P  P2  1  0.46399  0.25000  0.17668  1
 P  P3  1  0.96399  0.75000  0.32332  1
 P  P4  1  0.53601  0.75000  0.82332  1
