CIF file written using JARVIS-Tools package.
data_Pr2Ga7Ni
_symmetry_space_group_name_H-M  'P4mm'
_cell_length_a       4.32721
_cell_length_b       4.32721
_cell_length_c       10.3792
_cell_angle_alpha    90
_cell_angle_beta     90
_cell_angle_gamma    90

_symmetry_Int_Tables_number  99
_chemical_formula_structural  Pr2Ga7Ni
_chemical_formula_sum  Pr2Ga7Ni
_cell_volume  194.34764749208432
_cell_formula_units_Z  1
loop_
  _symmetry_equiv_pos_site_id
 _symmetry_equiv_pos_as_xyz
 1  'x, y, z'
loop_
 _atom_site_type_symbol
 _atom_site_label
 _atom_site_symmetry_multiplicity
 _atom_site_fract_x
 _atom_site_fract_y
 _atom_site_fract_z
 _atom_site_fract_occupancy
 Ga  Ga1  1  0.00000  0.50000  0.23299  1
 Ga  Ga2  1  0.50000  0.00000  0.75465  1
 Ga  Ga3  1  0.50000  0.00000  0.23299  1
 Ga  Ga4  1  0.00000  0.50000  0.75465  1
 Ga  Ga5  1  0.00000  0.00000  0.61834  1
 Ga  Ga6  1  0.00000  0.00000  0.38069  1
 Ga  Ga7  1  0.50000  0.50000  0.91008  1
 Ni  Ni1  1  0.50000  0.50000  0.13486  1
 Pr  Pr1  1  0.00000  0.00000  0.99733  1
 Pr  Pr2  1  0.50000  0.50000  0.48343  1
