CIF file written using JARVIS-Tools package.
data_NbO2
_symmetry_space_group_name_H-M  'I4_1/a'
_cell_length_a       6.69092
_cell_length_b       11.575
_cell_length_c       11.575
_cell_angle_alpha    85.2082
_cell_angle_beta     73.2004
_cell_angle_gamma    73.2004

_symmetry_Int_Tables_number  88
_chemical_formula_structural  NbO2
_chemical_formula_sum  Nb6O32
_cell_volume  821.5639525848003
_cell_formula_units_Z  16
loop_
  _symmetry_equiv_pos_site_id
 _symmetry_equiv_pos_as_xyz
 1  'x, y, z'
loop_
 _atom_site_type_symbol
 _atom_site_label
 _atom_site_symmetry_multiplicity
 _atom_site_fract_x
 _atom_site_fract_y
 _atom_site_fract_z
 _atom_site_fract_occupancy
 Nb  Nb1  1  0.67592  0.39902  0.04024  1
 Nb  Nb2  1  0.33831  0.35535  0.38840  1
 Nb  Nb3  1  0.71616  0.45976  0.39902  1
 Nb  Nb4  1  0.08206  0.14465  0.11160  1
 Nb  Nb5  1  0.32408  0.60098  0.95976  1
 Nb  Nb6  1  0.27329  0.88840  0.64465  1
 Nb  Nb7  1  0.19366  0.38840  0.14465  1
 Nb  Nb8  1  0.42506  0.95976  0.89902  1
 Nb  Nb9  1  0.88482  0.89902  0.54024  1
 Nb  Nb10  1  0.80634  0.61160  0.85535  1
 Nb  Nb11  1  0.66169  0.64465  0.61160  1
 Nb  Nb12  1  0.72671  0.11160  0.35535  1
 Nb  Nb13  1  0.91794  0.85535  0.88840  1
 Nb  Nb14  1  0.11518  0.10098  0.45976  1
 Nb  Nb15  1  0.28384  0.54024  0.60098  1
 Nb  Nb16  1  0.57494  0.04024  0.10098  1
 O  O1  1  0.05270  0.10775  0.29166  1
 O  O2  1  0.93161  0.61859  0.67620  1
 O  O3  1  0.70731  0.96201  0.42137  1
 O  O4  1  0.05020  0.67620  0.88141  1
 O  O5  1  0.12867  0.07863  0.96201  1
 O  O6  1  0.16931  0.42137  0.53799  1
 O  O7  1  0.35077  0.46027  0.72601  1
 O  O8  1  0.22639  0.88141  0.82380  1
 O  O9  1  0.09068  0.53799  0.07863  1
 O  O10  1  0.94980  0.32380  0.11859  1
 O  O11  1  0.87133  0.92137  0.03799  1
 O  O12  1  0.07679  0.77399  0.46027  1
 O  O13  1  0.66045  0.29166  0.39225  1
 O  O14  1  0.64923  0.53973  0.27399  1
 O  O15  1  0.39219  0.17620  0.38141  1
 O  O16  1  0.77361  0.11859  0.17620  1
 O  O17  1  0.92321  0.22601  0.53973  1
 O  O18  1  0.53705  0.03973  0.77399  1
 O  O19  1  0.68896  0.27399  0.96027  1
 O  O20  1  0.29269  0.03799  0.57863  1
 O  O21  1  0.31104  0.72601  0.03973  1
 O  O22  1  0.33955  0.70834  0.60775  1
 O  O23  1  0.54789  0.60775  0.79166  1
 O  O24  1  0.34436  0.20834  0.10775  1
 O  O25  1  0.65564  0.79166  0.89225  1
 O  O26  1  0.06839  0.38141  0.32380  1
 O  O27  1  0.90932  0.46201  0.92137  1
 O  O28  1  0.60781  0.82380  0.61859  1
 O  O29  1  0.94730  0.89225  0.70834  1
 O  O30  1  0.83069  0.57863  0.46201  1
 O  O31  1  0.46295  0.96027  0.22601  1
 O  O32  1  0.45211  0.39225  0.20834  1
