CIF file written using JARVIS-Tools package.
data_Zr4FeNi
_symmetry_space_group_name_H-M  'I422'
_cell_length_a       5.26282
_cell_length_b       5.26282
_cell_length_c       5.26282
_cell_angle_alpha    105.694
_cell_angle_beta     105.694
_cell_angle_gamma    117.324

_symmetry_Int_Tables_number  97
_chemical_formula_structural  Zr4FeNi
_chemical_formula_sum  Zr4FeNi
_cell_volume  110.60982602536968
_cell_formula_units_Z  1
loop_
  _symmetry_equiv_pos_site_id
 _symmetry_equiv_pos_as_xyz
 1  'x, y, z'
loop_
 _atom_site_type_symbol
 _atom_site_label
 _atom_site_symmetry_multiplicity
 _atom_site_fract_x
 _atom_site_fract_y
 _atom_site_fract_z
 _atom_site_fract_occupancy
 Fe  Fe1  1  0.00000  0.00000  0.00000  1
 Ni  Ni1  1  0.50000  0.50000  0.00000  1
 Zr  Zr1  1  0.91941  0.41941  0.83881  1
 Zr  Zr2  1  0.58059  0.08059  0.16119  1
 Zr  Zr3  1  0.08059  0.91941  0.50000  1
 Zr  Zr4  1  0.41941  0.58059  0.50000  1
