CIF file written using JARVIS-Tools package.
data_UPb2
_symmetry_space_group_name_H-M  'C2/m'
_cell_length_a       5.95929
_cell_length_b       3.70275
_cell_length_c       8.79535
_cell_angle_alpha    102.129
_cell_angle_beta     114.185
_cell_angle_gamma    71.9398

_symmetry_Int_Tables_number  12
_chemical_formula_structural  UPb2
_chemical_formula_sum  U2Pb4
_cell_volume  167.54450773284384
_cell_formula_units_Z  2
loop_
  _symmetry_equiv_pos_site_id
 _symmetry_equiv_pos_as_xyz
 1  'x, y, z'
loop_
 _atom_site_type_symbol
 _atom_site_label
 _atom_site_symmetry_multiplicity
 _atom_site_fract_x
 _atom_site_fract_y
 _atom_site_fract_z
 _atom_site_fract_occupancy
 Pb  Pb1  1  0.17818  0.01383  0.20625  1
 Pb  Pb2  1  0.82182  -0.01383  0.79375  1
 Pb  Pb3  1  0.70419  0.34905  0.40273  1
 Pb  Pb4  1  0.29581  0.65095  0.59727  1
 U  U1  1  0.65438  0.70348  0.06117  1
 U  U2  1  0.34562  0.29652  0.93883  1
