CIF file written using JARVIS-Tools package.
data_NdSi3Ru
_symmetry_space_group_name_H-M  'I4mm'
_cell_length_a       4.26077
_cell_length_b       4.26077
_cell_length_c       5.82554
_cell_angle_alpha    111.45
_cell_angle_beta     111.45
_cell_angle_gamma    90

_symmetry_Int_Tables_number  107
_chemical_formula_structural  NdSi3Ru
_chemical_formula_sum  NdSi3Ru
_cell_volume  90.51604784195663
_cell_formula_units_Z  1
loop_
  _symmetry_equiv_pos_site_id
 _symmetry_equiv_pos_as_xyz
 1  'x, y, z'
loop_
 _atom_site_type_symbol
 _atom_site_label
 _atom_site_symmetry_multiplicity
 _atom_site_fract_x
 _atom_site_fract_y
 _atom_site_fract_z
 _atom_site_fract_occupancy
 Nd  Nd1  1  0.99849  0.99849  0.99698  1
 Ru  Ru1  1  0.65548  0.65548  0.31095  1
 Si  Si1  1  0.41980  0.41980  0.83960  1
 Si  Si2  1  0.76012  0.26012  0.52023  1
 Si  Si3  1  0.26012  0.76012  0.52023  1
