CIF file written using JARVIS-Tools package.
data_Hf2Al
_symmetry_space_group_name_H-M  'I4/mcm'
_cell_length_a       5.20918
_cell_length_b       5.48859
_cell_length_c       5.48859
_cell_angle_alpha    76.9857
_cell_angle_beta     61.6702
_cell_angle_gamma    61.6702

_symmetry_Int_Tables_number  140
_chemical_formula_structural  Hf2Al
_chemical_formula_sum  Hf4Al2
_cell_volume  121.58587959529676
_cell_formula_units_Z  2
loop_
  _symmetry_equiv_pos_site_id
 _symmetry_equiv_pos_as_xyz
 1  'x, y, z'
loop_
 _atom_site_type_symbol
 _atom_site_label
 _atom_site_symmetry_multiplicity
 _atom_site_fract_x
 _atom_site_fract_y
 _atom_site_fract_z
 _atom_site_fract_occupancy
 Al  Al1  1  0.75000  0.00000  0.00000  1
 Al  Al2  1  0.25000  0.00000  0.00000  1
 Hf  Hf1  1  0.34934  0.50000  0.80131  1
 Hf  Hf2  1  0.65066  0.50000  0.19869  1
 Hf  Hf3  1  0.84934  0.80131  0.50000  1
 Hf  Hf4  1  0.15066  0.19869  0.50000  1
