CIF file written using JARVIS-Tools package.
data_Ga2FeSe4
_symmetry_space_group_name_H-M  'P-42m'
_cell_length_a       5.47844
_cell_length_b       5.47844
_cell_length_c       5.66877
_cell_angle_alpha    90
_cell_angle_beta     90
_cell_angle_gamma    90

_symmetry_Int_Tables_number  111
_chemical_formula_structural  Ga2FeSe4
_chemical_formula_sum  Ga2FeSe4
_cell_volume  170.13834887681347
_cell_formula_units_Z  1
loop_
  _symmetry_equiv_pos_site_id
 _symmetry_equiv_pos_as_xyz
 1  'x, y, z'
loop_
 _atom_site_type_symbol
 _atom_site_label
 _atom_site_symmetry_multiplicity
 _atom_site_fract_x
 _atom_site_fract_y
 _atom_site_fract_z
 _atom_site_fract_occupancy
 Fe  Fe1  1  0.00000  0.00000  0.00000  1
 Ga  Ga1  1  0.00000  0.50000  0.50000  1
 Ga  Ga2  1  0.50000  0.00000  0.50000  1
 Se  Se1  1  0.73745  0.73745  0.23332  1
 Se  Se2  1  0.26255  0.26255  0.23332  1
 Se  Se3  1  0.26255  0.73745  0.76668  1
 Se  Se4  1  0.73745  0.26255  0.76668  1
