CIF file written using JARVIS-Tools package.
data_Al2ZnSe2S2
_symmetry_space_group_name_H-M  'Pm'
_cell_length_a       3.77508
_cell_length_b       6.29372
_cell_length_c       6.84257
_cell_angle_alpha    89.393
_cell_angle_beta     90
_cell_angle_gamma    90

_symmetry_Int_Tables_number  6
_chemical_formula_structural  Al2ZnSe2S2
_chemical_formula_sum  Al2ZnSe2S2
_cell_volume  162.5652150312747
_cell_formula_units_Z  1
loop_
  _symmetry_equiv_pos_site_id
 _symmetry_equiv_pos_as_xyz
 1  'x, y, z'
loop_
 _atom_site_type_symbol
 _atom_site_label
 _atom_site_symmetry_multiplicity
 _atom_site_fract_x
 _atom_site_fract_y
 _atom_site_fract_z
 _atom_site_fract_occupancy
 Al  Al1  1  0.50000  0.52846  0.17098  1
 Al  Al2  1  0.50000  0.96600  0.85055  1
 S  S1  1  0.00000  0.89073  0.66586  1
 S  S2  1  0.50000  0.87719  0.16098  1
 Se  Se1  1  0.50000  0.36488  0.84202  1
 Se  Se2  1  0.00000  0.35295  0.32768  1
 Zn  Zn1  1  0.00000  0.51979  0.64859  1
