CIF file written using JARVIS-Tools package.
data_ZrNbB2
_symmetry_space_group_name_H-M  'Amm2'
_cell_length_a       4.90673
_cell_length_b       4.90673
_cell_length_c       3.19348
_cell_angle_alpha    90
_cell_angle_beta     90
_cell_angle_gamma    139.085

_symmetry_Int_Tables_number  38
_chemical_formula_structural  ZrNbB2
_chemical_formula_sum  ZrNbB2
_cell_volume  50.355493407971764
_cell_formula_units_Z  1
loop_
  _symmetry_equiv_pos_site_id
 _symmetry_equiv_pos_as_xyz
 1  'x, y, z'
loop_
 _atom_site_type_symbol
 _atom_site_label
 _atom_site_symmetry_multiplicity
 _atom_site_fract_x
 _atom_site_fract_y
 _atom_site_fract_z
 _atom_site_fract_occupancy
 B  B1  1  0.45265  0.54735  0.50000  1
 B  B2  1  0.55686  0.44314  0.00000  1
 Nb  Nb1  1  0.13925  0.86075  0.50000  1
 Zr  Zr1  1  0.85124  0.14876  0.00000  1
