CIF file written using JARVIS-Tools package.
data_BaCrO4
_symmetry_space_group_name_H-M  'Pnma'
_cell_length_a       5.54813
_cell_length_b       7.36923
_cell_length_c       9.17328
_cell_angle_alpha    90
_cell_angle_beta     90
_cell_angle_gamma    90

_symmetry_Int_Tables_number  62
_chemical_formula_structural  BaCrO4
_chemical_formula_sum  Ba4Cr4O6
_cell_volume  375.0538238408596
_cell_formula_units_Z  4
loop_
  _symmetry_equiv_pos_site_id
 _symmetry_equiv_pos_as_xyz
 1  'x, y, z'
loop_
 _atom_site_type_symbol
 _atom_site_label
 _atom_site_symmetry_multiplicity
 _atom_site_fract_x
 _atom_site_fract_y
 _atom_site_fract_z
 _atom_site_fract_occupancy
 Ba  Ba1  1  0.25000  0.15606  0.18355  1
 Ba  Ba2  1  0.75000  0.65606  0.31645  1
 Ba  Ba3  1  0.25000  0.34394  0.68355  1
 Ba  Ba4  1  0.75000  0.84394  0.81645  1
 Cr  Cr1  1  0.25000  0.80560  0.55793  1
 Cr  Cr2  1  0.75000  0.19440  0.44207  1
 Cr  Cr3  1  0.75000  0.30560  0.94207  1
 Cr  Cr4  1  0.25000  0.69440  0.05793  1
 O  O1  1  0.00705  0.82400  0.08133  1
 O  O2  1  0.49295  0.67600  0.58133  1
 O  O3  1  0.99295  0.32400  0.41867  1
 O  O4  1  0.49295  0.82400  0.08133  1
 O  O5  1  0.99295  0.17600  0.91867  1
 O  O6  1  0.50705  0.32400  0.41867  1
 O  O7  1  0.00705  0.67600  0.58133  1
 O  O8  1  0.25000  0.96645  0.68378  1
 O  O9  1  0.75000  0.11381  0.61008  1
 O  O10  1  0.50705  0.17600  0.91867  1
 O  O11  1  0.75000  0.38619  0.11008  1
 O  O12  1  0.75000  0.03355  0.31622  1
 O  O13  1  0.75000  0.46645  0.81622  1
 O  O14  1  0.25000  0.53355  0.18378  1
 O  O15  1  0.25000  0.88619  0.38992  1
 O  O16  1  0.25000  0.61381  0.88992  1
