CIF file written using JARVIS-Tools package.
data_CrSbO4
_symmetry_space_group_name_H-M  'Cmmm'
_cell_length_a       3.12588
_cell_length_b       4.6072
_cell_length_c       4.6072
_cell_angle_alpha    91.2906
_cell_angle_beta     90
_cell_angle_gamma    90

_symmetry_Int_Tables_number  65
_chemical_formula_structural  CrSbO4
_chemical_formula_sum  CrSbO4
_cell_volume  66.3341390698392
_cell_formula_units_Z  1
loop_
  _symmetry_equiv_pos_site_id
 _symmetry_equiv_pos_as_xyz
 1  'x, y, z'
loop_
 _atom_site_type_symbol
 _atom_site_label
 _atom_site_symmetry_multiplicity
 _atom_site_fract_x
 _atom_site_fract_y
 _atom_site_fract_z
 _atom_site_fract_occupancy
 Cr  Cr1  1  0.50000  0.50000  0.50000  1
 O  O1  1  0.00000  0.69138  0.69138  1
 O  O2  1  0.50000  0.19734  0.80266  1
 O  O3  1  0.50000  0.80266  0.19734  1
 O  O4  1  0.00000  0.30862  0.30862  1
 Sb  Sb1  1  0.00000  0.00000  0.00000  1
