CIF file written using JARVIS-Tools package.
data_Tm2S2O
_symmetry_space_group_name_H-M  'P2_1/c'
_cell_length_a       6.77277
_cell_length_b       6.77845
_cell_length_c       8.14824
_cell_angle_alpha    90
_cell_angle_beta     99.7066
_cell_angle_gamma    90

_symmetry_Int_Tables_number  14
_chemical_formula_structural  Tm2S2O
_chemical_formula_sum  Tm8S8O4
_cell_volume  368.7211904840949
_cell_formula_units_Z  4
loop_
  _symmetry_equiv_pos_site_id
 _symmetry_equiv_pos_as_xyz
 1  'x, y, z'
loop_
 _atom_site_type_symbol
 _atom_site_label
 _atom_site_symmetry_multiplicity
 _atom_site_fract_x
 _atom_site_fract_y
 _atom_site_fract_z
 _atom_site_fract_occupancy
 O  O1  1  0.15017  0.58685  0.61654  1
 O  O2  1  0.84983  0.41315  0.38346  1
 O  O3  1  0.65017  0.91315  0.61654  1
 O  O4  1  0.34983  0.08685  0.38346  1
 S  S1  1  0.91936  0.86941  0.31784  1
 S  S2  1  0.46943  0.77798  0.92430  1
 S  S3  1  0.03057  0.27798  0.07570  1
 S  S4  1  0.53057  0.22202  0.07570  1
 S  S5  1  0.96943  0.72202  0.92430  1
 S  S6  1  0.58064  0.36941  0.68216  1
 S  S7  1  0.08064  0.13059  0.68216  1
 S  S8  1  0.41936  0.63059  0.31784  1
 Tm  Tm1  1  0.32402  0.85403  0.57535  1
 Tm  Tm2  1  0.75103  0.05378  0.86167  1
 Tm  Tm3  1  0.74897  0.55378  0.13833  1
 Tm  Tm4  1  0.24897  0.94622  0.13833  1
 Tm  Tm5  1  0.25103  0.44622  0.86167  1
 Tm  Tm6  1  0.67598  0.14597  0.42465  1
 Tm  Tm7  1  0.82402  0.64597  0.57535  1
 Tm  Tm8  1  0.17598  0.35403  0.42465  1
