CIF file written using JARVIS-Tools package.
data_TbZnSn2
_symmetry_space_group_name_H-M  'P4/nmm'
_cell_length_a       4.37641
_cell_length_b       4.37641
_cell_length_c       9.84393
_cell_angle_alpha    90
_cell_angle_beta     90
_cell_angle_gamma    90

_symmetry_Int_Tables_number  129
_chemical_formula_structural  TbZnSn2
_chemical_formula_sum  Tb2Zn2Sn4
_cell_volume  188.54025184557128
_cell_formula_units_Z  2
loop_
  _symmetry_equiv_pos_site_id
 _symmetry_equiv_pos_as_xyz
 1  'x, y, z'
loop_
 _atom_site_type_symbol
 _atom_site_label
 _atom_site_symmetry_multiplicity
 _atom_site_fract_x
 _atom_site_fract_y
 _atom_site_fract_z
 _atom_site_fract_occupancy
 Sn  Sn1  1  0.75000  0.75000  0.81582  1
 Sn  Sn2  1  0.25000  0.25000  0.18418  1
 Sn  Sn3  1  0.75000  0.25000  0.50000  1
 Sn  Sn4  1  0.25000  0.75000  0.50000  1
 Tb  Tb1  1  0.75000  0.75000  0.24822  1
 Tb  Tb2  1  0.25000  0.25000  0.75178  1
 Zn  Zn1  1  0.75000  0.25000  0.00000  1
 Zn  Zn2  1  0.25000  0.75000  0.00000  1
