CIF file written using JARVIS-Tools package.
data_BaZn2N2
_symmetry_space_group_name_H-M  'I4/mcm'
_cell_length_a       6.19668
_cell_length_b       6.66025
_cell_length_c       8.05464
_cell_angle_alpha    90
_cell_angle_beta     49.4647
_cell_angle_gamma    57.4928

_symmetry_Int_Tables_number  140
_chemical_formula_structural  BaZn2N2
_chemical_formula_sum  Ba2Zn4N4
_cell_volume  178.6479568128391
_cell_formula_units_Z  2
loop_
  _symmetry_equiv_pos_site_id
 _symmetry_equiv_pos_as_xyz
 1  'x, y, z'
loop_
 _atom_site_type_symbol
 _atom_site_label
 _atom_site_symmetry_multiplicity
 _atom_site_fract_x
 _atom_site_fract_y
 _atom_site_fract_z
 _atom_site_fract_occupancy
 Ba  Ba1  1  0.00000  0.00000  0.25000  1
 Ba  Ba2  1  0.00000  0.00000  0.75000  1
 N  N1  1  0.67319  0.50000  0.16340  1
 N  N2  1  0.32681  0.50000  0.83660  1
 N  N3  1  0.32681  0.17319  0.33660  1
 N  N4  1  0.67319  0.82681  0.66340  1
 Zn  Zn1  1  0.73104  0.50000  0.63448  1
 Zn  Zn2  1  0.26896  0.50000  0.36552  1
 Zn  Zn3  1  0.26896  0.23104  0.86552  1
 Zn  Zn4  1  0.73104  0.76896  0.13448  1
