CIF file written using JARVIS-Tools package.
data_NaNdH2S2O9
_symmetry_space_group_name_H-M  'P3_121'
_cell_length_a       6.97249
_cell_length_b       6.9725
_cell_length_c       12.8846
_cell_angle_alpha    90
_cell_angle_beta     90
_cell_angle_gamma    120

_symmetry_Int_Tables_number  152
_chemical_formula_structural  NaNdH2S2O9
_chemical_formula_sum  Na3Nd3H6S6O27
_cell_volume  542.47198759346
_cell_formula_units_Z  3
loop_
  _symmetry_equiv_pos_site_id
 _symmetry_equiv_pos_as_xyz
 1  'x, y, z'
loop_
 _atom_site_type_symbol
 _atom_site_label
 _atom_site_symmetry_multiplicity
 _atom_site_fract_x
 _atom_site_fract_y
 _atom_site_fract_z
 _atom_site_fract_occupancy
 H  H1  1  0.94372  0.90015  0.29435  1
 H  H2  1  0.05628  0.95643  0.03898  1
 H  H3  1  0.90015  0.94372  0.70565  1
 H  H4  1  0.95643  0.05628  0.96102  1
 H  H5  1  0.09985  0.04357  0.62769  1
 H  H6  1  0.04357  0.09985  0.37231  1
 Na  Na1  1  0.52922  0.52922  0.50000  1
 Na  Na2  1  0.00000  0.47078  0.16667  1
 Na  Na3  1  0.47078  -0.00000  0.83333  1
 Nd  Nd1  1  0.00000  0.43293  0.66667  1
 Nd  Nd2  1  0.43293  -0.00000  0.33333  1
 Nd  Nd3  1  0.56707  0.56707  0.00000  1
 O  O1  1  0.50322  0.38211  0.31973  1
 O  O2  1  0.07778  -0.00000  0.33333  1
 O  O3  1  0.59060  0.75815  0.30396  1
 O  O4  1  0.35662  0.48954  0.17157  1
 O  O5  1  0.86707  0.51046  0.49510  1
 O  O6  1  0.38211  0.50322  0.68027  1
 O  O7  1  0.00000  0.07778  0.66667  1
 O  O8  1  0.13005  0.38851  0.48859  1
 O  O9  1  0.87890  0.49678  0.98639  1
 O  O10  1  0.92222  0.92222  0.00000  1
 O  O11  1  0.61149  0.74154  0.82192  1
 O  O12  1  0.75815  0.59060  0.69604  1
 O  O13  1  0.48954  0.35662  0.82843  1
 O  O14  1  0.40940  0.16755  0.02937  1
 O  O15  1  0.49678  0.87890  0.01361  1
 O  O16  1  0.13293  0.64338  0.83823  1
 O  O17  1  0.51046  0.86707  0.50490  1
 O  O18  1  0.83245  0.24185  0.36270  1
 O  O19  1  0.86995  0.25846  0.84475  1
 O  O20  1  0.16755  0.40940  0.97063  1
 O  O21  1  0.24185  0.83245  0.63730  1
 O  O22  1  0.38851  0.13005  0.51141  1
 O  O23  1  0.64338  0.13293  0.16177  1
 O  O24  1  0.12110  0.61789  0.34694  1
 O  O25  1  0.61789  0.12110  0.65306  1
 O  O26  1  0.74154  0.61149  0.17808  1
 O  O27  1  0.25846  0.86995  0.15525  1
 S  S1  1  0.45473  0.01301  0.08900  1
 S  S2  1  0.55828  0.54527  0.75566  1
 S  S3  1  0.98699  0.44172  0.42233  1
 S  S4  1  0.01301  0.45473  0.91100  1
 S  S5  1  0.44172  0.98699  0.57767  1
 S  S6  1  0.54527  0.55828  0.24434  1
