CIF file written using JARVIS-Tools package.
data_Pr2Os3
_symmetry_space_group_name_H-M  'I4/mmm'
_cell_length_a       3.40641
_cell_length_b       4.78884
_cell_length_c       9.6679
_cell_angle_alpha    90
_cell_angle_beta     100.258
_cell_angle_gamma    134.661

_symmetry_Int_Tables_number  139
_chemical_formula_structural  Pr2Os3
_chemical_formula_sum  Pr2Os3
_cell_volume  108.60262279053585
_cell_formula_units_Z  1
loop_
  _symmetry_equiv_pos_site_id
 _symmetry_equiv_pos_as_xyz
 1  'x, y, z'
loop_
 _atom_site_type_symbol
 _atom_site_label
 _atom_site_symmetry_multiplicity
 _atom_site_fract_x
 _atom_site_fract_y
 _atom_site_fract_z
 _atom_site_fract_occupancy
 Os  Os1  1  0.00000  0.00000  0.00000  1
 Os  Os2  1  0.54564  0.77282  0.54561  1
 Os  Os3  1  0.45436  0.22718  0.45439  1
 Pr  Pr1  1  0.19667  0.59833  0.19653  1
 Pr  Pr2  1  0.80333  0.40167  0.80347  1
