CIF file written using JARVIS-Tools package.
data_NdSi3Ir
_symmetry_space_group_name_H-M  'I4mm'
_cell_length_a       4.28973
_cell_length_b       4.28973
_cell_length_c       5.79221
_cell_angle_alpha    111.734
_cell_angle_beta     111.734
_cell_angle_gamma    90

_symmetry_Int_Tables_number  107
_chemical_formula_structural  NdSi3Ir
_chemical_formula_sum  NdSi3Ir
_cell_volume  90.80259300845273
_cell_formula_units_Z  1
loop_
  _symmetry_equiv_pos_site_id
 _symmetry_equiv_pos_as_xyz
 1  'x, y, z'
loop_
 _atom_site_type_symbol
 _atom_site_label
 _atom_site_symmetry_multiplicity
 _atom_site_fract_x
 _atom_site_fract_y
 _atom_site_fract_z
 _atom_site_fract_occupancy
 Ir  Ir1  1  0.65456  0.65456  0.30912  1
 Nd  Nd1  1  0.99929  0.99929  0.99859  1
 Si  Si1  1  0.41405  0.41405  0.82809  1
 Si  Si2  1  0.76305  0.26305  0.52610  1
 Si  Si3  1  0.26305  0.76305  0.52610  1
