CIF file written using JARVIS-Tools package.
data_K4CO4
_symmetry_space_group_name_H-M  'I-4'
_cell_length_a       5.85416
_cell_length_b       5.85418
_cell_length_c       5.85419
_cell_angle_alpha    102.279
_cell_angle_beta     102.278
_cell_angle_gamma    125.077

_symmetry_Int_Tables_number  82
_chemical_formula_structural  K4CO4
_chemical_formula_sum  K4CO4
_cell_volume  145.6919473239017
_cell_formula_units_Z  1
loop_
  _symmetry_equiv_pos_site_id
 _symmetry_equiv_pos_as_xyz
 1  'x, y, z'
loop_
 _atom_site_type_symbol
 _atom_site_label
 _atom_site_symmetry_multiplicity
 _atom_site_fract_x
 _atom_site_fract_y
 _atom_site_fract_z
 _atom_site_fract_occupancy
 C  C1  1  0.50000  0.50000  0.00000  1
 K  K1  1  0.65284  0.80927  0.60824  1
 K  K2  1  0.95541  0.34717  0.15643  1
 K  K3  1  0.20103  0.04459  0.39176  1
 K  K4  1  0.19073  0.79897  0.84357  1
 O  O1  1  0.68907  0.49589  0.88329  1
 O  O2  1  0.19422  0.31093  0.80683  1
 O  O3  1  0.50411  0.38740  0.19317  1
 O  O4  1  0.61260  0.80578  0.11671  1
