CIF file written using JARVIS-Tools package.
data_Na2Cr2O7
_symmetry_space_group_name_H-M  'P-1'
_cell_length_a       7.20495
_cell_length_b       7.02159
_cell_length_c       6.97924
_cell_angle_alpha    95.5734
_cell_angle_beta     90.1447
_cell_angle_gamma    117.293

_symmetry_Int_Tables_number  2
_chemical_formula_structural  Na2Cr2O7
_chemical_formula_sum  Na4Cr4O4
_cell_volume  311.84896816227416
_cell_formula_units_Z  2
loop_
  _symmetry_equiv_pos_site_id
 _symmetry_equiv_pos_as_xyz
 1  'x, y, z'
loop_
 _atom_site_type_symbol
 _atom_site_label
 _atom_site_symmetry_multiplicity
 _atom_site_fract_x
 _atom_site_fract_y
 _atom_site_fract_z
 _atom_site_fract_occupancy
 Cr  Cr1  1  0.20142  0.82217  0.86438  1
 Cr  Cr2  1  0.79858  0.17783  0.13562  1
 Cr  Cr3  1  0.75900  0.49932  0.65864  1
 Cr  Cr4  1  0.24100  0.50068  0.34136  1
 Na  Na1  1  0.68179  0.94104  0.62478  1
 Na  Na2  1  0.31821  0.05896  0.37522  1
 Na  Na3  1  0.24767  0.35878  0.83578  1
 Na  Na4  1  0.75233  0.64122  0.16422  1
 O  O1  1  0.41678  0.80148  0.87413  1
 O  O2  1  0.58322  0.19852  0.12587  1
 O  O3  1  0.01287  0.56485  0.74978  1
 O  O4  1  0.77961  0.98946  0.26556  1
 O  O5  1  0.12333  0.85797  0.07927  1
 O  O6  1  0.22039  0.01054  0.73444  1
 O  O7  1  0.37256  0.46741  0.16321  1
 O  O8  1  0.35346  0.74990  0.43931  1
 O  O9  1  0.62744  0.53259  0.83679  1
 O  O10  1  0.87667  0.14203  0.92073  1
 O  O11  1  0.77544  0.66474  0.50181  1
 O  O12  1  0.22456  0.33526  0.49819  1
 O  O13  1  0.64654  0.25010  0.56069  1
 O  O14  1  -0.01287  0.43515  0.25022  1
