CIF file written using JARVIS-Tools package.
data_Y3Co8Sn4
_symmetry_space_group_name_H-M  'P6_3mc'
_cell_length_a       8.80153
_cell_length_b       8.80153
_cell_length_c       7.47161
_cell_angle_alpha    90
_cell_angle_beta     90
_cell_angle_gamma    120

_symmetry_Int_Tables_number  186
_chemical_formula_structural  Y3Co8Sn4
_chemical_formula_sum  Y6Co6Sn8
_cell_volume  501.2582083868562
_cell_formula_units_Z  2
loop_
  _symmetry_equiv_pos_site_id
 _symmetry_equiv_pos_as_xyz
 1  'x, y, z'
loop_
 _atom_site_type_symbol
 _atom_site_label
 _atom_site_symmetry_multiplicity
 _atom_site_fract_x
 _atom_site_fract_y
 _atom_site_fract_z
 _atom_site_fract_occupancy
 Co  Co1  1  0.68028  0.84014  0.16423  1
 Co  Co2  1  0.31972  0.15986  0.66423  1
 Co  Co3  1  0.15986  0.84014  0.16423  1
 Co  Co4  1  0.00000  0.00000  0.72355  1
 Co  Co5  1  0.33333  0.66667  0.78844  1
 Co  Co6  1  0.66667  0.33333  0.28844  1
 Co  Co7  1  0.00000  0.00000  0.22355  1
 Co  Co8  1  0.15986  0.31972  0.16423  1
 Co  Co9  1  0.90284  0.80569  0.97968  1
 Co  Co10  1  0.84014  0.68028  0.66423  1
 Co  Co11  1  0.84014  0.15986  0.66423  1
 Co  Co12  1  0.19431  0.09716  0.97968  1
 Co  Co13  1  0.80569  0.90284  0.47968  1
 Co  Co14  1  0.09716  0.19431  0.47968  1
 Co  Co15  1  0.09716  0.90284  0.47968  1
 Co  Co16  1  0.90284  0.09716  0.97968  1
 Sn  Sn1  1  0.33333  0.66667  0.17092  1
 Sn  Sn2  1  0.17030  0.82970  0.79694  1
 Sn  Sn3  1  0.34060  0.17030  0.29694  1
 Sn  Sn4  1  0.82970  0.65940  0.29694  1
 Sn  Sn5  1  0.17030  0.34060  0.79694  1
 Sn  Sn6  1  0.65940  0.82970  0.79694  1
 Sn  Sn7  1  0.66667  0.33333  0.67092  1
 Sn  Sn8  1  0.82970  0.17030  0.29694  1
 Y  Y1  1  0.52863  0.47137  0.00130  1
 Y  Y2  1  0.47137  0.52863  0.50130  1
 Y  Y3  1  0.94274  0.47137  0.00130  1
 Y  Y4  1  0.52863  0.05726  0.00130  1
 Y  Y5  1  0.47137  0.94274  0.50130  1
 Y  Y6  1  0.05726  0.52863  0.50130  1
