CIF file written using JARVIS-Tools package.
data_LiFeSiO4
_symmetry_space_group_name_H-M  'P6_3'
_cell_length_a       5.1899
_cell_length_b       5.19001
_cell_length_c       9.30896
_cell_angle_alpha    90.0057
_cell_angle_beta     90.0293
_cell_angle_gamma    120

_symmetry_Int_Tables_number  173
_chemical_formula_structural  LiFeSiO4
_chemical_formula_sum  Li2Fe2Si2O8
_cell_volume  217.1491987576169
_cell_formula_units_Z  2
loop_
  _symmetry_equiv_pos_site_id
 _symmetry_equiv_pos_as_xyz
 1  'x, y, z'
loop_
 _atom_site_type_symbol
 _atom_site_label
 _atom_site_symmetry_multiplicity
 _atom_site_fract_x
 _atom_site_fract_y
 _atom_site_fract_z
 _atom_site_fract_occupancy
 Fe  Fe1  1  0.33319  0.66662  0.13244  1
 Fe  Fe2  1  0.66672  0.33332  0.63244  1
 Li  Li1  1  0.99989  0.99990  0.21055  1
 Li  Li2  1  0.00012  0.99994  0.71054  1
 O  O1  1  0.62768  0.65598  0.70263  1
 O  O2  1  0.02864  0.37234  0.70240  1
 O  O3  1  0.33339  0.66721  0.93670  1
 O  O4  1  0.65595  0.02839  0.20263  1
 O  O5  1  0.34400  0.97135  0.70220  1
 O  O6  1  0.66671  0.33394  0.43670  1
 O  O7  1  0.97134  0.62744  0.20235  1
 O  O8  1  0.37232  0.34377  0.20225  1
 Si  Si1  1  0.33345  0.66671  0.76249  1
 Si  Si2  1  0.66660  0.33337  0.26249  1
