CIF file written using JARVIS-Tools package.
data_LiAlSiH2O5
_symmetry_space_group_name_H-M  'Pna2_1'
_cell_length_a       4.76248
_cell_length_b       8.99544
_cell_length_c       11.6209
_cell_angle_alpha    90
_cell_angle_beta     90
_cell_angle_gamma    90

_symmetry_Int_Tables_number  33
_chemical_formula_structural  LiAlSiH2O5
_chemical_formula_sum  Li4Al4Si4H8O20
_cell_volume  497.84598909269135
_cell_formula_units_Z  4
loop_
  _symmetry_equiv_pos_site_id
 _symmetry_equiv_pos_as_xyz
 1  'x, y, z'
loop_
 _atom_site_type_symbol
 _atom_site_label
 _atom_site_symmetry_multiplicity
 _atom_site_fract_x
 _atom_site_fract_y
 _atom_site_fract_z
 _atom_site_fract_occupancy
 Al  Al1  1  0.36349  0.04355  0.14230  1
 Al  Al2  1  0.86349  0.95645  0.85770  1
 Al  Al3  1  0.36349  0.45645  0.64230  1
 Al  Al4  1  0.86349  0.54355  0.35770  1
 H  H1  1  0.37358  0.14689  0.55008  1
 H  H2  1  0.87358  0.85311  0.44992  1
 H  H3  1  0.18363  0.48930  0.01301  1
 H  H4  1  0.68363  0.98930  0.48699  1
 H  H5  1  0.18363  0.01070  0.51301  1
 H  H6  1  0.68363  0.51070  0.98699  1
 H  H7  1  0.37358  0.35311  0.05008  1
 H  H8  1  0.87358  0.64689  0.94992  1
 Li  Li1  1  0.38847  0.58531  0.18827  1
 Li  Li2  1  0.88847  0.41469  0.81173  1
 Li  Li3  1  0.88847  0.08531  0.31173  1
 Li  Li4  1  0.38847  0.91469  0.68827  1
 O  O1  1  0.86038  0.83721  0.97998  1
 O  O2  1  0.52912  0.02692  0.82398  1
 O  O3  1  0.98573  0.63332  0.22888  1
 O  O4  1  0.52912  0.47308  0.32398  1
 O  O5  1  0.86486  0.96407  0.44773  1
 O  O6  1  0.48573  0.36668  0.77112  1
 O  O7  1  0.71891  0.77864  0.69077  1
 O  O8  1  0.48573  0.13332  0.27112  1
 O  O9  1  0.21891  0.27864  0.80923  1
 O  O10  1  0.36038  0.16279  0.02002  1
 O  O11  1  0.36038  0.33721  0.52002  1
 O  O12  1  0.36486  0.46407  0.05227  1
 O  O13  1  0.86486  0.53593  0.94773  1
 O  O14  1  0.98573  0.86668  0.72888  1
 O  O15  1  0.71891  0.72136  0.19077  1
 O  O16  1  0.21891  0.22136  0.30923  1
 O  O17  1  0.02912  0.97308  0.17602  1
 O  O18  1  0.02912  0.52692  0.67602  1
 O  O19  1  0.36486  0.03593  0.55227  1
 O  O20  1  0.86038  0.66279  0.47998  1
 Si  Si1  1  0.77273  0.62049  0.61418  1
 Si  Si2  1  0.77273  0.87951  0.11418  1
 Si  Si3  1  0.27273  0.37951  0.38582  1
 Si  Si4  1  0.27273  0.12049  0.88582  1
