CIF file written using JARVIS-Tools package.
data_CaAlB3O7
_symmetry_space_group_name_H-M  'Cmme'
_cell_length_a       4.39786
_cell_length_b       7.12165
_cell_length_c       7.12165
_cell_angle_alpha    111.739
_cell_angle_beta     90
_cell_angle_gamma    90

_symmetry_Int_Tables_number  67
_chemical_formula_structural  CaAlB3O7
_chemical_formula_sum  Ca2Al2B6O4
_cell_volume  207.1869142858728
_cell_formula_units_Z  2
loop_
  _symmetry_equiv_pos_site_id
 _symmetry_equiv_pos_as_xyz
 1  'x, y, z'
loop_
 _atom_site_type_symbol
 _atom_site_label
 _atom_site_symmetry_multiplicity
 _atom_site_fract_x
 _atom_site_fract_y
 _atom_site_fract_z
 _atom_site_fract_occupancy
 Al  Al1  1  0.00000  0.50000  0.50000  1
 Al  Al2  1  0.00000  0.00000  0.00000  1
 B  B1  1  0.54194  0.13712  0.86288  1
 B  B2  1  0.45806  0.63712  0.36288  1
 B  B3  1  0.50000  0.25000  0.25000  1
 B  B4  1  0.54194  0.36288  0.63712  1
 B  B5  1  0.45806  0.86288  0.13712  1
 B  B6  1  0.50000  0.75000  0.75000  1
 Ca  Ca1  1  0.00000  0.50000  0.00000  1
 Ca  Ca2  1  0.00000  0.00000  0.50000  1
 O  O1  1  0.77595  0.86826  0.13174  1
 O  O2  1  0.69972  0.21974  0.07363  1
 O  O3  1  0.30028  0.42637  0.28026  1
 O  O4  1  0.30028  0.71974  0.57363  1
 O  O5  1  0.30028  0.07363  0.21974  1
 O  O6  1  0.22405  0.36826  0.63174  1
 O  O7  1  0.32895  0.75000  0.25000  1
 O  O8  1  0.22405  0.13174  0.86826  1
 O  O9  1  0.69972  0.28026  0.42637  1
 O  O10  1  0.67105  0.25000  0.75000  1
 O  O11  1  0.69972  0.57363  0.71974  1
 O  O12  1  0.69972  0.92637  0.78026  1
 O  O13  1  0.30028  0.78026  0.92637  1
 O  O14  1  0.77595  0.63174  0.36826  1
