CIF file written using JARVIS-Tools package.
data_Tl2SeO4
_symmetry_space_group_name_H-M  'Pnma'
_cell_length_a       5.94085
_cell_length_b       7.99792
_cell_length_c       11.1785
_cell_angle_alpha    90
_cell_angle_beta     90
_cell_angle_gamma    90

_symmetry_Int_Tables_number  62
_chemical_formula_structural  Tl2SeO4
_chemical_formula_sum  Tl8Se4O6
_cell_volume  531.1415107779266
_cell_formula_units_Z  4
loop_
  _symmetry_equiv_pos_site_id
 _symmetry_equiv_pos_as_xyz
 1  'x, y, z'
loop_
 _atom_site_type_symbol
 _atom_site_label
 _atom_site_symmetry_multiplicity
 _atom_site_fract_x
 _atom_site_fract_y
 _atom_site_fract_z
 _atom_site_fract_occupancy
 O  O1  1  0.51688  0.18077  0.87604  1
 O  O2  1  0.75000  0.47662  0.88962  1
 O  O3  1  0.25000  0.02338  0.38962  1
 O  O4  1  0.75000  0.97662  0.61038  1
 O  O5  1  0.25000  0.74905  0.92127  1
 O  O6  1  0.75000  0.25095  0.07873  1
 O  O7  1  0.25000  0.24905  0.57873  1
 O  O8  1  0.75000  0.75095  0.42127  1
 O  O9  1  0.98312  0.18077  0.87604  1
 O  O10  1  0.48312  0.81923  0.12396  1
 O  O11  1  0.51688  0.68077  0.62396  1
 O  O12  1  0.01688  0.31923  0.37604  1
 O  O13  1  0.25000  0.52338  0.11038  1
 O  O14  1  0.48312  0.31923  0.37604  1
 O  O15  1  0.01688  0.81923  0.12396  1
 O  O16  1  0.98312  0.68077  0.62396  1
 Se  Se1  1  0.25000  0.72526  0.07114  1
 Se  Se2  1  0.75000  0.27474  0.92886  1
 Se  Se3  1  0.25000  0.22526  0.42886  1
 Se  Se4  1  0.75000  0.77474  0.57114  1
 Tl  Tl1  1  0.25000  0.97259  0.71730  1
 Tl  Tl2  1  0.25000  0.67659  0.40721  1
 Tl  Tl3  1  0.75000  0.32341  0.59279  1
 Tl  Tl4  1  0.25000  0.17659  0.09279  1
 Tl  Tl5  1  0.75000  0.82341  0.90721  1
 Tl  Tl6  1  0.25000  0.47259  0.78270  1
 Tl  Tl7  1  0.75000  0.52741  0.21730  1
 Tl  Tl8  1  0.75000  0.02741  0.28270  1
