CIF file written using JARVIS-Tools package.
data_BiI3
_symmetry_space_group_name_H-M  'R-3'
_cell_length_a       8.21557
_cell_length_b       8.21556
_cell_length_c       8.21557
_cell_angle_alpha    55.0413
_cell_angle_beta     55.0413
_cell_angle_gamma    55.0413

_symmetry_Int_Tables_number  148
_chemical_formula_structural  BiI3
_chemical_formula_sum  Bi2I6
_cell_volume  346.8707522669254
_cell_formula_units_Z  2
loop_
  _symmetry_equiv_pos_site_id
 _symmetry_equiv_pos_as_xyz
 1  'x, y, z'
loop_
 _atom_site_type_symbol
 _atom_site_label
 _atom_site_symmetry_multiplicity
 _atom_site_fract_x
 _atom_site_fract_y
 _atom_site_fract_z
 _atom_site_fract_occupancy
 Bi  Bi1  1  0.66656  0.66656  0.66656  1
 Bi  Bi2  1  0.33344  0.33344  0.33344  1
 I  I1  1  0.91471  0.24512  0.57867  1
 I  I2  1  0.24512  0.57867  0.91471  1
 I  I3  1  0.42133  0.08529  0.75488  1
 I  I4  1  0.75488  0.42133  0.08529  1
 I  I5  1  0.08529  0.75488  0.42133  1
 I  I6  1  0.57867  0.91471  0.24512  1
