CIF file written using JARVIS-Tools package.
data_PaSb3
_symmetry_space_group_name_H-M  'P6_3/mmc'
_cell_length_a       6.41348
_cell_length_b       6.41348
_cell_length_c       5.94494
_cell_angle_alpha    90
_cell_angle_beta     90
_cell_angle_gamma    120

_symmetry_Int_Tables_number  194
_chemical_formula_structural  PaSb3
_chemical_formula_sum  Pa2Sb6
_cell_volume  211.77096661158126
_cell_formula_units_Z  2
loop_
  _symmetry_equiv_pos_site_id
 _symmetry_equiv_pos_as_xyz
 1  'x, y, z'
loop_
 _atom_site_type_symbol
 _atom_site_label
 _atom_site_symmetry_multiplicity
 _atom_site_fract_x
 _atom_site_fract_y
 _atom_site_fract_z
 _atom_site_fract_occupancy
 Pa  Pa1  1  0.66667  0.33333  0.25000  1
 Pa  Pa2  1  0.33333  0.66667  0.75000  1
 Sb  Sb1  1  0.82733  0.17267  0.75000  1
 Sb  Sb2  1  0.34534  0.17267  0.75000  1
 Sb  Sb3  1  0.82733  0.65466  0.75000  1
 Sb  Sb4  1  0.17267  0.82733  0.25000  1
 Sb  Sb5  1  0.65466  0.82733  0.25000  1
 Sb  Sb6  1  0.17267  0.34534  0.25000  1
