CIF file written using JARVIS-Tools package.
data_Pb3N4
_symmetry_space_group_name_H-M  'R3m'
_cell_length_a       5.21788
_cell_length_b       5.21788
_cell_length_c       5.21788
_cell_angle_alpha    99.5485
_cell_angle_beta     99.5485
_cell_angle_gamma    99.5486

_symmetry_Int_Tables_number  160
_chemical_formula_structural  Pb3N4
_chemical_formula_sum  Pb3N4
_cell_volume  135.39455085866487
_cell_formula_units_Z  1
loop_
  _symmetry_equiv_pos_site_id
 _symmetry_equiv_pos_as_xyz
 1  'x, y, z'
loop_
 _atom_site_type_symbol
 _atom_site_label
 _atom_site_symmetry_multiplicity
 _atom_site_fract_x
 _atom_site_fract_y
 _atom_site_fract_z
 _atom_site_fract_occupancy
 N  N1  1  0.20153  0.49274  0.49274  1
 N  N2  1  0.49274  0.20153  0.49274  1
 N  N3  1  0.49274  0.49274  0.20153  1
 N  N4  1  0.40704  0.40704  0.40704  1
 Pb  Pb1  1  0.61151  0.06472  0.06472  1
 Pb  Pb2  1  0.06472  0.61151  0.06472  1
 Pb  Pb3  1  0.06472  0.06472  0.61151  1
