CIF file written using JARVIS-Tools package.
data_SiO2
_symmetry_space_group_name_H-M  'I2_13'
_cell_length_a       8.80564
_cell_length_b       8.80564
_cell_length_c       8.80564
_cell_angle_alpha    109.471
_cell_angle_beta     109.471
_cell_angle_gamma    109.471

_symmetry_Int_Tables_number  199
_chemical_formula_structural  SiO2
_chemical_formula_sum  Si2O24
_cell_volume  525.6063867089418
_cell_formula_units_Z  12
loop_
  _symmetry_equiv_pos_site_id
 _symmetry_equiv_pos_as_xyz
 1  'x, y, z'
loop_
 _atom_site_type_symbol
 _atom_site_label
 _atom_site_symmetry_multiplicity
 _atom_site_fract_x
 _atom_site_fract_y
 _atom_site_fract_z
 _atom_site_fract_occupancy
 O  O1  1  0.71157  0.10640  0.59429  1
 O  O2  1  0.01212  0.11728  0.90571  1
 O  O3  1  0.39483  0.78843  0.38272  1
 O  O4  1  0.91832  0.75000  0.66832  1
 O  O5  1  0.78843  0.38272  0.39483  1
 O  O6  1  0.25000  0.83168  0.58168  1
 O  O7  1  0.39360  0.10517  0.48788  1
 O  O8  1  0.10517  0.48788  0.39360  1
 O  O9  1  0.07301  0.82301  0.25000  1
 O  O10  1  0.38272  0.39483  0.78843  1
 O  O11  1  0.82301  0.25000  0.07301  1
 O  O12  1  0.83168  0.58168  0.25000  1
 O  O13  1  0.90571  0.01212  0.11728  1
 O  O14  1  0.25000  0.07301  0.82301  1
 O  O15  1  0.42699  0.67699  0.75000  1
 O  O16  1  0.75000  0.42699  0.67699  1
 O  O17  1  0.66832  0.91832  0.75000  1
 O  O18  1  0.67699  0.75000  0.42699  1
 O  O19  1  0.10640  0.59429  0.71157  1
 O  O20  1  0.58168  0.25000  0.83168  1
 O  O21  1  0.59429  0.71157  0.10640  1
 O  O22  1  0.48788  0.39360  0.10517  1
 O  O23  1  0.11728  0.90571  0.01212  1
 O  O24  1  0.75000  0.66832  0.91832  1
 Si  Si1  1  0.65234  0.61471  0.23098  1
 Si  Si2  1  0.23098  0.65234  0.61471  1
 Si  Si3  1  0.61471  0.23098  0.65234  1
 Si  Si4  1  0.96237  0.84766  0.07865  1
 Si  Si5  1  0.26902  0.88372  0.42135  1
 Si  Si6  1  0.61628  0.88529  0.53763  1
 Si  Si7  1  0.07865  0.96237  0.84766  1
 Si  Si8  1  0.84766  0.07865  0.96237  1
 Si  Si9  1  0.53763  0.61628  0.88529  1
 Si  Si10  1  0.88372  0.42135  0.26902  1
 Si  Si11  1  0.42135  0.26902  0.88372  1
 Si  Si12  1  0.88529  0.53763  0.61628  1
