CIF file written using JARVIS-Tools package.
data_TlCO2
_symmetry_space_group_name_H-M  'P2_1/c'
_cell_length_a       5.86333
_cell_length_b       6.67124
_cell_length_c       6.62348
_cell_angle_alpha    98.9478
_cell_angle_beta     90
_cell_angle_gamma    90

_symmetry_Int_Tables_number  14
_chemical_formula_structural  TlCO2
_chemical_formula_sum  Tl4C4O8
_cell_volume  255.92933669013084
_cell_formula_units_Z  4
loop_
  _symmetry_equiv_pos_site_id
 _symmetry_equiv_pos_as_xyz
 1  'x, y, z'
loop_
 _atom_site_type_symbol
 _atom_site_label
 _atom_site_symmetry_multiplicity
 _atom_site_fract_x
 _atom_site_fract_y
 _atom_site_fract_z
 _atom_site_fract_occupancy
 C  C1  1  0.59430  0.42891  0.44467  1
 C  C2  1  0.09430  0.57109  0.05533  1
 C  C3  1  0.40570  0.57109  0.55533  1
 C  C4  1  0.90570  0.42891  0.94467  1
 O  O1  1  0.75784  0.51253  0.36307  1
 O  O2  1  0.92605  0.23970  0.94403  1
 O  O3  1  0.24216  0.48747  0.63693  1
 O  O4  1  0.25784  0.48747  0.13693  1
 O  O5  1  0.42605  0.76030  0.55597  1
 O  O6  1  0.07395  0.76030  0.05597  1
 O  O7  1  0.74216  0.51253  0.86307  1
 O  O8  1  0.57395  0.23970  0.44403  1
 Tl  Tl1  1  0.44051  0.18433  0.82511  1
 Tl  Tl2  1  0.05949  0.18433  0.32511  1
 Tl  Tl3  1  0.94051  0.81567  0.67489  1
 Tl  Tl4  1  0.55949  0.81567  0.17489  1
