CIF file written using JARVIS-Tools package.
data_LiAg2F4
_symmetry_space_group_name_H-M  'Fd-3m'
_cell_length_a       6.50718
_cell_length_b       6.50718
_cell_length_c       6.50718
_cell_angle_alpha    120
_cell_angle_beta     60
_cell_angle_gamma    120

_symmetry_Int_Tables_number  227
_chemical_formula_structural  LiAg2F4
_chemical_formula_sum  Li2Ag4F8
_cell_volume  194.83331885392016
_cell_formula_units_Z  2
loop_
  _symmetry_equiv_pos_site_id
 _symmetry_equiv_pos_as_xyz
 1  'x, y, z'
loop_
 _atom_site_type_symbol
 _atom_site_label
 _atom_site_symmetry_multiplicity
 _atom_site_fract_x
 _atom_site_fract_y
 _atom_site_fract_z
 _atom_site_fract_occupancy
 Ag  Ag1  1  0.12500  0.37500  0.62500  1
 Ag  Ag2  1  0.62500  0.37500  0.62500  1
 Ag  Ag3  1  0.62500  0.37500  0.12500  1
 Ag  Ag4  1  0.62500  0.87500  0.62500  1
 F  F1  1  0.35931  0.11977  0.88023  1
 F  F2  1  0.36977  0.10931  0.36977  1
 F  F3  1  0.88023  0.11977  0.35931  1
 F  F4  1  0.88023  0.11977  0.88023  1
 F  F5  1  0.36977  0.63023  0.89069  1
 F  F6  1  0.36977  0.63023  0.36977  1
 F  F7  1  0.88023  0.64069  0.88023  1
 F  F8  1  0.89069  0.63023  0.36977  1
 Li  Li1  1  0.00000  0.00000  0.00000  1
 Li  Li2  1  0.25000  0.75000  0.25000  1
