CIF file written using JARVIS-Tools package.
data_MnAl2Cu
_symmetry_space_group_name_H-M  'P4/mmm'
_cell_length_a       2.82092
_cell_length_b       2.82092
_cell_length_c       6.64435
_cell_angle_alpha    90
_cell_angle_beta     90
_cell_angle_gamma    90

_symmetry_Int_Tables_number  123
_chemical_formula_structural  MnAl2Cu
_chemical_formula_sum  MnAl2Cu
_cell_volume  52.872878625492106
_cell_formula_units_Z  1
loop_
  _symmetry_equiv_pos_site_id
 _symmetry_equiv_pos_as_xyz
 1  'x, y, z'
loop_
 _atom_site_type_symbol
 _atom_site_label
 _atom_site_symmetry_multiplicity
 _atom_site_fract_x
 _atom_site_fract_y
 _atom_site_fract_z
 _atom_site_fract_occupancy
 Al  Al1  1  0.00000  0.00000  0.74650  1
 Al  Al2  1  0.00000  0.00000  0.25350  1
 Cu  Cu1  1  0.50000  0.50000  0.00000  1
 Mn  Mn1  1  0.50000  0.50000  0.50000  1
