CIF file written using JARVIS-Tools package.
data_CaTe2O5
_symmetry_space_group_name_H-M  'P2_1/c'
_cell_length_a       9.42025
_cell_length_b       5.69356
_cell_length_c       11.1557
_cell_angle_alpha    90
_cell_angle_beta     115.257
_cell_angle_gamma    90

_symmetry_Int_Tables_number  14
_chemical_formula_structural  CaTe2O5
_chemical_formula_sum  Ca4Te8O20
_cell_volume  541.1367847237921
_cell_formula_units_Z  4
loop_
  _symmetry_equiv_pos_site_id
 _symmetry_equiv_pos_as_xyz
 1  'x, y, z'
loop_
 _atom_site_type_symbol
 _atom_site_label
 _atom_site_symmetry_multiplicity
 _atom_site_fract_x
 _atom_site_fract_y
 _atom_site_fract_z
 _atom_site_fract_occupancy
 Ca  Ca1  1  0.01895  0.19902  0.64001  1
 Ca  Ca2  1  0.98105  0.69902  0.85999  1
 Ca  Ca3  1  0.98105  0.80098  0.35999  1
 Ca  Ca4  1  0.01895  0.30098  0.14001  1
 O  O1  1  0.22849  0.39708  0.60333  1
 O  O2  1  0.77151  0.60292  0.39667  1
 O  O3  1  0.47858  0.60665  0.59331  1
 O  O4  1  0.19896  0.97481  0.84750  1
 O  O5  1  0.80104  0.47481  0.65250  1
 O  O6  1  0.19896  0.52519  0.34750  1
 O  O7  1  0.15052  0.49810  0.79545  1
 O  O8  1  0.88609  0.15192  0.41176  1
 O  O9  1  0.52142  0.10665  0.90669  1
 O  O10  1  0.52142  0.39335  0.40669  1
 O  O11  1  0.47858  0.89335  0.09331  1
 O  O12  1  0.80104  0.02519  0.15250  1
 O  O13  1  0.84948  -0.00190  0.70455  1
 O  O14  1  0.15052  0.00190  0.29545  1
 O  O15  1  0.22849  0.10292  0.10333  1
 O  O16  1  0.11391  0.84808  0.58824  1
 O  O17  1  0.88609  0.34808  0.91176  1
 O  O18  1  0.77151  0.89708  0.89667  1
 O  O19  1  0.84948  0.50190  0.20455  1
 O  O20  1  0.11391  0.65192  0.08824  1
 Te  Te1  1  0.26747  0.67578  0.72489  1
 Te  Te2  1  0.26747  0.82422  0.22489  1
 Te  Te3  1  0.73253  0.32422  0.27511  1
 Te  Te4  1  0.73253  0.17578  0.77511  1
 Te  Te5  1  0.65178  0.65120  0.51022  1
 Te  Te6  1  0.34822  0.34880  0.48978  1
 Te  Te7  1  0.65178  0.84880  0.01022  1
 Te  Te8  1  0.34822  0.15120  0.98978  1
