CIF file written using JARVIS-Tools package.
data_LiPrGe
_symmetry_space_group_name_H-M  'P-62m'
_cell_length_a       7.34258
_cell_length_b       7.34258
_cell_length_c       4.38534
_cell_angle_alpha    90
_cell_angle_beta     90
_cell_angle_gamma    120

_symmetry_Int_Tables_number  189
_chemical_formula_structural  LiPrGe
_chemical_formula_sum  Li3Pr3Ge3
_cell_volume  204.753604461885
_cell_formula_units_Z  3
loop_
  _symmetry_equiv_pos_site_id
 _symmetry_equiv_pos_as_xyz
 1  'x, y, z'
loop_
 _atom_site_type_symbol
 _atom_site_label
 _atom_site_symmetry_multiplicity
 _atom_site_fract_x
 _atom_site_fract_y
 _atom_site_fract_z
 _atom_site_fract_occupancy
 Ge  Ge1  1  0.33333  0.66667  0.50000  1
 Ge  Ge2  1  0.66667  0.33333  0.50000  1
 Ge  Ge3  1  0.00000  0.00000  0.00000  1
 Li  Li1  1  0.76721  0.76721  0.50000  1
 Li  Li2  1  0.23279  -0.00000  0.50000  1
 Li  Li3  1  -0.00000  0.23279  0.50000  1
 Pr  Pr1  1  -0.00000  0.58248  0.00000  1
 Pr  Pr2  1  0.41752  0.41752  0.00000  1
 Pr  Pr3  1  0.58248  -0.00000  0.00000  1
