CIF file written using JARVIS-Tools package.
data_Tl10Hg3Cl16
_symmetry_space_group_name_H-M  'I4/m'
_cell_length_a       8.44287
_cell_length_b       8.44287
_cell_length_c       13.3214
_cell_angle_alpha    108.475
_cell_angle_beta     108.475
_cell_angle_gamma    90

_symmetry_Int_Tables_number  87
_chemical_formula_structural  Tl10Hg3Cl16
_chemical_formula_sum  Tl0Hg3Cl6
_cell_volume  848.8838633933755
_cell_formula_units_Z  1
loop_
  _symmetry_equiv_pos_site_id
 _symmetry_equiv_pos_as_xyz
 1  'x, y, z'
loop_
 _atom_site_type_symbol
 _atom_site_label
 _atom_site_symmetry_multiplicity
 _atom_site_fract_x
 _atom_site_fract_y
 _atom_site_fract_z
 _atom_site_fract_occupancy
 Cl  Cl1  1  0.60023  0.60023  0.20045  1
 Cl  Cl2  1  0.39977  0.39977  0.79955  1
 Cl  Cl3  1  0.32808  0.14905  -0.00000  1
 Cl  Cl4  1  0.85095  0.32808  0.00000  1
 Cl  Cl5  1  0.85689  0.02064  0.36947  1
 Cl  Cl6  1  0.97936  0.48743  0.63053  1
 Cl  Cl7  1  0.65117  0.14311  0.63053  1
 Cl  Cl8  1  0.48743  0.65117  0.63053  1
 Cl  Cl9  1  0.02064  0.51257  0.36947  1
 Cl  Cl10  1  0.10045  0.10045  0.20090  1
 Cl  Cl11  1  0.67192  0.85095  -0.00000  1
 Cl  Cl12  1  0.14905  0.67192  0.00000  1
 Cl  Cl13  1  0.14311  0.97936  0.63053  1
 Cl  Cl14  1  0.34883  0.85689  0.36947  1
 Cl  Cl15  1  0.89955  0.89955  0.79910  1
 Cl  Cl16  1  0.51257  0.34883  0.36947  1
 Hg  Hg1  1  0.25000  0.75000  0.50000  1
 Hg  Hg2  1  0.75000  0.25000  0.50000  1
 Hg  Hg3  1  0.00000  0.00000  0.00000  1
 Tl  Tl1  1  0.54424  0.07701  0.82185  1
 Tl  Tl2  1  0.25516  0.45576  0.17815  1
 Tl  Tl3  1  0.27761  0.74484  0.82185  1
 Tl  Tl4  1  0.73590  0.73590  0.47180  1
 Tl  Tl5  1  0.72239  0.25516  0.17815  1
 Tl  Tl6  1  0.74484  0.54424  0.82185  1
 Tl  Tl7  1  0.07701  0.27761  0.82185  1
 Tl  Tl8  1  0.92299  0.72239  0.17815  1
 Tl  Tl9  1  0.26410  0.26410  0.52820  1
 Tl  Tl10  1  0.45576  0.92299  0.17815  1
