CIF file written using JARVIS-Tools package.
data_FeB2W2
_symmetry_space_group_name_H-M  'Immm'
_cell_length_a       3.17189
_cell_length_b       4.53672
_cell_length_c       4.53672
_cell_angle_alpha    60.8468
_cell_angle_beta     69.5384
_cell_angle_gamma    69.5384

_symmetry_Int_Tables_number  71
_chemical_formula_structural  FeB2W2
_chemical_formula_sum  FeB2W2
_cell_volume  52.11783290891645
_cell_formula_units_Z  1
loop_
  _symmetry_equiv_pos_site_id
 _symmetry_equiv_pos_as_xyz
 1  'x, y, z'
loop_
 _atom_site_type_symbol
 _atom_site_label
 _atom_site_symmetry_multiplicity
 _atom_site_fract_x
 _atom_site_fract_y
 _atom_site_fract_z
 _atom_site_fract_occupancy
 B  B1  1  0.50000  0.29632  0.70368  1
 B  B2  1  0.50000  0.70368  0.29632  1
 Fe  Fe1  1  0.00000  0.00000  0.00000  1
 W  W1  1  0.20314  0.29686  0.29686  1
 W  W2  1  0.79686  0.70314  0.70314  1
