CIF file written using JARVIS-Tools package.
data_HfCuGe
_symmetry_space_group_name_H-M  'I4/mmm'
_cell_length_a       3.78585
_cell_length_b       3.78585
_cell_length_c       7.28853
_cell_angle_alpha    105.053
_cell_angle_beta     105.053
_cell_angle_gamma    90

_symmetry_Int_Tables_number  139
_chemical_formula_structural  HfCuGe
_chemical_formula_sum  Hf2Cu2Ge2
_cell_volume  97.16254487022887
_cell_formula_units_Z  2
loop_
  _symmetry_equiv_pos_site_id
 _symmetry_equiv_pos_as_xyz
 1  'x, y, z'
loop_
 _atom_site_type_symbol
 _atom_site_label
 _atom_site_symmetry_multiplicity
 _atom_site_fract_x
 _atom_site_fract_y
 _atom_site_fract_z
 _atom_site_fract_occupancy
 Cu  Cu1  1  0.50000  0.00000  0.00000  1
 Cu  Cu2  1  0.00000  0.50000  0.00000  1
 Ge  Ge1  1  0.12964  0.12964  0.25927  1
 Ge  Ge2  1  0.87036  0.87036  0.74073  1
 Hf  Hf1  1  0.33101  0.33101  0.66202  1
 Hf  Hf2  1  0.66899  0.66899  0.33798  1
