CIF file written using JARVIS-Tools package.
data_Cr3GaFe3As2
_symmetry_space_group_name_H-M  'P-62m'
_cell_length_a       3.78725
_cell_length_b       6.0139
_cell_length_c       6.01386
_cell_angle_alpha    120
_cell_angle_beta     90
_cell_angle_gamma    90

_symmetry_Int_Tables_number  189
_chemical_formula_structural  Cr3GaFe3As2
_chemical_formula_sum  Cr3GaFe3As2
_cell_volume  118.62134534693212
_cell_formula_units_Z  1
loop_
  _symmetry_equiv_pos_site_id
 _symmetry_equiv_pos_as_xyz
 1  'x, y, z'
loop_
 _atom_site_type_symbol
 _atom_site_label
 _atom_site_symmetry_multiplicity
 _atom_site_fract_x
 _atom_site_fract_y
 _atom_site_fract_z
 _atom_site_fract_occupancy
 As  As1  1  0.00000  0.33331  0.66667  1
 As  As2  1  0.00000  0.66665  0.33333  1
 Cr  Cr1  1  0.50000  0.57593  0.00000  1
 Cr  Cr2  1  0.50000  0.42410  0.42412  1
 Cr  Cr3  1  0.50000  0.99997  0.57588  1
 Fe  Fe1  1  0.00000  0.24252  -0.00000  1
 Fe  Fe2  1  0.00000  0.75748  0.75750  1
 Fe  Fe3  1  0.00000  0.99998  0.24250  1
 Ga  Ga1  1  0.50000  0.00002  0.00000  1
