CIF file written using JARVIS-Tools package.
data_AgAu
_symmetry_space_group_name_H-M  'R-3m'
_cell_length_a       5.07614
_cell_length_b       5.07615
_cell_length_c       5.07615
_cell_angle_alpha    33.5146
_cell_angle_beta     33.5146
_cell_angle_gamma    33.5146

_symmetry_Int_Tables_number  166
_chemical_formula_structural  AgAu
_chemical_formula_sum  AgAu
_cell_volume  35.51643972509664
_cell_formula_units_Z  1
loop_
  _symmetry_equiv_pos_site_id
 _symmetry_equiv_pos_as_xyz
 1  'x, y, z'
loop_
 _atom_site_type_symbol
 _atom_site_label
 _atom_site_symmetry_multiplicity
 _atom_site_fract_x
 _atom_site_fract_y
 _atom_site_fract_z
 _atom_site_fract_occupancy
 Ag  Ag1  1  0.00000  0.00000  0.00000  1
 Au  Au1  1  0.50000  0.50000  0.50000  1
