CIF file written using JARVIS-Tools package.
data_Y2B3C2
_symmetry_space_group_name_H-M  'Cmmm'
_cell_length_a       3.39314
_cell_length_b       3.65022
_cell_length_c       7.05639
_cell_angle_alpha    90
_cell_angle_beta     103.912
_cell_angle_gamma    90

_symmetry_Int_Tables_number  65
_chemical_formula_structural  Y2B3C2
_chemical_formula_sum  Y2B3C2
_cell_volume  84.83452059071804
_cell_formula_units_Z  1
loop_
  _symmetry_equiv_pos_site_id
 _symmetry_equiv_pos_as_xyz
 1  'x, y, z'
loop_
 _atom_site_type_symbol
 _atom_site_label
 _atom_site_symmetry_multiplicity
 _atom_site_fract_x
 _atom_site_fract_y
 _atom_site_fract_z
 _atom_site_fract_occupancy
 B  B1  1  0.21717  0.00000  0.43435  1
 B  B2  1  0.00000  0.00000  0.00000  1
 B  B3  1  0.78283  0.00000  0.56565  1
 C  C1  1  0.10499  0.00000  0.20997  1
 C  C2  1  0.89501  0.00000  0.79003  1
 Y  Y1  1  0.36445  0.50000  0.72891  1
 Y  Y2  1  0.63555  0.50000  0.27109  1
