CIF file written using JARVIS-Tools package.
data_Mg2Sb
_symmetry_space_group_name_H-M  'P-62m'
_cell_length_a       6.44352
_cell_length_b       6.44352
_cell_length_c       4.25299
_cell_angle_alpha    90
_cell_angle_beta     90
_cell_angle_gamma    120

_symmetry_Int_Tables_number  189
_chemical_formula_structural  Mg2Sb
_chemical_formula_sum  Mg4Sb2
_cell_volume  152.92247502336897
_cell_formula_units_Z  2
loop_
  _symmetry_equiv_pos_site_id
 _symmetry_equiv_pos_as_xyz
 1  'x, y, z'
loop_
 _atom_site_type_symbol
 _atom_site_label
 _atom_site_symmetry_multiplicity
 _atom_site_fract_x
 _atom_site_fract_y
 _atom_site_fract_z
 _atom_site_fract_occupancy
 Mg  Mg1  1  -0.00000  0.35376  0.00000  1
 Mg  Mg2  1  0.64624  0.64624  0.00000  1
 Mg  Mg3  1  0.35376  -0.00000  0.00000  1
 Mg  Mg4  1  0.00000  0.00000  0.50000  1
 Sb  Sb1  1  0.66667  0.33333  0.50000  1
 Sb  Sb2  1  0.33333  0.66667  0.50000  1
