CIF file written using JARVIS-Tools package.
data_CeNiSn
_symmetry_space_group_name_H-M  'P6_3/mmc'
_cell_length_a       4.47937
_cell_length_b       4.47937
_cell_length_c       7.62092
_cell_angle_alpha    90
_cell_angle_beta     90
_cell_angle_gamma    120.003

_symmetry_Int_Tables_number  194
_chemical_formula_structural  CeNiSn
_chemical_formula_sum  Ce2Ni2Sn2
_cell_volume  132.4206444448169
_cell_formula_units_Z  2
loop_
  _symmetry_equiv_pos_site_id
 _symmetry_equiv_pos_as_xyz
 1  'x, y, z'
loop_
 _atom_site_type_symbol
 _atom_site_label
 _atom_site_symmetry_multiplicity
 _atom_site_fract_x
 _atom_site_fract_y
 _atom_site_fract_z
 _atom_site_fract_occupancy
 Ce  Ce1  1  0.00000  0.00000  0.50000  1
 Ce  Ce2  1  0.00000  0.00000  0.00000  1
 Ni  Ni1  1  0.66663  0.33337  0.75000  1
 Ni  Ni2  1  0.33337  0.66663  0.25000  1
 Sn  Sn1  1  0.66669  0.33331  0.25000  1
 Sn  Sn2  1  0.33331  0.66669  0.75000  1
