CIF file written using JARVIS-Tools package.
data_MgAlBO4
_symmetry_space_group_name_H-M  'Pnma'
_cell_length_a       4.35999
_cell_length_b       5.71635
_cell_length_c       9.92278
_cell_angle_alpha    90
_cell_angle_beta     90
_cell_angle_gamma    90

_symmetry_Int_Tables_number  62
_chemical_formula_structural  MgAlBO4
_chemical_formula_sum  Mg4Al4B4O6
_cell_volume  247.30736010911167
_cell_formula_units_Z  4
loop_
  _symmetry_equiv_pos_site_id
 _symmetry_equiv_pos_as_xyz
 1  'x, y, z'
loop_
 _atom_site_type_symbol
 _atom_site_label
 _atom_site_symmetry_multiplicity
 _atom_site_fract_x
 _atom_site_fract_y
 _atom_site_fract_z
 _atom_site_fract_occupancy
 Al  Al1  1  0.00000  0.00000  0.00000  1
 Al  Al2  1  0.00000  0.50000  0.00000  1
 Al  Al3  1  0.50000  0.50000  0.50000  1
 Al  Al4  1  0.50000  0.00000  0.50000  1
 B  B1  1  0.91029  0.75000  0.41212  1
 B  B2  1  0.58971  0.75000  0.91212  1
 B  B3  1  0.41029  0.25000  0.08788  1
 B  B4  1  0.08971  0.25000  0.58788  1
 Mg  Mg1  1  0.01406  0.75000  0.72396  1
 Mg  Mg2  1  0.98594  0.25000  0.27604  1
 Mg  Mg3  1  0.51406  0.25000  0.77604  1
 Mg  Mg4  1  0.48594  0.75000  0.22396  1
 O  O1  1  0.24110  0.75000  0.41898  1
 O  O2  1  0.76611  0.96106  0.35071  1
 O  O3  1  0.73389  0.53894  0.85071  1
 O  O4  1  0.25890  0.75000  0.91898  1
 O  O5  1  0.73389  0.96106  0.85071  1
 O  O6  1  0.74110  0.25000  0.08102  1
 O  O7  1  0.74507  0.75000  0.55579  1
 O  O8  1  0.76611  0.53894  0.35071  1
 O  O9  1  0.26611  0.03894  0.14929  1
 O  O10  1  0.75493  0.75000  0.05579  1
 O  O11  1  0.23389  0.03894  0.64929  1
 O  O12  1  0.26611  0.46106  0.14929  1
 O  O13  1  0.24507  0.25000  0.94421  1
 O  O14  1  0.23389  0.46106  0.64929  1
 O  O15  1  0.25493  0.25000  0.44421  1
 O  O16  1  0.75890  0.25000  0.58102  1
