CIF file written using JARVIS-Tools package.
data_CrO3
_symmetry_space_group_name_H-M  'Amm2'
_cell_length_a       4.8007
_cell_length_b       4.80069
_cell_length_c       3.06583
_cell_angle_alpha    90
_cell_angle_beta     90
_cell_angle_gamma    124.575

_symmetry_Int_Tables_number  38
_chemical_formula_structural  CrO3
_chemical_formula_sum  CrO3
_cell_volume  58.17768697965004
_cell_formula_units_Z  1
loop_
  _symmetry_equiv_pos_site_id
 _symmetry_equiv_pos_as_xyz
 1  'x, y, z'
loop_
 _atom_site_type_symbol
 _atom_site_label
 _atom_site_symmetry_multiplicity
 _atom_site_fract_x
 _atom_site_fract_y
 _atom_site_fract_z
 _atom_site_fract_occupancy
 Cr  Cr1  1  0.86557  0.86557  0.00000  1
 O  O1  1  0.06659  0.06659  0.50000  1
 O  O2  1  0.80049  0.50163  0.00000  1
 O  O3  1  0.50163  0.80049  0.00000  1
