CIF file written using JARVIS-Tools package.
data_TiCr2S4
_symmetry_space_group_name_H-M  'C2/m'
_cell_length_a       3.44792
_cell_length_b       6.08953
_cell_length_c       6.6194
_cell_angle_alpha    117.425
_cell_angle_beta     105.096
_cell_angle_gamma    90

_symmetry_Int_Tables_number  12
_chemical_formula_structural  TiCr2S4
_chemical_formula_sum  TiCr2S4
_cell_volume  117.93245355129328
_cell_formula_units_Z  1
loop_
  _symmetry_equiv_pos_site_id
 _symmetry_equiv_pos_as_xyz
 1  'x, y, z'
loop_
 _atom_site_type_symbol
 _atom_site_label
 _atom_site_symmetry_multiplicity
 _atom_site_fract_x
 _atom_site_fract_y
 _atom_site_fract_z
 _atom_site_fract_occupancy
 Cr  Cr1  1  0.74146  0.72925  0.48291  1
 Cr  Cr2  1  0.25854  0.27075  0.51709  1
 S  S1  1  0.63239  0.96762  0.26477  1
 S  S2  1  0.36761  0.03238  0.73523  1
 S  S3  1  0.87246  0.54665  0.74491  1
 S  S4  1  0.12754  0.45335  0.25509  1
 Ti  Ti1  1  0.00000  0.00000  0.00000  1
