CIF file written using JARVIS-Tools package.
data_HfNbB2
_symmetry_space_group_name_H-M  'Amm2'
_cell_length_a       4.84118
_cell_length_b       4.84118
_cell_length_c       3.17886
_cell_angle_alpha    90
_cell_angle_beta     90
_cell_angle_gamma    138.801

_symmetry_Int_Tables_number  38
_chemical_formula_structural  HfNbB2
_chemical_formula_sum  HfNbB2
_cell_volume  49.073192310856854
_cell_formula_units_Z  1
loop_
  _symmetry_equiv_pos_site_id
 _symmetry_equiv_pos_as_xyz
 1  'x, y, z'
loop_
 _atom_site_type_symbol
 _atom_site_label
 _atom_site_symmetry_multiplicity
 _atom_site_fract_x
 _atom_site_fract_y
 _atom_site_fract_z
 _atom_site_fract_occupancy
 B  B1  1  0.55727  0.44273  0.00000  1
 B  B2  1  0.44924  0.55076  0.50000  1
 Hf  Hf1  1  0.85190  0.14810  0.00000  1
 Nb  Nb1  1  0.14159  0.85841  0.50000  1
