CIF file written using JARVIS-Tools package.
data_Na2UO4
_symmetry_space_group_name_H-M  'Pbam'
_cell_length_a       3.5153
_cell_length_b       5.69524
_cell_length_c       9.81173
_cell_angle_alpha    90
_cell_angle_beta     90
_cell_angle_gamma    90

_symmetry_Int_Tables_number  55
_chemical_formula_structural  Na2UO4
_chemical_formula_sum  Na4U2O8
_cell_volume  196.43569993656482
_cell_formula_units_Z  2
loop_
  _symmetry_equiv_pos_site_id
 _symmetry_equiv_pos_as_xyz
 1  'x, y, z'
loop_
 _atom_site_type_symbol
 _atom_site_label
 _atom_site_symmetry_multiplicity
 _atom_site_fract_x
 _atom_site_fract_y
 _atom_site_fract_z
 _atom_site_fract_occupancy
 Na  Na1  1  0.50000  0.44309  0.18477  1
 Na  Na2  1  0.50000  0.05691  0.68477  1
 Na  Na3  1  0.50000  0.94309  0.31523  1
 Na  Na4  1  0.50000  0.55691  0.81523  1
 O  O1  1  0.00000  0.35303  0.67941  1
 O  O2  1  0.50000  0.28803  0.44689  1
 O  O3  1  0.00000  0.85303  0.82059  1
 O  O4  1  0.50000  0.71197  0.55311  1
 O  O5  1  0.00000  0.64697  0.32059  1
 O  O6  1  0.50000  0.21197  0.94689  1
 O  O7  1  0.00000  0.14697  0.17941  1
 O  O8  1  0.50000  0.78803  0.05311  1
 U  U1  1  0.00000  0.00000  0.00000  1
 U  U2  1  0.00000  0.50000  0.50000  1
