CIF file written using JARVIS-Tools package.
data_Cr5S8
_symmetry_space_group_name_H-M  'C2/m'
_cell_length_a       6.68461
_cell_length_b       10.9101
_cell_length_c       6.56858
_cell_angle_alpha    91.4698
_cell_angle_beta     120.586
_cell_angle_gamma    90

_symmetry_Int_Tables_number  12
_chemical_formula_structural  Cr5S8
_chemical_formula_sum  Cr0S6
_cell_volume  412.20821026388427
_cell_formula_units_Z  2
loop_
  _symmetry_equiv_pos_site_id
 _symmetry_equiv_pos_as_xyz
 1  'x, y, z'
loop_
 _atom_site_type_symbol
 _atom_site_label
 _atom_site_symmetry_multiplicity
 _atom_site_fract_x
 _atom_site_fract_y
 _atom_site_fract_z
 _atom_site_fract_occupancy
 Cr  Cr1  1  0.00000  -0.00000  0.00001  1
 Cr  Cr2  1  0.47553  0.76577  0.95105  1
 Cr  Cr3  1  0.02300  0.74256  0.04601  1
 Cr  Cr4  1  0.97699  0.25744  0.95399  1
 Cr  Cr5  1  0.54333  0.24736  0.50086  1
 Cr  Cr6  1  0.50000  0.50000  0.00000  1
 Cr  Cr7  1  0.45667  0.75265  0.49913  1
 Cr  Cr8  1  0.04246  0.75265  0.49913  1
 Cr  Cr9  1  0.95754  0.24736  0.50086  1
 Cr  Cr10  1  0.52447  0.23423  0.04895  1
 S  S1  1  0.67458  0.10230  0.34916  1
 S  S2  1  0.15836  0.14428  0.31672  1
 S  S3  1  0.82751  0.39185  0.65501  1
 S  S4  1  0.33313  0.87801  0.16873  1
 S  S5  1  0.65861  0.65191  0.31721  1
 S  S6  1  0.34140  0.34809  0.68279  1
 S  S7  1  0.17249  0.60815  0.34499  1
 S  S8  1  0.66687  0.12199  0.83127  1
 S  S9  1  0.83414  0.37265  0.17125  1
 S  S10  1  0.33711  0.37265  0.17125  1
 S  S11  1  0.16440  0.12199  0.83127  1
 S  S12  1  0.32542  0.89770  0.65084  1
 S  S13  1  0.83560  0.87801  0.16873  1
 S  S14  1  0.66289  0.62735  0.82875  1
 S  S15  1  0.16586  0.62735  0.82875  1
 S  S16  1  0.84164  0.85572  0.68328  1
