CIF file written using JARVIS-Tools package.
data_Zr3Se4
_symmetry_space_group_name_H-M  'Cmmm'
_cell_length_a       6.6003
_cell_length_b       6.6003
_cell_length_c       3.80126
_cell_angle_alpha    90
_cell_angle_beta     90
_cell_angle_gamma    107.847

_symmetry_Int_Tables_number  65
_chemical_formula_structural  Zr3Se4
_chemical_formula_sum  Zr3Se4
_cell_volume  157.629506523087
_cell_formula_units_Z  1
loop_
  _symmetry_equiv_pos_site_id
 _symmetry_equiv_pos_as_xyz
 1  'x, y, z'
loop_
 _atom_site_type_symbol
 _atom_site_label
 _atom_site_symmetry_multiplicity
 _atom_site_fract_x
 _atom_site_fract_y
 _atom_site_fract_z
 _atom_site_fract_occupancy
 Se  Se1  1  0.73602  0.26398  0.50000  1
 Se  Se2  1  0.74196  0.74196  0.00000  1
 Se  Se3  1  0.26398  0.73602  0.50000  1
 Se  Se4  1  0.25804  0.25804  0.00000  1
 Zr  Zr1  1  0.00000  0.50000  0.00000  1
 Zr  Zr2  1  0.00000  0.00000  0.50000  1
 Zr  Zr3  1  0.50000  0.00000  0.00000  1
