CIF file written using JARVIS-Tools package.
data_WS2
_symmetry_space_group_name_H-M  'P-6m2'
_cell_length_a       3.19328
_cell_length_b       3.19329
_cell_length_c       26.2799
_cell_angle_alpha    90
_cell_angle_beta     90
_cell_angle_gamma    59.9993

_symmetry_Int_Tables_number  187
_chemical_formula_structural  WS2
_chemical_formula_sum  W3S6
_cell_volume  232.07358021098125
_cell_formula_units_Z  3
loop_
  _symmetry_equiv_pos_site_id
 _symmetry_equiv_pos_as_xyz
 1  'x, y, z'
loop_
 _atom_site_type_symbol
 _atom_site_label
 _atom_site_symmetry_multiplicity
 _atom_site_fract_x
 _atom_site_fract_y
 _atom_site_fract_z
 _atom_site_fract_occupancy
 S  S1  1  0.66667  0.66667  0.04196  1
 S  S2  1  0.66667  0.66667  0.51875  1
 S  S3  1  0.33334  0.33334  0.28034  1
 S  S4  1  0.66667  0.66667  0.16180  1
 S  S5  1  0.66667  0.66667  0.63859  1
 S  S6  1  0.33334  0.33334  0.40021  1
 W  W1  1  0.66667  0.66667  0.34027  1
 W  W2  1  0.33333  0.33333  0.10186  1
 W  W3  1  0.33333  0.33333  0.57869  1
