CIF file written using JARVIS-Tools package.
data_La2CoO4
_symmetry_space_group_name_H-M  'P2_1/c'
_cell_length_a       5.36442
_cell_length_b       5.45958
_cell_length_c       6.96025
_cell_angle_alpha    89.9993
_cell_angle_beta     112.686
_cell_angle_gamma    90.0006

_symmetry_Int_Tables_number  14
_chemical_formula_structural  La2CoO4
_chemical_formula_sum  La4Co2O8
_cell_volume  188.0774005796183
_cell_formula_units_Z  2
loop_
  _symmetry_equiv_pos_site_id
 _symmetry_equiv_pos_as_xyz
 1  'x, y, z'
loop_
 _atom_site_type_symbol
 _atom_site_label
 _atom_site_symmetry_multiplicity
 _atom_site_fract_x
 _atom_site_fract_y
 _atom_site_fract_z
 _atom_site_fract_occupancy
 Co  Co1  1  1.00000  0.00000  1.00000  1
 Co  Co2  1  0.50000  0.50000  1.00000  1
 La  La1  1  0.36443  0.99175  0.72510  1
 La  La2  1  0.13558  0.49174  0.27490  1
 La  La3  1  0.86443  0.50826  0.72510  1
 La  La4  1  0.63557  0.00825  0.27490  1
 O  O1  1  0.74000  0.25134  0.97730  1
 O  O2  1  0.68024  0.46345  0.35893  1
 O  O3  1  0.81972  0.96346  0.64109  1
 O  O4  1  0.23997  0.24866  0.97724  1
 O  O5  1  0.26000  0.74866  0.02269  1
 O  O6  1  0.18028  0.03654  0.35891  1
 O  O7  1  0.31975  0.53655  0.64108  1
 O  O8  1  0.76003  0.75134  0.02276  1
