CIF file written using JARVIS-Tools package.
data_Pb3SO6
_symmetry_space_group_name_H-M  'Cmcm'
_cell_length_a       5.96798
_cell_length_b       7.83174
_cell_length_c       7.83174
_cell_angle_alpha    97.0382
_cell_angle_beta     90
_cell_angle_gamma    90

_symmetry_Int_Tables_number  63
_chemical_formula_structural  Pb3SO6
_chemical_formula_sum  Pb6S2O2
_cell_volume  363.2946512360872
_cell_formula_units_Z  2
loop_
  _symmetry_equiv_pos_site_id
 _symmetry_equiv_pos_as_xyz
 1  'x, y, z'
loop_
 _atom_site_type_symbol
 _atom_site_label
 _atom_site_symmetry_multiplicity
 _atom_site_fract_x
 _atom_site_fract_y
 _atom_site_fract_z
 _atom_site_fract_occupancy
 O  O1  1  0.25000  0.55037  0.68664  1
 O  O2  1  0.75000  0.44963  0.31336  1
 O  O3  1  0.00000  0.85727  0.85727  1
 O  O4  1  0.95395  0.71188  0.28812  1
 O  O5  1  0.54605  0.71188  0.28812  1
 O  O6  1  0.00000  0.14273  0.14273  1
 O  O7  1  0.50000  0.85727  0.85727  1
 O  O8  1  0.45395  0.28812  0.71188  1
 O  O9  1  0.75000  0.68664  0.55037  1
 O  O10  1  0.50000  0.14273  0.14273  1
 O  O11  1  0.04605  0.28812  0.71188  1
 O  O12  1  0.25000  0.31336  0.44963  1
 Pb  Pb1  1  0.25000  0.84467  0.63856  1
 Pb  Pb2  1  0.25000  0.36144  0.15533  1
 Pb  Pb3  1  0.25000  0.89378  0.10622  1
 Pb  Pb4  1  0.75000  0.63856  0.84467  1
 Pb  Pb5  1  0.75000  0.15533  0.36144  1
 Pb  Pb6  1  0.75000  0.10622  0.89378  1
 S  S1  1  0.25000  0.35940  0.64060  1
 S  S2  1  0.75000  0.64060  0.35940  1
