CIF file written using JARVIS-Tools package.
data_NbVCN
_symmetry_space_group_name_H-M  'R3m'
_cell_length_a       5.30377
_cell_length_b       5.30377
_cell_length_c       5.30377
_cell_angle_alpha    33.7074
_cell_angle_beta     33.7074
_cell_angle_gamma    33.7074

_symmetry_Int_Tables_number  160
_chemical_formula_structural  NbVCN
_chemical_formula_sum  NbVCN
_cell_volume  40.93686998874242
_cell_formula_units_Z  1
loop_
  _symmetry_equiv_pos_site_id
 _symmetry_equiv_pos_as_xyz
 1  'x, y, z'
loop_
 _atom_site_type_symbol
 _atom_site_label
 _atom_site_symmetry_multiplicity
 _atom_site_fract_x
 _atom_site_fract_y
 _atom_site_fract_z
 _atom_site_fract_occupancy
 C  C1  1  0.99286  0.99286  0.99286  1
 N  N1  1  0.50312  0.50312  0.50312  1
 Nb  Nb1  1  0.74595  0.74595  0.74595  1
 V  V1  1  0.25806  0.25806  0.25806  1
