CIF file written using JARVIS-Tools package.
data_Sm2O
_symmetry_space_group_name_H-M  'I4_1/amd'
_cell_length_a       6.90327
_cell_length_b       9.42036
_cell_length_c       6.41001
_cell_angle_alpha    28.6292
_cell_angle_beta     57.4195
_cell_angle_gamma    42.8778

_symmetry_Int_Tables_number  141
_chemical_formula_structural  Sm2O
_chemical_formula_sum  Sm4O2
_cell_volume  128.70104410204868
_cell_formula_units_Z  2
loop_
  _symmetry_equiv_pos_site_id
 _symmetry_equiv_pos_as_xyz
 1  'x, y, z'
loop_
 _atom_site_type_symbol
 _atom_site_label
 _atom_site_symmetry_multiplicity
 _atom_site_fract_x
 _atom_site_fract_y
 _atom_site_fract_z
 _atom_site_fract_occupancy
 O  O1  1  0.49999  0.00000  0.00001  1
 O  O2  1  0.25001  0.50000  -0.00001  1
 Sm  Sm1  1  0.26457  0.00000  0.47085  1
 Sm  Sm2  1  0.73542  -0.00000  0.52917  1
 Sm  Sm3  1  0.48543  0.50000  0.52915  1
 Sm  Sm4  1  0.01458  0.50000  0.47083  1
