CIF file written using JARVIS-Tools package.
data_Li7VO5F
_symmetry_space_group_name_H-M  'P1'
_cell_length_a       5.49857
_cell_length_b       5.5051
_cell_length_c       10.619
_cell_angle_alpha    88.8738
_cell_angle_beta     88.4516
_cell_angle_gamma    60.7176

_symmetry_Int_Tables_number  1
_chemical_formula_structural  Li7VO5F
_chemical_formula_sum  Li4V2O0F2
_cell_volume  280.25512498482317
_cell_formula_units_Z  2
loop_
  _symmetry_equiv_pos_site_id
 _symmetry_equiv_pos_as_xyz
 1  'x, y, z'
loop_
 _atom_site_type_symbol
 _atom_site_label
 _atom_site_symmetry_multiplicity
 _atom_site_fract_x
 _atom_site_fract_y
 _atom_site_fract_z
 _atom_site_fract_occupancy
 F  F1  1  0.31949  0.35559  0.71722  1
 F  F2  1  0.63489  0.68101  0.21689  1
 Li  Li1  1  0.39424  0.62676  0.63080  1
 Li  Li2  1  0.65281  0.66992  0.43314  1
 Li  Li3  1  0.66891  0.64888  0.90818  1
 Li  Li4  1  0.95523  0.72781  0.75843  1
 Li  Li5  1  0.70698  0.29054  0.76885  1
 Li  Li6  1  0.36285  0.98419  0.75689  1
 Li  Li7  1  0.26871  0.68638  0.26616  1
 Li  Li8  1  0.70255  0.00107  0.26107  1
 Li  Li9  1  0.36812  0.02685  0.12830  1
 Li  Li10  1  0.61267  0.38424  0.12812  1
 Li  Li11  1  0.99636  0.38491  0.62660  1
 Li  Li12  1  0.34547  0.31287  0.40904  1
 Li  Li13  1  0.00757  0.34961  0.25798  1
 Li  Li14  1  0.31316  0.34522  0.93391  1
 O  O1  1  0.00137  0.03058  0.16928  1
 O  O2  1  0.31705  -0.00658  0.94816  1
 O  O3  1  0.35741  0.32019  0.22044  1
 O  O4  1  0.98792  0.31640  0.44752  1
 O  O5  1  0.30251  0.67999  0.45297  1
 O  O6  1  0.67925  0.63468  0.71943  1
 O  O7  1  0.69766  0.98567  0.43845  1
 O  O8  1  0.03247  -0.00033  0.66967  1
 O  O9  1  0.98993  0.69494  0.93705  1
 O  O10  1  0.68182  0.29831  0.95208  1
 V  V1  1  0.00214  0.98535  0.99624  1
 V  V2  1  0.98812  -0.00132  0.49689  1
