CIF file written using JARVIS-Tools package.
data_SmSi3Rh
_symmetry_space_group_name_H-M  'I4mm'
_cell_length_a       4.24276
_cell_length_b       4.24276
_cell_length_c       5.75352
_cell_angle_alpha    111.636
_cell_angle_beta     111.636
_cell_angle_gamma    90

_symmetry_Int_Tables_number  107
_chemical_formula_structural  SmSi3Rh
_chemical_formula_sum  SmSi3Rh
_cell_volume  88.37479161564494
_cell_formula_units_Z  1
loop_
  _symmetry_equiv_pos_site_id
 _symmetry_equiv_pos_as_xyz
 1  'x, y, z'
loop_
 _atom_site_type_symbol
 _atom_site_label
 _atom_site_symmetry_multiplicity
 _atom_site_fract_x
 _atom_site_fract_y
 _atom_site_fract_z
 _atom_site_fract_occupancy
 Rh  Rh1  1  0.65395  0.65395  0.30790  1
 Si  Si1  1  0.41435  0.41435  0.82869  1
 Si  Si2  1  0.76312  0.26312  0.52623  1
 Si  Si3  1  0.26312  0.76312  0.52623  1
 Sm  Sm1  1  0.99947  0.99947  0.99894  1
