CIF file written using JARVIS-Tools package.
data_Sr2Zn3Cd
_symmetry_space_group_name_H-M  'Cm'
_cell_length_a       6.07956
_cell_length_b       6.07956
_cell_length_c       7.83491
_cell_angle_alpha    50.2505
_cell_angle_beta     50.2505
_cell_angle_gamma    46.7635

_symmetry_Int_Tables_number  8
_chemical_formula_structural  Sr2Zn3Cd
_chemical_formula_sum  Sr2Zn3Cd
_cell_volume  151.35708760166224
_cell_formula_units_Z  1
loop_
  _symmetry_equiv_pos_site_id
 _symmetry_equiv_pos_as_xyz
 1  'x, y, z'
loop_
 _atom_site_type_symbol
 _atom_site_label
 _atom_site_symmetry_multiplicity
 _atom_site_fract_x
 _atom_site_fract_y
 _atom_site_fract_z
 _atom_site_fract_occupancy
 Cd  Cd1  1  0.83619  0.83619  0.60575  1
 Sr  Sr1  1  0.45280  0.45280  0.79546  1
 Sr  Sr2  1  0.54639  0.54639  0.20311  1
 Zn  Zn1  1  0.17584  0.17584  0.38917  1
 Zn  Zn2  1  0.15338  0.15338  0.78887  1
 Zn  Zn3  1  0.83540  0.83540  0.21764  1
