CIF file written using JARVIS-Tools package.
data_CuO2
_symmetry_space_group_name_H-M  'C2/m'
_cell_length_a       3.07923
_cell_length_b       3.36347
_cell_length_c       7.55142
_cell_angle_alpha    110.436
_cell_angle_beta     90.0043
_cell_angle_gamma    62.7478

_symmetry_Int_Tables_number  12
_chemical_formula_structural  CuO2
_chemical_formula_sum  Cu2O4
_cell_volume  63.94158461599192
_cell_formula_units_Z  2
loop_
  _symmetry_equiv_pos_site_id
 _symmetry_equiv_pos_as_xyz
 1  'x, y, z'
loop_
 _atom_site_type_symbol
 _atom_site_label
 _atom_site_symmetry_multiplicity
 _atom_site_fract_x
 _atom_site_fract_y
 _atom_site_fract_z
 _atom_site_fract_occupancy
 Cu  Cu1  1  -0.01390  0.02778  0.75426  1
 Cu  Cu2  1  0.01392  -0.02779  0.24574  1
 O  O1  1  0.55877  0.88247  0.89503  1
 O  O2  1  0.47504  0.04995  0.41551  1
 O  O3  1  0.44121  0.11752  0.10497  1
 O  O4  1  0.52496  0.95006  0.58449  1
