CIF file written using JARVIS-Tools package.
data_Tb4CoB13
_symmetry_space_group_name_H-M  'P4/mnc'
_cell_length_a       7.33144
_cell_length_b       7.33144
_cell_length_c       6.98282
_cell_angle_alpha    90
_cell_angle_beta     90
_cell_angle_gamma    90

_symmetry_Int_Tables_number  128
_chemical_formula_structural  Tb4CoB13
_chemical_formula_sum  Tb8Co2B26
_cell_volume  375.32670315914373
_cell_formula_units_Z  2
loop_
  _symmetry_equiv_pos_site_id
 _symmetry_equiv_pos_as_xyz
 1  'x, y, z'
loop_
 _atom_site_type_symbol
 _atom_site_label
 _atom_site_symmetry_multiplicity
 _atom_site_fract_x
 _atom_site_fract_y
 _atom_site_fract_z
 _atom_site_fract_occupancy
 B  B1  1  0.40853  0.90853  0.75000  1
 B  B2  1  0.33051  0.46060  0.75451  1
 B  B3  1  0.03940  0.16949  0.74549  1
 B  B4  1  0.53940  0.33051  0.75451  1
 B  B5  1  0.46060  0.66949  0.75451  1
 B  B6  1  0.83051  0.03940  0.74549  1
 B  B7  1  0.16949  0.96060  0.74549  1
 B  B8  1  0.59147  0.09147  0.25000  1
 B  B9  1  0.59147  0.09147  0.75000  1
 B  B10  1  0.66949  0.53940  0.24549  1
 B  B11  1  0.00000  0.00000  0.50000  1
 B  B12  1  0.50000  0.50000  0.00000  1
 B  B13  1  0.40853  0.90853  0.25000  1
 B  B14  1  0.09147  0.40853  0.25000  1
 B  B15  1  0.90853  0.59147  0.25000  1
 B  B16  1  0.96060  0.83051  0.74549  1
 B  B17  1  0.66949  0.53940  0.75451  1
 B  B18  1  0.90853  0.59147  0.75000  1
 B  B19  1  0.03940  0.16949  0.25451  1
 B  B20  1  0.83051  0.03940  0.25451  1
 B  B21  1  0.16949  0.96060  0.25451  1
 B  B22  1  0.53940  0.33051  0.24549  1
 B  B23  1  0.46060  0.66949  0.24549  1
 B  B24  1  0.96060  0.83051  0.25451  1
 B  B25  1  0.09147  0.40853  0.75000  1
 B  B26  1  0.33051  0.46060  0.24549  1
 Co  Co1  1  0.50000  0.50000  0.50000  1
 Co  Co2  1  0.00000  0.00000  0.00000  1
 Tb  Tb1  1  0.68116  0.81625  0.00000  1
 Tb  Tb2  1  0.18375  0.68116  0.00000  1
 Tb  Tb3  1  0.31884  0.18375  0.00000  1
 Tb  Tb4  1  0.18116  0.68375  0.50000  1
 Tb  Tb5  1  0.68375  0.81884  0.50000  1
 Tb  Tb6  1  0.31625  0.18116  0.50000  1
 Tb  Tb7  1  0.81625  0.31884  0.00000  1
 Tb  Tb8  1  0.81884  0.31625  0.50000  1
