CIF file written using JARVIS-Tools package.
data_Li5Fe5Co2O12
_symmetry_space_group_name_H-M  'C2'
_cell_length_a       5.01049
_cell_length_b       5.01049
_cell_length_c       9.62982
_cell_angle_alpha    84.8577
_cell_angle_beta     95.1423
_cell_angle_gamma    60.0056

_symmetry_Int_Tables_number  5
_chemical_formula_structural  Li5Fe5Co2O12
_chemical_formula_sum  Li5Fe5Co2O2
_cell_volume  205.98809631521425
_cell_formula_units_Z  1
loop_
  _symmetry_equiv_pos_site_id
 _symmetry_equiv_pos_as_xyz
 1  'x, y, z'
loop_
 _atom_site_type_symbol
 _atom_site_label
 _atom_site_symmetry_multiplicity
 _atom_site_fract_x
 _atom_site_fract_y
 _atom_site_fract_z
 _atom_site_fract_occupancy
 Co  Co1  1  0.25300  0.25300  0.75000  1
 Co  Co2  1  0.75290  0.75290  0.25000  1
 Fe  Fe1  1  0.57249  0.57249  0.75000  1
 Fe  Fe2  1  0.42152  0.42152  0.25000  1
 Fe  Fe3  1  0.51213  0.99509  0.50619  1
 Fe  Fe4  1  0.07389  0.07389  0.25000  1
 Fe  Fe5  1  0.99509  0.51213  0.99381  1
 Li  Li1  1  0.16649  0.66233  0.50638  1
 Li  Li2  1  0.84454  0.32593  0.50734  1
 Li  Li3  1  0.66233  0.16649  0.99362  1
 Li  Li4  1  0.32593  0.84454  0.99266  1
 Li  Li5  1  0.91466  0.91466  0.75000  1
 O  O1  1  0.85932  0.63280  0.62434  1
 O  O2  1  0.78777  0.03770  0.38275  1
 O  O3  1  0.95030  0.23591  0.87771  1
 O  O4  1  0.23591  0.95030  0.62229  1
 O  O5  1  0.14619  0.35428  0.37741  1
 O  O6  1  0.35428  0.14619  0.12259  1
 O  O7  1  0.27746  0.54604  0.87679  1
 O  O8  1  0.54604  0.27746  0.62321  1
 O  O9  1  0.45937  0.71786  0.37771  1
 O  O10  1  0.71786  0.45937  0.12229  1
 O  O11  1  0.63280  0.85932  0.87566  1
 O  O12  1  0.03770  0.78777  0.11725  1
