CIF file written using JARVIS-Tools package.
data_DyHo3
_symmetry_space_group_name_H-M  'P6_3/mmc'
_cell_length_a       7.10572
_cell_length_b       7.10572
_cell_length_c       5.5579
_cell_angle_alpha    90
_cell_angle_beta     90
_cell_angle_gamma    120

_symmetry_Int_Tables_number  194
_chemical_formula_structural  DyHo3
_chemical_formula_sum  Dy2Ho6
_cell_volume  243.02880485078924
_cell_formula_units_Z  2
loop_
  _symmetry_equiv_pos_site_id
 _symmetry_equiv_pos_as_xyz
 1  'x, y, z'
loop_
 _atom_site_type_symbol
 _atom_site_label
 _atom_site_symmetry_multiplicity
 _atom_site_fract_x
 _atom_site_fract_y
 _atom_site_fract_z
 _atom_site_fract_occupancy
 Dy  Dy1  1  0.33333  0.66667  0.75000  1
 Dy  Dy2  1  0.66667  0.33333  0.25000  1
 Ho  Ho1  1  0.16652  0.33305  0.25000  1
 Ho  Ho2  1  0.66695  0.83348  0.25000  1
 Ho  Ho3  1  0.16652  0.83348  0.25000  1
 Ho  Ho4  1  0.83348  0.66695  0.75000  1
 Ho  Ho5  1  0.33305  0.16652  0.75000  1
 Ho  Ho6  1  0.83348  0.16652  0.75000  1
