CIF file written using JARVIS-Tools package.
data_Rb2Sn2Se5
_symmetry_space_group_name_H-M  'C2/c'
_cell_length_a       7.20256
_cell_length_b       7.20256
_cell_length_c       12.2447
_cell_angle_alpha    75.5092
_cell_angle_beta     75.5092
_cell_angle_gamma    71.8905

_symmetry_Int_Tables_number  15
_chemical_formula_structural  Rb2Sn2Se5
_chemical_formula_sum  Rb4Sn4Se0
_cell_volume  574.1889530916542
_cell_formula_units_Z  2
loop_
  _symmetry_equiv_pos_site_id
 _symmetry_equiv_pos_as_xyz
 1  'x, y, z'
loop_
 _atom_site_type_symbol
 _atom_site_label
 _atom_site_symmetry_multiplicity
 _atom_site_fract_x
 _atom_site_fract_y
 _atom_site_fract_z
 _atom_site_fract_occupancy
 Rb  Rb1  1  0.59357  0.93529  0.32196  1
 Rb  Rb2  1  0.06471  0.40643  0.17804  1
 Rb  Rb3  1  0.40643  0.06471  0.67804  1
 Rb  Rb4  1  0.93529  0.59357  0.82196  1
 Se  Se1  1  0.81848  0.18152  0.75000  1
 Se  Se2  1  0.37892  0.64939  0.88114  1
 Se  Se3  1  0.35060  0.62108  0.61886  1
 Se  Se4  1  0.62108  0.35060  0.11886  1
 Se  Se5  1  0.64939  0.37892  0.38114  1
 Se  Se6  1  0.75875  0.86111  0.03699  1
 Se  Se7  1  0.24125  0.13889  0.96301  1
 Se  Se8  1  0.13889  0.24125  0.46301  1
 Se  Se9  1  0.18152  0.81848  0.25000  1
 Se  Se10  1  0.86111  0.75875  0.53699  1
 Sn  Sn1  1  0.55712  0.25150  0.94195  1
 Sn  Sn2  1  0.44288  0.74850  0.05805  1
 Sn  Sn3  1  0.25150  0.55712  0.44195  1
 Sn  Sn4  1  0.74850  0.44288  0.55805  1
