CIF file written using JARVIS-Tools package.
data_Ce2Mg
_symmetry_space_group_name_H-M  'P4_2/mnm'
_cell_length_a       6.12533
_cell_length_b       6.12533
_cell_length_c       5.59578
_cell_angle_alpha    90
_cell_angle_beta     90
_cell_angle_gamma    90

_symmetry_Int_Tables_number  136
_chemical_formula_structural  Ce2Mg
_chemical_formula_sum  Ce4Mg2
_cell_volume  209.95201509635993
_cell_formula_units_Z  2
loop_
  _symmetry_equiv_pos_site_id
 _symmetry_equiv_pos_as_xyz
 1  'x, y, z'
loop_
 _atom_site_type_symbol
 _atom_site_label
 _atom_site_symmetry_multiplicity
 _atom_site_fract_x
 _atom_site_fract_y
 _atom_site_fract_z
 _atom_site_fract_occupancy
 Ce  Ce1  1  0.34868  0.34868  0.00000  1
 Ce  Ce2  1  0.65132  0.65132  0.00000  1
 Ce  Ce3  1  0.84868  0.15132  0.50000  1
 Ce  Ce4  1  0.15132  0.84868  0.50000  1
 Mg  Mg1  1  0.00000  0.00000  0.00000  1
 Mg  Mg2  1  0.50000  0.50000  0.50000  1
