CIF file written using JARVIS-Tools package.
data_PrZnPO
_symmetry_space_group_name_H-M  'R-3m'
_cell_length_a       10.7333
_cell_length_b       10.7333
_cell_length_c       10.7333
_cell_angle_alpha    21.6041
_cell_angle_beta     21.6041
_cell_angle_gamma    21.6041

_symmetry_Int_Tables_number  166
_chemical_formula_structural  PrZnPO
_chemical_formula_sum  Pr2Zn2P2O2
_cell_volume  146.8908074795169
_cell_formula_units_Z  2
loop_
  _symmetry_equiv_pos_site_id
 _symmetry_equiv_pos_as_xyz
 1  'x, y, z'
loop_
 _atom_site_type_symbol
 _atom_site_label
 _atom_site_symmetry_multiplicity
 _atom_site_fract_x
 _atom_site_fract_y
 _atom_site_fract_z
 _atom_site_fract_occupancy
 O  O1  1  0.69498  0.69498  0.69498  1
 O  O2  1  0.30502  0.30502  0.30502  1
 P  P1  1  0.11448  0.11448  0.11448  1
 P  P2  1  0.88552  0.88552  0.88552  1
 Pr  Pr1  1  0.61841  0.61841  0.61841  1
 Pr  Pr2  1  0.38159  0.38159  0.38159  1
 Zn  Zn1  1  0.19638  0.19638  0.19638  1
 Zn  Zn2  1  0.80362  0.80362  0.80362  1
