CIF file written using JARVIS-Tools package.
data_Na3SrB5O10
_symmetry_space_group_name_H-M  'P-1'
_cell_length_a       7.30457
_cell_length_b       7.5736
_cell_length_c       9.73173
_cell_angle_alpha    80.4095
_cell_angle_beta     70.3094
_cell_angle_gamma    61.5225

_symmetry_Int_Tables_number  2
_chemical_formula_structural  Na3SrB5O10
_chemical_formula_sum  Na6Sr2B0O20
_cell_volume  445.5535088216215
_cell_formula_units_Z  2
loop_
  _symmetry_equiv_pos_site_id
 _symmetry_equiv_pos_as_xyz
 1  'x, y, z'
loop_
 _atom_site_type_symbol
 _atom_site_label
 _atom_site_symmetry_multiplicity
 _atom_site_fract_x
 _atom_site_fract_y
 _atom_site_fract_z
 _atom_site_fract_occupancy
 B  B1  1  0.14099  0.67520  0.07863  1
 B  B2  1  0.69342  0.37508  0.71486  1
 B  B3  1  0.39108  0.33119  0.13592  1
 B  B4  1  0.60892  0.66881  0.86408  1
 B  B5  1  0.49328  0.77150  0.37709  1
 B  B6  1  0.50672  0.22850  0.62291  1
 B  B7  1  0.85901  0.32480  0.92137  1
 B  B8  1  0.15862  0.75070  0.54531  1
 B  B9  1  0.30658  0.62492  0.28514  1
 B  B10  1  0.84138  0.24930  0.45469  1
 Na  Na1  1  0.27747  0.01724  0.11430  1
 Na  Na2  1  0.79398  0.71883  0.55348  1
 Na  Na3  1  0.20602  0.28117  0.44652  1
 Na  Na4  1  0.15031  0.49487  0.83634  1
 Na  Na5  1  0.84969  0.50513  0.16366  1
 Na  Na6  1  0.72253  0.98276  0.88570  1
 O  O1  1  0.33230  0.20159  0.64206  1
 O  O2  1  0.31863  0.82167  0.50994  1
 O  O3  1  0.98751  0.20632  0.00283  1
 O  O4  1  0.66770  0.79841  0.35794  1
 O  O5  1  0.84071  0.34958  0.56333  1
 O  O6  1  0.41391  0.40972  0.24681  1
 O  O7  1  0.58609  0.59028  0.75319  1
 O  O8  1  0.52685  0.31200  0.73093  1
 O  O9  1  0.01249  0.79368  0.99717  1
 O  O10  1  0.68137  0.17833  0.49006  1
 O  O11  1  0.82558  0.25043  0.81496  1
 O  O12  1  0.49109  0.86251  0.89408  1
 O  O13  1  0.76309  0.53518  0.93623  1
 O  O14  1  0.01748  0.77984  0.67930  1
 O  O15  1  0.98252  0.22016  0.32070  1
 O  O16  1  0.15929  0.65042  0.43667  1
 O  O17  1  0.17442  0.74957  0.18504  1
 O  O18  1  0.23691  0.46482  0.06377  1
 O  O19  1  0.50891  0.13749  0.10592  1
 O  O20  1  0.47315  0.68800  0.26907  1
 Sr  Sr1  1  0.78955  0.05155  0.22625  1
 Sr  Sr2  1  0.21045  0.94845  0.77375  1
