CIF file written using JARVIS-Tools package.
data_P3H11N4O9
_symmetry_space_group_name_H-M  'P-1'
_cell_length_a       8.12298
_cell_length_b       7.98332
_cell_length_c       8.45779
_cell_angle_alpha    105.122
_cell_angle_beta     101.842
_cell_angle_gamma    85.3435

_symmetry_Int_Tables_number  2
_chemical_formula_structural  P3H11N4O9
_chemical_formula_sum  P6H22N8O8
_cell_volume  517.9894876372855
_cell_formula_units_Z  2
loop_
  _symmetry_equiv_pos_site_id
 _symmetry_equiv_pos_as_xyz
 1  'x, y, z'
loop_
 _atom_site_type_symbol
 _atom_site_label
 _atom_site_symmetry_multiplicity
 _atom_site_fract_x
 _atom_site_fract_y
 _atom_site_fract_z
 _atom_site_fract_occupancy
 H  H1  1  0.75637  0.63886  0.47814  1
 H  H2  1  0.73689  0.92677  0.65150  1
 H  H3  1  0.26311  0.07323  0.34850  1
 H  H4  1  0.26079  0.16079  0.17834  1
 H  H5  1  0.73921  0.83921  0.82166  1
 H  H6  1  0.08533  0.18292  0.26338  1
 H  H7  1  0.91467  0.81708  0.73662  1
 H  H8  1  0.77102  0.55801  0.65420  1
 H  H9  1  0.41560  0.33877  0.41806  1
 H  H10  1  0.58440  0.66123  0.58194  1
 H  H11  1  0.51514  0.75173  0.05394  1
 H  H12  1  0.24363  0.36114  0.52186  1
 H  H13  1  0.77342  0.42953  0.94247  1
 H  H14  1  0.22898  0.44199  0.34580  1
 H  H15  1  0.76528  0.29636  0.06750  1
 H  H16  1  0.23472  0.70364  0.93250  1
 H  H17  1  0.66075  0.49466  0.09858  1
 H  H18  1  0.33925  0.50534  0.90142  1
 H  H19  1  0.41813  0.75975  0.21275  1
 H  H20  1  0.58187  0.24025  0.78725  1
 H  H21  1  0.48486  0.24827  0.94606  1
 H  H22  1  0.22658  0.57047  0.05753  1
 N  N1  1  0.69592  0.38844  0.00919  1
 N  N2  1  0.30408  0.61156  0.99081  1
 N  N3  1  0.45483  0.67892  0.10819  1
 N  N4  1  0.78185  0.81963  0.70557  1
 N  N5  1  0.71873  0.65739  0.59545  1
 N  N6  1  0.28127  0.34261  0.40455  1
 N  N7  1  0.54517  0.32108  0.89181  1
 N  N8  1  0.21815  0.18037  0.29443  1
 O  O1  1  0.38699  0.68665  0.59022  1
 O  O2  1  0.66298  0.09700  0.59601  1
 O  O3  1  0.02822  0.15725  0.79888  1
 O  O4  1  0.69416  0.86429  -0.00017  1
 O  O5  1  0.91159  0.21133  0.51624  1
 O  O6  1  0.08841  0.78867  0.48376  1
 O  O7  1  0.71757  0.00034  0.30513  1
 O  O8  1  0.28243  -0.00034  0.69487  1
 O  O9  1  0.33702  0.90300  0.40399  1
 O  O10  1  0.97178  0.84275  0.20112  1
 O  O11  1  0.83106  0.63228  0.31252  1
 O  O12  1  0.30584  0.13571  0.00017  1
 O  O13  1  0.11759  0.55701  0.21782  1
 O  O14  1  0.88241  0.44299  0.78218  1
 O  O15  1  0.11583  0.87047  0.85942  1
 O  O16  1  0.88417  0.12953  0.14058  1
 O  O17  1  0.61301  0.31335  0.40978  1
 O  O18  1  0.16894  0.36772  0.68748  1
 P  P1  1  0.18825  0.03452  0.85168  1
 P  P2  1  0.81175  0.96548  0.14832  1
 P  P3  1  0.00386  0.31086  0.70304  1
 P  P4  1  0.99614  0.68914  0.29696  1
 P  P5  1  0.28801  0.83569  0.53699  1
 P  P6  1  0.71199  0.16431  0.46301  1
