CIF file written using JARVIS-Tools package.
data_WSe2
_symmetry_space_group_name_H-M  'P-6m2'
_cell_length_a       3.32461
_cell_length_b       3.3246
_cell_length_c       14.5661
_cell_angle_alpha    90.0014
_cell_angle_beta     89.9989
_cell_angle_gamma    120

_symmetry_Int_Tables_number  187
_chemical_formula_structural  WSe2
_chemical_formula_sum  WSe2
_cell_volume  139.42941356873942
_cell_formula_units_Z  1
loop_
  _symmetry_equiv_pos_site_id
 _symmetry_equiv_pos_as_xyz
 1  'x, y, z'
loop_
 _atom_site_type_symbol
 _atom_site_label
 _atom_site_symmetry_multiplicity
 _atom_site_fract_x
 _atom_site_fract_y
 _atom_site_fract_z
 _atom_site_fract_occupancy
 Se  Se1  1  0.66666  0.33334  0.33029  1
 Se  Se2  1  0.66667  0.33332  0.09940  1
 W  W1  1  0.33333  0.66667  0.21485  1
