CIF file written using JARVIS-Tools package.
data_Pd
_symmetry_space_group_name_H-M  'P6_3/mmc'
_cell_length_a       2.77855
_cell_length_b       2.77856
_cell_length_c       9.15175
_cell_angle_alpha    90
_cell_angle_beta     90
_cell_angle_gamma    120

_symmetry_Int_Tables_number  194
_chemical_formula_structural  Pd
_chemical_formula_sum  Pd4
_cell_volume  61.18887328953556
_cell_formula_units_Z  4
loop_
  _symmetry_equiv_pos_site_id
 _symmetry_equiv_pos_as_xyz
 1  'x, y, z'
loop_
 _atom_site_type_symbol
 _atom_site_label
 _atom_site_symmetry_multiplicity
 _atom_site_fract_x
 _atom_site_fract_y
 _atom_site_fract_z
 _atom_site_fract_occupancy
 Pd  Pd1  1  0.00000  0.00000  0.00000  1
 Pd  Pd2  1  0.33333  0.66667  0.25000  1
 Pd  Pd3  1  0.00000  0.00000  0.50000  1
 Pd  Pd4  1  0.66667  0.33333  0.75000  1
