CIF file written using JARVIS-Tools package.
data_HgI
_symmetry_space_group_name_H-M  'I4/mmm'
_cell_length_a       4.94795
_cell_length_b       4.94795
_cell_length_c       6.88319
_cell_angle_alpha    111.065
_cell_angle_beta     111.065
_cell_angle_gamma    89.9999

_symmetry_Int_Tables_number  139
_chemical_formula_structural  HgI
_chemical_formula_sum  Hg2I2
_cell_volume  145.1221228451644
_cell_formula_units_Z  2
loop_
  _symmetry_equiv_pos_site_id
 _symmetry_equiv_pos_as_xyz
 1  'x, y, z'
loop_
 _atom_site_type_symbol
 _atom_site_label
 _atom_site_symmetry_multiplicity
 _atom_site_fract_x
 _atom_site_fract_y
 _atom_site_fract_z
 _atom_site_fract_occupancy
 Hg  Hg1  1  0.88774  0.88774  0.77547  1
 Hg  Hg2  1  0.11226  0.11226  0.22453  1
 I  I1  1  0.65128  0.65128  0.30257  1
 I  I2  1  0.34872  0.34872  0.69743  1
