CIF file written using JARVIS-Tools package.
data_Ta2Si
_symmetry_space_group_name_H-M  'I4/mcm'
_cell_length_a       5.06936
_cell_length_b       5.06935
_cell_length_c       5.06935
_cell_angle_alpha    104.686
_cell_angle_beta     104.686
_cell_angle_gamma    119.536

_symmetry_Int_Tables_number  140
_chemical_formula_structural  Ta2Si
_chemical_formula_sum  Ta4Si2
_cell_volume  97.92923743791808
_cell_formula_units_Z  2
loop_
  _symmetry_equiv_pos_site_id
 _symmetry_equiv_pos_as_xyz
 1  'x, y, z'
loop_
 _atom_site_type_symbol
 _atom_site_label
 _atom_site_symmetry_multiplicity
 _atom_site_fract_x
 _atom_site_fract_y
 _atom_site_fract_z
 _atom_site_fract_occupancy
 Si  Si1  1  0.75000  0.75000  -0.00000  1
 Si  Si2  1  0.25000  0.25000  0.00000  1
 Ta  Ta1  1  0.83734  0.66266  0.50000  1
 Ta  Ta2  1  0.33734  0.83734  0.17467  1
 Ta  Ta3  1  0.16266  0.33734  0.50000  1
 Ta  Ta4  1  0.66266  0.16266  0.82533  1
