CIF file written using JARVIS-Tools package.
data_MnTe2O5
_symmetry_space_group_name_H-M  'Pbcn'
_cell_length_a       6.13575
_cell_length_b       7.37863
_cell_length_c       10.8519
_cell_angle_alpha    90
_cell_angle_beta     90
_cell_angle_gamma    90

_symmetry_Int_Tables_number  60
_chemical_formula_structural  MnTe2O5
_chemical_formula_sum  Mn4Te8O20
_cell_volume  491.30101899593546
_cell_formula_units_Z  4
loop_
  _symmetry_equiv_pos_site_id
 _symmetry_equiv_pos_as_xyz
 1  'x, y, z'
loop_
 _atom_site_type_symbol
 _atom_site_label
 _atom_site_symmetry_multiplicity
 _atom_site_fract_x
 _atom_site_fract_y
 _atom_site_fract_z
 _atom_site_fract_occupancy
 Mn  Mn1  1  0.25000  0.50000  0.55565  1
 Mn  Mn2  1  0.75000  0.00000  0.94435  1
 Mn  Mn3  1  0.75000  0.50000  0.44435  1
 Mn  Mn4  1  0.25000  0.00000  0.05565  1
 O  O1  1  0.68498  0.80585  0.79299  1
 O  O2  1  0.18498  0.69415  0.70701  1
 O  O3  1  0.31502  0.30585  0.70701  1
 O  O4  1  0.81502  0.19415  0.79299  1
 O  O5  1  0.45272  0.34797  0.43514  1
 O  O6  1  0.54728  0.84797  0.06486  1
 O  O7  1  0.25000  0.00000  0.43962  1
 O  O8  1  0.04728  0.65203  0.43514  1
 O  O9  1  0.54728  0.65203  0.56486  1
 O  O10  1  0.04728  0.84797  0.93514  1
 O  O11  1  0.45272  0.15203  0.93514  1
 O  O12  1  0.95272  0.15203  0.06486  1
 O  O13  1  0.75000  0.50000  0.06038  1
 O  O14  1  0.31502  0.19415  0.20701  1
 O  O15  1  0.75000  0.00000  0.56038  1
 O  O16  1  0.81502  0.30585  0.29299  1
 O  O17  1  0.68498  0.69415  0.29299  1
 O  O18  1  0.18498  0.80585  0.20701  1
 O  O19  1  0.95272  0.34797  0.56486  1
 O  O20  1  0.25000  0.50000  0.93962  1
 Te  Te1  1  0.49045  0.36939  0.84490  1
 Te  Te2  1  0.00955  0.86939  0.34490  1
 Te  Te3  1  0.50955  0.63061  0.15510  1
 Te  Te4  1  0.99045  0.36939  0.15510  1
 Te  Te5  1  0.49045  0.13061  0.34490  1
 Te  Te6  1  0.50955  0.86939  0.65510  1
 Te  Te7  1  0.00955  0.63061  0.84490  1
 Te  Te8  1  0.99045  0.13061  0.65510  1
