CIF file written using JARVIS-Tools package.
data_Si2TeN2
_symmetry_space_group_name_H-M  'Cmc2_1'
_cell_length_a       6.69382
_cell_length_b       5.65576
_cell_length_c       5.01425
_cell_angle_alpha    90
_cell_angle_beta     90
_cell_angle_gamma    114.99

_symmetry_Int_Tables_number  36
_chemical_formula_structural  Si2TeN2
_chemical_formula_sum  Si4Te2N4
_cell_volume  172.06082712251882
_cell_formula_units_Z  2
loop_
  _symmetry_equiv_pos_site_id
 _symmetry_equiv_pos_as_xyz
 1  'x, y, z'
loop_
 _atom_site_type_symbol
 _atom_site_label
 _atom_site_symmetry_multiplicity
 _atom_site_fract_x
 _atom_site_fract_y
 _atom_site_fract_z
 _atom_site_fract_occupancy
 N  N1  1  0.52542  0.14460  0.20021  1
 N  N2  1  0.47458  0.61918  0.20021  1
 N  N3  1  0.47458  0.85540  0.70021  1
 N  N4  1  0.52542  0.38082  0.70021  1
 Si  Si1  1  0.60539  0.15884  0.86281  1
 Si  Si2  1  0.39461  0.55345  0.86281  1
 Si  Si3  1  0.39461  0.84116  0.36281  1
 Si  Si4  1  0.60539  0.44655  0.36281  1
 Te  Te1  1  -0.00000  0.76359  0.46754  1
 Te  Te2  1  0.00000  0.23641  0.96754  1
