CIF file written using JARVIS-Tools package.
data_ThUO4
_symmetry_space_group_name_H-M  'P4/mmm'
_cell_length_a       3.90867
_cell_length_b       3.90836
_cell_length_c       5.53881
_cell_angle_alpha    89.9985
_cell_angle_beta     89.9988
_cell_angle_gamma    90.0004

_symmetry_Int_Tables_number  123
_chemical_formula_structural  ThUO4
_chemical_formula_sum  ThUO4
_cell_volume  84.61390059548269
_cell_formula_units_Z  1
loop_
  _symmetry_equiv_pos_site_id
 _symmetry_equiv_pos_as_xyz
 1  'x, y, z'
loop_
 _atom_site_type_symbol
 _atom_site_label
 _atom_site_symmetry_multiplicity
 _atom_site_fract_x
 _atom_site_fract_y
 _atom_site_fract_z
 _atom_site_fract_occupancy
 O  O1  1  0.50000  0.00000  0.24326  1
 O  O2  1  1.00000  0.50000  0.24327  1
 O  O3  1  0.00000  0.50000  0.75673  1
 O  O4  1  0.50000  -0.00000  0.75673  1
 Th  Th1  1  0.50000  0.50000  0.50000  1
 U  U1  1  0.00000  1.00000  0.00000  1
