CIF file written using JARVIS-Tools package.
data_Ba2SrUO6
_symmetry_space_group_name_H-M  'P2_1/c'
_cell_length_a       6.28994
_cell_length_b       6.33472
_cell_length_c       8.88887
_cell_angle_alpha    90
_cell_angle_beta     90.2209
_cell_angle_gamma    90

_symmetry_Int_Tables_number  14
_chemical_formula_structural  Ba2SrUO6
_chemical_formula_sum  Ba4Sr2U2O2
_cell_volume  354.1744129725683
_cell_formula_units_Z  2
loop_
  _symmetry_equiv_pos_site_id
 _symmetry_equiv_pos_as_xyz
 1  'x, y, z'
loop_
 _atom_site_type_symbol
 _atom_site_label
 _atom_site_symmetry_multiplicity
 _atom_site_fract_x
 _atom_site_fract_y
 _atom_site_fract_z
 _atom_site_fract_occupancy
 Ba  Ba1  1  0.49151  0.53388  0.24921  1
 Ba  Ba2  1  0.00849  0.03388  0.25079  1
 Ba  Ba3  1  0.99151  0.96612  0.74921  1
 Ba  Ba4  1  0.50849  0.46612  0.75079  1
 O  O1  1  0.58725  0.97113  0.27255  1
 O  O2  1  0.08725  0.52887  0.77255  1
 O  O3  1  0.41275  0.02887  0.72745  1
 O  O4  1  0.76513  0.19229  0.54269  1
 O  O5  1  0.73487  0.69229  0.95731  1
 O  O6  1  0.23487  0.80771  0.45731  1
 O  O7  1  0.26513  0.30771  0.04269  1
 O  O8  1  0.81048  0.23397  0.94895  1
 O  O9  1  0.18952  0.76603  0.05105  1
 O  O10  1  0.68952  0.73397  0.55105  1
 O  O11  1  0.91275  0.47113  0.22745  1
 O  O12  1  0.31048  0.26603  0.44895  1
 Sr  Sr1  1  -0.00000  0.50000  0.50000  1
 Sr  Sr2  1  0.50000  0.00000  0.00000  1
 U  U1  1  0.00000  0.50000  0.00000  1
 U  U2  1  0.50000  0.00000  0.50000  1
