CIF file written using JARVIS-Tools package.
data_Lu2InNi2
_symmetry_space_group_name_H-M  'Cmmm'
_cell_length_a       3.55419
_cell_length_b       3.84815
_cell_length_c       7.28006
_cell_angle_alpha    105.325
_cell_angle_beta     90
_cell_angle_gamma    90

_symmetry_Int_Tables_number  65
_chemical_formula_structural  Lu2InNi2
_chemical_formula_sum  Lu2InNi2
_cell_volume  96.0293480339671
_cell_formula_units_Z  1
loop_
  _symmetry_equiv_pos_site_id
 _symmetry_equiv_pos_as_xyz
 1  'x, y, z'
loop_
 _atom_site_type_symbol
 _atom_site_label
 _atom_site_symmetry_multiplicity
 _atom_site_fract_x
 _atom_site_fract_y
 _atom_site_fract_z
 _atom_site_fract_occupancy
 In  In1  1  0.00000  0.00000  0.00000  1
 Lu  Lu1  1  0.50000  0.64003  0.28007  1
 Lu  Lu2  1  0.50000  0.35997  0.71993  1
 Ni  Ni1  1  0.00000  0.80277  0.60554  1
 Ni  Ni2  1  0.00000  0.19723  0.39446  1
