CIF file written using JARVIS-Tools package.
data_LaCo9Si4
_symmetry_space_group_name_H-M  'I4/mcm'
_cell_length_a       7.7765
_cell_length_b       7.7765
_cell_length_c       7.95805
_cell_angle_alpha    119.248
_cell_angle_beta     119.248
_cell_angle_gamma    90

_symmetry_Int_Tables_number  140
_chemical_formula_structural  LaCo9Si4
_chemical_formula_sum  La2Co8Si8
_cell_volume  347.8889954316257
_cell_formula_units_Z  2
loop_
  _symmetry_equiv_pos_site_id
 _symmetry_equiv_pos_as_xyz
 1  'x, y, z'
loop_
 _atom_site_type_symbol
 _atom_site_label
 _atom_site_symmetry_multiplicity
 _atom_site_fract_x
 _atom_site_fract_y
 _atom_site_fract_z
 _atom_site_fract_occupancy
 Co  Co1  1  0.80869  0.30869  0.35948  1
 Co  Co2  1  0.19131  0.69131  0.64052  1
 Co  Co3  1  0.05079  0.80869  0.35948  1
 Co  Co4  1  0.70013  0.57024  0.00000  1
 Co  Co5  1  0.30869  0.55079  0.35948  1
 Co  Co6  1  0.92976  0.79987  0.00000  1
 Co  Co7  1  0.57024  0.29987  0.00000  1
 Co  Co8  1  0.79987  0.07024  -0.00000  1
 Co  Co9  1  0.44921  0.94921  0.64052  1
 Co  Co10  1  0.20013  0.92976  0.00000  1
 Co  Co11  1  0.07024  0.20013  -0.00000  1
 Co  Co12  1  0.42976  0.70013  -0.00000  1
 Co  Co13  1  -0.00000  0.50000  -0.00000  1
 Co  Co14  1  0.55079  0.05079  0.35948  1
 Co  Co15  1  0.50000  0.00000  0.00000  1
 Co  Co16  1  0.94921  0.19131  0.64052  1
 Co  Co17  1  0.29987  0.42976  -0.00000  1
 Co  Co18  1  0.69131  0.44921  0.64052  1
 La  La1  1  0.25000  0.25000  0.50000  1
 La  La2  1  0.75000  0.75000  0.50000  1
 Si  Si1  1  0.70969  0.20969  0.75741  1
 Si  Si2  1  0.29031  0.79031  0.24259  1
 Si  Si3  1  0.45229  0.29031  0.24259  1
 Si  Si4  1  0.95229  0.45229  0.24259  1
 Si  Si5  1  0.79031  0.95229  0.24259  1
 Si  Si6  1  0.04771  0.54771  0.75741  1
 Si  Si7  1  0.54771  0.70969  0.75741  1
 Si  Si8  1  0.20969  0.04771  0.75741  1
