CIF file written using JARVIS-Tools package.
data_RbSiBiS4
_symmetry_space_group_name_H-M  'P2_1/c'
_cell_length_a       6.53186
_cell_length_b       6.75754
_cell_length_c       16.8949
_cell_angle_alpha    90
_cell_angle_beta     93.2813
_cell_angle_gamma    90

_symmetry_Int_Tables_number  14
_chemical_formula_structural  RbSiBiS4
_chemical_formula_sum  Rb4Si4Bi4S6
_cell_volume  744.5076360491759
_cell_formula_units_Z  4
loop_
  _symmetry_equiv_pos_site_id
 _symmetry_equiv_pos_as_xyz
 1  'x, y, z'
loop_
 _atom_site_type_symbol
 _atom_site_label
 _atom_site_symmetry_multiplicity
 _atom_site_fract_x
 _atom_site_fract_y
 _atom_site_fract_z
 _atom_site_fract_occupancy
 Bi  Bi1  1  0.96187  0.28663  0.72278  1
 Bi  Bi2  1  0.53813  0.78663  0.77722  1
 Bi  Bi3  1  0.46187  0.21337  0.22278  1
 Bi  Bi4  1  0.03813  0.71337  0.27722  1
 Rb  Rb1  1  0.24819  0.24475  0.96548  1
 Rb  Rb2  1  0.75181  0.75525  0.03452  1
 Rb  Rb3  1  0.25181  0.74475  0.53452  1
 Rb  Rb4  1  0.74819  0.25525  0.46548  1
 S  S1  1  0.65916  0.99485  0.63524  1
 S  S2  1  0.63427  0.49264  0.64389  1
 S  S3  1  0.13427  0.00736  0.14389  1
 S  S4  1  0.62375  0.81322  0.22015  1
 S  S5  1  0.87625  0.31322  0.27985  1
 S  S6  1  0.68059  0.25925  0.08458  1
 S  S7  1  0.37625  0.18678  0.77985  1
 S  S8  1  0.36573  0.50736  0.35611  1
 S  S9  1  0.81941  0.75925  0.41542  1
 S  S10  1  0.84084  0.49485  0.86476  1
 S  S11  1  0.15916  0.50515  0.13524  1
 S  S12  1  0.34084  0.00515  0.36476  1
 S  S13  1  0.31941  0.74075  0.91542  1
 S  S14  1  0.86573  0.99264  0.85611  1
 S  S15  1  0.18059  0.24075  0.58458  1
 S  S16  1  0.12375  0.68678  0.72015  1
 Si  Si1  1  0.04491  0.73122  0.84134  1
 Si  Si2  1  0.54491  0.76878  0.34134  1
 Si  Si3  1  0.45509  0.23122  0.65866  1
 Si  Si4  1  0.95509  0.26878  0.15866  1
