CIF file written using JARVIS-Tools package.
data_TaTlO3
_symmetry_space_group_name_H-M  'Fd-3m'
_cell_length_a       7.59498
_cell_length_b       7.59498
_cell_length_c       7.59498
_cell_angle_alpha    60
_cell_angle_beta     90
_cell_angle_gamma    120

_symmetry_Int_Tables_number  227
_chemical_formula_structural  TaTlO3
_chemical_formula_sum  Ta4Tl4O2
_cell_volume  309.7873667308717
_cell_formula_units_Z  4
loop_
  _symmetry_equiv_pos_site_id
 _symmetry_equiv_pos_as_xyz
 1  'x, y, z'
loop_
 _atom_site_type_symbol
 _atom_site_label
 _atom_site_symmetry_multiplicity
 _atom_site_fract_x
 _atom_site_fract_y
 _atom_site_fract_z
 _atom_site_fract_occupancy
 O  O1  1  0.68958  0.75000  0.68958  1
 O  O2  1  0.93958  0.25000  0.31042  1
 O  O3  1  0.31042  0.62085  0.93958  1
 O  O4  1  0.68958  0.75000  0.06042  1
 O  O5  1  0.31042  0.25000  0.31042  1
 O  O6  1  0.68958  0.37915  0.06042  1
 O  O7  1  0.93958  0.87915  0.31042  1
 O  O8  1  0.06042  0.12085  0.68958  1
 O  O9  1  0.06042  0.75000  0.06042  1
 O  O10  1  0.06042  0.75000  0.68958  1
 O  O11  1  0.31042  0.25000  0.93958  1
 O  O12  1  0.93958  0.25000  0.93958  1
 Ta  Ta1  1  0.00000  0.00000  0.50000  1
 Ta  Ta2  1  0.00000  0.50000  -0.00000  1
 Ta  Ta3  1  0.50000  0.50000  -0.00000  1
 Ta  Ta4  1  0.00000  0.00000  0.00000  1
 Tl  Tl1  1  0.00000  0.50000  0.50000  1
 Tl  Tl2  1  0.50000  0.50000  0.50000  1
 Tl  Tl3  1  0.50000  0.00000  0.50000  1
 Tl  Tl4  1  0.50000  0.00000  0.00000  1
