CIF file written using JARVIS-Tools package.
data_CaLu2O4
_symmetry_space_group_name_H-M  'Pnma'
_cell_length_a       3.28214
_cell_length_b       9.68349
_cell_length_c       11.529
_cell_angle_alpha    90
_cell_angle_beta     90
_cell_angle_gamma    90

_symmetry_Int_Tables_number  62
_chemical_formula_structural  CaLu2O4
_chemical_formula_sum  Ca4Lu8O6
_cell_volume  366.42058301664275
_cell_formula_units_Z  4
loop_
  _symmetry_equiv_pos_site_id
 _symmetry_equiv_pos_as_xyz
 1  'x, y, z'
loop_
 _atom_site_type_symbol
 _atom_site_label
 _atom_site_symmetry_multiplicity
 _atom_site_fract_x
 _atom_site_fract_y
 _atom_site_fract_z
 _atom_site_fract_occupancy
 Ca  Ca1  1  0.75000  0.75399  0.35069  1
 Ca  Ca2  1  0.25000  0.24601  0.64931  1
 Ca  Ca3  1  0.75000  0.25399  0.14931  1
 Ca  Ca4  1  0.25000  0.74601  0.85069  1
 Lu  Lu1  1  0.25000  0.07720  0.38969  1
 Lu  Lu2  1  0.75000  0.42280  0.88969  1
 Lu  Lu3  1  0.75000  0.92280  0.61031  1
 Lu  Lu4  1  0.25000  0.57720  0.11031  1
 Lu  Lu5  1  0.75000  0.42235  0.38715  1
 Lu  Lu6  1  0.75000  0.92235  0.11285  1
 Lu  Lu7  1  0.25000  0.07765  0.88715  1
 Lu  Lu8  1  0.25000  0.57765  0.61285  1
 O  O1  1  0.25000  0.86952  0.47894  1
 O  O2  1  0.75000  0.21283  0.81947  1
 O  O3  1  0.75000  0.92211  0.92046  1
 O  O4  1  0.75000  0.71283  0.68053  1
 O  O5  1  0.25000  0.28717  0.31947  1
 O  O6  1  0.75000  0.13048  0.52106  1
 O  O7  1  0.25000  0.78717  0.18053  1
 O  O8  1  0.25000  0.57789  0.42046  1
 O  O9  1  0.25000  0.48943  0.78543  1
 O  O10  1  0.75000  0.01057  0.28543  1
 O  O11  1  0.25000  0.98943  0.71457  1
 O  O12  1  0.75000  0.42211  0.57954  1
 O  O13  1  0.75000  0.63048  0.97894  1
 O  O14  1  0.75000  0.51057  0.21457  1
 O  O15  1  0.25000  0.36952  0.02106  1
 O  O16  1  0.25000  0.07789  0.07954  1
