CIF file written using JARVIS-Tools package.
data_PuB2Os3
_symmetry_space_group_name_H-M  'P6/mmm'
_cell_length_a       2.93316
_cell_length_b       5.59105
_cell_length_c       5.5911
_cell_angle_alpha    120
_cell_angle_beta     90.0001
_cell_angle_gamma    89.9984

_symmetry_Int_Tables_number  191
_chemical_formula_structural  PuB2Os3
_chemical_formula_sum  PuB2Os3
_cell_volume  79.40652882401356
_cell_formula_units_Z  1
loop_
  _symmetry_equiv_pos_site_id
 _symmetry_equiv_pos_as_xyz
 1  'x, y, z'
loop_
 _atom_site_type_symbol
 _atom_site_label
 _atom_site_symmetry_multiplicity
 _atom_site_fract_x
 _atom_site_fract_y
 _atom_site_fract_z
 _atom_site_fract_occupancy
 B  B1  1  -0.00000  0.33334  0.66667  1
 B  B2  1  0.00000  0.66666  0.33333  1
 Os  Os1  1  0.50000  0.50000  0.50000  1
 Os  Os2  1  0.50000  -0.00000  0.50000  1
 Os  Os3  1  0.50000  0.50000  0.00000  1
 Pu  Pu1  1  0.00000  0.00000  0.00000  1
