CIF file written using JARVIS-Tools package.
data_Na5Sn2
_symmetry_space_group_name_H-M  'R-3m'
_cell_length_a       5.41466
_cell_length_b       5.41466
_cell_length_c       8.11346
_cell_angle_alpha    70.5075
_cell_angle_beta     70.5075
_cell_angle_gamma    60

_symmetry_Int_Tables_number  166
_chemical_formula_structural  Na5Sn2
_chemical_formula_sum  Na5Sn2
_cell_volume  190.0996286721985
_cell_formula_units_Z  1
loop_
  _symmetry_equiv_pos_site_id
 _symmetry_equiv_pos_as_xyz
 1  'x, y, z'
loop_
 _atom_site_type_symbol
 _atom_site_label
 _atom_site_symmetry_multiplicity
 _atom_site_fract_x
 _atom_site_fract_y
 _atom_site_fract_z
 _atom_site_fract_occupancy
 Na  Na1  1  0.50000  0.50000  0.50000  1
 Na  Na2  1  0.35608  0.35608  0.93176  1
 Na  Na3  1  0.64392  0.64392  0.06824  1
 Na  Na4  1  0.21365  0.21365  0.35904  1
 Na  Na5  1  0.78635  0.78635  0.64096  1
 Sn  Sn1  1  0.06769  0.06769  0.79694  1
 Sn  Sn2  1  0.93231  0.93231  0.20306  1
