CIF file written using JARVIS-Tools package.
data_Mn3OF5
_symmetry_space_group_name_H-M  'C2/m'
_cell_length_a       4.79701
_cell_length_b       4.79701
_cell_length_c       9.71078
_cell_angle_alpha    89.7856
_cell_angle_beta     89.7856
_cell_angle_gamma    91.9938

_symmetry_Int_Tables_number  12
_chemical_formula_structural  Mn3OF5
_chemical_formula_sum  Mn6O2F0
_cell_volume  223.31946593595407
_cell_formula_units_Z  2
loop_
  _symmetry_equiv_pos_site_id
 _symmetry_equiv_pos_as_xyz
 1  'x, y, z'
loop_
 _atom_site_type_symbol
 _atom_site_label
 _atom_site_symmetry_multiplicity
 _atom_site_fract_x
 _atom_site_fract_y
 _atom_site_fract_z
 _atom_site_fract_occupancy
 F  F1  1  0.79677  0.20323  0.16667  1
 F  F2  1  0.81789  0.21261  0.49949  1
 F  F3  1  0.21261  0.81789  0.49949  1
 F  F4  1  0.18211  0.78739  0.83384  1
 F  F5  1  0.20323  0.79677  0.16667  1
 F  F6  1  0.30944  0.30944  0.67451  1
 F  F7  1  0.72625  0.72625  0.33090  1
 F  F8  1  0.69056  0.69056  0.65882  1
 F  F9  1  0.78739  0.18211  0.83384  1
 F  F10  1  0.27375  0.27375  0.00244  1
 Mn  Mn1  1  0.49649  0.49649  0.48843  1
 Mn  Mn2  1  0.50000  0.50000  0.16667  1
 Mn  Mn3  1  0.50351  0.50351  0.84490  1
 Mn  Mn4  1  0.00000  0.00000  0.66667  1
 Mn  Mn5  1  0.03599  0.03599  0.32998  1
 Mn  Mn6  1  0.96401  0.96401  0.00336  1
 O  O1  1  0.67401  0.67401  0.00857  1
 O  O2  1  0.32599  0.32599  0.32476  1
