CIF file written using JARVIS-Tools package.
data_Tm2Mo2C3
_symmetry_space_group_name_H-M  'C2/m'
_cell_length_a       3.35537
_cell_length_b       5.63077
_cell_length_c       5.87614
_cell_angle_alpha    107.832
_cell_angle_beta     106.589
_cell_angle_gamma    90

_symmetry_Int_Tables_number  12
_chemical_formula_structural  Tm2Mo2C3
_chemical_formula_sum  Tm2Mo2C3
_cell_volume  100.82088313133484
_cell_formula_units_Z  1
loop_
  _symmetry_equiv_pos_site_id
 _symmetry_equiv_pos_as_xyz
 1  'x, y, z'
loop_
 _atom_site_type_symbol
 _atom_site_label
 _atom_site_symmetry_multiplicity
 _atom_site_fract_x
 _atom_site_fract_y
 _atom_site_fract_z
 _atom_site_fract_occupancy
 C  C1  1  -0.00000  0.50000  -0.00000  1
 C  C2  1  0.26980  0.74575  0.53960  1
 C  C3  1  0.73020  0.25425  0.46040  1
 Mo  Mo1  1  0.85154  0.63147  0.70308  1
 Mo  Mo2  1  0.14846  0.36853  0.29692  1
 Tm  Tm1  1  0.61491  0.81916  0.22982  1
 Tm  Tm2  1  0.38509  0.18084  0.77018  1
