CIF file written using JARVIS-Tools package.
data_Sc3P2
_symmetry_space_group_name_H-M  'Pnma'
_cell_length_a       3.72326
_cell_length_b       10.1755
_cell_length_c       10.0303
_cell_angle_alpha    90
_cell_angle_beta     90
_cell_angle_gamma    90

_symmetry_Int_Tables_number  62
_chemical_formula_structural  Sc3P2
_chemical_formula_sum  Sc2P8
_cell_volume  380.0073712276764
_cell_formula_units_Z  4
loop_
  _symmetry_equiv_pos_site_id
 _symmetry_equiv_pos_as_xyz
 1  'x, y, z'
loop_
 _atom_site_type_symbol
 _atom_site_label
 _atom_site_symmetry_multiplicity
 _atom_site_fract_x
 _atom_site_fract_y
 _atom_site_fract_z
 _atom_site_fract_occupancy
 P  P1  1  0.25000  0.98964  0.68032  1
 P  P2  1  0.25000  0.48964  0.81968  1
 P  P3  1  0.75000  0.51036  0.18032  1
 P  P4  1  0.25000  0.81456  0.00403  1
 P  P5  1  0.75000  0.18544  0.99597  1
 P  P6  1  0.25000  0.31456  0.49597  1
 P  P7  1  0.75000  0.68544  0.50403  1
 P  P8  1  0.75000  0.01036  0.31968  1
 Sc  Sc1  1  0.25000  0.04803  0.13319  1
 Sc  Sc2  1  0.75000  0.77591  0.20096  1
 Sc  Sc3  1  0.25000  0.22409  0.79904  1
 Sc  Sc4  1  0.25000  0.72409  0.70096  1
 Sc  Sc5  1  0.25000  0.87386  0.43808  1
 Sc  Sc6  1  0.75000  0.12614  0.56192  1
 Sc  Sc7  1  0.25000  0.37386  0.06192  1
 Sc  Sc8  1  0.75000  0.62614  0.93808  1
 Sc  Sc9  1  0.25000  0.54803  0.36681  1
 Sc  Sc10  1  0.75000  0.45197  0.63319  1
 Sc  Sc11  1  0.75000  0.27591  0.29904  1
 Sc  Sc12  1  0.75000  0.95197  0.86681  1
