CIF file written using JARVIS-Tools package.
data_Li2Ca2Ta3O10
_symmetry_space_group_name_H-M  'I4/mmm'
_cell_length_a       3.97818
_cell_length_b       3.97817
_cell_length_c       13.4128
_cell_angle_alpha    98.5283
_cell_angle_beta     98.5283
_cell_angle_gamma    89.9999

_symmetry_Int_Tables_number  139
_chemical_formula_structural  Li2Ca2Ta3O10
_chemical_formula_sum  Li2Ca2Ta3O0
_cell_volume  207.5491588770047
_cell_formula_units_Z  1
loop_
  _symmetry_equiv_pos_site_id
 _symmetry_equiv_pos_as_xyz
 1  'x, y, z'
loop_
 _atom_site_type_symbol
 _atom_site_label
 _atom_site_symmetry_multiplicity
 _atom_site_fract_x
 _atom_site_fract_y
 _atom_site_fract_z
 _atom_site_fract_occupancy
 Ca  Ca1  1  0.58485  0.58485  0.16970  1
 Ca  Ca2  1  0.41515  0.41515  0.83030  1
 Li  Li1  1  0.75000  0.25000  0.50000  1
 Li  Li2  1  0.25000  0.75000  0.50000  1
 O  O1  1  0.85466  0.35466  0.70932  1
 O  O2  1  0.77186  0.77186  0.54372  1
 O  O3  1  0.22814  0.22814  0.45628  1
 O  O4  1  0.14534  0.64534  0.29068  1
 O  O5  1  0.64534  0.14534  0.29068  1
 O  O6  1  -0.00000  0.50000  0.00000  1
 O  O7  1  0.35466  0.85466  0.70932  1
 O  O8  1  0.50000  0.00000  0.00000  1
 O  O9  1  0.07546  0.07546  0.15093  1
 O  O10  1  0.92454  0.92454  0.84907  1
 Ta  Ta1  1  0.15583  0.15583  0.31167  1
 Ta  Ta2  1  0.00000  0.00000  0.00000  1
 Ta  Ta3  1  0.84417  0.84417  0.68833  1
