CIF file written using JARVIS-Tools package.
data_IrO2
_symmetry_space_group_name_H-M  'I4_1/amd'
_cell_length_a       3.92425
_cell_length_b       3.92425
_cell_length_c       5.5986
_cell_angle_alpha    110.516
_cell_angle_beta     110.516
_cell_angle_gamma    90.0001

_symmetry_Int_Tables_number  141
_chemical_formula_structural  IrO2
_chemical_formula_sum  Ir2O4
_cell_volume  74.88208277047241
_cell_formula_units_Z  2
loop_
  _symmetry_equiv_pos_site_id
 _symmetry_equiv_pos_as_xyz
 1  'x, y, z'
loop_
 _atom_site_type_symbol
 _atom_site_label
 _atom_site_symmetry_multiplicity
 _atom_site_fract_x
 _atom_site_fract_y
 _atom_site_fract_z
 _atom_site_fract_occupancy
 Ir  Ir1  1  0.87500  0.62500  0.25000  1
 Ir  Ir2  1  0.12500  0.37500  0.75000  1
 O  O1  1  0.33568  0.58568  0.17135  1
 O  O2  1  0.08568  0.83568  0.67135  1
 O  O3  1  0.91432  0.16432  0.32865  1
 O  O4  1  0.66432  0.41432  0.82865  1
