CIF file written using JARVIS-Tools package.
data_NbVO4
_symmetry_space_group_name_H-M  'Cmm2'
_cell_length_a       3.02244
_cell_length_b       5.60992
_cell_length_c       5.6101
_cell_angle_alpha    73.755
_cell_angle_beta     122.605
_cell_angle_gamma    122.603

_symmetry_Int_Tables_number  35
_chemical_formula_structural  NbVO4
_chemical_formula_sum  NbVO4
_cell_volume  67.49851667166547
_cell_formula_units_Z  1
loop_
  _symmetry_equiv_pos_site_id
 _symmetry_equiv_pos_as_xyz
 1  'x, y, z'
loop_
 _atom_site_type_symbol
 _atom_site_label
 _atom_site_symmetry_multiplicity
 _atom_site_fract_x
 _atom_site_fract_y
 _atom_site_fract_z
 _atom_site_fract_occupancy
 Nb  Nb1  1  0.98913  0.49734  0.49734  1
 O  O1  1  0.39262  0.19216  0.19217  1
 O  O2  1  0.50319  0.29315  0.70155  1
 O  O3  1  0.50316  0.70155  0.29316  1
 O  O4  1  0.61341  0.80253  0.80253  1
 V  V1  1  0.49378  0.99735  0.99735  1
