CIF file written using JARVIS-Tools package.
data_CO2
_symmetry_space_group_name_H-M  'Cmce'
_cell_length_a       3.61685
_cell_length_b       3.61685
_cell_length_c       6.46606
_cell_angle_alpha    90
_cell_angle_beta     90
_cell_angle_gamma    84.2003

_symmetry_Int_Tables_number  64
_chemical_formula_structural  CO2
_chemical_formula_sum  C2O4
_cell_volume  84.15366904111815
_cell_formula_units_Z  2
loop_
  _symmetry_equiv_pos_site_id
 _symmetry_equiv_pos_as_xyz
 1  'x, y, z'
loop_
 _atom_site_type_symbol
 _atom_site_label
 _atom_site_symmetry_multiplicity
 _atom_site_fract_x
 _atom_site_fract_y
 _atom_site_fract_z
 _atom_site_fract_occupancy
 C  C1  1  0.50000  0.50000  0.50000  1
 C  C2  1  0.00000  0.00000  0.00000  1
 O  O1  1  0.30441  0.69559  0.60655  1
 O  O2  1  0.69559  0.30441  0.39345  1
 O  O3  1  0.19559  0.80441  0.10655  1
 O  O4  1  0.80441  0.19559  0.89345  1
