CIF file written using JARVIS-Tools package.
data_BaSnN2
_symmetry_space_group_name_H-M  'P4/nmm'
_cell_length_a       4.15011
_cell_length_b       4.15011
_cell_length_c       8.53028
_cell_angle_alpha    90
_cell_angle_beta     90
_cell_angle_gamma    90

_symmetry_Int_Tables_number  129
_chemical_formula_structural  BaSnN2
_chemical_formula_sum  Ba2Sn2N4
_cell_volume  146.92053883471735
_cell_formula_units_Z  2
loop_
  _symmetry_equiv_pos_site_id
 _symmetry_equiv_pos_as_xyz
 1  'x, y, z'
loop_
 _atom_site_type_symbol
 _atom_site_label
 _atom_site_symmetry_multiplicity
 _atom_site_fract_x
 _atom_site_fract_y
 _atom_site_fract_z
 _atom_site_fract_occupancy
 Ba  Ba1  1  0.75000  0.75000  0.15278  1
 Ba  Ba2  1  0.25000  0.25000  0.84722  1
 N  N1  1  0.75000  0.25000  0.50000  1
 N  N2  1  0.25000  0.75000  0.50000  1
 N  N3  1  0.75000  0.75000  0.84223  1
 N  N4  1  0.25000  0.25000  0.15777  1
 Sn  Sn1  1  0.75000  0.75000  0.60241  1
 Sn  Sn2  1  0.25000  0.25000  0.39759  1
