CIF file written using JARVIS-Tools package.
data_NbCrSi
_symmetry_space_group_name_H-M  'P-62m'
_cell_length_a       6.65832
_cell_length_b       6.65832
_cell_length_c       3.33748
_cell_angle_alpha    90
_cell_angle_beta     90
_cell_angle_gamma    120

_symmetry_Int_Tables_number  189
_chemical_formula_structural  NbCrSi
_chemical_formula_sum  Nb3Cr3Si3
_cell_volume  128.13795878804768
_cell_formula_units_Z  3
loop_
  _symmetry_equiv_pos_site_id
 _symmetry_equiv_pos_as_xyz
 1  'x, y, z'
loop_
 _atom_site_type_symbol
 _atom_site_label
 _atom_site_symmetry_multiplicity
 _atom_site_fract_x
 _atom_site_fract_y
 _atom_site_fract_z
 _atom_site_fract_occupancy
 Cr  Cr1  1  -0.00000  0.25365  0.00000  1
 Cr  Cr2  1  0.25365  -0.00000  0.00000  1
 Cr  Cr3  1  0.74635  0.74635  0.00000  1
 Nb  Nb1  1  0.40509  0.40509  0.50000  1
 Nb  Nb2  1  0.59491  0.00000  0.50000  1
 Nb  Nb3  1  0.00000  0.59491  0.50000  1
 Si  Si1  1  0.00000  0.00000  0.50000  1
 Si  Si2  1  0.33333  0.66667  0.00000  1
 Si  Si3  1  0.66667  0.33333  0.00000  1
