CIF file written using JARVIS-Tools package.
data_NaV6O11
_symmetry_space_group_name_H-M  'P6_3mc'
_cell_length_a       5.75439
_cell_length_b       5.75439
_cell_length_c       13.1843
_cell_angle_alpha    90
_cell_angle_beta     90
_cell_angle_gamma    120

_symmetry_Int_Tables_number  186
_chemical_formula_structural  NaV6O11
_chemical_formula_sum  Na2V2O22
_cell_volume  378.0819258377367
_cell_formula_units_Z  2
loop_
  _symmetry_equiv_pos_site_id
 _symmetry_equiv_pos_as_xyz
 1  'x, y, z'
loop_
 _atom_site_type_symbol
 _atom_site_label
 _atom_site_symmetry_multiplicity
 _atom_site_fract_x
 _atom_site_fract_y
 _atom_site_fract_z
 _atom_site_fract_occupancy
 Na  Na1  1  0.33333  0.66667  0.26340  1
 Na  Na2  1  0.66667  0.33333  0.76340  1
 O  O1  1  0.17049  0.82950  0.42119  1
 O  O2  1  0.66667  0.33333  0.41066  1
 O  O3  1  0.33333  0.66667  0.91066  1
 O  O4  1  0.66667  0.33333  0.08698  1
 O  O5  1  0.33333  0.66667  0.58698  1
 O  O6  1  0.84754  0.69508  0.25146  1
 O  O7  1  0.16901  0.83099  0.08092  1
 O  O8  1  0.15246  0.84754  0.75146  1
 O  O9  1  0.30492  0.15246  0.25146  1
 O  O10  1  0.84754  0.15246  0.25146  1
 O  O11  1  0.65901  0.82950  0.42119  1
 O  O12  1  0.16901  0.33801  0.08092  1
 O  O13  1  0.83099  0.16901  0.58092  1
 O  O14  1  0.33801  0.16901  0.58092  1
 O  O15  1  0.66198  0.83099  0.08092  1
 O  O16  1  0.17049  0.34099  0.42119  1
 O  O17  1  0.82951  0.17049  0.92119  1
 O  O18  1  0.34099  0.17049  0.92119  1
 O  O19  1  0.69508  0.84754  0.75146  1
 O  O20  1  0.83099  0.66199  0.58092  1
 O  O21  1  0.15246  0.30492  0.75146  1
 O  O22  1  0.82950  0.65901  0.92119  1
 V  V1  1  0.50429  0.49571  0.49911  1
 V  V2  1  0.00000  0.00000  0.64802  1
 V  V3  1  0.99142  0.49571  0.49911  1
 V  V4  1  0.00858  0.50429  -0.00089  1
 V  V5  1  0.49571  0.50429  -0.00089  1
 V  V6  1  0.00000  0.00000  0.14802  1
 V  V7  1  0.00000  0.00000  0.85238  1
 V  V8  1  0.00000  0.00000  0.35238  1
 V  V9  1  0.33333  0.66667  0.73934  1
 V  V10  1  0.66667  0.33333  0.23934  1
 V  V11  1  0.49571  0.99142  -0.00089  1
 V  V12  1  0.50429  0.00858  0.49911  1
