CIF file written using JARVIS-Tools package.
data_Na8Cu5O10
_symmetry_space_group_name_H-M  'Cm'
_cell_length_a       5.68583
_cell_length_b       8.14327
_cell_length_c       8.14327
_cell_angle_alpha    119.137
_cell_angle_beta     100.801
_cell_angle_gamma    100.801

_symmetry_Int_Tables_number  8
_chemical_formula_structural  Na8Cu5O10
_chemical_formula_sum  Na8Cu5O0
_cell_volume  305.9634408849338
_cell_formula_units_Z  1
loop_
  _symmetry_equiv_pos_site_id
 _symmetry_equiv_pos_as_xyz
 1  'x, y, z'
loop_
 _atom_site_type_symbol
 _atom_site_label
 _atom_site_symmetry_multiplicity
 _atom_site_fract_x
 _atom_site_fract_y
 _atom_site_fract_z
 _atom_site_fract_occupancy
 Cu  Cu1  1  0.74989  0.01958  0.41807  1
 Cu  Cu2  1  0.78124  0.62743  0.82638  1
 Cu  Cu3  1  0.72060  0.19743  0.19743  1
 Cu  Cu4  1  0.78124  0.82638  0.62743  1
 Cu  Cu5  1  0.74989  0.41807  0.01958  1
 Na  Na1  1  0.14276  0.08653  0.08653  1
 Na  Na2  1  0.40224  0.26954  0.53701  1
 Na  Na3  1  0.36787  0.95994  0.73770  1
 Na  Na4  1  0.40224  0.53701  0.26954  1
 Na  Na5  1  0.14269  0.85557  0.29876  1
 Na  Na6  1  0.08887  0.51850  0.51850  1
 Na  Na7  1  0.36787  0.73770  0.95994  1
 Na  Na8  1  0.14269  0.29876  0.85557  1
 O  O1  1  0.48734  0.04675  0.25876  1
 O  O2  1  0.00794  0.98734  0.57411  1
 O  O3  1  0.52695  0.47943  0.87431  1
 O  O4  1  0.52917  0.65333  0.65333  1
 O  O5  1  0.98014  0.16012  0.35604  1
 O  O6  1  0.98014  0.35604  0.16012  1
 O  O7  1  0.00794  0.57411  0.98734  1
 O  O8  1  0.52695  0.87431  0.47943  1
 O  O9  1  0.03118  0.78156  0.78156  1
 O  O10  1  0.48734  0.25876  0.04675  1
