CIF file written using JARVIS-Tools package.
data_Mg2BO3F
_symmetry_space_group_name_H-M  'Pnma'
_cell_length_a       3.10222
_cell_length_b       9.38267
_cell_length_c       9.46522
_cell_angle_alpha    90
_cell_angle_beta     90
_cell_angle_gamma    90

_symmetry_Int_Tables_number  62
_chemical_formula_structural  Mg2BO3F
_chemical_formula_sum  Mg8B4O2F4
_cell_volume  275.5053088379489
_cell_formula_units_Z  4
loop_
  _symmetry_equiv_pos_site_id
 _symmetry_equiv_pos_as_xyz
 1  'x, y, z'
loop_
 _atom_site_type_symbol
 _atom_site_label
 _atom_site_symmetry_multiplicity
 _atom_site_fract_x
 _atom_site_fract_y
 _atom_site_fract_z
 _atom_site_fract_occupancy
 B  B1  1  0.25000  0.17273  0.62965  1
 B  B2  1  0.25000  0.67273  0.87035  1
 B  B3  1  0.75000  0.32727  0.12965  1
 B  B4  1  0.75000  0.82727  0.37035  1
 F  F1  1  0.75000  0.99163  0.88964  1
 F  F2  1  0.75000  0.49163  0.61036  1
 F  F3  1  0.25000  0.50837  0.38964  1
 F  F4  1  0.25000  0.00837  0.11036  1
 Mg  Mg1  1  0.25000  0.13476  0.92984  1
 Mg  Mg2  1  0.25000  0.60200  0.18127  1
 Mg  Mg3  1  0.75000  0.89800  0.68127  1
 Mg  Mg4  1  0.25000  0.10200  0.31873  1
 Mg  Mg5  1  0.25000  0.63476  0.57016  1
 Mg  Mg6  1  0.75000  0.39800  0.81873  1
 Mg  Mg7  1  0.75000  0.36524  0.42984  1
 Mg  Mg8  1  0.75000  0.86524  0.07016  1
 O  O1  1  0.75000  0.97167  0.35767  1
 O  O2  1  0.25000  0.52833  0.85767  1
 O  O3  1  0.25000  0.23865  0.49723  1
 O  O4  1  0.75000  0.47167  0.14233  1
 O  O5  1  0.75000  0.26135  0.99723  1
 O  O6  1  0.75000  0.76135  0.50277  1
 O  O7  1  0.25000  0.02833  0.64233  1
 O  O8  1  0.75000  0.74350  0.24856  1
 O  O9  1  0.25000  0.75650  0.74856  1
 O  O10  1  0.75000  0.24350  0.25144  1
 O  O11  1  0.25000  0.73865  0.00277  1
 O  O12  1  0.25000  0.25650  0.75144  1
