CIF file written using JARVIS-Tools package.
data_SmRhC2
_symmetry_space_group_name_H-M  'Amm2'
_cell_length_a       3.6285
_cell_length_b       4.04886
_cell_length_c       4.04885
_cell_angle_alpha    109.059
_cell_angle_beta     90
_cell_angle_gamma    90

_symmetry_Int_Tables_number  38
_chemical_formula_structural  SmRhC2
_chemical_formula_sum  SmRhC2
_cell_volume  56.222071401343456
_cell_formula_units_Z  1
loop_
  _symmetry_equiv_pos_site_id
 _symmetry_equiv_pos_as_xyz
 1  'x, y, z'
loop_
 _atom_site_type_symbol
 _atom_site_label
 _atom_site_symmetry_multiplicity
 _atom_site_fract_x
 _atom_site_fract_y
 _atom_site_fract_z
 _atom_site_fract_occupancy
 C  C1  1  0.50000  0.45716  0.82867  1
 C  C2  1  0.50000  0.17133  0.54284  1
 Rh  Rh1  1  0.50000  0.62514  0.37486  1
 Sm  Sm1  1  0.00000  0.00068  0.99932  1
