CIF file written using JARVIS-Tools package.
data_Dy5P12Ru19
_symmetry_space_group_name_H-M  'P-62m'
_cell_length_a       12.5405
_cell_length_b       12.5405
_cell_length_c       3.9887
_cell_angle_alpha    90
_cell_angle_beta     90
_cell_angle_gamma    120

_symmetry_Int_Tables_number  189
_chemical_formula_structural  Dy5P12Ru19
_chemical_formula_sum  Dy5P2Ru9
_cell_volume  543.2402963364093
_cell_formula_units_Z  1
loop_
  _symmetry_equiv_pos_site_id
 _symmetry_equiv_pos_as_xyz
 1  'x, y, z'
loop_
 _atom_site_type_symbol
 _atom_site_label
 _atom_site_symmetry_multiplicity
 _atom_site_fract_x
 _atom_site_fract_y
 _atom_site_fract_z
 _atom_site_fract_occupancy
 Dy  Dy1  1  0.18375  0.00000  0.50000  1
 Dy  Dy2  1  0.00000  0.18375  0.50000  1
 Dy  Dy3  1  0.33333  0.66667  0.00000  1
 Dy  Dy4  1  0.66667  0.33333  0.00000  1
 Dy  Dy5  1  0.81625  0.81625  0.50000  1
 P  P1  1  0.18444  0.18444  0.00000  1
 P  P2  1  0.69428  0.17220  0.50000  1
 P  P3  1  0.47792  0.30572  0.50000  1
 P  P4  1  0.37210  0.00000  0.00000  1
 P  P5  1  0.17220  0.69428  0.50000  1
 P  P6  1  0.62790  0.62790  0.00000  1
 P  P7  1  0.00000  0.81556  0.00000  1
 P  P8  1  -0.00000  0.37210  0.00000  1
 P  P9  1  0.81556  0.00000  0.00000  1
 P  P10  1  0.82780  0.52208  0.50000  1
 P  P11  1  0.52208  0.82780  0.50000  1
 P  P12  1  0.30572  0.47792  0.50000  1
 Ru  Ru1  1  0.87401  0.36651  0.50000  1
 Ru  Ru2  1  0.19216  0.37710  0.00000  1
 Ru  Ru3  1  0.62290  0.81506  0.00000  1
 Ru  Ru4  1  0.81506  0.62290  0.00000  1
 Ru  Ru5  1  0.18494  0.80784  0.00000  1
 Ru  Ru6  1  0.37710  0.19216  0.00000  1
 Ru  Ru7  1  0.63349  0.50749  0.50000  1
 Ru  Ru8  1  0.36651  0.87401  0.50000  1
 Ru  Ru9  1  -0.00000  0.71682  0.50000  1
 Ru  Ru10  1  0.12599  0.49251  0.50000  1
 Ru  Ru11  1  0.28318  0.28318  0.50000  1
 Ru  Ru12  1  0.71682  0.00000  0.50000  1
 Ru  Ru13  1  -0.00000  0.55414  0.00000  1
 Ru  Ru14  1  0.44586  0.44586  0.00000  1
 Ru  Ru15  1  0.55414  0.00000  0.00000  1
 Ru  Ru16  1  0.80784  0.18494  0.00000  1
 Ru  Ru17  1  0.00000  0.00000  0.00000  1
 Ru  Ru18  1  0.50749  0.63349  0.50000  1
 Ru  Ru19  1  0.49251  0.12599  0.50000  1
