CIF file written using JARVIS-Tools package.
data_CaZrO3
_symmetry_space_group_name_H-M  'Pnma'
_cell_length_a       5.60117
_cell_length_b       5.7997
_cell_length_c       8.04768
_cell_angle_alpha    90
_cell_angle_beta     90
_cell_angle_gamma    90

_symmetry_Int_Tables_number  62
_chemical_formula_structural  CaZrO3
_chemical_formula_sum  Ca4Zr4O2
_cell_volume  261.4296839652
_cell_formula_units_Z  4
loop_
  _symmetry_equiv_pos_site_id
 _symmetry_equiv_pos_as_xyz
 1  'x, y, z'
loop_
 _atom_site_type_symbol
 _atom_site_label
 _atom_site_symmetry_multiplicity
 _atom_site_fract_x
 _atom_site_fract_y
 _atom_site_fract_z
 _atom_site_fract_occupancy
 Ca  Ca1  1  0.01380  0.94776  0.75000  1
 Ca  Ca2  1  0.48620  0.44776  0.75000  1
 Ca  Ca3  1  0.51380  0.55224  0.25000  1
 Ca  Ca4  1  0.98620  0.05224  0.25000  1
 O  O1  1  0.80316  0.80034  0.05782  1
 O  O2  1  0.89101  0.54218  0.75000  1
 O  O3  1  0.30316  0.69966  0.55782  1
 O  O4  1  0.60899  0.04218  0.75000  1
 O  O5  1  0.30316  0.69966  0.94218  1
 O  O6  1  0.10899  0.45782  0.25000  1
 O  O7  1  0.19684  0.19966  0.55782  1
 O  O8  1  0.69684  0.30034  0.44218  1
 O  O9  1  0.80316  0.80034  0.44218  1
 O  O10  1  0.69684  0.30034  0.05782  1
 O  O11  1  0.39101  0.95782  0.25000  1
 O  O12  1  0.19684  0.19966  0.94218  1
 Zr  Zr1  1  0.50000  0.00000  0.00000  1
 Zr  Zr2  1  0.50000  0.00000  0.50000  1
 Zr  Zr3  1  0.00000  0.50000  0.50000  1
 Zr  Zr4  1  0.00000  0.50000  0.00000  1
