CIF file written using JARVIS-Tools package.
data_K17Fe5O16
_symmetry_space_group_name_H-M  'Cm'
_cell_length_a       6.68579
_cell_length_b       6.66836
_cell_length_c       18.4002
_cell_angle_alpha    79.5606
_cell_angle_beta     84.9165
_cell_angle_gamma    60.7249

_symmetry_Int_Tables_number  8
_chemical_formula_structural  K17Fe5O16
_chemical_formula_sum  K7Fe5O6
_cell_volume  703.724507631891
_cell_formula_units_Z  1
loop_
  _symmetry_equiv_pos_site_id
 _symmetry_equiv_pos_as_xyz
 1  'x, y, z'
loop_
 _atom_site_type_symbol
 _atom_site_label
 _atom_site_symmetry_multiplicity
 _atom_site_fract_x
 _atom_site_fract_y
 _atom_site_fract_z
 _atom_site_fract_occupancy
 Fe  Fe1  1  0.39154  0.08788  0.82016  1
 Fe  Fe2  1  0.08292  0.81953  0.35933  1
 Fe  Fe3  1  0.07366  0.99746  -0.00000  1
 Fe  Fe4  1  0.08293  0.17886  0.64067  1
 Fe  Fe5  1  0.39152  0.90806  0.17984  1
 K  K1  1  0.00443  0.67672  0.53156  1
 K  K2  1  0.45825  0.33015  0.45259  1
 K  K3  1  0.60812  0.82902  0.33589  1
 K  K4  1  0.02288  0.59026  0.71977  1
 K  K5  1  0.45634  0.49634  0.09234  1
 K  K6  1  0.58236  0.99417  0.00000  1
 K  K7  1  0.88061  0.08356  0.83298  1
 K  K8  1  0.45634  0.58867  0.90766  1
 K  K9  1  0.60814  0.16489  0.66411  1
 K  K10  1  0.47485  0.68457  0.72333  1
 K  K11  1  0.00146  0.40524  0.09415  1
 K  K12  1  0.02286  0.31005  0.28023  1
 K  K13  1  0.00146  0.49938  0.90585  1
 K  K14  1  0.88060  0.91657  0.16702  1
 K  K15  1  0.00443  0.20828  0.46844  1
 K  K16  1  0.45826  0.78274  0.54741  1
 K  K17  1  0.47484  0.40791  0.27667  1
 O  O1  1  0.41030  0.17417  0.18781  1
 O  O2  1  0.67766  0.82420  0.81232  1
 O  O3  1  0.19260  0.86684  0.25657  1
 O  O4  1  0.67765  0.63654  0.18768  1
 O  O5  1  0.41032  0.36196  0.81218  1
 O  O6  1  0.06357  0.91819  0.62323  1
 O  O7  1  0.19261  0.12338  0.74344  1
 O  O8  1  0.80103  0.08371  0.37283  1
 O  O9  1  0.80104  0.45654  0.62717  1
 O  O10  1  0.06356  0.54141  0.37677  1
 O  O11  1  0.29956  0.78852  0.42556  1
 O  O12  1  0.24752  0.04054  0.91423  1
 O  O13  1  0.78797  0.26656  -0.00000  1
 O  O14  1  0.05668  0.72554  -0.00000  1
 O  O15  1  0.29956  0.21408  0.57444  1
 O  O16  1  0.24750  0.95478  0.08577  1
