CIF file written using JARVIS-Tools package.
data_LiMg2
_symmetry_space_group_name_H-M  'P-3m1'
_cell_length_a       3.16284
_cell_length_b       3.16284
_cell_length_c       15.1384
_cell_angle_alpha    90
_cell_angle_beta     90
_cell_angle_gamma    120

_symmetry_Int_Tables_number  164
_chemical_formula_structural  LiMg2
_chemical_formula_sum  Li2Mg4
_cell_volume  131.14870066430842
_cell_formula_units_Z  2
loop_
  _symmetry_equiv_pos_site_id
 _symmetry_equiv_pos_as_xyz
 1  'x, y, z'
loop_
 _atom_site_type_symbol
 _atom_site_label
 _atom_site_symmetry_multiplicity
 _atom_site_fract_x
 _atom_site_fract_y
 _atom_site_fract_z
 _atom_site_fract_occupancy
 Li  Li1  1  0.33333  0.66667  0.57972  1
 Li  Li2  1  0.66667  0.33333  0.42028  1
 Mg  Mg1  1  0.33333  0.66667  0.91428  1
 Mg  Mg2  1  0.66667  0.33333  0.74150  1
 Mg  Mg3  1  0.33333  0.66667  0.25850  1
 Mg  Mg4  1  0.66667  0.33333  0.08572  1
