CIF file written using JARVIS-Tools package.
data_NbIrS4
_symmetry_space_group_name_H-M  'C2/m'
_cell_length_a       3.50304
_cell_length_b       6.6378
_cell_length_c       6.84293
_cell_angle_alpha    58.8106
_cell_angle_beta     104.831
_cell_angle_gamma    121.853

_symmetry_Int_Tables_number  12
_chemical_formula_structural  NbIrS4
_chemical_formula_sum  NbIrS4
_cell_volume  115.58533361679179
_cell_formula_units_Z  1
loop_
  _symmetry_equiv_pos_site_id
 _symmetry_equiv_pos_as_xyz
 1  'x, y, z'
loop_
 _atom_site_type_symbol
 _atom_site_label
 _atom_site_symmetry_multiplicity
 _atom_site_fract_x
 _atom_site_fract_y
 _atom_site_fract_z
 _atom_site_fract_occupancy
 Ir  Ir1  1  0.00000  0.50000  -0.00000  1
 Nb  Nb1  1  0.00000  0.00000  0.00000  1
 S  S1  1  0.65743  0.78205  0.75075  1
 S  S2  1  0.32387  0.69450  0.25873  1
 S  S3  1  0.34257  0.21795  0.24925  1
 S  S4  1  0.67613  0.30550  0.74127  1
