CIF file written using JARVIS-Tools package.
data_LiNbGeO5
_symmetry_space_group_name_H-M  'Pnma'
_cell_length_a       6.80621
_cell_length_b       7.55607
_cell_length_c       7.8475
_cell_angle_alpha    90
_cell_angle_beta     90
_cell_angle_gamma    90

_symmetry_Int_Tables_number  62
_chemical_formula_structural  LiNbGeO5
_chemical_formula_sum  Li4Nb4Ge4O20
_cell_volume  403.58267983335764
_cell_formula_units_Z  4
loop_
  _symmetry_equiv_pos_site_id
 _symmetry_equiv_pos_as_xyz
 1  'x, y, z'
loop_
 _atom_site_type_symbol
 _atom_site_label
 _atom_site_symmetry_multiplicity
 _atom_site_fract_x
 _atom_site_fract_y
 _atom_site_fract_z
 _atom_site_fract_occupancy
 Ge  Ge1  1  0.75000  0.86381  0.63153  1
 Ge  Ge2  1  0.75000  0.63619  0.13153  1
 Ge  Ge3  1  0.25000  0.13619  0.36847  1
 Ge  Ge4  1  0.25000  0.36381  0.86847  1
 Li  Li1  1  0.00000  0.00000  0.00000  1
 Li  Li2  1  0.50000  0.50000  0.50000  1
 Li  Li3  1  0.00000  0.50000  0.50000  1
 Li  Li4  1  0.50000  0.00000  0.00000  1
 Nb  Nb1  1  0.25000  0.72750  0.16121  1
 Nb  Nb2  1  0.75000  0.22750  0.33879  1
 Nb  Nb3  1  0.75000  0.27250  0.83879  1
 Nb  Nb4  1  0.25000  0.77250  0.66121  1
 O  O1  1  0.75000  0.50406  0.94283  1
 O  O2  1  0.03993  0.27242  0.37526  1
 O  O3  1  0.53993  0.72758  0.62474  1
 O  O4  1  0.25000  0.00406  0.55717  1
 O  O5  1  0.25000  0.49625  0.68221  1
 O  O6  1  0.75000  0.50375  0.31779  1
 O  O7  1  0.75000  -0.00375  0.81779  1
 O  O8  1  0.75000  0.16346  0.11311  1
 O  O9  1  0.75000  0.99594  0.44283  1
 O  O10  1  0.46007  0.22758  0.87526  1
 O  O11  1  0.25000  0.49594  0.05717  1
 O  O12  1  0.53993  0.77242  0.12474  1
 O  O13  1  0.03993  0.22758  0.87526  1
 O  O14  1  0.46007  0.27242  0.37526  1
 O  O15  1  0.75000  0.33654  0.61311  1
 O  O16  1  0.25000  0.83654  0.88689  1
 O  O17  1  0.96007  0.77242  0.12474  1
 O  O18  1  0.25000  0.66346  0.38689  1
 O  O19  1  0.96007  0.72758  0.62474  1
 O  O20  1  0.25000  0.00375  0.18221  1
