CIF file written using JARVIS-Tools package.
data_LiYSn
_symmetry_space_group_name_H-M  'P6_3mc'
_cell_length_a       9.30758
_cell_length_b       9.30758
_cell_length_c       7.34481
_cell_angle_alpha    90
_cell_angle_beta     90
_cell_angle_gamma    120

_symmetry_Int_Tables_number  186
_chemical_formula_structural  LiYSn
_chemical_formula_sum  Li8Y8Sn8
_cell_volume  551.0416954561426
_cell_formula_units_Z  8
loop_
  _symmetry_equiv_pos_site_id
 _symmetry_equiv_pos_as_xyz
 1  'x, y, z'
loop_
 _atom_site_type_symbol
 _atom_site_label
 _atom_site_symmetry_multiplicity
 _atom_site_fract_x
 _atom_site_fract_y
 _atom_site_fract_z
 _atom_site_fract_occupancy
 Li  Li1  1  0.16680  0.83320  0.19683  1
 Li  Li2  1  0.33360  0.16680  0.69683  1
 Li  Li3  1  0.83320  0.66640  0.69683  1
 Li  Li4  1  0.16680  0.33360  0.19683  1
 Li  Li5  1  0.66640  0.83320  0.19683  1
 Li  Li6  1  0.83320  0.16680  0.69683  1
 Li  Li7  1  0.33333  0.66667  0.80866  1
 Li  Li8  1  0.66667  0.33333  0.30866  1
 Sn  Sn1  1  0.83327  0.16673  0.25452  1
 Sn  Sn2  1  0.66654  0.83327  0.75452  1
 Sn  Sn3  1  0.16673  0.33346  0.75452  1
 Sn  Sn4  1  0.83327  0.66654  0.25452  1
 Sn  Sn5  1  0.33346  0.16673  0.25452  1
 Sn  Sn6  1  0.16673  0.83327  0.75452  1
 Sn  Sn7  1  0.66667  0.33333  0.72439  1
 Sn  Sn8  1  0.33333  0.66667  0.22439  1
 Y  Y1  1  0.51154  0.48846  0.99075  1
 Y  Y2  1  0.48846  0.97691  0.49075  1
 Y  Y3  1  0.51154  0.02309  0.99075  1
 Y  Y4  1  0.48846  0.51154  0.49075  1
 Y  Y5  1  0.00000  0.00000  0.98565  1
 Y  Y6  1  0.00000  0.00000  0.48565  1
 Y  Y7  1  0.02309  0.51154  0.49075  1
 Y  Y8  1  0.97691  0.48846  0.99075  1
