CIF file written using JARVIS-Tools package.
data_FeN2Cl2
_symmetry_space_group_name_H-M  'Cmmm'
_cell_length_a       3.41761
_cell_length_b       4.82376
_cell_length_c       4.82376
_cell_angle_alpha    86.5556
_cell_angle_beta     90
_cell_angle_gamma    90

_symmetry_Int_Tables_number  65
_chemical_formula_structural  FeN2Cl2
_chemical_formula_sum  FeN2Cl2
_cell_volume  79.37950735357508
_cell_formula_units_Z  1
loop_
  _symmetry_equiv_pos_site_id
 _symmetry_equiv_pos_as_xyz
 1  'x, y, z'
loop_
 _atom_site_type_symbol
 _atom_site_label
 _atom_site_symmetry_multiplicity
 _atom_site_fract_x
 _atom_site_fract_y
 _atom_site_fract_z
 _atom_site_fract_occupancy
 Cl  Cl1  1  0.50000  0.73916  0.26084  1
 Cl  Cl2  1  0.50000  0.26084  0.73916  1
 Fe  Fe1  1  0.00000  0.50000  0.50000  1
 N  N1  1  0.00000  0.74336  0.74336  1
 N  N2  1  0.00000  0.25664  0.25664  1
