CIF file written using JARVIS-Tools package.
data_Zn2FeS3
_symmetry_space_group_name_H-M  'P3m1'
_cell_length_a       3.81392
_cell_length_b       3.81392
_cell_length_c       9.3994
_cell_angle_alpha    90
_cell_angle_beta     90
_cell_angle_gamma    120

_symmetry_Int_Tables_number  156
_chemical_formula_structural  Zn2FeS3
_chemical_formula_sum  Zn2FeS3
_cell_volume  118.4061396784517
_cell_formula_units_Z  1
loop_
  _symmetry_equiv_pos_site_id
 _symmetry_equiv_pos_as_xyz
 1  'x, y, z'
loop_
 _atom_site_type_symbol
 _atom_site_label
 _atom_site_symmetry_multiplicity
 _atom_site_fract_x
 _atom_site_fract_y
 _atom_site_fract_z
 _atom_site_fract_occupancy
 Fe  Fe1  1  0.00000  0.00000  -0.00110  1
 S  S1  1  0.00000  0.00000  0.24640  1
 S  S2  1  0.66667  0.33333  0.58337  1
 S  S3  1  0.33333  0.66667  0.91936  1
 Zn  Zn1  1  0.66667  0.33333  0.33318  1
 Zn  Zn2  1  0.33333  0.66667  0.66879  1
