CIF file written using JARVIS-Tools package.
data_BiRhO3
_symmetry_space_group_name_H-M  'Pnma'
_cell_length_a       5.40221
_cell_length_b       5.9012
_cell_length_c       7.78891
_cell_angle_alpha    90
_cell_angle_beta     90
_cell_angle_gamma    90

_symmetry_Int_Tables_number  62
_chemical_formula_structural  BiRhO3
_chemical_formula_sum  Bi4Rh4O2
_cell_volume  248.30674521427332
_cell_formula_units_Z  4
loop_
  _symmetry_equiv_pos_site_id
 _symmetry_equiv_pos_as_xyz
 1  'x, y, z'
loop_
 _atom_site_type_symbol
 _atom_site_label
 _atom_site_symmetry_multiplicity
 _atom_site_fract_x
 _atom_site_fract_y
 _atom_site_fract_z
 _atom_site_fract_occupancy
 Bi  Bi1  1  0.01736  0.93381  0.75000  1
 Bi  Bi2  1  0.48264  0.43381  0.75000  1
 Bi  Bi3  1  0.98264  0.06619  0.25000  1
 Bi  Bi4  1  0.51736  0.56619  0.25000  1
 O  O1  1  0.67386  0.31224  0.04288  1
 O  O2  1  0.17386  0.18776  0.54288  1
 O  O3  1  0.32614  0.68776  0.95712  1
 O  O4  1  0.88352  0.54297  0.75000  1
 O  O5  1  0.67386  0.31224  0.45712  1
 O  O6  1  0.82614  0.81224  0.45712  1
 O  O7  1  0.38352  0.95703  0.25000  1
 O  O8  1  0.32614  0.68776  0.54288  1
 O  O9  1  0.82614  0.81224  0.04288  1
 O  O10  1  0.17386  0.18776  0.95712  1
 O  O11  1  0.61648  0.04297  0.75000  1
 O  O12  1  0.11648  0.45703  0.25000  1
 Rh  Rh1  1  0.50000  0.00000  0.00000  1
 Rh  Rh2  1  0.50000  0.00000  0.50000  1
 Rh  Rh3  1  0.00000  0.50000  0.00000  1
 Rh  Rh4  1  0.00000  0.50000  0.50000  1
