CIF file written using JARVIS-Tools package.
data_NdAlGe2O7
_symmetry_space_group_name_H-M  'P2_1/c'
_cell_length_a       6.60561
_cell_length_b       7.28294
_cell_length_c       11.4673
_cell_angle_alpha    96.6384
_cell_angle_beta     90
_cell_angle_gamma    90

_symmetry_Int_Tables_number  14
_chemical_formula_structural  NdAlGe2O7
_chemical_formula_sum  Nd4Al4Ge8O28
_cell_volume  547.9738120430638
_cell_formula_units_Z  4
loop_
  _symmetry_equiv_pos_site_id
 _symmetry_equiv_pos_as_xyz
 1  'x, y, z'
loop_
 _atom_site_type_symbol
 _atom_site_label
 _atom_site_symmetry_multiplicity
 _atom_site_fract_x
 _atom_site_fract_y
 _atom_site_fract_z
 _atom_site_fract_occupancy
 Al  Al1  1  0.60173  0.01702  0.22988  1
 Al  Al2  1  0.39827  0.98298  0.77012  1
 Al  Al3  1  0.10173  0.48298  0.27012  1
 Al  Al4  1  0.89827  0.51702  0.72988  1
 Ge  Ge1  1  0.65764  0.75850  0.54872  1
 Ge  Ge2  1  0.84236  0.25850  0.04872  1
 Ge  Ge3  1  0.91081  0.08051  0.77945  1
 Ge  Ge4  1  0.08919  0.91949  0.22055  1
 Ge  Ge5  1  0.41081  0.41949  0.72055  1
 Ge  Ge6  1  0.34236  0.24150  0.45128  1
 Ge  Ge7  1  0.15764  0.74150  0.95128  1
 Ge  Ge8  1  0.58919  0.58051  0.27945  1
 Nd  Nd1  1  0.35180  0.26157  0.02577  1
 Nd  Nd2  1  0.85180  0.23843  0.47423  1
 Nd  Nd3  1  0.14820  0.76157  0.52577  1
 Nd  Nd4  1  0.64820  0.73843  0.97423  1
 O  O1  1  0.31833  0.02845  0.18661  1
 O  O2  1  0.00036  0.17381  0.92626  1
 O  O3  1  0.49964  0.67381  0.42626  1
 O  O4  1  -0.00036  0.82619  0.07374  1
 O  O5  1  0.32632  0.56856  0.97597  1
 O  O6  1  0.82632  0.93144  0.52403  1
 O  O7  1  0.67368  0.43144  0.02403  1
 O  O8  1  0.17368  0.06856  0.47597  1
 O  O9  1  0.88220  0.05567  0.27724  1
 O  O10  1  0.11780  0.94433  0.72276  1
 O  O11  1  0.34034  0.91158  0.91592  1
 O  O12  1  0.61780  0.55567  0.77724  1
 O  O13  1  0.81833  0.47155  0.31339  1
 O  O14  1  0.15966  0.41158  0.41592  1
 O  O15  1  0.18167  0.52845  0.68661  1
 O  O16  1  0.12063  0.73044  0.30362  1
 O  O17  1  0.62063  0.76956  0.19638  1
 O  O18  1  0.87937  0.26956  0.69638  1
 O  O19  1  0.50036  0.32619  0.57374  1
 O  O20  1  0.37937  0.23044  0.80362  1
 O  O21  1  0.38220  0.44433  0.22276  1
 O  O22  1  0.94834  0.66059  0.86501  1
 O  O23  1  0.44834  0.83941  0.63499  1
 O  O24  1  0.05166  0.33941  0.13499  1
 O  O25  1  0.55166  0.16059  0.36501  1
 O  O26  1  0.65966  0.08842  0.08408  1
 O  O27  1  0.68167  0.97155  0.81339  1
 O  O28  1  0.84034  0.58842  0.58408  1
