CIF file written using JARVIS-Tools package.
data_H2S
_symmetry_space_group_name_H-M  'I4_1/acd'
_cell_length_a       8.11504
_cell_length_b       8.11504
_cell_length_c       8.11504
_cell_angle_alpha    119.603
_cell_angle_beta     119.603
_cell_angle_gamma    90.6897

_symmetry_Int_Tables_number  142
_chemical_formula_structural  H2S
_chemical_formula_sum  H6S8
_cell_volume  380.1221591930001
_cell_formula_units_Z  8
loop_
  _symmetry_equiv_pos_site_id
 _symmetry_equiv_pos_as_xyz
 1  'x, y, z'
loop_
 _atom_site_type_symbol
 _atom_site_label
 _atom_site_symmetry_multiplicity
 _atom_site_fract_x
 _atom_site_fract_y
 _atom_site_fract_z
 _atom_site_fract_occupancy
 H  H1  1  0.06423  0.78188  0.76944  1
 H  H2  1  0.18577  0.45520  0.21765  1
 H  H3  1  0.56423  0.79480  0.28235  1
 H  H4  1  0.73756  0.95520  0.26944  1
 H  H5  1  0.23756  0.96812  0.78235  1
 H  H6  1  0.51244  0.28188  0.71765  1
 H  H7  1  0.68577  0.46812  0.73056  1
 H  H8  1  0.03188  0.81423  0.26944  1
 H  H9  1  0.01244  0.29480  0.23056  1
 H  H10  1  0.20520  0.48756  0.76944  1
 H  H11  1  0.04480  0.31423  0.78235  1
 H  H12  1  0.70520  0.93577  0.71765  1
 H  H13  1  0.71812  0.43577  0.23056  1
 H  H14  1  0.53188  0.26244  0.21765  1
 H  H15  1  0.54480  0.76244  0.73056  1
 H  H16  1  0.21812  -0.01244  0.28235  1
 S  S1  1  0.53848  0.87500  0.16348  1
 S  S2  1  0.71152  0.37500  0.83652  1
 S  S3  1  0.12500  0.78848  0.16348  1
 S  S4  1  0.62500  0.46152  0.33652  1
 S  S5  1  0.12500  0.28848  0.66348  1
 S  S6  1  0.62500  0.96152  0.83652  1
 S  S7  1  0.21152  0.37500  0.33652  1
 S  S8  1  0.03848  0.87500  0.66348  1
