CIF file written using JARVIS-Tools package.
data_Sm2Si3Pt
_symmetry_space_group_name_H-M  'Imm2'
_cell_length_a       7.74865
_cell_length_b       7.74865
_cell_length_c       7.74865
_cell_angle_alpha    149.588
_cell_angle_beta     148.491
_cell_angle_gamma    44.3596

_symmetry_Int_Tables_number  44
_chemical_formula_structural  Sm2Si3Pt
_chemical_formula_sum  Sm2Si3Pt
_cell_volume  122.72321795543206
_cell_formula_units_Z  1
loop_
  _symmetry_equiv_pos_site_id
 _symmetry_equiv_pos_as_xyz
 1  'x, y, z'
loop_
 _atom_site_type_symbol
 _atom_site_label
 _atom_site_symmetry_multiplicity
 _atom_site_fract_x
 _atom_site_fract_y
 _atom_site_fract_z
 _atom_site_fract_occupancy
 Pt  Pt1  1  0.95966  0.45966  0.50000  1
 Si  Si1  1  0.70523  0.70523  0.00000  1
 Si  Si2  1  0.54035  0.54035  0.00000  1
 Si  Si3  1  0.79465  0.29465  0.50000  1
 Sm  Sm1  1  0.12839  0.12839  0.00000  1
 Sm  Sm2  1  0.37172  0.87172  0.50000  1
