CIF file written using JARVIS-Tools package.
data_K3SbTe3
_symmetry_space_group_name_H-M  'P2_13'
_cell_length_a       10.3227
_cell_length_b       10.3227
_cell_length_c       10.3227
_cell_angle_alpha    90
_cell_angle_beta     90
_cell_angle_gamma    90

_symmetry_Int_Tables_number  198
_chemical_formula_structural  K3SbTe3
_chemical_formula_sum  K2Sb4Te2
_cell_volume  1099.968441086749
_cell_formula_units_Z  4
loop_
  _symmetry_equiv_pos_site_id
 _symmetry_equiv_pos_as_xyz
 1  'x, y, z'
loop_
 _atom_site_type_symbol
 _atom_site_label
 _atom_site_symmetry_multiplicity
 _atom_site_fract_x
 _atom_site_fract_y
 _atom_site_fract_z
 _atom_site_fract_occupancy
 K  K1  1  0.57637  0.57637  0.57637  1
 K  K2  1  0.92363  0.42363  0.07637  1
 K  K3  1  0.07637  0.92363  0.42363  1
 K  K4  1  0.42363  0.07637  0.92363  1
 K  K5  1  0.32711  0.32711  0.32711  1
 K  K6  1  0.17289  0.67289  0.82711  1
 K  K7  1  0.82711  0.17289  0.67289  1
 K  K8  1  0.67289  0.82711  0.17289  1
 K  K9  1  0.81754  0.81754  0.81754  1
 K  K10  1  0.68246  0.18246  0.31754  1
 K  K11  1  0.31754  0.68246  0.18246  1
 K  K12  1  0.18246  0.31754  0.68246  1
 Sb  Sb1  1  0.03332  0.03332  0.03332  1
 Sb  Sb2  1  0.46668  0.96668  0.53332  1
 Sb  Sb3  1  0.53332  0.46668  0.96668  1
 Sb  Sb4  1  0.96668  0.53332  0.46668  1
 Te  Te1  1  0.22740  0.61554  0.50110  1
 Te  Te2  1  0.50110  0.22740  0.61554  1
 Te  Te3  1  0.61554  0.50110  0.22740  1
 Te  Te4  1  0.88446  0.49890  0.72740  1
 Te  Te5  1  0.00110  0.27260  0.38446  1
 Te  Te6  1  0.38446  0.00110  0.27260  1
 Te  Te7  1  -0.00110  0.77260  0.11554  1
 Te  Te8  1  0.49890  0.72740  0.88446  1
 Te  Te9  1  0.11554  -0.00110  0.77260  1
 Te  Te10  1  0.72740  0.88446  0.49890  1
 Te  Te11  1  0.77260  0.11554  -0.00110  1
 Te  Te12  1  0.27260  0.38446  0.00110  1
