CIF file written using JARVIS-Tools package.
data_SbH3C2O4F6
_symmetry_space_group_name_H-M  'Cc'
_cell_length_a       7.80382
_cell_length_b       7.80382
_cell_length_c       8.50281
_cell_angle_alpha    56.7153
_cell_angle_beta     123.285
_cell_angle_gamma    109.901

_symmetry_Int_Tables_number  9
_chemical_formula_structural  SbH3C2O4F6
_chemical_formula_sum  Sb2H6C4O8F2
_cell_volume  361.290648088337
_cell_formula_units_Z  2
loop_
  _symmetry_equiv_pos_site_id
 _symmetry_equiv_pos_as_xyz
 1  'x, y, z'
loop_
 _atom_site_type_symbol
 _atom_site_label
 _atom_site_symmetry_multiplicity
 _atom_site_fract_x
 _atom_site_fract_y
 _atom_site_fract_z
 _atom_site_fract_occupancy
 C  C1  1  0.48866  0.83804  0.35757  1
 C  C2  1  0.52255  0.07075  0.23209  1
 C  C3  1  0.92925  0.47745  0.73209  1
 C  C4  1  0.16196  0.51134  0.85757  1
 F  F1  1  0.24462  0.03894  0.41373  1
 F  F2  1  0.96106  0.75538  0.91373  1
 F  F3  1  0.33210  0.98083  0.79769  1
 F  F4  1  0.01917  0.66790  0.29769  1
 F  F5  1  0.34902  0.36330  0.48997  1
 F  F6  1  0.94676  0.30604  0.21536  1
 F  F7  1  0.69396  0.05324  0.71536  1
 F  F8  1  0.93855  0.91655  0.51820  1
 F  F9  1  0.63670  0.65098  0.98997  1
 F  F10  1  0.08345  0.06145  0.01820  1
 F  F11  1  0.04382  0.23678  0.60152  1
 F  F12  1  0.76322  0.95618  0.10152  1
 H  H1  1  0.40211  0.61623  0.81320  1
 H  H2  1  0.38377  0.59789  0.31320  1
 H  H3  1  0.89718  0.37992  0.97807  1
 H  H4  1  0.62008  0.10282  0.47807  1
 H  H5  1  0.93444  0.56905  0.47139  1
 H  H6  1  0.43095  0.06556  0.97139  1
 O  O1  1  0.41281  0.74903  0.23631  1
 O  O2  1  0.84038  0.51573  0.53859  1
 O  O3  1  0.59254  0.18168  0.32425  1
 O  O4  1  0.81832  0.40746  0.82425  1
 O  O5  1  0.25097  0.58719  0.73631  1
 O  O6  1  0.53167  0.76386  0.54232  1
 O  O7  1  0.23614  0.46833  0.04232  1
 O  O8  1  0.48427  0.15962  0.03859  1
 Sb  Sb1  1  0.85967  0.85776  0.00333  1
 Sb  Sb2  1  0.14224  0.14033  0.50333  1
