CIF file written using JARVIS-Tools package.
data_BePO4
_symmetry_space_group_name_H-M  'I-4'
_cell_length_a       4.97714
_cell_length_b       4.97714
_cell_length_c       4.97714
_cell_angle_alpha    123.269
_cell_angle_beta     123.269
_cell_angle_gamma    84.4245

_symmetry_Int_Tables_number  82
_chemical_formula_structural  BePO4
_chemical_formula_sum  BePO4
_cell_volume  82.44627245252829
_cell_formula_units_Z  1
loop_
  _symmetry_equiv_pos_site_id
 _symmetry_equiv_pos_as_xyz
 1  'x, y, z'
loop_
 _atom_site_type_symbol
 _atom_site_label
 _atom_site_symmetry_multiplicity
 _atom_site_fract_x
 _atom_site_fract_y
 _atom_site_fract_z
 _atom_site_fract_occupancy
 Be  Be1  1  0.75000  0.25000  0.50000  1
 O  O1  1  0.77733  0.12128  0.14144  1
 O  O2  1  0.36411  0.22267  0.34395  1
 O  O3  1  0.87872  0.02016  0.65605  1
 O  O4  1  0.97984  0.63589  0.85856  1
 P  P1  1  0.00000  0.00000  0.00000  1
