CIF file written using JARVIS-Tools package.
data_SrEr2O4
_symmetry_space_group_name_H-M  'Pm'
_cell_length_a       3.22955
_cell_length_b       5.82946
_cell_length_c       7.24741
_cell_angle_alpha    91.9752
_cell_angle_beta     90
_cell_angle_gamma    90

_symmetry_Int_Tables_number  6
_chemical_formula_structural  SrEr2O4
_chemical_formula_sum  SrEr2O4
_cell_volume  136.36249520855435
_cell_formula_units_Z  1
loop_
  _symmetry_equiv_pos_site_id
 _symmetry_equiv_pos_as_xyz
 1  'x, y, z'
loop_
 _atom_site_type_symbol
 _atom_site_label
 _atom_site_symmetry_multiplicity
 _atom_site_fract_x
 _atom_site_fract_y
 _atom_site_fract_z
 _atom_site_fract_occupancy
 Er  Er1  1  0.75000  0.55088  0.35477  1
 Er  Er2  1  0.75000  0.04120  0.13985  1
 O  O1  1  0.25000  0.82233  0.25676  1
 O  O2  1  0.25000  0.32316  0.15425  1
 O  O3  1  0.25000  0.49202  0.53835  1
 O  O4  1  0.75000  0.86219  0.89590  1
 Sr  Sr1  1  0.25000  0.58144  0.85673  1
