CIF file written using JARVIS-Tools package.
data_CeSi3Rh
_symmetry_space_group_name_H-M  'I4mm'
_cell_length_a       4.25195
_cell_length_b       4.25195
_cell_length_c       5.73678
_cell_angle_alpha    111.752
_cell_angle_beta     111.752
_cell_angle_gamma    90

_symmetry_Int_Tables_number  107
_chemical_formula_structural  CeSi3Rh
_chemical_formula_sum  CeSi3Rh
_cell_volume  88.33069955896636
_cell_formula_units_Z  1
loop_
  _symmetry_equiv_pos_site_id
 _symmetry_equiv_pos_as_xyz
 1  'x, y, z'
loop_
 _atom_site_type_symbol
 _atom_site_label
 _atom_site_symmetry_multiplicity
 _atom_site_fract_x
 _atom_site_fract_y
 _atom_site_fract_z
 _atom_site_fract_occupancy
 Ce  Ce1  1  0.00032  0.00032  0.00064  1
 Rh  Rh1  1  0.65852  0.65852  0.31704  1
 Si  Si1  1  0.41722  0.41722  0.83445  1
 Si  Si2  1  0.76647  0.26647  0.53293  1
 Si  Si3  1  0.26647  0.76647  0.53293  1
