CIF file written using JARVIS-Tools package.
data_Dy2InNi2
_symmetry_space_group_name_H-M  'Cmmm'
_cell_length_a       3.64819
_cell_length_b       3.89812
_cell_length_c       7.37464
_cell_angle_alpha    105.325
_cell_angle_beta     90
_cell_angle_gamma    90

_symmetry_Int_Tables_number  65
_chemical_formula_structural  Dy2InNi2
_chemical_formula_sum  Dy2InNi2
_cell_volume  101.14643309814126
_cell_formula_units_Z  1
loop_
  _symmetry_equiv_pos_site_id
 _symmetry_equiv_pos_as_xyz
 1  'x, y, z'
loop_
 _atom_site_type_symbol
 _atom_site_label
 _atom_site_symmetry_multiplicity
 _atom_site_fract_x
 _atom_site_fract_y
 _atom_site_fract_z
 _atom_site_fract_occupancy
 Dy  Dy1  1  0.50000  0.63823  0.27645  1
 Dy  Dy2  1  0.50000  0.36177  0.72355  1
 In  In1  1  0.00000  0.00000  0.00000  1
 Ni  Ni1  1  0.00000  0.80151  0.60302  1
 Ni  Ni2  1  0.00000  0.19849  0.39698  1
