CIF file written using JARVIS-Tools package.
data_Ba2CoF6
_symmetry_space_group_name_H-M  'I4/mmm'
_cell_length_a       4.13945
_cell_length_b       4.13946
_cell_length_c       8.55517
_cell_angle_alpha    104
_cell_angle_beta     104
_cell_angle_gamma    89.9999

_symmetry_Int_Tables_number  139
_chemical_formula_structural  Ba2CoF6
_chemical_formula_sum  Ba2CoF6
_cell_volume  137.7467418828067
_cell_formula_units_Z  1
loop_
  _symmetry_equiv_pos_site_id
 _symmetry_equiv_pos_as_xyz
 1  'x, y, z'
loop_
 _atom_site_type_symbol
 _atom_site_label
 _atom_site_symmetry_multiplicity
 _atom_site_fract_x
 _atom_site_fract_y
 _atom_site_fract_z
 _atom_site_fract_occupancy
 Ba  Ba1  1  0.14969  0.14969  0.29939  1
 Ba  Ba2  1  0.85031  0.85031  0.70061  1
 Co  Co1  1  0.50000  0.50000  0.00000  1
 F  F1  1  0.62199  0.62199  0.24397  1
 F  F2  1  0.75000  0.25000  0.50000  1
 F  F3  1  0.00000  0.50000  0.00000  1
 F  F4  1  0.50000  0.00000  0.00000  1
 F  F5  1  0.25000  0.75000  0.50000  1
 F  F6  1  0.37801  0.37801  0.75603  1
