CIF file written using JARVIS-Tools package.
data_NaSrP
_symmetry_space_group_name_H-M  'P-62m'
_cell_length_a       7.6584
_cell_length_b       7.6584
_cell_length_c       4.48319
_cell_angle_alpha    90
_cell_angle_beta     90
_cell_angle_gamma    120

_symmetry_Int_Tables_number  189
_chemical_formula_structural  NaSrP
_chemical_formula_sum  Na3Sr3P3
_cell_volume  227.7166328923946
_cell_formula_units_Z  3
loop_
  _symmetry_equiv_pos_site_id
 _symmetry_equiv_pos_as_xyz
 1  'x, y, z'
loop_
 _atom_site_type_symbol
 _atom_site_label
 _atom_site_symmetry_multiplicity
 _atom_site_fract_x
 _atom_site_fract_y
 _atom_site_fract_z
 _atom_site_fract_occupancy
 Na  Na1  1  0.00000  0.75780  0.00000  1
 Na  Na2  1  0.75780  0.00000  0.00000  1
 Na  Na3  1  0.24220  0.24220  0.00000  1
 P  P1  1  0.33333  0.66667  0.00000  1
 P  P2  1  0.00000  0.00000  0.50000  1
 P  P3  1  0.66667  0.33333  0.00000  1
 Sr  Sr1  1  0.58542  0.58542  0.50000  1
 Sr  Sr2  1  -0.00000  0.41458  0.50000  1
 Sr  Sr3  1  0.41458  -0.00000  0.50000  1
