CIF file written using JARVIS-Tools package.
data_Nd2FeCo3Si4
_symmetry_space_group_name_H-M  'P-4m2'
_cell_length_a       3.97795
_cell_length_b       3.97795
_cell_length_c       9.92568
_cell_angle_alpha    90
_cell_angle_beta     90
_cell_angle_gamma    90

_symmetry_Int_Tables_number  115
_chemical_formula_structural  Nd2FeCo3Si4
_chemical_formula_sum  Nd2FeCo3Si4
_cell_volume  157.06489848576592
_cell_formula_units_Z  1
loop_
  _symmetry_equiv_pos_site_id
 _symmetry_equiv_pos_as_xyz
 1  'x, y, z'
loop_
 _atom_site_type_symbol
 _atom_site_label
 _atom_site_symmetry_multiplicity
 _atom_site_fract_x
 _atom_site_fract_y
 _atom_site_fract_z
 _atom_site_fract_occupancy
 Co  Co1  1  0.00000  0.00000  0.50000  1
 Co  Co2  1  0.00000  0.00000  0.00000  1
 Co  Co3  1  0.50000  0.50000  0.50000  1
 Fe  Fe1  1  0.50000  0.50000  0.00000  1
 Nd  Nd1  1  0.50000  0.00000  0.75139  1
 Nd  Nd2  1  0.00000  0.50000  0.24861  1
 Si  Si1  1  0.00000  0.50000  0.88685  1
 Si  Si2  1  0.50000  0.00000  0.38421  1
 Si  Si3  1  0.50000  0.00000  0.11315  1
 Si  Si4  1  0.00000  0.50000  0.61579  1
