CIF file written using JARVIS-Tools package.
data_EuCo2SiGe
_symmetry_space_group_name_H-M  'I4mm'
_cell_length_a       5.72564
_cell_length_b       5.72564
_cell_length_c       5.72564
_cell_angle_alpha    139.612
_cell_angle_beta     139.612
_cell_angle_gamma    58.4436

_symmetry_Int_Tables_number  107
_chemical_formula_structural  EuCo2SiGe
_chemical_formula_sum  EuCo2SiGe
_cell_volume  78.08482625887774
_cell_formula_units_Z  1
loop_
  _symmetry_equiv_pos_site_id
 _symmetry_equiv_pos_as_xyz
 1  'x, y, z'
loop_
 _atom_site_type_symbol
 _atom_site_label
 _atom_site_symmetry_multiplicity
 _atom_site_fract_x
 _atom_site_fract_y
 _atom_site_fract_z
 _atom_site_fract_occupancy
 Co  Co1  1  0.75466  0.25466  0.50000  1
 Co  Co2  1  0.25466  0.75466  0.50000  1
 Eu  Eu1  1  0.99856  0.99856  -0.00000  1
 Ge  Ge1  1  0.62620  0.62620  -0.00000  1
 Si  Si1  1  0.36591  0.36591  0.00000  1
