CIF file written using JARVIS-Tools package.
data_TbFeO3
_symmetry_space_group_name_H-M  'Pnma'
_cell_length_a       5.15264
_cell_length_b       5.53902
_cell_length_c       7.39616
_cell_angle_alpha    90
_cell_angle_beta     90
_cell_angle_gamma    90

_symmetry_Int_Tables_number  62
_chemical_formula_structural  TbFeO3
_chemical_formula_sum  Tb4Fe4O2
_cell_volume  211.0903751108685
_cell_formula_units_Z  4
loop_
  _symmetry_equiv_pos_site_id
 _symmetry_equiv_pos_as_xyz
 1  'x, y, z'
loop_
 _atom_site_type_symbol
 _atom_site_label
 _atom_site_symmetry_multiplicity
 _atom_site_fract_x
 _atom_site_fract_y
 _atom_site_fract_z
 _atom_site_fract_occupancy
 Fe  Fe1  1  0.50000  0.00000  0.00000  1
 Fe  Fe2  1  0.00000  0.50000  0.00000  1
 Fe  Fe3  1  0.00000  0.50000  0.50000  1
 Fe  Fe4  1  0.50000  0.00000  0.50000  1
 O  O1  1  0.40347  0.97397  0.25000  1
 O  O2  1  0.19184  0.19909  0.54837  1
 O  O3  1  0.80816  0.80091  0.04837  1
 O  O4  1  0.30816  0.69909  0.95163  1
 O  O5  1  0.30816  0.69909  0.54837  1
 O  O6  1  0.80816  0.80091  0.45163  1
 O  O7  1  0.19184  0.19909  0.95163  1
 O  O8  1  0.59653  0.02603  0.75000  1
 O  O9  1  0.69184  0.30091  0.45163  1
 O  O10  1  0.09653  0.47397  0.25000  1
 O  O11  1  0.90347  0.52603  0.75000  1
 O  O12  1  0.69184  0.30091  0.04837  1
 Tb  Tb1  1  0.47902  0.42715  0.75000  1
 Tb  Tb2  1  0.02098  0.92715  0.75000  1
 Tb  Tb3  1  0.52098  0.57285  0.25000  1
 Tb  Tb4  1  0.97902  0.07285  0.25000  1
