CIF file written using JARVIS-Tools package.
data_CePt2Au3
_symmetry_space_group_name_H-M  'Imm2'
_cell_length_a       5.45356
_cell_length_b       5.45356
_cell_length_c       5.45355
_cell_angle_alpha    119.795
_cell_angle_beta     119.303
_cell_angle_gamma    90.7831

_symmetry_Int_Tables_number  44
_chemical_formula_structural  CePt2Au3
_chemical_formula_sum  CePt2Au3
_cell_volume  115.45652592764915
_cell_formula_units_Z  1
loop_
  _symmetry_equiv_pos_site_id
 _symmetry_equiv_pos_as_xyz
 1  'x, y, z'
loop_
 _atom_site_type_symbol
 _atom_site_label
 _atom_site_symmetry_multiplicity
 _atom_site_fract_x
 _atom_site_fract_y
 _atom_site_fract_z
 _atom_site_fract_occupancy
 Au  Au1  1  0.62303  0.87195  0.24892  1
 Au  Au2  1  0.62303  0.37411  0.75108  1
 Au  Au3  1  0.24853  0.74853  0.50000  1
 Ce  Ce1  1  0.00750  0.00750  0.00000  1
 Pt  Pt1  1  0.12448  0.37395  0.75053  1
 Pt  Pt2  1  0.62343  0.37395  0.24947  1
