CIF file written using JARVIS-Tools package.
data_Er2AlNi2
_symmetry_space_group_name_H-M  'Immm'
_cell_length_a       4.13175
_cell_length_b       5.38422
_cell_length_c       5.3182
_cell_angle_alpha    120.412
_cell_angle_beta     112.858
_cell_angle_gamma    90

_symmetry_Int_Tables_number  71
_chemical_formula_structural  Er2AlNi2
_chemical_formula_sum  Er2AlNi2
_cell_volume  91.09547923846388
_cell_formula_units_Z  1
loop_
  _symmetry_equiv_pos_site_id
 _symmetry_equiv_pos_as_xyz
 1  'x, y, z'
loop_
 _atom_site_type_symbol
 _atom_site_label
 _atom_site_symmetry_multiplicity
 _atom_site_fract_x
 _atom_site_fract_y
 _atom_site_fract_z
 _atom_site_fract_occupancy
 Al  Al1  1  0.00000  0.00000  0.00000  1
 Er  Er1  1  0.79716  0.29716  0.59433  1
 Er  Er2  1  0.20284  0.70284  0.40567  1
 Ni  Ni1  1  0.50000  0.73146  0.00000  1
 Ni  Ni2  1  0.50000  0.26854  0.00000  1
