CIF file written using JARVIS-Tools package.
data_Sc2Ti2O7
_symmetry_space_group_name_H-M  'C2/m'
_cell_length_a       5.49464
_cell_length_b       5.49464
_cell_length_c       5.2028
_cell_angle_alpha    83.9632
_cell_angle_beta     96.0368
_cell_angle_gamma    71.3562

_symmetry_Int_Tables_number  12
_chemical_formula_structural  Sc2Ti2O7
_chemical_formula_sum  Sc2Ti2O7
_cell_volume  146.3952972341453
_cell_formula_units_Z  1
loop_
  _symmetry_equiv_pos_site_id
 _symmetry_equiv_pos_as_xyz
 1  'x, y, z'
loop_
 _atom_site_type_symbol
 _atom_site_label
 _atom_site_symmetry_multiplicity
 _atom_site_fract_x
 _atom_site_fract_y
 _atom_site_fract_z
 _atom_site_fract_occupancy
 O  O1  1  0.05579  0.59746  0.20043  1
 O  O2  1  0.40254  0.94421  0.20043  1
 O  O3  1  0.43193  0.56807  0.73264  1
 O  O4  1  -0.00000  -0.00000  0.50000  1
 O  O5  1  0.56807  0.43193  0.26736  1
 O  O6  1  0.59746  0.05579  0.79957  1
 O  O7  1  0.94421  0.40254  0.79957  1
 Sc  Sc1  1  0.68746  0.68746  0.00000  1
 Sc  Sc2  1  0.31254  0.31254  0.00000  1
 Ti  Ti1  1  0.25478  0.74522  0.39579  1
 Ti  Ti2  1  0.74522  0.25478  0.60421  1
