CIF file written using JARVIS-Tools package.
data_DyAl2Si2
_symmetry_space_group_name_H-M  'P-3m1'
_cell_length_a       4.21953
_cell_length_b       4.21953
_cell_length_c       6.57939
_cell_angle_alpha    90
_cell_angle_beta     90
_cell_angle_gamma    120

_symmetry_Int_Tables_number  164
_chemical_formula_structural  DyAl2Si2
_chemical_formula_sum  DyAl2Si2
_cell_volume  101.44836172720696
_cell_formula_units_Z  1
loop_
  _symmetry_equiv_pos_site_id
 _symmetry_equiv_pos_as_xyz
 1  'x, y, z'
loop_
 _atom_site_type_symbol
 _atom_site_label
 _atom_site_symmetry_multiplicity
 _atom_site_fract_x
 _atom_site_fract_y
 _atom_site_fract_z
 _atom_site_fract_occupancy
 Al  Al1  1  0.66667  0.33333  0.64624  1
 Al  Al2  1  0.33333  0.66667  0.35376  1
 Dy  Dy1  1  0.00000  0.00000  0.00000  1
 Si  Si1  1  0.66667  0.33333  0.25901  1
 Si  Si2  1  0.33333  0.66667  0.74099  1
