CIF file written using JARVIS-Tools package.
data_USeO6
_symmetry_space_group_name_H-M  'P2_1/c'
_cell_length_a       5.42283
_cell_length_b       6.87431
_cell_length_c       13.3777
_cell_angle_alpha    104.479
_cell_angle_beta     90
_cell_angle_gamma    90

_symmetry_Int_Tables_number  14
_chemical_formula_structural  USeO6
_chemical_formula_sum  U4Se4O24
_cell_volume  482.8566921813221
_cell_formula_units_Z  4
loop_
  _symmetry_equiv_pos_site_id
 _symmetry_equiv_pos_as_xyz
 1  'x, y, z'
loop_
 _atom_site_type_symbol
 _atom_site_label
 _atom_site_symmetry_multiplicity
 _atom_site_fract_x
 _atom_site_fract_y
 _atom_site_fract_z
 _atom_site_fract_occupancy
 O  O1  1  0.98003  0.43561  0.71797  1
 O  O2  1  0.48003  0.56439  0.78203  1
 O  O3  1  0.30287  0.33966  0.38612  1
 O  O4  1  0.10307  0.26073  0.08686  1
 O  O5  1  0.39693  0.26073  0.58686  1
 O  O6  1  0.60307  0.73927  0.41314  1
 O  O7  1  0.59803  0.16059  0.77379  1
 O  O8  1  0.51997  0.43561  0.21797  1
 O  O9  1  0.01997  0.56439  0.28203  1
 O  O10  1  0.09803  0.83941  0.72621  1
 O  O11  1  0.80287  0.66034  0.11388  1
 O  O12  1  0.36158  0.97754  0.90333  1
 O  O13  1  0.86158  0.02246  0.59667  1
 O  O14  1  0.14205  0.69269  0.52017  1
 O  O15  1  0.35795  0.69269  0.02017  1
 O  O16  1  0.69713  0.66034  0.61388  1
 O  O17  1  0.64205  0.30731  0.97983  1
 O  O18  1  0.19713  0.33966  0.88612  1
 O  O19  1  0.90197  0.16059  0.27379  1
 O  O20  1  0.13842  0.97754  0.40333  1
 O  O21  1  0.85795  0.30731  0.47983  1
 O  O22  1  0.40197  0.83941  0.22621  1
 O  O23  1  0.63842  0.02246  0.09667  1
 O  O24  1  0.89693  0.73927  0.91314  1
 Se  Se1  1  0.55116  0.80180  0.11389  1
 Se  Se2  1  0.94884  0.80180  0.61389  1
 Se  Se3  1  0.44884  0.19820  0.88611  1
 Se  Se4  1  0.05116  0.19820  0.38611  1
 U  U1  1  0.30829  0.66322  0.35414  1
 U  U2  1  0.80829  0.33678  0.14586  1
 U  U3  1  0.69171  0.33678  0.64586  1
 U  U4  1  0.19171  0.66322  0.85414  1
