CIF file written using JARVIS-Tools package.
data_NbCrO4
_symmetry_space_group_name_H-M  'I-4m2'
_cell_length_a       5.54731
_cell_length_b       5.54724
_cell_length_c       5.54731
_cell_angle_alpha    138.57
_cell_angle_beta     138.57
_cell_angle_gamma    60.0299

_symmetry_Int_Tables_number  119
_chemical_formula_structural  NbCrO4
_chemical_formula_sum  NbCrO4
_cell_volume  73.97497165341393
_cell_formula_units_Z  1
loop_
  _symmetry_equiv_pos_site_id
 _symmetry_equiv_pos_as_xyz
 1  'x, y, z'
loop_
 _atom_site_type_symbol
 _atom_site_label
 _atom_site_symmetry_multiplicity
 _atom_site_fract_x
 _atom_site_fract_y
 _atom_site_fract_z
 _atom_site_fract_occupancy
 Cr  Cr1  1  0.74999  0.25000  0.50000  1
 Nb  Nb1  1  0.00001  -0.00000  0.00000  1
 O  O1  1  0.54230  0.04230  0.50000  1
 O  O2  1  0.21026  0.21026  -0.00001  1
 O  O3  1  0.95770  0.45770  0.50000  1
 O  O4  1  0.78973  0.78974  0.00000  1
