CIF file written using JARVIS-Tools package.
data_MnP2WO8
_symmetry_space_group_name_H-M  'P2_1/m'
_cell_length_a       4.90232
_cell_length_b       5.94274
_cell_length_c       9.99282
_cell_angle_alpha    90
_cell_angle_beta     91.8806
_cell_angle_gamma    90

_symmetry_Int_Tables_number  11
_chemical_formula_structural  MnP2WO8
_chemical_formula_sum  Mn2P4W2O6
_cell_volume  290.9666803568538
_cell_formula_units_Z  2
loop_
  _symmetry_equiv_pos_site_id
 _symmetry_equiv_pos_as_xyz
 1  'x, y, z'
loop_
 _atom_site_type_symbol
 _atom_site_label
 _atom_site_symmetry_multiplicity
 _atom_site_fract_x
 _atom_site_fract_y
 _atom_site_fract_z
 _atom_site_fract_occupancy
 Mn  Mn1  1  0.91915  0.25000  0.27757  1
 Mn  Mn2  1  0.08085  0.75000  0.72243  1
 O  O1  1  0.69456  0.75000  0.06658  1
 O  O2  1  0.69427  0.25000  0.10406  1
 O  O3  1  0.25228  0.04284  0.15642  1
 O  O4  1  0.30573  0.75000  0.89594  1
 O  O5  1  0.69715  0.94974  0.33478  1
 O  O6  1  0.69715  0.55026  0.33478  1
 O  O7  1  0.25228  0.45716  0.15642  1
 O  O8  1  0.17335  0.25000  0.44143  1
 O  O9  1  0.82665  0.75000  0.55857  1
 O  O10  1  0.84308  0.25000  0.62716  1
 O  O11  1  0.30285  0.05026  0.66522  1
 O  O12  1  0.30285  0.44974  0.66522  1
 O  O13  1  0.74772  0.54284  0.84358  1
 O  O14  1  0.74772  0.95716  0.84358  1
 O  O15  1  0.15692  0.75000  0.37284  1
 O  O16  1  0.30544  0.25000  0.93342  1
 P  P1  1  0.61170  0.75000  0.91689  1
 P  P2  1  0.14383  0.25000  0.59051  1
 P  P3  1  0.85617  0.75000  0.40949  1
 P  P4  1  0.38830  0.25000  0.08311  1
 W  W1  1  0.57886  0.25000  0.78008  1
 W  W2  1  0.42114  0.75000  0.21992  1
