CIF file written using JARVIS-Tools package.
data_K2S2NO7
_symmetry_space_group_name_H-M  'P-1'
_cell_length_a       7.21844
_cell_length_b       7.06002
_cell_length_c       7.49652
_cell_angle_alpha    82.1414
_cell_angle_beta     68.4959
_cell_angle_gamma    83.1612

_symmetry_Int_Tables_number  2
_chemical_formula_structural  K2S2NO7
_chemical_formula_sum  K4S4N2O4
_cell_volume  351.1222474934819
_cell_formula_units_Z  2
loop_
  _symmetry_equiv_pos_site_id
 _symmetry_equiv_pos_as_xyz
 1  'x, y, z'
loop_
 _atom_site_type_symbol
 _atom_site_label
 _atom_site_symmetry_multiplicity
 _atom_site_fract_x
 _atom_site_fract_y
 _atom_site_fract_z
 _atom_site_fract_occupancy
 K  K1  1  0.14724  0.29848  0.34138  1
 K  K2  1  0.28269  0.80295  0.92405  1
 K  K3  1  0.85276  0.70152  0.65862  1
 K  K4  1  0.71731  0.19705  0.07595  1
 N  N1  1  0.47287  0.33555  0.60725  1
 N  N2  1  0.52713  0.66445  0.39275  1
 O  O1  1  0.16048  0.17537  0.87704  1
 O  O2  1  0.60437  0.03720  0.78524  1
 O  O3  1  0.39563  0.96280  0.21476  1
 O  O4  1  0.64902  0.60811  0.03815  1
 O  O5  1  0.86108  0.48311  0.22499  1
 O  O6  1  0.78229  0.10723  0.43973  1
 O  O7  1  0.21771  0.89277  0.56027  1
 O  O8  1  0.83952  0.82463  0.12296  1
 O  O9  1  0.35098  0.39189  0.96185  1
 O  O10  1  0.13892  0.51689  0.77501  1
 O  O11  1  0.44479  0.35615  0.44880  1
 O  O12  1  0.55521  0.64385  0.55120  1
 O  O13  1  0.18954  0.69126  0.33071  1
 O  O14  1  0.81046  0.30874  0.66929  1
 S  S1  1  0.74411  0.64535  0.16933  1
 S  S2  1  0.69111  0.18147  0.62621  1
 S  S3  1  0.30889  0.81853  0.37379  1
 S  S4  1  0.25589  0.35465  0.83067  1
