CIF file written using JARVIS-Tools package.
data_CaBi2
_symmetry_space_group_name_H-M  'Cmcm'
_cell_length_a       4.59074
_cell_length_b       4.76021
_cell_length_c       8.89911
_cell_angle_alpha    105.513
_cell_angle_beta     90
_cell_angle_gamma    90

_symmetry_Int_Tables_number  63
_chemical_formula_structural  CaBi2
_chemical_formula_sum  Ca2Bi4
_cell_volume  187.38640583446062
_cell_formula_units_Z  2
loop_
  _symmetry_equiv_pos_site_id
 _symmetry_equiv_pos_as_xyz
 1  'x, y, z'
loop_
 _atom_site_type_symbol
 _atom_site_label
 _atom_site_symmetry_multiplicity
 _atom_site_fract_x
 _atom_site_fract_y
 _atom_site_fract_z
 _atom_site_fract_occupancy
 Bi  Bi1  1  0.75000  0.43441  0.86882  1
 Bi  Bi2  1  0.25000  0.56559  0.13118  1
 Bi  Bi3  1  0.75000  0.74254  0.48507  1
 Bi  Bi4  1  0.25000  0.25746  0.51493  1
 Ca  Ca1  1  0.75000  0.09920  0.19840  1
 Ca  Ca2  1  0.25000  0.90080  0.80160  1
