CIF file written using JARVIS-Tools package.
data_NbSeN
_symmetry_space_group_name_H-M  'P4/nmm'
_cell_length_a       3.68138
_cell_length_b       3.68138
_cell_length_c       6.36952
_cell_angle_alpha    90
_cell_angle_beta     90
_cell_angle_gamma    90

_symmetry_Int_Tables_number  129
_chemical_formula_structural  NbSeN
_chemical_formula_sum  Nb2Se2N2
_cell_volume  86.32344594442964
_cell_formula_units_Z  2
loop_
  _symmetry_equiv_pos_site_id
 _symmetry_equiv_pos_as_xyz
 1  'x, y, z'
loop_
 _atom_site_type_symbol
 _atom_site_label
 _atom_site_symmetry_multiplicity
 _atom_site_fract_x
 _atom_site_fract_y
 _atom_site_fract_z
 _atom_site_fract_occupancy
 N  N1  1  0.50000  0.50000  0.00000  1
 N  N2  1  0.00000  0.00000  0.00000  1
 Nb  Nb1  1  0.50000  0.00000  0.17348  1
 Nb  Nb2  1  0.00000  0.50000  0.82652  1
 Se  Se1  1  0.50000  0.00000  0.62055  1
 Se  Se2  1  0.00000  0.50000  0.37945  1
