CIF file written using JARVIS-Tools package.
data_Li5Ti2Cu3O10
_symmetry_space_group_name_H-M  'P-1'
_cell_length_a       5.06339
_cell_length_b       5.53734
_cell_length_c       7.57815
_cell_angle_alpha    102.633
_cell_angle_beta     103.289
_cell_angle_gamma    106.211

_symmetry_Int_Tables_number  2
_chemical_formula_structural  Li5Ti2Cu3O10
_chemical_formula_sum  Li5Ti2Cu3O0
_cell_volume  189.2482909342566
_cell_formula_units_Z  1
loop_
  _symmetry_equiv_pos_site_id
 _symmetry_equiv_pos_as_xyz
 1  'x, y, z'
loop_
 _atom_site_type_symbol
 _atom_site_label
 _atom_site_symmetry_multiplicity
 _atom_site_fract_x
 _atom_site_fract_y
 _atom_site_fract_z
 _atom_site_fract_occupancy
 Cu  Cu1  1  -0.00000  0.50000  0.00000  1
 Cu  Cu2  1  0.30117  0.11281  0.10028  1
 Cu  Cu3  1  0.69883  0.88719  0.89972  1
 Li  Li1  1  0.78556  0.12113  0.61855  1
 Li  Li2  1  0.21444  0.87887  0.38145  1
 Li  Li3  1  0.50000  0.50000  0.50000  1
 Li  Li4  1  0.40184  0.31828  0.80031  1
 Li  Li5  1  0.59816  0.68172  0.19969  1
 O  O1  1  0.87049  0.66786  0.45104  1
 O  O2  1  0.64887  0.32772  0.06609  1
 O  O3  1  0.06169  0.03184  0.83862  1
 O  O4  1  0.35113  0.67228  0.93391  1
 O  O5  1  0.12951  0.33214  0.54896  1
 O  O6  1  0.22049  0.52772  0.24582  1
 O  O7  1  0.46094  0.87279  0.66040  1
 O  O8  1  0.53906  0.12721  0.33960  1
 O  O9  1  0.77951  0.47228  0.75418  1
 O  O10  1  0.93831  0.96816  0.16138  1
 Ti  Ti1  1  0.09621  0.69842  0.69145  1
 Ti  Ti2  1  0.90379  0.30158  0.30855  1
