CIF file written using JARVIS-Tools package.
data_SmSiPt
_symmetry_space_group_name_H-M  'I4_1md'
_cell_length_a       4.17273
_cell_length_b       4.17273
_cell_length_c       7.81346
_cell_angle_alpha    105.487
_cell_angle_beta     105.487
_cell_angle_gamma    90

_symmetry_Int_Tables_number  109
_chemical_formula_structural  SmSiPt
_chemical_formula_sum  Sm2Si2Pt2
_cell_volume  125.97266316863771
_cell_formula_units_Z  2
loop_
  _symmetry_equiv_pos_site_id
 _symmetry_equiv_pos_as_xyz
 1  'x, y, z'
loop_
 _atom_site_type_symbol
 _atom_site_label
 _atom_site_symmetry_multiplicity
 _atom_site_fract_x
 _atom_site_fract_y
 _atom_site_fract_z
 _atom_site_fract_occupancy
 Pt  Pt1  1  0.66535  0.16535  0.33070  1
 Pt  Pt2  1  0.41535  0.41535  0.83070  1
 Si  Si1  1  0.83256  0.33256  0.66512  1
 Si  Si2  1  0.58256  0.58256  0.16512  1
 Sm  Sm1  1  0.25209  0.75209  0.50419  1
 Sm  Sm2  1  0.00209  0.00209  0.00419  1
