CIF file written using JARVIS-Tools package.
data_RbTh3F13
_symmetry_space_group_name_H-M  'Pmc2_1'
_cell_length_a       7.47916
_cell_length_b       8.19706
_cell_length_c       8.69962
_cell_angle_alpha    90
_cell_angle_beta     90
_cell_angle_gamma    90

_symmetry_Int_Tables_number  26
_chemical_formula_structural  RbTh3F13
_chemical_formula_sum  Rb2Th6F26
_cell_volume  533.3481430126253
_cell_formula_units_Z  2
loop_
  _symmetry_equiv_pos_site_id
 _symmetry_equiv_pos_as_xyz
 1  'x, y, z'
loop_
 _atom_site_type_symbol
 _atom_site_label
 _atom_site_symmetry_multiplicity
 _atom_site_fract_x
 _atom_site_fract_y
 _atom_site_fract_z
 _atom_site_fract_occupancy
 F  F1  1  0.59692  0.00000  0.53933  1
 F  F2  1  0.69708  0.82620  0.13705  1
 F  F3  1  0.56515  0.50000  0.15072  1
 F  F4  1  0.11590  0.80428  0.04245  1
 F  F5  1  0.82452  0.74327  0.85745  1
 F  F6  1  0.36288  0.00000  0.32048  1
 F  F7  1  0.03101  0.00000  0.76322  1
 F  F8  1  0.88410  0.19572  0.54245  1
 F  F9  1  0.43485  0.50000  0.65072  1
 F  F10  1  0.54775  0.30524  0.40271  1
 F  F11  1  0.45225  0.69476  0.90271  1
 F  F12  1  0.77229  0.50000  0.63217  1
 F  F13  1  0.96899  0.00000  0.26322  1
 F  F14  1  0.54775  0.69476  0.40271  1
 F  F15  1  0.30292  0.17380  0.63705  1
 F  F16  1  0.11590  0.19572  0.04245  1
 F  F17  1  0.88410  0.80428  0.54245  1
 F  F18  1  0.63712  0.00000  0.82048  1
 F  F19  1  0.69708  0.17380  0.13705  1
 F  F20  1  0.40308  0.00000  0.03933  1
 F  F21  1  0.17548  0.25673  0.35745  1
 F  F22  1  0.17548  0.74327  0.35745  1
 F  F23  1  0.82452  0.25673  0.85745  1
 F  F24  1  0.22771  0.50000  0.13217  1
 F  F25  1  0.30292  0.82620  0.63705  1
 F  F26  1  0.45225  0.30524  0.90271  1
 Rb  Rb1  1  0.10513  0.50000  0.80638  1
 Rb  Rb2  1  0.89487  0.50000  0.30638  1
 Th  Th1  1  0.39760  0.74675  0.16513  1
 Th  Th2  1  0.60240  0.74675  0.66513  1
 Th  Th3  1  0.60240  0.25325  0.66513  1
 Th  Th4  1  0.10821  0.00000  0.49961  1
 Th  Th5  1  0.39760  0.25325  0.16513  1
 Th  Th6  1  0.89179  0.00000  0.99961  1
