CIF file written using JARVIS-Tools package.
data_EuGa4Au3
_symmetry_space_group_name_H-M  'P4/mmm'
_cell_length_a       4.20293
_cell_length_b       4.20293
_cell_length_c       9.13828
_cell_angle_alpha    90
_cell_angle_beta     90
_cell_angle_gamma    90

_symmetry_Int_Tables_number  123
_chemical_formula_structural  EuGa4Au3
_chemical_formula_sum  EuGa4Au3
_cell_volume  161.42410692127345
_cell_formula_units_Z  1
loop_
  _symmetry_equiv_pos_site_id
 _symmetry_equiv_pos_as_xyz
 1  'x, y, z'
loop_
 _atom_site_type_symbol
 _atom_site_label
 _atom_site_symmetry_multiplicity
 _atom_site_fract_x
 _atom_site_fract_y
 _atom_site_fract_z
 _atom_site_fract_occupancy
 Au  Au1  1  0.50000  0.50000  0.35230  1
 Au  Au2  1  0.50000  0.50000  0.64770  1
 Au  Au3  1  0.00000  0.00000  0.00000  1
 Eu  Eu1  1  0.00000  0.00000  0.50000  1
 Ga  Ga1  1  0.00000  0.50000  0.17801  1
 Ga  Ga2  1  0.00000  0.50000  0.82199  1
 Ga  Ga3  1  0.50000  0.00000  0.17801  1
 Ga  Ga4  1  0.50000  0.00000  0.82199  1
