CIF file written using JARVIS-Tools package.
data_Th2Au
_symmetry_space_group_name_H-M  'I4/mcm'
_cell_length_a       6.06966
_cell_length_b       6.09893
_cell_length_c       6.09893
_cell_angle_alpha    75.6641
_cell_angle_beta     60.1586
_cell_angle_gamma    60.1586

_symmetry_Int_Tables_number  140
_chemical_formula_structural  Th2Au
_chemical_formula_sum  Th4Au2
_cell_volume  169.8700365307724
_cell_formula_units_Z  2
loop_
  _symmetry_equiv_pos_site_id
 _symmetry_equiv_pos_as_xyz
 1  'x, y, z'
loop_
 _atom_site_type_symbol
 _atom_site_label
 _atom_site_symmetry_multiplicity
 _atom_site_fract_x
 _atom_site_fract_y
 _atom_site_fract_z
 _atom_site_fract_occupancy
 Au  Au1  1  0.75000  0.00000  0.00000  1
 Au  Au2  1  0.25000  0.00000  0.00000  1
 Th  Th1  1  0.34190  0.50000  0.81619  1
 Th  Th2  1  0.65810  0.50000  0.18381  1
 Th  Th3  1  0.84190  0.81619  0.50000  1
 Th  Th4  1  0.15810  0.18381  0.50000  1
