CIF file written using JARVIS-Tools package.
data_Te4MoW
_symmetry_space_group_name_H-M  'P3m1'
_cell_length_a       3.56902
_cell_length_b       3.569
_cell_length_c       38.0323
_cell_angle_alpha    90.0007
_cell_angle_beta     90
_cell_angle_gamma    120

_symmetry_Int_Tables_number  156
_chemical_formula_structural  Te4MoW
_chemical_formula_sum  Te8Mo2W2
_cell_volume  419.5434267637405
_cell_formula_units_Z  2
loop_
  _symmetry_equiv_pos_site_id
 _symmetry_equiv_pos_as_xyz
 1  'x, y, z'
loop_
 _atom_site_type_symbol
 _atom_site_label
 _atom_site_symmetry_multiplicity
 _atom_site_fract_x
 _atom_site_fract_y
 _atom_site_fract_z
 _atom_site_fract_occupancy
 Mo  Mo1  1  0.33332  0.66663  0.09464  1
 Mo  Mo2  1  0.66667  0.33334  0.28190  1
 Te  Te1  1  0.33335  0.66669  0.32954  1
 Te  Te2  1  0.33336  0.66671  0.70478  1
 Te  Te3  1  0.66665  0.33331  0.04707  1
 Te  Te4  1  0.66665  0.33330  0.42151  1
 Te  Te5  1  0.66665  0.33329  0.14230  1
 Te  Te6  1  0.66667  0.33334  0.51712  1
 Te  Te7  1  0.33332  0.66665  0.23426  1
 Te  Te8  1  0.33336  0.66671  0.60924  1
 W  W1  1  0.33332  0.66665  0.46932  1
 W  W2  1  0.66669  0.33338  0.65705  1
