CIF file written using JARVIS-Tools package.
data_La2MgTiO6
_symmetry_space_group_name_H-M  'P2_1/c'
_cell_length_a       5.57646
_cell_length_b       5.61664
_cell_length_c       7.89271
_cell_angle_alpha    90
_cell_angle_beta     90.0764
_cell_angle_gamma    90

_symmetry_Int_Tables_number  14
_chemical_formula_structural  La2MgTiO6
_chemical_formula_sum  La4Mg2Ti2O2
_cell_volume  247.20731162547986
_cell_formula_units_Z  2
loop_
  _symmetry_equiv_pos_site_id
 _symmetry_equiv_pos_as_xyz
 1  'x, y, z'
loop_
 _atom_site_type_symbol
 _atom_site_label
 _atom_site_symmetry_multiplicity
 _atom_site_fract_x
 _atom_site_fract_y
 _atom_site_fract_z
 _atom_site_fract_occupancy
 La  La1  1  0.99316  0.03555  0.24912  1
 La  La2  1  0.00684  0.96445  0.75088  1
 La  La3  1  0.49316  0.46445  0.74912  1
 La  La4  1  0.50684  0.53555  0.25088  1
 Mg  Mg1  1  0.50000  0.00000  0.50000  1
 Mg  Mg2  1  0.00000  0.50000  0.00000  1
 O  O1  1  0.57909  0.01843  0.75643  1
 O  O2  1  0.07909  0.48157  0.25643  1
 O  O3  1  0.42091  0.98157  0.24357  1
 O  O4  1  0.70613  0.28136  0.04297  1
 O  O5  1  0.79387  0.78136  0.45703  1
 O  O6  1  0.29387  0.71864  0.95703  1
 O  O7  1  0.77979  0.79328  0.04111  1
 O  O8  1  0.92091  0.51843  0.74357  1
 O  O9  1  0.22021  0.20672  0.95889  1
 O  O10  1  0.72021  0.29328  0.45889  1
 O  O11  1  0.20613  0.21864  0.54297  1
 O  O12  1  0.27979  0.70672  0.54111  1
 Ti  Ti1  1  0.50000  0.00000  0.00000  1
 Ti  Ti2  1  -0.00000  0.50000  0.50000  1
