CIF file written using JARVIS-Tools package.
data_TmGeAu
_symmetry_space_group_name_H-M  'P6_3mc'
_cell_length_a       4.43619
_cell_length_b       4.43619
_cell_length_c       7.20432
_cell_angle_alpha    90
_cell_angle_beta     90
_cell_angle_gamma    119.998

_symmetry_Int_Tables_number  186
_chemical_formula_structural  TmGeAu
_chemical_formula_sum  Tm2Ge2Au2
_cell_volume  122.78704331581086
_cell_formula_units_Z  2
loop_
  _symmetry_equiv_pos_site_id
 _symmetry_equiv_pos_as_xyz
 1  'x, y, z'
loop_
 _atom_site_type_symbol
 _atom_site_label
 _atom_site_symmetry_multiplicity
 _atom_site_fract_x
 _atom_site_fract_y
 _atom_site_fract_z
 _atom_site_fract_occupancy
 Au  Au1  1  0.33334  0.66666  0.20300  1
 Au  Au2  1  0.66666  0.33334  0.70300  1
 Ge  Ge1  1  0.33334  0.66666  0.79441  1
 Ge  Ge2  1  0.66666  0.33334  0.29441  1
 Tm  Tm1  1  0.99998  0.00002  0.50059  1
 Tm  Tm2  1  0.00002  0.99998  0.00059  1
