CIF file written using JARVIS-Tools package.
data_BeSO4
_symmetry_space_group_name_H-M  'I-4'
_cell_length_a       4.48064
_cell_length_b       4.48064
_cell_length_c       4.70965
_cell_angle_alpha    118.404
_cell_angle_beta     118.404
_cell_angle_gamma    90

_symmetry_Int_Tables_number  82
_chemical_formula_structural  BeSO4
_chemical_formula_sum  BeSO4
_cell_volume  69.95805674373575
_cell_formula_units_Z  1
loop_
  _symmetry_equiv_pos_site_id
 _symmetry_equiv_pos_as_xyz
 1  'x, y, z'
loop_
 _atom_site_type_symbol
 _atom_site_label
 _atom_site_symmetry_multiplicity
 _atom_site_fract_x
 _atom_site_fract_y
 _atom_site_fract_z
 _atom_site_fract_occupancy
 Be  Be1  1  0.25000  0.75000  0.50000  1
 O  O1  1  0.25988  0.35244  0.23888  1
 O  O2  1  0.11356  0.74012  0.76112  1
 O  O3  1  0.64756  0.02100  0.76112  1
 O  O4  1  0.97900  0.88644  0.23888  1
 S  S1  1  0.00000  0.00000  0.00000  1
