CIF file written using JARVIS-Tools package.
data_Bi10Mo3O24
_symmetry_space_group_name_H-M  'C2'
_cell_length_a       5.69269
_cell_length_b       8.72027
_cell_length_c       12.2437
_cell_angle_alpha    95.3032
_cell_angle_beta     103.442
_cell_angle_gamma    90.0004

_symmetry_Int_Tables_number  5
_chemical_formula_structural  Bi10Mo3O24
_chemical_formula_sum  Bi0Mo3O24
_cell_volume  588.4739655471393
_cell_formula_units_Z  1
loop_
  _symmetry_equiv_pos_site_id
 _symmetry_equiv_pos_as_xyz
 1  'x, y, z'
loop_
 _atom_site_type_symbol
 _atom_site_label
 _atom_site_symmetry_multiplicity
 _atom_site_fract_x
 _atom_site_fract_y
 _atom_site_fract_z
 _atom_site_fract_occupancy
 Bi  Bi1  1  0.47520  0.67763  0.92517  1
 Bi  Bi2  1  0.77473  0.54593  0.38663  1
 Bi  Bi3  1  0.55003  0.32237  0.07483  1
 Bi  Bi4  1  0.27294  0.81767  0.47544  1
 Bi  Bi5  1  0.08941  0.59488  0.15087  1
 Bi  Bi6  1  0.38810  0.45407  0.61337  1
 Bi  Bi7  1  0.17599  0.24925  0.29748  1
 Bi  Bi8  1  0.93855  0.40512  0.84913  1
 Bi  Bi9  1  0.87852  0.75074  0.70252  1
 Bi  Bi10  1  0.79751  0.18234  0.52456  1
 Mo  Mo1  1  0.43126  0.07256  0.75174  1
 Mo  Mo2  1  -0.00332  -0.00000  -0.00000  1
 Mo  Mo3  1  0.67952  0.92744  0.24827  1
 O  O1  1  0.75750  0.34988  0.65423  1
 O  O2  1  0.96021  0.99615  0.34249  1
 O  O3  1  0.10325  0.65014  0.34576  1
 O  O4  1  0.87523  0.06418  0.11867  1
 O  O5  1  0.29561  0.50000  -0.00000  1
 O  O6  1  0.61773  0.00387  0.65750  1
 O  O7  1  0.78137  0.50000  0.00000  1
 O  O8  1  0.18237  0.83854  0.02947  1
 O  O9  1  0.47864  0.08209  0.21146  1
 O  O10  1  0.26720  0.91790  0.78854  1
 O  O11  1  0.54364  0.65179  0.55093  1
 O  O12  1  0.75657  0.93581  0.88132  1
 O  O13  1  0.14784  0.58755  0.78737  1
 O  O14  1  0.54452  0.83076  0.34269  1
 O  O15  1  0.70456  0.77464  0.14381  1
 O  O16  1  0.36047  0.41245  0.21264  1
 O  O17  1  0.20183  0.16925  0.65732  1
 O  O18  1  0.86842  0.41975  0.21800  1
 O  O19  1  0.47572  0.31258  0.44869  1
 O  O20  1  0.65043  0.58025  0.78200  1
 O  O21  1  0.02704  0.68740  0.55131  1
 O  O22  1  0.15292  0.16145  0.97053  1
 O  O23  1  0.56077  0.22535  0.85620  1
 O  O24  1  0.99271  0.34821  0.44907  1
