CIF file written using JARVIS-Tools package.
data_CuBr2N2
_symmetry_space_group_name_H-M  'C2/m'
_cell_length_a       3.8802
_cell_length_b       5.09984
_cell_length_c       5.09984
_cell_angle_alpha    94.1359
_cell_angle_beta     90.8939
_cell_angle_gamma    90.8939

_symmetry_Int_Tables_number  12
_chemical_formula_structural  CuBr2N2
_chemical_formula_sum  CuBr2N2
_cell_volume  100.62837914283539
_cell_formula_units_Z  1
loop_
  _symmetry_equiv_pos_site_id
 _symmetry_equiv_pos_as_xyz
 1  'x, y, z'
loop_
 _atom_site_type_symbol
 _atom_site_label
 _atom_site_symmetry_multiplicity
 _atom_site_fract_x
 _atom_site_fract_y
 _atom_site_fract_z
 _atom_site_fract_occupancy
 Br  Br1  1  0.63361  0.26560  0.26560  1
 Br  Br2  1  0.36639  0.73440  0.73440  1
 Cu  Cu1  1  0.00000  0.00000  0.00000  1
 N  N1  1  -0.00000  0.25196  0.74804  1
 N  N2  1  -0.00000  0.74804  0.25196  1
