CIF file written using JARVIS-Tools package.
data_Na3AlP3NO9
_symmetry_space_group_name_H-M  'P2_13'
_cell_length_a       9.31197
_cell_length_b       9.31197
_cell_length_c       9.31197
_cell_angle_alpha    90
_cell_angle_beta     90
_cell_angle_gamma    90

_symmetry_Int_Tables_number  198
_chemical_formula_structural  Na3AlP3NO9
_chemical_formula_sum  Na2Al4P2N4O36
_cell_volume  807.4657588643283
_cell_formula_units_Z  4
loop_
  _symmetry_equiv_pos_site_id
 _symmetry_equiv_pos_as_xyz
 1  'x, y, z'
loop_
 _atom_site_type_symbol
 _atom_site_label
 _atom_site_symmetry_multiplicity
 _atom_site_fract_x
 _atom_site_fract_y
 _atom_site_fract_z
 _atom_site_fract_occupancy
 Al  Al1  1  0.83117  0.33117  0.16883  1
 Al  Al2  1  0.33117  0.16883  0.83117  1
 Al  Al3  1  0.66883  0.66883  0.66883  1
 Al  Al4  1  0.16883  0.83117  0.33117  1
 N  N1  1  0.44255  0.94255  0.55745  1
 N  N2  1  0.05745  0.05745  0.05745  1
 N  N3  1  0.55745  0.44255  0.94255  1
 N  N4  1  0.94255  0.55745  0.44255  1
 Na  Na1  1  0.85804  0.85804  0.85804  1
 Na  Na2  1  0.73711  0.26289  0.76289  1
 Na  Na3  1  0.26289  0.76289  0.73711  1
 Na  Na4  1  0.45190  0.45190  0.45190  1
 Na  Na5  1  0.23711  0.23711  0.23711  1
 Na  Na6  1  0.14196  0.35804  0.64196  1
 Na  Na7  1  0.76289  0.73711  0.26289  1
 Na  Na8  1  0.64196  0.14196  0.35804  1
 Na  Na9  1  0.54810  0.95190  0.04810  1
 Na  Na10  1  0.95190  0.04810  0.54810  1
 Na  Na11  1  0.04810  0.54810  0.95190  1
 Na  Na12  1  0.35804  0.64196  0.14196  1
 O  O1  1  0.35144  0.75080  0.37883  1
 O  O2  1  0.80018  0.94023  0.08657  1
 O  O3  1  0.85144  0.74920  0.62117  1
 O  O4  1  0.62117  0.85144  0.74920  1
 O  O5  1  0.09725  0.78169  0.51620  1
 O  O6  1  0.59725  0.71831  0.48380  1
 O  O7  1  0.51620  0.09725  0.78169  1
 O  O8  1  0.48380  0.59725  0.71831  1
 O  O9  1  0.90275  0.28169  0.98380  1
 O  O10  1  0.01620  0.40275  0.21831  1
 O  O11  1  0.28169  0.98380  0.90275  1
 O  O12  1  0.41343  0.19982  0.44023  1
 O  O13  1  0.08657  0.80018  0.94023  1
 O  O14  1  0.44023  0.41343  0.19982  1
 O  O15  1  0.87883  0.14856  0.24920  1
 O  O16  1  0.58657  0.69982  0.05977  1
 O  O17  1  0.40275  0.21831  0.01620  1
 O  O18  1  0.21831  0.01620  0.40275  1
 O  O19  1  0.24920  0.87883  0.14856  1
 O  O20  1  0.74920  0.62117  0.85144  1
 O  O21  1  0.75080  0.37883  0.35144  1
 O  O22  1  0.78169  0.51620  0.09725  1
 O  O23  1  0.91343  0.30018  0.55977  1
 O  O24  1  0.14856  0.24920  0.87883  1
 O  O25  1  0.55977  0.91343  0.30018  1
 O  O26  1  0.69982  0.05977  0.58657  1
 O  O27  1  0.98380  0.90275  0.28169  1
 O  O28  1  0.19982  0.44023  0.41343  1
 O  O29  1  0.37883  0.35144  0.75080  1
 O  O30  1  0.12117  0.64856  0.25080  1
 O  O31  1  0.71831  0.48380  0.59725  1
 O  O32  1  0.25080  0.12117  0.64856  1
 O  O33  1  0.94023  0.08657  0.80018  1
 O  O34  1  0.05977  0.58657  0.69982  1
 O  O35  1  0.30018  0.55977  0.91343  1
 O  O36  1  0.64856  0.25080  0.12117  1
 P  P1  1  0.32837  0.07999  0.50882  1
 P  P2  1  0.00882  0.17163  0.92001  1
 P  P3  1  0.92001  0.00882  0.17163  1
 P  P4  1  0.99118  0.67163  0.57999  1
 P  P5  1  0.49118  0.82837  0.42001  1
 P  P6  1  0.82837  0.42001  0.49118  1
 P  P7  1  0.67163  0.57999  0.99118  1
 P  P8  1  0.42001  0.49118  0.82837  1
 P  P9  1  0.07999  0.50882  0.32837  1
 P  P10  1  0.50882  0.32837  0.07999  1
 P  P11  1  0.57999  0.99118  0.67163  1
 P  P12  1  0.17163  0.92001  0.00882  1
