CIF file written using JARVIS-Tools package.
data_CaNb2O6
_symmetry_space_group_name_H-M  'Pbcn'
_cell_length_a       5.27468
_cell_length_b       5.83194
_cell_length_c       15.1465
_cell_angle_alpha    90
_cell_angle_beta     90
_cell_angle_gamma    90

_symmetry_Int_Tables_number  60
_chemical_formula_structural  CaNb2O6
_chemical_formula_sum  Ca4Nb8O24
_cell_volume  465.9305643323853
_cell_formula_units_Z  4
loop_
  _symmetry_equiv_pos_site_id
 _symmetry_equiv_pos_as_xyz
 1  'x, y, z'
loop_
 _atom_site_type_symbol
 _atom_site_label
 _atom_site_symmetry_multiplicity
 _atom_site_fract_x
 _atom_site_fract_y
 _atom_site_fract_z
 _atom_site_fract_occupancy
 Ca  Ca1  1  0.75000  0.22178  0.00000  1
 Ca  Ca2  1  0.25000  0.77822  0.00000  1
 Ca  Ca3  1  0.75000  0.72178  0.50000  1
 Ca  Ca4  1  0.25000  0.27822  0.50000  1
 Nb  Nb1  1  0.79871  0.68707  0.16482  1
 Nb  Nb2  1  0.79871  0.18707  0.33518  1
 Nb  Nb3  1  0.29871  0.31293  0.16482  1
 Nb  Nb4  1  0.20129  0.31293  0.83518  1
 Nb  Nb5  1  0.20129  0.81293  0.66482  1
 Nb  Nb6  1  0.70129  0.18707  0.66482  1
 Nb  Nb7  1  0.29871  0.81293  0.33518  1
 Nb  Nb8  1  0.70129  0.68707  0.83518  1
 O  O1  1  0.62377  0.86287  0.25744  1
 O  O2  1  0.90700  0.90508  0.08764  1
 O  O3  1  0.09300  0.59492  0.58764  1
 O  O4  1  0.59300  0.90508  0.91236  1
 O  O5  1  0.00714  0.42960  0.09848  1
 O  O6  1  0.50714  0.07040  0.40152  1
 O  O7  1  0.49286  0.42960  0.90152  1
 O  O8  1  0.87623  0.86287  0.74256  1
 O  O9  1  0.40700  0.09492  0.08764  1
 O  O10  1  0.37623  0.63713  0.75744  1
 O  O11  1  0.12377  0.63713  0.24256  1
 O  O12  1  0.59300  0.40508  0.58764  1
 O  O13  1  0.62377  0.36287  0.24256  1
 O  O14  1  0.37623  0.13713  0.74256  1
 O  O15  1  0.40700  0.59492  0.41236  1
 O  O16  1  0.87623  0.36287  0.75744  1
 O  O17  1  0.99286  0.07040  0.59848  1
 O  O18  1  0.99286  0.57040  0.90152  1
 O  O19  1  0.49286  0.92960  0.59848  1
 O  O20  1  0.50714  0.57040  0.09848  1
 O  O21  1  0.00714  0.92960  0.40152  1
 O  O22  1  0.09300  0.09492  0.91236  1
 O  O23  1  0.12377  0.13713  0.25744  1
 O  O24  1  0.90700  0.40508  0.41236  1
