CIF file written using JARVIS-Tools package.
data_Nb2CuSe4
_symmetry_space_group_name_H-M  'P3m1'
_cell_length_a       3.537
_cell_length_b       3.537
_cell_length_c       13.4659
_cell_angle_alpha    90
_cell_angle_beta     90
_cell_angle_gamma    120

_symmetry_Int_Tables_number  156
_chemical_formula_structural  Nb2CuSe4
_chemical_formula_sum  Nb2CuSe4
_cell_volume  145.89320398761166
_cell_formula_units_Z  1
loop_
  _symmetry_equiv_pos_site_id
 _symmetry_equiv_pos_as_xyz
 1  'x, y, z'
loop_
 _atom_site_type_symbol
 _atom_site_label
 _atom_site_symmetry_multiplicity
 _atom_site_fract_x
 _atom_site_fract_y
 _atom_site_fract_z
 _atom_site_fract_occupancy
 Cu  Cu1  1  0.00000  0.00000  0.03635  1
 Nb  Nb1  1  0.00000  0.00000  0.26342  1
 Nb  Nb2  1  0.66667  0.33333  0.73988  1
 Se  Se1  1  0.00000  0.00000  0.61820  1
 Se  Se2  1  0.66667  0.33333  0.38574  1
 Se  Se3  1  0.66667  0.33333  0.13707  1
 Se  Se4  1  0.00000  0.00000  0.86334  1
