CIF file written using JARVIS-Tools package.
data_Ca4Fe9O17
_symmetry_space_group_name_H-M  'C2'
_cell_length_a       5.88987
_cell_length_b       5.87798
_cell_length_c       11.1339
_cell_angle_alpha    97.3214
_cell_angle_beta     90
_cell_angle_gamma    120.067

_symmetry_Int_Tables_number  5
_chemical_formula_structural  Ca4Fe9O17
_chemical_formula_sum  Ca4Fe9O7
_cell_volume  329.95774330853993
_cell_formula_units_Z  1
loop_
  _symmetry_equiv_pos_site_id
 _symmetry_equiv_pos_as_xyz
 1  'x, y, z'
loop_
 _atom_site_type_symbol
 _atom_site_label
 _atom_site_symmetry_multiplicity
 _atom_site_fract_x
 _atom_site_fract_y
 _atom_site_fract_z
 _atom_site_fract_occupancy
 Ca  Ca1  1  0.78697  0.58507  0.75589  1
 Ca  Ca2  1  0.20190  0.41493  0.24411  1
 Ca  Ca3  1  0.53537  0.08128  0.25599  1
 Ca  Ca4  1  0.45410  0.91872  0.74401  1
 Fe  Fe1  1  0.76402  -0.00000  0.50000  1
 Fe  Fe2  1  0.82902  0.33710  0.00020  1
 Fe  Fe3  1  0.49192  0.66290  -0.00020  1
 Fe  Fe4  1  0.12488  0.26018  0.76512  1
 Fe  Fe5  1  0.14930  0.00000  0.00000  1
 Fe  Fe6  1  0.76022  0.50211  0.49571  1
 Fe  Fe7  1  0.25811  0.49789  0.50429  1
 Fe  Fe8  1  0.25473  -0.00000  0.50000  1
 Fe  Fe9  1  0.86469  0.73982  0.23488  1
 O  O1  1  0.84963  0.26556  0.83208  1
 O  O2  1  0.16609  0.34285  0.02809  1
 O  O3  1  0.14422  0.00322  0.82949  1
 O  O4  1  0.14100  -0.00322  0.17051  1
 O  O5  1  0.40858  0.56638  0.83053  1
 O  O6  1  0.84220  0.43362  0.16947  1
 O  O7  1  0.58407  0.73444  0.16792  1
 O  O8  1  0.38954  0.79304  0.40676  1
 O  O9  1  0.10145  0.68955  0.59170  1
 O  O10  1  0.41189  0.31045  0.40830  1
 O  O11  1  0.60665  0.69185  0.59466  1
 O  O12  1  0.91481  0.30815  0.40534  1
 O  O13  1  0.82324  0.65715  0.97191  1
 O  O14  1  0.92448  0.79405  0.40093  1
 O  O15  1  0.59650  0.20696  0.59324  1
 O  O16  1  0.49299  0.00000  0.00000  1
 O  O17  1  0.13043  0.20595  0.59907  1
