CIF file written using JARVIS-Tools package.
data_Na2InNiF7
_symmetry_space_group_name_H-M  'Pnma'
_cell_length_a       7.35284
_cell_length_b       7.51663
_cell_length_c       10.3275
_cell_angle_alpha    90
_cell_angle_beta     90
_cell_angle_gamma    90

_symmetry_Int_Tables_number  62
_chemical_formula_structural  Na2InNiF7
_chemical_formula_sum  Na8In4Ni4F28
_cell_volume  570.785864011849
_cell_formula_units_Z  4
loop_
  _symmetry_equiv_pos_site_id
 _symmetry_equiv_pos_as_xyz
 1  'x, y, z'
loop_
 _atom_site_type_symbol
 _atom_site_label
 _atom_site_symmetry_multiplicity
 _atom_site_fract_x
 _atom_site_fract_y
 _atom_site_fract_z
 _atom_site_fract_occupancy
 F  F1  1  0.75000  -0.00237  0.34920  1
 F  F2  1  0.75000  0.51282  0.57410  1
 F  F3  1  0.75000  0.98718  0.07410  1
 F  F4  1  0.25000  0.01282  0.92590  1
 F  F5  1  0.94965  0.19761  0.87407  1
 F  F6  1  0.05035  0.69761  0.62593  1
 F  F7  1  0.01074  0.30544  0.63296  1
 F  F8  1  0.05035  0.80239  0.12593  1
 F  F9  1  0.55035  0.19761  0.87407  1
 F  F10  1  0.25000  0.48718  0.42590  1
 F  F11  1  0.94965  0.30239  0.37407  1
 F  F12  1  0.98926  0.80544  0.86704  1
 F  F13  1  0.48926  0.19456  0.13296  1
 F  F14  1  0.75000  0.02706  0.64017  1
 F  F15  1  0.51074  0.69456  0.36704  1
 F  F16  1  0.01074  0.19456  0.13296  1
 F  F17  1  0.51074  0.80544  0.86704  1
 F  F18  1  0.98926  0.69456  0.36704  1
 F  F19  1  0.48926  0.30544  0.63296  1
 F  F20  1  0.44965  0.69761  0.62593  1
 F  F21  1  0.25000  0.00237  0.65080  1
 F  F22  1  0.25000  0.97294  0.35983  1
 F  F23  1  0.75000  0.50237  0.84920  1
 F  F24  1  0.25000  0.49763  0.15080  1
 F  F25  1  0.25000  0.52706  0.85983  1
 F  F26  1  0.75000  0.47294  0.14017  1
 F  F27  1  0.44965  0.80239  0.12593  1
 F  F28  1  0.55035  0.30239  0.37407  1
 In  In1  1  0.25000  0.77709  0.76799  1
 In  In2  1  0.75000  0.22291  0.23201  1
 In  In3  1  0.25000  0.72291  0.26799  1
 In  In4  1  0.75000  0.27709  0.73201  1
 Na  Na1  1  0.75000  0.75013  0.22885  1
 Na  Na2  1  0.75000  0.74987  0.72885  1
 Na  Na3  1  0.25000  0.25013  0.27115  1
 Na  Na4  1  0.25000  0.24987  0.77115  1
 Na  Na5  1  0.50000  0.00000  0.50000  1
 Na  Na6  1  0.00000  0.00000  0.50000  1
 Na  Na7  1  0.50000  0.50000  0.00000  1
 Na  Na8  1  0.00000  0.50000  0.00000  1
 Ni  Ni1  1  0.00000  0.50000  0.50000  1
 Ni  Ni2  1  0.50000  0.50000  0.50000  1
 Ni  Ni3  1  0.50000  0.00000  0.00000  1
 Ni  Ni4  1  0.00000  0.00000  0.00000  1
