CIF file written using JARVIS-Tools package.
data_PrMnO3
_symmetry_space_group_name_H-M  'Pnma'
_cell_length_a       5.50662
_cell_length_b       5.58436
_cell_length_c       7.80605
_cell_angle_alpha    90
_cell_angle_beta     90
_cell_angle_gamma    90

_symmetry_Int_Tables_number  62
_chemical_formula_structural  PrMnO3
_chemical_formula_sum  Pr4Mn4O2
_cell_volume  240.0435013084658
_cell_formula_units_Z  4
loop_
  _symmetry_equiv_pos_site_id
 _symmetry_equiv_pos_as_xyz
 1  'x, y, z'
loop_
 _atom_site_type_symbol
 _atom_site_label
 _atom_site_symmetry_multiplicity
 _atom_site_fract_x
 _atom_site_fract_y
 _atom_site_fract_z
 _atom_site_fract_occupancy
 Mn  Mn1  1  0.50000  0.00000  0.00000  1
 Mn  Mn2  1  0.00000  0.50000  0.00000  1
 Mn  Mn3  1  0.00000  0.50000  0.50000  1
 Mn  Mn4  1  0.50000  0.00000  0.50000  1
 O  O1  1  0.42278  0.98410  0.25000  1
 O  O2  1  0.21419  0.21247  0.54160  1
 O  O3  1  0.78581  0.78753  0.04160  1
 O  O4  1  0.28581  0.71247  0.95840  1
 O  O5  1  0.28581  0.71247  0.54160  1
 O  O6  1  0.78581  0.78753  0.45840  1
 O  O7  1  0.21419  0.21247  0.95840  1
 O  O8  1  0.57722  0.01590  0.75000  1
 O  O9  1  0.71419  0.28753  0.45840  1
 O  O10  1  0.07722  0.48410  0.25000  1
 O  O11  1  0.92278  0.51590  0.75000  1
 O  O12  1  0.71419  0.28753  0.04160  1
 Pr  Pr1  1  0.49036  0.45619  0.75000  1
 Pr  Pr2  1  0.00964  0.95619  0.75000  1
 Pr  Pr3  1  0.50964  0.54381  0.25000  1
 Pr  Pr4  1  0.99036  0.04381  0.25000  1
