CIF file written using JARVIS-Tools package.
data_Y2Si2O7
_symmetry_space_group_name_H-M  'P2_1/c'
_cell_length_a       4.73596
_cell_length_b       5.61465
_cell_length_c       10.9017
_cell_angle_alpha    90
_cell_angle_beta     90
_cell_angle_gamma    83.9255

_symmetry_Int_Tables_number  14
_chemical_formula_structural  Y2Si2O7
_chemical_formula_sum  Y4Si4O4
_cell_volume  288.25859774179634
_cell_formula_units_Z  2
loop_
  _symmetry_equiv_pos_site_id
 _symmetry_equiv_pos_as_xyz
 1  'x, y, z'
loop_
 _atom_site_type_symbol
 _atom_site_label
 _atom_site_symmetry_multiplicity
 _atom_site_fract_x
 _atom_site_fract_y
 _atom_site_fract_z
 _atom_site_fract_occupancy
 O  O1  1  0.61759  0.24779  0.79689  1
 O  O2  1  0.20562  0.63258  0.55146  1
 O  O3  1  0.20562  0.13258  0.94854  1
 O  O4  1  0.79438  0.36742  0.44854  1
 O  O5  1  0.87907  0.95917  0.31749  1
 O  O6  1  0.12093  0.54083  0.81749  1
 O  O7  1  0.12093  0.04083  0.68251  1
 O  O8  1  0.87907  0.45917  0.18251  1
 O  O9  1  0.50000  0.50000  0.00000  1
 O  O10  1  0.79438  0.86742  0.05146  1
 O  O11  1  0.38241  0.25221  0.29689  1
 O  O12  1  0.61759  0.74779  0.70311  1
 O  O13  1  0.38241  0.75221  0.20311  1
 O  O14  1  0.50000  0.00000  0.50000  1
 Si  Si1  1  0.64083  0.64379  0.11238  1
 Si  Si2  1  0.35917  0.85621  0.61238  1
 Si  Si3  1  0.35917  0.35621  0.88762  1
 Si  Si4  1  0.64083  0.14379  0.38762  1
 Y  Y1  1  0.88715  0.40721  0.65042  1
 Y  Y2  1  0.11285  0.59279  0.34958  1
 Y  Y3  1  0.88715  0.90721  0.84958  1
 Y  Y4  1  0.11285  0.09279  0.15042  1
