CIF file written using JARVIS-Tools package.
data_SrEr2O4
_symmetry_space_group_name_H-M  'Pm'
_cell_length_a       3.37834
_cell_length_b       6.10206
_cell_length_c       5.92352
_cell_angle_alpha    119.093
_cell_angle_beta     90
_cell_angle_gamma    90

_symmetry_Int_Tables_number  6
_chemical_formula_structural  SrEr2O4
_chemical_formula_sum  SrEr2O4
_cell_volume  106.70573734890097
_cell_formula_units_Z  1
loop_
  _symmetry_equiv_pos_site_id
 _symmetry_equiv_pos_as_xyz
 1  'x, y, z'
loop_
 _atom_site_type_symbol
 _atom_site_label
 _atom_site_symmetry_multiplicity
 _atom_site_fract_x
 _atom_site_fract_y
 _atom_site_fract_z
 _atom_site_fract_occupancy
 Er  Er1  1  0.75000  0.37242  0.30571  1
 Er  Er2  1  0.25000  0.03982  0.69500  1
 O  O1  1  0.25000  0.39750  0.04921  1
 O  O2  1  0.75000  0.05910  0.43666  1
 O  O3  1  0.25000  0.60249  0.55998  1
 O  O4  1  0.75000  0.00361  0.93002  1
 Sr  Sr1  1  0.25000  0.77160  0.03530  1
