CIF file written using JARVIS-Tools package.
data_ZrGa
_symmetry_space_group_name_H-M  'I4_1/amd'
_cell_length_a       3.88485
_cell_length_b       3.88484
_cell_length_c       10.6095
_cell_angle_alpha    100.549
_cell_angle_beta     100.549
_cell_angle_gamma    90

_symmetry_Int_Tables_number  141
_chemical_formula_structural  ZrGa
_chemical_formula_sum  Zr4Ga4
_cell_volume  154.65826682162285
_cell_formula_units_Z  4
loop_
  _symmetry_equiv_pos_site_id
 _symmetry_equiv_pos_as_xyz
 1  'x, y, z'
loop_
 _atom_site_type_symbol
 _atom_site_label
 _atom_site_symmetry_multiplicity
 _atom_site_fract_x
 _atom_site_fract_y
 _atom_site_fract_z
 _atom_site_fract_occupancy
 Ga  Ga1  1  0.45919  0.70919  0.41839  1
 Ga  Ga2  1  0.20919  0.95919  0.91839  1
 Ga  Ga3  1  0.54081  0.29081  0.58161  1
 Ga  Ga4  1  0.79081  0.04081  0.08161  1
 Zr  Zr1  1  0.32178  0.57178  0.14356  1
 Zr  Zr2  1  0.07178  0.82178  0.64356  1
 Zr  Zr3  1  0.67822  0.42822  0.85644  1
 Zr  Zr4  1  0.92822  0.17822  0.35644  1
