CIF file written using JARVIS-Tools package.
data_Li3Cu2O4
_symmetry_space_group_name_H-M  'C2'
_cell_length_a       5.24506
_cell_length_b       5.24506
_cell_length_c       10.497
_cell_angle_alpha    139.336
_cell_angle_beta     148.936
_cell_angle_gamma    51.9608

_symmetry_Int_Tables_number  5
_chemical_formula_structural  Li3Cu2O4
_chemical_formula_sum  Li3Cu2O4
_cell_volume  96.61203968007605
_cell_formula_units_Z  1
loop_
  _symmetry_equiv_pos_site_id
 _symmetry_equiv_pos_as_xyz
 1  'x, y, z'
loop_
 _atom_site_type_symbol
 _atom_site_label
 _atom_site_symmetry_multiplicity
 _atom_site_fract_x
 _atom_site_fract_y
 _atom_site_fract_z
 _atom_site_fract_occupancy
 Cu  Cu1  1  0.00527  0.50527  0.75000  1
 Cu  Cu2  1  0.99889  0.49889  0.25000  1
 Li  Li1  1  0.28527  0.78527  0.75000  1
 Li  Li2  1  0.28362  0.78362  0.25000  1
 Li  Li3  1  0.71066  0.21066  0.75000  1
 O  O1  1  0.34277  0.36301  0.98628  1
 O  O2  1  0.63504  0.60840  0.98368  1
 O  O3  1  0.64105  0.66769  0.51632  1
 O  O4  1  0.39044  0.37020  0.51372  1
