CIF file written using JARVIS-Tools package.
data_PAuCl8
_symmetry_space_group_name_H-M  'Imma'
_cell_length_a       11.489
_cell_length_b       11.489
_cell_length_c       11.489
_cell_angle_alpha    92.374
_cell_angle_beta     116.375
_cell_angle_gamma    120.953

_symmetry_Int_Tables_number  74
_chemical_formula_structural  PAuCl8
_chemical_formula_sum  P4Au4Cl32
_cell_volume  1090.9137443744607
_cell_formula_units_Z  4
loop_
  _symmetry_equiv_pos_site_id
 _symmetry_equiv_pos_as_xyz
 1  'x, y, z'
loop_
 _atom_site_type_symbol
 _atom_site_label
 _atom_site_symmetry_multiplicity
 _atom_site_fract_x
 _atom_site_fract_y
 _atom_site_fract_z
 _atom_site_fract_occupancy
 Au  Au1  1  0.08556  0.83556  0.25000  1
 Au  Au2  1  0.91444  0.16444  0.75000  1
 Au  Au3  1  0.42431  0.67431  0.75000  1
 Au  Au4  1  0.57569  0.32569  0.25000  1
 Cl  Cl1  1  0.61803  0.67639  0.94164  1
 Cl  Cl2  1  0.42451  0.52911  0.60460  1
 Cl  Cl3  1  0.57549  0.18009  0.10460  1
 Cl  Cl4  1  0.57549  0.47089  0.39540  1
 Cl  Cl5  1  0.00788  0.58594  0.77674  1
 Cl  Cl6  1  0.19276  0.28828  0.26090  1
 Cl  Cl7  1  0.80724  0.06813  0.09552  1
 Cl  Cl8  1  0.47261  0.71172  0.40448  1
 Cl  Cl9  1  0.80724  0.71172  0.73910  1
 Cl  Cl10  1  0.42451  0.81991  0.89540  1
 Cl  Cl11  1  0.19276  0.93187  0.90448  1
 Cl  Cl12  1  0.52739  0.28828  0.59552  1
 Cl  Cl13  1  0.69080  0.76886  0.27674  1
 Cl  Cl14  1  0.99212  0.41406  0.22326  1
 Cl  Cl15  1  0.00788  0.23114  0.42194  1
 Cl  Cl16  1  0.47261  0.06813  0.76090  1
 Cl  Cl17  1  0.38197  0.32361  0.05836  1
 Cl  Cl18  1  0.52739  0.93187  0.23910  1
 Cl  Cl19  1  0.23475  0.67639  0.55836  1
 Cl  Cl20  1  0.30920  0.58594  0.07806  1
 Cl  Cl21  1  0.69080  0.41406  0.92194  1
 Cl  Cl22  1  0.99212  0.76886  0.57806  1
 Cl  Cl23  1  0.71014  0.96014  0.75000  1
 Cl  Cl24  1  0.76525  0.32361  0.44164  1
 Cl  Cl25  1  0.11997  0.36997  0.75000  1
 Cl  Cl26  1  0.28986  0.03986  0.25000  1
 Cl  Cl27  1  0.91419  0.30941  0.89522  1
 Cl  Cl28  1  0.91419  0.01898  0.60478  1
 Cl  Cl29  1  0.08581  0.69059  0.10478  1
 Cl  Cl30  1  0.08581  0.98102  0.39522  1
 Cl  Cl31  1  0.30920  0.23114  0.72326  1
 Cl  Cl32  1  0.88003  0.63003  0.25000  1
 P  P1  1  0.50000  0.25015  0.75015  1
 P  P2  1  0.00000  0.74985  0.74985  1
 P  P3  1  0.50000  0.74985  0.24985  1
 P  P4  1  0.00000  0.25015  0.25015  1
