CIF file written using JARVIS-Tools package.
data_ScCrC2
_symmetry_space_group_name_H-M  'P6_3/mmc'
_cell_length_a       3.25802
_cell_length_b       3.25802
_cell_length_c       9.00336
_cell_angle_alpha    90
_cell_angle_beta     90
_cell_angle_gamma    120

_symmetry_Int_Tables_number  194
_chemical_formula_structural  ScCrC2
_chemical_formula_sum  Sc2Cr2C4
_cell_volume  82.76462671775069
_cell_formula_units_Z  2
loop_
  _symmetry_equiv_pos_site_id
 _symmetry_equiv_pos_as_xyz
 1  'x, y, z'
loop_
 _atom_site_type_symbol
 _atom_site_label
 _atom_site_symmetry_multiplicity
 _atom_site_fract_x
 _atom_site_fract_y
 _atom_site_fract_z
 _atom_site_fract_occupancy
 C  C1  1  0.33333  0.66667  0.83462  1
 C  C2  1  0.66667  0.33333  0.33462  1
 C  C3  1  0.33333  0.66667  0.66538  1
 C  C4  1  0.66667  0.33333  0.16538  1
 Cr  Cr1  1  0.33333  0.66667  0.25000  1
 Cr  Cr2  1  0.66667  0.33333  0.75000  1
 Sc  Sc1  1  0.00000  0.00000  0.50000  1
 Sc  Sc2  1  0.00000  0.00000  0.00000  1
