CIF file written using JARVIS-Tools package.
data_Na2Pd3O4
_symmetry_space_group_name_H-M  'Immm'
_cell_length_a       3.084
_cell_length_b       5.50392
_cell_length_c       7.31383
_cell_angle_alpha    112.103
_cell_angle_beta     102.171
_cell_angle_gamma    90

_symmetry_Int_Tables_number  71
_chemical_formula_structural  Na2Pd3O4
_chemical_formula_sum  Na2Pd3O4
_cell_volume  112.00497922790773
_cell_formula_units_Z  1
loop_
  _symmetry_equiv_pos_site_id
 _symmetry_equiv_pos_as_xyz
 1  'x, y, z'
loop_
 _atom_site_type_symbol
 _atom_site_label
 _atom_site_symmetry_multiplicity
 _atom_site_fract_x
 _atom_site_fract_y
 _atom_site_fract_z
 _atom_site_fract_occupancy
 Na  Na1  1  0.79766  0.29766  0.59532  1
 Na  Na2  1  0.20234  0.70234  0.40468  1
 O  O1  1  0.61608  0.86999  0.23216  1
 O  O2  1  0.38392  0.13001  0.76784  1
 O  O3  1  0.38392  0.63783  0.76784  1
 O  O4  1  0.61608  0.36217  0.23216  1
 Pd  Pd1  1  0.10675  0.10675  0.21350  1
 Pd  Pd2  1  0.89325  0.89325  0.78650  1
 Pd  Pd3  1  0.50000  0.50000  -0.00000  1
