CIF file written using JARVIS-Tools package.
data_Pr3BWO9
_symmetry_space_group_name_H-M  'P6_3'
_cell_length_a       8.80341
_cell_length_b       8.80341
_cell_length_c       5.5905
_cell_angle_alpha    90
_cell_angle_beta     90
_cell_angle_gamma    120

_symmetry_Int_Tables_number  173
_chemical_formula_structural  Pr3BWO9
_chemical_formula_sum  Pr6B2W2O8
_cell_volume  375.21782913996367
_cell_formula_units_Z  2
loop_
  _symmetry_equiv_pos_site_id
 _symmetry_equiv_pos_as_xyz
 1  'x, y, z'
loop_
 _atom_site_type_symbol
 _atom_site_label
 _atom_site_symmetry_multiplicity
 _atom_site_fract_x
 _atom_site_fract_y
 _atom_site_fract_z
 _atom_site_fract_occupancy
 B  B1  1  0.00000  0.00000  0.86002  1
 B  B2  1  0.00000  0.00000  0.36002  1
 O  O1  1  0.82525  0.95422  0.35216  1
 O  O2  1  0.87103  0.82525  0.85216  1
 O  O3  1  0.04578  0.87103  0.35216  1
 O  O4  1  0.17475  0.04578  0.85216  1
 O  O5  1  0.52832  0.72847  0.04185  1
 O  O6  1  0.86114  0.48228  0.97075  1
 O  O7  1  0.72847  0.20015  0.54185  1
 O  O8  1  0.12897  0.17475  0.35216  1
 O  O9  1  0.47168  0.27153  0.54185  1
 O  O10  1  0.48228  0.62114  0.47075  1
 O  O11  1  0.79985  0.52832  0.54185  1
 O  O12  1  0.62114  0.13886  0.97075  1
 O  O13  1  0.13886  0.51772  0.47075  1
 O  O14  1  0.20015  0.47168  0.04185  1
 O  O15  1  0.51772  0.37886  0.97075  1
 O  O16  1  0.95422  0.12897  0.85216  1
 O  O17  1  0.27153  0.79985  0.04185  1
 O  O18  1  0.37886  0.86114  0.47075  1
 Pr  Pr1  1  0.08482  0.72549  0.70320  1
 Pr  Pr2  1  0.35933  0.08482  0.20320  1
 Pr  Pr3  1  0.91518  0.27451  0.20320  1
 Pr  Pr4  1  0.64067  0.91518  0.70320  1
 Pr  Pr5  1  0.27451  0.35933  0.70320  1
 Pr  Pr6  1  0.72549  0.64067  0.20320  1
 W  W1  1  0.66667  0.33333  0.74528  1
 W  W2  1  0.33333  0.66667  0.24528  1
