CIF file written using JARVIS-Tools package.
data_LiDyS2
_symmetry_space_group_name_H-M  'R-3m'
_cell_length_a       6.53138
_cell_length_b       6.53138
_cell_length_c       6.53137
_cell_angle_alpha    34.7082
_cell_angle_beta     34.7083
_cell_angle_gamma    34.7083

_symmetry_Int_Tables_number  166
_chemical_formula_structural  LiDyS2
_chemical_formula_sum  LiDyS2
_cell_volume  80.61662247507627
_cell_formula_units_Z  1
loop_
  _symmetry_equiv_pos_site_id
 _symmetry_equiv_pos_as_xyz
 1  'x, y, z'
loop_
 _atom_site_type_symbol
 _atom_site_label
 _atom_site_symmetry_multiplicity
 _atom_site_fract_x
 _atom_site_fract_y
 _atom_site_fract_z
 _atom_site_fract_occupancy
 Dy  Dy1  1  0.00000  0.00000  0.00000  1
 Li  Li1  1  0.50000  0.50000  0.50000  1
 S  S1  1  0.24910  0.24910  0.24910  1
 S  S2  1  0.75090  0.75090  0.75090  1
