CIF file written using JARVIS-Tools package.
data_MoS2
_symmetry_space_group_name_H-M  'P-3m1'
_cell_length_a       3.18978
_cell_length_b       3.18978
_cell_length_c       21.0048
_cell_angle_alpha    90
_cell_angle_beta     90
_cell_angle_gamma    120

_symmetry_Int_Tables_number  164
_chemical_formula_structural  MoS2
_chemical_formula_sum  Mo2S4
_cell_volume  185.08424650612355
_cell_formula_units_Z  2
loop_
  _symmetry_equiv_pos_site_id
 _symmetry_equiv_pos_as_xyz
 1  'x, y, z'
loop_
 _atom_site_type_symbol
 _atom_site_label
 _atom_site_symmetry_multiplicity
 _atom_site_fract_x
 _atom_site_fract_y
 _atom_site_fract_z
 _atom_site_fract_occupancy
 Mo  Mo1  1  0.66667  0.33333  0.44749  1
 Mo  Mo2  1  0.33333  0.66667  0.15057  1
 S  S1  1  0.33333  0.66667  0.52204  1
 S  S2  1  0.66667  0.33333  0.22519  1
 S  S3  1  0.33333  0.66667  0.37287  1
 S  S4  1  0.66667  0.33333  0.07601  1
