CIF file written using JARVIS-Tools package.
data_Tm2InNi2
_symmetry_space_group_name_H-M  'Cmmm'
_cell_length_a       3.58901
_cell_length_b       3.86544
_cell_length_c       7.31552
_cell_angle_alpha    105.319
_cell_angle_beta     90
_cell_angle_gamma    90

_symmetry_Int_Tables_number  65
_chemical_formula_structural  Tm2InNi2
_chemical_formula_sum  Tm2InNi2
_cell_volume  97.88308662569416
_cell_formula_units_Z  1
loop_
  _symmetry_equiv_pos_site_id
 _symmetry_equiv_pos_as_xyz
 1  'x, y, z'
loop_
 _atom_site_type_symbol
 _atom_site_label
 _atom_site_symmetry_multiplicity
 _atom_site_fract_x
 _atom_site_fract_y
 _atom_site_fract_z
 _atom_site_fract_occupancy
 In  In1  1  0.00000  0.00000  0.00000  1
 Ni  Ni1  1  0.00000  0.80223  0.60446  1
 Ni  Ni2  1  0.00000  0.19777  0.39554  1
 Tm  Tm1  1  0.50000  0.63922  0.27844  1
 Tm  Tm2  1  0.50000  0.36078  0.72156  1
