CIF file written using JARVIS-Tools package.
data_Mn3O2F4
_symmetry_space_group_name_H-M  'Pnnm'
_cell_length_a       3.1058
_cell_length_b       4.81229
_cell_length_c       14.2704
_cell_angle_alpha    90
_cell_angle_beta     90
_cell_angle_gamma    90

_symmetry_Int_Tables_number  58
_chemical_formula_structural  Mn3O2F4
_chemical_formula_sum  Mn6O4F8
_cell_volume  213.28476655099126
_cell_formula_units_Z  2
loop_
  _symmetry_equiv_pos_site_id
 _symmetry_equiv_pos_as_xyz
 1  'x, y, z'
loop_
 _atom_site_type_symbol
 _atom_site_label
 _atom_site_symmetry_multiplicity
 _atom_site_fract_x
 _atom_site_fract_y
 _atom_site_fract_z
 _atom_site_fract_occupancy
 F  F1  1  0.50000  0.79088  0.56549  1
 F  F2  1  0.00000  0.70912  0.06549  1
 F  F3  1  0.00000  0.36906  0.27185  1
 F  F4  1  0.00000  0.29088  0.93451  1
 F  F5  1  0.50000  0.13094  0.77185  1
 F  F6  1  0.50000  0.20912  0.43451  1
 F  F7  1  0.50000  0.86906  0.22815  1
 F  F8  1  0.00000  0.63094  0.72815  1
 Mn  Mn1  1  0.00000  0.92960  0.84272  1
 Mn  Mn2  1  0.50000  0.42960  0.65728  1
 Mn  Mn3  1  0.50000  0.57040  0.34272  1
 Mn  Mn4  1  0.50000  0.50000  0.00000  1
 Mn  Mn5  1  0.00000  0.00000  0.50000  1
 Mn  Mn6  1  0.00000  0.07040  0.15728  1
 O  O1  1  0.00000  0.26567  0.59798  1
 O  O2  1  0.50000  0.76567  0.90202  1
 O  O3  1  0.00000  0.73433  0.40202  1
 O  O4  1  0.50000  0.23433  0.09798  1
