CIF file written using JARVIS-Tools package.
data_Mg2Ti
_symmetry_space_group_name_H-M  'P-62m'
_cell_length_a       5.30933
_cell_length_b       5.30932
_cell_length_c       5.05791
_cell_angle_alpha    90
_cell_angle_beta     90
_cell_angle_gamma    120

_symmetry_Int_Tables_number  189
_chemical_formula_structural  Mg2Ti
_chemical_formula_sum  Mg4Ti2
_cell_volume  123.47556500135529
_cell_formula_units_Z  2
loop_
  _symmetry_equiv_pos_site_id
 _symmetry_equiv_pos_as_xyz
 1  'x, y, z'
loop_
 _atom_site_type_symbol
 _atom_site_label
 _atom_site_symmetry_multiplicity
 _atom_site_fract_x
 _atom_site_fract_y
 _atom_site_fract_z
 _atom_site_fract_occupancy
 Mg  Mg1  1  0.65418  0.00000  0.00000  1
 Mg  Mg2  1  0.34582  0.34582  0.00000  1
 Mg  Mg3  1  0.00000  0.65418  0.00000  1
 Mg  Mg4  1  0.00000  0.00000  0.50000  1
 Ti  Ti1  1  0.66667  0.33333  0.50000  1
 Ti  Ti2  1  0.33333  0.66667  0.50000  1
