CIF file written using JARVIS-Tools package.
data_Ba2Nd2Ti2Cu2O11
_symmetry_space_group_name_H-M  'P4/mmm'
_cell_length_a       3.9342
_cell_length_b       3.9342
_cell_length_c       15.9302
_cell_angle_alpha    90
_cell_angle_beta     90
_cell_angle_gamma    90

_symmetry_Int_Tables_number  123
_chemical_formula_structural  Ba2Nd2Ti2Cu2O11
_chemical_formula_sum  Ba2Nd2Ti2Cu2O
_cell_volume  246.5672049136056
_cell_formula_units_Z  1
loop_
  _symmetry_equiv_pos_site_id
 _symmetry_equiv_pos_as_xyz
 1  'x, y, z'
loop_
 _atom_site_type_symbol
 _atom_site_label
 _atom_site_symmetry_multiplicity
 _atom_site_fract_x
 _atom_site_fract_y
 _atom_site_fract_z
 _atom_site_fract_occupancy
 Ba  Ba1  1  0.50000  0.50000  0.23379  1
 Ba  Ba2  1  0.50000  0.50000  0.76621  1
 Cu  Cu1  1  0.00000  0.00000  0.10686  1
 Cu  Cu2  1  0.00000  0.00000  0.89314  1
 Nd  Nd1  1  0.50000  0.50000  0.00000  1
 Nd  Nd2  1  0.50000  0.50000  0.50000  1
 O  O1  1  0.50000  0.00000  0.61290  1
 O  O2  1  0.50000  0.00000  0.38710  1
 O  O3  1  0.50000  0.00000  0.90390  1
 O  O4  1  0.00000  0.50000  0.09610  1
 O  O5  1  0.00000  0.50000  0.61290  1
 O  O6  1  0.00000  0.00000  0.74283  1
 O  O7  1  0.00000  0.00000  0.25717  1
 O  O8  1  0.50000  0.00000  0.09610  1
 O  O9  1  0.00000  0.00000  0.50000  1
 O  O10  1  0.00000  0.50000  0.38710  1
 O  O11  1  0.00000  0.50000  0.90390  1
 Ti  Ti1  1  0.00000  0.00000  0.37397  1
 Ti  Ti2  1  0.00000  0.00000  0.62603  1
