CIF file written using JARVIS-Tools package.
data_Mn3VP4
_symmetry_space_group_name_H-M  'Pm'
_cell_length_a       3.18928
_cell_length_b       5.3267
_cell_length_c       5.93094
_cell_angle_alpha    89.8173
_cell_angle_beta     90
_cell_angle_gamma    90

_symmetry_Int_Tables_number  6
_chemical_formula_structural  Mn3VP4
_chemical_formula_sum  Mn3VP4
_cell_volume  100.75622748403691
_cell_formula_units_Z  1
loop_
  _symmetry_equiv_pos_site_id
 _symmetry_equiv_pos_as_xyz
 1  'x, y, z'
loop_
 _atom_site_type_symbol
 _atom_site_label
 _atom_site_symmetry_multiplicity
 _atom_site_fract_x
 _atom_site_fract_y
 _atom_site_fract_z
 _atom_site_fract_occupancy
 Mn  Mn1  1  0.50000  0.00226  0.19634  1
 Mn  Mn2  1  0.00000  0.49522  0.69318  1
 Mn  Mn3  1  0.00000  0.99437  0.80286  1
 P  P1  1  0.50000  0.69504  0.92431  1
 P  P2  1  0.50000  0.19195  0.57730  1
 P  P3  1  0.00000  0.29916  0.06653  1
 P  P4  1  0.00000  0.81471  0.43441  1
 V  V1  1  0.50000  0.50730  0.30507  1
