CIF file written using JARVIS-Tools package.
data_CrSBr
_symmetry_space_group_name_H-M  'Pmmn'
_cell_length_a       3.54205
_cell_length_b       4.73695
_cell_length_c       7.98182
_cell_angle_alpha    90
_cell_angle_beta     90
_cell_angle_gamma    90

_symmetry_Int_Tables_number  59
_chemical_formula_structural  CrSBr
_chemical_formula_sum  Cr2S2Br2
_cell_volume  133.92302250910606
_cell_formula_units_Z  2
loop_
  _symmetry_equiv_pos_site_id
 _symmetry_equiv_pos_as_xyz
 1  'x, y, z'
loop_
 _atom_site_type_symbol
 _atom_site_label
 _atom_site_symmetry_multiplicity
 _atom_site_fract_x
 _atom_site_fract_y
 _atom_site_fract_z
 _atom_site_fract_occupancy
 Br  Br1  1  0.25000  0.25000  0.64864  1
 Br  Br2  1  0.75000  0.75000  0.35136  1
 Cr  Cr1  1  0.75000  0.25000  0.87212  1
 Cr  Cr2  1  0.25000  0.75000  0.12788  1
 S  S1  1  0.75000  0.75000  0.92649  1
 S  S2  1  0.25000  0.25000  0.07351  1
