CIF file written using JARVIS-Tools package.
data_K2SnBr6
_symmetry_space_group_name_H-M  'P4/mnc'
_cell_length_a       7.23867
_cell_length_b       7.23891
_cell_length_c       11.0604
_cell_angle_alpha    90
_cell_angle_beta     90
_cell_angle_gamma    89.9969

_symmetry_Int_Tables_number  128
_chemical_formula_structural  K2SnBr6
_chemical_formula_sum  K4Sn2Br2
_cell_volume  579.5658263808878
_cell_formula_units_Z  2
loop_
  _symmetry_equiv_pos_site_id
 _symmetry_equiv_pos_as_xyz
 1  'x, y, z'
loop_
 _atom_site_type_symbol
 _atom_site_label
 _atom_site_symmetry_multiplicity
 _atom_site_fract_x
 _atom_site_fract_y
 _atom_site_fract_z
 _atom_site_fract_occupancy
 Br  Br1  1  0.69441  0.69881  0.75002  1
 Br  Br2  1  0.50000  0.99999  0.49107  1
 Br  Br3  1  0.00001  0.50001  0.50893  1
 Br  Br4  1  0.80555  0.19874  0.24996  1
 Br  Br5  1  0.00004  0.50006  0.99112  1
 Br  Br6  1  0.49997  0.99993  0.00888  1
 Br  Br7  1  0.30561  0.30127  0.75002  1
 Br  Br8  1  0.30119  0.30555  0.24996  1
 Br  Br9  1  0.19438  0.80121  0.25001  1
 Br  Br10  1  0.80123  0.19448  0.75005  1
 Br  Br11  1  0.19878  0.80562  0.75000  1
 Br  Br12  1  0.69876  0.69438  0.24998  1
 K  K1  1  -0.00001  0.00003  0.50002  1
 K  K2  1  0.50001  0.49997  0.49999  1
 K  K3  1  0.00001  0.00002  0.00000  1
 K  K4  1  0.50007  0.49993  -0.00001  1
 Sn  Sn1  1  0.00001  0.50005  0.75003  1
 Sn  Sn2  1  0.49997  -0.00004  0.24997  1
