CIF file written using JARVIS-Tools package.
data_GaCuI4
_symmetry_space_group_name_H-M  'I-4'
_cell_length_a       6.09697
_cell_length_b       6.09697
_cell_length_c       7.21288
_cell_angle_alpha    115.002
_cell_angle_beta     115.002
_cell_angle_gamma    90

_symmetry_Int_Tables_number  82
_chemical_formula_structural  GaCuI4
_chemical_formula_sum  GaCuI4
_cell_volume  214.95891629115
_cell_formula_units_Z  1
loop_
  _symmetry_equiv_pos_site_id
 _symmetry_equiv_pos_as_xyz
 1  'x, y, z'
loop_
 _atom_site_type_symbol
 _atom_site_label
 _atom_site_symmetry_multiplicity
 _atom_site_fract_x
 _atom_site_fract_y
 _atom_site_fract_z
 _atom_site_fract_occupancy
 Cu  Cu1  1  0.50000  0.50000  0.00000  1
 Ga  Ga1  1  0.25000  0.75000  0.50000  1
 I  I1  1  0.63251  0.63409  0.75456  1
 I  I2  1  0.87953  0.36749  0.24544  1
 I  I3  1  0.36591  0.87796  0.24544  1
 I  I4  1  0.12204  0.12047  0.75456  1
