CIF file written using JARVIS-Tools package.
data_DyAlSi
_symmetry_space_group_name_H-M  'I4_1md'
_cell_length_a       7.81559
_cell_length_b       7.8156
_cell_length_c       7.81559
_cell_angle_alpha    149.564
_cell_angle_beta     149.564
_cell_angle_gamma    43.5815

_symmetry_Int_Tables_number  109
_chemical_formula_structural  DyAlSi
_chemical_formula_sum  Dy2Al2Si2
_cell_volume  122.17357230669934
_cell_formula_units_Z  2
loop_
  _symmetry_equiv_pos_site_id
 _symmetry_equiv_pos_as_xyz
 1  'x, y, z'
loop_
 _atom_site_type_symbol
 _atom_site_label
 _atom_site_symmetry_multiplicity
 _atom_site_fract_x
 _atom_site_fract_y
 _atom_site_fract_z
 _atom_site_fract_occupancy
 Al  Al1  1  0.45792  0.45792  -0.00000  1
 Al  Al2  1  0.20792  0.70792  0.50000  1
 Dy  Dy1  1  0.62372  0.12372  0.50000  1
 Dy  Dy2  1  0.87372  0.87372  0.00000  1
 Si  Si1  1  0.04336  0.54336  0.50000  1
 Si  Si2  1  0.29336  0.29336  -0.00000  1
