CIF file written using JARVIS-Tools package.
data_ScPaO4
_symmetry_space_group_name_H-M  'P4/mmm'
_cell_length_a       3.72883
_cell_length_b       3.72883
_cell_length_c       5.19813
_cell_angle_alpha    90
_cell_angle_beta     90
_cell_angle_gamma    90

_symmetry_Int_Tables_number  123
_chemical_formula_structural  ScPaO4
_chemical_formula_sum  ScPaO4
_cell_volume  72.27575986718765
_cell_formula_units_Z  1
loop_
  _symmetry_equiv_pos_site_id
 _symmetry_equiv_pos_as_xyz
 1  'x, y, z'
loop_
 _atom_site_type_symbol
 _atom_site_label
 _atom_site_symmetry_multiplicity
 _atom_site_fract_x
 _atom_site_fract_y
 _atom_site_fract_z
 _atom_site_fract_occupancy
 O  O1  1  0.50000  0.00000  0.75245  1
 O  O2  1  0.00000  0.50000  0.24755  1
 O  O3  1  0.50000  0.00000  0.24755  1
 O  O4  1  0.00000  0.50000  0.75245  1
 Pa  Pa1  1  0.50000  0.50000  0.50000  1
 Sc  Sc1  1  0.00000  0.00000  0.00000  1
