CIF file written using JARVIS-Tools package.
data_KScAs2H2O8
_symmetry_space_group_name_H-M  'C2/c'
_cell_length_a       6.78348
_cell_length_b       6.78348
_cell_length_c       9.24836
_cell_angle_alpha    78.0065
_cell_angle_beta     101.993
_cell_angle_gamma    75.8769

_symmetry_Int_Tables_number  15
_chemical_formula_structural  KScAs2H2O8
_chemical_formula_sum  K2Sc2As4H4O6
_cell_volume  388.41791651705887
_cell_formula_units_Z  2
loop_
  _symmetry_equiv_pos_site_id
 _symmetry_equiv_pos_as_xyz
 1  'x, y, z'
loop_
 _atom_site_type_symbol
 _atom_site_label
 _atom_site_symmetry_multiplicity
 _atom_site_fract_x
 _atom_site_fract_y
 _atom_site_fract_z
 _atom_site_fract_occupancy
 As  As1  1  0.87210  0.32144  0.86010  1
 As  As2  1  0.32144  0.87210  0.63990  1
 As  As3  1  0.12790  0.67856  0.13990  1
 As  As4  1  0.67856  0.12790  0.36010  1
 H  H1  1  0.66532  0.30842  0.54471  1
 H  H2  1  0.69158  0.33468  0.04471  1
 H  H3  1  0.33468  0.69158  0.45529  1
 H  H4  1  0.30842  0.66532  0.95529  1
 K  K1  1  0.00000  0.50000  0.50000  1
 K  K2  1  0.50000  0.00000  0.00000  1
 O  O1  1  0.35436  0.61770  0.07172  1
 O  O2  1  0.91522  0.54326  0.76643  1
 O  O3  1  0.08478  0.45674  0.23357  1
 O  O4  1  0.45674  0.08478  0.26643  1
 O  O5  1  0.81766  0.18983  0.72514  1
 O  O6  1  0.18983  0.81766  0.77486  1
 O  O7  1  0.54326  0.91522  0.73357  1
 O  O8  1  0.81017  0.18234  0.22514  1
 O  O9  1  0.64564  0.38230  0.92828  1
 O  O10  1  0.18134  0.08711  0.48883  1
 O  O11  1  0.91289  0.81866  0.98883  1
 O  O12  1  0.81866  0.91289  0.51117  1
 O  O13  1  0.18234  0.81017  0.27486  1
 O  O14  1  0.38230  0.64564  0.57172  1
 O  O15  1  0.08711  0.18134  0.01117  1
 O  O16  1  0.61770  0.35436  0.42828  1
 Sc  Sc1  1  0.13898  0.13898  0.25000  1
 Sc  Sc2  1  0.86102  0.86102  0.75000  1
