CIF file written using JARVIS-Tools package.
data_CaCd2Au4
_symmetry_space_group_name_H-M  'I4/mmm'
_cell_length_a       5.5965
_cell_length_b       5.81131
_cell_length_c       5.81131
_cell_angle_alpha    76.5934
_cell_angle_beta     61.2154
_cell_angle_gamma    61.2154

_symmetry_Int_Tables_number  139
_chemical_formula_structural  CaCd2Au4
_chemical_formula_sum  CaCd2Au4
_cell_volume  145.18014311803535
_cell_formula_units_Z  1
loop_
  _symmetry_equiv_pos_site_id
 _symmetry_equiv_pos_as_xyz
 1  'x, y, z'
loop_
 _atom_site_type_symbol
 _atom_site_label
 _atom_site_symmetry_multiplicity
 _atom_site_fract_x
 _atom_site_fract_y
 _atom_site_fract_z
 _atom_site_fract_occupancy
 Au  Au1  1  0.69723  -0.00000  0.60555  1
 Au  Au2  1  0.30277  -0.00000  0.39445  1
 Au  Au3  1  0.69723  0.60555  0.00000  1
 Au  Au4  1  0.30277  0.39445  0.00000  1
 Ca  Ca1  1  0.00000  0.00000  0.00000  1
 Cd  Cd1  1  0.25000  0.50000  0.50000  1
 Cd  Cd2  1  0.75000  0.50000  0.50000  1
