CIF file written using JARVIS-Tools package.
data_KSe3
_symmetry_space_group_name_H-M  'C2'
_cell_length_a       6.41427
_cell_length_b       6.41427
_cell_length_c       8.0667
_cell_angle_alpha    85.8293
_cell_angle_beta     85.8293
_cell_angle_gamma    49.7403

_symmetry_Int_Tables_number  5
_chemical_formula_structural  KSe3
_chemical_formula_sum  K2Se6
_cell_volume  252.45586262256896
_cell_formula_units_Z  2
loop_
  _symmetry_equiv_pos_site_id
 _symmetry_equiv_pos_as_xyz
 1  'x, y, z'
loop_
 _atom_site_type_symbol
 _atom_site_label
 _atom_site_symmetry_multiplicity
 _atom_site_fract_x
 _atom_site_fract_y
 _atom_site_fract_z
 _atom_site_fract_occupancy
 K  K1  1  0.98550  0.84638  0.72862  1
 K  K2  1  0.15362  0.01450  0.27138  1
 Se  Se1  1  0.97689  0.61025  0.37347  1
 Se  Se2  1  0.38975  0.02311  0.62653  1
 Se  Se3  1  0.72036  0.87165  0.13237  1
 Se  Se4  1  0.12835  0.27964  0.86763  1
 Se  Se5  1  0.65255  0.46903  0.86909  1
 Se  Se6  1  0.53097  0.34745  0.13091  1
