CIF file written using JARVIS-Tools package.
data_Ba3MgSi2O8
_symmetry_space_group_name_H-M  'P-3'
_cell_length_a       9.79301
_cell_length_b       9.79302
_cell_length_c       7.33413
_cell_angle_alpha    90
_cell_angle_beta     90
_cell_angle_gamma    120

_symmetry_Int_Tables_number  147
_chemical_formula_structural  Ba3MgSi2O8
_chemical_formula_sum  Ba9Mg3Si6O24
_cell_volume  609.1328868027103
_cell_formula_units_Z  3
loop_
  _symmetry_equiv_pos_site_id
 _symmetry_equiv_pos_as_xyz
 1  'x, y, z'
loop_
 _atom_site_type_symbol
 _atom_site_label
 _atom_site_symmetry_multiplicity
 _atom_site_fract_x
 _atom_site_fract_y
 _atom_site_fract_z
 _atom_site_fract_occupancy
 Ba  Ba1  1  0.66603  0.66773  0.17787  1
 Ba  Ba2  1  0.33333  0.66667  0.50736  1
 Ba  Ba3  1  0.00170  0.33397  0.17787  1
 Ba  Ba4  1  0.33397  0.33227  0.82213  1
 Ba  Ba5  1  0.00000  0.00000  0.50000  1
 Ba  Ba6  1  0.66773  0.00170  0.82213  1
 Ba  Ba7  1  0.99830  0.66603  0.82213  1
 Ba  Ba8  1  0.33227  0.99830  0.17787  1
 Ba  Ba9  1  0.66667  0.33333  0.49264  1
 Mg  Mg1  1  0.66667  0.33333  0.98390  1
 Mg  Mg2  1  0.00000  0.00000  0.00000  1
 Mg  Mg3  1  0.33333  0.66667  0.01610  1
 O  O1  1  0.95213  0.64446  0.47532  1
 O  O2  1  0.66570  0.50892  0.80144  1
 O  O3  1  0.82558  0.82464  0.82432  1
 O  O4  1  0.17536  0.00094  0.82432  1
 O  O5  1  0.99906  0.17442  0.82432  1
 O  O6  1  0.33432  0.84324  0.84836  1
 O  O7  1  0.15676  0.49108  0.84836  1
 O  O8  1  0.49108  0.33432  0.15164  1
 O  O9  1  0.64446  0.69234  0.52468  1
 O  O10  1  0.15679  0.66570  0.19856  1
 O  O11  1  0.82464  0.99906  0.17568  1
 O  O12  1  0.35554  0.30766  0.47532  1
 O  O13  1  0.66568  0.15676  0.15164  1
 O  O14  1  0.17442  0.17536  0.17568  1
 O  O15  1  0.50892  0.66568  0.84836  1
 O  O16  1  0.84324  0.50892  0.15164  1
 O  O17  1  0.84321  0.33430  0.80144  1
 O  O18  1  0.30766  0.95213  0.52468  1
 O  O19  1  0.50892  0.84321  0.19856  1
 O  O20  1  0.69234  0.04787  0.47532  1
 O  O21  1  0.49108  0.15679  0.80144  1
 O  O22  1  0.04787  0.35554  0.52468  1
 O  O23  1  0.33430  0.49108  0.19856  1
 O  O24  1  0.00094  0.82558  0.17568  1
 Si  Si1  1  0.00857  0.33756  0.74107  1
 Si  Si2  1  0.32899  0.99143  0.74107  1
 Si  Si3  1  0.66244  0.67101  0.74107  1
 Si  Si4  1  0.99143  0.66244  0.25893  1
 Si  Si5  1  0.33756  0.32899  0.25893  1
 Si  Si6  1  0.67101  0.00857  0.25893  1
