CIF file written using JARVIS-Tools package.
data_Ni3P2O8
_symmetry_space_group_name_H-M  'P2_1/c'
_cell_length_a       4.70032
_cell_length_b       5.81337
_cell_length_c       10.1273
_cell_angle_alpha    91.5912
_cell_angle_beta     90
_cell_angle_gamma    90

_symmetry_Int_Tables_number  14
_chemical_formula_structural  Ni3P2O8
_chemical_formula_sum  Ni6P4O6
_cell_volume  276.6179201330751
_cell_formula_units_Z  2
loop_
  _symmetry_equiv_pos_site_id
 _symmetry_equiv_pos_as_xyz
 1  'x, y, z'
loop_
 _atom_site_type_symbol
 _atom_site_label
 _atom_site_symmetry_multiplicity
 _atom_site_fract_x
 _atom_site_fract_y
 _atom_site_fract_z
 _atom_site_fract_occupancy
 Ni  Ni1  1  0.00000  0.50000  0.00000  1
 Ni  Ni2  1  0.98515  0.24430  0.27326  1
 Ni  Ni3  1  0.48515  0.75570  0.22674  1
 Ni  Ni4  1  0.51485  0.24430  0.77326  1
 Ni  Ni5  1  0.01485  0.75570  0.72674  1
 Ni  Ni6  1  0.50000  0.50000  0.50000  1
 O  O1  1  0.73542  0.53350  0.83756  1
 O  O2  1  0.76458  0.53350  0.33757  1
 O  O3  1  0.26458  0.46650  0.16244  1
 O  O4  1  0.20315  0.04733  0.67189  1
 O  O5  1  0.70315  0.95267  0.82811  1
 O  O6  1  0.79684  0.95267  0.32811  1
 O  O7  1  0.29684  0.04733  0.17189  1
 O  O8  1  0.30671  0.25434  0.95046  1
 O  O9  1  0.80671  0.74566  0.54953  1
 O  O10  1  0.69329  0.74566  0.04953  1
 O  O11  1  0.23542  0.46650  0.66243  1
 O  O12  1  0.24787  0.73538  0.39991  1
 O  O13  1  0.19329  0.25434  0.45047  1
 O  O14  1  0.75213  0.26462  0.60009  1
 O  O15  1  0.74787  0.26462  0.10009  1
 O  O16  1  0.25213  0.73538  0.89991  1
 P  P1  1  0.07778  0.24816  0.59397  1
 P  P2  1  0.57779  0.75184  0.90603  1
 P  P3  1  0.92222  0.75184  0.40603  1
 P  P4  1  0.42222  0.24816  0.09397  1
