CIF file written using JARVIS-Tools package.
data_K2NiO2
_symmetry_space_group_name_H-M  'I4/mmm'
_cell_length_a       3.92695
_cell_length_b       3.92695
_cell_length_c       6.96725
_cell_angle_alpha    106.369
_cell_angle_beta     106.369
_cell_angle_gamma    90

_symmetry_Int_Tables_number  139
_chemical_formula_structural  K2NiO2
_chemical_formula_sum  K2NiO2
_cell_volume  98.53995198673091
_cell_formula_units_Z  1
loop_
  _symmetry_equiv_pos_site_id
 _symmetry_equiv_pos_as_xyz
 1  'x, y, z'
loop_
 _atom_site_type_symbol
 _atom_site_label
 _atom_site_symmetry_multiplicity
 _atom_site_fract_x
 _atom_site_fract_y
 _atom_site_fract_z
 _atom_site_fract_occupancy
 K  K1  1  0.65418  0.65418  0.30836  1
 K  K2  1  0.34582  0.34582  0.69164  1
 Ni  Ni1  1  0.00000  0.00000  0.00000  1
 O  O1  1  0.13353  0.13352  0.26705  1
 O  O2  1  0.86648  0.86647  0.73295  1
