CIF file written using JARVIS-Tools package.
data_Li2VO2F
_symmetry_space_group_name_H-M  'Immm'
_cell_length_a       2.84836
_cell_length_b       5.16601
_cell_length_c       4.13321
_cell_angle_alpha    113.581
_cell_angle_beta     90
_cell_angle_gamma    73.9975

_symmetry_Int_Tables_number  71
_chemical_formula_structural  Li2VO2F
_chemical_formula_sum  Li2VO2F
_cell_volume  53.15895286047015
_cell_formula_units_Z  1
loop_
  _symmetry_equiv_pos_site_id
 _symmetry_equiv_pos_as_xyz
 1  'x, y, z'
loop_
 _atom_site_type_symbol
 _atom_site_label
 _atom_site_symmetry_multiplicity
 _atom_site_fract_x
 _atom_site_fract_y
 _atom_site_fract_z
 _atom_site_fract_occupancy
 F  F1  1  0.00000  0.00000  0.50000  1
 Li  Li1  1  0.69254  0.61494  0.30743  1
 Li  Li2  1  0.30746  0.38506  0.69257  1
 O  O1  1  0.34637  0.30725  0.15361  1
 O  O2  1  0.65363  0.69275  0.84639  1
 V  V1  1  0.00000  0.00000  0.00000  1
