CIF file written using JARVIS-Tools package.
data_Ba3Zr2S7
_symmetry_space_group_name_H-M  'I4/mmm'
_cell_length_a       5.01183
_cell_length_b       5.01183
_cell_length_c       13.3619
_cell_angle_alpha    100.809
_cell_angle_beta     100.809
_cell_angle_gamma    90

_symmetry_Int_Tables_number  139
_chemical_formula_structural  Ba3Zr2S7
_chemical_formula_sum  Ba3Zr2S7
_cell_volume  323.6100549799116
_cell_formula_units_Z  1
loop_
  _symmetry_equiv_pos_site_id
 _symmetry_equiv_pos_as_xyz
 1  'x, y, z'
loop_
 _atom_site_type_symbol
 _atom_site_label
 _atom_site_symmetry_multiplicity
 _atom_site_fract_x
 _atom_site_fract_y
 _atom_site_fract_z
 _atom_site_fract_occupancy
 Ba  Ba1  1  0.81887  0.81887  0.63775  1
 Ba  Ba2  1  0.18113  0.18113  0.36225  1
 Ba  Ba3  1  0.00000  0.00000  0.00000  1
 S  S1  1  0.50000  0.50000  0.00000  1
 S  S2  1  0.69831  0.69831  0.39661  1
 S  S3  1  0.30169  0.30169  0.60339  1
 S  S4  1  0.59588  0.09588  0.19176  1
 S  S5  1  0.09588  0.59588  0.19176  1
 S  S6  1  0.90412  0.40412  0.80824  1
 S  S7  1  0.40412  0.90412  0.80824  1
 Zr  Zr1  1  0.60009  0.60009  0.20018  1
 Zr  Zr2  1  0.39991  0.39991  0.79982  1
