CIF file written using JARVIS-Tools package.
data_TbCo2B2C
_symmetry_space_group_name_H-M  'I4/mmm'
_cell_length_a       3.55234
_cell_length_b       3.5524
_cell_length_c       5.7199
_cell_angle_alpha    108.091
_cell_angle_beta     108.091
_cell_angle_gamma    90

_symmetry_Int_Tables_number  139
_chemical_formula_structural  TbCo2B2C
_chemical_formula_sum  TbCo2B2C
_cell_volume  64.84856773077664
_cell_formula_units_Z  1
loop_
  _symmetry_equiv_pos_site_id
 _symmetry_equiv_pos_as_xyz
 1  'x, y, z'
loop_
 _atom_site_type_symbol
 _atom_site_label
 _atom_site_symmetry_multiplicity
 _atom_site_fract_x
 _atom_site_fract_y
 _atom_site_fract_z
 _atom_site_fract_occupancy
 B  B1  1  0.14582  0.14582  0.29165  1
 B  B2  1  0.85418  0.85418  0.70835  1
 C  C1  1  0.00000  0.00000  0.00000  1
 Co  Co1  1  0.75000  0.25000  0.49999  1
 Co  Co2  1  0.25000  0.75000  0.50001  1
 Tb  Tb1  1  0.50000  0.50000  0.00000  1
