CIF file written using JARVIS-Tools package.
data_LiMnP2O7
_symmetry_space_group_name_H-M  'P-1'
_cell_length_a       5.86448
_cell_length_b       6.00846
_cell_length_c       7.83145
_cell_angle_alpha    95.8186
_cell_angle_beta     97.704
_cell_angle_gamma    106.146

_symmetry_Int_Tables_number  2
_chemical_formula_structural  LiMnP2O7
_chemical_formula_sum  Li2Mn2P4O4
_cell_volume  259.8730605938823
_cell_formula_units_Z  2
loop_
  _symmetry_equiv_pos_site_id
 _symmetry_equiv_pos_as_xyz
 1  'x, y, z'
loop_
 _atom_site_type_symbol
 _atom_site_label
 _atom_site_symmetry_multiplicity
 _atom_site_fract_x
 _atom_site_fract_y
 _atom_site_fract_z
 _atom_site_fract_occupancy
 Li  Li1  1  0.00000  0.00000  0.00000  1
 Li  Li2  1  -0.00000  0.00000  0.50000  1
 Mn  Mn1  1  0.65453  0.30642  0.78697  1
 Mn  Mn2  1  0.34547  0.69358  0.21303  1
 O  O1  1  0.18706  0.64913  0.94295  1
 O  O2  1  0.34987  0.31067  0.84872  1
 O  O3  1  0.65013  0.68933  0.15128  1
 O  O4  1  0.73183  0.62826  0.75856  1
 O  O5  1  0.30466  0.61601  0.64518  1
 O  O6  1  0.61538  -0.01395  0.81169  1
 O  O7  1  0.35559  0.16640  0.50175  1
 O  O8  1  0.64441  0.83360  0.49825  1
 O  O9  1  0.69534  0.38399  0.35482  1
 O  O10  1  0.94980  0.30279  0.70074  1
 O  O11  1  0.26817  0.37174  0.24144  1
 O  O12  1  0.38462  0.01395  0.18831  1
 O  O13  1  0.05020  0.69721  0.29926  1
 O  O14  1  0.81294  0.35087  0.05705  1
 P  P1  1  0.80494  0.52880  0.20441  1
 P  P2  1  0.41730  0.22541  0.32784  1
 P  P3  1  0.58270  0.77459  0.67216  1
 P  P4  1  0.19506  0.47120  0.79559  1
