CIF file written using JARVIS-Tools package.
data_Li2Mn2SbO6
_symmetry_space_group_name_H-M  'Cmce'
_cell_length_a       5.31151
_cell_length_b       5.31151
_cell_length_c       10.0597
_cell_angle_alpha    90
_cell_angle_beta     90
_cell_angle_gamma    116.001

_symmetry_Int_Tables_number  64
_chemical_formula_structural  Li2Mn2SbO6
_chemical_formula_sum  Li4Mn4Sb2O2
_cell_volume  255.0790518151789
_cell_formula_units_Z  2
loop_
  _symmetry_equiv_pos_site_id
 _symmetry_equiv_pos_as_xyz
 1  'x, y, z'
loop_
 _atom_site_type_symbol
 _atom_site_label
 _atom_site_symmetry_multiplicity
 _atom_site_fract_x
 _atom_site_fract_y
 _atom_site_fract_z
 _atom_site_fract_occupancy
 Li  Li1  1  0.10051  0.60051  0.75000  1
 Li  Li2  1  0.39949  0.89949  0.25000  1
 Li  Li3  1  0.60051  0.10051  0.75000  1
 Li  Li4  1  0.89949  0.39949  0.25000  1
 Mn  Mn1  1  0.16230  0.83770  0.50000  1
 Mn  Mn2  1  0.33770  0.66230  0.00000  1
 Mn  Mn3  1  0.66230  0.33770  0.00000  1
 Mn  Mn4  1  0.83770  0.16230  0.50000  1
 O  O1  1  0.80424  0.43411  0.61349  1
 O  O2  1  0.93411  0.30424  0.88651  1
 O  O3  1  0.19576  0.56589  0.38651  1
 O  O4  1  0.43411  0.80424  0.61349  1
 O  O5  1  0.06589  0.69576  0.11349  1
 O  O6  1  0.34206  0.34206  0.09179  1
 O  O7  1  0.56589  0.19576  0.38651  1
 O  O8  1  0.30424  0.93411  0.88651  1
 O  O9  1  0.84206  0.84206  0.40821  1
 O  O10  1  0.15794  0.15794  0.59179  1
 O  O11  1  0.65794  0.65794  0.90821  1
 O  O12  1  0.69576  0.06589  0.11349  1
 Sb  Sb1  1  0.50000  0.50000  0.50000  1
 Sb  Sb2  1  0.00000  0.00000  0.00000  1
