CIF file written using JARVIS-Tools package.
data_SrIn2Hg2
_symmetry_space_group_name_H-M  'I4/mmm'
_cell_length_a       4.62202
_cell_length_b       4.62202
_cell_length_c       7.34246
_cell_angle_alpha    108.346
_cell_angle_beta     108.346
_cell_angle_gamma    90

_symmetry_Int_Tables_number  139
_chemical_formula_structural  SrIn2Hg2
_chemical_formula_sum  SrIn2Hg2
_cell_volume  140.4617046254696
_cell_formula_units_Z  1
loop_
  _symmetry_equiv_pos_site_id
 _symmetry_equiv_pos_as_xyz
 1  'x, y, z'
loop_
 _atom_site_type_symbol
 _atom_site_label
 _atom_site_symmetry_multiplicity
 _atom_site_fract_x
 _atom_site_fract_y
 _atom_site_fract_z
 _atom_site_fract_occupancy
 Hg  Hg1  1  0.60719  0.60719  0.21439  1
 Hg  Hg2  1  0.39281  0.39281  0.78561  1
 In  In1  1  0.25000  0.75000  0.50000  1
 In  In2  1  0.75000  0.25000  0.50000  1
 Sr  Sr1  1  0.00000  0.00000  0.00000  1
