CIF file written using JARVIS-Tools package.
data_PtPbF6
_symmetry_space_group_name_H-M  'R-3m'
_cell_length_a       4.85765
_cell_length_b       4.85765
_cell_length_c       4.85765
_cell_angle_alpha    97.8571
_cell_angle_beta     97.857
_cell_angle_gamma    97.8571

_symmetry_Int_Tables_number  166
_chemical_formula_structural  PtPbF6
_chemical_formula_sum  PtPbF6
_cell_volume  111.06339244914749
_cell_formula_units_Z  1
loop_
  _symmetry_equiv_pos_site_id
 _symmetry_equiv_pos_as_xyz
 1  'x, y, z'
loop_
 _atom_site_type_symbol
 _atom_site_label
 _atom_site_symmetry_multiplicity
 _atom_site_fract_x
 _atom_site_fract_y
 _atom_site_fract_z
 _atom_site_fract_occupancy
 F  F1  1  0.70558  0.70558  0.06262  1
 F  F2  1  0.70558  0.06262  0.70558  1
 F  F3  1  0.29442  0.93738  0.29442  1
 F  F4  1  0.29442  0.29442  0.93738  1
 F  F5  1  0.93738  0.29442  0.29442  1
 F  F6  1  0.06262  0.70558  0.70558  1
 Pb  Pb1  1  0.50000  0.50000  0.50000  1
 Pt  Pt1  1  0.00000  0.00000  0.00000  1
