CIF file written using JARVIS-Tools package.
data_U2RhC2
_symmetry_space_group_name_H-M  'I4/mmm'
_cell_length_a       3.47002
_cell_length_b       3.47002
_cell_length_c       6.73547
_cell_angle_alpha    104.927
_cell_angle_beta     104.927
_cell_angle_gamma    90

_symmetry_Int_Tables_number  139
_chemical_formula_structural  U2RhC2
_chemical_formula_sum  U2RhC2
_cell_volume  75.5292268512319
_cell_formula_units_Z  1
loop_
  _symmetry_equiv_pos_site_id
 _symmetry_equiv_pos_as_xyz
 1  'x, y, z'
loop_
 _atom_site_type_symbol
 _atom_site_label
 _atom_site_symmetry_multiplicity
 _atom_site_fract_x
 _atom_site_fract_y
 _atom_site_fract_z
 _atom_site_fract_occupancy
 C  C1  1  0.82926  0.82926  0.65851  1
 C  C2  1  0.17074  0.17074  0.34149  1
 Rh  Rh1  1  0.00000  0.00000  0.00000  1
 U  U1  1  0.64587  0.64587  0.29173  1
 U  U2  1  0.35413  0.35413  0.70827  1
