CIF file written using JARVIS-Tools package.
data_Sr2NiSe2Cl2O6
_symmetry_space_group_name_H-M  'P2_1/c'
_cell_length_a       5.38454
_cell_length_b       6.44773
_cell_length_c       12.1535
_cell_angle_alpha    90
_cell_angle_beta     93.2068
_cell_angle_gamma    90

_symmetry_Int_Tables_number  14
_chemical_formula_structural  Sr2NiSe2Cl2O6
_chemical_formula_sum  Sr4Ni2Se4Cl4O2
_cell_volume  421.28380775223417
_cell_formula_units_Z  2
loop_
  _symmetry_equiv_pos_site_id
 _symmetry_equiv_pos_as_xyz
 1  'x, y, z'
loop_
 _atom_site_type_symbol
 _atom_site_label
 _atom_site_symmetry_multiplicity
 _atom_site_fract_x
 _atom_site_fract_y
 _atom_site_fract_z
 _atom_site_fract_occupancy
 Cl  Cl1  1  0.45254  0.82307  0.89751  1
 Cl  Cl2  1  0.95254  0.67693  0.39751  1
 Cl  Cl3  1  0.04746  0.32307  0.60249  1
 Cl  Cl4  1  0.54746  0.17693  0.10249  1
 Ni  Ni1  1  0.50000  0.50000  0.00000  1
 Ni  Ni2  1  0.00000  0.00000  0.50000  1
 O  O1  1  0.22089  0.57369  0.10434  1
 O  O2  1  0.06205  0.93199  0.17407  1
 O  O3  1  0.43795  0.43199  0.32593  1
 O  O4  1  0.56205  0.56801  0.67407  1
 O  O5  1  0.77911  0.42631  0.89566  1
 O  O6  1  0.74319  0.62512  0.12183  1
 O  O7  1  0.93795  0.06801  0.82593  1
 O  O8  1  0.27911  0.07369  0.39566  1
 O  O9  1  0.25681  0.37488  0.87817  1
 O  O10  1  0.72089  0.92631  0.60434  1
 O  O11  1  0.75681  0.12512  0.37817  1
 O  O12  1  0.24319  0.87488  0.62183  1
 Se  Se1  1  0.49218  0.73875  0.57018  1
 Se  Se2  1  0.99218  0.76125  0.07018  1
 Se  Se3  1  0.00782  0.23875  0.92982  1
 Se  Se4  1  0.50782  0.26125  0.42982  1
 Sr  Sr1  1  0.98539  0.69728  0.76525  1
 Sr  Sr2  1  0.01461  0.30272  0.23475  1
 Sr  Sr3  1  0.51461  0.19728  0.73475  1
 Sr  Sr4  1  0.48539  0.80272  0.26525  1
