CIF file written using JARVIS-Tools package.
data_CrF6
_symmetry_space_group_name_H-M  'R-3'
_cell_length_a       5.21754
_cell_length_b       5.21754
_cell_length_c       5.21754
_cell_angle_alpha    55.1736
_cell_angle_beta     55.1736
_cell_angle_gamma    55.1736

_symmetry_Int_Tables_number  148
_chemical_formula_structural  CrF6
_chemical_formula_sum  CrF6
_cell_volume  89.16403759470228
_cell_formula_units_Z  1
loop_
  _symmetry_equiv_pos_site_id
 _symmetry_equiv_pos_as_xyz
 1  'x, y, z'
loop_
 _atom_site_type_symbol
 _atom_site_label
 _atom_site_symmetry_multiplicity
 _atom_site_fract_x
 _atom_site_fract_y
 _atom_site_fract_z
 _atom_site_fract_occupancy
 Cr  Cr1  1  0.00000  0.00000  0.00000  1
 F  F1  1  0.91969  0.22167  0.62902  1
 F  F2  1  0.22167  0.62902  0.91969  1
 F  F3  1  0.37098  0.08031  0.77833  1
 F  F4  1  0.77833  0.37098  0.08031  1
 F  F5  1  0.08031  0.77833  0.37098  1
 F  F6  1  0.62902  0.91969  0.22167  1
