CIF file written using JARVIS-Tools package.
data_KSiHO3
_symmetry_space_group_name_H-M  'Cmce'
_cell_length_a       7.54098
_cell_length_b       7.54098
_cell_length_c       11.2519
_cell_angle_alpha    90
_cell_angle_beta     90
_cell_angle_gamma    100.077

_symmetry_Int_Tables_number  64
_chemical_formula_structural  KSiHO3
_chemical_formula_sum  K8Si8H8O24
_cell_volume  629.9831043059366
_cell_formula_units_Z  8
loop_
  _symmetry_equiv_pos_site_id
 _symmetry_equiv_pos_as_xyz
 1  'x, y, z'
loop_
 _atom_site_type_symbol
 _atom_site_label
 _atom_site_symmetry_multiplicity
 _atom_site_fract_x
 _atom_site_fract_y
 _atom_site_fract_z
 _atom_site_fract_occupancy
 H  H1  1  0.66826  0.66826  0.68907  1
 H  H2  1  0.16826  0.16826  0.81093  1
 H  H3  1  0.83174  0.83174  0.18907  1
 H  H4  1  0.33174  0.33174  0.31093  1
 H  H5  1  0.50000  0.00000  0.50000  1
 H  H6  1  0.00000  0.50000  0.00000  1
 H  H7  1  0.00000  0.50000  0.50000  1
 H  H8  1  0.50000  0.00000  0.00000  1
 K  K1  1  0.31849  0.31849  0.54337  1
 K  K2  1  0.01249  0.51249  0.25000  1
 K  K3  1  0.51249  0.01249  0.25000  1
 K  K4  1  0.98751  0.48751  0.75000  1
 K  K5  1  0.48751  0.98751  0.75000  1
 K  K6  1  0.68151  0.68151  0.45663  1
 K  K7  1  0.81849  0.81849  0.95663  1
 K  K8  1  0.18151  0.18151  0.04337  1
 O  O1  1  0.59074  0.13890  0.53505  1
 O  O2  1  0.36110  0.90926  0.03505  1
 O  O3  1  0.09074  0.63890  0.96495  1
 O  O4  1  0.56591  0.33817  0.11288  1
 O  O5  1  0.66183  0.43409  0.88712  1
 O  O6  1  0.16183  0.93409  0.61288  1
 O  O7  1  0.93824  0.93824  0.18305  1
 O  O8  1  0.06591  0.83817  0.38712  1
 O  O9  1  0.43409  0.66183  0.88712  1
 O  O10  1  0.33817  0.56591  0.11288  1
 O  O11  1  0.83817  0.06591  0.38712  1
 O  O12  1  0.93409  0.16183  0.61288  1
 O  O13  1  0.17906  0.17906  0.29970  1
 O  O14  1  0.90926  0.36110  0.03505  1
 O  O15  1  0.63890  0.09074  0.96495  1
 O  O16  1  0.82094  0.82094  0.70030  1
 O  O17  1  0.40926  0.86110  0.46495  1
 O  O18  1  0.06176  0.06176  0.81695  1
 O  O19  1  0.43824  0.43824  0.31695  1
 O  O20  1  0.56176  0.56176  0.68305  1
 O  O21  1  0.32094  0.32094  0.79970  1
 O  O22  1  0.67906  0.67906  0.20030  1
 O  O23  1  0.86110  0.40926  0.46495  1
 O  O24  1  0.13890  0.59074  0.53505  1
 Si  Si1  1  0.19899  0.80101  0.50000  1
 Si  Si2  1  0.98448  0.98448  0.68615  1
 Si  Si3  1  0.48448  0.48448  0.81385  1
 Si  Si4  1  0.01552  0.01552  0.31385  1
 Si  Si5  1  0.51552  0.51552  0.18615  1
 Si  Si6  1  0.30101  0.69899  0.00000  1
 Si  Si7  1  0.80101  0.19899  0.50000  1
 Si  Si8  1  0.69899  0.30101  0.00000  1
