CIF file written using JARVIS-Tools package.
data_PrFe2Si2
_symmetry_space_group_name_H-M  'I4/mmm'
_cell_length_a       4.04162
_cell_length_b       4.04162
_cell_length_c       5.69812
_cell_angle_alpha    110.772
_cell_angle_beta     110.772
_cell_angle_gamma    90

_symmetry_Int_Tables_number  139
_chemical_formula_structural  PrFe2Si2
_chemical_formula_sum  PrFe2Si2
_cell_volume  80.52416586649404
_cell_formula_units_Z  1
loop_
  _symmetry_equiv_pos_site_id
 _symmetry_equiv_pos_as_xyz
 1  'x, y, z'
loop_
 _atom_site_type_symbol
 _atom_site_label
 _atom_site_symmetry_multiplicity
 _atom_site_fract_x
 _atom_site_fract_y
 _atom_site_fract_z
 _atom_site_fract_occupancy
 Fe  Fe1  1  0.75000  0.25000  0.50000  1
 Fe  Fe2  1  0.25000  0.75000  0.50000  1
 Pr  Pr1  1  0.00000  0.00000  0.00000  1
 Si  Si1  1  0.64230  0.64230  0.28461  1
 Si  Si2  1  0.35770  0.35770  0.71539  1
