CIF file written using JARVIS-Tools package.
data_Zr3Cu4Si2
_symmetry_space_group_name_H-M  'P-62m'
_cell_length_a       6.40321
_cell_length_b       6.40321
_cell_length_c       3.98873
_cell_angle_alpha    90
_cell_angle_beta     90
_cell_angle_gamma    120

_symmetry_Int_Tables_number  189
_chemical_formula_structural  Zr3Cu4Si2
_chemical_formula_sum  Zr3Cu4Si2
_cell_volume  141.6320011483922
_cell_formula_units_Z  1
loop_
  _symmetry_equiv_pos_site_id
 _symmetry_equiv_pos_as_xyz
 1  'x, y, z'
loop_
 _atom_site_type_symbol
 _atom_site_label
 _atom_site_symmetry_multiplicity
 _atom_site_fract_x
 _atom_site_fract_y
 _atom_site_fract_z
 _atom_site_fract_occupancy
 Cu  Cu1  1  0.00000  0.00000  0.50000  1
 Cu  Cu2  1  0.00000  0.24722  0.00000  1
 Cu  Cu3  1  0.24722  0.00000  0.00000  1
 Cu  Cu4  1  0.75278  0.75278  0.00000  1
 Si  Si1  1  0.66667  0.33333  0.00000  1
 Si  Si2  1  0.33333  0.66667  0.00000  1
 Zr  Zr1  1  0.41012  0.41012  0.50000  1
 Zr  Zr2  1  0.58988  -0.00000  0.50000  1
 Zr  Zr3  1  -0.00000  0.58988  0.50000  1
