CIF file written using JARVIS-Tools package.
data_Y3In
_symmetry_space_group_name_H-M  'P6_3/mmc'
_cell_length_a       6.87443
_cell_length_b       6.87443
_cell_length_c       5.54113
_cell_angle_alpha    90
_cell_angle_beta     90
_cell_angle_gamma    120

_symmetry_Int_Tables_number  194
_chemical_formula_structural  Y3In
_chemical_formula_sum  Y6In2
_cell_volume  226.77869194822608
_cell_formula_units_Z  2
loop_
  _symmetry_equiv_pos_site_id
 _symmetry_equiv_pos_as_xyz
 1  'x, y, z'
loop_
 _atom_site_type_symbol
 _atom_site_label
 _atom_site_symmetry_multiplicity
 _atom_site_fract_x
 _atom_site_fract_y
 _atom_site_fract_z
 _atom_site_fract_occupancy
 In  In1  1  0.33333  0.66667  0.75000  1
 In  In2  1  0.66667  0.33333  0.25000  1
 Y  Y1  1  0.17163  0.34326  0.25000  1
 Y  Y2  1  0.65674  0.82837  0.25000  1
 Y  Y3  1  0.17163  0.82837  0.25000  1
 Y  Y4  1  0.82837  0.65674  0.75000  1
 Y  Y5  1  0.34326  0.17163  0.75000  1
 Y  Y6  1  0.82837  0.17163  0.75000  1
