CIF file written using JARVIS-Tools package.
data_CaPm3
_symmetry_space_group_name_H-M  'P6_3/mmc'
_cell_length_a       7.36098
_cell_length_b       7.36097
_cell_length_c       5.8739
_cell_angle_alpha    90
_cell_angle_beta     90
_cell_angle_gamma    120

_symmetry_Int_Tables_number  194
_chemical_formula_structural  CaPm3
_chemical_formula_sum  Ca2Pm6
_cell_volume  275.63127246785893
_cell_formula_units_Z  2
loop_
  _symmetry_equiv_pos_site_id
 _symmetry_equiv_pos_as_xyz
 1  'x, y, z'
loop_
 _atom_site_type_symbol
 _atom_site_label
 _atom_site_symmetry_multiplicity
 _atom_site_fract_x
 _atom_site_fract_y
 _atom_site_fract_z
 _atom_site_fract_occupancy
 Ca  Ca1  1  0.33333  0.66667  0.75000  1
 Ca  Ca2  1  0.66667  0.33333  0.25000  1
 Pm  Pm1  1  0.16407  0.32814  0.25000  1
 Pm  Pm2  1  0.67186  0.83593  0.25000  1
 Pm  Pm3  1  0.16407  0.83593  0.25000  1
 Pm  Pm4  1  0.83593  0.67186  0.75000  1
 Pm  Pm5  1  0.32814  0.16407  0.75000  1
 Pm  Pm6  1  0.83593  0.16407  0.75000  1
