CIF file written using JARVIS-Tools package.
data_Co6O5F7
_symmetry_space_group_name_H-M  'Amm2'
_cell_length_a       4.56566
_cell_length_b       4.56566
_cell_length_c       8.80159
_cell_angle_alpha    90
_cell_angle_beta     90
_cell_angle_gamma    96.46

_symmetry_Int_Tables_number  38
_chemical_formula_structural  Co6O5F7
_chemical_formula_sum  Co6O5F7
_cell_volume  182.30665386332575
_cell_formula_units_Z  1
loop_
  _symmetry_equiv_pos_site_id
 _symmetry_equiv_pos_as_xyz
 1  'x, y, z'
loop_
 _atom_site_type_symbol
 _atom_site_label
 _atom_site_symmetry_multiplicity
 _atom_site_fract_x
 _atom_site_fract_y
 _atom_site_fract_z
 _atom_site_fract_occupancy
 Co  Co1  1  0.99471  0.99471  0.00318  1
 Co  Co2  1  0.99471  0.99471  0.33015  1
 Co  Co3  1  0.02605  0.02605  0.66667  1
 Co  Co4  1  0.49423  0.49423  0.16667  1
 Co  Co5  1  0.49327  0.49327  0.84251  1
 Co  Co6  1  0.49327  0.49327  0.49082  1
 F  F1  1  0.78311  0.20634  0.16667  1
 F  F2  1  0.70877  0.70877  0.66667  1
 F  F3  1  0.20327  0.80251  0.50022  1
 F  F4  1  0.20327  0.80251  0.83312  1
 F  F5  1  0.20634  0.78311  0.16667  1
 F  F6  1  0.80251  0.20327  0.50022  1
 F  F7  1  0.80251  0.20327  0.83312  1
 O  O1  1  0.29615  0.29615  0.00149  1
 O  O2  1  0.69271  0.69271  0.00190  1
 O  O3  1  0.69271  0.69271  0.33144  1
 O  O4  1  0.29615  0.29615  0.33185  1
 O  O5  1  0.31625  0.31625  0.66667  1
