CIF file written using JARVIS-Tools package.
data_CuC2S2O6F6
_symmetry_space_group_name_H-M  'P-1'
_cell_length_a       4.81129
_cell_length_b       4.88493
_cell_length_c       10.692
_cell_angle_alpha    88.8296
_cell_angle_beta     77.1998
_cell_angle_gamma    60.9498

_symmetry_Int_Tables_number  2
_chemical_formula_structural  CuC2S2O6F6
_chemical_formula_sum  CuC2S2O6F6
_cell_volume  213.09730724797228
_cell_formula_units_Z  1
loop_
  _symmetry_equiv_pos_site_id
 _symmetry_equiv_pos_as_xyz
 1  'x, y, z'
loop_
 _atom_site_type_symbol
 _atom_site_label
 _atom_site_symmetry_multiplicity
 _atom_site_fract_x
 _atom_site_fract_y
 _atom_site_fract_z
 _atom_site_fract_occupancy
 C  C1  1  0.05454  0.71381  0.66528  1
 C  C2  1  0.94546  0.28619  0.33472  1
 Cu  Cu1  1  0.50000  0.50000  -0.00000  1
 F  F1  1  0.81634  0.94811  0.61962  1
 F  F2  1  0.33896  0.71376  0.62004  1
 F  F3  1  0.66104  0.28624  0.37996  1
 F  F4  1  0.18366  0.05189  0.38038  1
 F  F5  1  0.08888  0.43581  0.62721  1
 F  F6  1  0.91112  0.56419  0.37279  1
 O  O1  1  0.09388  0.91631  0.12631  1
 O  O2  1  0.21892  0.51051  0.88130  1
 O  O3  1  0.78108  0.48949  0.11870  1
 O  O4  1  0.36349  0.23418  0.11905  1
 O  O5  1  0.63651  0.76582  0.88095  1
 O  O6  1  0.90612  0.08369  0.87370  1
 S  S1  1  0.94230  0.77768  0.84483  1
 S  S2  1  0.05770  0.22232  0.15517  1
