CIF file written using JARVIS-Tools package.
data_Ag3Cl
_symmetry_space_group_name_H-M  'P6_3/mmc'
_cell_length_a       6.20256
_cell_length_b       6.20256
_cell_length_c       4.69867
_cell_angle_alpha    90
_cell_angle_beta     90
_cell_angle_gamma    120

_symmetry_Int_Tables_number  194
_chemical_formula_structural  Ag3Cl
_chemical_formula_sum  Ag6Cl2
_cell_volume  156.54821877384862
_cell_formula_units_Z  2
loop_
  _symmetry_equiv_pos_site_id
 _symmetry_equiv_pos_as_xyz
 1  'x, y, z'
loop_
 _atom_site_type_symbol
 _atom_site_label
 _atom_site_symmetry_multiplicity
 _atom_site_fract_x
 _atom_site_fract_y
 _atom_site_fract_z
 _atom_site_fract_occupancy
 Ag  Ag1  1  0.15487  0.30975  0.25000  1
 Ag  Ag2  1  0.69025  0.84513  0.25000  1
 Ag  Ag3  1  0.15487  0.84513  0.25000  1
 Ag  Ag4  1  0.84513  0.69025  0.75000  1
 Ag  Ag5  1  0.30975  0.15487  0.75000  1
 Ag  Ag6  1  0.84513  0.15487  0.75000  1
 Cl  Cl1  1  0.33333  0.66667  0.75000  1
 Cl  Cl2  1  0.66667  0.33333  0.25000  1
