CIF file written using JARVIS-Tools package.
data_Eu2As2O5
_symmetry_space_group_name_H-M  'P4/mmm'
_cell_length_a       4.14888
_cell_length_b       4.14888
_cell_length_c       6.89716
_cell_angle_alpha    90
_cell_angle_beta     90
_cell_angle_gamma    90

_symmetry_Int_Tables_number  123
_chemical_formula_structural  Eu2As2O5
_chemical_formula_sum  Eu2As2O5
_cell_volume  118.7224496910592
_cell_formula_units_Z  1
loop_
  _symmetry_equiv_pos_site_id
 _symmetry_equiv_pos_as_xyz
 1  'x, y, z'
loop_
 _atom_site_type_symbol
 _atom_site_label
 _atom_site_symmetry_multiplicity
 _atom_site_fract_x
 _atom_site_fract_y
 _atom_site_fract_z
 _atom_site_fract_occupancy
 As  As1  1  0.50000  0.50000  0.21179  1
 As  As2  1  0.50000  0.50000  0.78821  1
 Eu  Eu1  1  0.00000  0.00000  0.00000  1
 Eu  Eu2  1  0.00000  0.00000  0.50000  1
 O  O1  1  0.50000  0.00000  0.23678  1
 O  O2  1  0.50000  0.00000  0.76322  1
 O  O3  1  0.50000  0.50000  0.50000  1
 O  O4  1  0.00000  0.50000  0.23678  1
 O  O5  1  0.00000  0.50000  0.76322  1
