CIF file written using JARVIS-Tools package.
data_Ca2PdN2
_symmetry_space_group_name_H-M  'I4/mmm'
_cell_length_a       3.53896
_cell_length_b       3.53892
_cell_length_c       6.82212
_cell_angle_alpha    105.027
_cell_angle_beta     105.033
_cell_angle_gamma    90

_symmetry_Int_Tables_number  139
_chemical_formula_structural  Ca2PdN2
_chemical_formula_sum  Ca2PdN2
_cell_volume  79.48770885264781
_cell_formula_units_Z  1
loop_
  _symmetry_equiv_pos_site_id
 _symmetry_equiv_pos_as_xyz
 1  'x, y, z'
loop_
 _atom_site_type_symbol
 _atom_site_label
 _atom_site_symmetry_multiplicity
 _atom_site_fract_x
 _atom_site_fract_y
 _atom_site_fract_z
 _atom_site_fract_occupancy
 Ca  Ca1  1  0.15538  0.15538  0.81077  1
 Ca  Ca2  1  0.84462  0.84462  0.18923  1
 N  N1  1  0.65293  0.65292  0.80586  1
 N  N2  1  0.34707  0.34708  0.19414  1
 Pd  Pd1  1  0.50000  0.50000  0.50000  1
