CIF file written using JARVIS-Tools package.
data_H10C3IN
_symmetry_space_group_name_H-M  'P2_1/m'
_cell_length_a       5.46739
_cell_length_b       6.96917
_cell_length_c       8.10271
_cell_angle_alpha    90
_cell_angle_beta     90
_cell_angle_gamma    103.584

_symmetry_Int_Tables_number  11
_chemical_formula_structural  H10C3IN
_chemical_formula_sum  H20C6I2N2
_cell_volume  300.10258350670085
_cell_formula_units_Z  2
loop_
  _symmetry_equiv_pos_site_id
 _symmetry_equiv_pos_as_xyz
 1  'x, y, z'
loop_
 _atom_site_type_symbol
 _atom_site_label
 _atom_site_symmetry_multiplicity
 _atom_site_fract_x
 _atom_site_fract_y
 _atom_site_fract_z
 _atom_site_fract_occupancy
 C  C1  1  0.40194  0.76069  0.09757  1
 C  C2  1  0.28272  0.37277  0.75000  1
 C  C3  1  0.59806  0.23931  0.59757  1
 C  C4  1  0.40194  0.76069  0.40243  1
 C  C5  1  0.71728  0.62723  0.25000  1
 C  C6  1  0.59806  0.23931  0.90243  1
 H  H1  1  0.29319  0.87450  0.10213  1
 H  H2  1  0.72577  0.38686  0.59518  1
 H  H3  1  0.16517  0.35050  0.63858  1
 H  H4  1  0.47341  0.21840  0.01061  1
 H  H5  1  0.40810  0.52112  0.75000  1
 H  H6  1  0.83483  0.64950  0.13858  1
 H  H7  1  0.52659  0.78160  -0.01061  1
 H  H8  1  0.68720  0.91614  0.25000  1
 H  H9  1  0.72577  0.38686  0.90482  1
 H  H10  1  0.31280  0.08386  0.75000  1
 H  H11  1  0.70681  0.12550  0.89787  1
 H  H12  1  0.70681  0.12550  0.60213  1
 H  H13  1  0.59190  0.47888  0.25000  1
 H  H14  1  0.52659  0.78160  0.51061  1
 H  H15  1  0.27423  0.61314  0.09518  1
 H  H16  1  0.47341  0.21840  0.48939  1
 H  H17  1  0.16517  0.35050  0.86142  1
 H  H18  1  0.29319  0.87450  0.39787  1
 H  H19  1  0.27423  0.61314  0.40482  1
 H  H20  1  0.83483  0.64950  0.36142  1
 I  I1  1  0.95610  0.79793  0.75000  1
 I  I2  1  0.04390  0.20207  0.25000  1
 N  N1  1  0.44027  0.22401  0.75000  1
 N  N2  1  0.55973  0.77599  0.25000  1
