CIF file written using JARVIS-Tools package.
data_Li3AsS3
_symmetry_space_group_name_H-M  'Pna2_1'
_cell_length_a       6.64922
_cell_length_b       7.93239
_cell_length_c       9.88287
_cell_angle_alpha    90
_cell_angle_beta     90
_cell_angle_gamma    90

_symmetry_Int_Tables_number  33
_chemical_formula_structural  Li3AsS3
_chemical_formula_sum  Li2As4S2
_cell_volume  521.2644987927872
_cell_formula_units_Z  4
loop_
  _symmetry_equiv_pos_site_id
 _symmetry_equiv_pos_as_xyz
 1  'x, y, z'
loop_
 _atom_site_type_symbol
 _atom_site_label
 _atom_site_symmetry_multiplicity
 _atom_site_fract_x
 _atom_site_fract_y
 _atom_site_fract_z
 _atom_site_fract_occupancy
 As  As1  1  0.10470  0.75027  0.50088  1
 As  As2  1  0.39530  0.25027  0.50088  1
 As  As3  1  0.60470  0.74973  0.00088  1
 As  As4  1  0.89530  0.24973  0.00088  1
 Li  Li1  1  0.84832  0.41496  0.68830  1
 Li  Li2  1  0.15168  0.58504  0.18830  1
 Li  Li3  1  0.95348  0.93352  0.22128  1
 Li  Li4  1  0.04652  0.06648  0.72128  1
 Li  Li5  1  0.12219  0.75056  0.88690  1
 Li  Li6  1  0.45348  0.56648  0.72128  1
 Li  Li7  1  0.65168  0.91496  0.68830  1
 Li  Li8  1  0.34832  0.08504  0.18830  1
 Li  Li9  1  0.62219  0.74944  0.38690  1
 Li  Li10  1  0.37781  0.25056  0.88690  1
 Li  Li11  1  0.87781  0.24944  0.38690  1
 Li  Li12  1  0.54652  0.43352  0.22128  1
 S  S1  1  0.79713  0.65653  0.17723  1
 S  S2  1  0.71112  0.17977  0.81341  1
 S  S3  1  0.28888  0.82023  0.31341  1
 S  S4  1  0.86038  0.95747  0.49131  1
 S  S5  1  0.13962  0.04253  0.99131  1
 S  S6  1  0.78888  0.67977  0.81341  1
 S  S7  1  0.36038  0.54253  0.99131  1
 S  S8  1  0.21112  0.32023  0.31341  1
 S  S9  1  0.29713  0.84347  0.67723  1
 S  S10  1  0.70287  0.15653  0.17723  1
 S  S11  1  0.63962  0.45747  0.49131  1
 S  S12  1  0.20287  0.34347  0.67723  1
