CIF file written using JARVIS-Tools package.
data_PNO
_symmetry_space_group_name_H-M  'Cc'
_cell_length_a       4.64306
_cell_length_b       4.64306
_cell_length_c       4.99498
_cell_angle_alpha    120.067
_cell_angle_beta     120.067
_cell_angle_gamma    90.1518

_symmetry_Int_Tables_number  9
_chemical_formula_structural  PNO
_chemical_formula_sum  P2N2O2
_cell_volume  75.88654008809337
_cell_formula_units_Z  2
loop_
  _symmetry_equiv_pos_site_id
 _symmetry_equiv_pos_as_xyz
 1  'x, y, z'
loop_
 _atom_site_type_symbol
 _atom_site_label
 _atom_site_symmetry_multiplicity
 _atom_site_fract_x
 _atom_site_fract_y
 _atom_site_fract_z
 _atom_site_fract_occupancy
 N  N1  1  0.13020  0.73754  0.74735  1
 N  N2  1  0.98754  0.88020  0.24735  1
 O  O1  1  0.25891  0.38367  0.25300  1
 O  O2  1  0.63367  0.00891  0.75300  1
 P  P1  1  0.01036  0.97932  0.99965  1
 P  P2  1  0.22932  0.76036  0.49965  1
