CIF file written using JARVIS-Tools package.
data_FeOF
_symmetry_space_group_name_H-M  'Pmmn'
_cell_length_a       3.76185
_cell_length_b       5.71975
_cell_length_c       2.88056
_cell_angle_alpha    90
_cell_angle_beta     89.9983
_cell_angle_gamma    89.9993

_symmetry_Int_Tables_number  59
_chemical_formula_structural  FeOF
_chemical_formula_sum  Fe2O2F2
_cell_volume  61.980648840197325
_cell_formula_units_Z  2
loop_
  _symmetry_equiv_pos_site_id
 _symmetry_equiv_pos_as_xyz
 1  'x, y, z'
loop_
 _atom_site_type_symbol
 _atom_site_label
 _atom_site_symmetry_multiplicity
 _atom_site_fract_x
 _atom_site_fract_y
 _atom_site_fract_z
 _atom_site_fract_occupancy
 F  F1  1  0.25001  0.36523  0.24999  1
 F  F2  1  0.74999  0.63478  0.75001  1
 Fe  Fe1  1  0.25000  0.14636  0.75000  1
 Fe  Fe2  1  0.75000  0.85364  0.25000  1
 O  O1  1  0.25000  0.92194  0.25000  1
 O  O2  1  0.75000  0.07806  0.75000  1
