CIF file written using JARVIS-Tools package.
data_RbNa3Li12Si4O16
_symmetry_space_group_name_H-M  'I4/m'
_cell_length_a       6.31206
_cell_length_b       8.32808
_cell_length_c       8.32817
_cell_angle_alpha    81.7428
_cell_angle_beta     67.7307
_cell_angle_gamma    67.7309

_symmetry_Int_Tables_number  87
_chemical_formula_structural  RbNa3Li12Si4O16
_chemical_formula_sum  RbNa3Li2Si4O6
_cell_volume  374.9186257179591
_cell_formula_units_Z  1
loop_
  _symmetry_equiv_pos_site_id
 _symmetry_equiv_pos_as_xyz
 1  'x, y, z'
loop_
 _atom_site_type_symbol
 _atom_site_label
 _atom_site_symmetry_multiplicity
 _atom_site_fract_x
 _atom_site_fract_y
 _atom_site_fract_z
 _atom_site_fract_occupancy
 Li  Li1  1  0.02108  0.34055  0.12707  1
 Li  Li2  1  0.71543  0.21027  0.35887  1
 Li  Li3  1  0.07430  0.64113  0.21027  1
 Li  Li4  1  0.28457  0.78973  0.64113  1
 Li  Li5  1  0.48871  0.65945  0.87292  1
 Li  Li6  1  0.51129  0.34055  0.12708  1
 Li  Li7  1  0.92570  0.35887  0.78973  1
 Li  Li8  1  0.36163  0.12708  0.65945  1
 Li  Li9  1  0.85184  0.12708  0.65945  1
 Li  Li10  1  0.63837  0.87292  0.34055  1
 Li  Li11  1  0.14816  0.87292  0.34055  1
 Li  Li12  1  0.97892  0.65945  0.87293  1
 Na  Na1  1  0.25000  0.50000  0.50000  1
 Na  Na2  1  0.75000  0.50000  0.50000  1
 Na  Na3  1  0.50000  -0.00000  0.00000  1
 O  O1  1  0.89399  0.78052  0.43151  1
 O  O2  1  0.63317  0.28036  0.88887  1
 O  O3  1  0.52204  0.11113  0.28036  1
 O  O4  1  0.43414  0.72757  0.40415  1
 O  O5  1  0.83829  0.59585  0.72757  1
 O  O6  1  0.16171  0.40415  0.27243  1
 O  O7  1  0.32550  0.56849  0.78052  1
 O  O8  1  0.91353  0.88887  0.71964  1
 O  O9  1  0.10601  0.21948  0.56849  1
 O  O10  1  0.47796  0.88887  0.71964  1
 O  O11  1  0.19760  0.28036  0.88888  1
 O  O12  1  0.56586  0.27243  0.59585  1
 O  O13  1  0.08647  0.11113  0.28036  1
 O  O14  1  0.80240  0.71964  0.11112  1
 O  O15  1  0.67450  0.43151  0.21948  1
 O  O16  1  0.36683  0.71964  0.11113  1
 Rb  Rb1  1  0.00000  0.00000  0.00000  1
 Si  Si1  1  0.77991  0.79546  0.64472  1
 Si  Si2  1  0.42463  0.35528  0.79546  1
 Si  Si3  1  0.22009  0.20454  0.35528  1
 Si  Si4  1  0.57537  0.64472  0.20454  1
