CIF file written using JARVIS-Tools package.
data_CaNiGe
_symmetry_space_group_name_H-M  'P4/nmm'
_cell_length_a       4.18955
_cell_length_b       4.18955
_cell_length_c       6.56339
_cell_angle_alpha    90
_cell_angle_beta     90
_cell_angle_gamma    90

_symmetry_Int_Tables_number  129
_chemical_formula_structural  CaNiGe
_chemical_formula_sum  Ca2Ni2Ge2
_cell_volume  115.20273453994264
_cell_formula_units_Z  2
loop_
  _symmetry_equiv_pos_site_id
 _symmetry_equiv_pos_as_xyz
 1  'x, y, z'
loop_
 _atom_site_type_symbol
 _atom_site_label
 _atom_site_symmetry_multiplicity
 _atom_site_fract_x
 _atom_site_fract_y
 _atom_site_fract_z
 _atom_site_fract_occupancy
 Ca  Ca1  1  0.75000  0.75000  0.32118  1
 Ca  Ca2  1  0.25000  0.25000  0.67882  1
 Ge  Ge1  1  0.75000  0.75000  0.80974  1
 Ge  Ge2  1  0.25000  0.25000  0.19026  1
 Ni  Ni1  1  0.75000  0.25000  0.00000  1
 Ni  Ni2  1  0.25000  0.75000  0.00000  1
