CIF file written using JARVIS-Tools package.
data_NbO2
_symmetry_space_group_name_H-M  'I4_1/amd'
_cell_length_a       5.29162
_cell_length_b       5.29162
_cell_length_c       5.29161
_cell_angle_alpha    134.711
_cell_angle_beta     134.711
_cell_angle_gamma    65.9796

_symmetry_Int_Tables_number  141
_chemical_formula_structural  NbO2
_chemical_formula_sum  Nb2O4
_cell_volume  73.69105824273625
_cell_formula_units_Z  2
loop_
  _symmetry_equiv_pos_site_id
 _symmetry_equiv_pos_as_xyz
 1  'x, y, z'
loop_
 _atom_site_type_symbol
 _atom_site_label
 _atom_site_symmetry_multiplicity
 _atom_site_fract_x
 _atom_site_fract_y
 _atom_site_fract_z
 _atom_site_fract_occupancy
 Nb  Nb1  1  0.00000  0.00000  0.00000  1
 Nb  Nb2  1  0.75000  0.25000  0.50000  1
 O  O1  1  0.50511  0.00511  0.50000  1
 O  O2  1  0.24489  0.24489  -0.00000  1
 O  O3  1  0.99489  0.49489  0.50000  1
 O  O4  1  0.75511  0.75511  0.00000  1
