CIF file written using JARVIS-Tools package.
data_Li5Cr2Co3O10
_symmetry_space_group_name_H-M  'P-1'
_cell_length_a       4.97894
_cell_length_b       4.97993
_cell_length_c       7.55565
_cell_angle_alpha    71.4662
_cell_angle_beta     71.26
_cell_angle_gamma    81.5644

_symmetry_Int_Tables_number  2
_chemical_formula_structural  Li5Cr2Co3O10
_chemical_formula_sum  Li5Cr2Co3O0
_cell_volume  168.00071792787327
_cell_formula_units_Z  1
loop_
  _symmetry_equiv_pos_site_id
 _symmetry_equiv_pos_as_xyz
 1  'x, y, z'
loop_
 _atom_site_type_symbol
 _atom_site_label
 _atom_site_symmetry_multiplicity
 _atom_site_fract_x
 _atom_site_fract_y
 _atom_site_fract_z
 _atom_site_fract_occupancy
 Co  Co1  1  0.00000  0.50000  -0.00000  1
 Co  Co2  1  0.30185  0.00025  0.89804  1
 Co  Co3  1  0.69815  0.99975  0.10196  1
 Cr  Cr1  1  0.89397  0.00719  0.69580  1
 Cr  Cr2  1  0.10603  0.99281  0.30420  1
 Li  Li1  1  0.21881  0.49823  0.58846  1
 Li  Li2  1  0.58843  0.51236  0.79089  1
 Li  Li3  1  0.50000  -0.00000  0.50000  1
 Li  Li4  1  0.41157  0.48764  0.20911  1
 Li  Li5  1  0.78119  0.50177  0.41154  1
 O  O1  1  0.86449  0.76855  0.54829  1
 O  O2  1  0.64233  0.77613  0.94801  1
 O  O3  1  0.03812  0.77001  0.13415  1
 O  O4  1  0.35767  0.22387  0.05199  1
 O  O5  1  0.13551  0.23145  0.45171  1
 O  O6  1  0.22241  0.75997  0.76770  1
 O  O7  1  0.44558  0.76907  0.33529  1
 O  O8  1  0.55442  0.23093  0.66471  1
 O  O9  1  0.77759  0.24003  0.23230  1
 O  O10  1  0.96188  0.22999  0.86585  1
