CIF file written using JARVIS-Tools package.
data_MnSi2Ni
_symmetry_space_group_name_H-M  'P2_1'
_cell_length_a       4.51638
_cell_length_b       4.5172
_cell_length_c       4.54332
_cell_angle_alpha    89.2482
_cell_angle_beta     90
_cell_angle_gamma    90

_symmetry_Int_Tables_number  4
_chemical_formula_structural  MnSi2Ni
_chemical_formula_sum  Mn2Si4Ni2
_cell_volume  92.68219218747475
_cell_formula_units_Z  2
loop_
  _symmetry_equiv_pos_site_id
 _symmetry_equiv_pos_as_xyz
 1  'x, y, z'
loop_
 _atom_site_type_symbol
 _atom_site_label
 _atom_site_symmetry_multiplicity
 _atom_site_fract_x
 _atom_site_fract_y
 _atom_site_fract_z
 _atom_site_fract_occupancy
 Mn  Mn1  1  0.35813  0.63676  0.61116  1
 Mn  Mn2  1  0.85813  0.36324  0.38884  1
 Ni  Ni1  1  0.63724  0.86251  0.10427  1
 Ni  Ni2  1  0.13724  0.13749  0.89573  1
 Si  Si1  1  0.66188  0.34865  0.90590  1
 Si  Si2  1  0.16188  0.65135  0.09410  1
 Si  Si3  1  0.34275  0.15094  0.41683  1
 Si  Si4  1  0.84275  0.84906  0.58317  1
