CIF file written using JARVIS-Tools package.
data_NdLu3
_symmetry_space_group_name_H-M  'P6_3/mmc'
_cell_length_a       7.07677
_cell_length_b       7.07678
_cell_length_c       5.5463
_cell_angle_alpha    90
_cell_angle_beta     90
_cell_angle_gamma    120

_symmetry_Int_Tables_number  194
_chemical_formula_structural  NdLu3
_chemical_formula_sum  Nd2Lu6
_cell_volume  240.54976871053145
_cell_formula_units_Z  2
loop_
  _symmetry_equiv_pos_site_id
 _symmetry_equiv_pos_as_xyz
 1  'x, y, z'
loop_
 _atom_site_type_symbol
 _atom_site_label
 _atom_site_symmetry_multiplicity
 _atom_site_fract_x
 _atom_site_fract_y
 _atom_site_fract_z
 _atom_site_fract_occupancy
 Lu  Lu1  1  0.16423  0.83577  0.25000  1
 Lu  Lu2  1  0.83577  0.67154  0.75000  1
 Lu  Lu3  1  0.32846  0.16423  0.75000  1
 Lu  Lu4  1  0.67154  0.83577  0.25000  1
 Lu  Lu5  1  0.16423  0.32846  0.25000  1
 Lu  Lu6  1  0.83577  0.16423  0.75000  1
 Nd  Nd1  1  0.66667  0.33333  0.25000  1
 Nd  Nd2  1  0.33333  0.66667  0.75000  1
