CIF file written using JARVIS-Tools package.
data_CrBiO3
_symmetry_space_group_name_H-M  'Pnma'
_cell_length_a       5.43559
_cell_length_b       5.61289
_cell_length_c       7.77325
_cell_angle_alpha    90
_cell_angle_beta     90
_cell_angle_gamma    90

_symmetry_Int_Tables_number  62
_chemical_formula_structural  CrBiO3
_chemical_formula_sum  Cr4Bi4O2
_cell_volume  237.15709029629232
_cell_formula_units_Z  4
loop_
  _symmetry_equiv_pos_site_id
 _symmetry_equiv_pos_as_xyz
 1  'x, y, z'
loop_
 _atom_site_type_symbol
 _atom_site_label
 _atom_site_symmetry_multiplicity
 _atom_site_fract_x
 _atom_site_fract_y
 _atom_site_fract_z
 _atom_site_fract_occupancy
 Bi  Bi1  1  0.00954  0.94867  0.75000  1
 Bi  Bi2  1  0.99046  0.05133  0.25000  1
 Bi  Bi3  1  0.50954  0.55133  0.25000  1
 Bi  Bi4  1  0.49046  0.44867  0.75000  1
 Cr  Cr1  1  0.00000  0.50000  0.50000  1
 Cr  Cr2  1  0.00000  0.50000  0.00000  1
 Cr  Cr3  1  0.50000  0.00000  0.00000  1
 Cr  Cr4  1  0.50000  0.00000  0.50000  1
 O  O1  1  0.91208  0.52433  0.75000  1
 O  O2  1  0.58792  0.02433  0.75000  1
 O  O3  1  0.69984  0.29669  0.04297  1
 O  O4  1  0.69984  0.29669  0.45703  1
 O  O5  1  0.80016  0.79669  0.45703  1
 O  O6  1  0.19984  0.20331  0.95703  1
 O  O7  1  0.80016  0.79669  0.04297  1
 O  O8  1  0.19984  0.20331  0.54297  1
 O  O9  1  0.41208  0.97567  0.25000  1
 O  O10  1  0.08792  0.47567  0.25000  1
 O  O11  1  0.30016  0.70331  0.54297  1
 O  O12  1  0.30016  0.70331  0.95703  1
