CIF file written using JARVIS-Tools package.
data_Hf6CoBi2
_symmetry_space_group_name_H-M  'P-62m'
_cell_length_a       7.84849
_cell_length_b       7.84849
_cell_length_c       3.62051
_cell_angle_alpha    90
_cell_angle_beta     90
_cell_angle_gamma    120

_symmetry_Int_Tables_number  189
_chemical_formula_structural  Hf6CoBi2
_chemical_formula_sum  Hf6CoBi2
_cell_volume  193.14016783248383
_cell_formula_units_Z  1
loop_
  _symmetry_equiv_pos_site_id
 _symmetry_equiv_pos_as_xyz
 1  'x, y, z'
loop_
 _atom_site_type_symbol
 _atom_site_label
 _atom_site_symmetry_multiplicity
 _atom_site_fract_x
 _atom_site_fract_y
 _atom_site_fract_z
 _atom_site_fract_occupancy
 Bi  Bi1  1  0.33333  0.66667  0.00000  1
 Bi  Bi2  1  0.66667  0.33333  0.00000  1
 Co  Co1  1  0.00000  0.00000  0.50000  1
 Hf  Hf1  1  -0.00000  0.61583  0.50000  1
 Hf  Hf2  1  0.61583  -0.00000  0.50000  1
 Hf  Hf3  1  0.38417  0.38417  0.50000  1
 Hf  Hf4  1  0.00000  0.23336  0.00000  1
 Hf  Hf5  1  0.23336  0.00000  0.00000  1
 Hf  Hf6  1  0.76664  0.76664  0.00000  1
