CIF file written using JARVIS-Tools package.
data_CrN2
_symmetry_space_group_name_H-M  'Pnnm'
_cell_length_a       3.88334
_cell_length_b       4.79717
_cell_length_c       2.79504
_cell_angle_alpha    90
_cell_angle_beta     90
_cell_angle_gamma    90

_symmetry_Int_Tables_number  58
_chemical_formula_structural  CrN2
_chemical_formula_sum  Cr2N4
_cell_volume  52.068809655285555
_cell_formula_units_Z  2
loop_
  _symmetry_equiv_pos_site_id
 _symmetry_equiv_pos_as_xyz
 1  'x, y, z'
loop_
 _atom_site_type_symbol
 _atom_site_label
 _atom_site_symmetry_multiplicity
 _atom_site_fract_x
 _atom_site_fract_y
 _atom_site_fract_z
 _atom_site_fract_occupancy
 Cr  Cr1  1  0.50000  0.50000  0.50000  1
 Cr  Cr2  1  0.00000  0.00000  0.00000  1
 N  N1  1  0.63503  0.08885  0.50000  1
 N  N2  1  0.36497  0.91115  0.50000  1
 N  N3  1  0.13503  0.41115  0.00000  1
 N  N4  1  0.86497  0.58885  0.00000  1
