CIF file written using JARVIS-Tools package.
data_CrCuSe2
_symmetry_space_group_name_H-M  'R3m'
_cell_length_a       7.1204
_cell_length_b       7.1204
_cell_length_c       7.1204
_cell_angle_alpha    29.5394
_cell_angle_beta     29.5394
_cell_angle_gamma    29.5393

_symmetry_Int_Tables_number  160
_chemical_formula_structural  CrCuSe2
_chemical_formula_sum  CrCuSe2
_cell_volume  77.67425662716275
_cell_formula_units_Z  1
loop_
  _symmetry_equiv_pos_site_id
 _symmetry_equiv_pos_as_xyz
 1  'x, y, z'
loop_
 _atom_site_type_symbol
 _atom_site_label
 _atom_site_symmetry_multiplicity
 _atom_site_fract_x
 _atom_site_fract_y
 _atom_site_fract_z
 _atom_site_fract_occupancy
 Cr  Cr1  1  0.73977  0.73977  0.73977  1
 Cu  Cu1  1  0.25791  0.25791  0.25791  1
 Se  Se1  1  0.98931  0.98931  0.98931  1
 Se  Se2  1  0.14301  0.14301  0.14301  1
