CIF file written using JARVIS-Tools package.
data_Eu2Si4Pd3Au
_symmetry_space_group_name_H-M  'P-4m2'
_cell_length_a       4.22261
_cell_length_b       4.22261
_cell_length_c       10.0438
_cell_angle_alpha    90
_cell_angle_beta     90
_cell_angle_gamma    90

_symmetry_Int_Tables_number  115
_chemical_formula_structural  Eu2Si4Pd3Au
_chemical_formula_sum  Eu2Si4Pd3Au
_cell_volume  179.08501138934056
_cell_formula_units_Z  1
loop_
  _symmetry_equiv_pos_site_id
 _symmetry_equiv_pos_as_xyz
 1  'x, y, z'
loop_
 _atom_site_type_symbol
 _atom_site_label
 _atom_site_symmetry_multiplicity
 _atom_site_fract_x
 _atom_site_fract_y
 _atom_site_fract_z
 _atom_site_fract_occupancy
 Au  Au1  1  0.50000  0.50000  0.00000  1
 Eu  Eu1  1  0.50000  0.00000  0.74778  1
 Eu  Eu2  1  0.00000  0.50000  0.25222  1
 Pd  Pd1  1  0.00000  0.00000  0.50000  1
 Pd  Pd2  1  0.00000  0.00000  0.00000  1
 Pd  Pd3  1  0.50000  0.50000  0.50000  1
 Si  Si1  1  0.00000  0.50000  0.86166  1
 Si  Si2  1  0.50000  0.00000  0.37137  1
 Si  Si3  1  0.50000  0.00000  0.13834  1
 Si  Si4  1  0.00000  0.50000  0.62863  1
