CIF file written using JARVIS-Tools package.
data_NaGeAu
_symmetry_space_group_name_H-M  'Imm2'
_cell_length_a       4.46591
_cell_length_b       5.73663
_cell_length_c       5.73662
_cell_angle_alpha    78.7265
_cell_angle_beta     67.0924
_cell_angle_gamma    67.0924

_symmetry_Int_Tables_number  44
_chemical_formula_structural  NaGeAu
_chemical_formula_sum  Na2Ge2Au2
_cell_volume  124.53313078000477
_cell_formula_units_Z  2
loop_
  _symmetry_equiv_pos_site_id
 _symmetry_equiv_pos_as_xyz
 1  'x, y, z'
loop_
 _atom_site_type_symbol
 _atom_site_label
 _atom_site_symmetry_multiplicity
 _atom_site_fract_x
 _atom_site_fract_y
 _atom_site_fract_z
 _atom_site_fract_occupancy
 Au  Au1  1  -0.00016  0.20582  0.79450  1
 Au  Au2  1  -0.00016  0.79450  0.20582  1
 Ge  Ge1  1  0.67695  0.00128  0.64482  1
 Ge  Ge2  1  0.67695  0.64482  0.00128  1
 Na  Na1  1  0.28292  0.21708  0.21708  1
 Na  Na2  1  0.40565  0.59435  0.59435  1
