CIF file written using JARVIS-Tools package.
data_Re2Cl5O4
_symmetry_space_group_name_H-M  'P-1'
_cell_length_a       5.43863
_cell_length_b       8.84065
_cell_length_c       11.0293
_cell_angle_alpha    67.0503
_cell_angle_beta     79.4964
_cell_angle_gamma    78.8124

_symmetry_Int_Tables_number  2
_chemical_formula_structural  Re2Cl5O4
_chemical_formula_sum  Re4Cl0O8
_cell_volume  475.69548048510075
_cell_formula_units_Z  2
loop_
  _symmetry_equiv_pos_site_id
 _symmetry_equiv_pos_as_xyz
 1  'x, y, z'
loop_
 _atom_site_type_symbol
 _atom_site_label
 _atom_site_symmetry_multiplicity
 _atom_site_fract_x
 _atom_site_fract_y
 _atom_site_fract_z
 _atom_site_fract_occupancy
 Cl  Cl1  1  0.77213  0.37307  0.10866  1
 Cl  Cl2  1  0.56824  0.10941  0.70073  1
 Cl  Cl3  1  0.97963  0.36414  0.78730  1
 Cl  Cl4  1  0.43176  0.89059  0.29927  1
 Cl  Cl5  1  0.21896  0.92857  0.60946  1
 Cl  Cl6  1  0.02037  0.63586  0.21270  1
 Cl  Cl7  1  0.78104  0.07143  0.39054  1
 Cl  Cl8  1  0.58367  0.80335  0.97982  1
 Cl  Cl9  1  0.22787  0.62693  0.89134  1
 Cl  Cl10  1  0.41633  0.19665  0.02018  1
 O  O1  1  0.92686  0.00948  0.12734  1
 O  O2  1  0.29761  0.25371  0.28081  1
 O  O3  1  0.07314  0.99052  0.87266  1
 O  O4  1  0.70239  0.74629  0.71919  1
 O  O5  1  0.98399  0.67028  0.50316  1
 O  O6  1  0.52051  0.55259  0.61297  1
 O  O7  1  0.01601  0.32972  0.49684  1
 O  O8  1  0.47949  0.44741  0.38703  1
 Re  Re1  1  0.66539  0.10669  0.18959  1
 Re  Re2  1  0.78868  0.59438  0.64878  1
 Re  Re3  1  0.33461  0.89331  0.81041  1
 Re  Re4  1  0.21132  0.40562  0.35122  1
