CIF file written using JARVIS-Tools package.
data_TaMn2B4
_symmetry_space_group_name_H-M  'Immm'
_cell_length_a       3.03475
_cell_length_b       3.17629
_cell_length_c       6.80494
_cell_angle_alpha    103.496
_cell_angle_beta     102.884
_cell_angle_gamma    90

_symmetry_Int_Tables_number  71
_chemical_formula_structural  TaMn2B4
_chemical_formula_sum  TaMn2B4
_cell_volume  62.08352435404638
_cell_formula_units_Z  1
loop_
  _symmetry_equiv_pos_site_id
 _symmetry_equiv_pos_as_xyz
 1  'x, y, z'
loop_
 _atom_site_type_symbol
 _atom_site_label
 _atom_site_symmetry_multiplicity
 _atom_site_fract_x
 _atom_site_fract_y
 _atom_site_fract_z
 _atom_site_fract_occupancy
 B  B1  1  0.35363  0.35363  0.70725  1
 B  B2  1  0.64637  0.64637  0.29275  1
 B  B3  1  0.92758  0.42758  0.85517  1
 B  B4  1  0.07242  0.57242  0.14483  1
 Mn  Mn1  1  0.18743  0.18743  0.37485  1
 Mn  Mn2  1  0.81257  0.81257  0.62515  1
 Ta  Ta1  1  0.50000  0.00000  0.00000  1
