CIF file written using JARVIS-Tools package.
data_As2Os
_symmetry_space_group_name_H-M  'Pnnm'
_cell_length_a       3.07203
_cell_length_b       5.4873
_cell_length_c       6.27716
_cell_angle_alpha    90
_cell_angle_beta     90
_cell_angle_gamma    90

_symmetry_Int_Tables_number  58
_chemical_formula_structural  As2Os
_chemical_formula_sum  As4Os2
_cell_volume  105.81499618548044
_cell_formula_units_Z  2
loop_
  _symmetry_equiv_pos_site_id
 _symmetry_equiv_pos_as_xyz
 1  'x, y, z'
loop_
 _atom_site_type_symbol
 _atom_site_label
 _atom_site_symmetry_multiplicity
 _atom_site_fract_x
 _atom_site_fract_y
 _atom_site_fract_z
 _atom_site_fract_occupancy
 As  As1  1  0.50000  0.32875  0.86550  1
 As  As2  1  0.50000  0.67125  0.13450  1
 As  As3  1  0.00000  0.17125  0.36550  1
 As  As4  1  0.00000  0.82875  0.63450  1
 Os  Os1  1  0.50000  0.50000  0.50000  1
 Os  Os2  1  0.00000  0.00000  0.00000  1
