CIF file written using JARVIS-Tools package.
data_Te2W3Se2S2
_symmetry_space_group_name_H-M  'P3m1'
_cell_length_a       3.35322
_cell_length_b       3.35326
_cell_length_c       20.6733
_cell_angle_alpha    89.9849
_cell_angle_beta     90
_cell_angle_gamma    120

_symmetry_Int_Tables_number  156
_chemical_formula_structural  Te2W3Se2S2
_chemical_formula_sum  Te2W3Se2S2
_cell_volume  201.3127888629745
_cell_formula_units_Z  1
loop_
  _symmetry_equiv_pos_site_id
 _symmetry_equiv_pos_as_xyz
 1  'x, y, z'
loop_
 _atom_site_type_symbol
 _atom_site_label
 _atom_site_symmetry_multiplicity
 _atom_site_fract_x
 _atom_site_fract_y
 _atom_site_fract_z
 _atom_site_fract_occupancy
 S  S1  1  0.33349  0.66698  0.41453  1
 S  S2  1  0.33363  0.66726  0.26712  1
 Se  Se1  1  0.66681  0.33362  -0.04797  1
 Se  Se2  1  0.66661  0.33322  0.11388  1
 Te  Te1  1  0.66648  0.33296  0.57476  1
 Te  Te2  1  0.66627  0.33253  0.75957  1
 W  W1  1  0.33338  0.66676  0.03294  1
 W  W2  1  0.33304  0.66608  0.66720  1
 W  W3  1  0.66689  0.33379  0.34081  1
