CIF file written using JARVIS-Tools package.
data_SrAu2
_symmetry_space_group_name_H-M  'Imma'
_cell_length_a       4.78888
_cell_length_b       6.09464
_cell_length_c       6.09464
_cell_angle_alpha    76.1143
_cell_angle_beta     66.8664
_cell_angle_gamma    66.8664

_symmetry_Int_Tables_number  74
_chemical_formula_structural  SrAu2
_chemical_formula_sum  Sr2Au4
_cell_volume  149.65184853755778
_cell_formula_units_Z  2
loop_
  _symmetry_equiv_pos_site_id
 _symmetry_equiv_pos_as_xyz
 1  'x, y, z'
loop_
 _atom_site_type_symbol
 _atom_site_label
 _atom_site_symmetry_multiplicity
 _atom_site_fract_x
 _atom_site_fract_y
 _atom_site_fract_z
 _atom_site_fract_occupancy
 Au  Au1  1  0.16401  0.29817  0.37380  1
 Au  Au2  1  0.83599  0.70183  0.62620  1
 Au  Au3  1  0.16401  0.87380  0.79817  1
 Au  Au4  1  0.83599  0.12620  0.20183  1
 Sr  Sr1  1  0.53368  0.71632  0.21632  1
 Sr  Sr2  1  0.46632  0.28368  0.78368  1
