CIF file written using JARVIS-Tools package.
data_ZnHgTe2
_symmetry_space_group_name_H-M  'R3m'
_cell_length_a       7.85096
_cell_length_b       7.85096
_cell_length_c       7.85096
_cell_angle_alpha    33.4019
_cell_angle_beta     33.4019
_cell_angle_gamma    33.402

_symmetry_Int_Tables_number  160
_chemical_formula_structural  ZnHgTe2
_chemical_formula_sum  ZnHgTe2
_cell_volume  130.59601229770345
_cell_formula_units_Z  1
loop_
  _symmetry_equiv_pos_site_id
 _symmetry_equiv_pos_as_xyz
 1  'x, y, z'
loop_
 _atom_site_type_symbol
 _atom_site_label
 _atom_site_symmetry_multiplicity
 _atom_site_fract_x
 _atom_site_fract_y
 _atom_site_fract_z
 _atom_site_fract_occupancy
 Hg  Hg1  1  0.00215  0.00215  0.00215  1
 Te  Te1  1  0.12992  0.12992  0.12992  1
 Te  Te2  1  0.61896  0.61896  0.61896  1
 Zn  Zn1  1  0.49897  0.49897  0.49897  1
