CIF file written using JARVIS-Tools package.
data_NaPrS2
_symmetry_space_group_name_H-M  'R-3m'
_cell_length_a       7.04151
_cell_length_b       7.04151
_cell_length_c       7.04151
_cell_angle_alpha    34.2995
_cell_angle_beta     34.2995
_cell_angle_gamma    34.2994

_symmetry_Int_Tables_number  166
_chemical_formula_structural  NaPrS2
_chemical_formula_sum  NaPrS2
_cell_volume  98.87657750143082
_cell_formula_units_Z  1
loop_
  _symmetry_equiv_pos_site_id
 _symmetry_equiv_pos_as_xyz
 1  'x, y, z'
loop_
 _atom_site_type_symbol
 _atom_site_label
 _atom_site_symmetry_multiplicity
 _atom_site_fract_x
 _atom_site_fract_y
 _atom_site_fract_z
 _atom_site_fract_occupancy
 Na  Na1  1  0.00000  0.00000  0.00000  1
 Pr  Pr1  1  0.50000  0.50000  0.50000  1
 S  S1  1  0.24624  0.24624  0.24624  1
 S  S2  1  0.75376  0.75376  0.75376  1
