CIF file written using JARVIS-Tools package.
data_Rb2CoF4
_symmetry_space_group_name_H-M  'I4/mmm'
_cell_length_a       4.11911
_cell_length_b       4.11911
_cell_length_c       7.46727
_cell_angle_alpha    106.01
_cell_angle_beta     106.01
_cell_angle_gamma    90

_symmetry_Int_Tables_number  139
_chemical_formula_structural  Rb2CoF4
_chemical_formula_sum  Rb2CoF4
_cell_volume  116.66216721627885
_cell_formula_units_Z  1
loop_
  _symmetry_equiv_pos_site_id
 _symmetry_equiv_pos_as_xyz
 1  'x, y, z'
loop_
 _atom_site_type_symbol
 _atom_site_label
 _atom_site_symmetry_multiplicity
 _atom_site_fract_x
 _atom_site_fract_y
 _atom_site_fract_z
 _atom_site_fract_occupancy
 Co  Co1  1  0.00000  0.00000  0.00000  1
 F  F1  1  0.50000  0.00000  -0.00000  1
 F  F2  1  0.00000  0.50000  -0.00000  1
 F  F3  1  0.85080  0.85080  0.70160  1
 F  F4  1  0.14920  0.14920  0.29840  1
 Rb  Rb1  1  0.64700  0.64700  0.29400  1
 Rb  Rb2  1  0.35300  0.35300  0.70600  1
