CIF file written using JARVIS-Tools package.
data_NbP2
_symmetry_space_group_name_H-M  'C2/m'
_cell_length_a       3.31633
_cell_length_b       4.78406
_cell_length_c       6.88526
_cell_angle_alpha    78.9778
_cell_angle_beta     76.0646
_cell_angle_gamma    69.7204

_symmetry_Int_Tables_number  12
_chemical_formula_structural  NbP2
_chemical_formula_sum  Nb2P4
_cell_volume  98.75236749487877
_cell_formula_units_Z  2
loop_
  _symmetry_equiv_pos_site_id
 _symmetry_equiv_pos_as_xyz
 1  'x, y, z'
loop_
 _atom_site_type_symbol
 _atom_site_label
 _atom_site_symmetry_multiplicity
 _atom_site_fract_x
 _atom_site_fract_y
 _atom_site_fract_z
 _atom_site_fract_occupancy
 Nb  Nb1  1  0.16043  0.87987  0.79926  1
 Nb  Nb2  1  0.83957  0.12013  0.20074  1
 P  P1  1  0.40467  0.29268  0.89798  1
 P  P2  1  0.59533  0.70732  0.10202  1
 P  P3  1  0.86721  0.73905  0.52653  1
 P  P4  1  0.13279  0.26095  0.47347  1
