CIF file written using JARVIS-Tools package.
data_Na6Fe2C4SO16
_symmetry_space_group_name_H-M  'Fd-3'
_cell_length_a       9.85038
_cell_length_b       9.85038
_cell_length_c       9.85038
_cell_angle_alpha    60
_cell_angle_beta     60
_cell_angle_gamma    60

_symmetry_Int_Tables_number  203
_chemical_formula_structural  Na6Fe2C4SO16
_chemical_formula_sum  Na2Fe4C8S2O32
_cell_volume  675.8392947003651
_cell_formula_units_Z  2
loop_
  _symmetry_equiv_pos_site_id
 _symmetry_equiv_pos_as_xyz
 1  'x, y, z'
loop_
 _atom_site_type_symbol
 _atom_site_label
 _atom_site_symmetry_multiplicity
 _atom_site_fract_x
 _atom_site_fract_y
 _atom_site_fract_z
 _atom_site_fract_occupancy
 C  C1  1  0.71946  0.34164  0.71946  1
 C  C2  1  0.65836  0.28054  0.28054  1
 C  C3  1  0.28054  0.65836  0.28054  1
 C  C4  1  0.71946  0.71946  0.71946  1
 C  C5  1  0.34164  0.71946  0.71946  1
 C  C6  1  0.71946  0.71946  0.34164  1
 C  C7  1  0.28054  0.28054  0.28054  1
 C  C8  1  0.28054  0.28054  0.65836  1
 Fe  Fe1  1  -0.00000  0.50000  0.50000  1
 Fe  Fe2  1  0.50000  0.00000  0.50000  1
 Fe  Fe3  1  0.50000  0.50000  -0.00000  1
 Fe  Fe4  1  0.50000  0.50000  0.50000  1
 Na  Na1  1  0.90894  0.90894  0.34106  1
 Na  Na2  1  0.65894  0.09106  0.65894  1
 Na  Na3  1  0.09106  0.65894  0.65894  1
 Na  Na4  1  0.90894  0.34106  0.90894  1
 Na  Na5  1  0.90894  0.34106  0.34106  1
 Na  Na6  1  0.34106  0.90894  0.34106  1
 Na  Na7  1  0.34106  0.34106  0.90894  1
 Na  Na8  1  0.65894  0.09106  0.09106  1
 Na  Na9  1  0.09106  0.65894  0.09106  1
 Na  Na10  1  0.09106  0.09106  0.65894  1
 Na  Na11  1  0.65894  0.65894  0.09106  1
 Na  Na12  1  0.34106  0.90894  0.90894  1
 O  O1  1  0.33979  0.86170  0.69718  1
 O  O2  1  0.39867  0.13830  0.66021  1
 O  O3  1  0.69718  0.60133  0.33979  1
 O  O4  1  0.60133  0.33979  0.69718  1
 O  O5  1  0.93683  0.93683  0.93683  1
 O  O6  1  0.68950  0.93683  0.93683  1
 O  O7  1  0.93683  0.93683  0.68950  1
 O  O8  1  0.39867  0.30282  0.13830  1
 O  O9  1  0.93683  0.68950  0.93683  1
 O  O10  1  0.06317  0.31050  0.06317  1
 O  O11  1  0.06317  0.06317  0.31050  1
 O  O12  1  0.13830  0.39867  0.30282  1
 O  O13  1  0.30282  0.13830  0.39867  1
 O  O14  1  0.60133  0.86170  0.33979  1
 O  O15  1  0.39867  0.66021  0.30282  1
 O  O16  1  0.31050  0.06317  0.06317  1
 O  O17  1  0.66021  0.13830  0.30282  1
 O  O18  1  0.66021  0.39867  0.13830  1
 O  O19  1  0.86170  0.33979  0.60133  1
 O  O20  1  0.13830  0.66021  0.39867  1
 O  O21  1  0.30282  0.66021  0.13830  1
 O  O22  1  0.30282  0.39867  0.66021  1
 O  O23  1  0.86170  0.69718  0.33979  1
 O  O24  1  0.86170  0.60133  0.69718  1
 O  O25  1  0.33979  0.69718  0.60133  1
 O  O26  1  0.33979  0.60133  0.86170  1
 O  O27  1  0.13830  0.30282  0.66021  1
 O  O28  1  0.60133  0.69718  0.86170  1
 O  O29  1  0.69718  0.33979  0.86170  1
 O  O30  1  0.66021  0.30282  0.39867  1
 O  O31  1  0.69718  0.86170  0.60133  1
 O  O32  1  0.06317  0.06317  0.06317  1
 S  S1  1  0.12500  0.12500  0.12500  1
 S  S2  1  0.87500  0.87500  0.87500  1
