CIF file written using JARVIS-Tools package.
data_InBr
_symmetry_space_group_name_H-M  'Cmcm'
_cell_length_a       4.5181
_cell_length_b       4.66729
_cell_length_c       6.61617
_cell_angle_alpha    90
_cell_angle_beta     109.965
_cell_angle_gamma    90

_symmetry_Int_Tables_number  63
_chemical_formula_structural  InBr
_chemical_formula_sum  In2Br2
_cell_volume  131.13224979287386
_cell_formula_units_Z  2
loop_
  _symmetry_equiv_pos_site_id
 _symmetry_equiv_pos_as_xyz
 1  'x, y, z'
loop_
 _atom_site_type_symbol
 _atom_site_label
 _atom_site_symmetry_multiplicity
 _atom_site_fract_x
 _atom_site_fract_y
 _atom_site_fract_z
 _atom_site_fract_occupancy
 Br  Br1  1  0.85271  0.25000  0.70541  1
 Br  Br2  1  0.14729  0.75000  0.29459  1
 In  In1  1  0.60798  0.25000  0.21596  1
 In  In2  1  0.39202  0.75000  0.78404  1
