CIF file written using JARVIS-Tools package.
data_Cr3Fe2Sb3O16
_symmetry_space_group_name_H-M  'Cm'
_cell_length_a       6.03925
_cell_length_b       6.03922
_cell_length_c       8.82568
_cell_angle_alpha    89.1177
_cell_angle_beta     89.118
_cell_angle_gamma    60.1102

_symmetry_Int_Tables_number  8
_chemical_formula_structural  Cr3Fe2Sb3O16
_chemical_formula_sum  Cr3Fe2Sb3O6
_cell_volume  279.03249648004675
_cell_formula_units_Z  1
loop_
  _symmetry_equiv_pos_site_id
 _symmetry_equiv_pos_as_xyz
 1  'x, y, z'
loop_
 _atom_site_type_symbol
 _atom_site_label
 _atom_site_symmetry_multiplicity
 _atom_site_fract_x
 _atom_site_fract_y
 _atom_site_fract_z
 _atom_site_fract_occupancy
 Cr  Cr1  1  0.66957  0.16740  0.21319  1
 Cr  Cr2  1  0.16744  0.66954  0.21319  1
 Cr  Cr3  1  0.82739  0.82739  0.69941  1
 Fe  Fe1  1  0.34002  0.34000  0.48272  1
 Fe  Fe2  1  0.67964  0.67961  0.00257  1
 O  O1  1  0.65803  0.16582  0.59650  1
 O  O2  1  0.46971  0.46965  0.34146  1
 O  O3  1  0.33903  0.33901  0.09936  1
 O  O4  1  0.51434  0.51433  0.84158  1
 O  O5  1  0.99062  0.99063  0.81694  1
 O  O6  1  0.16583  0.65802  0.59650  1
 O  O7  1  0.99806  0.99804  0.32109  1
 O  O8  1  0.05760  0.47970  0.35060  1
 O  O9  1  0.95140  0.52503  0.83105  1
 O  O10  1  0.16650  0.16650  0.59274  1
 O  O11  1  0.47972  0.05757  0.35061  1
 O  O12  1  0.52504  0.95139  0.83106  1
 O  O13  1  0.66548  0.66551  0.58303  1
 O  O14  1  0.82956  0.33934  0.10461  1
 O  O15  1  0.83783  0.83780  0.11628  1
 O  O16  1  0.33938  0.82952  0.10461  1
 Sb  Sb1  1  0.33271  0.82640  0.70766  1
 Sb  Sb2  1  0.82639  0.33273  0.70765  1
 Sb  Sb3  1  0.16891  0.16888  0.21133  1
