CIF file written using JARVIS-Tools package.
data_K2ZnH4
_symmetry_space_group_name_H-M  'Pnma'
_cell_length_a       5.77621
_cell_length_b       7.70155
_cell_length_c       10.1752
_cell_angle_alpha    90
_cell_angle_beta     90
_cell_angle_gamma    90

_symmetry_Int_Tables_number  62
_chemical_formula_structural  K2ZnH4
_chemical_formula_sum  K8Zn4H6
_cell_volume  452.65172606196376
_cell_formula_units_Z  4
loop_
  _symmetry_equiv_pos_site_id
 _symmetry_equiv_pos_as_xyz
 1  'x, y, z'
loop_
 _atom_site_type_symbol
 _atom_site_label
 _atom_site_symmetry_multiplicity
 _atom_site_fract_x
 _atom_site_fract_y
 _atom_site_fract_z
 _atom_site_fract_occupancy
 H  H1  1  0.75000  0.69255  0.92559  1
 H  H2  1  0.98508  0.18364  0.34585  1
 H  H3  1  0.25000  0.30745  0.07441  1
 H  H4  1  0.48508  0.81636  0.65415  1
 H  H5  1  0.01492  0.31636  0.84585  1
 H  H6  1  0.01492  0.81636  0.65415  1
 H  H7  1  0.48508  0.31636  0.84585  1
 H  H8  1  0.51492  0.68364  0.15415  1
 H  H9  1  0.98508  0.68364  0.15415  1
 H  H10  1  0.75000  0.47850  0.41017  1
 H  H11  1  0.75000  0.97850  0.08983  1
 H  H12  1  0.25000  0.52150  0.58983  1
 H  H13  1  0.25000  0.02150  0.91017  1
 H  H14  1  0.25000  0.80745  0.42559  1
 H  H15  1  0.75000  0.19255  0.57441  1
 H  H16  1  0.51492  0.18364  0.34585  1
 K  K1  1  0.25000  0.48436  0.31285  1
 K  K2  1  0.25000  0.98436  0.18715  1
 K  K3  1  0.75000  0.51564  0.68715  1
 K  K4  1  0.75000  0.01564  0.81285  1
 K  K5  1  0.25000  0.15983  0.59285  1
 K  K6  1  0.25000  0.65983  0.90715  1
 K  K7  1  0.75000  0.84017  0.40715  1
 K  K8  1  0.75000  0.34017  0.09285  1
 Zn  Zn1  1  0.75000  0.26331  0.41868  1
 Zn  Zn2  1  0.75000  0.76331  0.08132  1
 Zn  Zn3  1  0.25000  0.73669  0.58132  1
 Zn  Zn4  1  0.25000  0.23669  0.91868  1
