CIF file written using JARVIS-Tools package.
data_Li3V4FeO12
_symmetry_space_group_name_H-M  'C2'
_cell_length_a       6.66081
_cell_length_b       6.66082
_cell_length_c       5.84061
_cell_angle_alpha    73.3744
_cell_angle_beta     106.626
_cell_angle_gamma    101.657

_symmetry_Int_Tables_number  5
_chemical_formula_structural  Li3V4FeO12
_chemical_formula_sum  Li3V4FeO2
_cell_volume  235.86683246462556
_cell_formula_units_Z  1
loop_
  _symmetry_equiv_pos_site_id
 _symmetry_equiv_pos_as_xyz
 1  'x, y, z'
loop_
 _atom_site_type_symbol
 _atom_site_label
 _atom_site_symmetry_multiplicity
 _atom_site_fract_x
 _atom_site_fract_y
 _atom_site_fract_z
 _atom_site_fract_occupancy
 Fe  Fe1  1  0.92247  0.92247  0.25000  1
 Li  Li1  1  0.08335  0.08335  0.75000  1
 Li  Li2  1  0.28231  0.28231  0.25000  1
 Li  Li3  1  0.72620  0.72620  0.75000  1
 O  O1  1  0.00146  0.79103  0.64302  1
 O  O2  1  0.91280  0.63741  0.21883  1
 O  O3  1  0.21608  0.99712  0.17640  1
 O  O4  1  0.38906  0.68007  0.58410  1
 O  O5  1  0.06975  0.37590  0.75492  1
 O  O6  1  0.31365  0.60626  0.08185  1
 O  O7  1  0.68007  0.38906  0.91590  1
 O  O8  1  0.60626  0.31365  0.41815  1
 O  O9  1  0.37590  0.06975  0.74508  1
 O  O10  1  0.79103  0.00146  0.85698  1
 O  O11  1  0.63741  0.91280  0.28117  1
 O  O12  1  0.99712  0.21608  0.32360  1
 V  V1  1  0.80516  0.38124  0.23664  1
 V  V2  1  0.61982  0.18885  0.74046  1
 V  V3  1  0.38124  0.80516  0.26336  1
 V  V4  1  0.18885  0.61982  0.75954  1
