CIF file written using JARVIS-Tools package.
data_TbGe5
_symmetry_space_group_name_H-M  'Immm'
_cell_length_a       3.98955
_cell_length_b       6.14583
_cell_length_c       6.20373
_cell_angle_alpha    119.692
_cell_angle_beta     108.756
_cell_angle_gamma    90

_symmetry_Int_Tables_number  71
_chemical_formula_structural  TbGe5
_chemical_formula_sum  TbGe5
_cell_volume  122.75320653749641
_cell_formula_units_Z  1
loop_
  _symmetry_equiv_pos_site_id
 _symmetry_equiv_pos_as_xyz
 1  'x, y, z'
loop_
 _atom_site_type_symbol
 _atom_site_label
 _atom_site_symmetry_multiplicity
 _atom_site_fract_x
 _atom_site_fract_y
 _atom_site_fract_z
 _atom_site_fract_occupancy
 Ge  Ge1  1  0.66735  0.45651  0.33471  1
 Ge  Ge2  1  0.33265  0.54349  0.66529  1
 Ge  Ge3  1  0.33265  0.12180  0.66529  1
 Ge  Ge4  1  0.66735  0.87820  0.33471  1
 Ge  Ge5  1  0.00000  0.50000  0.00000  1
 Tb  Tb1  1  0.00000  0.00000  0.00000  1
