CIF file written using JARVIS-Tools package.
data_YbBiAu
_symmetry_space_group_name_H-M  'P6_3mc'
_cell_length_a       4.80144
_cell_length_b       4.80144
_cell_length_c       7.83632
_cell_angle_alpha    90
_cell_angle_beta     90
_cell_angle_gamma    120.003

_symmetry_Int_Tables_number  186
_chemical_formula_structural  YbBiAu
_chemical_formula_sum  Yb2Bi2Au2
_cell_volume  156.44846692567015
_cell_formula_units_Z  2
loop_
  _symmetry_equiv_pos_site_id
 _symmetry_equiv_pos_as_xyz
 1  'x, y, z'
loop_
 _atom_site_type_symbol
 _atom_site_label
 _atom_site_symmetry_multiplicity
 _atom_site_fract_x
 _atom_site_fract_y
 _atom_site_fract_z
 _atom_site_fract_occupancy
 Au  Au1  1  0.33333  0.66667  0.42576  1
 Au  Au2  1  0.66667  0.33333  0.92576  1
 Bi  Bi1  1  0.33335  0.66665  0.03996  1
 Bi  Bi2  1  0.66665  0.33335  0.53996  1
 Yb  Yb1  1  0.00003  -0.00003  0.26528  1
 Yb  Yb2  1  -0.00003  0.00003  0.76528  1
