CIF file written using JARVIS-Tools package.
data_UAlAu
_symmetry_space_group_name_H-M  'Immm'
_cell_length_a       5.67629
_cell_length_b       5.6763
_cell_length_c       5.6763
_cell_angle_alpha    129.254
_cell_angle_beta     120.381
_cell_angle_gamma    82.0385

_symmetry_Int_Tables_number  71
_chemical_formula_structural  UAlAu
_chemical_formula_sum  U2Al2Au2
_cell_volume  117.5787560096604
_cell_formula_units_Z  2
loop_
  _symmetry_equiv_pos_site_id
 _symmetry_equiv_pos_as_xyz
 1  'x, y, z'
loop_
 _atom_site_type_symbol
 _atom_site_label
 _atom_site_symmetry_multiplicity
 _atom_site_fract_x
 _atom_site_fract_y
 _atom_site_fract_z
 _atom_site_fract_occupancy
 Al  Al1  1  0.33573  0.83573  0.50000  1
 Al  Al2  1  0.66427  0.16427  0.50000  1
 Au  Au1  1  0.17419  0.17419  0.00000  1
 Au  Au2  1  0.82581  0.82581  -0.00000  1
 U  U1  1  0.24262  0.50000  0.74262  1
 U  U2  1  0.75738  0.50000  0.25738  1
