CIF file written using JARVIS-Tools package.
data_Ga3Hg
_symmetry_space_group_name_H-M  'P6_3/mmc'
_cell_length_a       6.31484
_cell_length_b       6.31485
_cell_length_c       4.91351
_cell_angle_alpha    90
_cell_angle_beta     90
_cell_angle_gamma    120

_symmetry_Int_Tables_number  194
_chemical_formula_structural  Ga3Hg
_chemical_formula_sum  Ga6Hg2
_cell_volume  169.6868483498618
_cell_formula_units_Z  2
loop_
  _symmetry_equiv_pos_site_id
 _symmetry_equiv_pos_as_xyz
 1  'x, y, z'
loop_
 _atom_site_type_symbol
 _atom_site_label
 _atom_site_symmetry_multiplicity
 _atom_site_fract_x
 _atom_site_fract_y
 _atom_site_fract_z
 _atom_site_fract_occupancy
 Ga  Ga1  1  0.16133  0.32265  0.25000  1
 Ga  Ga2  1  0.67735  0.83867  0.25000  1
 Ga  Ga3  1  0.16133  0.83867  0.25000  1
 Ga  Ga4  1  0.83867  0.67735  0.75000  1
 Ga  Ga5  1  0.32265  0.16133  0.75000  1
 Ga  Ga6  1  0.83867  0.16133  0.75000  1
 Hg  Hg1  1  0.33333  0.66667  0.75000  1
 Hg  Hg2  1  0.66667  0.33333  0.25000  1
