CIF file written using JARVIS-Tools package.
data_Sr2Mg3H10
_symmetry_space_group_name_H-M  'C2/m'
_cell_length_a       9.23618
_cell_length_b       9.23618
_cell_length_c       7.42444
_cell_angle_alpha    69.7823
_cell_angle_beta     110.218
_cell_angle_gamma    144.101

_symmetry_Int_Tables_number  12
_chemical_formula_structural  Sr2Mg3H10
_chemical_formula_sum  Sr4Mg6H20
_cell_volume  346.0061366322009
_cell_formula_units_Z  2
loop_
  _symmetry_equiv_pos_site_id
 _symmetry_equiv_pos_as_xyz
 1  'x, y, z'
loop_
 _atom_site_type_symbol
 _atom_site_label
 _atom_site_symmetry_multiplicity
 _atom_site_fract_x
 _atom_site_fract_y
 _atom_site_fract_z
 _atom_site_fract_occupancy
 H  H1  1  0.48477  0.51523  0.81037  1
 H  H2  1  0.15748  0.38472  0.97072  1
 H  H3  1  0.61528  0.84252  0.97072  1
 H  H4  1  0.84252  0.61528  0.02928  1
 H  H5  1  0.38472  0.15748  0.02928  1
 H  H6  1  -0.00000  0.50000  0.00000  1
 H  H7  1  0.60237  0.90883  0.51838  1
 H  H8  1  0.90883  0.60237  0.48162  1
 H  H9  1  0.39763  0.09117  0.48162  1
 H  H10  1  0.09117  0.39763  0.51838  1
 H  H11  1  0.02058  0.97942  0.17805  1
 H  H12  1  0.13528  0.86472  0.74318  1
 H  H13  1  0.76179  0.23821  0.71057  1
 H  H14  1  0.23821  0.76179  0.28943  1
 H  H15  1  0.50000  -0.00000  -0.00000  1
 H  H16  1  0.51523  0.48477  0.18963  1
 H  H17  1  0.23159  0.23159  0.50000  1
 H  H18  1  0.76841  0.76841  0.50000  1
 H  H19  1  0.86472  0.13528  0.25682  1
 H  H20  1  0.97942  0.02058  0.82195  1
 Mg  Mg1  1  0.82484  0.17516  0.97943  1
 Mg  Mg2  1  0.92478  0.07522  0.55172  1
 Mg  Mg3  1  0.07522  0.92478  0.44828  1
 Mg  Mg4  1  0.74251  0.74251  0.00000  1
 Mg  Mg5  1  0.17516  0.82484  0.02057  1
 Mg  Mg6  1  0.25749  0.25749  -0.00000  1
 Sr  Sr1  1  0.38418  0.61582  0.27926  1
 Sr  Sr2  1  0.61582  0.38418  0.72074  1
 Sr  Sr3  1  0.28005  0.71995  0.68490  1
 Sr  Sr4  1  0.71995  0.28005  0.31510  1
