CIF file written using JARVIS-Tools package.
data_Y2Ni2Sn
_symmetry_space_group_name_H-M  'Immm'
_cell_length_a       4.25928
_cell_length_b       5.44348
_cell_length_c       5.44348
_cell_angle_alpha    63.1035
_cell_angle_beta     66.9691
_cell_angle_gamma    66.9691

_symmetry_Int_Tables_number  71
_chemical_formula_structural  Y2Ni2Sn
_chemical_formula_sum  Y2Ni2Sn
_cell_volume  99.9931470958681
_cell_formula_units_Z  1
loop_
  _symmetry_equiv_pos_site_id
 _symmetry_equiv_pos_as_xyz
 1  'x, y, z'
loop_
 _atom_site_type_symbol
 _atom_site_label
 _atom_site_symmetry_multiplicity
 _atom_site_fract_x
 _atom_site_fract_y
 _atom_site_fract_z
 _atom_site_fract_occupancy
 Ni  Ni1  1  0.50000  0.29155  0.70845  1
 Ni  Ni2  1  0.50000  0.70845  0.29155  1
 Sn  Sn1  1  0.00000  0.00000  0.00000  1
 Y  Y1  1  0.79586  0.70414  0.70414  1
 Y  Y2  1  0.20414  0.29586  0.29586  1
