CIF file written using JARVIS-Tools package.
data_BaYCo2O5
_symmetry_space_group_name_H-M  'P4/mmm'
_cell_length_a       3.86216
_cell_length_b       7.36652
_cell_length_c       7.72375
_cell_angle_alpha    90
_cell_angle_beta     90
_cell_angle_gamma    90

_symmetry_Int_Tables_number  123
_chemical_formula_structural  BaYCo2O5
_chemical_formula_sum  Ba2Y2Co4O0
_cell_volume  219.7462529438997
_cell_formula_units_Z  2
loop_
  _symmetry_equiv_pos_site_id
 _symmetry_equiv_pos_as_xyz
 1  'x, y, z'
loop_
 _atom_site_type_symbol
 _atom_site_label
 _atom_site_symmetry_multiplicity
 _atom_site_fract_x
 _atom_site_fract_y
 _atom_site_fract_z
 _atom_site_fract_occupancy
 Ba  Ba1  1  0.00000  0.00000  0.00000  1
 Ba  Ba2  1  0.00000  0.00000  0.50000  1
 Co  Co1  1  0.50000  0.73318  0.75000  1
 Co  Co2  1  0.50000  0.26682  0.25000  1
 Co  Co3  1  0.50000  0.73322  0.25000  1
 Co  Co4  1  0.50000  0.26678  0.75000  1
 O  O1  1  0.50000  0.30761  0.50000  1
 O  O2  1  0.50000  0.69239  0.00000  1
 O  O3  1  0.50000  0.30761  -0.00000  1
 O  O4  1  0.00000  0.69239  0.75000  1
 O  O5  1  0.00000  0.30761  0.25000  1
 O  O6  1  0.50000  -0.00003  0.75000  1
 O  O7  1  0.50000  0.69239  0.50000  1
 O  O8  1  0.00000  0.69245  0.25000  1
 O  O9  1  0.00000  0.30754  0.75000  1
 O  O10  1  0.50000  0.00003  0.25000  1
 Y  Y1  1  0.00000  0.50000  0.00000  1
 Y  Y2  1  0.00000  0.50000  0.50000  1
