CIF file written using JARVIS-Tools package.
data_Fe3CoP4O16
_symmetry_space_group_name_H-M  'Pm'
_cell_length_a       4.74195
_cell_length_b       5.73449
_cell_length_c       9.79274
_cell_angle_alpha    90
_cell_angle_beta     88.9771
_cell_angle_gamma    90

_symmetry_Int_Tables_number  6
_chemical_formula_structural  Fe3CoP4O16
_chemical_formula_sum  Fe3CoP4O6
_cell_volume  266.247988195545
_cell_formula_units_Z  1
loop_
  _symmetry_equiv_pos_site_id
 _symmetry_equiv_pos_as_xyz
 1  'x, y, z'
loop_
 _atom_site_type_symbol
 _atom_site_label
 _atom_site_symmetry_multiplicity
 _atom_site_fract_x
 _atom_site_fract_y
 _atom_site_fract_z
 _atom_site_fract_occupancy
 Co  Co1  1  0.04877  0.50000  0.72853  1
 Fe  Fe1  1  0.44348  0.50000  0.22930  1
 Fe  Fe2  1  0.55594  0.00000  0.76796  1
 Fe  Fe3  1  0.94079  0.00000  0.27783  1
 O  O1  1  0.17842  0.00000  0.43588  1
 O  O2  1  0.25656  0.78648  0.66277  1
 O  O3  1  0.25656  0.21352  0.66277  1
 O  O4  1  0.73681  0.70883  0.34325  1
 O  O5  1  0.29037  0.50000  0.88141  1
 O  O6  1  0.24163  0.78991  0.16346  1
 O  O7  1  0.20022  0.50000  0.38859  1
 O  O8  1  0.34837  0.00000  0.93697  1
 O  O9  1  0.66235  0.50000  0.05600  1
 O  O10  1  0.77266  0.70572  0.82666  1
 O  O11  1  0.24163  0.21009  0.16346  1
 O  O12  1  0.70928  0.00000  0.11969  1
 O  O13  1  0.79348  0.00000  0.61081  1
 O  O14  1  0.73681  0.29117  0.34325  1
 O  O15  1  0.77266  0.29428  0.82666  1
 O  O16  1  0.81502  0.50000  0.57226  1
 P  P1  1  0.88347  0.50000  0.41932  1
 P  P2  1  0.60793  0.50000  0.90310  1
 P  P3  1  0.39465  0.00000  0.09101  1
 P  P4  1  0.11214  0.00000  0.58907  1
