CIF file written using JARVIS-Tools package.
data_KEuPdO3
_symmetry_space_group_name_H-M  'C2/m'
_cell_length_a       3.91945
_cell_length_b       6.85381
_cell_length_c       7.34354
_cell_angle_alpha    103.789
_cell_angle_beta     90
_cell_angle_gamma    106.615

_symmetry_Int_Tables_number  12
_chemical_formula_structural  KEuPdO3
_chemical_formula_sum  K2Eu2Pd2O6
_cell_volume  183.09425755315453
_cell_formula_units_Z  2
loop_
  _symmetry_equiv_pos_site_id
 _symmetry_equiv_pos_as_xyz
 1  'x, y, z'
loop_
 _atom_site_type_symbol
 _atom_site_label
 _atom_site_symmetry_multiplicity
 _atom_site_fract_x
 _atom_site_fract_y
 _atom_site_fract_z
 _atom_site_fract_occupancy
 Eu  Eu1  1  0.64974  0.29947  0.07683  1
 Eu  Eu2  1  0.35026  0.70053  0.92317  1
 K  K1  1  0.35552  0.71104  0.43660  1
 K  K2  1  0.64448  0.28896  0.56340  1
 O  O1  1  0.82929  0.65858  0.13243  1
 O  O2  1  0.84675  0.69350  0.72453  1
 O  O3  1  0.49374  0.98748  0.18846  1
 O  O4  1  0.50626  0.01252  0.81154  1
 O  O5  1  0.17071  0.34142  0.86757  1
 O  O6  1  0.15325  0.30650  0.27547  1
 Pd  Pd1  1  0.99291  0.98581  0.22841  1
 Pd  Pd2  1  0.00709  0.01419  0.77159  1
