CIF file written using JARVIS-Tools package.
data_VP2
_symmetry_space_group_name_H-M  'C2/m'
_cell_length_a       3.138
_cell_length_b       4.54065
_cell_length_c       6.51165
_cell_angle_alpha    79.0961
_cell_angle_beta     76.0573
_cell_angle_gamma    69.785

_symmetry_Int_Tables_number  12
_chemical_formula_structural  VP2
_chemical_formula_sum  V2P4
_cell_volume  83.92787932328596
_cell_formula_units_Z  2
loop_
  _symmetry_equiv_pos_site_id
 _symmetry_equiv_pos_as_xyz
 1  'x, y, z'
loop_
 _atom_site_type_symbol
 _atom_site_label
 _atom_site_symmetry_multiplicity
 _atom_site_fract_x
 _atom_site_fract_y
 _atom_site_fract_z
 _atom_site_fract_occupancy
 P  P1  1  0.14182  0.74702  0.96934  1
 P  P2  1  0.85818  0.25298  0.03066  1
 P  P3  1  0.40140  0.79735  0.39986  1
 P  P4  1  0.59860  0.20265  0.60014  1
 V  V1  1  0.84294  0.61589  0.69822  1
 V  V2  1  0.15706  0.38411  0.30178  1
