CIF file written using JARVIS-Tools package.
data_NpF5
_symmetry_space_group_name_H-M  'I4/m'
_cell_length_a       4.46896
_cell_length_b       5.05541
_cell_length_c       5.05541
_cell_angle_alpha    78.7341
_cell_angle_beta     63.7686
_cell_angle_gamma    63.7686

_symmetry_Int_Tables_number  87
_chemical_formula_structural  NpF5
_chemical_formula_sum  NpF5
_cell_volume  91.90103859969206
_cell_formula_units_Z  1
loop_
  _symmetry_equiv_pos_site_id
 _symmetry_equiv_pos_as_xyz
 1  'x, y, z'
loop_
 _atom_site_type_symbol
 _atom_site_label
 _atom_site_symmetry_multiplicity
 _atom_site_fract_x
 _atom_site_fract_y
 _atom_site_fract_z
 _atom_site_fract_occupancy
 F  F1  1  0.10978  0.18624  0.59420  1
 F  F2  1  0.89022  0.81376  0.40580  1
 F  F3  1  0.70398  0.40580  0.18624  1
 F  F4  1  0.29602  0.59420  0.81376  1
 F  F5  1  0.50000  0.00000  0.00000  1
 Np  Np1  1  0.00000  0.00000  0.00000  1
