CIF file written using JARVIS-Tools package.
data_Na2Si4Cu3O12
_symmetry_space_group_name_H-M  'Pnma'
_cell_length_a       7.60195
_cell_length_b       10.2848
_cell_length_c       13.6796
_cell_angle_alpha    90
_cell_angle_beta     90
_cell_angle_gamma    90

_symmetry_Int_Tables_number  62
_chemical_formula_structural  Na2Si4Cu3O12
_chemical_formula_sum  Na8Si6Cu2O48
_cell_volume  1069.5335126965438
_cell_formula_units_Z  4
loop_
  _symmetry_equiv_pos_site_id
 _symmetry_equiv_pos_as_xyz
 1  'x, y, z'
loop_
 _atom_site_type_symbol
 _atom_site_label
 _atom_site_symmetry_multiplicity
 _atom_site_fract_x
 _atom_site_fract_y
 _atom_site_fract_z
 _atom_site_fract_occupancy
 Cu  Cu1  1  0.25139  0.75000  0.93903  1
 Cu  Cu2  1  0.23588  0.75000  0.71871  1
 Cu  Cu3  1  0.00000  0.00000  0.00000  1
 Cu  Cu4  1  0.76412  0.25000  0.28129  1
 Cu  Cu5  1  0.50000  0.00000  0.50000  1
 Cu  Cu6  1  0.50000  0.50000  0.50000  1
 Cu  Cu7  1  0.73588  0.75000  0.78129  1
 Cu  Cu8  1  0.74861  0.25000  0.06097  1
 Cu  Cu9  1  0.75139  0.75000  0.56097  1
 Cu  Cu10  1  0.00000  0.50000  0.00000  1
 Cu  Cu11  1  0.24861  0.25000  0.43903  1
 Cu  Cu12  1  0.26412  0.25000  0.21871  1
 Na  Na1  1  0.03992  0.75000  0.16647  1
 Na  Na2  1  0.53992  0.75000  0.33353  1
 Na  Na3  1  0.96008  0.25000  0.83353  1
 Na  Na4  1  0.68532  0.75000  0.01303  1
 Na  Na5  1  0.46008  0.25000  0.66647  1
 Na  Na6  1  0.18532  0.75000  0.48697  1
 Na  Na7  1  0.81468  0.25000  0.51303  1
 Na  Na8  1  0.31468  0.25000  0.98697  1
 O  O1  1  0.23877  0.59458  0.22697  1
 O  O2  1  0.76123  0.09458  0.77303  1
 O  O3  1  0.76814  0.87126  0.67159  1
 O  O4  1  0.97011  0.41893  0.61849  1
 O  O5  1  0.73186  0.12874  0.17159  1
 O  O6  1  0.73877  0.90542  0.27303  1
 O  O7  1  0.23186  0.37126  0.32841  1
 O  O8  1  0.71597  0.60939  0.46630  1
 O  O9  1  0.73186  0.37126  0.17159  1
 O  O10  1  0.71597  0.89061  0.46630  1
 O  O11  1  0.47011  0.41893  0.88151  1
 O  O12  1  0.02989  0.58107  0.38151  1
 O  O13  1  0.79313  0.38030  0.38083  1
 O  O14  1  0.87168  0.59497  0.09492  1
 O  O15  1  0.23186  0.12874  0.32841  1
 O  O16  1  0.47011  0.08107  0.88151  1
 O  O17  1  0.26814  0.62874  0.82841  1
 O  O18  1  0.73877  0.59458  0.27303  1
 O  O19  1  0.52989  0.58107  0.11849  1
 O  O20  1  0.23877  0.90542  0.22697  1
 O  O21  1  0.87168  0.90503  0.09492  1
 O  O22  1  0.62832  0.09497  0.59492  1
 O  O23  1  0.70687  0.61970  0.88083  1
 O  O24  1  0.70687  0.88030  0.88083  1
 O  O25  1  0.52989  0.91893  0.11849  1
 O  O26  1  0.29313  0.38030  0.11917  1
 O  O27  1  0.28403  0.39061  0.53370  1
 O  O28  1  0.76814  0.62874  0.67159  1
 O  O29  1  0.12832  0.40503  0.90508  1
 O  O30  1  0.21597  0.60939  0.03370  1
 O  O31  1  0.02989  0.91893  0.38151  1
 O  O32  1  0.97011  0.08107  0.61849  1
 O  O33  1  0.78403  0.10939  0.96630  1
 O  O34  1  0.62832  0.40503  0.59492  1
 O  O35  1  0.37168  0.59497  0.40508  1
 O  O36  1  0.37168  0.90503  0.40508  1
 O  O37  1  0.76123  0.40542  0.77303  1
 O  O38  1  0.20687  0.61970  0.61917  1
 O  O39  1  0.26123  0.09458  0.72697  1
 O  O40  1  0.21597  0.89061  0.03370  1
 O  O41  1  0.20687  0.88030  0.61917  1
 O  O42  1  0.26814  0.87126  0.82841  1
 O  O43  1  0.78403  0.39061  0.96630  1
 O  O44  1  0.26123  0.40542  0.72697  1
 O  O45  1  0.79313  0.11970  0.38083  1
 O  O46  1  0.12832  0.09497  0.90508  1
 O  O47  1  0.29313  0.11970  0.11917  1
 O  O48  1  0.28403  0.10939  0.53370  1
 Si  Si1  1  0.67892  0.03516  0.87692  1
 Si  Si2  1  0.32108  0.53516  0.12308  1
 Si  Si3  1  0.77849  0.47053  0.66235  1
 Si  Si4  1  0.22151  0.97053  0.33765  1
 Si  Si5  1  0.27849  0.02947  0.83765  1
 Si  Si6  1  0.77849  0.02947  0.66235  1
 Si  Si7  1  0.82108  0.53516  0.37692  1
 Si  Si8  1  0.17892  0.03516  0.62308  1
 Si  Si9  1  0.72151  0.52947  0.16235  1
 Si  Si10  1  0.67892  0.46484  0.87692  1
 Si  Si11  1  0.17892  0.46484  0.62308  1
 Si  Si12  1  0.32108  0.96484  0.12308  1
 Si  Si13  1  0.22151  0.52947  0.33765  1
 Si  Si14  1  0.27849  0.47053  0.83765  1
 Si  Si15  1  0.72151  0.97053  0.16235  1
 Si  Si16  1  0.82108  0.96484  0.37692  1
