CIF file written using JARVIS-Tools package.
data_MnCl2O2
_symmetry_space_group_name_H-M  'C2/m'
_cell_length_a       3.3901
_cell_length_b       4.8377
_cell_length_c       4.8377
_cell_angle_alpha    91.773
_cell_angle_beta     90.1871
_cell_angle_gamma    90.1871

_symmetry_Int_Tables_number  12
_chemical_formula_structural  MnCl2O2
_chemical_formula_sum  MnCl2O2
_cell_volume  79.30098742024892
_cell_formula_units_Z  1
loop_
  _symmetry_equiv_pos_site_id
 _symmetry_equiv_pos_as_xyz
 1  'x, y, z'
loop_
 _atom_site_type_symbol
 _atom_site_label
 _atom_site_symmetry_multiplicity
 _atom_site_fract_x
 _atom_site_fract_y
 _atom_site_fract_z
 _atom_site_fract_occupancy
 Cl  Cl1  1  0.50212  0.23966  0.23966  1
 Cl  Cl2  1  0.49788  0.76034  0.76034  1
 Mn  Mn1  1  0.00000  0.00000  0.00000  1
 O  O1  1  -0.00000  0.76319  0.23681  1
 O  O2  1  -0.00000  0.23681  0.76319  1
