CIF file written using JARVIS-Tools package.
data_LiHO
_symmetry_space_group_name_H-M  'C2/m'
_cell_length_a       3.5086
_cell_length_b       3.5086
_cell_length_c       4.27932
_cell_angle_alpha    89.8383
_cell_angle_beta     90.1617
_cell_angle_gamma    89.9974

_symmetry_Int_Tables_number  12
_chemical_formula_structural  LiHO
_chemical_formula_sum  Li2H2O2
_cell_volume  52.67926306002562
_cell_formula_units_Z  2
loop_
  _symmetry_equiv_pos_site_id
 _symmetry_equiv_pos_as_xyz
 1  'x, y, z'
loop_
 _atom_site_type_symbol
 _atom_site_label
 _atom_site_symmetry_multiplicity
 _atom_site_fract_x
 _atom_site_fract_y
 _atom_site_fract_z
 _atom_site_fract_occupancy
 H  H1  1  0.94668  0.55332  0.44480  1
 H  H2  1  0.44382  0.05618  0.58786  1
 Li  Li1  1  0.44540  0.55471  0.01635  1
 Li  Li2  1  0.94529  0.05460  0.01635  1
 O  O1  1  0.94609  0.55391  0.21737  1
 O  O2  1  0.44458  0.05542  0.81529  1
