CIF file written using JARVIS-Tools package.
data_YbZn3
_symmetry_space_group_name_H-M  'P6_3/mmc'
_cell_length_a       6.25796
_cell_length_b       6.25796
_cell_length_c       4.49004
_cell_angle_alpha    90
_cell_angle_beta     90
_cell_angle_gamma    120

_symmetry_Int_Tables_number  194
_chemical_formula_structural  YbZn3
_chemical_formula_sum  Yb2Zn6
_cell_volume  152.28104139473396
_cell_formula_units_Z  2
loop_
  _symmetry_equiv_pos_site_id
 _symmetry_equiv_pos_as_xyz
 1  'x, y, z'
loop_
 _atom_site_type_symbol
 _atom_site_label
 _atom_site_symmetry_multiplicity
 _atom_site_fract_x
 _atom_site_fract_y
 _atom_site_fract_z
 _atom_site_fract_occupancy
 Yb  Yb1  1  0.33333  0.66667  0.75000  1
 Yb  Yb2  1  0.66667  0.33333  0.25000  1
 Zn  Zn1  1  0.14990  0.29981  0.25000  1
 Zn  Zn2  1  0.70019  0.85010  0.25000  1
 Zn  Zn3  1  0.14990  0.85010  0.25000  1
 Zn  Zn4  1  0.85010  0.70019  0.75000  1
 Zn  Zn5  1  0.29981  0.14990  0.75000  1
 Zn  Zn6  1  0.85010  0.14990  0.75000  1
