CIF file written using JARVIS-Tools package.
data_TiSn6F16
_symmetry_space_group_name_H-M  'C2/c'
_cell_length_a       7.55288
_cell_length_b       9.77221
_cell_length_c       11.09
_cell_angle_alpha    90.4125
_cell_angle_beta     90
_cell_angle_gamma    112.734

_symmetry_Int_Tables_number  15
_chemical_formula_structural  TiSn6F16
_chemical_formula_sum  Ti2Sn2F32
_cell_volume  754.9202938454941
_cell_formula_units_Z  2
loop_
  _symmetry_equiv_pos_site_id
 _symmetry_equiv_pos_as_xyz
 1  'x, y, z'
loop_
 _atom_site_type_symbol
 _atom_site_label
 _atom_site_symmetry_multiplicity
 _atom_site_fract_x
 _atom_site_fract_y
 _atom_site_fract_z
 _atom_site_fract_occupancy
 F  F1  1  0.23493  0.14413  0.78516  1
 F  F2  1  0.37003  0.05551  0.58543  1
 F  F3  1  0.87156  0.74250  0.48881  1
 F  F4  1  0.58869  0.14272  0.77894  1
 F  F5  1  0.71971  0.44515  0.16073  1
 F  F6  1  0.50501  0.31976  0.45816  1
 F  F7  1  0.28029  0.55485  0.83927  1
 F  F8  1  0.72544  0.44515  0.66073  1
 F  F9  1  0.81475  0.31976  0.95816  1
 F  F10  1  0.49499  0.68024  0.54184  1
 F  F11  1  0.18525  0.68024  0.04184  1
 F  F12  1  0.62997  0.94449  0.41457  1
 F  F13  1  0.59222  0.47251  0.90546  1
 F  F14  1  0.11972  0.52749  0.59454  1
 F  F15  1  0.40778  0.52749  0.09454  1
 F  F16  1  0.88028  0.47251  0.40546  1
 F  F17  1  0.00324  0.30035  0.74607  1
 F  F18  1  0.70289  0.69965  0.75393  1
 F  F19  1  0.99676  0.69965  0.25393  1
 F  F20  1  0.29711  0.30035  0.24607  1
 F  F21  1  0.76507  0.85587  0.21484  1
 F  F22  1  0.90920  0.14413  0.28516  1
 F  F23  1  0.68548  0.05551  0.08543  1
 F  F24  1  0.09080  0.85587  0.71484  1
 F  F25  1  0.31452  0.94449  0.91457  1
 F  F26  1  0.44597  0.85728  0.72106  1
 F  F27  1  0.55403  0.14272  0.27894  1
 F  F28  1  0.87094  0.74250  0.98881  1
 F  F29  1  0.12844  0.25750  0.51119  1
 F  F30  1  0.12906  0.25750  0.01119  1
 F  F31  1  0.41131  0.85728  0.22106  1
 F  F32  1  0.27456  0.55485  0.33927  1
 Sn  Sn1  1  0.11314  0.41726  0.17553  1
 Sn  Sn2  1  0.89477  0.14110  0.89202  1
 Sn  Sn3  1  0.75367  0.85890  0.60798  1
 Sn  Sn4  1  0.24633  0.14110  0.39202  1
 Sn  Sn5  1  0.52127  0.29397  0.03931  1
 Sn  Sn6  1  0.30412  0.41726  0.67553  1
 Sn  Sn7  1  0.47873  0.70603  0.96069  1
 Sn  Sn8  1  0.77270  0.29397  0.53931  1
 Sn  Sn9  1  0.88686  0.58274  0.82447  1
 Sn  Sn10  1  0.69588  0.58274  0.32447  1
 Sn  Sn11  1  0.22730  0.70603  0.46069  1
 Sn  Sn12  1  0.10523  0.85890  0.10798  1
 Ti  Ti1  1  0.66198  0.00000  0.25000  1
 Ti  Ti2  1  0.33802  0.00000  0.75000  1
