CIF file written using JARVIS-Tools package.
data_CoB2Mo2
_symmetry_space_group_name_H-M  'Immm'
_cell_length_a       3.17604
_cell_length_b       4.5206
_cell_length_c       4.5206
_cell_angle_alpha    60.6796
_cell_angle_beta     69.4341
_cell_angle_gamma    69.4341

_symmetry_Int_Tables_number  71
_chemical_formula_structural  CoB2Mo2
_chemical_formula_sum  CoB2Mo2
_cell_volume  51.69047648532238
_cell_formula_units_Z  1
loop_
  _symmetry_equiv_pos_site_id
 _symmetry_equiv_pos_as_xyz
 1  'x, y, z'
loop_
 _atom_site_type_symbol
 _atom_site_label
 _atom_site_symmetry_multiplicity
 _atom_site_fract_x
 _atom_site_fract_y
 _atom_site_fract_z
 _atom_site_fract_occupancy
 B  B1  1  0.50000  0.29725  0.70275  1
 B  B2  1  0.50000  0.70275  0.29725  1
 Co  Co1  1  0.00000  0.00000  0.00000  1
 Mo  Mo1  1  0.20085  0.29915  0.29915  1
 Mo  Mo2  1  0.79915  0.70085  0.70085  1
