CIF file written using JARVIS-Tools package.
data_SiO2
_symmetry_space_group_name_H-M  'I4_1/amd'
_cell_length_a       9.16713
_cell_length_b       9.16729
_cell_length_c       12.2546
_cell_angle_alpha    111.965
_cell_angle_beta     111.965
_cell_angle_gamma    89.9996

_symmetry_Int_Tables_number  141
_chemical_formula_structural  SiO2
_chemical_formula_sum  Si6O32
_cell_volume  873.9720482635598
_cell_formula_units_Z  16
loop_
  _symmetry_equiv_pos_site_id
 _symmetry_equiv_pos_as_xyz
 1  'x, y, z'
loop_
 _atom_site_type_symbol
 _atom_site_label
 _atom_site_symmetry_multiplicity
 _atom_site_fract_x
 _atom_site_fract_y
 _atom_site_fract_z
 _atom_site_fract_occupancy
 O  O1  1  0.00001  0.77540  0.50000  1
 O  O2  1  0.60225  0.39776  0.75000  1
 O  O3  1  -0.00001  0.22460  0.50000  1
 O  O4  1  0.39774  0.14775  0.25000  1
 O  O5  1  0.50000  0.22459  0.50000  1
 O  O6  1  0.22461  -0.00001  0.00000  1
 O  O7  1  0.14775  0.39774  0.75000  1
 O  O8  1  0.69106  0.76207  0.38211  1
 O  O9  1  0.89236  0.91886  0.33772  1
 O  O10  1  0.22460  0.50000  0.00000  1
 O  O11  1  0.69105  0.12003  0.38211  1
 O  O12  1  0.77539  0.00001  -0.00000  1
 O  O13  1  0.85225  0.60226  0.25000  1
 O  O14  1  0.91886  0.89235  0.83773  1
 O  O15  1  0.55467  0.08115  0.66230  1
 O  O16  1  0.85226  0.14774  0.25000  1
 O  O17  1  0.08115  0.55465  0.16229  1
 O  O18  1  0.23794  0.30894  0.11788  1
 O  O19  1  0.10764  0.08114  0.66228  1
 O  O20  1  0.91885  0.44535  0.83771  1
 O  O21  1  0.44533  0.91885  0.33770  1
 O  O22  1  0.08114  0.10765  0.16227  1
 O  O23  1  0.76206  0.69106  0.88212  1
 O  O24  1  0.77540  0.50000  -0.00000  1
 O  O25  1  0.87996  0.30895  0.11789  1
 O  O26  1  0.30895  0.87997  0.61789  1
 O  O27  1  0.50000  0.77541  0.50000  1
 O  O28  1  0.12004  0.69105  0.88211  1
 O  O29  1  0.30894  0.23793  0.61789  1
 O  O30  1  0.39775  0.60224  0.25000  1
 O  O31  1  0.14774  0.85226  0.75000  1
 O  O32  1  0.60226  0.85225  0.75000  1
 Si  Si1  1  0.89779  0.49185  0.13311  1
 Si  Si2  1  0.85874  0.10221  0.36689  1
 Si  Si3  1  0.89778  0.14127  0.13311  1
 Si  Si4  1  0.14126  0.89779  0.63311  1
 Si  Si5  1  0.76467  0.85874  0.86690  1
 Si  Si6  1  0.23533  0.49184  0.13311  1
 Si  Si7  1  0.49185  0.23532  0.63311  1
 Si  Si8  1  0.50815  0.76468  0.36689  1
 Si  Si9  1  0.10221  0.50815  0.86689  1
 Si  Si10  1  0.10222  0.85873  0.86689  1
 Si  Si11  1  0.23533  0.14126  0.13310  1
 Si  Si12  1  0.14126  0.23532  0.63311  1
 Si  Si13  1  0.50814  0.10220  0.36689  1
 Si  Si14  1  0.49186  0.89780  0.63311  1
 Si  Si15  1  0.85874  0.76468  0.36689  1
 Si  Si16  1  0.76467  0.50816  0.86689  1
