CIF file written using JARVIS-Tools package.
data_PI2
_symmetry_space_group_name_H-M  'P-1'
_cell_length_a       4.5172
_cell_length_b       7.39537
_cell_length_c       7.00088
_cell_angle_alpha    80.7292
_cell_angle_beta     83.421
_cell_angle_gamma    73.6844

_symmetry_Int_Tables_number  2
_chemical_formula_structural  PI2
_chemical_formula_sum  P2I4
_cell_volume  220.92947834456353
_cell_formula_units_Z  2
loop_
  _symmetry_equiv_pos_site_id
 _symmetry_equiv_pos_as_xyz
 1  'x, y, z'
loop_
 _atom_site_type_symbol
 _atom_site_label
 _atom_site_symmetry_multiplicity
 _atom_site_fract_x
 _atom_site_fract_y
 _atom_site_fract_z
 _atom_site_fract_occupancy
 I  I1  1  0.57193  0.33913  0.77210  1
 I  I2  1  0.42807  0.66087  0.22790  1
 I  I3  1  0.83212  0.79970  0.69566  1
 I  I4  1  0.16788  0.20030  0.30434  1
 P  P1  1  0.40069  0.03854  0.85286  1
 P  P2  1  0.59931  0.96146  0.14714  1
