CIF file written using JARVIS-Tools package.
data_V2CoS4
_symmetry_space_group_name_H-M  'C2/m'
_cell_length_a       3.24403
_cell_length_b       5.80262
_cell_length_c       6.21579
_cell_angle_alpha    114.985
_cell_angle_beta     105.126
_cell_angle_gamma    90

_symmetry_Int_Tables_number  12
_chemical_formula_structural  V2CoS4
_chemical_formula_sum  V2CoS4
_cell_volume  101.56575879522049
_cell_formula_units_Z  1
loop_
  _symmetry_equiv_pos_site_id
 _symmetry_equiv_pos_as_xyz
 1  'x, y, z'
loop_
 _atom_site_type_symbol
 _atom_site_label
 _atom_site_symmetry_multiplicity
 _atom_site_fract_x
 _atom_site_fract_y
 _atom_site_fract_z
 _atom_site_fract_occupancy
 Co  Co1  1  0.00000  0.00000  0.00000  1
 S  S1  1  0.63442  0.97697  0.26883  1
 S  S2  1  0.36558  0.02303  0.73117  1
 S  S3  1  0.89547  0.56000  0.79093  1
 S  S4  1  0.10453  0.44000  0.20907  1
 V  V1  1  0.73982  0.68942  0.47963  1
 V  V2  1  0.26018  0.31058  0.52037  1
