CIF file written using JARVIS-Tools package.
data_Ba4Pt
_symmetry_space_group_name_H-M  'Fd-3m'
_cell_length_a       9.30938
_cell_length_b       9.30938
_cell_length_c       9.30938
_cell_angle_alpha    60
_cell_angle_beta     60
_cell_angle_gamma    60

_symmetry_Int_Tables_number  227
_chemical_formula_structural  Ba4Pt
_chemical_formula_sum  Ba8Pt2
_cell_volume  570.4893784790235
_cell_formula_units_Z  2
loop_
  _symmetry_equiv_pos_site_id
 _symmetry_equiv_pos_as_xyz
 1  'x, y, z'
loop_
 _atom_site_type_symbol
 _atom_site_label
 _atom_site_symmetry_multiplicity
 _atom_site_fract_x
 _atom_site_fract_y
 _atom_site_fract_z
 _atom_site_fract_occupancy
 Ba  Ba1  1  0.37940  0.37940  0.37940  1
 Ba  Ba2  1  0.37940  0.37940  0.86181  1
 Ba  Ba3  1  0.37940  0.86181  0.37940  1
 Ba  Ba4  1  0.87060  0.87060  0.38819  1
 Ba  Ba5  1  0.87060  0.87060  0.87060  1
 Ba  Ba6  1  0.86181  0.37940  0.37940  1
 Ba  Ba7  1  0.87060  0.38819  0.87060  1
 Ba  Ba8  1  0.38819  0.87060  0.87060  1
 Pt  Pt1  1  0.00000  0.00000  0.00000  1
 Pt  Pt2  1  0.25000  0.25000  0.25000  1
