CIF file written using JARVIS-Tools package.
data_Cr3Pt
_symmetry_space_group_name_H-M  'P6_3/mmc'
_cell_length_a       5.37902
_cell_length_b       5.37901
_cell_length_c       4.07507
_cell_angle_alpha    90
_cell_angle_beta     90
_cell_angle_gamma    120

_symmetry_Int_Tables_number  194
_chemical_formula_structural  Cr3Pt
_chemical_formula_sum  Cr6Pt2
_cell_volume  102.11082323254296
_cell_formula_units_Z  2
loop_
  _symmetry_equiv_pos_site_id
 _symmetry_equiv_pos_as_xyz
 1  'x, y, z'
loop_
 _atom_site_type_symbol
 _atom_site_label
 _atom_site_symmetry_multiplicity
 _atom_site_fract_x
 _atom_site_fract_y
 _atom_site_fract_z
 _atom_site_fract_occupancy
 Cr  Cr1  1  0.15042  0.30084  0.25000  1
 Cr  Cr2  1  0.69916  0.84958  0.25000  1
 Cr  Cr3  1  0.15042  0.84958  0.25000  1
 Cr  Cr4  1  0.84958  0.69916  0.75000  1
 Cr  Cr5  1  0.30084  0.15042  0.75000  1
 Cr  Cr6  1  0.84958  0.15042  0.75000  1
 Pt  Pt1  1  0.33333  0.66667  0.75000  1
 Pt  Pt2  1  0.66667  0.33333  0.25000  1
