CIF file written using JARVIS-Tools package.
data_LiAlSiH2O5
_symmetry_space_group_name_H-M  'Pna2_1'
_cell_length_a       10.5475
_cell_length_b       8.13664
_cell_length_c       4.98035
_cell_angle_alpha    90
_cell_angle_beta     90
_cell_angle_gamma    90

_symmetry_Int_Tables_number  33
_chemical_formula_structural  LiAlSiH2O5
_chemical_formula_sum  Li4Al4Si4H8O20
_cell_volume  427.42080635133823
_cell_formula_units_Z  4
loop_
  _symmetry_equiv_pos_site_id
 _symmetry_equiv_pos_as_xyz
 1  'x, y, z'
loop_
 _atom_site_type_symbol
 _atom_site_label
 _atom_site_symmetry_multiplicity
 _atom_site_fract_x
 _atom_site_fract_y
 _atom_site_fract_z
 _atom_site_fract_occupancy
 Al  Al1  1  0.65594  0.41743  0.24545  1
 Al  Al2  1  0.34406  0.58257  0.74545  1
 Al  Al3  1  0.84406  0.91743  0.74545  1
 Al  Al4  1  0.15594  0.08257  0.24545  1
 H  H1  1  0.53035  0.17080  0.86090  1
 H  H2  1  0.03035  0.32920  0.86090  1
 H  H3  1  0.96965  0.67080  0.36090  1
 H  H4  1  0.46965  0.82920  0.36090  1
 H  H5  1  0.51769  0.04131  0.61333  1
 H  H6  1  0.01769  0.45869  0.61333  1
 H  H7  1  0.98231  0.54131  0.11333  1
 H  H8  1  0.48231  0.95869  0.11333  1
 Li  Li1  1  0.81168  0.31988  0.75144  1
 Li  Li2  1  0.31168  0.18012  0.75144  1
 Li  Li3  1  0.68832  0.81988  0.25144  1
 Li  Li4  1  0.18832  0.68012  0.25144  1
 O  O1  1  0.18401  0.04276  0.59010  1
 O  O2  1  0.51962  0.92028  0.28475  1
 O  O3  1  0.50665  0.33217  0.17919  1
 O  O4  1  0.49335  0.66783  0.67919  1
 O  O5  1  0.99335  0.83217  0.67919  1
 O  O6  1  0.00665  0.16783  0.17919  1
 O  O7  1  0.77282  0.28118  0.12701  1
 O  O8  1  0.22718  0.71882  0.62701  1
 O  O9  1  0.72718  0.78118  0.62701  1
 O  O10  1  0.27282  0.21882  0.12701  1
 O  O11  1  0.31599  0.54276  0.09010  1
 O  O12  1  0.48038  0.07972  0.78475  1
 O  O13  1  0.67054  0.60667  0.06719  1
 O  O14  1  0.32946  0.39333  0.56719  1
 O  O15  1  0.82946  0.10667  0.56719  1
 O  O16  1  0.17054  0.89333  0.06719  1
 O  O17  1  0.98038  0.42028  0.78475  1
 O  O18  1  0.01962  0.57972  0.28475  1
 O  O19  1  0.68401  0.45724  0.59010  1
 O  O20  1  0.81599  0.95724  0.09010  1
 Si  Si1  1  0.35802  0.37123  0.24434  1
 Si  Si2  1  0.85802  0.12877  0.24434  1
 Si  Si3  1  0.14198  0.87123  0.74434  1
 Si  Si4  1  0.64198  0.62877  0.74434  1
