CIF file written using JARVIS-Tools package.
data_CdBr2N2
_symmetry_space_group_name_H-M  'Cmmm'
_cell_length_a       3.90114
_cell_length_b       5.56511
_cell_length_c       5.56511
_cell_angle_alpha    94.1029
_cell_angle_beta     90
_cell_angle_gamma    90

_symmetry_Int_Tables_number  65
_chemical_formula_structural  CdBr2N2
_chemical_formula_sum  CdBr2N2
_cell_volume  120.51038139401878
_cell_formula_units_Z  1
loop_
  _symmetry_equiv_pos_site_id
 _symmetry_equiv_pos_as_xyz
 1  'x, y, z'
loop_
 _atom_site_type_symbol
 _atom_site_label
 _atom_site_symmetry_multiplicity
 _atom_site_fract_x
 _atom_site_fract_y
 _atom_site_fract_z
 _atom_site_fract_occupancy
 Br  Br1  1  0.50000  0.74891  0.74891  1
 Br  Br2  1  0.50000  0.25109  0.25109  1
 Cd  Cd1  1  0.00000  0.00000  0.00000  1
 N  N1  1  0.00000  0.30127  0.69873  1
 N  N2  1  0.00000  0.69873  0.30127  1
