CIF file written using JARVIS-Tools package.
data_CrIrO4
_symmetry_space_group_name_H-M  'Cmmm'
_cell_length_a       3.0716
_cell_length_b       5.43728
_cell_length_c       4.48757
_cell_angle_alpha    90.1573
_cell_angle_beta     89.9996
_cell_angle_gamma    55.6054

_symmetry_Int_Tables_number  65
_chemical_formula_structural  CrIrO4
_chemical_formula_sum  CrIrO4
_cell_volume  61.84393556608043
_cell_formula_units_Z  1
loop_
  _symmetry_equiv_pos_site_id
 _symmetry_equiv_pos_as_xyz
 1  'x, y, z'
loop_
 _atom_site_type_symbol
 _atom_site_label
 _atom_site_symmetry_multiplicity
 _atom_site_fract_x
 _atom_site_fract_y
 _atom_site_fract_z
 _atom_site_fract_occupancy
 Cr  Cr1  1  0.49996  0.99953  0.00042  1
 Ir  Ir1  1  0.49996  0.49953  0.50042  1
 O  O1  1  0.18925  0.81024  0.81116  1
 O  O2  1  0.19993  0.29954  0.70038  1
 O  O3  1  0.81067  0.18881  0.18968  1
 O  O4  1  0.79999  0.69951  0.30045  1
