CIF file written using JARVIS-Tools package.
data_TeW2S3
_symmetry_space_group_name_H-M  'P-6m2'
_cell_length_a       3.27771
_cell_length_b       3.27768
_cell_length_c       26.0193
_cell_angle_alpha    90.0001
_cell_angle_beta     89.9999
_cell_angle_gamma    120

_symmetry_Int_Tables_number  187
_chemical_formula_structural  TeW2S3
_chemical_formula_sum  Te2W4S6
_cell_volume  242.08364795015197
_cell_formula_units_Z  2
loop_
  _symmetry_equiv_pos_site_id
 _symmetry_equiv_pos_as_xyz
 1  'x, y, z'
loop_
 _atom_site_type_symbol
 _atom_site_label
 _atom_site_symmetry_multiplicity
 _atom_site_fract_x
 _atom_site_fract_y
 _atom_site_fract_z
 _atom_site_fract_occupancy
 S  S1  1  0.33288  0.66575  0.31010  1
 S  S2  1  0.66722  0.33447  -0.04683  1
 S  S3  1  0.66631  0.33262  0.42951  1
 S  S4  1  0.66722  0.33444  0.07197  1
 S  S5  1  0.66632  0.33263  0.54831  1
 S  S6  1  0.33289  0.66578  0.19130  1
 Te  Te1  1  0.33359  0.66717  0.82538  1
 Te  Te2  1  0.33357  0.66714  0.67611  1
 W  W1  1  0.33389  0.66778  0.01259  1
 W  W2  1  0.33298  0.66596  0.48889  1
 W  W3  1  0.66621  0.33242  0.25070  1
 W  W4  1  0.66692  0.33384  0.75074  1
