CIF file written using JARVIS-Tools package.
data_NaNbO2F
_symmetry_space_group_name_H-M  'Pnma'
_cell_length_a       5.51937
_cell_length_b       5.64943
_cell_length_c       8.20486
_cell_angle_alpha    90
_cell_angle_beta     90
_cell_angle_gamma    90

_symmetry_Int_Tables_number  62
_chemical_formula_structural  NaNbO2F
_chemical_formula_sum  Na4Nb4O8F4
_cell_volume  255.83827827579364
_cell_formula_units_Z  4
loop_
  _symmetry_equiv_pos_site_id
 _symmetry_equiv_pos_as_xyz
 1  'x, y, z'
loop_
 _atom_site_type_symbol
 _atom_site_label
 _atom_site_symmetry_multiplicity
 _atom_site_fract_x
 _atom_site_fract_y
 _atom_site_fract_z
 _atom_site_fract_occupancy
 F  F1  1  0.12136  0.47807  0.25000  1
 F  F2  1  0.37864  0.97807  0.25000  1
 F  F3  1  0.87864  0.52193  0.75000  1
 F  F4  1  0.62136  0.02193  0.75000  1
 Na  Na1  1  0.96414  0.02429  0.25000  1
 Na  Na2  1  0.03586  0.97571  0.75000  1
 Na  Na3  1  0.46414  0.47571  0.75000  1
 Na  Na4  1  0.53586  0.52429  0.25000  1
 Nb  Nb1  1  0.50000  0.00000  0.00000  1
 Nb  Nb2  1  0.00000  0.50000  0.50000  1
 Nb  Nb3  1  0.00000  0.50000  0.00000  1
 Nb  Nb4  1  0.50000  0.00000  0.50000  1
 O  O1  1  0.77142  0.77000  0.04544  1
 O  O2  1  0.27142  0.73000  0.95456  1
 O  O3  1  0.72858  0.27000  0.45456  1
 O  O4  1  0.22858  0.23000  0.54544  1
 O  O5  1  0.27142  0.73000  0.54544  1
 O  O6  1  0.72858  0.27000  0.04544  1
 O  O7  1  0.22858  0.23000  0.95456  1
 O  O8  1  0.77142  0.77000  0.45456  1
