CIF file written using JARVIS-Tools package.
data_TmFe2SiC
_symmetry_space_group_name_H-M  'Cmcm'
_cell_length_a       5.53444
_cell_length_b       5.53444
_cell_length_c       6.70408
_cell_angle_alpha    90
_cell_angle_beta     90
_cell_angle_gamma    141.108

_symmetry_Int_Tables_number  63
_chemical_formula_structural  TmFe2SiC
_chemical_formula_sum  Tm2Fe4Si2C2
_cell_volume  128.9277804786552
_cell_formula_units_Z  2
loop_
  _symmetry_equiv_pos_site_id
 _symmetry_equiv_pos_as_xyz
 1  'x, y, z'
loop_
 _atom_site_type_symbol
 _atom_site_label
 _atom_site_symmetry_multiplicity
 _atom_site_fract_x
 _atom_site_fract_y
 _atom_site_fract_z
 _atom_site_fract_occupancy
 C  C1  1  0.00000  0.00000  0.00000  1
 C  C2  1  0.00000  0.00000  0.50000  1
 Fe  Fe1  1  0.83509  0.16491  0.06112  1
 Fe  Fe2  1  0.16491  0.83509  0.93888  1
 Fe  Fe3  1  0.16491  0.83509  0.56112  1
 Fe  Fe4  1  0.83509  0.16491  0.43888  1
 Si  Si1  1  0.26955  0.73045  0.25000  1
 Si  Si2  1  0.73045  0.26955  0.75000  1
 Tm  Tm1  1  0.54912  0.45088  0.25000  1
 Tm  Tm2  1  0.45088  0.54912  0.75000  1
