CIF file written using JARVIS-Tools package.
data_Na2PrO3
_symmetry_space_group_name_H-M  'Immm'
_cell_length_a       6.00558
_cell_length_b       6.00558
_cell_length_c       6.00558
_cell_angle_alpha    145.368
_cell_angle_beta     133.263
_cell_angle_gamma    59.4587

_symmetry_Int_Tables_number  71
_chemical_formula_structural  Na2PrO3
_chemical_formula_sum  Na2PrO3
_cell_volume  88.82453769153929
_cell_formula_units_Z  1
loop_
  _symmetry_equiv_pos_site_id
 _symmetry_equiv_pos_as_xyz
 1  'x, y, z'
loop_
 _atom_site_type_symbol
 _atom_site_label
 _atom_site_symmetry_multiplicity
 _atom_site_fract_x
 _atom_site_fract_y
 _atom_site_fract_z
 _atom_site_fract_occupancy
 Na  Na1  1  0.67404  0.67404  0.00000  1
 Na  Na2  1  0.32596  0.32596  -0.00000  1
 O  O1  1  0.50000  -0.00000  0.50000  1
 O  O2  1  0.15356  0.65356  0.50000  1
 O  O3  1  0.84644  0.34644  0.50000  1
 Pr  Pr1  1  0.00000  0.00000  0.00000  1
