CIF file written using JARVIS-Tools package.
data_ErSCl
_symmetry_space_group_name_H-M  'Pmmn'
_cell_length_a       3.94275
_cell_length_b       5.31186
_cell_length_c       7.43708
_cell_angle_alpha    90
_cell_angle_beta     90
_cell_angle_gamma    90

_symmetry_Int_Tables_number  59
_chemical_formula_structural  ErSCl
_chemical_formula_sum  Er2S2Cl2
_cell_volume  155.75737602436246
_cell_formula_units_Z  2
loop_
  _symmetry_equiv_pos_site_id
 _symmetry_equiv_pos_as_xyz
 1  'x, y, z'
loop_
 _atom_site_type_symbol
 _atom_site_label
 _atom_site_symmetry_multiplicity
 _atom_site_fract_x
 _atom_site_fract_y
 _atom_site_fract_z
 _atom_site_fract_occupancy
 Cl  Cl1  1  0.00000  0.50000  0.61048  1
 Cl  Cl2  1  0.50000  0.00000  0.38952  1
 Er  Er1  1  0.00000  0.00000  0.15375  1
 Er  Er2  1  0.50000  0.50000  0.84625  1
 S  S1  1  0.50000  0.00000  0.90127  1
 S  S2  1  0.00000  0.50000  0.09873  1
