CIF file written using JARVIS-Tools package.
data_SiNi2P4O14
_symmetry_space_group_name_H-M  'C2/c'
_cell_length_a       4.88494
_cell_length_b       8.82323
_cell_length_c       12.2553
_cell_angle_alpha    103.473
_cell_angle_beta     90
_cell_angle_gamma    106.071

_symmetry_Int_Tables_number  15
_chemical_formula_structural  SiNi2P4O14
_chemical_formula_sum  Si2Ni4P8O28
_cell_volume  492.4260497567977
_cell_formula_units_Z  2
loop_
  _symmetry_equiv_pos_site_id
 _symmetry_equiv_pos_as_xyz
 1  'x, y, z'
loop_
 _atom_site_type_symbol
 _atom_site_label
 _atom_site_symmetry_multiplicity
 _atom_site_fract_x
 _atom_site_fract_y
 _atom_site_fract_z
 _atom_site_fract_occupancy
 Ni  Ni1  1  0.40012  0.50459  0.37074  1
 Ni  Ni2  1  0.89553  0.49541  0.12926  1
 Ni  Ni3  1  0.10447  0.50459  0.87074  1
 Ni  Ni4  1  0.59988  0.49541  0.62926  1
 O  O1  1  0.89798  0.38934  0.70642  1
 O  O2  1  0.49135  0.38934  0.20642  1
 O  O3  1  0.31418  0.28520  0.61756  1
 O  O4  1  0.09406  0.91243  0.32626  1
 O  O5  1  0.21521  0.30538  0.86506  1
 O  O6  1  0.62497  0.80987  0.98349  1
 O  O7  1  0.50865  0.61066  0.79358  1
 O  O8  1  0.54199  0.13223  0.82990  1
 O  O9  1  0.59024  0.13223  0.32990  1
 O  O10  1  0.40976  0.86777  0.67010  1
 O  O11  1  0.68264  0.41662  0.45554  1
 O  O12  1  0.02898  0.71480  0.88244  1
 O  O13  1  0.97102  0.28520  0.11756  1
 O  O14  1  0.18163  0.08757  0.17374  1
 O  O15  1  0.81510  0.19013  0.51651  1
 O  O16  1  0.90594  0.08757  0.67374  1
 O  O17  1  0.10202  0.61066  0.29358  1
 O  O18  1  0.37503  0.19013  0.01651  1
 O  O19  1  0.26602  0.58338  0.04446  1
 O  O20  1  0.45801  0.86777  0.17010  1
 O  O21  1  0.09017  0.30538  0.36506  1
 O  O22  1  0.31736  0.58338  0.54446  1
 O  O23  1  0.78479  0.69462  0.13494  1
 O  O24  1  0.18490  0.80987  0.48349  1
 O  O25  1  0.73398  0.41662  0.95554  1
 O  O26  1  0.68582  0.71480  0.38244  1
 O  O27  1  0.90983  0.69462  0.63494  1
 O  O28  1  0.81837  0.91243  0.82626  1
 P  P1  1  0.00212  0.25180  0.63466  1
 P  P2  1  0.80585  0.27405  0.41451  1
 P  P3  1  -0.00212  0.74820  0.36534  1
 P  P4  1  0.75032  0.74820  0.86534  1
 P  P5  1  0.24968  0.25180  0.13466  1
 P  P6  1  0.46820  0.27405  0.91451  1
 P  P7  1  0.19415  0.72595  0.58549  1
 P  P8  1  0.53180  0.72595  0.08549  1
 Si  Si1  1  0.32895  -0.00000  0.25000  1
 Si  Si2  1  0.67105  0.00000  0.75000  1
