CIF file written using JARVIS-Tools package.
data_WSCl4
_symmetry_space_group_name_H-M  'P-1'
_cell_length_a       6.04921
_cell_length_b       6.89776
_cell_length_c       8.1794
_cell_angle_alpha    76.135
_cell_angle_beta     111.25
_cell_angle_gamma    94.0078

_symmetry_Int_Tables_number  2
_chemical_formula_structural  WSCl4
_chemical_formula_sum  W2S2Cl8
_cell_volume  308.7656238325563
_cell_formula_units_Z  2
loop_
  _symmetry_equiv_pos_site_id
 _symmetry_equiv_pos_as_xyz
 1  'x, y, z'
loop_
 _atom_site_type_symbol
 _atom_site_label
 _atom_site_symmetry_multiplicity
 _atom_site_fract_x
 _atom_site_fract_y
 _atom_site_fract_z
 _atom_site_fract_occupancy
 Cl  Cl1  1  0.87874  0.65609  0.08304  1
 Cl  Cl2  1  0.12126  0.34391  0.91696  1
 Cl  Cl3  1  0.54725  0.54561  0.71259  1
 Cl  Cl4  1  0.45275  0.45439  0.28741  1
 Cl  Cl5  1  0.92194  0.73376  0.52527  1
 Cl  Cl6  1  0.07806  0.26624  0.47473  1
 Cl  Cl7  1  0.25346  0.84555  0.89707  1
 Cl  Cl8  1  0.74654  0.15445  0.10293  1
 S  S1  1  0.31176  -0.03534  0.29655  1
 S  S2  1  0.68824  0.03534  0.70345  1
 W  W1  1  0.13762  0.24320  0.21810  1
 W  W2  1  0.86238  0.75680  0.78190  1
