CIF file written using JARVIS-Tools package.
data_YbAlGa
_symmetry_space_group_name_H-M  'P6_3/mmc'
_cell_length_a       4.48161
_cell_length_b       4.48161
_cell_length_c       7.34649
_cell_angle_alpha    90
_cell_angle_beta     90
_cell_angle_gamma    119.999

_symmetry_Int_Tables_number  194
_chemical_formula_structural  YbAlGa
_chemical_formula_sum  Yb2Al2Ga2
_cell_volume  127.78599391738568
_cell_formula_units_Z  2
loop_
  _symmetry_equiv_pos_site_id
 _symmetry_equiv_pos_as_xyz
 1  'x, y, z'
loop_
 _atom_site_type_symbol
 _atom_site_label
 _atom_site_symmetry_multiplicity
 _atom_site_fract_x
 _atom_site_fract_y
 _atom_site_fract_z
 _atom_site_fract_occupancy
 Al  Al1  1  0.66667  0.33333  0.75000  1
 Al  Al2  1  0.33333  0.66667  0.25000  1
 Ga  Ga1  1  0.66667  0.33333  0.25000  1
 Ga  Ga2  1  0.33333  0.66667  0.75000  1
 Yb  Yb1  1  0.00000  0.00000  0.50000  1
 Yb  Yb2  1  0.00000  0.00000  0.00000  1
