CIF file written using JARVIS-Tools package.
data_LiFeAs
_symmetry_space_group_name_H-M  'P4/nmm'
_cell_length_a       3.77961
_cell_length_b       3.77961
_cell_length_c       6.07316
_cell_angle_alpha    90
_cell_angle_beta     90
_cell_angle_gamma    90

_symmetry_Int_Tables_number  129
_chemical_formula_structural  LiFeAs
_chemical_formula_sum  Li2Fe2As2
_cell_volume  86.75765274474334
_cell_formula_units_Z  2
loop_
  _symmetry_equiv_pos_site_id
 _symmetry_equiv_pos_as_xyz
 1  'x, y, z'
loop_
 _atom_site_type_symbol
 _atom_site_label
 _atom_site_symmetry_multiplicity
 _atom_site_fract_x
 _atom_site_fract_y
 _atom_site_fract_z
 _atom_site_fract_occupancy
 As  As1  1  0.75000  0.75000  0.72753  1
 As  As2  1  0.25000  0.25000  0.27247  1
 Fe  Fe1  1  0.75000  0.25000  0.50000  1
 Fe  Fe2  1  0.25000  0.75000  0.50000  1
 Li  Li1  1  0.75000  0.75000  0.16526  1
 Li  Li2  1  0.25000  0.25000  0.83474  1
