CIF file written using JARVIS-Tools package.
data_Mo2SeS3
_symmetry_space_group_name_H-M  'P3m1'
_cell_length_a       3.22448
_cell_length_b       3.22448
_cell_length_c       12.6445
_cell_angle_alpha    90
_cell_angle_beta     90
_cell_angle_gamma    120

_symmetry_Int_Tables_number  156
_chemical_formula_structural  Mo2SeS3
_chemical_formula_sum  Mo2SeS3
_cell_volume  113.85424094636383
_cell_formula_units_Z  1
loop_
  _symmetry_equiv_pos_site_id
 _symmetry_equiv_pos_as_xyz
 1  'x, y, z'
loop_
 _atom_site_type_symbol
 _atom_site_label
 _atom_site_symmetry_multiplicity
 _atom_site_fract_x
 _atom_site_fract_y
 _atom_site_fract_z
 _atom_site_fract_occupancy
 Mo  Mo1  1  0.00000  0.00000  0.74712  1
 Mo  Mo2  1  0.66667  0.33333  0.25764  1
 S  S1  1  0.66667  0.33333  0.87015  1
 S  S2  1  0.66667  0.33333  0.62397  1
 S  S3  1  0.00000  0.00000  0.37964  1
 Se  Se1  1  0.00000  0.00000  0.12149  1
