CIF file written using JARVIS-Tools package.
data_PdCl2
_symmetry_space_group_name_H-M  'P2_1/c'
_cell_length_a       5.48789
_cell_length_b       3.95413
_cell_length_c       6.49607
_cell_angle_alpha    90
_cell_angle_beta     107.624
_cell_angle_gamma    90

_symmetry_Int_Tables_number  14
_chemical_formula_structural  PdCl2
_chemical_formula_sum  Pd2Cl4
_cell_volume  134.34744126461175
_cell_formula_units_Z  2
loop_
  _symmetry_equiv_pos_site_id
 _symmetry_equiv_pos_as_xyz
 1  'x, y, z'
loop_
 _atom_site_type_symbol
 _atom_site_label
 _atom_site_symmetry_multiplicity
 _atom_site_fract_x
 _atom_site_fract_y
 _atom_site_fract_z
 _atom_site_fract_occupancy
 Cl  Cl1  1  0.25788  0.24753  0.31529  1
 Cl  Cl2  1  0.74212  0.74753  0.18471  1
 Cl  Cl3  1  0.74212  0.75247  0.68471  1
 Cl  Cl4  1  0.25788  0.25247  0.81529  1
 Pd  Pd1  1  0.00000  0.00000  0.50000  1
 Pd  Pd2  1  0.00000  0.50000  0.00000  1
