CIF file written using JARVIS-Tools package.
data_Y5Bi3
_symmetry_space_group_name_H-M  'Pnma'
_cell_length_a       8.24551
_cell_length_b       9.51413
_cell_length_c       12.0561
_cell_angle_alpha    90
_cell_angle_beta     90
_cell_angle_gamma    90

_symmetry_Int_Tables_number  62
_chemical_formula_structural  Y5Bi3
_chemical_formula_sum  Y20Bi2
_cell_volume  945.7833261240006
_cell_formula_units_Z  4
loop_
  _symmetry_equiv_pos_site_id
 _symmetry_equiv_pos_as_xyz
 1  'x, y, z'
loop_
 _atom_site_type_symbol
 _atom_site_label
 _atom_site_symmetry_multiplicity
 _atom_site_fract_x
 _atom_site_fract_y
 _atom_site_fract_z
 _atom_site_fract_occupancy
 Bi  Bi1  1  0.43383  0.49568  0.67436  1
 Bi  Bi2  1  0.06617  0.50432  0.17436  1
 Bi  Bi3  1  0.08944  0.25000  0.45773  1
 Bi  Bi4  1  0.06617  0.99568  0.17436  1
 Bi  Bi5  1  0.93383  0.00432  0.82564  1
 Bi  Bi6  1  0.56617  0.50432  0.32564  1
 Bi  Bi7  1  0.41056  0.75000  0.95773  1
 Bi  Bi8  1  0.58944  0.25000  0.04227  1
 Bi  Bi9  1  0.93383  0.49568  0.82564  1
 Bi  Bi10  1  0.91056  0.75000  0.54227  1
 Bi  Bi11  1  0.56617  0.99568  0.32564  1
 Bi  Bi12  1  0.43383  0.00432  0.67436  1
 Y  Y1  1  0.64648  0.25000  0.78583  1
 Y  Y2  1  0.85352  0.75000  0.28583  1
 Y  Y3  1  0.31402  0.25000  0.21981  1
 Y  Y4  1  0.80559  0.06177  0.55914  1
 Y  Y5  1  0.68598  0.75000  0.78019  1
 Y  Y6  1  0.02565  0.75000  0.98895  1
 Y  Y7  1  0.97435  0.25000  0.01105  1
 Y  Y8  1  0.69441  0.93823  0.05914  1
 Y  Y9  1  0.19441  0.56177  0.44086  1
 Y  Y10  1  0.80559  0.43823  0.55914  1
 Y  Y11  1  0.52565  0.75000  0.51105  1
 Y  Y12  1  0.81402  0.25000  0.28019  1
 Y  Y13  1  0.30559  0.06177  0.94086  1
 Y  Y14  1  0.30559  0.43823  0.94086  1
 Y  Y15  1  0.19441  0.93823  0.44086  1
 Y  Y16  1  0.18598  0.75000  0.71981  1
 Y  Y17  1  0.47435  0.25000  0.48895  1
 Y  Y18  1  0.35352  0.75000  0.21417  1
 Y  Y19  1  0.69441  0.56177  0.05914  1
 Y  Y20  1  0.14648  0.25000  0.71417  1
