CIF file written using JARVIS-Tools package.
data_BaLi2Ti6O14
_symmetry_space_group_name_H-M  'Cmce'
_cell_length_a       10.0935
_cell_length_b       10.0935
_cell_length_c       11.6199
_cell_angle_alpha    90
_cell_angle_beta     90
_cell_angle_gamma    111.518

_symmetry_Int_Tables_number  64
_chemical_formula_structural  BaLi2Ti6O14
_chemical_formula_sum  Ba4Li8Ti24O56
_cell_volume  1101.3136466572885
_cell_formula_units_Z  4
loop_
  _symmetry_equiv_pos_site_id
 _symmetry_equiv_pos_as_xyz
 1  'x, y, z'
loop_
 _atom_site_type_symbol
 _atom_site_label
 _atom_site_symmetry_multiplicity
 _atom_site_fract_x
 _atom_site_fract_y
 _atom_site_fract_z
 _atom_site_fract_occupancy
 Ba  Ba1  1  0.85509  0.85509  0.37955  1
 Ba  Ba2  1  0.35509  0.35509  0.12045  1
 Ba  Ba3  1  0.64491  0.64491  0.87955  1
 Ba  Ba4  1  0.14491  0.14491  0.62045  1
 Li  Li1  1  0.55520  0.93445  0.37927  1
 Li  Li2  1  0.43445  0.05520  0.12073  1
 Li  Li3  1  0.44480  0.06555  0.62073  1
 Li  Li4  1  0.93445  0.55520  0.37927  1
 Li  Li5  1  0.94480  0.56555  0.87927  1
 Li  Li6  1  0.56555  0.94480  0.87927  1
 Li  Li7  1  0.06555  0.44480  0.62073  1
 Li  Li8  1  0.05520  0.43445  0.12073  1
 O  O1  1  0.63525  0.86344  0.01908  1
 O  O2  1  0.15168  0.62123  0.87223  1
 O  O3  1  0.63388  0.36612  0.50000  1
 O  O4  1  0.59749  0.59749  0.12737  1
 O  O5  1  0.34832  0.87877  0.37223  1
 O  O6  1  0.86475  0.63656  0.51908  1
 O  O7  1  0.37610  0.85444  0.62199  1
 O  O8  1  0.37301  0.62699  0.00000  1
 O  O9  1  0.90251  0.90251  0.62737  1
 O  O10  1  0.63656  0.86475  0.51908  1
 O  O11  1  0.87877  0.34832  0.37223  1
 O  O12  1  0.13033  0.86626  0.24847  1
 O  O13  1  0.37025  0.14091  0.25905  1
 O  O14  1  0.62975  0.85909  0.74095  1
 O  O15  1  0.36626  0.63033  0.25153  1
 O  O16  1  0.13388  0.86612  0.00000  1
 O  O17  1  0.37877  0.84832  0.12777  1
 O  O18  1  0.36475  0.13656  0.98092  1
 O  O19  1  0.13525  0.36344  0.48092  1
 O  O20  1  0.64556  0.12390  0.12199  1
 O  O21  1  0.35909  0.12975  0.75905  1
 O  O22  1  0.62123  0.15168  0.87223  1
 O  O23  1  0.65168  0.12123  0.62777  1
 O  O24  1  0.62699  0.37301  0.00000  1
 O  O25  1  0.12390  0.64556  0.12199  1
 O  O26  1  0.87301  0.12699  0.50000  1
 O  O27  1  0.86344  0.63525  0.01908  1
 O  O28  1  0.64091  0.87025  0.24095  1
 O  O29  1  0.14091  0.37025  0.25905  1
 O  O30  1  0.36612  0.63388  0.50000  1
 O  O31  1  0.63033  0.36626  0.25153  1
 O  O32  1  0.86626  0.13033  0.24847  1
 O  O33  1  0.13374  0.86967  0.75153  1
 O  O34  1  0.40251  0.40251  0.87263  1
 O  O35  1  0.90398  0.90398  0.13009  1
 O  O36  1  0.12975  0.35909  0.75905  1
 O  O37  1  0.59602  0.59602  0.63009  1
 O  O38  1  0.63374  0.36967  0.74847  1
 O  O39  1  0.87025  0.64091  0.24095  1
 O  O40  1  0.35444  0.87610  0.87801  1
 O  O41  1  0.36344  0.13525  0.48092  1
 O  O42  1  0.85444  0.37610  0.62199  1
 O  O43  1  0.86967  0.13374  0.75153  1
 O  O44  1  0.12123  0.65168  0.62777  1
 O  O45  1  0.36967  0.63374  0.74847  1
 O  O46  1  0.85909  0.62975  0.74095  1
 O  O47  1  0.14556  0.62390  0.37801  1
 O  O48  1  0.13656  0.36475  0.98092  1
 O  O49  1  0.62390  0.14556  0.37801  1
 O  O50  1  0.40398  0.40398  0.36991  1
 O  O51  1  0.86612  0.13388  0.00000  1
 O  O52  1  0.84832  0.37877  0.12777  1
 O  O53  1  0.87610  0.35444  0.87801  1
 O  O54  1  0.12699  0.87301  0.50000  1
 O  O55  1  0.09602  0.09602  0.86991  1
 O  O56  1  0.09749  0.09749  0.37263  1
 Ti  Ti1  1  0.75912  0.98107  0.64295  1
 Ti  Ti2  1  0.00616  0.22508  0.88604  1
 Ti  Ti3  1  0.76246  0.23754  0.50000  1
 Ti  Ti4  1  0.24088  0.01893  0.35705  1
 Ti  Ti5  1  0.74291  0.24291  0.25000  1
 Ti  Ti6  1  0.27492  0.49384  0.38604  1
 Ti  Ti7  1  0.51893  0.74088  0.14295  1
 Ti  Ti8  1  0.73754  0.26246  0.00000  1
 Ti  Ti9  1  0.49384  0.27492  0.38604  1
 Ti  Ti10  1  0.22508  0.00616  0.88604  1
 Ti  Ti11  1  0.77492  0.99384  0.11396  1
 Ti  Ti12  1  0.48107  0.25912  0.85705  1
 Ti  Ti13  1  0.23754  0.76246  0.50000  1
 Ti  Ti14  1  0.01893  0.24088  0.35705  1
 Ti  Ti15  1  0.24291  0.74291  0.25000  1
 Ti  Ti16  1  0.98107  0.75912  0.64295  1
 Ti  Ti17  1  0.72508  0.50616  0.61396  1
 Ti  Ti18  1  0.25912  0.48107  0.85705  1
 Ti  Ti19  1  0.25709  0.75709  0.75000  1
 Ti  Ti20  1  0.74088  0.51893  0.14295  1
 Ti  Ti21  1  0.99384  0.77492  0.11396  1
 Ti  Ti22  1  0.75709  0.25709  0.75000  1
 Ti  Ti23  1  0.50616  0.72508  0.61396  1
 Ti  Ti24  1  0.26246  0.73754  0.00000  1
