CIF file written using JARVIS-Tools package.
data_SrMg2
_symmetry_space_group_name_H-M  'P-6m2'
_cell_length_a       3.82977
_cell_length_b       3.82977
_cell_length_c       16.0251
_cell_angle_alpha    90
_cell_angle_beta     90
_cell_angle_gamma    120

_symmetry_Int_Tables_number  187
_chemical_formula_structural  SrMg2
_chemical_formula_sum  Sr2Mg4
_cell_volume  203.55326587456412
_cell_formula_units_Z  2
loop_
  _symmetry_equiv_pos_site_id
 _symmetry_equiv_pos_as_xyz
 1  'x, y, z'
loop_
 _atom_site_type_symbol
 _atom_site_label
 _atom_site_symmetry_multiplicity
 _atom_site_fract_x
 _atom_site_fract_y
 _atom_site_fract_z
 _atom_site_fract_occupancy
 Mg  Mg1  1  0.66667  0.33333  0.50000  1
 Mg  Mg2  1  0.00000  0.00000  0.35830  1
 Mg  Mg3  1  0.00000  0.00000  0.00000  1
 Mg  Mg4  1  0.00000  0.00000  0.64170  1
 Sr  Sr1  1  0.66667  0.33333  0.18028  1
 Sr  Sr2  1  0.66667  0.33333  0.81972  1
