CIF file written using JARVIS-Tools package.
data_TiBr4
_symmetry_space_group_name_H-M  'P2_1/c'
_cell_length_a       10.1508
_cell_length_b       6.79196
_cell_length_c       10.1486
_cell_angle_alpha    90
_cell_angle_beta     101.815
_cell_angle_gamma    90

_symmetry_Int_Tables_number  14
_chemical_formula_structural  TiBr4
_chemical_formula_sum  Ti4Br6
_cell_volume  684.8559199372908
_cell_formula_units_Z  4
loop_
  _symmetry_equiv_pos_site_id
 _symmetry_equiv_pos_as_xyz
 1  'x, y, z'
loop_
 _atom_site_type_symbol
 _atom_site_label
 _atom_site_symmetry_multiplicity
 _atom_site_fract_x
 _atom_site_fract_y
 _atom_site_fract_z
 _atom_site_fract_occupancy
 Br  Br1  1  0.69616  0.58566  0.57231  1
 Br  Br2  1  0.81047  0.42234  0.93458  1
 Br  Br3  1  0.68953  0.92234  0.06542  1
 Br  Br4  1  0.18953  0.57766  0.06542  1
 Br  Br5  1  0.31047  0.07766  0.93458  1
 Br  Br6  1  0.57238  0.09683  0.68788  1
 Br  Br7  1  0.55131  0.41747  0.19044  1
 Br  Br8  1  0.92762  0.59683  0.31212  1
 Br  Br9  1  0.07238  0.40317  0.68788  1
 Br  Br10  1  0.94869  0.91747  0.80956  1
 Br  Br11  1  0.80384  0.08566  0.42769  1
 Br  Br12  1  0.30384  0.41434  0.42769  1
 Br  Br13  1  0.19616  0.91434  0.57231  1
 Br  Br14  1  0.44869  0.58253  0.80956  1
 Br  Br15  1  0.05131  0.08253  0.19044  1
 Br  Br16  1  0.42762  0.90317  0.31212  1
 Ti  Ti1  1  0.13063  0.07896  0.75020  1
 Ti  Ti2  1  0.36937  0.57896  0.24980  1
 Ti  Ti3  1  0.86937  0.92104  0.24980  1
 Ti  Ti4  1  0.63063  0.42104  0.75020  1
