CIF file written using JARVIS-Tools package.
data_Be3N2
_symmetry_space_group_name_H-M  'R3m'
_cell_length_a       2.85132
_cell_length_b       2.85132
_cell_length_c       5.16012
_cell_angle_alpha    73.9613
_cell_angle_beta     73.9613
_cell_angle_gamma    59.9999

_symmetry_Int_Tables_number  160
_chemical_formula_structural  Be3N2
_chemical_formula_sum  Be3N2
_cell_volume  34.433109955473654
_cell_formula_units_Z  1
loop_
  _symmetry_equiv_pos_site_id
 _symmetry_equiv_pos_as_xyz
 1  'x, y, z'
loop_
 _atom_site_type_symbol
 _atom_site_label
 _atom_site_symmetry_multiplicity
 _atom_site_fract_x
 _atom_site_fract_y
 _atom_site_fract_z
 _atom_site_fract_occupancy
 Be  Be1  1  0.85925  0.85925  0.42224  1
 Be  Be2  1  0.31765  0.31765  0.04705  1
 Be  Be3  1  0.08874  0.08874  0.73377  1
 N  N1  1  0.20413  0.20413  0.38760  1
 N  N2  1  0.70832  0.70832  0.87505  1
