CIF file written using JARVIS-Tools package.
data_VOF3
_symmetry_space_group_name_H-M  'C2'
_cell_length_a       5.40428
_cell_length_b       5.40428
_cell_length_c       4.95353
_cell_angle_alpha    88.4013
_cell_angle_beta     88.4013
_cell_angle_gamma    63.1561

_symmetry_Int_Tables_number  5
_chemical_formula_structural  VOF3
_chemical_formula_sum  V2O2F6
_cell_volume  129.01439720256883
_cell_formula_units_Z  2
loop_
  _symmetry_equiv_pos_site_id
 _symmetry_equiv_pos_as_xyz
 1  'x, y, z'
loop_
 _atom_site_type_symbol
 _atom_site_label
 _atom_site_symmetry_multiplicity
 _atom_site_fract_x
 _atom_site_fract_y
 _atom_site_fract_z
 _atom_site_fract_occupancy
 F  F1  1  0.00475  0.74298  0.63504  1
 F  F2  1  0.72426  0.50652  0.31886  1
 F  F3  1  0.98564  0.27588  0.91215  1
 F  F4  1  0.49348  0.27574  0.68114  1
 F  F5  1  0.72412  0.01436  0.08785  1
 F  F6  1  0.25702  0.99525  0.36496  1
 O  O1  1  0.50593  0.68176  0.79490  1
 O  O2  1  0.31824  0.49407  0.20510  1
 V  V1  1  0.32769  0.67231  0.50000  1
 V  V2  1  0.63822  0.36178  -0.00000  1
