CIF file written using JARVIS-Tools package.
data_ZrSiRu
_symmetry_space_group_name_H-M  'P-62m'
_cell_length_a       6.7193
_cell_length_b       6.7193
_cell_length_c       3.72057
_cell_angle_alpha    90
_cell_angle_beta     90
_cell_angle_gamma    120

_symmetry_Int_Tables_number  189
_chemical_formula_structural  ZrSiRu
_chemical_formula_sum  Zr3Si3Ru3
_cell_volume  145.47459991834435
_cell_formula_units_Z  3
loop_
  _symmetry_equiv_pos_site_id
 _symmetry_equiv_pos_as_xyz
 1  'x, y, z'
loop_
 _atom_site_type_symbol
 _atom_site_label
 _atom_site_symmetry_multiplicity
 _atom_site_fract_x
 _atom_site_fract_y
 _atom_site_fract_z
 _atom_site_fract_occupancy
 Ru  Ru1  1  0.75538  -0.00000  0.00000  1
 Ru  Ru2  1  -0.00000  0.75538  0.00000  1
 Ru  Ru3  1  0.24462  0.24462  0.00000  1
 Si  Si1  1  0.00000  0.00000  0.50000  1
 Si  Si2  1  0.66667  0.33333  0.00000  1
 Si  Si3  1  0.33333  0.66667  0.00000  1
 Zr  Zr1  1  0.58493  0.58493  0.50000  1
 Zr  Zr2  1  0.00000  0.41507  0.50000  1
 Zr  Zr3  1  0.41507  0.00000  0.50000  1
