CIF file written using JARVIS-Tools package.
data_Mn2SiP4O14
_symmetry_space_group_name_H-M  'C2/c'
_cell_length_a       5.03746
_cell_length_b       8.93411
_cell_length_c       12.4477
_cell_angle_alpha    103.089
_cell_angle_beta     90
_cell_angle_gamma    106.376

_symmetry_Int_Tables_number  15
_chemical_formula_structural  Mn2SiP4O14
_chemical_formula_sum  Mn4Si2P8O28
_cell_volume  522.2951717881425
_cell_formula_units_Z  2
loop_
  _symmetry_equiv_pos_site_id
 _symmetry_equiv_pos_as_xyz
 1  'x, y, z'
loop_
 _atom_site_type_symbol
 _atom_site_label
 _atom_site_symmetry_multiplicity
 _atom_site_fract_x
 _atom_site_fract_y
 _atom_site_fract_z
 _atom_site_fract_occupancy
 Mn  Mn1  1  0.09222  0.49157  0.63128  1
 Mn  Mn2  1  0.40081  0.49157  0.13128  1
 Mn  Mn3  1  0.59993  0.50709  0.86787  1
 Mn  Mn4  1  0.90854  0.50708  0.36788  1
 O  O1  1  0.96739  0.86783  0.17246  1
 O  O2  1  0.09888  0.13082  0.32670  1
 O  O3  1  0.77958  0.59120  0.04654  1
 O  O4  1  0.18771  0.40744  0.45261  1
 O  O5  1  0.22115  0.40745  0.95261  1
 O  O6  1  0.81306  0.59120  0.54655  1
 O  O7  1  0.28283  0.69517  0.13295  1
 O  O8  1  0.58698  0.30348  0.36620  1
 O  O9  1  0.41378  0.69517  0.63295  1
 O  O10  1  0.90189  0.86782  0.67246  1
 O  O11  1  0.86992  0.18054  0.01192  1
 O  O12  1  0.68879  0.81811  0.48724  1
 O  O13  1  0.38729  0.08170  0.67216  1
 O  O14  1  0.30496  0.91698  0.82702  1
 O  O15  1  0.61346  0.91696  0.32701  1
 O  O16  1  0.69579  0.08168  0.17215  1
 O  O17  1  0.71790  0.30349  0.86621  1
 O  O18  1  0.79246  0.27510  0.61430  1
 O  O19  1  0.01364  0.62163  0.79964  1
 O  O20  1  0.51668  0.72356  0.88486  1
 O  O21  1  0.03331  0.13082  0.82670  1
 O  O22  1  0.48404  0.27510  0.11431  1
 O  O23  1  0.13079  0.81812  0.98724  1
 O  O24  1  0.20832  0.72354  0.38487  1
 O  O25  1  0.60942  0.62162  0.29964  1
 O  O26  1  -0.01292  0.37704  0.19952  1
 O  O27  1  0.39136  0.37704  0.69951  1
 O  O28  1  0.31200  0.18052  0.51192  1
 P  P1  1  0.96189  0.26845  0.91253  1
 P  P2  1  0.30794  0.26844  0.41252  1
 P  P3  1  0.51244  0.75785  0.36962  1
 P  P4  1  0.75386  0.24080  0.12955  1
 P  P5  1  0.48834  0.24079  0.62954  1
 P  P6  1  0.03883  0.73021  0.08663  1
 P  P7  1  0.69283  0.73021  0.58664  1
 P  P8  1  0.24687  0.75787  0.86962  1
 Si  Si1  1  0.84293  0.99932  0.24958  1
 Si  Si2  1  0.15781  0.99934  0.74959  1
