CIF file written using JARVIS-Tools package.
data_LiMnF3
_symmetry_space_group_name_H-M  'Pnma'
_cell_length_a       5.02491
_cell_length_b       5.36894
_cell_length_c       7.61251
_cell_angle_alpha    90
_cell_angle_beta     90
_cell_angle_gamma    90

_symmetry_Int_Tables_number  62
_chemical_formula_structural  LiMnF3
_chemical_formula_sum  Li4Mn4F2
_cell_volume  205.37342394775175
_cell_formula_units_Z  4
loop_
  _symmetry_equiv_pos_site_id
 _symmetry_equiv_pos_as_xyz
 1  'x, y, z'
loop_
 _atom_site_type_symbol
 _atom_site_label
 _atom_site_symmetry_multiplicity
 _atom_site_fract_x
 _atom_site_fract_y
 _atom_site_fract_z
 _atom_site_fract_occupancy
 F  F1  1  0.31027  0.69150  0.57429  1
 F  F2  1  0.64406  0.06173  0.75000  1
 F  F3  1  0.81027  0.80850  0.42571  1
 F  F4  1  0.18973  0.19150  0.57429  1
 F  F5  1  0.68973  0.30850  0.07429  1
 F  F6  1  0.18973  0.19150  0.92571  1
 F  F7  1  0.14406  0.43827  0.25000  1
 F  F8  1  0.85594  0.56173  0.75000  1
 F  F9  1  0.31027  0.69150  0.92571  1
 F  F10  1  0.35594  0.93827  0.25000  1
 F  F11  1  0.81027  0.80850  0.07429  1
 F  F12  1  0.68973  0.30850  0.42571  1
 Li  Li1  1  0.00000  0.50000  0.00000  1
 Li  Li2  1  0.00000  0.50000  0.50000  1
 Li  Li3  1  0.50000  0.00000  0.50000  1
 Li  Li4  1  0.50000  0.00000  0.00000  1
 Mn  Mn1  1  0.03358  0.92198  0.75000  1
 Mn  Mn2  1  0.53358  0.57802  0.25000  1
 Mn  Mn3  1  0.46642  0.42198  0.75000  1
 Mn  Mn4  1  0.96642  0.07802  0.25000  1
