CIF file written using JARVIS-Tools package.
data_Nb2P3O12
_symmetry_space_group_name_H-M  'R-3c'
_cell_length_a       8.9982
_cell_length_b       8.9982
_cell_length_c       8.99819
_cell_angle_alpha    58.9872
_cell_angle_beta     58.9872
_cell_angle_gamma    58.9872

_symmetry_Int_Tables_number  167
_chemical_formula_structural  Nb2P3O12
_chemical_formula_sum  Nb4P6O24
_cell_volume  503.2676774361269
_cell_formula_units_Z  2
loop_
  _symmetry_equiv_pos_site_id
 _symmetry_equiv_pos_as_xyz
 1  'x, y, z'
loop_
 _atom_site_type_symbol
 _atom_site_label
 _atom_site_symmetry_multiplicity
 _atom_site_fract_x
 _atom_site_fract_y
 _atom_site_fract_z
 _atom_site_fract_occupancy
 Nb  Nb1  1  0.13989  0.13989  0.13989  1
 Nb  Nb2  1  0.63989  0.63989  0.63989  1
 Nb  Nb3  1  0.36011  0.36011  0.36011  1
 Nb  Nb4  1  0.86011  0.86011  0.86011  1
 O  O1  1  0.99726  0.21792  0.36591  1
 O  O2  1  0.21792  0.36591  0.99726  1
 O  O3  1  0.36591  0.99726  0.21792  1
 O  O4  1  0.05913  0.91846  0.29145  1
 O  O5  1  0.44087  0.20855  0.58154  1
 O  O6  1  0.58154  0.44087  0.20855  1
 O  O7  1  0.70855  0.94087  0.08154  1
 O  O8  1  0.50274  0.13409  0.28208  1
 O  O9  1  0.08154  0.70855  0.94087  1
 O  O10  1  0.94087  0.08154  0.70855  1
 O  O11  1  0.55913  0.79145  0.41846  1
 O  O12  1  0.41846  0.55913  0.79145  1
 O  O13  1  0.20855  0.58154  0.44087  1
 O  O14  1  0.28208  0.50274  0.13409  1
 O  O15  1  0.00274  0.78208  0.63409  1
 O  O16  1  0.13409  0.28208  0.50274  1
 O  O17  1  0.49726  0.86591  0.71792  1
 O  O18  1  0.71792  0.49726  0.86591  1
 O  O19  1  0.86591  0.71792  0.49726  1
 O  O20  1  0.29145  0.05913  0.91846  1
 O  O21  1  0.91846  0.29145  0.05913  1
 O  O22  1  0.78208  0.63409  0.00274  1
 O  O23  1  0.79145  0.41846  0.55913  1
 O  O24  1  0.63409  0.00274  0.78208  1
 P  P1  1  0.03266  0.75000  0.46734  1
 P  P2  1  0.75000  0.46734  0.03266  1
 P  P3  1  0.46734  0.03266  0.75000  1
 P  P4  1  0.96734  0.25000  0.53266  1
 P  P5  1  0.25000  0.53266  0.96734  1
 P  P6  1  0.53266  0.96734  0.25000  1
