CIF file written using JARVIS-Tools package.
data_BaAgBi
_symmetry_space_group_name_H-M  'Cmcm'
_cell_length_a       6.6187
_cell_length_b       6.61871
_cell_length_c       7.06287
_cell_angle_alpha    90
_cell_angle_beta     90
_cell_angle_gamma    139.653

_symmetry_Int_Tables_number  63
_chemical_formula_structural  BaAgBi
_chemical_formula_sum  Ba2Ag2Bi2
_cell_volume  200.31268978162458
_cell_formula_units_Z  2
loop_
  _symmetry_equiv_pos_site_id
 _symmetry_equiv_pos_as_xyz
 1  'x, y, z'
loop_
 _atom_site_type_symbol
 _atom_site_label
 _atom_site_symmetry_multiplicity
 _atom_site_fract_x
 _atom_site_fract_y
 _atom_site_fract_z
 _atom_site_fract_occupancy
 Ag  Ag1  1  0.00000  0.00000  0.00000  1
 Ag  Ag2  1  0.00000  0.00000  0.50000  1
 Ba  Ba1  1  0.31996  0.68004  0.25000  1
 Ba  Ba2  1  0.68004  0.31996  0.75000  1
 Bi  Bi1  1  0.40048  0.59952  0.75000  1
 Bi  Bi2  1  0.59952  0.40048  0.25000  1
