data_image0
_chemical_formula_structural       F20K8Sb4
_chemical_formula_sum              "F20 K8 Sb4"
_cell_length_a       11.7675
_cell_length_b       6.53581
_cell_length_c       5.96981
_cell_angle_alpha    89.9987
_cell_angle_beta     89.9951
_cell_angle_gamma    63.3281

_space_group_name_H-M_alt    "P 1"
_space_group_IT_number       1

loop_
  _space_group_symop_operation_xyz
  'x, y, z'

loop_
  _atom_site_type_symbol
  _atom_site_label
  _atom_site_symmetry_multiplicity
  _atom_site_fract_x
  _atom_site_fract_y
  _atom_site_fract_z
  _atom_site_occupancy
  F   F1        1.0  0.12900  0.49200  0.25000  1.0000
  F   F2        1.0  0.37100  0.50800  0.75000  1.0000
  F   F3        1.0  0.87100  0.50800  0.75000  1.0000
  F   F4        1.0  0.62900  0.49200  0.25000  1.0000
  F   F5        1.0  0.06460  0.24200  0.02030  1.0000
  F   F6        1.0  0.43500  0.75800  0.52000  1.0000
  F   F7        1.0  0.93500  0.75800  0.98000  1.0000
  F   F8        1.0  0.56500  0.24200  0.48000  1.0000
  F   F9        1.0  0.31500  0.23500  0.02090  1.0000
  F   F10       1.0  0.18600  0.76600  0.52000  1.0000
  F   F11       1.0  0.68600  0.76500  0.97900  1.0000
  F   F12       1.0  0.81500  0.23400  0.47900  1.0000
  F   F13       1.0  0.31400  0.23400  0.48000  1.0000
  F   F14       1.0  0.18600  0.76500  0.98000  1.0000
  F   F15       1.0  0.68600  0.76600  0.52000  1.0000
  F   F16       1.0  0.81400  0.23500  0.01990  1.0000
  F   F17       1.0  0.06460  0.24200  0.48000  1.0000
  F   F18       1.0  0.43500  0.75800  0.98000  1.0000
  F   F19       1.0  0.93500  0.75800  0.52000  1.0000
  F   F20       1.0  0.56500  0.24200  0.02020  1.0000
  K   K1        1.0  0.86800  0.52000  0.25000  1.0000
  K   K2        1.0  0.63200  0.48000  0.74900  1.0000
  K   K3        1.0  0.13200  0.48000  0.75000  1.0000
  K   K4        1.0  0.36800  0.52000  0.25100  1.0000
  K   K5        1.0  0.98400  0.06660  0.75000  1.0000
  K   K6        1.0  0.51600  0.93300  0.25000  1.0000
  K   K7        1.0  0.01580  0.93300  0.25000  1.0000
  K   K8        1.0  0.48400  0.06650  0.75000  1.0000
  Sb  Sb1       1.0  0.20800  0.15800  0.25000  1.0000
  Sb  Sb2       1.0  0.29200  0.84200  0.75000  1.0000
  Sb  Sb3       1.0  0.79200  0.84200  0.75000  1.0000
  Sb  Sb4       1.0  0.70800  0.15800  0.25000  1.0000
