CIF file written using JARVIS-Tools package.
data_LiFeSe2O6
_symmetry_space_group_name_H-M  'I-42d'
_cell_length_a       8.80104
_cell_length_b       8.80097
_cell_length_c       8.80107
_cell_angle_alpha    107.823
_cell_angle_beta     107.822
_cell_angle_gamma    112.822

_symmetry_Int_Tables_number  122
_chemical_formula_structural  LiFeSe2O6
_chemical_formula_sum  Li4Fe4Se8O24
_cell_volume  523.4216002156352
_cell_formula_units_Z  4
loop_
  _symmetry_equiv_pos_site_id
 _symmetry_equiv_pos_as_xyz
 1  'x, y, z'
loop_
 _atom_site_type_symbol
 _atom_site_label
 _atom_site_symmetry_multiplicity
 _atom_site_fract_x
 _atom_site_fract_y
 _atom_site_fract_z
 _atom_site_fract_occupancy
 Fe  Fe1  1  0.16587  0.62500  0.04087  1
 Fe  Fe2  1  0.87500  0.83414  0.45914  1
 Fe  Fe3  1  0.37500  0.41586  0.54086  1
 Fe  Fe4  1  0.58413  0.12500  0.95913  1
 Li  Li1  1  0.37500  0.68996  0.81496  1
 Li  Li2  1  0.31004  0.12500  0.68504  1
 Li  Li3  1  0.87499  0.56004  0.18503  1
 Li  Li4  1  0.43996  0.62500  0.31496  1
 O  O1  1  0.80095  0.91837  0.28783  1
 O  O2  1  0.57497  0.30271  0.87499  1
 O  O3  1  0.05270  0.82496  0.37499  1
 O  O4  1  0.83434  0.31405  0.15484  1
 O  O5  1  0.15921  0.67950  0.84516  1
 O  O6  1  0.66837  0.05095  0.78783  1
 O  O7  1  0.44998  0.67772  0.62501  1
 O  O8  1  0.59079  0.93595  0.02029  1
 O  O9  1  0.91566  0.57049  0.97971  1
 O  O10  1  0.08164  0.36946  0.88259  1
 O  O11  1  0.11946  0.33163  0.38258  1
 O  O12  1  0.32050  0.16566  0.47971  1
 O  O13  1  0.32228  0.94729  0.77226  1
 O  O14  1  0.06405  0.08434  0.65484  1
 O  O15  1  0.42950  0.40920  0.34516  1
 O  O16  1  0.17504  0.55002  0.22774  1
 O  O17  1  0.48687  0.19905  0.11741  1
 O  O18  1  0.94905  0.73688  0.61742  1
 O  O19  1  0.42772  0.69998  0.12501  1
 O  O20  1  0.63054  0.51312  0.71217  1
 O  O21  1  0.69729  0.57228  0.27226  1
 O  O22  1  0.26313  0.88054  0.21218  1
 O  O23  1  0.68595  0.84080  0.52030  1
 O  O24  1  0.30003  0.42504  0.72774  1
 Se  Se1  1  0.68750  0.85581  0.72513  1
 Se  Se2  1  0.61932  0.39419  0.33169  1
 Se  Se3  1  0.14419  0.86932  0.83169  1
 Se  Se4  1  0.71237  0.38068  0.77487  1
 Se  Se5  1  0.03763  0.31250  0.16831  1
 Se  Se6  1  0.60581  0.93750  0.22513  1
 Se  Se7  1  0.06251  0.28763  0.66831  1
 Se  Se8  1  0.13068  0.96237  0.27487  1
