CIF file written using JARVIS-Tools package.
data_LiCoPO4
_symmetry_space_group_name_H-M  'P-1'
_cell_length_a       4.53767
_cell_length_b       5.08882
_cell_length_c       7.36718
_cell_angle_alpha    89.8586
_cell_angle_beta     103.108
_cell_angle_gamma    103.572

_symmetry_Int_Tables_number  2
_chemical_formula_structural  LiCoPO4
_chemical_formula_sum  Li2Co2P2O8
_cell_volume  160.82758630699317
_cell_formula_units_Z  2
loop_
  _symmetry_equiv_pos_site_id
 _symmetry_equiv_pos_as_xyz
 1  'x, y, z'
loop_
 _atom_site_type_symbol
 _atom_site_label
 _atom_site_symmetry_multiplicity
 _atom_site_fract_x
 _atom_site_fract_y
 _atom_site_fract_z
 _atom_site_fract_occupancy
 Co  Co1  1  0.96414  0.76916  0.58489  1
 Co  Co2  1  0.03586  0.23084  0.41511  1
 Li  Li1  1  0.73424  0.71025  0.98649  1
 Li  Li2  1  0.26576  0.28975  0.01351  1
 O  O1  1  0.14956  0.61575  0.37128  1
 O  O2  1  0.31844  0.08869  0.61935  1
 O  O3  1  0.64626  0.32964  0.92482  1
 O  O4  1  0.19764  0.05798  0.21081  1
 O  O5  1  0.80236  0.94202  0.78919  1
 O  O6  1  0.35374  0.67036  0.07518  1
 O  O7  1  0.68156  0.91131  0.38065  1
 O  O8  1  0.85044  0.38425  0.62872  1
 P  P1  1  0.34515  0.81282  0.25488  1
 P  P2  1  0.65485  0.18718  0.74512  1
