CIF file written using JARVIS-Tools package.
data_V2CrS4
_symmetry_space_group_name_H-M  'C2/m'
_cell_length_a       3.17311
_cell_length_b       5.83059
_cell_length_c       6.38688
_cell_angle_alpha    114.707
_cell_angle_beta     104.383
_cell_angle_gamma    90

_symmetry_Int_Tables_number  12
_chemical_formula_structural  V2CrS4
_chemical_formula_sum  V2CrS4
_cell_volume  103.25579558603295
_cell_formula_units_Z  1
loop_
  _symmetry_equiv_pos_site_id
 _symmetry_equiv_pos_as_xyz
 1  'x, y, z'
loop_
 _atom_site_type_symbol
 _atom_site_label
 _atom_site_symmetry_multiplicity
 _atom_site_fract_x
 _atom_site_fract_y
 _atom_site_fract_z
 _atom_site_fract_occupancy
 Cr  Cr1  1  0.00000  0.00000  0.00000  1
 S  S1  1  0.63648  0.97397  0.27295  1
 S  S2  1  0.36352  0.02603  0.72705  1
 S  S3  1  0.89506  0.56267  0.79012  1
 S  S4  1  0.10494  0.43733  0.20988  1
 V  V1  1  0.74076  0.68454  0.48152  1
 V  V2  1  0.25924  0.31546  0.51848  1
