CIF file written using JARVIS-Tools package.
data_SiO2
_symmetry_space_group_name_H-M  'Pm-3n'
_cell_length_a       10.7898
_cell_length_b       10.7898
_cell_length_c       10.7898
_cell_angle_alpha    90
_cell_angle_beta     90
_cell_angle_gamma    90

_symmetry_Int_Tables_number  223
_chemical_formula_structural  SiO2
_chemical_formula_sum  Si24O48
_cell_volume  1256.143022081142
_cell_formula_units_Z  24
loop_
  _symmetry_equiv_pos_site_id
 _symmetry_equiv_pos_as_xyz
 1  'x, y, z'
loop_
 _atom_site_type_symbol
 _atom_site_label
 _atom_site_symmetry_multiplicity
 _atom_site_fract_x
 _atom_site_fract_y
 _atom_site_fract_z
 _atom_site_fract_occupancy
 O  O1  1  0.25000  0.64997  0.14997  1
 O  O2  1  0.64997  0.14997  0.75000  1
 O  O3  1  0.85003  0.75000  0.35003  1
 O  O4  1  0.35003  0.14997  0.75000  1
 O  O5  1  0.85003  0.25000  0.64997  1
 O  O6  1  0.35003  0.85003  0.25000  1
 O  O7  1  0.68445  0.85248  0.50000  1
 O  O8  1  0.50000  0.31555  0.14752  1
 O  O9  1  0.81555  0.00000  0.35248  1
 O  O10  1  0.14997  0.25000  0.64997  1
 O  O11  1  0.14752  0.50000  0.31555  1
 O  O12  1  0.85248  0.50000  0.68445  1
 O  O13  1  0.81555  0.00000  0.64752  1
 O  O14  1  0.25000  0.35003  0.85003  1
 O  O15  1  0.18445  0.00000  0.64752  1
 O  O16  1  0.50000  0.68445  0.14752  1
 O  O17  1  0.75000  0.64997  0.85003  1
 O  O18  1  0.35003  0.14997  0.25000  1
 O  O19  1  0.00000  0.64752  0.81555  1
 O  O20  1  0.50000  0.31555  0.85248  1
 O  O21  1  0.35248  0.18445  0.00000  1
 O  O22  1  0.85248  0.50000  0.31555  1
 O  O23  1  0.64997  0.85003  0.25000  1
 O  O24  1  0.00000  0.35248  0.18445  1
 O  O25  1  0.31555  0.14752  0.50000  1
 O  O26  1  0.00000  0.35248  0.81555  1
 O  O27  1  0.25000  0.64997  0.85003  1
 O  O28  1  0.18445  0.00000  0.35248  1
 O  O29  1  0.85003  0.25000  0.35003  1
 O  O30  1  0.35003  0.85003  0.75000  1
 O  O31  1  0.64997  0.14997  0.25000  1
 O  O32  1  0.75000  0.35003  0.14997  1
 O  O33  1  0.50000  0.68445  0.85248  1
 O  O34  1  0.35248  0.81555  0.00000  1
 O  O35  1  0.14997  0.75000  0.35003  1
 O  O36  1  0.25000  0.35003  0.14997  1
 O  O37  1  0.64997  0.85003  0.75000  1
 O  O38  1  0.14997  0.25000  0.35003  1
 O  O39  1  0.64752  0.81555  0.00000  1
 O  O40  1  0.68445  0.14752  0.50000  1
 O  O41  1  0.14752  0.50000  0.68445  1
 O  O42  1  0.75000  0.35003  0.85003  1
 O  O43  1  0.64752  0.18445  0.00000  1
 O  O44  1  0.14997  0.75000  0.64997  1
 O  O45  1  0.75000  0.64997  0.14997  1
 O  O46  1  0.31555  0.85248  0.50000  1
 O  O47  1  0.00000  0.64752  0.18445  1
 O  O48  1  0.85003  0.75000  0.64997  1
 Si  Si1  1  0.13676  0.63676  0.25000  1
 Si  Si2  1  0.25000  0.86324  0.63676  1
 Si  Si3  1  0.63676  0.75000  0.13676  1
 Si  Si4  1  0.75000  0.13676  0.36324  1
 Si  Si5  1  0.63676  0.25000  0.13676  1
 Si  Si6  1  0.86324  0.63676  0.75000  1
 Si  Si7  1  0.36324  0.75000  0.13676  1
 Si  Si8  1  0.25000  0.86324  0.36324  1
 Si  Si9  1  0.75000  0.13676  0.63676  1
 Si  Si10  1  0.75000  0.86324  0.63676  1
 Si  Si11  1  0.75000  0.86324  0.36324  1
 Si  Si12  1  0.36324  0.25000  0.86324  1
 Si  Si13  1  0.13676  0.63676  0.75000  1
 Si  Si14  1  0.86324  0.36324  0.75000  1
 Si  Si15  1  0.36324  0.25000  0.13676  1
 Si  Si16  1  0.63676  0.25000  0.86324  1
 Si  Si17  1  0.13676  0.36324  0.25000  1
 Si  Si18  1  0.25000  0.13676  0.63676  1
 Si  Si19  1  0.36324  0.75000  0.86324  1
 Si  Si20  1  0.86324  0.36324  0.25000  1
 Si  Si21  1  0.13676  0.36324  0.75000  1
 Si  Si22  1  0.86324  0.63676  0.25000  1
 Si  Si23  1  0.63676  0.75000  0.86324  1
 Si  Si24  1  0.25000  0.13676  0.36324  1
