CIF file written using JARVIS-Tools package.
data_Er10Ru10C19
_symmetry_space_group_name_H-M  'Cm'
_cell_length_a       7.2057
_cell_length_b       8.15766
_cell_length_c       10.0359
_cell_angle_alpha    109.105
_cell_angle_beta     90
_cell_angle_gamma    116.209

_symmetry_Int_Tables_number  8
_chemical_formula_structural  Er10Ru10C19
_chemical_formula_sum  Er0Ru0C9
_cell_volume  492.7971795915889
_cell_formula_units_Z  1
loop_
  _symmetry_equiv_pos_site_id
 _symmetry_equiv_pos_as_xyz
 1  'x, y, z'
loop_
 _atom_site_type_symbol
 _atom_site_label
 _atom_site_symmetry_multiplicity
 _atom_site_fract_x
 _atom_site_fract_y
 _atom_site_fract_z
 _atom_site_fract_occupancy
 C  C1  1  0.78806  0.57611  0.98938  1
 C  C2  1  0.39190  0.58008  0.98933  1
 C  C3  1  0.18818  0.58008  0.98933  1
 C  C4  1  0.35535  0.21611  0.55589  1
 C  C5  1  0.86075  0.21611  0.55589  1
 C  C6  1  0.08526  0.64957  0.42268  1
 C  C7  1  0.56431  0.64957  0.42268  1
 C  C8  1  0.45849  0.41334  0.63107  1
 C  C9  1  0.86828  0.23559  0.15442  1
 C  C10  1  0.13576  0.77162  0.34782  1
 C  C11  1  0.18324  0.87030  0.78301  1
 C  C12  1  0.28644  0.07704  0.19594  1
 C  C13  1  0.79060  0.07704  0.19594  1
 C  C14  1  0.28486  0.07046  0.82445  1
 C  C15  1  0.68705  0.87030  0.78301  1
 C  C16  1  0.78559  0.07046  0.82445  1
 C  C17  1  0.36731  0.23559  0.15442  1
 C  C18  1  0.95485  0.41334  0.63107  1
 C  C19  1  0.63586  0.77162  0.34782  1
 Er  Er1  1  0.25468  0.50937  0.21453  1
 Er  Er2  1  0.75106  0.50211  0.23963  1
 Er  Er3  1  0.00031  0.00062  0.98948  1
 Er  Er4  1  0.47785  0.95569  0.98936  1
 Er  Er5  1  0.32304  0.64608  0.61357  1
 Er  Er6  1  0.51092  0.02185  0.36389  1
 Er  Er7  1  0.14205  0.28410  0.76462  1
 Er  Er8  1  0.82171  0.64342  0.60009  1
 Er  Er9  1  0.62586  0.25172  0.73848  1
 Er  Er10  1  0.01605  0.03209  0.38043  1
 Ru  Ru1  1  0.72601  0.94599  0.58345  1
 Ru  Ru2  1  0.21998  0.94599  0.58345  1
 Ru  Ru3  1  0.93560  0.35306  0.39565  1
 Ru  Ru4  1  0.09587  0.76703  0.13543  1
 Ru  Ru5  1  0.67116  0.76703  0.13543  1
 Ru  Ru6  1  0.59853  0.62089  0.84345  1
 Ru  Ru7  1  0.02237  0.62089  0.84345  1
 Ru  Ru8  1  0.41745  0.35306  0.39565  1
 Ru  Ru9  1  0.89352  0.35477  0.98949  1
 Ru  Ru10  1  0.46126  0.35477  0.98949  1
