CIF file written using JARVIS-Tools package.
data_Ca3Ga2Ge3O12
_symmetry_space_group_name_H-M  'Ia-3d'
_cell_length_a       10.708
_cell_length_b       10.708
_cell_length_c       10.708
_cell_angle_alpha    109.471
_cell_angle_beta     109.471
_cell_angle_gamma    109.471

_symmetry_Int_Tables_number  230
_chemical_formula_structural  Ca3Ga2Ge3O12
_chemical_formula_sum  Ca2Ga8Ge2O48
_cell_volume  945.1633518004497
_cell_formula_units_Z  4
loop_
  _symmetry_equiv_pos_site_id
 _symmetry_equiv_pos_as_xyz
 1  'x, y, z'
loop_
 _atom_site_type_symbol
 _atom_site_label
 _atom_site_symmetry_multiplicity
 _atom_site_fract_x
 _atom_site_fract_y
 _atom_site_fract_z
 _atom_site_fract_occupancy
 Ca  Ca1  1  0.12500  0.87500  0.75000  1
 Ca  Ca2  1  0.37500  0.62500  0.25000  1
 Ca  Ca3  1  0.25000  0.87500  0.12500  1
 Ca  Ca4  1  0.75000  0.62500  0.37500  1
 Ca  Ca5  1  0.37500  0.25000  0.12500  1
 Ca  Ca6  1  0.12500  0.75000  0.37500  1
 Ca  Ca7  1  0.87500  0.12500  0.25000  1
 Ca  Ca8  1  0.62500  0.37500  0.75000  1
 Ca  Ca9  1  0.75000  0.12500  0.87500  1
 Ca  Ca10  1  0.25000  0.37500  0.62500  1
 Ca  Ca11  1  0.62500  0.75000  0.87500  1
 Ca  Ca12  1  0.87500  0.25000  0.62500  1
 Ga  Ga1  1  0.50000  -0.00000  -0.00000  1
 Ga  Ga2  1  0.50000  0.50000  0.50000  1
 Ga  Ga3  1  0.00000  0.50000  0.00000  1
 Ga  Ga4  1  0.00000  -0.00000  0.50000  1
 Ga  Ga5  1  0.00000  0.00000  0.00000  1
 Ga  Ga6  1  0.50000  -0.00000  0.50000  1
 Ga  Ga7  1  0.50000  0.50000  0.00000  1
 Ga  Ga8  1  0.00000  0.50000  0.50000  1
 Ge  Ge1  1  0.25000  0.12500  0.37500  1
 Ge  Ge2  1  0.37500  0.75000  0.62500  1
 Ge  Ge3  1  0.87500  0.62500  0.75000  1
 Ge  Ge4  1  0.62500  0.87500  0.25000  1
 Ge  Ge5  1  0.12500  0.25000  0.87500  1
 Ge  Ge6  1  0.75000  0.37500  0.12500  1
 Ge  Ge7  1  0.12500  0.37500  0.25000  1
 Ge  Ge8  1  0.25000  0.62500  0.87500  1
 Ge  Ge9  1  0.87500  0.75000  0.12500  1
 Ge  Ge10  1  0.62500  0.25000  0.37500  1
 Ge  Ge11  1  0.75000  0.87500  0.62500  1
 Ge  Ge12  1  0.37500  0.12500  0.75000  1
 O  O1  1  0.90078  0.88198  0.58433  1
 O  O2  1  0.59922  0.68355  0.48120  1
 O  O3  1  0.20235  0.61802  0.01880  1
 O  O4  1  0.29765  0.81645  0.91567  1
 O  O5  1  0.01880  0.70235  0.11802  1
 O  O6  1  0.91567  0.79765  0.31645  1
 O  O7  1  0.58433  0.40078  0.38198  1
 O  O8  1  0.91567  0.61802  0.59922  1
 O  O9  1  0.31645  0.41567  0.29765  1
 O  O10  1  0.11802  0.51880  0.20235  1
 O  O11  1  0.09922  0.11802  0.41567  1
 O  O12  1  0.38198  0.08433  0.90078  1
 O  O13  1  0.40078  0.31645  0.51880  1
 O  O14  1  0.79765  0.38198  0.98120  1
 O  O15  1  0.70235  0.18355  0.08433  1
 O  O16  1  0.98120  0.29765  0.88198  1
 O  O17  1  0.08433  0.20235  0.68355  1
 O  O18  1  0.41567  0.59922  0.61802  1
 O  O19  1  0.51880  0.90078  0.81645  1
 O  O20  1  0.68355  0.58433  0.70235  1
 O  O21  1  0.88198  0.48120  0.79765  1
 O  O22  1  0.18355  0.98120  0.59922  1
 O  O23  1  0.48120  0.09922  0.18355  1
 O  O24  1  0.51880  0.11802  0.70235  1
 O  O25  1  0.98120  0.18355  0.09922  1
 O  O26  1  0.61802  0.20235  0.51880  1
 O  O27  1  0.68355  0.59922  0.98120  1
 O  O28  1  0.88198  0.90078  0.08433  1
 O  O29  1  0.40078  0.58433  0.88198  1
 O  O30  1  0.09922  0.48120  0.68355  1
 O  O31  1  0.70235  0.01880  0.61802  1
 O  O32  1  0.79765  0.91567  0.81645  1
 O  O33  1  0.81645  0.01880  0.40078  1
 O  O34  1  0.41567  0.31645  0.79765  1
 O  O35  1  0.08433  0.38198  0.40078  1
 O  O36  1  0.38198  0.79765  0.48120  1
 O  O37  1  0.18355  0.70235  0.58433  1
 O  O38  1  0.31645  0.40078  0.01880  1
 O  O39  1  0.11802  0.09922  0.91567  1
 O  O40  1  0.59922  0.41567  0.11802  1
 O  O41  1  0.90078  0.51880  0.31645  1
 O  O42  1  0.29765  0.98120  0.38198  1
 O  O43  1  0.20235  0.08433  0.18355  1
 O  O44  1  0.48120  0.88198  0.29765  1
 O  O45  1  0.58433  0.68355  0.20235  1
 O  O46  1  0.81645  0.29765  0.41567  1
 O  O47  1  0.61802  0.91567  0.09922  1
 O  O48  1  0.01880  0.81645  0.90078  1
