CIF file written using JARVIS-Tools package.
data_Na3AlSiTe4
_symmetry_space_group_name_H-M  'Pm'
_cell_length_a       4.33411
_cell_length_b       11.7159
_cell_length_c       9.94284
_cell_angle_alpha    36.6838
_cell_angle_beta     64.246
_cell_angle_gamma    68.3833

_symmetry_Int_Tables_number  6
_chemical_formula_structural  Na3AlSiTe4
_chemical_formula_sum  Na3AlSiTe4
_cell_volume  271.46550415973104
_cell_formula_units_Z  1
loop_
  _symmetry_equiv_pos_site_id
 _symmetry_equiv_pos_as_xyz
 1  'x, y, z'
loop_
 _atom_site_type_symbol
 _atom_site_label
 _atom_site_symmetry_multiplicity
 _atom_site_fract_x
 _atom_site_fract_y
 _atom_site_fract_z
 _atom_site_fract_occupancy
 Al  Al1  1  0.52709  0.92280  0.74484  1
 Na  Na1  1  0.04267  0.57777  0.07396  1
 Na  Na2  1  0.24632  0.28122  0.66615  1
 Na  Na3  1  0.54162  0.80145  0.35171  1
 Si  Si1  1  0.79787  0.31591  0.08043  1
 Te  Te1  1  0.29955  0.71917  0.17595  1
 Te  Te2  1  0.01805  0.15109  0.52580  1
 Te  Te3  1  0.48839  0.26446  -0.05908  1
 Te  Te4  1  0.78845  0.71612  0.69025  1
