CIF file written using JARVIS-Tools package.
data_Zr2Ir
_symmetry_space_group_name_H-M  'I4/mcm'
_cell_length_a       5.43118
_cell_length_b       5.43118
_cell_length_c       5.43118
_cell_angle_alpha    106.222
_cell_angle_beta     106.222
_cell_angle_gamma    116.185

_symmetry_Int_Tables_number  140
_chemical_formula_structural  Zr2Ir
_chemical_formula_sum  Zr4Ir2
_cell_volume  122.04352459054512
_cell_formula_units_Z  2
loop_
  _symmetry_equiv_pos_site_id
 _symmetry_equiv_pos_as_xyz
 1  'x, y, z'
loop_
 _atom_site_type_symbol
 _atom_site_label
 _atom_site_symmetry_multiplicity
 _atom_site_fract_x
 _atom_site_fract_y
 _atom_site_fract_z
 _atom_site_fract_occupancy
 Ir  Ir1  1  0.75000  0.75000  0.00000  1
 Ir  Ir2  1  0.25000  0.25000  0.00000  1
 Zr  Zr1  1  0.83131  0.33131  0.16261  1
 Zr  Zr2  1  0.16869  0.66869  0.83739  1
 Zr  Zr3  1  0.66869  0.83131  0.50000  1
 Zr  Zr4  1  0.33131  0.16869  0.50000  1
