CIF file written using JARVIS-Tools package.
data_Na2SrAl4Si4O16
_symmetry_space_group_name_H-M  'Iba2'
_cell_length_a       8.44623
_cell_length_b       9.95282
_cell_length_c       10.665
_cell_angle_alpha    117.814
_cell_angle_beta     113.327
_cell_angle_gamma    90

_symmetry_Int_Tables_number  45
_chemical_formula_structural  Na2SrAl4Si4O16
_chemical_formula_sum  Na4Sr2Al8Si8O32
_cell_volume  709.0478129801578
_cell_formula_units_Z  2
loop_
  _symmetry_equiv_pos_site_id
 _symmetry_equiv_pos_as_xyz
 1  'x, y, z'
loop_
 _atom_site_type_symbol
 _atom_site_label
 _atom_site_symmetry_multiplicity
 _atom_site_fract_x
 _atom_site_fract_y
 _atom_site_fract_z
 _atom_site_fract_occupancy
 Al  Al1  1  0.49362  0.75663  0.12668  1
 Al  Al2  1  0.58805  0.85635  0.62187  1
 Al  Al3  1  0.99362  0.87005  0.12668  1
 Al  Al4  1  0.08805  0.26552  0.62187  1
 Al  Al5  1  0.03383  0.76553  0.62187  1
 Al  Al6  1  0.53383  0.35635  0.62187  1
 Al  Al7  1  0.63305  0.37006  0.12669  1
 Al  Al8  1  0.13305  0.25663  0.12669  1
 Na  Na1  1  0.36433  0.08299  0.80845  1
 Na  Na2  1  0.44413  0.72546  0.80846  1
 Na  Na3  1  0.94413  0.58300  0.80845  1
 Na  Na4  1  0.86433  0.22546  0.80845  1
 O  O1  1  0.91878  0.13786  0.99201  1
 O  O2  1  0.86224  0.66581  0.62070  1
 O  O3  1  0.14286  0.38779  0.05952  1
 O  O4  1  0.89443  0.12999  0.55031  1
 O  O5  1  0.07323  0.85416  0.99202  1
 O  O6  1  0.12676  0.40888  0.81626  1
 O  O7  1  0.41665  0.88779  0.05952  1
 O  O8  1  0.65589  0.42032  0.55032  1
 O  O9  1  0.66099  0.88113  0.31579  1
 O  O10  1  0.97333  0.84218  0.49308  1
 O  O11  1  0.65480  0.43466  0.31580  1
 O  O12  1  0.75847  0.95488  0.62070  1
 O  O13  1  0.01977  0.34218  0.49309  1
 O  O14  1  0.33239  0.63692  0.11999  1
 O  O15  1  0.18950  0.90888  0.81626  1
 O  O16  1  0.62676  0.90738  0.81626  1
 O  O17  1  0.15589  0.63000  0.55032  1
 O  O18  1  0.39443  0.92032  0.55031  1
 O  O19  1  0.15480  0.38113  0.31580  1
 O  O20  1  0.68950  0.40738  0.81626  1
 O  O21  1  0.36224  0.45489  0.62070  1
 O  O22  1  0.51977  0.65090  0.49309  1
 O  O23  1  0.91665  0.67173  0.05952  1
 O  O24  1  0.47333  0.15090  0.49308  1
 O  O25  1  0.64286  0.17173  0.05952  1
 O  O26  1  0.78759  0.48306  0.11999  1
 O  O27  1  0.83239  0.98307  0.11999  1
 O  O28  1  0.28759  0.13692  0.11999  1
 O  O29  1  0.41878  0.35415  0.99201  1
 O  O30  1  0.57323  0.63786  0.99202  1
 O  O31  1  0.16099  0.93467  0.31579  1
 O  O32  1  0.25847  0.16582  0.62070  1
 Si  Si1  1  0.23520  0.94749  0.99647  1
 Si  Si2  1  0.73520  0.54898  0.99647  1
 Si  Si3  1  0.26126  0.44749  0.99647  1
 Si  Si4  1  0.82243  0.94688  0.49149  1
 Si  Si5  1  0.66906  0.54461  0.49149  1
 Si  Si6  1  0.16906  0.44689  0.49149  1
 Si  Si7  1  0.32243  0.04461  0.49149  1
 Si  Si8  1  0.76126  0.04898  0.99647  1
 Sr  Sr1  1  0.15425  0.65426  0.30852  1
 Sr  Sr2  1  0.65425  0.15426  0.30852  1
