CIF file written using JARVIS-Tools package.
data_Li2CuSnO4
_symmetry_space_group_name_H-M  'Imma'
_cell_length_a       6.28214
_cell_length_b       6.28213
_cell_length_c       5.86137
_cell_angle_alpha    117.816
_cell_angle_beta     117.816
_cell_angle_gamma    95.8713

_symmetry_Int_Tables_number  74
_chemical_formula_structural  Li2CuSnO4
_chemical_formula_sum  Li4Cu2Sn2O8
_cell_volume  165.11192731205983
_cell_formula_units_Z  2
loop_
  _symmetry_equiv_pos_site_id
 _symmetry_equiv_pos_as_xyz
 1  'x, y, z'
loop_
 _atom_site_type_symbol
 _atom_site_label
 _atom_site_symmetry_multiplicity
 _atom_site_fract_x
 _atom_site_fract_y
 _atom_site_fract_z
 _atom_site_fract_occupancy
 Cu  Cu1  1  0.00000  0.00000  0.50000  1
 Cu  Cu2  1  0.00000  0.00000  0.00000  1
 Li  Li1  1  0.00000  0.50000  0.50000  1
 Li  Li2  1  0.50000  0.50000  0.50000  1
 Li  Li3  1  0.50000  0.00000  -0.00000  1
 Li  Li4  1  0.50000  0.50000  0.00000  1
 O  O1  1  0.27058  0.72929  0.00246  1
 O  O2  1  0.25066  0.20138  0.47602  1
 O  O3  1  0.27071  0.72942  0.49754  1
 O  O4  1  0.79862  0.74934  0.02398  1
 O  O5  1  0.20138  0.25066  0.97602  1
 O  O6  1  0.72929  0.27058  0.50246  1
 O  O7  1  0.74934  0.79862  0.52398  1
 O  O8  1  0.72942  0.27071  0.99754  1
 Sn  Sn1  1  -0.00000  0.50000  0.00000  1
 Sn  Sn2  1  0.50000  0.00000  0.50000  1
