CIF file written using JARVIS-Tools package.
data_TaP4S6Cl5
_symmetry_space_group_name_H-M  'P-1'
_cell_length_a       6.77127
_cell_length_b       11.0113
_cell_length_c       11.2871
_cell_angle_alpha    101.019
_cell_angle_beta     95.6305
_cell_angle_gamma    103.401

_symmetry_Int_Tables_number  2
_chemical_formula_structural  TaP4S6Cl5
_chemical_formula_sum  Ta2P8S2Cl0
_cell_volume  794.5834595917469
_cell_formula_units_Z  2
loop_
  _symmetry_equiv_pos_site_id
 _symmetry_equiv_pos_as_xyz
 1  'x, y, z'
loop_
 _atom_site_type_symbol
 _atom_site_label
 _atom_site_symmetry_multiplicity
 _atom_site_fract_x
 _atom_site_fract_y
 _atom_site_fract_z
 _atom_site_fract_occupancy
 Cl  Cl1  1  0.81275  0.86314  0.91048  1
 Cl  Cl2  1  0.58529  0.23963  0.94116  1
 Cl  Cl3  1  0.44128  0.45727  0.13408  1
 Cl  Cl4  1  0.18725  0.13686  0.08952  1
 Cl  Cl5  1  0.32726  0.90066  0.82847  1
 Cl  Cl6  1  0.55872  0.54273  0.86592  1
 Cl  Cl7  1  0.67274  0.09934  0.17153  1
 Cl  Cl8  1  0.51504  0.69370  0.64778  1
 Cl  Cl9  1  0.41471  0.76037  0.05884  1
 Cl  Cl10  1  0.48496  0.30630  0.35222  1
 P  P1  1  0.94570  0.87485  0.22690  1
 P  P2  1  0.05430  0.12515  0.77310  1
 P  P3  1  0.72298  0.16537  0.54352  1
 P  P4  1  0.05329  0.19651  0.48810  1
 P  P5  1  0.03152  0.42515  0.71621  1
 P  P6  1  0.94671  0.80349  0.51190  1
 P  P7  1  0.27702  0.83463  0.45648  1
 P  P8  1  0.96848  0.57485  0.28379  1
 S  S1  1  0.10683  0.33009  0.85098  1
 S  S2  1  0.25379  0.93934  0.31737  1
 S  S3  1  0.92105  0.38869  0.20831  1
 S  S4  1  0.72148  0.35403  0.64077  1
 S  S5  1  0.27852  0.64597  0.35923  1
 S  S6  1  0.74621  0.06066  0.68263  1
 S  S7  1  0.81602  0.60266  0.43665  1
 S  S8  1  0.07895  0.61131  0.79169  1
 S  S9  1  0.20659  0.11343  0.61615  1
 S  S10  1  0.79341  0.88657  0.38385  1
 S  S11  1  0.89317  0.66991  0.14902  1
 S  S12  1  0.18398  0.39734  0.56335  1
 Ta  Ta1  1  0.51848  0.26398  0.14228  1
 Ta  Ta2  1  0.48152  0.73602  0.85772  1
