CIF file written using JARVIS-Tools package.
data_Li5Ti6FeO16
_symmetry_space_group_name_H-M  'Pm'
_cell_length_a       5.88917
_cell_length_b       5.94502
_cell_length_c       8.38994
_cell_angle_alpha    90
_cell_angle_beta     90.9144
_cell_angle_gamma    90

_symmetry_Int_Tables_number  6
_chemical_formula_structural  Li5Ti6FeO16
_chemical_formula_sum  Li5Ti6FeO6
_cell_volume  293.7046963900643
_cell_formula_units_Z  1
loop_
  _symmetry_equiv_pos_site_id
 _symmetry_equiv_pos_as_xyz
 1  'x, y, z'
loop_
 _atom_site_type_symbol
 _atom_site_label
 _atom_site_symmetry_multiplicity
 _atom_site_fract_x
 _atom_site_fract_y
 _atom_site_fract_z
 _atom_site_fract_occupancy
 Fe  Fe1  1  0.73809  0.50000  0.61611  1
 Li  Li1  1  0.50781  0.50000  0.99935  1
 Li  Li2  1  0.76048  0.00000  0.88213  1
 Li  Li3  1  0.99037  0.00000  0.50048  1
 Li  Li4  1  0.26470  0.50000  0.37886  1
 Li  Li5  1  0.23094  0.00000  0.12021  1
 O  O1  1  0.24159  0.72728  0.97892  1
 O  O2  1  0.77103  0.26992  0.01834  1
 O  O3  1  0.01254  0.50000  0.75368  1
 O  O4  1  0.47877  0.50000  0.74740  1
 O  O5  1  0.47904  0.00000  0.74084  1
 O  O6  1  0.03552  0.00000  0.74820  1
 O  O7  1  0.24159  0.27272  0.97892  1
 O  O8  1  0.26291  0.23046  0.51784  1
 O  O9  1  0.73533  0.76105  0.49103  1
 O  O10  1  0.95970  0.00000  0.25955  1
 O  O11  1  0.53875  0.50000  0.24818  1
 O  O12  1  0.98651  0.50000  0.24041  1
 O  O13  1  0.26291  0.76954  0.51784  1
 O  O14  1  0.73533  0.23895  0.49103  1
 O  O15  1  0.51571  0.00000  0.26037  1
 O  O16  1  0.77103  0.73008  0.01834  1
 Ti  Ti1  1  0.24869  0.24161  0.75350  1
 Ti  Ti2  1  0.01181  0.50000  0.01009  1
 Ti  Ti3  1  0.24869  0.75839  0.75350  1
 Ti  Ti4  1  0.74798  0.24871  0.24109  1
 Ti  Ti5  1  0.47422  0.00000  0.49272  1
 Ti  Ti6  1  0.74798  0.75129  0.24109  1
