CIF file written using JARVIS-Tools package.
data_USbTe
_symmetry_space_group_name_H-M  'P4/nmm'
_cell_length_a       4.32753
_cell_length_b       4.32753
_cell_length_c       9.0849
_cell_angle_alpha    90
_cell_angle_beta     90
_cell_angle_gamma    90

_symmetry_Int_Tables_number  129
_chemical_formula_structural  USbTe
_chemical_formula_sum  U2Sb2Te2
_cell_volume  170.13769961909048
_cell_formula_units_Z  2
loop_
  _symmetry_equiv_pos_site_id
 _symmetry_equiv_pos_as_xyz
 1  'x, y, z'
loop_
 _atom_site_type_symbol
 _atom_site_label
 _atom_site_symmetry_multiplicity
 _atom_site_fract_x
 _atom_site_fract_y
 _atom_site_fract_z
 _atom_site_fract_occupancy
 Sb  Sb1  1  0.50000  0.50000  0.00000  1
 Sb  Sb2  1  0.00000  0.00000  0.00000  1
 Te  Te1  1  0.00000  0.50000  0.63052  1
 Te  Te2  1  0.50000  0.00000  0.36948  1
 U  U1  1  0.50000  0.00000  0.73008  1
 U  U2  1  0.00000  0.50000  0.26992  1
