CIF file written using JARVIS-Tools package.
data_LiGaGe
_symmetry_space_group_name_H-M  'P6_3mc'
_cell_length_a       4.21445
_cell_length_b       4.21445
_cell_length_c       6.88034
_cell_angle_alpha    90
_cell_angle_beta     90
_cell_angle_gamma    120

_symmetry_Int_Tables_number  186
_chemical_formula_structural  LiGaGe
_chemical_formula_sum  Li2Ga2Ge2
_cell_volume  105.83309674556533
_cell_formula_units_Z  2
loop_
  _symmetry_equiv_pos_site_id
 _symmetry_equiv_pos_as_xyz
 1  'x, y, z'
loop_
 _atom_site_type_symbol
 _atom_site_label
 _atom_site_symmetry_multiplicity
 _atom_site_fract_x
 _atom_site_fract_y
 _atom_site_fract_z
 _atom_site_fract_occupancy
 Ga  Ga1  1  0.33333  0.66667  0.55529  1
 Ga  Ga2  1  0.66667  0.33333  0.05529  1
 Ge  Ge1  1  0.66667  0.33333  0.43880  1
 Ge  Ge2  1  0.33333  0.66667  0.93880  1
 Li  Li1  1  0.00000  0.00000  0.75591  1
 Li  Li2  1  0.00000  0.00000  0.25591  1
