CIF file written using JARVIS-Tools package.
data_RbLiZnS2
_symmetry_space_group_name_H-M  'I-4m2'
_cell_length_a       7.32928
_cell_length_b       7.32929
_cell_length_c       7.32928
_cell_angle_alpha    148.405
_cell_angle_beta     148.405
_cell_angle_gamma    45.2885

_symmetry_Int_Tables_number  119
_chemical_formula_structural  RbLiZnS2
_chemical_formula_sum  RbLiZnS2
_cell_volume  107.72485221521059
_cell_formula_units_Z  1
loop_
  _symmetry_equiv_pos_site_id
 _symmetry_equiv_pos_as_xyz
 1  'x, y, z'
loop_
 _atom_site_type_symbol
 _atom_site_label
 _atom_site_symmetry_multiplicity
 _atom_site_fract_x
 _atom_site_fract_y
 _atom_site_fract_z
 _atom_site_fract_occupancy
 Li  Li1  1  0.25000  0.75000  0.50000  1
 Rb  Rb1  1  0.00000  0.00000  0.00000  1
 S  S1  1  0.65054  0.65054  -0.00000  1
 S  S2  1  0.34946  0.34946  0.00000  1
 Zn  Zn1  1  0.75000  0.25000  0.50000  1
