CIF file written using JARVIS-Tools package.
data_Pr3S3N
_symmetry_space_group_name_H-M  'Pnma'
_cell_length_a       4.08543
_cell_length_b       12.2265
_cell_length_c       13.1718
_cell_angle_alpha    90
_cell_angle_beta     90
_cell_angle_gamma    90

_symmetry_Int_Tables_number  62
_chemical_formula_structural  Pr3S3N
_chemical_formula_sum  Pr2S2N4
_cell_volume  657.9402908378521
_cell_formula_units_Z  4
loop_
  _symmetry_equiv_pos_site_id
 _symmetry_equiv_pos_as_xyz
 1  'x, y, z'
loop_
 _atom_site_type_symbol
 _atom_site_label
 _atom_site_symmetry_multiplicity
 _atom_site_fract_x
 _atom_site_fract_y
 _atom_site_fract_z
 _atom_site_fract_occupancy
 N  N1  1  0.75000  0.95034  0.20197  1
 N  N2  1  0.25000  0.54966  0.70197  1
 N  N3  1  0.75000  0.45034  0.29803  1
 N  N4  1  0.25000  0.04966  0.79803  1
 Pr  Pr1  1  0.75000  0.27304  0.36819  1
 Pr  Pr2  1  0.25000  0.53792  0.35022  1
 Pr  Pr3  1  0.75000  0.46208  0.64978  1
 Pr  Pr4  1  0.25000  0.22696  0.86819  1
 Pr  Pr5  1  0.25000  0.58934  0.87444  1
 Pr  Pr6  1  0.75000  0.91066  0.37444  1
 Pr  Pr7  1  0.25000  0.03792  0.14978  1
 Pr  Pr8  1  0.75000  0.96208  0.85022  1
 Pr  Pr9  1  0.75000  0.41066  0.12556  1
 Pr  Pr10  1  0.25000  0.72696  0.63181  1
 Pr  Pr11  1  0.75000  0.77304  0.13181  1
 Pr  Pr12  1  0.25000  0.08934  0.62556  1
 S  S1  1  0.75000  0.64292  0.50069  1
 S  S2  1  0.25000  0.35708  0.49931  1
 S  S3  1  0.25000  0.85708  0.00069  1
 S  S4  1  0.75000  0.23313  0.70043  1
 S  S5  1  0.75000  0.14292  0.99931  1
 S  S6  1  0.75000  0.42219  0.89273  1
 S  S7  1  0.75000  0.73313  0.79957  1
 S  S8  1  0.25000  0.26687  0.20043  1
 S  S9  1  0.25000  0.07781  0.39273  1
 S  S10  1  0.25000  0.76687  0.29957  1
 S  S11  1  0.75000  0.92219  0.60727  1
 S  S12  1  0.25000  0.57781  0.10727  1
