CIF file written using JARVIS-Tools package.
data_DyLu3
_symmetry_space_group_name_H-M  'P6_3/mmc'
_cell_length_a       7.01003
_cell_length_b       7.01003
_cell_length_c       5.45662
_cell_angle_alpha    90
_cell_angle_beta     90
_cell_angle_gamma    120

_symmetry_Int_Tables_number  194
_chemical_formula_structural  DyLu3
_chemical_formula_sum  Dy2Lu6
_cell_volume  232.21725828679095
_cell_formula_units_Z  2
loop_
  _symmetry_equiv_pos_site_id
 _symmetry_equiv_pos_as_xyz
 1  'x, y, z'
loop_
 _atom_site_type_symbol
 _atom_site_label
 _atom_site_symmetry_multiplicity
 _atom_site_fract_x
 _atom_site_fract_y
 _atom_site_fract_z
 _atom_site_fract_occupancy
 Dy  Dy1  1  0.33333  0.66667  0.75000  1
 Dy  Dy2  1  0.66667  0.33333  0.25000  1
 Lu  Lu1  1  0.16596  0.33192  0.25000  1
 Lu  Lu2  1  0.66808  0.83404  0.25000  1
 Lu  Lu3  1  0.16596  0.83404  0.25000  1
 Lu  Lu4  1  0.83404  0.66808  0.75000  1
 Lu  Lu5  1  0.33192  0.16596  0.75000  1
 Lu  Lu6  1  0.83404  0.16596  0.75000  1
