CIF file written using JARVIS-Tools package.
data_Mg2TiO4
_symmetry_space_group_name_H-M  'P4_122'
_cell_length_a       6.01668
_cell_length_b       6.01668
_cell_length_c       8.45088
_cell_angle_alpha    90
_cell_angle_beta     90
_cell_angle_gamma    90

_symmetry_Int_Tables_number  91
_chemical_formula_structural  Mg2TiO4
_chemical_formula_sum  Mg8Ti4O6
_cell_volume  305.9250799857414
_cell_formula_units_Z  4
loop_
  _symmetry_equiv_pos_site_id
 _symmetry_equiv_pos_as_xyz
 1  'x, y, z'
loop_
 _atom_site_type_symbol
 _atom_site_label
 _atom_site_symmetry_multiplicity
 _atom_site_fract_x
 _atom_site_fract_y
 _atom_site_fract_z
 _atom_site_fract_occupancy
 Mg  Mg1  1  0.00000  0.24862  0.00000  1
 Mg  Mg2  1  0.00000  0.75138  0.50000  1
 Mg  Mg3  1  0.24862  0.00000  0.75000  1
 Mg  Mg4  1  0.25201  0.25201  0.37500  1
 Mg  Mg5  1  0.25201  0.74799  0.12500  1
 Mg  Mg6  1  0.74799  0.25201  0.62500  1
 Mg  Mg7  1  0.74799  0.74799  0.87500  1
 Mg  Mg8  1  0.75138  0.00000  0.25000  1
 O  O1  1  0.02612  0.73789  0.74756  1
 O  O2  1  0.26211  0.97388  0.50244  1
 O  O3  1  0.26211  0.02612  0.99756  1
 O  O4  1  0.02612  0.26211  0.75244  1
 O  O5  1  0.26037  0.48331  0.98375  1
 O  O6  1  0.97388  0.26211  0.24756  1
 O  O7  1  0.48331  0.73963  0.73375  1
 O  O8  1  0.26037  0.51669  0.51625  1
 O  O9  1  0.51669  0.26037  0.23375  1
 O  O10  1  0.73963  0.48331  0.01625  1
 O  O11  1  0.73789  0.97388  0.49756  1
 O  O12  1  0.73789  0.02612  0.00244  1
 O  O13  1  0.48331  0.26037  0.76625  1
 O  O14  1  0.73963  0.51669  0.48375  1
 O  O15  1  0.51669  0.73963  0.26625  1
 O  O16  1  0.97388  0.73789  0.25244  1
 Ti  Ti1  1  0.23665  0.50000  0.75000  1
 Ti  Ti2  1  0.50000  0.23665  0.00000  1
 Ti  Ti3  1  0.50000  0.76335  0.50000  1
 Ti  Ti4  1  0.76335  0.50000  0.25000  1
