CIF file written using JARVIS-Tools package.
data_DyAlCo4
_symmetry_space_group_name_H-M  'P-6m2'
_cell_length_a       3.86237
_cell_length_b       5.02824
_cell_length_c       5.02818
_cell_angle_alpha    59.9984
_cell_angle_beta     90
_cell_angle_gamma    90

_symmetry_Int_Tables_number  187
_chemical_formula_structural  DyAlCo4
_chemical_formula_sum  DyAlCo4
_cell_volume  84.56756905496226
_cell_formula_units_Z  1
loop_
  _symmetry_equiv_pos_site_id
 _symmetry_equiv_pos_as_xyz
 1  'x, y, z'
loop_
 _atom_site_type_symbol
 _atom_site_label
 _atom_site_symmetry_multiplicity
 _atom_site_fract_x
 _atom_site_fract_y
 _atom_site_fract_z
 _atom_site_fract_occupancy
 Al  Al1  1  0.00000  0.33334  0.33333  1
 Co  Co1  1  0.00000  0.66666  0.66671  1
 Co  Co2  1  0.50000  0.50330  0.50332  1
 Co  Co3  1  0.50000  0.50328  0.99341  1
 Co  Co4  1  0.50000  0.99335  0.50332  1
 Dy  Dy1  1  0.00000  0.00001  0.00000  1
