CIF file written using JARVIS-Tools package.
data_RbCuPdSe5
_symmetry_space_group_name_H-M  'P2_1/m'
_cell_length_a       6.33089
_cell_length_b       7.37077
_cell_length_c       9.03138
_cell_angle_alpha    90
_cell_angle_beta     102.984
_cell_angle_gamma    90

_symmetry_Int_Tables_number  11
_chemical_formula_structural  RbCuPdSe5
_chemical_formula_sum  Rb2Cu2Pd2Se0
_cell_volume  410.66033235983116
_cell_formula_units_Z  2
loop_
  _symmetry_equiv_pos_site_id
 _symmetry_equiv_pos_as_xyz
 1  'x, y, z'
loop_
 _atom_site_type_symbol
 _atom_site_label
 _atom_site_symmetry_multiplicity
 _atom_site_fract_x
 _atom_site_fract_y
 _atom_site_fract_z
 _atom_site_fract_occupancy
 Cu  Cu1  1  0.11452  0.25000  0.60951  1
 Cu  Cu2  1  0.88548  0.75000  0.39049  1
 Pd  Pd1  1  0.50000  0.50000  0.50000  1
 Pd  Pd2  1  0.50000  0.00000  0.50000  1
 Rb  Rb1  1  0.25448  0.25000  0.05099  1
 Rb  Rb2  1  0.74552  0.75000  0.94901  1
 Se  Se1  1  0.03784  0.75000  0.65887  1
 Se  Se2  1  0.68515  0.00995  0.28268  1
 Se  Se3  1  0.73007  0.25000  0.63641  1
 Se  Se4  1  0.26993  0.75000  0.36359  1
 Se  Se5  1  0.68515  0.49005  0.28268  1
 Se  Se6  1  0.29232  0.75000  0.10299  1
 Se  Se7  1  0.70768  0.25000  0.89701  1
 Se  Se8  1  0.96216  0.25000  0.34113  1
 Se  Se9  1  0.31485  0.99005  0.71732  1
 Se  Se10  1  0.31485  0.50995  0.71732  1
