CIF file written using JARVIS-Tools package.
data_SbSeI
_symmetry_space_group_name_H-M  'Pnma'
_cell_length_a       4.17292
_cell_length_b       8.83874
_cell_length_c       10.5992
_cell_angle_alpha    90
_cell_angle_beta     90
_cell_angle_gamma    90

_symmetry_Int_Tables_number  62
_chemical_formula_structural  SbSeI
_chemical_formula_sum  Sb4Se4I4
_cell_volume  390.934009990682
_cell_formula_units_Z  4
loop_
  _symmetry_equiv_pos_site_id
 _symmetry_equiv_pos_as_xyz
 1  'x, y, z'
loop_
 _atom_site_type_symbol
 _atom_site_label
 _atom_site_symmetry_multiplicity
 _atom_site_fract_x
 _atom_site_fract_y
 _atom_site_fract_z
 _atom_site_fract_occupancy
 I  I1  1  0.75000  0.51596  0.82660  1
 I  I2  1  0.25000  0.48404  0.17340  1
 I  I3  1  0.75000  0.01596  0.67340  1
 I  I4  1  0.25000  0.98404  0.32660  1
 Sb  Sb1  1  0.75000  0.11796  0.12915  1
 Sb  Sb2  1  0.75000  0.61796  0.37085  1
 Sb  Sb3  1  0.25000  0.88204  0.87085  1
 Sb  Sb4  1  0.25000  0.38204  0.62915  1
 Se  Se1  1  0.75000  0.33332  0.45305  1
 Se  Se2  1  0.25000  0.66668  0.54695  1
 Se  Se3  1  0.25000  0.16668  0.95305  1
 Se  Se4  1  0.75000  0.83332  0.04695  1
