data_image0
_chemical_formula_structural       Cl2H4MnO2
_chemical_formula_sum              "Cl2 H4 Mn1 O2"
_cell_length_a       3.66287
_cell_length_b       5.69135
_cell_length_c       5.69135
_cell_angle_alpha    99.7845
_cell_angle_beta     95.8953
_cell_angle_gamma    95.8953

_space_group_name_H-M_alt    "P 1"
_space_group_IT_number       1

loop_
  _space_group_symop_operation_xyz
  'x, y, z'

loop_
  _atom_site_type_symbol
  _atom_site_label
  _atom_site_symmetry_multiplicity
  _atom_site_fract_x
  _atom_site_fract_y
  _atom_site_fract_z
  _atom_site_occupancy
  Cl  Cl1       1.0  0.57300  0.24700  0.24700  1.0000
  Cl  Cl2       1.0  0.42700  0.75300  0.75300  1.0000
  H   H1        1.0  0.84800  0.59600  0.22400  1.0000
  H   H2        1.0  0.15200  0.77600  0.40400  1.0000
  H   H3        1.0  0.84800  0.22400  0.59600  1.0000
  H   H4        1.0  0.15200  0.40400  0.77600  1.0000
  Mn  Mn1       1.0  0.00000  0.00000  0.00000  1.0000
  O   O1        1.0  0.00000  0.75400  0.24600  1.0000
  O   O2        1.0  0.00000  0.24600  0.75400  1.0000
