CIF file written using JARVIS-Tools package.
data_SiC
_symmetry_space_group_name_H-M  'P6_3mc'
_cell_length_a       3.10054
_cell_length_b       3.10053
_cell_length_c       40.5888
_cell_angle_alpha    90
_cell_angle_beta     90
_cell_angle_gamma    120

_symmetry_Int_Tables_number  186
_chemical_formula_structural  SiC
_chemical_formula_sum  Si6C6
_cell_volume  337.91742582825583
_cell_formula_units_Z  16
loop_
  _symmetry_equiv_pos_site_id
 _symmetry_equiv_pos_as_xyz
 1  'x, y, z'
loop_
 _atom_site_type_symbol
 _atom_site_label
 _atom_site_symmetry_multiplicity
 _atom_site_fract_x
 _atom_site_fract_y
 _atom_site_fract_z
 _atom_site_fract_occupancy
 C  C1  1  0.33333  0.66667  0.23446  1
 C  C2  1  0.00000  0.00000  0.67178  1
 C  C3  1  0.00000  0.00000  0.17178  1
 C  C4  1  0.33333  0.66667  0.48431  1
 C  C5  1  0.66667  0.33333  0.35951  1
 C  C6  1  0.33333  0.66667  0.04698  1
 C  C7  1  0.00000  0.00000  0.92190  1
 C  C8  1  0.66667  0.33333  0.54698  1
 C  C9  1  0.66667  0.33333  0.73446  1
 C  C10  1  0.00000  0.00000  0.42190  1
 C  C11  1  0.66667  0.33333  0.98431  1
 C  C12  1  0.00000  0.00000  0.79682  1
 C  C13  1  0.66667  0.33333  0.10937  1
 C  C14  1  0.33333  0.66667  0.85951  1
 C  C15  1  0.00000  0.00000  0.29682  1
 C  C16  1  0.33333  0.66667  0.60937  1
 Si  Si1  1  0.33333  0.66667  0.81250  1
 Si  Si2  1  0.00000  0.00000  0.37504  1
 Si  Si3  1  0.66667  0.33333  0.93745  1
 Si  Si4  1  0.66667  0.33333  0.06251  1
 Si  Si5  1  0.00000  0.00000  0.24998  1
 Si  Si6  1  0.00000  0.00000  0.87504  1
 Si  Si7  1  0.00000  0.00000  0.12492  1
 Si  Si8  1  0.66667  0.33333  0.49998  1
 Si  Si9  1  0.33333  0.66667  0.43745  1
 Si  Si10  1  0.33333  0.66667  0.99998  1
 Si  Si11  1  0.00000  0.00000  0.74998  1
 Si  Si12  1  0.66667  0.33333  0.31250  1
 Si  Si13  1  0.00000  0.00000  0.62492  1
 Si  Si14  1  0.33333  0.66667  0.18745  1
 Si  Si15  1  0.33333  0.66667  0.56251  1
 Si  Si16  1  0.66667  0.33333  0.68745  1
