CIF file written using JARVIS-Tools package.
data_Mg5Ag
_symmetry_space_group_name_H-M  'R32'
_cell_length_a       5.85256
_cell_length_b       5.85256
_cell_length_c       5.85255
_cell_angle_alpha    54.6695
_cell_angle_beta     54.6695
_cell_angle_gamma    54.6695

_symmetry_Int_Tables_number  155
_chemical_formula_structural  Mg5Ag
_chemical_formula_sum  Mg5Ag
_cell_volume  124.14552964899241
_cell_formula_units_Z  1
loop_
  _symmetry_equiv_pos_site_id
 _symmetry_equiv_pos_as_xyz
 1  'x, y, z'
loop_
 _atom_site_type_symbol
 _atom_site_label
 _atom_site_symmetry_multiplicity
 _atom_site_fract_x
 _atom_site_fract_y
 _atom_site_fract_z
 _atom_site_fract_occupancy
 Ag  Ag1  1  0.50000  0.50000  0.50000  1
 Mg  Mg1  1  0.65788  0.34212  0.00000  1
 Mg  Mg2  1  0.00000  0.65788  0.34212  1
 Mg  Mg3  1  0.34212  -0.00000  0.65788  1
 Mg  Mg4  1  0.16517  0.16517  0.16517  1
 Mg  Mg5  1  0.83483  0.83483  0.83483  1
