CIF file written using JARVIS-Tools package.
data_AgPPd5
_symmetry_space_group_name_H-M  'P4/mmm'
_cell_length_a       3.96187
_cell_length_b       3.96187
_cell_length_c       6.97539
_cell_angle_alpha    90
_cell_angle_beta     90
_cell_angle_gamma    90

_symmetry_Int_Tables_number  123
_chemical_formula_structural  AgPPd5
_chemical_formula_sum  AgPPd5
_cell_volume  109.48860434523547
_cell_formula_units_Z  1
loop_
  _symmetry_equiv_pos_site_id
 _symmetry_equiv_pos_as_xyz
 1  'x, y, z'
loop_
 _atom_site_type_symbol
 _atom_site_label
 _atom_site_symmetry_multiplicity
 _atom_site_fract_x
 _atom_site_fract_y
 _atom_site_fract_z
 _atom_site_fract_occupancy
 Ag  Ag1  1  0.50000  0.50000  0.00000  1
 P  P1  1  0.00000  0.00000  0.50000  1
 Pd  Pd1  1  0.00000  0.00000  0.00000  1
 Pd  Pd2  1  0.50000  0.00000  0.70215  1
 Pd  Pd3  1  0.00000  0.50000  0.70215  1
 Pd  Pd4  1  0.50000  0.00000  0.29785  1
 Pd  Pd5  1  0.00000  0.50000  0.29785  1
