CIF file written using JARVIS-Tools package.
data_K5CuSb2
_symmetry_space_group_name_H-M  'R-3m'
_cell_length_a       9.9629
_cell_length_b       9.9629
_cell_length_c       9.9629
_cell_angle_alpha    34.4643
_cell_angle_beta     34.4643
_cell_angle_gamma    34.4643

_symmetry_Int_Tables_number  166
_chemical_formula_structural  K5CuSb2
_chemical_formula_sum  K5CuSb2
_cell_volume  282.504365168651
_cell_formula_units_Z  1
loop_
  _symmetry_equiv_pos_site_id
 _symmetry_equiv_pos_as_xyz
 1  'x, y, z'
loop_
 _atom_site_type_symbol
 _atom_site_label
 _atom_site_symmetry_multiplicity
 _atom_site_fract_x
 _atom_site_fract_y
 _atom_site_fract_z
 _atom_site_fract_occupancy
 Cu  Cu1  1  0.00000  0.00000  0.00000  1
 K  K1  1  0.50000  0.50000  0.50000  1
 K  K2  1  0.36486  0.36486  0.36486  1
 K  K3  1  0.63514  0.63514  0.63514  1
 K  K4  1  0.21700  0.21700  0.21700  1
 K  K5  1  0.78300  0.78300  0.78300  1
 Sb  Sb1  1  0.08940  0.08940  0.08940  1
 Sb  Sb2  1  0.91060  0.91060  0.91060  1
