CIF file written using JARVIS-Tools package.
data_Nb3I8
_symmetry_space_group_name_H-M  'R-3m'
_cell_length_a       14.7401
_cell_length_b       14.7401
_cell_length_c       14.7401
_cell_angle_alpha    30.1547
_cell_angle_beta     30.1547
_cell_angle_gamma    30.1547

_symmetry_Int_Tables_number  166
_chemical_formula_structural  Nb3I8
_chemical_formula_sum  Nb6I6
_cell_volume  716.0011169504144
_cell_formula_units_Z  2
loop_
  _symmetry_equiv_pos_site_id
 _symmetry_equiv_pos_as_xyz
 1  'x, y, z'
loop_
 _atom_site_type_symbol
 _atom_site_label
 _atom_site_symmetry_multiplicity
 _atom_site_fract_x
 _atom_site_fract_y
 _atom_site_fract_z
 _atom_site_fract_occupancy
 I  I1  1  0.62785  0.11748  0.11748  1
 I  I2  1  0.29370  0.79504  0.29370  1
 I  I3  1  0.29370  0.29370  0.79504  1
 I  I4  1  0.79504  0.29370  0.29370  1
 I  I5  1  0.20496  0.70630  0.70630  1
 I  I6  1  0.36435  0.36435  0.36435  1
 I  I7  1  0.70630  0.70630  0.20496  1
 I  I8  1  0.70630  0.20496  0.70630  1
 I  I9  1  0.88252  0.88252  0.37215  1
 I  I10  1  0.37215  0.88252  0.88252  1
 I  I11  1  0.63565  0.63565  0.63565  1
 I  I12  1  0.11748  0.62785  0.11748  1
 I  I13  1  0.11748  0.11748  0.62785  1
 I  I14  1  0.21589  0.21589  0.21589  1
 I  I15  1  0.78411  0.78411  0.78411  1
 I  I16  1  0.88252  0.37215  0.88252  1
 Nb  Nb1  1  0.45381  0.45381  0.84535  1
 Nb  Nb2  1  0.45381  0.84535  0.45381  1
 Nb  Nb3  1  0.84535  0.45381  0.45381  1
 Nb  Nb4  1  0.15465  0.54619  0.54619  1
 Nb  Nb5  1  0.54619  0.54619  0.15465  1
 Nb  Nb6  1  0.54619  0.15465  0.54619  1
