CIF file written using JARVIS-Tools package.
data_Na7AlH2C4O12F4
_symmetry_space_group_name_H-M  'P-1'
_cell_length_a       6.44546
_cell_length_b       6.75198
_cell_length_c       8.86016
_cell_angle_alpha    92.4266
_cell_angle_beta     97.5253
_cell_angle_gamma    119.898

_symmetry_Int_Tables_number  2
_chemical_formula_structural  Na7AlH2C4O12F4
_chemical_formula_sum  Na7AlH2C4O2F4
_cell_volume  328.7853498760924
_cell_formula_units_Z  1
loop_
  _symmetry_equiv_pos_site_id
 _symmetry_equiv_pos_as_xyz
 1  'x, y, z'
loop_
 _atom_site_type_symbol
 _atom_site_label
 _atom_site_symmetry_multiplicity
 _atom_site_fract_x
 _atom_site_fract_y
 _atom_site_fract_z
 _atom_site_fract_occupancy
 Al  Al1  1  0.00000  0.50000  0.00000  1
 C  C1  1  0.20438  0.38974  0.28553  1
 C  C2  1  0.79562  0.61026  0.71447  1
 C  C3  1  0.28767  0.11215  0.70029  1
 C  C4  1  0.71233  0.88785  0.29971  1
 F  F1  1  0.84600  0.21148  0.89265  1
 F  F2  1  0.25044  0.60973  0.89108  1
 F  F3  1  0.15400  0.78852  0.10735  1
 F  F4  1  0.74956  0.39027  0.10892  1
 H  H1  1  0.24077  0.23779  0.50580  1
 H  H2  1  0.75923  0.76221  0.49420  1
 Na  Na1  1  0.00000  0.00000  0.00000  1
 Na  Na2  1  0.22193  0.88176  0.35715  1
 Na  Na3  1  0.72502  0.38492  0.35841  1
 Na  Na4  1  0.27498  0.61508  0.64159  1
 Na  Na5  1  0.50000  0.50000  0.00000  1
 Na  Na6  1  0.50000  0.00000  0.00000  1
 Na  Na7  1  0.77807  0.11824  0.64285  1
 O  O1  1  0.29179  0.13220  0.84337  1
 O  O2  1  0.35128  0.99113  0.62731  1
 O  O3  1  0.79426  0.76623  0.38207  1
 O  O4  1  0.20574  0.23377  0.61793  1
 O  O5  1  0.64872  0.00887  0.37269  1
 O  O6  1  0.71335  0.73965  0.66059  1
 O  O7  1  0.82415  0.60750  0.86434  1
 O  O8  1  0.17585  0.39250  0.13566  1
 O  O9  1  0.84632  0.49214  0.62650  1
 O  O10  1  0.15368  0.50786  0.37350  1
 O  O11  1  0.70821  0.86780  0.15663  1
 O  O12  1  0.28665  0.26035  0.33941  1
