CIF file written using JARVIS-Tools package.
data_La2MnFeSe2O3
_symmetry_space_group_name_H-M  'Immm'
_cell_length_a       4.07572
_cell_length_b       9.4406
_cell_length_c       3.98607
_cell_angle_alpha    77.8134
_cell_angle_beta     89.9989
_cell_angle_gamma    77.537

_symmetry_Int_Tables_number  71
_chemical_formula_structural  La2MnFeSe2O3
_chemical_formula_sum  La2MnFeSe2O3
_cell_volume  146.21755635320554
_cell_formula_units_Z  1
loop_
  _symmetry_equiv_pos_site_id
 _symmetry_equiv_pos_as_xyz
 1  'x, y, z'
loop_
 _atom_site_type_symbol
 _atom_site_label
 _atom_site_symmetry_multiplicity
 _atom_site_fract_x
 _atom_site_fract_y
 _atom_site_fract_z
 _atom_site_fract_occupancy
 Fe  Fe1  1  0.50006  -0.00000  0.00006  1
 La  La1  1  0.68010  0.63975  0.68007  1
 La  La2  1  0.31973  0.36027  0.31976  1
 Mn  Mn1  1  0.00007  -0.00001  0.50006  1
 O  O1  1  0.50007  -0.00003  0.50007  1
 O  O2  1  0.75158  0.49676  0.25159  1
 O  O3  1  0.24834  0.50326  0.74833  1
 Se  Se1  1  0.09142  0.81725  0.09141  1
 Se  Se2  1  0.90864  0.18275  0.90865  1
