CIF file written using JARVIS-Tools package.
data_Mn8O13F3
_symmetry_space_group_name_H-M  'P1'
_cell_length_a       6.60681
_cell_length_b       6.58894
_cell_length_c       6.91581
_cell_angle_alpha    114.266
_cell_angle_beta     114.296
_cell_angle_gamma    96.0703

_symmetry_Int_Tables_number  1
_chemical_formula_structural  Mn8O13F3
_chemical_formula_sum  Mn8O3F3
_cell_volume  236.070130495471
_cell_formula_units_Z  1
loop_
  _symmetry_equiv_pos_site_id
 _symmetry_equiv_pos_as_xyz
 1  'x, y, z'
loop_
 _atom_site_type_symbol
 _atom_site_label
 _atom_site_symmetry_multiplicity
 _atom_site_fract_x
 _atom_site_fract_y
 _atom_site_fract_z
 _atom_site_fract_occupancy
 F  F1  1  0.22095  0.14075  0.11925  1
 F  F2  1  0.39817  0.95951  0.61905  1
 F  F3  1  0.70912  0.64989  0.12007  1
 Mn  Mn1  1  0.42861  0.70120  0.14391  1
 Mn  Mn2  1  0.03716  0.78517  0.83441  1
 Mn  Mn3  1  0.54918  0.30252  0.85158  1
 Mn  Mn4  1  0.95090  0.19506  0.64798  1
 Mn  Mn5  1  0.05131  0.80031  0.35153  1
 Mn  Mn6  1  0.93764  0.20003  0.14662  1
 Mn  Mn7  1  0.44866  0.67922  0.64363  1
 Mn  Mn8  1  0.56789  0.30670  0.36233  1
 O  O1  1  0.12002  0.53593  0.38465  1
 O  O2  1  0.98886  0.90277  0.61810  1
 O  O3  1  0.48038  0.39635  0.61258  1
 O  O4  1  0.84948  0.27278  0.88770  1
 O  O5  1  0.65273  0.23593  0.11832  1
 O  O6  1  0.78699  0.86408  0.88333  1
 O  O7  1  0.61672  0.03758  0.38638  1
 O  O8  1  0.34492  0.76823  0.88149  1
 O  O9  1  0.14821  0.73678  0.11516  1
 O  O10  1  0.52061  0.59880  0.38495  1
 O  O11  1  0.02233  0.10084  0.38570  1
 O  O12  1  0.88290  0.45922  0.61331  1
 O  O13  1  0.28628  0.37037  0.88795  1
