CIF file written using JARVIS-Tools package.
data_AlTlBr4
_symmetry_space_group_name_H-M  'P2/c'
_cell_length_a       7.40774
_cell_length_b       8.59378
_cell_length_c       13.2684
_cell_angle_alpha    106.299
_cell_angle_beta     90
_cell_angle_gamma    90

_symmetry_Int_Tables_number  13
_chemical_formula_structural  AlTlBr4
_chemical_formula_sum  Al4Tl4Br6
_cell_volume  810.7258073498315
_cell_formula_units_Z  4
loop_
  _symmetry_equiv_pos_site_id
 _symmetry_equiv_pos_as_xyz
 1  'x, y, z'
loop_
 _atom_site_type_symbol
 _atom_site_label
 _atom_site_symmetry_multiplicity
 _atom_site_fract_x
 _atom_site_fract_y
 _atom_site_fract_z
 _atom_site_fract_occupancy
 Al  Al1  1  0.78333  0.28911  0.54668  1
 Al  Al2  1  0.21667  0.71089  0.45332  1
 Al  Al3  1  0.78333  0.71089  0.95332  1
 Al  Al4  1  0.21667  0.28911  0.04668  1
 Br  Br1  1  0.57404  0.84702  0.87761  1
 Br  Br2  1  0.26693  0.43429  0.39312  1
 Br  Br3  1  0.92892  0.21770  0.08833  1
 Br  Br4  1  0.92892  0.78230  0.41167  1
 Br  Br5  1  0.26693  0.56571  0.10688  1
 Br  Br6  1  0.42596  0.15298  0.12239  1
 Br  Br7  1  0.07108  0.21770  0.58833  1
 Br  Br8  1  0.25632  0.79770  0.63503  1
 Br  Br9  1  0.07108  0.78230  0.91167  1
 Br  Br10  1  0.42596  0.84702  0.37761  1
 Br  Br11  1  0.57404  0.15298  0.62239  1
 Br  Br12  1  0.74368  0.20230  0.36497  1
 Br  Br13  1  0.73307  0.43429  0.89312  1
 Br  Br14  1  0.25632  0.20230  0.86497  1
 Br  Br15  1  0.74368  0.79770  0.13503  1
 Br  Br16  1  0.73307  0.56571  0.60688  1
 Tl  Tl1  1  0.89289  0.00000  0.75000  1
 Tl  Tl2  1  0.64126  0.50000  0.25000  1
 Tl  Tl3  1  0.35874  0.50000  0.75000  1
 Tl  Tl4  1  0.10711  0.00000  0.25000  1
