CIF file written using JARVIS-Tools package.
data_Ho2AlNi2
_symmetry_space_group_name_H-M  'Immm'
_cell_length_a       4.14137
_cell_length_b       5.39995
_cell_length_c       5.34132
_cell_angle_alpha    120.364
_cell_angle_beta     112.81
_cell_angle_gamma    90

_symmetry_Int_Tables_number  71
_chemical_formula_structural  Ho2AlNi2
_chemical_formula_sum  Ho2AlNi2
_cell_volume  92.07579918426555
_cell_formula_units_Z  1
loop_
  _symmetry_equiv_pos_site_id
 _symmetry_equiv_pos_as_xyz
 1  'x, y, z'
loop_
 _atom_site_type_symbol
 _atom_site_label
 _atom_site_symmetry_multiplicity
 _atom_site_fract_x
 _atom_site_fract_y
 _atom_site_fract_z
 _atom_site_fract_occupancy
 Al  Al1  1  0.00000  0.00000  0.00000  1
 Ho  Ho1  1  0.79720  0.29720  0.59441  1
 Ho  Ho2  1  0.20280  0.70280  0.40559  1
 Ni  Ni1  1  0.50000  0.73173  0.00000  1
 Ni  Ni2  1  0.50000  0.26827  0.00000  1
