CIF file written using JARVIS-Tools package.
data_Mg3InAg4
_symmetry_space_group_name_H-M  'R-3m'
_cell_length_a       8.19829
_cell_length_b       8.19829
_cell_length_c       8.19829
_cell_angle_alpha    33.4339
_cell_angle_beta     33.434
_cell_angle_gamma    33.4339

_symmetry_Int_Tables_number  166
_chemical_formula_structural  Mg3InAg4
_chemical_formula_sum  Mg3InAg4
_cell_volume  148.96681393311238
_cell_formula_units_Z  1
loop_
  _symmetry_equiv_pos_site_id
 _symmetry_equiv_pos_as_xyz
 1  'x, y, z'
loop_
 _atom_site_type_symbol
 _atom_site_label
 _atom_site_symmetry_multiplicity
 _atom_site_fract_x
 _atom_site_fract_y
 _atom_site_fract_z
 _atom_site_fract_occupancy
 Ag  Ag1  1  0.87237  0.87237  0.87237  1
 Ag  Ag2  1  0.37819  0.37819  0.37819  1
 Ag  Ag3  1  0.12763  0.12763  0.12763  1
 Ag  Ag4  1  0.62181  0.62181  0.62181  1
 In  In1  1  0.00000  0.00000  0.00000  1
 Mg  Mg1  1  0.24963  0.24963  0.24963  1
 Mg  Mg2  1  0.75037  0.75037  0.75037  1
 Mg  Mg3  1  0.50000  0.50000  0.50000  1
