CIF file written using JARVIS-Tools package.
data_Zr3Ta
_symmetry_space_group_name_H-M  'P6_3/mmc'
_cell_length_a       6.27347
_cell_length_b       6.27348
_cell_length_c       5.13486
_cell_angle_alpha    90
_cell_angle_beta     90
_cell_angle_gamma    120

_symmetry_Int_Tables_number  194
_chemical_formula_structural  Zr3Ta
_chemical_formula_sum  Zr6Ta2
_cell_volume  175.01496821735674
_cell_formula_units_Z  2
loop_
  _symmetry_equiv_pos_site_id
 _symmetry_equiv_pos_as_xyz
 1  'x, y, z'
loop_
 _atom_site_type_symbol
 _atom_site_label
 _atom_site_symmetry_multiplicity
 _atom_site_fract_x
 _atom_site_fract_y
 _atom_site_fract_z
 _atom_site_fract_occupancy
 Ta  Ta1  1  0.33333  0.66667  0.75000  1
 Ta  Ta2  1  0.66667  0.33333  0.25000  1
 Zr  Zr1  1  0.17119  0.34237  0.25000  1
 Zr  Zr2  1  0.65763  0.82881  0.25000  1
 Zr  Zr3  1  0.17119  0.82881  0.25000  1
 Zr  Zr4  1  0.82881  0.65763  0.75000  1
 Zr  Zr5  1  0.34237  0.17119  0.75000  1
 Zr  Zr6  1  0.82881  0.17119  0.75000  1
