CIF file written using JARVIS-Tools package.
data_Ba2ZnGe2S6O
_symmetry_space_group_name_H-M  'P-42_1m'
_cell_length_a       6.47351
_cell_length_b       9.68833
_cell_length_c       9.68833
_cell_angle_alpha    90
_cell_angle_beta     90
_cell_angle_gamma    90

_symmetry_Int_Tables_number  113
_chemical_formula_structural  Ba2ZnGe2S6O
_chemical_formula_sum  Ba4Zn2Ge4S2O2
_cell_volume  607.6272762816908
_cell_formula_units_Z  2
loop_
  _symmetry_equiv_pos_site_id
 _symmetry_equiv_pos_as_xyz
 1  'x, y, z'
loop_
 _atom_site_type_symbol
 _atom_site_label
 _atom_site_symmetry_multiplicity
 _atom_site_fract_x
 _atom_site_fract_y
 _atom_site_fract_z
 _atom_site_fract_occupancy
 Ba  Ba1  1  0.50011  0.15893  0.65893  1
 Ba  Ba2  1  0.49989  0.34107  0.15893  1
 Ba  Ba3  1  0.50011  0.84107  0.34107  1
 Ba  Ba4  1  0.49989  0.65893  0.84107  1
 Ge  Ge1  1  0.93041  0.62630  0.12630  1
 Ge  Ge2  1  0.06959  0.87370  0.62630  1
 Ge  Ge3  1  0.06959  0.12630  0.37370  1
 Ge  Ge4  1  0.93041  0.37370  0.87370  1
 O  O1  1  0.18317  0.00000  0.50000  1
 O  O2  1  0.81683  0.50000  0.00000  1
 S  S1  1  0.26538  0.63486  0.13486  1
 S  S2  1  0.73462  0.86514  0.63486  1
 S  S3  1  0.23003  0.32258  0.43713  1
 S  S4  1  0.76997  0.43713  0.67742  1
 S  S5  1  0.76997  0.56287  0.32258  1
 S  S6  1  0.23003  0.67742  0.56287  1
 S  S7  1  0.76997  0.82258  0.06287  1
 S  S8  1  0.76997  0.17742  0.93713  1
 S  S9  1  0.23003  0.06287  0.17742  1
 S  S10  1  0.23003  0.93713  0.82258  1
 S  S11  1  0.26538  0.36514  0.86514  1
 S  S12  1  0.73462  0.13486  0.36514  1
 Zn  Zn1  1  0.00000  0.50000  0.50000  1
 Zn  Zn2  1  0.00000  0.00000  0.00000  1
