CIF file written using JARVIS-Tools package.
data_Li2V3FeO8
_symmetry_space_group_name_H-M  'P6_3mc'
_cell_length_a       5.70367
_cell_length_b       5.70371
_cell_length_c       9.42246
_cell_angle_alpha    89.9998
_cell_angle_beta     90.0001
_cell_angle_gamma    120

_symmetry_Int_Tables_number  186
_chemical_formula_structural  Li2V3FeO8
_chemical_formula_sum  Li4V6Fe2O6
_cell_volume  265.4637660392155
_cell_formula_units_Z  2
loop_
  _symmetry_equiv_pos_site_id
 _symmetry_equiv_pos_as_xyz
 1  'x, y, z'
loop_
 _atom_site_type_symbol
 _atom_site_label
 _atom_site_symmetry_multiplicity
 _atom_site_fract_x
 _atom_site_fract_y
 _atom_site_fract_z
 _atom_site_fract_occupancy
 Fe  Fe1  1  0.33331  0.66667  0.48734  1
 Fe  Fe2  1  0.66669  0.33335  0.98734  1
 Li  Li1  1  0.33333  0.66668  0.88979  1
 Li  Li2  1  0.00016  0.00007  0.99475  1
 Li  Li3  1  0.99984  0.99991  0.49475  1
 Li  Li4  1  0.66667  0.33335  0.38979  1
 O  O1  1  0.16877  0.83117  0.60476  1
 O  O2  1  0.95954  0.47978  0.84489  1
 O  O3  1  0.33336  0.66670  0.08885  1
 O  O4  1  0.00006  0.00005  0.30805  1
 O  O5  1  0.99994  -0.00001  0.80805  1
 O  O6  1  0.16877  0.33761  0.60475  1
 O  O7  1  0.04046  0.52024  0.34489  1
 O  O8  1  0.47982  0.52028  0.34489  1
 O  O9  1  0.66229  0.83116  0.60478  1
 O  O10  1  0.52018  0.47974  0.84489  1
 O  O11  1  0.83123  0.66240  0.10476  1
 O  O12  1  0.66664  0.33333  0.58885  1
 O  O13  1  0.47982  0.95956  0.34489  1
 O  O14  1  0.33771  0.16886  0.10478  1
 O  O15  1  0.52018  0.04047  0.84489  1
 O  O16  1  0.83123  0.16884  0.10475  1
 V  V1  1  0.64877  0.82440  0.21204  1
 V  V2  1  0.17571  0.82439  0.21207  1
 V  V3  1  0.17571  0.35134  0.21207  1
 V  V4  1  0.82429  0.17564  0.71207  1
 V  V5  1  0.35123  0.17563  0.71204  1
 V  V6  1  0.82429  0.64868  0.71207  1
