CIF file written using JARVIS-Tools package.
data_RbLaS2
_symmetry_space_group_name_H-M  'R-3m'
_cell_length_a       8.00668
_cell_length_b       8.00668
_cell_length_c       8.00668
_cell_angle_alpha    31.1421
_cell_angle_beta     31.1421
_cell_angle_gamma    31.1421

_symmetry_Int_Tables_number  166
_chemical_formula_structural  RbLaS2
_chemical_formula_sum  RbLaS2
_cell_volume  121.81106200786421
_cell_formula_units_Z  1
loop_
  _symmetry_equiv_pos_site_id
 _symmetry_equiv_pos_as_xyz
 1  'x, y, z'
loop_
 _atom_site_type_symbol
 _atom_site_label
 _atom_site_symmetry_multiplicity
 _atom_site_fract_x
 _atom_site_fract_y
 _atom_site_fract_z
 _atom_site_fract_occupancy
 La  La1  1  0.50000  0.50000  0.50000  1
 Rb  Rb1  1  0.00000  0.00000  0.00000  1
 S  S1  1  0.76620  0.76620  0.76620  1
 S  S2  1  0.23380  0.23380  0.23380  1
