CIF file written using JARVIS-Tools package.
data_MoPt3
_symmetry_space_group_name_H-M  'Pmm2'
_cell_length_a       2.79283
_cell_length_b       4.56386
_cell_length_c       4.89838
_cell_angle_alpha    90
_cell_angle_beta     90
_cell_angle_gamma    90

_symmetry_Int_Tables_number  25
_chemical_formula_structural  MoPt3
_chemical_formula_sum  MoPt3
_cell_volume  62.43511054481404
_cell_formula_units_Z  1
loop_
  _symmetry_equiv_pos_site_id
 _symmetry_equiv_pos_as_xyz
 1  'x, y, z'
loop_
 _atom_site_type_symbol
 _atom_site_label
 _atom_site_symmetry_multiplicity
 _atom_site_fract_x
 _atom_site_fract_y
 _atom_site_fract_z
 _atom_site_fract_occupancy
 Mo  Mo1  1  0.00000  0.00000  0.15736  1
 Pt  Pt1  1  0.50000  0.50000  0.33878  1
 Pt  Pt2  1  0.50000  0.00000  0.65608  1
 Pt  Pt3  1  0.00000  0.50000  0.84777  1
