CIF file written using JARVIS-Tools package.
data_ZnAs2
_symmetry_space_group_name_H-M  'P2_1/c'
_cell_length_a       7.76887
_cell_length_b       8.12046
_cell_length_c       9.39917
_cell_angle_alpha    102.485
_cell_angle_beta     90
_cell_angle_gamma    90

_symmetry_Int_Tables_number  14
_chemical_formula_structural  ZnAs2
_chemical_formula_sum  Zn8As6
_cell_volume  578.9418942884918
_cell_formula_units_Z  8
loop_
  _symmetry_equiv_pos_site_id
 _symmetry_equiv_pos_as_xyz
 1  'x, y, z'
loop_
 _atom_site_type_symbol
 _atom_site_label
 _atom_site_symmetry_multiplicity
 _atom_site_fract_x
 _atom_site_fract_y
 _atom_site_fract_z
 _atom_site_fract_occupancy
 As  As1  1  0.50628  0.56235  0.75599  1
 As  As2  1  0.42520  0.21962  0.38564  1
 As  As3  1  0.92520  0.28038  0.61436  1
 As  As4  1  0.57480  0.78038  0.61436  1
 As  As5  1  0.74430  0.60723  0.93243  1
 As  As6  1  0.01100  0.43204  0.23840  1
 As  As7  1  0.51100  0.06796  0.76160  1
 As  As8  1  0.07480  0.71962  0.38564  1
 As  As9  1  0.48900  0.93204  0.23840  1
 As  As10  1  0.49372  0.43765  0.24401  1
 As  As11  1  0.99372  0.06235  0.75599  1
 As  As12  1  0.24430  0.89277  0.06757  1
 As  As13  1  0.00628  0.93765  0.24401  1
 As  As14  1  0.25570  0.39277  0.06757  1
 As  As15  1  0.75570  0.10723  0.93243  1
 As  As16  1  0.98900  0.56796  0.76160  1
 Zn  Zn1  1  0.39869  0.72342  0.38933  1
 Zn  Zn2  1  0.89869  0.77658  0.61067  1
 Zn  Zn3  1  0.60131  0.27658  0.61067  1
 Zn  Zn4  1  0.10131  0.22342  0.38933  1
 Zn  Zn5  1  0.75054  0.89392  0.07991  1
 Zn  Zn6  1  0.25054  0.60608  0.92009  1
 Zn  Zn7  1  0.24946  0.10608  0.92009  1
 Zn  Zn8  1  0.74946  0.39392  0.07991  1
