CIF file written using JARVIS-Tools package.
data_RbSF5
_symmetry_space_group_name_H-M  'Pnma'
_cell_length_a       6.01866
_cell_length_b       7.6932
_cell_length_c       9.75825
_cell_angle_alpha    90
_cell_angle_beta     90
_cell_angle_gamma    90

_symmetry_Int_Tables_number  62
_chemical_formula_structural  RbSF5
_chemical_formula_sum  Rb4S4F20
_cell_volume  451.8337409740599
_cell_formula_units_Z  4
loop_
  _symmetry_equiv_pos_site_id
 _symmetry_equiv_pos_as_xyz
 1  'x, y, z'
loop_
 _atom_site_type_symbol
 _atom_site_label
 _atom_site_symmetry_multiplicity
 _atom_site_fract_x
 _atom_site_fract_y
 _atom_site_fract_z
 _atom_site_fract_occupancy
 F  F1  1  0.45570  -0.00670  0.64490  1
 F  F2  1  0.75000  0.79847  0.24245  1
 F  F3  1  0.75000  0.70153  0.74245  1
 F  F4  1  0.25000  0.29847  0.25755  1
 F  F5  1  0.96232  0.69030  0.42075  1
 F  F6  1  0.46232  0.30970  0.57925  1
 F  F7  1  0.03768  0.19030  0.07925  1
 F  F8  1  0.53768  0.80970  0.92075  1
 F  F9  1  0.45570  0.50670  0.14490  1
 F  F10  1  0.95570  0.49330  0.85510  1
 F  F11  1  0.54430  0.00670  0.35510  1
 F  F12  1  0.04430  -0.00670  0.64490  1
 F  F13  1  0.25000  0.20153  0.75755  1
 F  F14  1  0.04430  0.50670  0.14490  1
 F  F15  1  0.95570  0.00670  0.35510  1
 F  F16  1  0.46232  0.19030  0.07925  1
 F  F17  1  0.96232  0.80970  0.92075  1
 F  F18  1  0.53768  0.69030  0.42075  1
 F  F19  1  0.03768  0.30970  0.57925  1
 F  F20  1  0.54430  0.49330  0.85510  1
 Rb  Rb1  1  0.75000  0.14743  0.84339  1
 Rb  Rb2  1  0.25000  0.64743  0.65661  1
 Rb  Rb3  1  0.75000  0.35257  0.34339  1
 Rb  Rb4  1  0.25000  0.85257  0.15661  1
 S  S1  1  0.25000  0.14583  0.59703  1
 S  S2  1  0.75000  0.85417  0.40297  1
 S  S3  1  0.75000  0.64583  0.90297  1
 S  S4  1  0.25000  0.35417  0.09703  1
