CIF file written using JARVIS-Tools package.
data_CrGaO4
_symmetry_space_group_name_H-M  'Cmm2'
_cell_length_a       4.47093
_cell_length_b       5.37679
_cell_length_c       4.4705
_cell_angle_alpha    92.2712
_cell_angle_beta     87.2683
_cell_angle_gamma    146.256

_symmetry_Int_Tables_number  35
_chemical_formula_structural  CrGaO4
_chemical_formula_sum  CrGaO4
_cell_volume  59.62836232595327
_cell_formula_units_Z  1
loop_
  _symmetry_equiv_pos_site_id
 _symmetry_equiv_pos_as_xyz
 1  'x, y, z'
loop_
 _atom_site_type_symbol
 _atom_site_label
 _atom_site_symmetry_multiplicity
 _atom_site_fract_x
 _atom_site_fract_y
 _atom_site_fract_z
 _atom_site_fract_occupancy
 Cr  Cr1  1  0.57127  0.06675  0.49817  1
 Ga  Ga1  1  0.48528  0.48075  0.99816  1
 O  O1  1  0.19227  0.97835  0.78863  1
 O  O2  1  0.19081  0.49667  0.68797  1
 O  O3  1  0.77345  0.97835  0.20773  1
 O  O4  1  0.81154  0.49667  0.30842  1
