CIF file written using JARVIS-Tools package.
data_LiAg5F12
_symmetry_space_group_name_H-M  'Cmmm'
_cell_length_a       4.87788
_cell_length_b       4.87787
_cell_length_c       10.5773
_cell_angle_alpha    90
_cell_angle_beta     90
_cell_angle_gamma    89.7025

_symmetry_Int_Tables_number  65
_chemical_formula_structural  LiAg5F12
_chemical_formula_sum  LiAg5F2
_cell_volume  251.66946947000142
_cell_formula_units_Z  1
loop_
  _symmetry_equiv_pos_site_id
 _symmetry_equiv_pos_as_xyz
 1  'x, y, z'
loop_
 _atom_site_type_symbol
 _atom_site_label
 _atom_site_symmetry_multiplicity
 _atom_site_fract_x
 _atom_site_fract_y
 _atom_site_fract_z
 _atom_site_fract_occupancy
 Ag  Ag1  1  0.00000  0.00000  0.32498  1
 Ag  Ag2  1  0.00000  0.00000  0.67502  1
 Ag  Ag3  1  0.50000  0.50000  0.15572  1
 Ag  Ag4  1  0.50000  0.50000  0.50000  1
 Ag  Ag5  1  0.50000  0.50000  0.84428  1
 F  F1  1  0.69874  0.69874  0.67092  1
 F  F2  1  0.19640  0.80360  0.50000  1
 F  F3  1  0.20400  0.79600  0.16267  1
 F  F4  1  0.79600  0.20400  0.83733  1
 F  F5  1  0.28491  0.28491  0.00000  1
 F  F6  1  0.20400  0.79600  0.83733  1
 F  F7  1  0.80360  0.19640  0.50000  1
 F  F8  1  0.69874  0.69874  0.32908  1
 F  F9  1  0.30126  0.30126  0.32908  1
 F  F10  1  0.71509  0.71509  0.00000  1
 F  F11  1  0.79600  0.20400  0.16267  1
 F  F12  1  0.30126  0.30126  0.67092  1
 Li  Li1  1  0.00000  0.00000  0.00000  1
