CIF file written using JARVIS-Tools package.
data_CdI2
_symmetry_space_group_name_H-M  'P3m1'
_cell_length_a       4.28647
_cell_length_b       4.28648
_cell_length_c       68.8002
_cell_angle_alpha    90
_cell_angle_beta     90
_cell_angle_gamma    120

_symmetry_Int_Tables_number  156
_chemical_formula_structural  CdI2
_chemical_formula_sum  Cd0I20
_cell_volume  1094.7649068365479
_cell_formula_units_Z  10
loop_
  _symmetry_equiv_pos_site_id
 _symmetry_equiv_pos_as_xyz
 1  'x, y, z'
loop_
 _atom_site_type_symbol
 _atom_site_label
 _atom_site_symmetry_multiplicity
 _atom_site_fract_x
 _atom_site_fract_y
 _atom_site_fract_z
 _atom_site_fract_occupancy
 Cd  Cd1  1  0.33333  0.66667  0.62499  1
 Cd  Cd2  1  0.66667  0.33333  0.22500  1
 Cd  Cd3  1  0.00000  0.00000  0.92498  1
 Cd  Cd4  1  0.00000  0.00000  0.82500  1
 Cd  Cd5  1  0.33333  0.66667  0.52501  1
 Cd  Cd6  1  0.66667  0.33333  0.72500  1
 Cd  Cd7  1  0.00000  0.00000  0.32500  1
 Cd  Cd8  1  0.00000  0.00000  0.12499  1
 Cd  Cd9  1  0.66667  0.33333  0.42501  1
 Cd  Cd10  1  0.66667  0.33333  0.02499  1
 I  I1  1  0.00000  0.00000  0.19980  1
 I  I2  1  0.66667  0.33333  0.65019  1
 I  I3  1  0.33333  0.66667  0.45021  1
 I  I4  1  0.33333  0.66667  0.95019  1
 I  I5  1  0.66667  0.33333  0.09980  1
 I  I6  1  0.33333  0.66667  0.75021  1
 I  I7  1  0.33333  0.66667  0.35021  1
 I  I8  1  0.00000  0.00000  0.59978  1
 I  I9  1  0.66667  0.33333  0.89978  1
 I  I10  1  0.00000  0.00000  0.99980  1
 I  I11  1  0.66667  0.33333  0.29980  1
 I  I12  1  0.33333  0.66667  0.15021  1
 I  I13  1  0.33333  0.66667  0.25021  1
 I  I14  1  0.00000  0.00000  0.39981  1
 I  I15  1  0.00000  0.00000  0.69980  1
 I  I16  1  0.33333  0.66667  0.85021  1
 I  I17  1  0.66667  0.33333  0.55021  1
 I  I18  1  0.33333  0.66667  0.05021  1
 I  I19  1  0.66667  0.33333  0.79980  1
 I  I20  1  0.00000  0.00000  0.49980  1
