CIF file written using JARVIS-Tools package.
data_Er2Ge2Ru
_symmetry_space_group_name_H-M  'C2/m'
_cell_length_a       5.73247
_cell_length_b       5.73247
_cell_length_c       10.0948
_cell_angle_alpha    64.1477
_cell_angle_beta     64.1477
_cell_angle_gamma    43.5501

_symmetry_Int_Tables_number  12
_chemical_formula_structural  Er2Ge2Ru
_chemical_formula_sum  Er4Ge4Ru2
_cell_volume  201.79246059880555
_cell_formula_units_Z  2
loop_
  _symmetry_equiv_pos_site_id
 _symmetry_equiv_pos_as_xyz
 1  'x, y, z'
loop_
 _atom_site_type_symbol
 _atom_site_label
 _atom_site_symmetry_multiplicity
 _atom_site_fract_x
 _atom_site_fract_y
 _atom_site_fract_z
 _atom_site_fract_occupancy
 Er  Er1  1  0.00082  0.00082  0.32713  1
 Er  Er2  1  -0.00082  -0.00082  0.67287  1
 Er  Er3  1  0.81656  0.81656  0.11218  1
 Er  Er4  1  0.18344  0.18344  0.88782  1
 Ge  Ge1  1  0.64379  0.64379  0.43443  1
 Ge  Ge2  1  0.35621  0.35621  0.56557  1
 Ge  Ge3  1  0.51715  0.51715  0.12297  1
 Ge  Ge4  1  0.48285  0.48285  0.87703  1
 Ru  Ru1  1  0.72790  0.72790  0.63142  1
 Ru  Ru2  1  0.27210  0.27210  0.36858  1
