CIF file written using JARVIS-Tools package.
data_TiH2
_symmetry_space_group_name_H-M  'P4/nmm'
_cell_length_a       2.91879
_cell_length_b       2.91879
_cell_length_c       4.903
_cell_angle_alpha    90
_cell_angle_beta     90
_cell_angle_gamma    90

_symmetry_Int_Tables_number  129
_chemical_formula_structural  TiH2
_chemical_formula_sum  Ti2H4
_cell_volume  41.77027981786772
_cell_formula_units_Z  2
loop_
  _symmetry_equiv_pos_site_id
 _symmetry_equiv_pos_as_xyz
 1  'x, y, z'
loop_
 _atom_site_type_symbol
 _atom_site_label
 _atom_site_symmetry_multiplicity
 _atom_site_fract_x
 _atom_site_fract_y
 _atom_site_fract_z
 _atom_site_fract_occupancy
 H  H1  1  0.50000  0.50000  0.00000  1
 H  H2  1  0.00000  0.00000  0.00000  1
 H  H3  1  0.00000  0.50000  0.34992  1
 H  H4  1  0.50000  0.00000  0.65008  1
 Ti  Ti1  1  0.50000  0.00000  0.26370  1
 Ti  Ti2  1  0.00000  0.50000  0.73630  1
