CIF file written using JARVIS-Tools package.
data_YFe2SiC
_symmetry_space_group_name_H-M  'Cmcm'
_cell_length_a       5.56008
_cell_length_b       5.56008
_cell_length_c       6.73288
_cell_angle_alpha    90
_cell_angle_beta     90
_cell_angle_gamma    140.625

_symmetry_Int_Tables_number  63
_chemical_formula_structural  YFe2SiC
_chemical_formula_sum  Y2Fe4Si2C2
_cell_volume  132.04428029614039
_cell_formula_units_Z  2
loop_
  _symmetry_equiv_pos_site_id
 _symmetry_equiv_pos_as_xyz
 1  'x, y, z'
loop_
 _atom_site_type_symbol
 _atom_site_label
 _atom_site_symmetry_multiplicity
 _atom_site_fract_x
 _atom_site_fract_y
 _atom_site_fract_z
 _atom_site_fract_occupancy
 C  C1  1  0.00000  0.00000  0.00000  1
 C  C2  1  0.00000  0.00000  0.50000  1
 Fe  Fe1  1  0.83514  0.16486  0.06219  1
 Fe  Fe2  1  0.16486  0.83514  0.93781  1
 Fe  Fe3  1  0.16486  0.83514  0.56219  1
 Fe  Fe4  1  0.83514  0.16486  0.43781  1
 Si  Si1  1  0.27054  0.72946  0.25000  1
 Si  Si2  1  0.72946  0.27054  0.75000  1
 Y  Y1  1  0.55053  0.44947  0.25000  1
 Y  Y2  1  0.44947  0.55053  0.75000  1
