CIF file written using JARVIS-Tools package.
data_CoSi2Se4
_symmetry_space_group_name_H-M  'C2/m'
_cell_length_a       3.61286
_cell_length_b       6.26527
_cell_length_c       6.87535
_cell_angle_alpha    114.484
_cell_angle_beta     105.233
_cell_angle_gamma    90

_symmetry_Int_Tables_number  12
_chemical_formula_structural  CoSi2Se4
_chemical_formula_sum  CoSi2Se4
_cell_volume  135.60164705428934
_cell_formula_units_Z  1
loop_
  _symmetry_equiv_pos_site_id
 _symmetry_equiv_pos_as_xyz
 1  'x, y, z'
loop_
 _atom_site_type_symbol
 _atom_site_label
 _atom_site_symmetry_multiplicity
 _atom_site_fract_x
 _atom_site_fract_y
 _atom_site_fract_z
 _atom_site_fract_occupancy
 Co  Co1  1  0.00000  0.00000  0.00000  1
 Se  Se1  1  0.61779  0.97327  0.23558  1
 Se  Se2  1  0.38221  0.02673  0.76442  1
 Se  Se3  1  0.88678  0.56672  0.77356  1
 Se  Se4  1  0.11322  0.43328  0.22644  1
 Si  Si1  1  0.72340  0.70545  0.44680  1
 Si  Si2  1  0.27660  0.29455  0.55320  1
