CIF file written using JARVIS-Tools package.
data_PrGe2
_symmetry_space_group_name_H-M  'I4_1/amd'
_cell_length_a       4.19339
_cell_length_b       4.19339
_cell_length_c       8.64097
_cell_angle_alpha    104.043
_cell_angle_beta     104.043
_cell_angle_gamma    89.9999

_symmetry_Int_Tables_number  141
_chemical_formula_structural  PrGe2
_chemical_formula_sum  Pr2Ge4
_cell_volume  142.72082515480608
_cell_formula_units_Z  2
loop_
  _symmetry_equiv_pos_site_id
 _symmetry_equiv_pos_as_xyz
 1  'x, y, z'
loop_
 _atom_site_type_symbol
 _atom_site_label
 _atom_site_symmetry_multiplicity
 _atom_site_fract_x
 _atom_site_fract_y
 _atom_site_fract_z
 _atom_site_fract_occupancy
 Ge  Ge1  1  0.70497  0.95497  0.90995  1
 Ge  Ge2  1  0.45497  0.20497  0.40995  1
 Ge  Ge3  1  0.54503  0.79503  0.59005  1
 Ge  Ge4  1  0.29503  0.04503  0.09005  1
 Pr  Pr1  1  0.87500  0.62500  0.25000  1
 Pr  Pr2  1  0.12500  0.37500  0.75000  1
