CIF file written using JARVIS-Tools package.
data_NdSi2Ru
_symmetry_space_group_name_H-M  'P2_1/m'
_cell_length_a       4.4975
_cell_length_b       4.1134
_cell_length_c       8.33623
_cell_angle_alpha    90
_cell_angle_beta     102.215
_cell_angle_gamma    90

_symmetry_Int_Tables_number  11
_chemical_formula_structural  NdSi2Ru
_chemical_formula_sum  Nd2Si4Ru2
_cell_volume  150.72920223044486
_cell_formula_units_Z  2
loop_
  _symmetry_equiv_pos_site_id
 _symmetry_equiv_pos_as_xyz
 1  'x, y, z'
loop_
 _atom_site_type_symbol
 _atom_site_label
 _atom_site_symmetry_multiplicity
 _atom_site_fract_x
 _atom_site_fract_y
 _atom_site_fract_z
 _atom_site_fract_occupancy
 Nd  Nd1  1  0.58777  0.25000  0.20046  1
 Nd  Nd2  1  0.41223  0.75000  0.79954  1
 Ru  Ru1  1  0.12002  0.75000  0.38700  1
 Ru  Ru2  1  0.87998  0.25000  0.61300  1
 Si  Si1  1  0.32975  0.25000  0.50772  1
 Si  Si2  1  0.67025  0.75000  0.49228  1
 Si  Si3  1  0.03773  0.75000  0.09169  1
 Si  Si4  1  0.96227  0.25000  0.90831  1
