CIF file written using JARVIS-Tools package.
data_TiSiRh
_symmetry_space_group_name_H-M  'Pnma'
_cell_length_a       3.8385
_cell_length_b       6.28415
_cell_length_c       7.27925
_cell_angle_alpha    90
_cell_angle_beta     90
_cell_angle_gamma    90

_symmetry_Int_Tables_number  62
_chemical_formula_structural  TiSiRh
_chemical_formula_sum  Ti4Si4Rh4
_cell_volume  175.58791580027196
_cell_formula_units_Z  4
loop_
  _symmetry_equiv_pos_site_id
 _symmetry_equiv_pos_as_xyz
 1  'x, y, z'
loop_
 _atom_site_type_symbol
 _atom_site_label
 _atom_site_symmetry_multiplicity
 _atom_site_fract_x
 _atom_site_fract_y
 _atom_site_fract_z
 _atom_site_fract_occupancy
 Rh  Rh1  1  0.75000  0.65266  0.93562  1
 Rh  Rh2  1  0.25000  0.84734  0.43562  1
 Rh  Rh3  1  0.75000  0.15266  0.56438  1
 Rh  Rh4  1  0.25000  0.34734  0.06438  1
 Si  Si1  1  0.25000  0.73214  0.12052  1
 Si  Si2  1  0.75000  0.26786  0.87948  1
 Si  Si3  1  0.25000  0.23214  0.37948  1
 Si  Si4  1  0.75000  0.76786  0.62052  1
 Ti  Ti1  1  0.75000  0.52427  0.31674  1
 Ti  Ti2  1  0.75000  0.02427  0.18326  1
 Ti  Ti3  1  0.25000  0.97573  0.81674  1
 Ti  Ti4  1  0.25000  0.47573  0.68326  1
