CIF file written using JARVIS-Tools package.
data_Y2MgNi2
_symmetry_space_group_name_H-M  'P4/mbm'
_cell_length_a       7.35654
_cell_length_b       7.35664
_cell_length_c       3.72305
_cell_angle_alpha    90
_cell_angle_beta     90
_cell_angle_gamma    89.9978

_symmetry_Int_Tables_number  127
_chemical_formula_structural  Y2MgNi2
_chemical_formula_sum  Y4Mg2Ni4
_cell_volume  201.48922574209138
_cell_formula_units_Z  2
loop_
  _symmetry_equiv_pos_site_id
 _symmetry_equiv_pos_as_xyz
 1  'x, y, z'
loop_
 _atom_site_type_symbol
 _atom_site_label
 _atom_site_symmetry_multiplicity
 _atom_site_fract_x
 _atom_site_fract_y
 _atom_site_fract_z
 _atom_site_fract_occupancy
 Mg  Mg1  1  0.00000  -0.00000  0.00000  1
 Mg  Mg2  1  0.50000  0.50000  0.00000  1
 Ni  Ni1  1  0.12212  0.37788  0.00000  1
 Ni  Ni2  1  0.37788  0.87787  0.00000  1
 Ni  Ni3  1  0.62213  0.12212  0.00000  1
 Ni  Ni4  1  0.87788  0.62212  0.00000  1
 Y  Y1  1  0.17208  0.67208  0.50000  1
 Y  Y2  1  0.32793  0.17208  0.50000  1
 Y  Y3  1  0.67208  0.82792  0.50000  1
 Y  Y4  1  0.82792  0.32791  0.50000  1
