CIF file written using JARVIS-Tools package.
data_Fe3BO5
_symmetry_space_group_name_H-M  'Pbam'
_cell_length_a       3.01772
_cell_length_b       9.39875
_cell_length_c       12.5272
_cell_angle_alpha    90
_cell_angle_beta     90
_cell_angle_gamma    90

_symmetry_Int_Tables_number  55
_chemical_formula_structural  Fe3BO5
_chemical_formula_sum  Fe2B4O20
_cell_volume  355.3053689677198
_cell_formula_units_Z  4
loop_
  _symmetry_equiv_pos_site_id
 _symmetry_equiv_pos_as_xyz
 1  'x, y, z'
loop_
 _atom_site_type_symbol
 _atom_site_label
 _atom_site_symmetry_multiplicity
 _atom_site_fract_x
 _atom_site_fract_y
 _atom_site_fract_z
 _atom_site_fract_occupancy
 B  B1  1  0.50000  0.27474  0.35874  1
 B  B2  1  0.50000  0.72526  0.64126  1
 B  B3  1  0.50000  0.77474  0.14126  1
 B  B4  1  0.50000  0.22526  0.85874  1
 Fe  Fe1  1  0.00000  0.50000  0.50000  1
 Fe  Fe2  1  0.50000  0.75838  0.88900  1
 Fe  Fe3  1  0.50000  0.24162  0.11100  1
 Fe  Fe4  1  0.50000  0.25838  0.61100  1
 Fe  Fe5  1  0.00000  0.00000  0.00000  1
 Fe  Fe6  1  0.00000  0.49944  0.77900  1
 Fe  Fe7  1  0.00000  0.50056  0.22100  1
 Fe  Fe8  1  0.00000  -0.00056  0.72100  1
 Fe  Fe9  1  0.00000  0.00056  0.27900  1
 Fe  Fe10  1  0.50000  0.00000  0.50000  1
 Fe  Fe11  1  0.50000  0.50000  0.00000  1
 Fe  Fe12  1  0.50000  0.74162  0.38900  1
 O  O1  1  0.00000  0.61135  0.92492  1
 O  O2  1  0.50000  0.15219  0.76276  1
 O  O3  1  0.50000  0.34781  0.26276  1
 O  O4  1  0.50000  0.84941  0.04592  1
 O  O5  1  0.00000  0.39643  0.64354  1
 O  O6  1  0.00000  0.11135  0.57507  1
 O  O7  1  0.50000  0.65059  0.54592  1
 O  O8  1  0.00000  0.38865  0.07508  1
 O  O9  1  0.00000  0.88865  0.42493  1
 O  O10  1  0.50000  0.62751  0.14176  1
 O  O11  1  0.50000  0.65219  0.73724  1
 O  O12  1  0.50000  0.12751  0.35824  1
 O  O13  1  0.50000  0.87249  0.64176  1
 O  O14  1  0.00000  0.10357  0.14354  1
 O  O15  1  0.00000  0.89643  0.85646  1
 O  O16  1  0.00000  0.60357  0.35646  1
 O  O17  1  0.50000  0.34941  0.45408  1
 O  O18  1  0.50000  0.84781  0.23724  1
 O  O19  1  0.50000  0.37249  0.85824  1
 O  O20  1  0.50000  0.15059  0.95408  1
