CIF file written using JARVIS-Tools package.
data_AlO3F3
_symmetry_space_group_name_H-M  'R3m'
_cell_length_a       4.66373
_cell_length_b       4.66373
_cell_length_c       4.66373
_cell_angle_alpha    101.894
_cell_angle_beta     101.894
_cell_angle_gamma    101.894

_symmetry_Int_Tables_number  160
_chemical_formula_structural  AlO3F3
_chemical_formula_sum  AlO3F3
_cell_volume  93.79921825844244
_cell_formula_units_Z  1
loop_
  _symmetry_equiv_pos_site_id
 _symmetry_equiv_pos_as_xyz
 1  'x, y, z'
loop_
 _atom_site_type_symbol
 _atom_site_label
 _atom_site_symmetry_multiplicity
 _atom_site_fract_x
 _atom_site_fract_y
 _atom_site_fract_z
 _atom_site_fract_occupancy
 Al  Al1  1  0.02096  0.02096  0.02096  1
 F  F1  1  0.88852  0.26811  0.26811  1
 F  F2  1  0.26811  0.88852  0.26811  1
 F  F3  1  0.26811  0.26811  0.88852  1
 O  O1  1  0.72700  0.72700  0.13210  1
 O  O2  1  0.13210  0.72700  0.72700  1
 O  O3  1  0.72700  0.13210  0.72700  1
