CIF file written using JARVIS-Tools package.
data_Zr5Te4
_symmetry_space_group_name_H-M  'I4/m'
_cell_length_a       3.87992
_cell_length_b       7.92107
_cell_length_c       7.92107
_cell_angle_alpha    86.5612
_cell_angle_beta     75.8234
_cell_angle_gamma    75.8234

_symmetry_Int_Tables_number  87
_chemical_formula_structural  Zr5Te4
_chemical_formula_sum  Zr5Te4
_cell_volume  228.8376710546967
_cell_formula_units_Z  1
loop_
  _symmetry_equiv_pos_site_id
 _symmetry_equiv_pos_as_xyz
 1  'x, y, z'
loop_
 _atom_site_type_symbol
 _atom_site_label
 _atom_site_symmetry_multiplicity
 _atom_site_fract_x
 _atom_site_fract_y
 _atom_site_fract_z
 _atom_site_fract_occupancy
 Te  Te1  1  0.05169  0.23027  0.66635  1
 Te  Te2  1  0.71804  0.33365  0.23027  1
 Te  Te3  1  0.28196  0.66635  0.76973  1
 Te  Te4  1  0.94831  0.76973  0.33365  1
 Zr  Zr1  1  0.00000  0.00000  0.00000  1
 Zr  Zr2  1  0.30968  0.05846  0.32218  1
 Zr  Zr3  1  0.63186  0.67782  0.05846  1
 Zr  Zr4  1  0.36814  0.32218  0.94154  1
 Zr  Zr5  1  0.69032  0.94154  0.67782  1
