CIF file written using JARVIS-Tools package.
data_Pr2CrSe4
_symmetry_space_group_name_H-M  'C2/m'
_cell_length_a       4.00167
_cell_length_b       8.1944
_cell_length_c       6.13176
_cell_angle_alpha    116.189
_cell_angle_beta     109.045
_cell_angle_gamma    90

_symmetry_Int_Tables_number  12
_chemical_formula_structural  Pr2CrSe4
_chemical_formula_sum  Pr2CrSe4
_cell_volume  168.0755618165197
_cell_formula_units_Z  1
loop_
  _symmetry_equiv_pos_site_id
 _symmetry_equiv_pos_as_xyz
 1  'x, y, z'
loop_
 _atom_site_type_symbol
 _atom_site_label
 _atom_site_symmetry_multiplicity
 _atom_site_fract_x
 _atom_site_fract_y
 _atom_site_fract_z
 _atom_site_fract_occupancy
 Cr  Cr1  1  0.00000  0.00000  0.00000  1
 Pr  Pr1  1  0.66595  0.68735  0.33191  1
 Pr  Pr2  1  0.33405  0.31265  0.66809  1
 Se  Se1  1  0.65241  0.04725  0.30481  1
 Se  Se2  1  0.34759  -0.04725  0.69519  1
 Se  Se3  1  0.93057  0.63946  0.86115  1
 Se  Se4  1  0.06943  0.36054  0.13885  1
