CIF file written using JARVIS-Tools package.
data_SrSi3Ni
_symmetry_space_group_name_H-M  'I4mm'
_cell_length_a       4.22997
_cell_length_b       4.22997
_cell_length_c       5.74916
_cell_angle_alpha    111.585
_cell_angle_beta     111.585
_cell_angle_gamma    90

_symmetry_Int_Tables_number  107
_chemical_formula_structural  SrSi3Ni
_chemical_formula_sum  SrSi3Ni
_cell_volume  87.8499471503151
_cell_formula_units_Z  1
loop_
  _symmetry_equiv_pos_site_id
 _symmetry_equiv_pos_as_xyz
 1  'x, y, z'
loop_
 _atom_site_type_symbol
 _atom_site_label
 _atom_site_symmetry_multiplicity
 _atom_site_fract_x
 _atom_site_fract_y
 _atom_site_fract_z
 _atom_site_fract_occupancy
 Ni  Ni1  1  0.24463  0.24463  0.48926  1
 Si  Si1  1  0.00278  0.00278  0.00555  1
 Si  Si2  1  0.84972  0.34972  0.69943  1
 Si  Si3  1  0.34972  0.84972  0.69943  1
 Sr  Sr1  1  0.59886  0.59886  0.19772  1
