CIF file written using JARVIS-Tools package.
data_Li2TiCrO4
_symmetry_space_group_name_H-M  'P2/m'
_cell_length_a       5.16603
_cell_length_b       10.348
_cell_length_c       9.92553
_cell_angle_alpha    16.4262
_cell_angle_beta     28.2178
_cell_angle_gamma    32.3075

_symmetry_Int_Tables_number  10
_chemical_formula_structural  Li2TiCrO4
_chemical_formula_sum  Li2TiCrO4
_cell_volume  70.94340844412436
_cell_formula_units_Z  1
loop_
  _symmetry_equiv_pos_site_id
 _symmetry_equiv_pos_as_xyz
 1  'x, y, z'
loop_
 _atom_site_type_symbol
 _atom_site_label
 _atom_site_symmetry_multiplicity
 _atom_site_fract_x
 _atom_site_fract_y
 _atom_site_fract_z
 _atom_site_fract_occupancy
 Cr  Cr1  1  0.50000  0.50000  0.50000  1
 Li  Li1  1  0.00000  0.00000  0.00000  1
 Li  Li2  1  0.00000  0.50000  0.00000  1
 O  O1  1  0.25638  -0.00001  0.23841  1
 O  O2  1  0.24920  0.49999  0.24438  1
 O  O3  1  0.74362  0.00001  0.76159  1
 O  O4  1  0.75080  0.50001  0.75562  1
 Ti  Ti1  1  0.50000  -0.00000  0.50000  1
