CIF file written using JARVIS-Tools package.
data_Tl3VO4
_symmetry_space_group_name_H-M  'Imm2'
_cell_length_a       5.94968
_cell_length_b       6.03144
_cell_length_c       6.03144
_cell_angle_alpha    64.2089
_cell_angle_beta     60.4475
_cell_angle_gamma    60.4474

_symmetry_Int_Tables_number  44
_chemical_formula_structural  Tl3VO4
_chemical_formula_sum  Tl3VO4
_cell_volume  158.43708613064473
_cell_formula_units_Z  1
loop_
  _symmetry_equiv_pos_site_id
 _symmetry_equiv_pos_as_xyz
 1  'x, y, z'
loop_
 _atom_site_type_symbol
 _atom_site_label
 _atom_site_symmetry_multiplicity
 _atom_site_fract_x
 _atom_site_fract_y
 _atom_site_fract_z
 _atom_site_fract_occupancy
 O  O1  1  0.32768  0.83226  0.51237  1
 O  O2  1  0.67232  0.48763  0.16774  1
 O  O3  1  0.74389  0.35620  0.64380  1
 O  O4  1  0.25611  0.35620  0.64380  1
 Tl  Tl1  1  0.76638  0.76788  0.69937  1
 Tl  Tl2  1  -0.00000  0.04225  0.95775  1
 Tl  Tl3  1  0.23362  0.30063  0.23212  1
 V  V1  1  0.50000  0.50794  0.49206  1
