CIF file written using JARVIS-Tools package.
data_Y2MgCu2
_symmetry_space_group_name_H-M  'P4/mbm'
_cell_length_a       3.71079
_cell_length_b       7.62479
_cell_length_c       7.62479
_cell_angle_alpha    90
_cell_angle_beta     90
_cell_angle_gamma    90

_symmetry_Int_Tables_number  127
_chemical_formula_structural  Y2MgCu2
_chemical_formula_sum  Y4Mg2Cu4
_cell_volume  215.73624634674067
_cell_formula_units_Z  2
loop_
  _symmetry_equiv_pos_site_id
 _symmetry_equiv_pos_as_xyz
 1  'x, y, z'
loop_
 _atom_site_type_symbol
 _atom_site_label
 _atom_site_symmetry_multiplicity
 _atom_site_fract_x
 _atom_site_fract_y
 _atom_site_fract_z
 _atom_site_fract_occupancy
 Cu  Cu1  1  0.00000  0.87612  0.37612  1
 Cu  Cu2  1  0.00000  0.62388  0.87612  1
 Cu  Cu3  1  0.00000  0.12388  0.62388  1
 Cu  Cu4  1  0.00000  0.37612  0.12388  1
 Mg  Mg1  1  0.00000  0.50000  0.50000  1
 Mg  Mg2  1  0.00000  0.00000  0.00000  1
 Y  Y1  1  0.50000  0.33017  0.83017  1
 Y  Y2  1  0.50000  0.16983  0.33017  1
 Y  Y3  1  0.50000  0.83017  0.66983  1
 Y  Y4  1  0.50000  0.66983  0.16983  1
