CIF file written using JARVIS-Tools package.
data_LiFeF4
_symmetry_space_group_name_H-M  'Cmmm'
_cell_length_a       4.56935
_cell_length_b       5.42586
_cell_length_c       4.57058
_cell_angle_alpha    92.7332
_cell_angle_beta     86.7541
_cell_angle_gamma    147.372

_symmetry_Int_Tables_number  65
_chemical_formula_structural  LiFeF4
_chemical_formula_sum  LiFeF4
_cell_volume  60.9999168463183
_cell_formula_units_Z  1
loop_
  _symmetry_equiv_pos_site_id
 _symmetry_equiv_pos_as_xyz
 1  'x, y, z'
loop_
 _atom_site_type_symbol
 _atom_site_label
 _atom_site_symmetry_multiplicity
 _atom_site_fract_x
 _atom_site_fract_y
 _atom_site_fract_z
 _atom_site_fract_occupancy
 F  F1  1  0.21297  0.99903  0.79721  1
 F  F2  1  0.18871  0.49904  0.68687  1
 F  F3  1  0.79849  0.99904  0.21116  1
 F  F4  1  0.82272  0.49902  0.32150  1
 Fe  Fe1  1  0.50571  0.99903  0.50418  1
 Li  Li1  1  0.50567  0.49905  0.00412  1
