CIF file written using JARVIS-Tools package.
data_CeSe2
_symmetry_space_group_name_H-M  'I-42d'
_cell_length_a       6.8966
_cell_length_b       5.89481
_cell_length_c       6.8966
_cell_angle_alpha    125.801
_cell_angle_beta     90
_cell_angle_gamma    125.801

_symmetry_Int_Tables_number  122
_chemical_formula_structural  CeSe2
_chemical_formula_sum  Ce2Se4
_cell_volume  157.5141255735576
_cell_formula_units_Z  2
loop_
  _symmetry_equiv_pos_site_id
 _symmetry_equiv_pos_as_xyz
 1  'x, y, z'
loop_
 _atom_site_type_symbol
 _atom_site_label
 _atom_site_symmetry_multiplicity
 _atom_site_fract_x
 _atom_site_fract_y
 _atom_site_fract_z
 _atom_site_fract_occupancy
 Ce  Ce1  1  0.25000  0.50000  0.75000  1
 Ce  Ce2  1  0.00000  0.00000  0.00000  1
 Se  Se1  1  0.12500  0.75000  0.17943  1
 Se  Se2  1  0.62500  0.75000  0.57057  1
 Se  Se3  1  0.42943  0.25000  0.87500  1
 Se  Se4  1  0.82057  0.25000  0.37500  1
