CIF file written using JARVIS-Tools package.
data_Na6Be8O11
_symmetry_space_group_name_H-M  'P-1'
_cell_length_a       5.23381
_cell_length_b       6.43617
_cell_length_c       8.30605
_cell_angle_alpha    103.01
_cell_angle_beta     94.3088
_cell_angle_gamma    103.44

_symmetry_Int_Tables_number  2
_chemical_formula_structural  Na6Be8O11
_chemical_formula_sum  Na6Be8O
_cell_volume  262.7375366176354
_cell_formula_units_Z  1
loop_
  _symmetry_equiv_pos_site_id
 _symmetry_equiv_pos_as_xyz
 1  'x, y, z'
loop_
 _atom_site_type_symbol
 _atom_site_label
 _atom_site_symmetry_multiplicity
 _atom_site_fract_x
 _atom_site_fract_y
 _atom_site_fract_z
 _atom_site_fract_occupancy
 Be  Be1  1  0.44453  0.42901  0.36356  1
 Be  Be2  1  0.55547  0.57099  0.63644  1
 Be  Be3  1  0.53342  0.26412  0.74588  1
 Be  Be4  1  0.47650  0.13674  0.44939  1
 Be  Be5  1  0.52350  0.86326  0.55061  1
 Be  Be6  1  0.16687  0.97551  0.15190  1
 Be  Be7  1  0.46658  0.73588  0.25412  1
 Be  Be8  1  0.83313  0.02449  0.84810  1
 Na  Na1  1  0.03213  0.25788  0.58061  1
 Na  Na2  1  0.80700  0.23110  0.21777  1
 Na  Na3  1  0.19300  0.76890  0.78223  1
 Na  Na4  1  0.77932  0.61278  -0.00022  1
 Na  Na5  1  0.22068  0.38722  0.00022  1
 Na  Na6  1  0.96787  0.74212  0.41939  1
 O  O1  1  0.66920  0.38835  0.50874  1
 O  O2  1  0.25929  0.17197  0.31150  1
 O  O3  1  0.36227  0.04945  0.61255  1
 O  O4  1  0.57434  0.52423  0.21869  1
 O  O5  1  0.42566  0.47577  0.78131  1
 O  O6  1  0.33080  0.61165  0.49126  1
 O  O7  1  0.78414  0.25337  0.85221  1
 O  O8  1  0.00000  0.00000  0.00000  1
 O  O9  1  0.74071  0.82803  0.68850  1
 O  O10  1  0.63773  0.95055  0.38745  1
 O  O11  1  0.21586  0.74663  0.14779  1
