CIF file written using JARVIS-Tools package.
data_VGaO3
_symmetry_space_group_name_H-M  'Pnma'
_cell_length_a       5.11132
_cell_length_b       5.1036
_cell_length_c       7.71623
_cell_angle_alpha    90
_cell_angle_beta     90
_cell_angle_gamma    90

_symmetry_Int_Tables_number  62
_chemical_formula_structural  VGaO3
_chemical_formula_sum  V4Ga4O2
_cell_volume  201.28634263626304
_cell_formula_units_Z  4
loop_
  _symmetry_equiv_pos_site_id
 _symmetry_equiv_pos_as_xyz
 1  'x, y, z'
loop_
 _atom_site_type_symbol
 _atom_site_label
 _atom_site_symmetry_multiplicity
 _atom_site_fract_x
 _atom_site_fract_y
 _atom_site_fract_z
 _atom_site_fract_occupancy
 Ga  Ga1  1  0.98193  0.98714  0.25000  1
 Ga  Ga2  1  0.51807  0.48714  0.75000  1
 Ga  Ga3  1  0.48193  0.51286  0.25000  1
 Ga  Ga4  1  0.01807  0.01286  0.75000  1
 O  O1  1  0.33107  0.66418  0.92793  1
 O  O2  1  0.88520  0.37223  0.75000  1
 O  O3  1  0.16893  0.16418  0.42793  1
 O  O4  1  0.83107  0.83582  0.92793  1
 O  O5  1  0.66893  0.33582  0.07207  1
 O  O6  1  0.83107  0.83582  0.57207  1
 O  O7  1  0.61480  0.87223  0.25000  1
 O  O8  1  0.11480  0.62777  0.25000  1
 O  O9  1  0.33107  0.66418  0.57207  1
 O  O10  1  0.66893  0.33582  0.42793  1
 O  O11  1  0.16893  0.16418  0.07207  1
 O  O12  1  0.38520  0.12777  0.75000  1
 V  V1  1  0.50000  0.00000  0.50000  1
 V  V2  1  0.50000  0.00000  0.00000  1
 V  V3  1  0.00000  0.50000  0.50000  1
 V  V4  1  0.00000  0.50000  0.00000  1
