CIF file written using JARVIS-Tools package.
data_SrH16O10
_symmetry_space_group_name_H-M  'Cc'
_cell_length_a       6.41512
_cell_length_b       6.41512
_cell_length_c       10.9691
_cell_angle_alpha    88.1445
_cell_angle_beta     91.8555
_cell_angle_gamma    89.5556

_symmetry_Int_Tables_number  9
_chemical_formula_structural  SrH16O10
_chemical_formula_sum  Sr2H32O20
_cell_volume  450.929781458495
_cell_formula_units_Z  2
loop_
  _symmetry_equiv_pos_site_id
 _symmetry_equiv_pos_as_xyz
 1  'x, y, z'
loop_
 _atom_site_type_symbol
 _atom_site_label
 _atom_site_symmetry_multiplicity
 _atom_site_fract_x
 _atom_site_fract_y
 _atom_site_fract_z
 _atom_site_fract_occupancy
 H  H1  1  0.97355  0.53274  0.37628  1
 H  H2  1  0.40362  0.26605  0.86197  1
 H  H3  1  0.46726  0.02645  0.87628  1
 H  H4  1  0.29348  0.59188  0.84523  1
 H  H5  1  0.07215  0.61968  0.77044  1
 H  H6  1  0.97427  0.43552  0.88991  1
 H  H7  1  0.73250  0.38630  0.86191  1
 H  H8  1  0.40812  0.70652  0.34523  1
 H  H9  1  0.38032  0.92785  0.27044  1
 H  H10  1  0.61370  0.26750  0.36191  1
 H  H11  1  0.56448  0.02573  0.38991  1
 H  H12  1  0.73395  0.59638  0.36197  1
 H  H13  1  0.14931  0.29686  0.47419  1
 H  H14  1  0.70314  0.85069  0.97419  1
 H  H15  1  0.62691  0.72366  0.85858  1
 H  H16  1  0.25686  0.62589  0.14099  1
 H  H17  1  0.27634  0.37309  0.35858  1
 H  H18  1  0.72253  0.61779  0.65794  1
 H  H19  1  0.29196  0.40144  0.65037  1
 H  H20  1  0.04300  0.44199  0.62885  1
 H  H21  1  0.37411  0.74314  0.64099  1
 H  H22  1  0.87636  0.68578  0.55033  1
 H  H23  1  0.62626  0.29845  0.65250  1
 H  H24  1  0.70194  0.15668  0.54404  1
 H  H25  1  0.10485  0.69017  0.02806  1
 H  H26  1  0.30983  0.89515  0.52806  1
 H  H27  1  0.84332  0.29806  0.04404  1
 H  H28  1  0.55801  0.95700  0.12885  1
 H  H29  1  0.59856  0.70804  0.15037  1
 H  H30  1  0.31422  0.12364  0.05033  1
 H  H31  1  0.38221  0.27747  0.15794  1
 H  H32  1  0.70155  0.37374  0.15250  1
 O  O1  1  0.49931  0.49039  0.32462  1
 O  O2  1  0.50961  0.50069  0.82462  1
 O  O3  1  0.66854  0.84782  0.12970  1
 O  O4  1  0.50138  0.51759  0.68768  1
 O  O5  1  0.48241  0.49862  0.18768  1
 O  O6  1  0.14024  0.30658  0.38281  1
 O  O7  1  0.87567  0.65311  0.38625  1
 O  O8  1  0.68026  0.12770  0.38877  1
 O  O9  1  0.35319  0.85942  0.35035  1
 O  O10  1  0.14058  0.64681  0.85035  1
 O  O11  1  0.32675  0.13124  0.14111  1
 O  O12  1  0.69342  0.85976  0.88281  1
 O  O13  1  0.86876  0.67325  0.64111  1
 O  O14  1  0.15218  0.33146  0.62970  1
 O  O15  1  0.28117  0.86426  0.61394  1
 O  O16  1  0.71364  0.17358  0.63371  1
 O  O17  1  0.13574  0.71883  0.11394  1
 O  O18  1  0.34689  0.12433  0.88625  1
 O  O19  1  0.87230  0.31974  0.88877  1
 O  O20  1  0.82642  0.28636  0.13371  1
 Sr  Sr1  1  0.00889  0.01811  0.75705  1
 Sr  Sr2  1  -0.01811  -0.00889  0.25705  1
