CIF file written using JARVIS-Tools package.
data_RbErSeCl2O3
_symmetry_space_group_name_H-M  'P2_1/c'
_cell_length_a       6.56271
_cell_length_b       6.92643
_cell_length_c       16.6153
_cell_angle_alpha    90
_cell_angle_beta     97.1817
_cell_angle_gamma    90

_symmetry_Int_Tables_number  14
_chemical_formula_structural  RbErSeCl2O3
_chemical_formula_sum  Rb4Er4Se4Cl8O2
_cell_volume  749.3420254475632
_cell_formula_units_Z  4
loop_
  _symmetry_equiv_pos_site_id
 _symmetry_equiv_pos_as_xyz
 1  'x, y, z'
loop_
 _atom_site_type_symbol
 _atom_site_label
 _atom_site_symmetry_multiplicity
 _atom_site_fract_x
 _atom_site_fract_y
 _atom_site_fract_z
 _atom_site_fract_occupancy
 Cl  Cl1  1  0.00651  0.66221  0.89598  1
 Cl  Cl2  1  0.50651  0.83779  0.39598  1
 Cl  Cl3  1  0.82564  0.63568  0.58123  1
 Cl  Cl4  1  0.32564  0.86432  0.08123  1
 Cl  Cl5  1  0.99349  0.33779  0.10402  1
 Cl  Cl6  1  0.17436  0.36432  0.41877  1
 Cl  Cl7  1  0.49349  0.16221  0.60402  1
 Cl  Cl8  1  0.67436  0.13568  0.91877  1
 Er  Er1  1  0.87665  0.65326  0.74040  1
 Er  Er2  1  0.62335  0.15326  0.75960  1
 Er  Er3  1  0.12335  0.34674  0.25960  1
 Er  Er4  1  0.37665  0.84674  0.24040  1
 O  O1  1  0.91971  0.97595  0.73221  1
 O  O2  1  0.92367  0.33023  0.74325  1
 O  O3  1  0.57633  0.83023  0.75675  1
 O  O4  1  0.08029  0.02405  0.26779  1
 O  O5  1  0.21684  0.64837  0.72530  1
 O  O6  1  0.07633  0.66977  0.25675  1
 O  O7  1  0.58029  0.47595  0.76779  1
 O  O8  1  0.41971  0.52405  0.23221  1
 O  O9  1  0.71684  0.85163  0.22530  1
 O  O10  1  0.78316  0.35163  0.27470  1
 O  O11  1  0.28316  0.14837  0.77470  1
 O  O12  1  0.42367  0.16977  0.24325  1
 Rb  Rb1  1  0.32232  0.69896  0.55991  1
 Rb  Rb2  1  0.82232  0.80104  0.05991  1
 Rb  Rb3  1  0.67768  0.30104  0.44009  1
 Rb  Rb4  1  0.17768  0.19896  0.94009  1
 Se  Se1  1  0.07641  0.15877  0.70248  1
 Se  Se2  1  0.57641  0.34123  0.20248  1
 Se  Se3  1  0.42359  0.65877  0.79752  1
 Se  Se4  1  0.92359  0.84123  0.29752  1
