CIF file written using JARVIS-Tools package.
data_PrFeGe3
_symmetry_space_group_name_H-M  'I4mm'
_cell_length_a       4.34616
_cell_length_b       4.34616
_cell_length_c       5.87328
_cell_angle_alpha    111.715
_cell_angle_beta     111.715
_cell_angle_gamma    90

_symmetry_Int_Tables_number  107
_chemical_formula_structural  PrFeGe3
_chemical_formula_sum  PrFeGe3
_cell_volume  94.54149718835225
_cell_formula_units_Z  1
loop_
  _symmetry_equiv_pos_site_id
 _symmetry_equiv_pos_as_xyz
 1  'x, y, z'
loop_
 _atom_site_type_symbol
 _atom_site_label
 _atom_site_symmetry_multiplicity
 _atom_site_fract_x
 _atom_site_fract_y
 _atom_site_fract_z
 _atom_site_fract_occupancy
 Fe  Fe1  1  0.66575  0.66575  0.33149  1
 Ge  Ge1  1  0.43964  0.43964  0.87929  1
 Ge  Ge2  1  0.75392  0.25392  0.50785  1
 Ge  Ge3  1  0.25392  0.75392  0.50785  1
 Pr  Pr1  1  0.99776  0.99776  0.99553  1
