CIF file written using JARVIS-Tools package.
data_K2CuF4
_symmetry_space_group_name_H-M  'Cmmm'
_cell_length_a       3.89713
_cell_length_b       4.256
_cell_length_c       6.55008
_cell_angle_alpha    108.958
_cell_angle_beta     90
_cell_angle_gamma    90

_symmetry_Int_Tables_number  65
_chemical_formula_structural  K2CuF4
_chemical_formula_sum  K2CuF4
_cell_volume  102.74782864973717
_cell_formula_units_Z  1
loop_
  _symmetry_equiv_pos_site_id
 _symmetry_equiv_pos_as_xyz
 1  'x, y, z'
loop_
 _atom_site_type_symbol
 _atom_site_label
 _atom_site_symmetry_multiplicity
 _atom_site_fract_x
 _atom_site_fract_y
 _atom_site_fract_z
 _atom_site_fract_occupancy
 Cu  Cu1  1  0.00000  0.00000  0.00000  1
 F  F1  1  0.00000  0.50000  0.00000  1
 F  F2  1  0.50000  0.00000  0.00000  1
 F  F3  1  0.00000  0.16150  0.32301  1
 F  F4  1  0.00000  0.83850  0.67699  1
 K  K1  1  0.50000  0.35047  0.70095  1
 K  K2  1  0.50000  0.64953  0.29905  1
