CIF file written using JARVIS-Tools package.
data_Li6Br3N
_symmetry_space_group_name_H-M  'P2_1/c'
_cell_length_a       6.18077
_cell_length_b       6.2811
_cell_length_c       8.97517
_cell_angle_alpha    90
_cell_angle_beta     90.4431
_cell_angle_gamma    90

_symmetry_Int_Tables_number  14
_chemical_formula_structural  Li6Br3N
_chemical_formula_sum  Li2Br6N2
_cell_volume  348.4237147027886
_cell_formula_units_Z  2
loop_
  _symmetry_equiv_pos_site_id
 _symmetry_equiv_pos_as_xyz
 1  'x, y, z'
loop_
 _atom_site_type_symbol
 _atom_site_label
 _atom_site_symmetry_multiplicity
 _atom_site_fract_x
 _atom_site_fract_y
 _atom_site_fract_z
 _atom_site_fract_occupancy
 Br  Br1  1  0.00000  0.00000  0.50000  1
 Br  Br2  1  0.50000  0.50000  -0.00000  1
 Br  Br3  1  0.49289  0.98059  0.24333  1
 Br  Br4  1  0.50711  0.01941  0.75667  1
 Br  Br5  1  0.99289  0.51941  0.74333  1
 Br  Br6  1  0.00711  0.48059  0.25667  1
 Li  Li1  1  0.39898  0.43029  0.69583  1
 Li  Li2  1  0.16283  0.76423  0.07755  1
 Li  Li3  1  0.74952  0.83012  0.96435  1
 Li  Li4  1  0.25048  0.16988  0.03565  1
 Li  Li5  1  0.24952  0.66988  0.46435  1
 Li  Li6  1  0.75048  0.33012  0.53565  1
 Li  Li7  1  0.89898  0.06971  0.19583  1
 Li  Li8  1  0.10102  0.93029  0.80417  1
 Li  Li9  1  0.66283  0.73577  0.57755  1
 Li  Li10  1  0.60102  0.56971  0.30417  1
 Li  Li11  1  0.83717  0.23577  0.92245  1
 Li  Li12  1  0.33717  0.26423  0.42245  1
 N  N1  1  0.50000  0.50000  0.50000  1
 N  N2  1  0.00000  0.00000  0.00000  1
