CIF file written using JARVIS-Tools package.
data_NaH3C2O5
_symmetry_space_group_name_H-M  'P-1'
_cell_length_a       5.71996
_cell_length_b       6.32597
_cell_length_c       6.68022
_cell_angle_alpha    104.648
_cell_angle_beta     85.4612
_cell_angle_gamma    110.368

_symmetry_Int_Tables_number  2
_chemical_formula_structural  NaH3C2O5
_chemical_formula_sum  Na2H6C4O0
_cell_volume  219.230039634823
_cell_formula_units_Z  2
loop_
  _symmetry_equiv_pos_site_id
 _symmetry_equiv_pos_as_xyz
 1  'x, y, z'
loop_
 _atom_site_type_symbol
 _atom_site_label
 _atom_site_symmetry_multiplicity
 _atom_site_fract_x
 _atom_site_fract_y
 _atom_site_fract_z
 _atom_site_fract_occupancy
 C  C1  1  0.64699  0.74217  0.45878  1
 C  C2  1  0.35301  0.25783  0.54122  1
 C  C3  1  0.59778  0.27722  0.64233  1
 C  C4  1  0.40222  0.72278  0.35767  1
 H  H1  1  0.23202  0.79974  0.76604  1
 H  H2  1  0.76798  0.20026  0.23396  1
 H  H3  1  0.25479  0.77630  -0.00312  1
 H  H4  1  0.74521  0.22370  0.00312  1
 H  H5  1  0.99273  0.74382  0.39343  1
 H  H6  1  0.00727  0.25618  0.60657  1
 Na  Na1  1  0.75907  0.75378  0.97290  1
 Na  Na2  1  0.24093  0.24622  0.02710  1
 O  O1  1  0.18064  0.84376  0.91114  1
 O  O2  1  0.65960  0.75632  0.64462  1
 O  O3  1  0.34040  0.24368  0.35538  1
 O  O4  1  0.82865  0.73563  0.32549  1
 O  O5  1  0.17135  0.26437  0.67451  1
 O  O6  1  0.38708  0.66721  0.16325  1
 O  O7  1  0.61292  0.33279  0.83675  1
 O  O8  1  0.23523  0.76187  0.48318  1
 O  O9  1  0.76477  0.23813  0.51682  1
 O  O10  1  0.81936  0.15624  0.08886  1
