CIF file written using JARVIS-Tools package.
data_Cr2OF2
_symmetry_space_group_name_H-M  'I4_1/amd'
_cell_length_a       6.76063
_cell_length_b       6.76063
_cell_length_c       6.76063
_cell_angle_alpha    127.917
_cell_angle_beta     127.917
_cell_angle_gamma    76.7591

_symmetry_Int_Tables_number  141
_chemical_formula_structural  Cr2OF2
_chemical_formula_sum  Cr4O2F4
_cell_volume  186.74953441127047
_cell_formula_units_Z  2
loop_
  _symmetry_equiv_pos_site_id
 _symmetry_equiv_pos_as_xyz
 1  'x, y, z'
loop_
 _atom_site_type_symbol
 _atom_site_label
 _atom_site_symmetry_multiplicity
 _atom_site_fract_x
 _atom_site_fract_y
 _atom_site_fract_z
 _atom_site_fract_occupancy
 Cr  Cr1  1  0.37500  0.62500  0.75000  1
 Cr  Cr2  1  0.87500  0.62500  0.25000  1
 Cr  Cr3  1  0.37500  0.12500  0.75000  1
 Cr  Cr4  1  0.37500  0.62500  0.25000  1
 F  F1  1  0.00087  0.50087  0.50000  1
 F  F2  1  0.25087  0.25087  -0.00000  1
 F  F3  1  0.74913  0.74913  0.00000  1
 F  F4  1  0.49913  0.99913  0.50000  1
 O  O1  1  0.50000  0.50000  0.00000  1
 O  O2  1  0.25000  0.75000  0.50000  1
