CIF file written using JARVIS-Tools package.
data_HfTa2N3
_symmetry_space_group_name_H-M  'P6/mmm'
_cell_length_a       5.25622
_cell_length_b       5.25622
_cell_length_c       2.99067
_cell_angle_alpha    90
_cell_angle_beta     90
_cell_angle_gamma    120.009

_symmetry_Int_Tables_number  191
_chemical_formula_structural  HfTa2N3
_chemical_formula_sum  HfTa2N3
_cell_volume  71.54954734570344
_cell_formula_units_Z  1
loop_
  _symmetry_equiv_pos_site_id
 _symmetry_equiv_pos_as_xyz
 1  'x, y, z'
loop_
 _atom_site_type_symbol
 _atom_site_label
 _atom_site_symmetry_multiplicity
 _atom_site_fract_x
 _atom_site_fract_y
 _atom_site_fract_z
 _atom_site_fract_occupancy
 Hf  Hf1  1  0.00002  0.00002  0.00000  1
 N  N1  1  0.50001  0.50001  0.00000  1
 N  N2  1  0.50002  0.00002  0.00000  1
 N  N3  1  0.00002  0.50002  0.00000  1
 Ta  Ta1  1  0.66668  0.33336  0.50000  1
 Ta  Ta2  1  0.33336  0.66668  0.50000  1
