CIF file written using JARVIS-Tools package.
data_NaErP4O12
_symmetry_space_group_name_H-M  'P2_1/c'
_cell_length_a       7.16755
_cell_length_b       9.63127
_cell_length_c       12.9841
_cell_angle_alpha    90
_cell_angle_beta     90
_cell_angle_gamma    90.7281

_symmetry_Int_Tables_number  14
_chemical_formula_structural  NaErP4O12
_chemical_formula_sum  Na4Er4P6O48
_cell_volume  896.2570883982046
_cell_formula_units_Z  4
loop_
  _symmetry_equiv_pos_site_id
 _symmetry_equiv_pos_as_xyz
 1  'x, y, z'
loop_
 _atom_site_type_symbol
 _atom_site_label
 _atom_site_symmetry_multiplicity
 _atom_site_fract_x
 _atom_site_fract_y
 _atom_site_fract_z
 _atom_site_fract_occupancy
 Er  Er1  1  0.98614  0.02359  0.21615  1
 Er  Er2  1  0.51386  0.47641  0.71615  1
 Er  Er3  1  0.01386  0.97641  0.78385  1
 Er  Er4  1  0.48614  0.52359  0.28385  1
 Na  Na1  1  0.49993  0.06092  0.77923  1
 Na  Na2  1  -0.00007  0.56092  0.72077  1
 Na  Na3  1  0.50007  0.93908  0.22077  1
 Na  Na4  1  0.00007  0.43908  0.27923  1
 O  O1  1  0.26312  0.41758  0.16549  1
 O  O2  1  0.29468  0.89749  0.85280  1
 O  O3  1  0.79468  0.39749  0.64720  1
 O  O4  1  0.70532  0.10251  0.14720  1
 O  O5  1  0.76312  0.91758  0.33451  1
 O  O6  1  0.73688  0.58242  0.83451  1
 O  O7  1  0.09065  0.79769  0.66900  1
 O  O8  1  0.40935  0.70231  0.16900  1
 O  O9  1  0.71285  0.40673  0.39186  1
 O  O10  1  0.43067  0.83912  0.62915  1
 O  O11  1  0.59065  0.29769  0.83100  1
 O  O12  1  0.90935  0.20231  0.33100  1
 O  O13  1  0.23688  0.08242  0.66549  1
 O  O14  1  0.56676  0.70560  0.39060  1
 O  O15  1  0.28331  0.70201  0.98765  1
 O  O16  1  0.56933  0.16088  0.37085  1
 O  O17  1  0.21669  0.79799  0.48765  1
 O  O18  1  0.21285  0.90673  0.10814  1
 O  O19  1  0.78331  0.20201  0.51235  1
 O  O20  1  0.71669  0.29799  0.01235  1
 O  O21  1  0.78092  0.62987  0.02199  1
 O  O22  1  0.77288  0.60672  0.21547  1
 O  O23  1  0.71908  0.87013  0.52199  1
 O  O24  1  0.28092  0.12987  0.47801  1
 O  O25  1  0.32370  0.34831  0.36894  1
 O  O26  1  0.17630  0.15169  0.86894  1
 O  O27  1  0.67630  0.65169  0.63106  1
 O  O28  1  0.82370  0.84831  0.13106  1
 O  O29  1  0.06676  0.20560  0.10940  1
 O  O30  1  0.93324  0.79440  0.89060  1
 O  O31  1  0.28715  0.59327  0.60814  1
 O  O32  1  0.22712  0.39328  0.78453  1
 O  O33  1  0.93067  0.33912  0.87085  1
 O  O34  1  0.78715  0.09327  0.89186  1
 O  O35  1  0.41328  0.20553  0.07989  1
 O  O36  1  0.43324  0.29440  0.60940  1
 O  O37  1  0.72712  0.89328  0.71547  1
 O  O38  1  0.27288  0.10672  0.28453  1
 O  O39  1  0.12933  0.85420  0.30857  1
 O  O40  1  0.37067  0.64580  0.80857  1
 O  O41  1  0.06933  0.66088  0.12915  1
 O  O42  1  0.62933  0.35420  0.19143  1
 O  O43  1  0.91328  0.70553  0.42011  1
 O  O44  1  0.58672  0.79447  0.92011  1
 O  O45  1  0.08672  0.29447  0.57989  1
 O  O46  1  0.21908  0.37013  0.97801  1
 O  O47  1  0.20532  0.60251  0.35280  1
 O  O48  1  0.87067  0.14580  0.69143  1
 P  P1  1  0.15012  0.30542  0.87008  1
 P  P2  1  0.65012  0.80542  0.62992  1
 P  P3  1  0.84988  0.69458  0.12992  1
 P  P4  1  0.37527  0.76163  0.88480  1
 P  P5  1  0.74944  0.24636  0.89645  1
 P  P6  1  0.75056  0.25364  0.39645  1
 P  P7  1  0.73081  0.80066  0.40870  1
 P  P8  1  0.23081  0.30066  0.09130  1
 P  P9  1  0.12473  0.73837  0.38480  1
 P  P10  1  0.26919  0.19934  0.59130  1
 P  P11  1  0.76919  0.69934  0.90870  1
 P  P12  1  0.24944  0.74636  0.60355  1
 P  P13  1  0.62473  0.23837  0.11520  1
 P  P14  1  0.34988  0.19458  0.37008  1
 P  P15  1  0.25056  0.75364  0.10355  1
 P  P16  1  0.87527  0.26163  0.61520  1
