CIF file written using JARVIS-Tools package.
data_NiS2
_symmetry_space_group_name_H-M  'P2_1/c'
_cell_length_a       5.3247
_cell_length_b       3.87865
_cell_length_c       5.41604
_cell_angle_alpha    62.2337
_cell_angle_beta     90
_cell_angle_gamma    90

_symmetry_Int_Tables_number  14
_chemical_formula_structural  NiS2
_chemical_formula_sum  Ni2S4
_cell_volume  98.97583920235637
_cell_formula_units_Z  2
loop_
  _symmetry_equiv_pos_site_id
 _symmetry_equiv_pos_as_xyz
 1  'x, y, z'
loop_
 _atom_site_type_symbol
 _atom_site_label
 _atom_site_symmetry_multiplicity
 _atom_site_fract_x
 _atom_site_fract_y
 _atom_site_fract_z
 _atom_site_fract_occupancy
 Ni  Ni1  1  0.00000  0.50000  0.50000  1
 Ni  Ni2  1  0.50000  0.50000  0.00000  1
 S  S1  1  0.11652  0.66236  0.82470  1
 S  S2  1  0.38348  0.66236  0.32470  1
 S  S3  1  0.88348  0.33764  0.17530  1
 S  S4  1  0.61652  0.33764  0.67530  1
