CIF file written using JARVIS-Tools package.
data_Pr5C2Cl9
_symmetry_space_group_name_H-M  'P-1'
_cell_length_a       8.55627
_cell_length_b       8.64394
_cell_length_c       11.9024
_cell_angle_alpha    84.8467
_cell_angle_beta     85.2148
_cell_angle_gamma    61.1326

_symmetry_Int_Tables_number  2
_chemical_formula_structural  Pr5C2Cl9
_chemical_formula_sum  Pr0C4Cl8
_cell_volume  766.9860307633289
_cell_formula_units_Z  2
loop_
  _symmetry_equiv_pos_site_id
 _symmetry_equiv_pos_as_xyz
 1  'x, y, z'
loop_
 _atom_site_type_symbol
 _atom_site_label
 _atom_site_symmetry_multiplicity
 _atom_site_fract_x
 _atom_site_fract_y
 _atom_site_fract_z
 _atom_site_fract_occupancy
 C  C1  1  0.82773  0.31126  0.30979  1
 C  C2  1  0.85876  0.30034  0.18995  1
 C  C3  1  0.17227  0.68874  0.69021  1
 C  C4  1  0.14124  0.69966  0.81005  1
 Cl  Cl1  1  0.82224  0.94636  0.49578  1
 Cl  Cl2  1  0.17776  0.05364  0.50422  1
 Cl  Cl3  1  0.48590  0.98491  0.22836  1
 Cl  Cl4  1  0.77561  0.04134  0.01995  1
 Cl  Cl5  1  0.39733  0.40952  0.27634  1
 Cl  Cl6  1  0.21927  0.33040  0.03079  1
 Cl  Cl7  1  0.60267  0.59048  0.72366  1
 Cl  Cl8  1  0.91633  0.66130  0.23149  1
 Cl  Cl9  1  0.78073  0.66960  0.96921  1
 Cl  Cl10  1  0.00000  0.50000  0.50000  1
 Cl  Cl11  1  0.16170  0.86526  0.25632  1
 Cl  Cl12  1  0.22439  0.95866  0.98005  1
 Cl  Cl13  1  0.54342  0.67742  0.44911  1
 Cl  Cl14  1  0.45658  0.32258  0.55089  1
 Cl  Cl15  1  0.50000  0.50000  0.00000  1
 Cl  Cl16  1  0.51410  0.01509  0.77164  1
 Cl  Cl17  1  0.83830  0.13474  0.74368  1
 Cl  Cl18  1  0.08367  0.33870  0.76851  1
 Pr  Pr1  1  0.86763  0.72788  0.72853  1
 Pr  Pr2  1  0.10142  0.70507  0.00626  1
 Pr  Pr3  1  0.89858  0.29493  0.99374  1
 Pr  Pr4  1  0.23080  0.92828  0.74277  1
 Pr  Pr5  1  0.39633  0.39928  0.78367  1
 Pr  Pr6  1  0.60367  0.60072  0.21633  1
 Pr  Pr7  1  0.20623  0.68363  0.49299  1
 Pr  Pr8  1  0.79377  0.31637  0.50701  1
 Pr  Pr9  1  0.76920  0.07172  0.25723  1
 Pr  Pr10  1  0.13237  0.27212  0.27147  1
