CIF file written using JARVIS-Tools package.
data_Li2VCrO4
_symmetry_space_group_name_H-M  'Imm2'
_cell_length_a       5.77002
_cell_length_b       5.88669
_cell_length_c       5.89321
_cell_angle_alpha    119.964
_cell_angle_beta     119.308
_cell_angle_gamma    89.9996

_symmetry_Int_Tables_number  44
_chemical_formula_structural  Li2VCrO4
_chemical_formula_sum  Li4V2Cr2O8
_cell_volume  143.08219182907172
_cell_formula_units_Z  2
loop_
  _symmetry_equiv_pos_site_id
 _symmetry_equiv_pos_as_xyz
 1  'x, y, z'
loop_
 _atom_site_type_symbol
 _atom_site_label
 _atom_site_symmetry_multiplicity
 _atom_site_fract_x
 _atom_site_fract_y
 _atom_site_fract_z
 _atom_site_fract_occupancy
 Cr  Cr1  1  -0.00238  0.49922  -0.00476  1
 Cr  Cr2  1  -0.00238  -0.00398  -0.00476  1
 Li  Li1  1  0.50528  0.50235  0.01056  1
 Li  Li2  1  0.50015  -0.00013  0.49973  1
 Li  Li3  1  0.50528  0.00822  0.01056  1
 Li  Li4  1  -0.00042  -0.00013  0.49974  1
 O  O1  1  0.24227  0.25756  0.01514  1
 O  O2  1  0.23788  0.24199  0.47574  1
 O  O3  1  0.23786  0.73374  0.47574  1
 O  O4  1  0.23001  0.74157  0.98315  1
 O  O5  1  0.77288  0.25759  0.01516  1
 O  O6  1  0.75967  0.27559  0.51933  1
 O  O7  1  0.75966  0.74375  0.51933  1
 O  O8  1  0.75315  0.74160  0.98317  1
 V  V1  1  0.49036  0.50053  0.50107  1
 V  V2  1  0.01070  0.50054  0.50107  1
