CIF file written using JARVIS-Tools package.
data_CaMnSb2
_symmetry_space_group_name_H-M  'P4/nmm'
_cell_length_a       4.37088
_cell_length_b       4.37088
_cell_length_c       10.421
_cell_angle_alpha    90
_cell_angle_beta     90
_cell_angle_gamma    90

_symmetry_Int_Tables_number  129
_chemical_formula_structural  CaMnSb2
_chemical_formula_sum  Ca2Mn2Sb4
_cell_volume  199.08958998493995
_cell_formula_units_Z  2
loop_
  _symmetry_equiv_pos_site_id
 _symmetry_equiv_pos_as_xyz
 1  'x, y, z'
loop_
 _atom_site_type_symbol
 _atom_site_label
 _atom_site_symmetry_multiplicity
 _atom_site_fract_x
 _atom_site_fract_y
 _atom_site_fract_z
 _atom_site_fract_occupancy
 Ca  Ca1  1  0.00000  0.50000  0.23857  1
 Ca  Ca2  1  0.50000  0.00000  0.76143  1
 Mn  Mn1  1  0.00000  0.00000  0.50000  1
 Mn  Mn2  1  0.50000  0.50000  0.50000  1
 Sb  Sb1  1  0.00000  0.00000  0.00000  1
 Sb  Sb2  1  0.50000  0.50000  0.00000  1
 Sb  Sb3  1  0.00000  0.50000  0.64984  1
 Sb  Sb4  1  0.50000  0.00000  0.35016  1
