CIF file written using JARVIS-Tools package.
data_La3Ho
_symmetry_space_group_name_H-M  'I4/mmm'
_cell_length_a       6.3471
_cell_length_b       6.3471
_cell_length_c       6.3471
_cell_angle_alpha    131.922
_cell_angle_beta     131.922
_cell_angle_gamma    70.3517

_symmetry_Int_Tables_number  139
_chemical_formula_structural  La3Ho
_chemical_formula_sum  La3Ho
_cell_volume  138.7269840382871
_cell_formula_units_Z  1
loop_
  _symmetry_equiv_pos_site_id
 _symmetry_equiv_pos_as_xyz
 1  'x, y, z'
loop_
 _atom_site_type_symbol
 _atom_site_label
 _atom_site_symmetry_multiplicity
 _atom_site_fract_x
 _atom_site_fract_y
 _atom_site_fract_z
 _atom_site_fract_occupancy
 Ho  Ho1  1  0.00000  0.00000  0.00000  1
 La  La1  1  0.75000  0.25000  0.50000  1
 La  La2  1  0.25000  0.75000  0.50000  1
 La  La3  1  0.50000  0.50000  -0.00000  1
