CIF file written using JARVIS-Tools package.
data_Mg5Hg
_symmetry_space_group_name_H-M  'Amm2'
_cell_length_a       8.12755
_cell_length_b       8.12755
_cell_length_c       5.00272
_cell_angle_alpha    90
_cell_angle_beta     90
_cell_angle_gamma    156.6

_symmetry_Int_Tables_number  38
_chemical_formula_structural  Mg5Hg
_chemical_formula_sum  Mg5Hg
_cell_volume  131.24196503935846
_cell_formula_units_Z  1
loop_
  _symmetry_equiv_pos_site_id
 _symmetry_equiv_pos_as_xyz
 1  'x, y, z'
loop_
 _atom_site_type_symbol
 _atom_site_label
 _atom_site_symmetry_multiplicity
 _atom_site_fract_x
 _atom_site_fract_y
 _atom_site_fract_z
 _atom_site_fract_occupancy
 Hg  Hg1  1  0.22099  0.77901  0.00000  1
 Mg  Mg1  1  0.00089  0.99911  0.50000  1
 Mg  Mg2  1  0.67133  0.32867  0.50000  1
 Mg  Mg3  1  0.33509  0.66491  0.50000  1
 Mg  Mg4  1  0.55631  0.44369  0.00000  1
 Mg  Mg5  1  0.88206  0.11794  0.00000  1
