CIF file written using JARVIS-Tools package.
data_NaCo2O4
_symmetry_space_group_name_H-M  'Pmmn'
_cell_length_a       4.89447
_cell_length_b       5.65
_cell_length_c       11.0433
_cell_angle_alpha    90
_cell_angle_beta     90
_cell_angle_gamma    90

_symmetry_Int_Tables_number  59
_chemical_formula_structural  NaCo2O4
_chemical_formula_sum  Na4Co8O6
_cell_volume  305.388057213052
_cell_formula_units_Z  4
loop_
  _symmetry_equiv_pos_site_id
 _symmetry_equiv_pos_as_xyz
 1  'x, y, z'
loop_
 _atom_site_type_symbol
 _atom_site_label
 _atom_site_symmetry_multiplicity
 _atom_site_fract_x
 _atom_site_fract_y
 _atom_site_fract_z
 _atom_site_fract_occupancy
 Co  Co1  1  0.50000  0.50000  0.00000  1
 Co  Co2  1  0.00235  0.25000  0.49655  1
 Co  Co3  1  0.50000  0.00000  0.50000  1
 Co  Co4  1  0.50000  0.50000  0.50000  1
 Co  Co5  1  0.00235  0.25000  0.00345  1
 Co  Co6  1  0.99765  0.75000  0.99655  1
 Co  Co7  1  0.99765  0.75000  0.50345  1
 Co  Co8  1  0.50000  0.00000  0.00000  1
 Na  Na1  1  0.96958  0.25000  0.75000  1
 Na  Na2  1  0.35310  0.75000  0.75000  1
 Na  Na3  1  0.03042  0.75000  0.25000  1
 Na  Na4  1  0.64690  0.25000  0.25000  1
 O  O1  1  0.83379  0.50166  0.41055  1
 O  O2  1  0.83379  0.50166  0.08945  1
 O  O3  1  0.16621  0.49834  0.58945  1
 O  O4  1  0.16621  0.00166  0.91055  1
 O  O5  1  0.16621  0.00166  0.58945  1
 O  O6  1  0.16621  0.49834  0.91055  1
 O  O7  1  0.83379  0.99834  0.08945  1
 O  O8  1  0.66373  0.75000  0.91154  1
 O  O9  1  0.67056  0.25000  0.91502  1
 O  O10  1  0.32944  0.75000  0.41502  1
 O  O11  1  0.32944  0.75000  0.08498  1
 O  O12  1  0.83379  0.99834  0.41055  1
 O  O13  1  0.33627  0.25000  0.08846  1
 O  O14  1  0.66373  0.75000  0.58846  1
 O  O15  1  0.67056  0.25000  0.58498  1
 O  O16  1  0.33627  0.25000  0.41154  1
