CIF file written using JARVIS-Tools package.
data_DyMnFe
_symmetry_space_group_name_H-M  'Imma'
_cell_length_a       5.10066
_cell_length_b       5.10065
_cell_length_c       5.10065
_cell_angle_alpha    120.422
_cell_angle_beta     119.484
_cell_angle_gamma    90.0835

_symmetry_Int_Tables_number  74
_chemical_formula_structural  DyMnFe
_chemical_formula_sum  Dy2Mn2Fe2
_cell_volume  93.89336782754604
_cell_formula_units_Z  2
loop_
  _symmetry_equiv_pos_site_id
 _symmetry_equiv_pos_as_xyz
 1  'x, y, z'
loop_
 _atom_site_type_symbol
 _atom_site_label
 _atom_site_symmetry_multiplicity
 _atom_site_fract_x
 _atom_site_fract_y
 _atom_site_fract_z
 _atom_site_fract_occupancy
 Dy  Dy1  1  0.12665  0.87665  0.25000  1
 Dy  Dy2  1  0.87335  0.12335  0.75000  1
 Fe  Fe1  1  0.50000  0.50000  0.50000  1
 Fe  Fe2  1  0.50000  -0.00000  0.00000  1
 Mn  Mn1  1  0.50000  0.50000  0.00000  1
 Mn  Mn2  1  0.00000  0.50000  0.50000  1
