CIF file written using JARVIS-Tools package.
data_KAsOF4
_symmetry_space_group_name_H-M  'P2_1/c'
_cell_length_a       5.04601
_cell_length_b       5.7443
_cell_length_c       13.6116
_cell_angle_alpha    90
_cell_angle_beta     91.3129
_cell_angle_gamma    90

_symmetry_Int_Tables_number  14
_chemical_formula_structural  KAsOF4
_chemical_formula_sum  K4As4O4F6
_cell_volume  394.4380566693376
_cell_formula_units_Z  4
loop_
  _symmetry_equiv_pos_site_id
 _symmetry_equiv_pos_as_xyz
 1  'x, y, z'
loop_
 _atom_site_type_symbol
 _atom_site_label
 _atom_site_symmetry_multiplicity
 _atom_site_fract_x
 _atom_site_fract_y
 _atom_site_fract_z
 _atom_site_fract_occupancy
 As  As1  1  0.57090  0.37767  0.58155  1
 As  As2  1  0.42910  0.62233  0.41845  1
 As  As3  1  0.07090  0.12233  0.08155  1
 As  As4  1  0.92910  0.87767  0.91845  1
 F  F1  1  0.73795  0.14794  0.51769  1
 F  F2  1  0.07336  0.08719  0.83473  1
 F  F3  1  0.42664  0.58719  0.66527  1
 F  F4  1  0.35266  0.11692  0.16505  1
 F  F5  1  0.23795  0.35206  0.01769  1
 F  F6  1  0.64734  0.88308  0.83495  1
 F  F7  1  0.85266  0.38308  0.66505  1
 F  F8  1  0.92553  0.34419  0.15568  1
 F  F9  1  0.07447  0.65581  0.84432  1
 F  F10  1  0.92664  0.91281  0.16527  1
 F  F11  1  0.42553  0.15581  0.65568  1
 F  F12  1  0.14734  0.61692  0.33495  1
 F  F13  1  0.76205  0.64794  0.98231  1
 F  F14  1  0.57447  0.84419  0.34432  1
 F  F15  1  0.57336  0.41281  0.33473  1
 F  F16  1  0.26205  0.85206  0.48231  1
 K  K1  1  0.49114  0.63149  0.15238  1
 K  K2  1  0.00886  0.13149  0.34762  1
 K  K3  1  0.50886  0.36851  0.84762  1
 K  K4  1  -0.00886  0.86851  0.65238  1
 O  O1  1  0.20908  0.89108  0.00529  1
 O  O2  1  0.29092  0.39108  0.49471  1
 O  O3  1  0.79092  0.10892  0.99471  1
 O  O4  1  0.70908  0.60892  0.50529  1
