CIF file written using JARVIS-Tools package.
data_S7N6O8
_symmetry_space_group_name_H-M  'P-42_1m'
_cell_length_a       4.83422
_cell_length_b       11.5893
_cell_length_c       11.5893
_cell_angle_alpha    90
_cell_angle_beta     90
_cell_angle_gamma    90

_symmetry_Int_Tables_number  113
_chemical_formula_structural  S7N6O8
_chemical_formula_sum  S4N2O6
_cell_volume  649.2898352668915
_cell_formula_units_Z  2
loop_
  _symmetry_equiv_pos_site_id
 _symmetry_equiv_pos_as_xyz
 1  'x, y, z'
loop_
 _atom_site_type_symbol
 _atom_site_label
 _atom_site_symmetry_multiplicity
 _atom_site_fract_x
 _atom_site_fract_y
 _atom_site_fract_z
 _atom_site_fract_occupancy
 N  N1  1  0.24404  0.36039  0.30086  1
 N  N2  1  0.24404  0.80086  0.86039  1
 N  N3  1  0.75596  0.69914  0.36039  1
 N  N4  1  0.75596  0.30086  0.63961  1
 N  N5  1  0.21136  0.58123  0.91877  1
 N  N6  1  0.78864  0.91877  0.41877  1
 N  N7  1  0.78864  0.08123  0.58123  1
 N  N8  1  0.21136  0.41877  0.08123  1
 N  N9  1  0.24404  0.19914  0.13961  1
 N  N10  1  0.24404  0.63961  0.69914  1
 N  N11  1  0.75596  0.86039  0.19914  1
 N  N12  1  0.75596  0.13961  0.80086  1
 O  O1  1  0.81472  0.72495  0.95186  1
 O  O2  1  0.24309  0.43270  0.75752  1
 O  O3  1  0.18528  0.95186  0.27505  1
 O  O4  1  0.18528  0.04814  0.72495  1
 O  O5  1  0.81472  0.27505  0.04814  1
 O  O6  1  0.18528  0.22495  0.54814  1
 O  O7  1  0.24309  0.25752  0.93270  1
 O  O8  1  0.75691  0.24248  0.43270  1
 O  O9  1  0.75691  0.93270  0.74248  1
 O  O10  1  0.75691  0.75752  0.56730  1
 O  O11  1  0.24309  0.74248  0.06730  1
 O  O12  1  0.75691  0.06730  0.25752  1
 O  O13  1  0.18528  0.77505  0.45186  1
 O  O14  1  0.81472  0.54814  0.77505  1
 O  O15  1  0.24309  0.56730  0.24248  1
 O  O16  1  0.81472  0.45186  0.22495  1
 S  S1  1  0.69820  0.73383  0.23383  1
 S  S2  1  0.42634  0.50000  0.00000  1
 S  S3  1  0.10944  0.53938  0.78097  1
 S  S4  1  0.10944  0.46062  0.21903  1
 S  S5  1  0.89056  0.21903  0.53938  1
 S  S6  1  0.89056  0.78097  0.46062  1
 S  S7  1  0.10944  0.71903  0.96062  1
 S  S8  1  0.89056  0.96062  0.28097  1
 S  S9  1  0.89056  0.03938  0.71903  1
 S  S10  1  0.10944  0.28097  0.03938  1
 S  S11  1  0.57366  0.00000  0.50000  1
 S  S12  1  0.30180  0.23383  0.26617  1
 S  S13  1  0.69820  0.26617  0.76617  1
 S  S14  1  0.30180  0.76617  0.73383  1
