CIF file written using JARVIS-Tools package.
data_Mn2SnS4
_symmetry_space_group_name_H-M  'P2/m'
_cell_length_a       3.61503
_cell_length_b       6.13237
_cell_length_c       6.78771
_cell_angle_alpha    73.1997
_cell_angle_beta     90
_cell_angle_gamma    90

_symmetry_Int_Tables_number  10
_chemical_formula_structural  Mn2SnS4
_chemical_formula_sum  Mn2SnS4
_cell_volume  144.05213534630468
_cell_formula_units_Z  1
loop_
  _symmetry_equiv_pos_site_id
 _symmetry_equiv_pos_as_xyz
 1  'x, y, z'
loop_
 _atom_site_type_symbol
 _atom_site_label
 _atom_site_symmetry_multiplicity
 _atom_site_fract_x
 _atom_site_fract_y
 _atom_site_fract_z
 _atom_site_fract_occupancy
 Mn  Mn1  1  0.00000  0.50000  0.50000  1
 Mn  Mn2  1  0.50000  -0.00000  0.50000  1
 S  S1  1  0.00000  0.22927  0.29999  1
 S  S2  1  0.50000  0.26358  0.71571  1
 S  S3  1  0.00000  0.77073  0.70001  1
 S  S4  1  0.50000  0.73642  0.28429  1
 Sn  Sn1  1  0.00000  0.00000  0.00000  1
