CIF file written using JARVIS-Tools package.
data_LiMnP3HO10
_symmetry_space_group_name_H-M  'C2'
_cell_length_a       6.20832
_cell_length_b       6.20832
_cell_length_c       6.46742
_cell_angle_alpha    71.5421
_cell_angle_beta     108.458
_cell_angle_gamma    97.3142

_symmetry_Int_Tables_number  5
_chemical_formula_structural  LiMnP3HO10
_chemical_formula_sum  LiMnP3HO0
_cell_volume  224.18604925286252
_cell_formula_units_Z  1
loop_
  _symmetry_equiv_pos_site_id
 _symmetry_equiv_pos_as_xyz
 1  'x, y, z'
loop_
 _atom_site_type_symbol
 _atom_site_label
 _atom_site_symmetry_multiplicity
 _atom_site_fract_x
 _atom_site_fract_y
 _atom_site_fract_z
 _atom_site_fract_occupancy
 H  H1  1  0.23092  0.23092  0.00000  1
 Li  Li1  1  -0.11012  -0.11012  0.50000  1
 Mn  Mn1  1  0.67937  0.67937  -0.00000  1
 O  O1  1  0.35724  0.67325  0.93773  1
 O  O2  1  0.69955  0.99066  -0.00128  1
 O  O3  1  0.61894  0.75457  0.62821  1
 O  O4  1  0.32619  0.59552  0.33925  1
 O  O5  1  0.30587  0.16687  0.87775  1
 O  O6  1  0.16687  0.30587  0.12225  1
 O  O7  1  0.59552  0.32619  0.66075  1
 O  O8  1  0.75457  0.61894  0.37179  1
 O  O9  1  0.99066  0.69955  0.00128  1
 O  O10  1  0.67325  0.35724  0.06227  1
 P  P1  1  0.20268  0.56066  0.08863  1
 P  P2  1  0.58077  0.58077  0.50000  1
 P  P3  1  0.56066  0.20268  0.91137  1
