CIF file written using JARVIS-Tools package.
data_SrAl2Ge2
_symmetry_space_group_name_H-M  'P-3m1'
_cell_length_a       4.25705
_cell_length_b       4.25707
_cell_length_c       7.45801
_cell_angle_alpha    89.9998
_cell_angle_beta     89.9994
_cell_angle_gamma    120

_symmetry_Int_Tables_number  164
_chemical_formula_structural  SrAl2Ge2
_chemical_formula_sum  SrAl2Ge2
_cell_volume  117.04983856505369
_cell_formula_units_Z  1
loop_
  _symmetry_equiv_pos_site_id
 _symmetry_equiv_pos_as_xyz
 1  'x, y, z'
loop_
 _atom_site_type_symbol
 _atom_site_label
 _atom_site_symmetry_multiplicity
 _atom_site_fract_x
 _atom_site_fract_y
 _atom_site_fract_z
 _atom_site_fract_occupancy
 Al  Al1  1  0.33335  0.66668  0.62591  1
 Al  Al2  1  0.66665  0.33332  0.37409  1
 Ge  Ge1  1  0.33332  0.66665  0.27048  1
 Ge  Ge2  1  0.66668  0.33335  0.72952  1
 Sr  Sr1  1  0.00000  0.00000  0.00000  1
