CIF file written using JARVIS-Tools package.
data_BaSi3Pt
_symmetry_space_group_name_H-M  'I4mm'
_cell_length_a       4.47972
_cell_length_b       4.47972
_cell_length_c       5.97283
_cell_angle_alpha    112.025
_cell_angle_beta     112.025
_cell_angle_gamma    90

_symmetry_Int_Tables_number  107
_chemical_formula_structural  BaSi3Pt
_chemical_formula_sum  BaSi3Pt
_cell_volume  101.61744730916928
_cell_formula_units_Z  1
loop_
  _symmetry_equiv_pos_site_id
 _symmetry_equiv_pos_as_xyz
 1  'x, y, z'
loop_
 _atom_site_type_symbol
 _atom_site_label
 _atom_site_symmetry_multiplicity
 _atom_site_fract_x
 _atom_site_fract_y
 _atom_site_fract_z
 _atom_site_fract_occupancy
 Ba  Ba1  1  0.60170  0.60170  0.20340  1
 Pt  Pt1  1  0.24985  0.24985  0.49970  1
 Si  Si1  1  0.99450  0.99450  0.98901  1
 Si  Si2  1  0.85637  0.35637  0.71274  1
 Si  Si3  1  0.35637  0.85637  0.71274  1
