CIF file written using JARVIS-Tools package.
data_Li2NiSnO4
_symmetry_space_group_name_H-M  'P2/m'
_cell_length_a       5.16996
_cell_length_b       3.09784
_cell_length_c       5.23837
_cell_angle_alpha    90
_cell_angle_beta     108.79
_cell_angle_gamma    90

_symmetry_Int_Tables_number  10
_chemical_formula_structural  Li2NiSnO4
_chemical_formula_sum  Li2NiSnO4
_cell_volume  79.4248940215036
_cell_formula_units_Z  1
loop_
  _symmetry_equiv_pos_site_id
 _symmetry_equiv_pos_as_xyz
 1  'x, y, z'
loop_
 _atom_site_type_symbol
 _atom_site_label
 _atom_site_symmetry_multiplicity
 _atom_site_fract_x
 _atom_site_fract_y
 _atom_site_fract_z
 _atom_site_fract_occupancy
 Li  Li1  1  0.00000  0.00000  0.00000  1
 Li  Li2  1  -0.00000  0.50000  0.50000  1
 Ni  Ni1  1  0.50000  0.50000  0.00000  1
 O  O1  1  0.73083  0.00000  0.24531  1
 O  O2  1  0.74071  0.50000  0.73971  1
 O  O3  1  0.26917  0.00000  0.75469  1
 O  O4  1  0.25929  0.50000  0.26029  1
 Sn  Sn1  1  0.50000  0.00000  0.50000  1
