CIF file written using JARVIS-Tools package.
data_KPrTe2
_symmetry_space_group_name_H-M  'R-3m'
_cell_length_a       8.56094
_cell_length_b       8.56094
_cell_length_c       8.56093
_cell_angle_alpha    31.3378
_cell_angle_beta     31.3378
_cell_angle_gamma    31.3378

_symmetry_Int_Tables_number  166
_chemical_formula_structural  KPrTe2
_chemical_formula_sum  KPrTe2
_cell_volume  150.63113811618467
_cell_formula_units_Z  1
loop_
  _symmetry_equiv_pos_site_id
 _symmetry_equiv_pos_as_xyz
 1  'x, y, z'
loop_
 _atom_site_type_symbol
 _atom_site_label
 _atom_site_symmetry_multiplicity
 _atom_site_fract_x
 _atom_site_fract_y
 _atom_site_fract_z
 _atom_site_fract_occupancy
 K  K1  1  0.50000  0.50000  0.50000  1
 Pr  Pr1  1  0.00000  0.00000  0.00000  1
 Te  Te1  1  0.25989  0.25989  0.25989  1
 Te  Te2  1  0.74011  0.74011  0.74011  1
