CIF file written using JARVIS-Tools package.
data_ThSiSe
_symmetry_space_group_name_H-M  'I4/mmm'
_cell_length_a       4.02067
_cell_length_b       4.02067
_cell_length_c       9.31094
_cell_angle_alpha    102.469
_cell_angle_beta     102.469
_cell_angle_gamma    90

_symmetry_Int_Tables_number  139
_chemical_formula_structural  ThSiSe
_chemical_formula_sum  Th2Si2Se2
_cell_volume  143.33056672851941
_cell_formula_units_Z  2
loop_
  _symmetry_equiv_pos_site_id
 _symmetry_equiv_pos_as_xyz
 1  'x, y, z'
loop_
 _atom_site_type_symbol
 _atom_site_label
 _atom_site_symmetry_multiplicity
 _atom_site_fract_x
 _atom_site_fract_y
 _atom_site_fract_z
 _atom_site_fract_occupancy
 Se  Se1  1  0.68909  0.68909  0.37819  1
 Se  Se2  1  0.31091  0.31091  0.62181  1
 Si  Si1  1  0.50000  0.00000  0.00000  1
 Si  Si2  1  0.00000  0.50000  0.00000  1
 Th  Th1  1  0.86883  0.86883  0.73765  1
 Th  Th2  1  0.13117  0.13117  0.26235  1
