CIF file written using JARVIS-Tools package.
data_Al2ZnS4
_symmetry_space_group_name_H-M  'I-4'
_cell_length_a       5.31799
_cell_length_b       5.31799
_cell_length_c       6.41282
_cell_angle_alpha    114.496
_cell_angle_beta     114.496
_cell_angle_gamma    90

_symmetry_Int_Tables_number  82
_chemical_formula_structural  Al2ZnS4
_chemical_formula_sum  Al2ZnS4
_cell_volume  146.90779471337726
_cell_formula_units_Z  1
loop_
  _symmetry_equiv_pos_site_id
 _symmetry_equiv_pos_as_xyz
 1  'x, y, z'
loop_
 _atom_site_type_symbol
 _atom_site_label
 _atom_site_symmetry_multiplicity
 _atom_site_fract_x
 _atom_site_fract_y
 _atom_site_fract_z
 _atom_site_fract_occupancy
 Al  Al1  1  0.50000  0.50000  0.00000  1
 Al  Al2  1  0.25000  0.75000  0.50000  1
 S  S1  1  0.61519  0.12965  0.73845  1
 S  S2  1  0.12326  0.60880  0.73845  1
 S  S3  1  0.87035  0.87674  0.26155  1
 S  S4  1  0.39120  0.38481  0.26155  1
 Zn  Zn1  1  0.00000  0.00000  0.00000  1
