CIF file written using JARVIS-Tools package.
data_Rb2TeSe4
_symmetry_space_group_name_H-M  'C2/m'
_cell_length_a       5.35083
_cell_length_b       6.99191
_cell_length_c       6.99191
_cell_angle_alpha    76.1307
_cell_angle_beta     69.2466
_cell_angle_gamma    69.2466

_symmetry_Int_Tables_number  12
_chemical_formula_structural  Rb2TeSe4
_chemical_formula_sum  Rb2TeSe4
_cell_volume  226.78272488244087
_cell_formula_units_Z  1
loop_
  _symmetry_equiv_pos_site_id
 _symmetry_equiv_pos_as_xyz
 1  'x, y, z'
loop_
 _atom_site_type_symbol
 _atom_site_label
 _atom_site_symmetry_multiplicity
 _atom_site_fract_x
 _atom_site_fract_y
 _atom_site_fract_z
 _atom_site_fract_occupancy
 Rb  Rb1  1  0.33666  0.32129  0.32129  1
 Rb  Rb2  1  0.66334  0.67871  0.67871  1
 Se  Se1  1  0.25847  0.32530  0.84659  1
 Se  Se2  1  0.25847  0.84659  0.32530  1
 Se  Se3  1  0.74153  0.67470  0.15341  1
 Se  Se4  1  0.74153  0.15341  0.67470  1
 Te  Te1  1  0.00000  0.00000  0.00000  1
