CIF file written using JARVIS-Tools package.
data_ZrVMo
_symmetry_space_group_name_H-M  'Imma'
_cell_length_a       5.28059
_cell_length_b       5.28059
_cell_length_c       5.28059
_cell_angle_alpha    120.344
_cell_angle_beta     119.226
_cell_angle_gamma    90.3756

_symmetry_Int_Tables_number  74
_chemical_formula_structural  ZrVMo
_chemical_formula_sum  Zr2V2Mo2
_cell_volume  104.44340559636069
_cell_formula_units_Z  2
loop_
  _symmetry_equiv_pos_site_id
 _symmetry_equiv_pos_as_xyz
 1  'x, y, z'
loop_
 _atom_site_type_symbol
 _atom_site_label
 _atom_site_symmetry_multiplicity
 _atom_site_fract_x
 _atom_site_fract_y
 _atom_site_fract_z
 _atom_site_fract_occupancy
 Mo  Mo1  1  0.00000  0.50000  0.00000  1
 Mo  Mo2  1  0.00000  0.00000  0.50000  1
 V  V1  1  0.50000  0.50000  -0.00000  1
 V  V2  1  0.00000  0.50000  0.50000  1
 Zr  Zr1  1  0.37524  0.12524  0.25000  1
 Zr  Zr2  1  0.62476  0.87476  0.75000  1
