CIF file written using JARVIS-Tools package.
data_CaB3H3O7
_symmetry_space_group_name_H-M  'P2_1/c'
_cell_length_a       8.29252
_cell_length_b       8.17749
_cell_length_c       7.26041
_cell_angle_alpha    90
_cell_angle_beta     98.7147
_cell_angle_gamma    90

_symmetry_Int_Tables_number  14
_chemical_formula_structural  CaB3H3O7
_chemical_formula_sum  Ca4B2H2O28
_cell_volume  486.65862257279326
_cell_formula_units_Z  4
loop_
  _symmetry_equiv_pos_site_id
 _symmetry_equiv_pos_as_xyz
 1  'x, y, z'
loop_
 _atom_site_type_symbol
 _atom_site_label
 _atom_site_symmetry_multiplicity
 _atom_site_fract_x
 _atom_site_fract_y
 _atom_site_fract_z
 _atom_site_fract_occupancy
 B  B1  1  0.60970  0.35191  0.77879  1
 B  B2  1  0.89030  0.85191  0.22121  1
 B  B3  1  0.16715  0.46105  0.31046  1
 B  B4  1  0.33285  0.96105  0.68954  1
 B  B5  1  0.21338  0.19059  0.48277  1
 B  B6  1  0.28662  0.69059  0.51723  1
 B  B7  1  0.78662  0.80941  0.51723  1
 B  B8  1  0.71338  0.30941  0.48277  1
 B  B9  1  0.10970  0.14809  0.77879  1
 B  B10  1  0.39030  0.64809  0.22121  1
 B  B11  1  0.83285  0.53895  0.68954  1
 B  B12  1  0.66715  0.03895  0.31046  1
 Ca  Ca1  1  0.38858  0.29337  0.07611  1
 Ca  Ca2  1  0.88858  0.20663  0.07611  1
 Ca  Ca3  1  0.61142  0.70663  0.92389  1
 Ca  Ca4  1  0.11142  0.79337  0.92389  1
 H  H1  1  0.92780  0.45488  0.35336  1
 H  H2  1  0.57220  0.95488  0.64664  1
 H  H3  1  0.07220  0.54512  0.64664  1
 H  H4  1  0.42780  0.04512  0.35336  1
 H  H5  1  0.37502  0.45170  0.68608  1
 H  H6  1  0.12498  0.95170  0.31392  1
 H  H7  1  0.62498  0.54830  0.31392  1
 H  H8  1  0.07785  0.38715  0.86448  1
 H  H9  1  0.42215  0.88715  0.13552  1
 H  H10  1  0.92215  0.61285  0.13552  1
 H  H11  1  0.87502  0.04830  0.68608  1
 H  H12  1  0.57785  0.11285  0.86448  1
 O  O1  1  0.26224  0.79176  0.66231  1
 O  O2  1  0.23776  0.29176  0.33769  1
 O  O3  1  0.25416  0.04484  0.83048  1
 O  O4  1  0.24584  0.54484  0.16952  1
 O  O5  1  0.74584  0.95516  0.16952  1
 O  O6  1  0.61620  0.22166  0.92252  1
 O  O7  1  0.73776  0.20824  0.33769  1
 O  O8  1  0.88380  0.72166  0.07748  1
 O  O9  1  0.38380  0.77834  0.07748  1
 O  O10  1  0.11620  0.27834  0.92252  1
 O  O11  1  0.19565  0.54832  0.49244  1
 O  O12  1  0.75416  0.45516  0.83048  1
 O  O13  1  0.76224  0.70824  0.66231  1
 O  O14  1  0.69565  0.95168  0.49244  1
 O  O15  1  0.60038  0.27710  0.59595  1
 O  O16  1  0.80435  0.45168  0.50756  1
 O  O17  1  0.10038  0.22290  0.59595  1
 O  O18  1  0.39962  0.72290  0.40405  1
 O  O19  1  0.00991  0.55248  0.75533  1
 O  O20  1  0.89962  0.77710  0.40405  1
 O  O21  1  0.95910  0.04575  0.79704  1
 O  O22  1  0.54090  0.54575  0.20296  1
 O  O23  1  0.04090  0.95425  0.20296  1
 O  O24  1  0.45910  0.45425  0.79704  1
 O  O25  1  0.49009  0.05248  0.24467  1
 O  O26  1  0.99009  0.44752  0.24467  1
 O  O27  1  0.50991  0.94752  0.75533  1
 O  O28  1  0.30435  0.04832  0.50756  1
