CIF file written using JARVIS-Tools package.
data_CaCrF6
_symmetry_space_group_name_H-M  'R-3'
_cell_length_a       5.65923
_cell_length_b       5.65923
_cell_length_c       5.65923
_cell_angle_alpha    54.2561
_cell_angle_beta     54.2562
_cell_angle_gamma    54.2563

_symmetry_Int_Tables_number  148
_chemical_formula_structural  CaCrF6
_chemical_formula_sum  CaCrF6
_cell_volume  110.98325871435027
_cell_formula_units_Z  1
loop_
  _symmetry_equiv_pos_site_id
 _symmetry_equiv_pos_as_xyz
 1  'x, y, z'
loop_
 _atom_site_type_symbol
 _atom_site_label
 _atom_site_symmetry_multiplicity
 _atom_site_fract_x
 _atom_site_fract_y
 _atom_site_fract_z
 _atom_site_fract_occupancy
 Ca  Ca1  1  0.50000  0.50000  0.50000  1
 Cr  Cr1  1  0.00000  0.00000  0.00000  1
 F  F1  1  0.92749  0.21519  0.63420  1
 F  F2  1  0.21519  0.63420  0.92749  1
 F  F3  1  0.36580  0.07251  0.78481  1
 F  F4  1  0.78481  0.36580  0.07251  1
 F  F5  1  0.07251  0.78481  0.36580  1
 F  F6  1  0.63420  0.92749  0.21519  1
