CIF file written using JARVIS-Tools package.
data_CeThO4
_symmetry_space_group_name_H-M  'P4/mmm'
_cell_length_a       3.91823
_cell_length_b       7.83483
_cell_length_c       6.7846
_cell_angle_alpha    30.0098
_cell_angle_beta     54.7264
_cell_angle_gamma    59.9951

_symmetry_Int_Tables_number  123
_chemical_formula_structural  CeThO4
_chemical_formula_sum  CeThO4
_cell_volume  85.0446233424308
_cell_formula_units_Z  1
loop_
  _symmetry_equiv_pos_site_id
 _symmetry_equiv_pos_as_xyz
 1  'x, y, z'
loop_
 _atom_site_type_symbol
 _atom_site_label
 _atom_site_symmetry_multiplicity
 _atom_site_fract_x
 _atom_site_fract_y
 _atom_site_fract_z
 _atom_site_fract_occupancy
 Ce  Ce1  1  -0.00000  0.50000  -0.00000  1
 O  O1  1  0.25469  0.50000  0.24531  1
 O  O2  1  0.24531  1.00000  0.25469  1
 O  O3  1  0.74531  0.50000  0.75469  1
 O  O4  1  0.75469  0.00000  0.74531  1
 Th  Th1  1  0.00000  -0.00000  0.00000  1
