CIF file written using JARVIS-Tools package.
data_Cu3Rh
_symmetry_space_group_name_H-M  'I4/mmm'
_cell_length_a       4.48276
_cell_length_b       4.48276
_cell_length_c       4.48276
_cell_angle_alpha    130.735
_cell_angle_beta     130.735
_cell_angle_gamma    72.234

_symmetry_Int_Tables_number  139
_chemical_formula_structural  Cu3Rh
_chemical_formula_sum  Cu3Rh
_cell_volume  50.56519981131029
_cell_formula_units_Z  1
loop_
  _symmetry_equiv_pos_site_id
 _symmetry_equiv_pos_as_xyz
 1  'x, y, z'
loop_
 _atom_site_type_symbol
 _atom_site_label
 _atom_site_symmetry_multiplicity
 _atom_site_fract_x
 _atom_site_fract_y
 _atom_site_fract_z
 _atom_site_fract_occupancy
 Cu  Cu1  1  0.75000  0.25000  0.50000  1
 Cu  Cu2  1  0.25000  0.75000  0.50000  1
 Cu  Cu3  1  0.50000  0.50000  -0.00000  1
 Rh  Rh1  1  0.00000  0.00000  0.00000  1
