CIF file written using JARVIS-Tools package.
data_Na2Ca3Si6O16
_symmetry_space_group_name_H-M  'P-1'
_cell_length_a       7.26894
_cell_length_b       10.2314
_cell_length_c       10.6908
_cell_angle_alpha    95.9991
_cell_angle_beta     109.963
_cell_angle_gamma    98.9642

_symmetry_Int_Tables_number  2
_chemical_formula_structural  Na2Ca3Si6O16
_chemical_formula_sum  Na4Ca6Si2O32
_cell_volume  727.4603497329424
_cell_formula_units_Z  2
loop_
  _symmetry_equiv_pos_site_id
 _symmetry_equiv_pos_as_xyz
 1  'x, y, z'
loop_
 _atom_site_type_symbol
 _atom_site_label
 _atom_site_symmetry_multiplicity
 _atom_site_fract_x
 _atom_site_fract_y
 _atom_site_fract_z
 _atom_site_fract_occupancy
 Ca  Ca1  1  0.46269  0.13270  0.11275  1
 Ca  Ca2  1  0.90258  0.15034  0.48301  1
 Ca  Ca3  1  0.09742  0.84966  0.51699  1
 Ca  Ca4  1  0.96537  0.12190  0.12178  1
 Ca  Ca5  1  0.03463  0.87810  0.87822  1
 Ca  Ca6  1  0.53731  0.86730  0.88725  1
 Na  Na1  1  0.64812  0.41845  0.81816  1
 Na  Na2  1  0.39690  0.13490  0.47979  1
 Na  Na3  1  0.60310  0.86510  0.52021  1
 Na  Na4  1  0.35188  0.58155  0.18184  1
 O  O1  1  0.19478  0.97444  0.12920  1
 O  O2  1  0.16959  0.06910  0.61652  1
 O  O3  1  0.61628  0.24239  0.35906  1
 O  O4  1  0.73249  0.25803  0.07798  1
 O  O5  1  0.72918  0.08755  0.61551  1
 O  O6  1  0.38372  0.75761  0.64094  1
 O  O7  1  0.36246  0.55273  0.77920  1
 O  O8  1  0.77927  0.51720  0.03503  1
 O  O9  1  0.63754  0.44727  0.22080  1
 O  O10  1  0.78781  0.50447  0.48503  1
 O  O11  1  0.54036  0.18439  0.76121  1
 O  O12  1  0.73159  0.72947  0.17126  1
 O  O13  1  0.27082  0.91245  0.38449  1
 O  O14  1  0.91182  0.28111  0.83827  1
 O  O15  1  0.39838  0.44072  0.35121  1
 O  O16  1  0.80522  0.02556  0.87080  1
 O  O17  1  0.88787  0.75884  0.63306  1
 O  O18  1  0.26841  0.27053  0.82874  1
 O  O19  1  0.21219  0.49553  0.51497  1
 O  O20  1  0.11213  0.24116  0.36694  1
 O  O21  1  0.02545  0.45752  0.25216  1
 O  O22  1  0.45964  0.81561  0.23879  1
 O  O23  1  0.83041  0.93090  0.38348  1
 O  O24  1  0.97455  0.54248  0.74784  1
 O  O25  1  0.26751  0.74197  0.92202  1
 O  O26  1  0.67423  0.97580  0.12554  1
 O  O27  1  0.60162  0.55928  0.64879  1
 O  O28  1  0.32577  0.02420  0.87446  1
 O  O29  1  0.08818  0.71889  0.16173  1
 O  O30  1  0.20640  0.25066  0.06346  1
 O  O31  1  0.79360  0.74934  0.93654  1
 O  O32  1  0.22073  0.48280  0.96497  1
 Si  Si1  1  0.81643  0.60003  0.62686  1
 Si  Si2  1  0.38795  0.60031  0.64184  1
 Si  Si3  1  0.79272  0.41308  0.14473  1
 Si  Si4  1  0.31884  0.12991  0.76958  1
 Si  Si5  1  0.15275  0.31657  0.92927  1
 Si  Si6  1  0.61205  0.39969  0.35816  1
 Si  Si7  1  0.20728  0.58692  0.85527  1
 Si  Si8  1  0.24869  0.86528  0.23073  1
 Si  Si9  1  0.68116  0.87009  0.23042  1
 Si  Si10  1  0.75131  0.13472  0.76927  1
 Si  Si11  1  0.84725  0.68343  0.07073  1
 Si  Si12  1  0.18357  0.39997  0.37314  1
