CIF file written using JARVIS-Tools package.
data_LiP2WO8
_symmetry_space_group_name_H-M  'C2/m'
_cell_length_a       4.8583
_cell_length_b       4.8583
_cell_length_c       6.85162
_cell_angle_alpha    95.1807
_cell_angle_beta     84.8193
_cell_angle_gamma    113.439

_symmetry_Int_Tables_number  12
_chemical_formula_structural  LiP2WO8
_chemical_formula_sum  LiP2WO8
_cell_volume  147.5065909970606
_cell_formula_units_Z  1
loop_
  _symmetry_equiv_pos_site_id
 _symmetry_equiv_pos_as_xyz
 1  'x, y, z'
loop_
 _atom_site_type_symbol
 _atom_site_label
 _atom_site_symmetry_multiplicity
 _atom_site_fract_x
 _atom_site_fract_y
 _atom_site_fract_z
 _atom_site_fract_occupancy
 Li  Li1  1  0.00000  0.00000  0.00000  1
 O  O1  1  0.23132  0.76868  0.54895  1
 O  O2  1  0.22731  0.77269  0.92238  1
 O  O3  1  0.68628  0.78651  0.70385  1
 O  O4  1  0.21349  0.31372  0.70385  1
 O  O5  1  0.78651  0.68628  0.29615  1
 O  O6  1  0.31372  0.21349  0.29615  1
 O  O7  1  0.77269  0.22731  0.07762  1
 O  O8  1  0.76868  0.23132  0.45105  1
 P  P1  1  0.33348  0.66652  0.73306  1
 P  P2  1  0.66652  0.33348  0.26694  1
 W  W1  1  -0.00000  0.00000  0.50000  1
