CIF file written using JARVIS-Tools package.
data_K2CaN4O8
_symmetry_space_group_name_H-M  'C2/m'
_cell_length_a       5.34441
_cell_length_b       5.3444
_cell_length_c       9.10664
_cell_angle_alpha    88.8186
_cell_angle_beta     88.8186
_cell_angle_gamma    70.003

_symmetry_Int_Tables_number  12
_chemical_formula_structural  K2CaN4O8
_chemical_formula_sum  K2CaN4O8
_cell_volume  244.3504285703371
_cell_formula_units_Z  1
loop_
  _symmetry_equiv_pos_site_id
 _symmetry_equiv_pos_as_xyz
 1  'x, y, z'
loop_
 _atom_site_type_symbol
 _atom_site_label
 _atom_site_symmetry_multiplicity
 _atom_site_fract_x
 _atom_site_fract_y
 _atom_site_fract_z
 _atom_site_fract_occupancy
 Ca  Ca1  1  0.00000  0.00000  0.00000  1
 K  K1  1  0.65552  0.65552  0.36772  1
 K  K2  1  0.34448  0.34448  0.63228  1
 N  N1  1  0.55807  0.55807  0.04440  1
 N  N2  1  0.30129  0.30129  0.28228  1
 N  N3  1  0.69871  0.69871  0.71772  1
 N  N4  1  0.44193  0.44193  0.95560  1
 O  O1  1  0.42714  0.79790  0.08975  1
 O  O2  1  0.79790  0.42714  0.08975  1
 O  O3  1  0.57286  0.20210  0.91025  1
 O  O4  1  0.53241  0.18285  0.33470  1
 O  O5  1  0.81715  0.46759  0.66530  1
 O  O6  1  0.18285  0.53241  0.33470  1
 O  O7  1  0.20210  0.57286  0.91025  1
 O  O8  1  0.46759  0.81715  0.66530  1
