CIF file written using JARVIS-Tools package.
data_Li2Co3SnO8
_symmetry_space_group_name_H-M  'R3m'
_cell_length_a       5.76089
_cell_length_b       5.76088
_cell_length_c       5.76089
_cell_angle_alpha    60.8436
_cell_angle_beta     60.8436
_cell_angle_gamma    60.8435

_symmetry_Int_Tables_number  160
_chemical_formula_structural  Li2Co3SnO8
_chemical_formula_sum  Li2Co3SnO8
_cell_volume  137.7638249225991
_cell_formula_units_Z  1
loop_
  _symmetry_equiv_pos_site_id
 _symmetry_equiv_pos_as_xyz
 1  'x, y, z'
loop_
 _atom_site_type_symbol
 _atom_site_label
 _atom_site_symmetry_multiplicity
 _atom_site_fract_x
 _atom_site_fract_y
 _atom_site_fract_z
 _atom_site_fract_occupancy
 Co  Co1  1  0.01283  0.49818  0.49818  1
 Co  Co2  1  0.49818  0.49818  0.01283  1
 Co  Co3  1  0.49818  0.01283  0.49818  1
 Li  Li1  1  0.12050  0.12050  0.12050  1
 Li  Li2  1  0.49470  0.49470  0.49470  1
 O  O1  1  0.26509  0.26509  0.26509  1
 O  O2  1  0.24726  0.71266  0.24726  1
 O  O3  1  0.24726  0.24726  0.71266  1
 O  O4  1  0.71266  0.24726  0.24726  1
 O  O5  1  0.30130  0.73673  0.73673  1
 O  O6  1  0.73673  0.73673  0.30130  1
 O  O7  1  0.73673  0.30130  0.73673  1
 O  O8  1  0.74032  0.74032  0.74032  1
 Sn  Sn1  1  0.88826  0.88826  0.88826  1
