CIF file written using JARVIS-Tools package.
data_CeSe2
_symmetry_space_group_name_H-M  'P6_3/mmc'
_cell_length_a       4.07411
_cell_length_b       4.07411
_cell_length_c       12.5591
_cell_angle_alpha    90
_cell_angle_beta     90
_cell_angle_gamma    119.998

_symmetry_Int_Tables_number  194
_chemical_formula_structural  CeSe2
_chemical_formula_sum  Ce2Se4
_cell_volume  180.53511617438713
_cell_formula_units_Z  2
loop_
  _symmetry_equiv_pos_site_id
 _symmetry_equiv_pos_as_xyz
 1  'x, y, z'
loop_
 _atom_site_type_symbol
 _atom_site_label
 _atom_site_symmetry_multiplicity
 _atom_site_fract_x
 _atom_site_fract_y
 _atom_site_fract_z
 _atom_site_fract_occupancy
 Ce  Ce1  1  0.66662  0.33338  0.75000  1
 Ce  Ce2  1  0.33338  0.66662  0.25000  1
 Se  Se1  1  0.66670  0.33330  0.11567  1
 Se  Se2  1  0.33330  0.66670  0.88433  1
 Se  Se3  1  0.33330  0.66670  0.61567  1
 Se  Se4  1  0.66670  0.33330  0.38433  1
