CIF file written using JARVIS-Tools package.
data_NaTiS2
_symmetry_space_group_name_H-M  'R-3m'
_cell_length_a       6.95673
_cell_length_b       6.95673
_cell_length_c       6.95674
_cell_angle_alpha    29.579
_cell_angle_beta     29.579
_cell_angle_gamma    29.579

_symmetry_Int_Tables_number  166
_chemical_formula_structural  NaTiS2
_chemical_formula_sum  NaTiS2
_cell_volume  72.62142443935983
_cell_formula_units_Z  1
loop_
  _symmetry_equiv_pos_site_id
 _symmetry_equiv_pos_as_xyz
 1  'x, y, z'
loop_
 _atom_site_type_symbol
 _atom_site_label
 _atom_site_symmetry_multiplicity
 _atom_site_fract_x
 _atom_site_fract_y
 _atom_site_fract_z
 _atom_site_fract_occupancy
 Na  Na1  1  0.50000  0.50000  0.50000  1
 S  S1  1  0.73793  0.73793  0.73793  1
 S  S2  1  0.26207  0.26207  0.26207  1
 Ti  Ti1  1  0.00000  0.00000  0.00000  1
