CIF file written using JARVIS-Tools package.
data_Ta2InS4
_symmetry_space_group_name_H-M  'Imm2'
_cell_length_a       8.68475
_cell_length_b       8.68476
_cell_length_c       8.68475
_cell_angle_alpha    157.646
_cell_angle_beta     140.995
_cell_angle_gamma    45.4168

_symmetry_Int_Tables_number  44
_chemical_formula_structural  Ta2InS4
_chemical_formula_sum  Ta2InS4
_cell_volume  156.41818239294136
_cell_formula_units_Z  1
loop_
  _symmetry_equiv_pos_site_id
 _symmetry_equiv_pos_as_xyz
 1  'x, y, z'
loop_
 _atom_site_type_symbol
 _atom_site_label
 _atom_site_symmetry_multiplicity
 _atom_site_fract_x
 _atom_site_fract_y
 _atom_site_fract_z
 _atom_site_fract_occupancy
 In  In1  1  0.51853  0.50000  0.01853  1
 S  S1  1  0.48201  0.15290  0.32911  1
 S  S2  1  0.98332  0.65229  0.33103  1
 S  S3  1  0.67874  0.34771  0.33103  1
 S  S4  1  0.17620  0.84710  0.32911  1
 Ta  Ta1  1  0.74677  0.75039  0.99639  1
 Ta  Ta2  1  0.24600  0.24961  0.99639  1
