CIF file written using JARVIS-Tools package.
data_CeSe2
_symmetry_space_group_name_H-M  'R3m'
_cell_length_a       4.14932
_cell_length_b       4.14932
_cell_length_c       12.6445
_cell_angle_alpha    80.5564
_cell_angle_beta     80.5564
_cell_angle_gamma    60

_symmetry_Int_Tables_number  160
_chemical_formula_structural  CeSe2
_chemical_formula_sum  Ce2Se4
_cell_volume  185.1181856149538
_cell_formula_units_Z  2
loop_
  _symmetry_equiv_pos_site_id
 _symmetry_equiv_pos_as_xyz
 1  'x, y, z'
loop_
 _atom_site_type_symbol
 _atom_site_label
 _atom_site_symmetry_multiplicity
 _atom_site_fract_x
 _atom_site_fract_y
 _atom_site_fract_z
 _atom_site_fract_occupancy
 Ce  Ce1  1  0.91630  0.91630  0.25109  1
 Ce  Ce2  1  0.08360  0.08360  0.74919  1
 Se  Se1  1  0.79159  0.79159  0.62523  1
 Se  Se2  1  0.62774  0.62774  0.11679  1
 Se  Se3  1  0.53846  0.53846  0.38461  1
 Se  Se4  1  0.37570  0.37570  0.87289  1
