CIF file written using JARVIS-Tools package.
data_Ho2Cr2C3
_symmetry_space_group_name_H-M  'C2/m'
_cell_length_a       3.36726
_cell_length_b       5.4575
_cell_length_c       5.53229
_cell_angle_alpha    105.07
_cell_angle_beta     90
_cell_angle_gamma    107.969

_symmetry_Int_Tables_number  12
_chemical_formula_structural  Ho2Cr2C3
_chemical_formula_sum  Ho2Cr2C3
_cell_volume  93.02440648846547
_cell_formula_units_Z  1
loop_
  _symmetry_equiv_pos_site_id
 _symmetry_equiv_pos_as_xyz
 1  'x, y, z'
loop_
 _atom_site_type_symbol
 _atom_site_label
 _atom_site_symmetry_multiplicity
 _atom_site_fract_x
 _atom_site_fract_y
 _atom_site_fract_z
 _atom_site_fract_occupancy
 C  C1  1  0.28549  0.57097  0.73122  1
 C  C2  1  0.71451  0.42903  0.26878  1
 C  C3  1  0.00000  0.00000  0.50000  1
 Cr  Cr1  1  0.84348  0.68696  0.61174  1
 Cr  Cr2  1  0.15652  0.31304  0.38826  1
 Ho  Ho1  1  0.60581  0.21163  0.81660  1
 Ho  Ho2  1  0.39419  0.78837  0.18340  1
