CIF file written using JARVIS-Tools package.
data_LaMn2Ni3
_symmetry_space_group_name_H-M  'P6/mmm'
_cell_length_a       3.95482
_cell_length_b       5.20571
_cell_length_c       5.20571
_cell_angle_alpha    120
_cell_angle_beta     90
_cell_angle_gamma    90

_symmetry_Int_Tables_number  191
_chemical_formula_structural  LaMn2Ni3
_chemical_formula_sum  LaMn2Ni3
_cell_volume  92.81499755348477
_cell_formula_units_Z  1
loop_
  _symmetry_equiv_pos_site_id
 _symmetry_equiv_pos_as_xyz
 1  'x, y, z'
loop_
 _atom_site_type_symbol
 _atom_site_label
 _atom_site_symmetry_multiplicity
 _atom_site_fract_x
 _atom_site_fract_y
 _atom_site_fract_z
 _atom_site_fract_occupancy
 La  La1  1  0.00000  0.00000  0.00000  1
 Mn  Mn1  1  0.00000  0.66667  0.33333  1
 Mn  Mn2  1  0.00000  0.33333  0.66667  1
 Ni  Ni1  1  0.50000  0.50000  0.50000  1
 Ni  Ni2  1  0.50000  -0.00000  0.50000  1
 Ni  Ni3  1  0.50000  0.50000  0.00000  1
