CIF file written using JARVIS-Tools package.
data_ZrBrN
_symmetry_space_group_name_H-M  'R-3m'
_cell_length_a       3.66097
_cell_length_b       3.66097
_cell_length_c       10.0378
_cell_angle_alpha    79.4928
_cell_angle_beta     79.4928
_cell_angle_gamma    59.9999

_symmetry_Int_Tables_number  166
_chemical_formula_structural  ZrBrN
_chemical_formula_sum  Zr2Br2N2
_cell_volume  113.89687574793145
_cell_formula_units_Z  2
loop_
  _symmetry_equiv_pos_site_id
 _symmetry_equiv_pos_as_xyz
 1  'x, y, z'
loop_
 _atom_site_type_symbol
 _atom_site_label
 _atom_site_symmetry_multiplicity
 _atom_site_fract_x
 _atom_site_fract_y
 _atom_site_fract_z
 _atom_site_fract_occupancy
 Br  Br1  1  0.38824  0.38824  0.83527  1
 Br  Br2  1  0.61176  0.61176  0.16473  1
 N  N1  1  0.19623  0.19623  0.41132  1
 N  N2  1  0.80377  0.80377  0.58868  1
 Zr  Zr1  1  0.12222  0.12222  0.63333  1
 Zr  Zr2  1  0.87778  0.87778  0.36667  1
