CIF file written using JARVIS-Tools package.
data_Rb2Te2Pt
_symmetry_space_group_name_H-M  'Immm'
_cell_length_a       4.03924
_cell_length_b       6.99891
_cell_length_c       6.99891
_cell_angle_alpha    70.4636
_cell_angle_beta     73.2281
_cell_angle_gamma    73.2281

_symmetry_Int_Tables_number  71
_chemical_formula_structural  Rb2Te2Pt
_chemical_formula_sum  Rb2Te2Pt
_cell_volume  174.4461478053027
_cell_formula_units_Z  1
loop_
  _symmetry_equiv_pos_site_id
 _symmetry_equiv_pos_as_xyz
 1  'x, y, z'
loop_
 _atom_site_type_symbol
 _atom_site_label
 _atom_site_symmetry_multiplicity
 _atom_site_fract_x
 _atom_site_fract_y
 _atom_site_fract_z
 _atom_site_fract_occupancy
 Pt  Pt1  1  0.00000  0.00000  0.00000  1
 Rb  Rb1  1  0.20390  0.29610  0.29610  1
 Rb  Rb2  1  0.79610  0.70390  0.70390  1
 Te  Te1  1  0.50000  0.21890  0.78110  1
 Te  Te2  1  0.50000  0.78110  0.21890  1
