CIF file written using JARVIS-Tools package.
data_SrCl2O6
_symmetry_space_group_name_H-M  'Fdd2'
_cell_length_a       6.87779
_cell_length_b       6.87779
_cell_length_c       7.2935
_cell_angle_alpha    105.981
_cell_angle_beta     105.981
_cell_angle_gamma    114.586

_symmetry_Int_Tables_number  43
_chemical_formula_structural  SrCl2O6
_chemical_formula_sum  Sr2Cl4O2
_cell_volume  269.9486389089356
_cell_formula_units_Z  2
loop_
  _symmetry_equiv_pos_site_id
 _symmetry_equiv_pos_as_xyz
 1  'x, y, z'
loop_
 _atom_site_type_symbol
 _atom_site_label
 _atom_site_symmetry_multiplicity
 _atom_site_fract_x
 _atom_site_fract_y
 _atom_site_fract_z
 _atom_site_fract_occupancy
 Cl  Cl1  1  0.61329  0.22122  0.95954  1
 Cl  Cl2  1  0.26168  0.65375  0.04046  1
 Cl  Cl3  1  0.97122  0.86329  0.45954  1
 Cl  Cl4  1  0.40375  0.51168  0.54046  1
 O  O1  1  0.36318  0.28138  0.38713  1
 O  O2  1  0.85998  0.60948  0.41824  1
 O  O3  1  0.19174  0.44125  0.08176  1
 O  O4  1  0.35948  0.10998  0.91824  1
 O  O5  1  0.33852  0.85963  0.24273  1
 O  O6  1  0.61689  0.09579  0.75727  1
 O  O7  1  0.89426  0.97606  0.61287  1
 O  O8  1  0.19125  0.44174  0.58176  1
 O  O9  1  0.03138  0.61318  0.88713  1
 O  O10  1  0.84579  0.86689  0.25727  1
 O  O11  1  0.60963  0.58852  0.74273  1
 O  O12  1  0.72606  0.14426  0.11287  1
 Sr  Sr1  1  0.74955  0.24955  0.50000  1
 Sr  Sr2  1  -0.00045  -0.00045  0.00000  1
