CIF file written using JARVIS-Tools package.
data_MnCoSn4
_symmetry_space_group_name_H-M  'I422'
_cell_length_a       5.38193
_cell_length_b       5.38194
_cell_length_c       5.38193
_cell_angle_alpha    104.811
_cell_angle_beta     104.811
_cell_angle_gamma    119.258

_symmetry_Int_Tables_number  97
_chemical_formula_structural  MnCoSn4
_chemical_formula_sum  MnCoSn4
_cell_volume  117.33811866122375
_cell_formula_units_Z  1
loop_
  _symmetry_equiv_pos_site_id
 _symmetry_equiv_pos_as_xyz
 1  'x, y, z'
loop_
 _atom_site_type_symbol
 _atom_site_label
 _atom_site_symmetry_multiplicity
 _atom_site_fract_x
 _atom_site_fract_y
 _atom_site_fract_z
 _atom_site_fract_occupancy
 Co  Co1  1  0.00000  0.00000  0.00000  1
 Mn  Mn1  1  0.50000  0.50000  -0.00000  1
 Sn  Sn1  1  0.91442  0.41442  0.82884  1
 Sn  Sn2  1  0.58558  0.08558  0.17116  1
 Sn  Sn3  1  0.08558  0.91442  0.50000  1
 Sn  Sn4  1  0.41442  0.58558  0.50000  1
