CIF file written using JARVIS-Tools package.
data_Ag2S
_symmetry_space_group_name_H-M  'Pc'
_cell_length_a       4.09633
_cell_length_b       4.55655
_cell_length_c       8.93215
_cell_angle_alpha    120.448
_cell_angle_beta     117.055
_cell_angle_gamma    90.4221

_symmetry_Int_Tables_number  7
_chemical_formula_structural  Ag2S
_chemical_formula_sum  Ag4S2
_cell_volume  121.70189624394189
_cell_formula_units_Z  2
loop_
  _symmetry_equiv_pos_site_id
 _symmetry_equiv_pos_as_xyz
 1  'x, y, z'
loop_
 _atom_site_type_symbol
 _atom_site_label
 _atom_site_symmetry_multiplicity
 _atom_site_fract_x
 _atom_site_fract_y
 _atom_site_fract_z
 _atom_site_fract_occupancy
 Ag  Ag1  1  0.59648  0.31157  0.85987  1
 Ag  Ag2  1  0.19952  0.57945  0.29867  1
 Ag  Ag3  1  0.87675  0.59184  0.64013  1
 Ag  Ag4  1  0.60217  -0.01789  0.20133  1
 S  S1  1  0.94050  0.97048  0.51546  1
 S  S2  1  0.90959  0.93956  0.98454  1
