CIF file written using JARVIS-Tools package.
data_Ho10Si17
_symmetry_space_group_name_H-M  'Imm2'
_cell_length_a       6.69986
_cell_length_b       8.23961
_cell_length_c       10.9921
_cell_angle_alpha    112.012
_cell_angle_beta     107.744
_cell_angle_gamma    90

_symmetry_Int_Tables_number  44
_chemical_formula_structural  Ho10Si17
_chemical_formula_sum  Ho0Si7
_cell_volume  531.3124625533924
_cell_formula_units_Z  1
loop_
  _symmetry_equiv_pos_site_id
 _symmetry_equiv_pos_as_xyz
 1  'x, y, z'
loop_
 _atom_site_type_symbol
 _atom_site_label
 _atom_site_symmetry_multiplicity
 _atom_site_fract_x
 _atom_site_fract_y
 _atom_site_fract_z
 _atom_site_fract_occupancy
 Ho  Ho1  1  0.56415  0.05194  0.60003  1
 Ho  Ho2  1  0.16767  0.64721  0.79924  1
 Ho  Ho3  1  0.16767  0.15204  0.79924  1
 Ho  Ho4  1  0.96412  0.45190  0.39997  1
 Ho  Ho5  1  0.76110  0.24480  -0.00000  1
 Ho  Ho6  1  0.36842  0.35279  0.20076  1
 Ho  Ho7  1  0.36842  0.84796  0.20076  1
 Ho  Ho8  1  0.56415  0.54810  0.60003  1
 Ho  Ho9  1  0.76110  0.75520  -0.00000  1
 Ho  Ho10  1  0.96412  0.94806  0.39997  1
 Si  Si1  1  0.84538  0.87822  0.75644  1
 Si  Si2  1  0.50605  0.89559  0.79119  1
 Si  Si3  1  0.08894  0.12178  0.24356  1
 Si  Si4  1  0.17792  0.80100  0.60200  1
 Si  Si5  1  0.03946  0.58179  0.16358  1
 Si  Si6  1  0.50183  0.39972  0.79945  1
 Si  Si7  1  0.71486  0.10441  0.20881  1
 Si  Si8  1  0.08007  0.00000  0.00000  1
 Si  Si9  1  0.29672  0.69954  0.39908  1
 Si  Si10  1  0.67301  0.71533  0.43066  1
 Si  Si11  1  0.70238  0.60028  0.20055  1
 Si  Si12  1  0.57592  0.19900  0.39800  1
 Si  Si13  1  0.38827  0.50000  0.00000  1
 Si  Si14  1  0.24235  0.28467  0.56934  1
 Si  Si15  1  0.43133  0.00000  0.00000  1
 Si  Si16  1  0.89763  0.30046  0.60092  1
 Si  Si17  1  0.87588  0.41821  0.83642  1
