CIF file written using JARVIS-Tools package.
data_Eu2Co5Ge3
_symmetry_space_group_name_H-M  'P4mm'
_cell_length_a       3.96969
_cell_length_b       3.96969
_cell_length_c       10.0432
_cell_angle_alpha    90
_cell_angle_beta     90
_cell_angle_gamma    90

_symmetry_Int_Tables_number  99
_chemical_formula_structural  Eu2Co5Ge3
_chemical_formula_sum  Eu2Co5Ge3
_cell_volume  158.26529791551104
_cell_formula_units_Z  1
loop_
  _symmetry_equiv_pos_site_id
 _symmetry_equiv_pos_as_xyz
 1  'x, y, z'
loop_
 _atom_site_type_symbol
 _atom_site_label
 _atom_site_symmetry_multiplicity
 _atom_site_fract_x
 _atom_site_fract_y
 _atom_site_fract_z
 _atom_site_fract_occupancy
 Co  Co1  1  0.00000  0.50000  0.24260  1
 Co  Co2  1  0.50000  0.00000  0.75199  1
 Co  Co3  1  0.50000  0.00000  0.24260  1
 Co  Co4  1  0.00000  0.50000  0.75199  1
 Co  Co5  1  0.50000  0.50000  0.12271  1
 Eu  Eu1  1  0.00000  0.00000  0.00767  1
 Eu  Eu2  1  0.50000  0.50000  0.49790  1
 Ge  Ge1  1  0.00000  0.00000  0.63183  1
 Ge  Ge2  1  0.00000  0.00000  0.36898  1
 Ge  Ge3  1  0.50000  0.50000  0.88174  1
