CIF file written using JARVIS-Tools package.
data_U
_symmetry_space_group_name_H-M  'C2/c'
_cell_length_a       6.1219
_cell_length_b       6.1219
_cell_length_c       5.4756
_cell_angle_alpha    53.7733
_cell_angle_beta     53.7733
_cell_angle_gamma    81.6265

_symmetry_Int_Tables_number  15
_chemical_formula_structural  U
_chemical_formula_sum  U6
_cell_volume  126.83415976806722
_cell_formula_units_Z  6
loop_
  _symmetry_equiv_pos_site_id
 _symmetry_equiv_pos_as_xyz
 1  'x, y, z'
loop_
 _atom_site_type_symbol
 _atom_site_label
 _atom_site_symmetry_multiplicity
 _atom_site_fract_x
 _atom_site_fract_y
 _atom_site_fract_z
 _atom_site_fract_occupancy
 U  U1  1  0.83950  0.16050  0.25000  1
 U  U2  1  0.16050  0.83950  0.75000  1
 U  U3  1  0.78655  0.62045  0.59374  1
 U  U4  1  0.37955  0.21345  0.90626  1
 U  U5  1  0.21345  0.37955  0.40626  1
 U  U6  1  0.62045  0.78655  0.09374  1
