CIF file written using JARVIS-Tools package.
data_H2O
_symmetry_space_group_name_H-M  'P2_12_12_1'
_cell_length_a       3.93701
_cell_length_b       8.04168
_cell_length_c       8.10487
_cell_angle_alpha    90
_cell_angle_beta     90.0002
_cell_angle_gamma    90.0004

_symmetry_Int_Tables_number  19
_chemical_formula_structural  H2O
_chemical_formula_sum  H24O2
_cell_volume  256.60157035148194
_cell_formula_units_Z  12
loop_
  _symmetry_equiv_pos_site_id
 _symmetry_equiv_pos_as_xyz
 1  'x, y, z'
loop_
 _atom_site_type_symbol
 _atom_site_label
 _atom_site_symmetry_multiplicity
 _atom_site_fract_x
 _atom_site_fract_y
 _atom_site_fract_z
 _atom_site_fract_occupancy
 H  H1  1  0.48617  0.92357  0.64901  1
 H  H2  1  0.60542  0.04173  0.39990  1
 H  H3  1  0.85712  0.09252  0.94842  1
 H  H4  1  0.01348  0.15318  0.57146  1
 H  H5  1  0.68900  0.28068  0.22410  1
 H  H6  1  0.06111  0.71929  0.72409  1
 H  H7  1  0.23663  0.65319  0.42858  1
 H  H8  1  0.76392  0.42357  0.35103  1
 H  H9  1  0.18899  0.21928  0.27595  1
 H  H10  1  0.14467  0.95825  0.89989  1
 H  H11  1  0.45437  0.22237  0.78154  1
 H  H12  1  0.35713  0.40746  0.55161  1
 H  H13  1  0.39297  0.59252  0.05162  1
 H  H14  1  0.29573  0.77761  0.28155  1
 H  H15  1  0.89297  0.90745  0.44843  1
 H  H16  1  0.10543  0.45824  0.10015  1
 H  H17  1  0.64468  0.54174  0.60014  1
 H  H18  1  0.26392  0.07640  0.14901  1
 H  H19  1  0.98618  0.57641  0.85103  1
 H  H20  1  0.95437  0.27761  0.71849  1
 H  H21  1  0.73661  0.84680  0.07145  1
 H  H22  1  0.56110  0.78069  0.77595  1
 H  H23  1  0.51348  0.34680  0.92858  1
 H  H24  1  0.79573  0.72238  0.21850  1
 O  O1  1  0.12914  0.24353  0.63583  1
 O  O2  1  0.49999  0.50034  0.50736  1
 O  O3  1  0.75014  0.00035  0.49267  1
 O  O4  1  0.62096  0.75645  0.13583  1
 O  O5  1  -0.00005  0.99963  0.99267  1
 O  O6  1  0.25014  0.49962  0.00737  1
 O  O7  1  0.86708  0.36405  0.25467  1
 O  O8  1  0.62914  0.25646  0.86420  1
 O  O9  1  0.38303  0.86407  0.74537  1
 O  O10  1  0.36708  0.13591  0.24536  1
 O  O11  1  0.12094  0.74352  0.36419  1
 O  O12  1  0.88303  0.63591  0.75467  1
