CIF file written using JARVIS-Tools package.
data_Y3Mn3Ga2Ge
_symmetry_space_group_name_H-M  'P-6'
_cell_length_a       6.99374
_cell_length_b       6.99374
_cell_length_c       4.11387
_cell_angle_alpha    90
_cell_angle_beta     90
_cell_angle_gamma    120

_symmetry_Int_Tables_number  174
_chemical_formula_structural  Y3Mn3Ga2Ge
_chemical_formula_sum  Y3Mn3Ga2Ge
_cell_volume  174.26095582819303
_cell_formula_units_Z  1
loop_
  _symmetry_equiv_pos_site_id
 _symmetry_equiv_pos_as_xyz
 1  'x, y, z'
loop_
 _atom_site_type_symbol
 _atom_site_label
 _atom_site_symmetry_multiplicity
 _atom_site_fract_x
 _atom_site_fract_y
 _atom_site_fract_z
 _atom_site_fract_occupancy
 Ga  Ga1  1  0.00000  0.00000  0.00000  1
 Ga  Ga2  1  0.33333  0.66667  0.50000  1
 Ge  Ge1  1  0.66667  0.33333  0.00000  1
 Mn  Mn1  1  0.55810  0.66277  0.00000  1
 Mn  Mn2  1  0.10467  0.44190  0.00000  1
 Mn  Mn3  1  0.33723  0.89533  0.00000  1
 Y  Y1  1  0.91453  0.66485  0.50000  1
 Y  Y2  1  0.75032  0.08547  0.50000  1
 Y  Y3  1  0.33515  0.24968  0.50000  1
