CIF file written using JARVIS-Tools package.
data_Na2MgH8S2O12
_symmetry_space_group_name_H-M  'P2_1/c'
_cell_length_a       5.43994
_cell_length_b       8.21312
_cell_length_c       11.1017
_cell_angle_alpha    90
_cell_angle_beta     100.18
_cell_angle_gamma    90

_symmetry_Int_Tables_number  14
_chemical_formula_structural  Na2MgH8S2O12
_chemical_formula_sum  Na4Mg2H6S4O24
_cell_volume  488.20315101602927
_cell_formula_units_Z  2
loop_
  _symmetry_equiv_pos_site_id
 _symmetry_equiv_pos_as_xyz
 1  'x, y, z'
loop_
 _atom_site_type_symbol
 _atom_site_label
 _atom_site_symmetry_multiplicity
 _atom_site_fract_x
 _atom_site_fract_y
 _atom_site_fract_z
 _atom_site_fract_occupancy
 H  H1  1  0.76404  0.28060  0.98893  1
 H  H2  1  0.21618  0.85927  0.84006  1
 H  H3  1  0.23240  0.44650  0.31654  1
 H  H4  1  0.66645  0.29883  0.36176  1
 H  H5  1  0.23596  0.78060  0.51107  1
 H  H6  1  0.76760  0.94650  0.18346  1
 H  H7  1  0.66645  0.20117  0.86176  1
 H  H8  1  0.33355  0.79883  0.13824  1
 H  H9  1  0.33355  0.70117  0.63824  1
 H  H10  1  0.23596  0.71940  0.01107  1
 H  H11  1  0.78382  0.35927  0.65994  1
 H  H12  1  0.76404  0.21940  0.48893  1
 H  H13  1  0.76760  0.55350  0.68346  1
 H  H14  1  0.23240  0.05350  0.81654  1
 H  H15  1  0.21618  0.64073  0.34006  1
 H  H16  1  0.78382  0.14073  0.15994  1
 Mg  Mg1  1  0.00000  0.50000  0.50000  1
 Mg  Mg2  1  0.00000  0.00000  0.00000  1
 Na  Na1  1  0.87886  0.57791  0.13631  1
 Na  Na2  1  0.12114  0.42209  0.86369  1
 Na  Na3  1  0.12114  0.07791  0.36369  1
 Na  Na4  1  0.87886  0.92209  0.63631  1
 O  O1  1  0.77824  0.57475  0.91951  1
 O  O2  1  0.34925  0.82843  0.36784  1
 O  O3  1  0.12112  0.53621  0.33569  1
 O  O4  1  0.22176  0.07475  0.58049  1
 O  O5  1  0.87888  0.03621  0.16431  1
 O  O6  1  0.63942  0.77345  0.23128  1
 O  O7  1  0.36058  0.22655  0.76872  1
 O  O8  1  0.65075  0.32843  0.13216  1
 O  O9  1  0.65075  0.17157  0.63216  1
 O  O10  1  0.36058  0.27345  0.26872  1
 O  O11  1  0.12112  0.96379  0.83569  1
 O  O12  1  0.22176  0.42525  0.08049  1
 O  O13  1  0.77824  0.92525  0.41951  1
 O  O14  1  0.82012  0.21307  0.92471  1
 O  O15  1  0.87888  0.46379  0.66431  1
 O  O16  1  0.82012  0.28693  0.42471  1
 O  O17  1  0.63942  0.72655  0.73128  1
 O  O18  1  0.17988  0.78693  0.07529  1
 O  O19  1  0.17988  0.71307  0.57529  1
 O  O20  1  0.31599  0.36322  0.57054  1
 O  O21  1  0.68401  0.63678  0.42946  1
 O  O22  1  0.68401  0.86322  0.92946  1
 O  O23  1  0.34925  0.67157  0.86784  1
 O  O24  1  0.31599  0.13678  0.07054  1
 S  S1  1  0.38209  0.20826  0.63625  1
 S  S2  1  0.61791  0.70826  0.86375  1
 S  S3  1  0.38209  0.29174  0.13625  1
 S  S4  1  0.61791  0.79174  0.36375  1
