CIF file written using JARVIS-Tools package.
data_SiAg2P2
_symmetry_space_group_name_H-M  'I-42d'
_cell_length_a       6.33718
_cell_length_b       6.33718
_cell_length_c       6.33718
_cell_angle_alpha    117.094
_cell_angle_beta     117.094
_cell_angle_gamma    95.1107

_symmetry_Int_Tables_number  122
_chemical_formula_structural  SiAg2P2
_chemical_formula_sum  Si2Ag4P4
_cell_volume  187.05669609809473
_cell_formula_units_Z  2
loop_
  _symmetry_equiv_pos_site_id
 _symmetry_equiv_pos_as_xyz
 1  'x, y, z'
loop_
 _atom_site_type_symbol
 _atom_site_label
 _atom_site_symmetry_multiplicity
 _atom_site_fract_x
 _atom_site_fract_y
 _atom_site_fract_z
 _atom_site_fract_occupancy
 Ag  Ag1  1  0.37500  0.67642  0.80142  1
 Ag  Ag2  1  0.87500  0.57358  0.19858  1
 Ag  Ag3  1  0.32358  0.12500  0.69858  1
 Ag  Ag4  1  0.42642  0.62500  0.30142  1
 P  P1  1  0.37500  0.29567  0.42067  1
 P  P2  1  0.87500  0.95433  0.57933  1
 P  P3  1  0.70433  0.12500  0.07933  1
 P  P4  1  0.04567  0.62500  0.92067  1
 Si  Si1  1  0.00000  0.00000  0.00000  1
 Si  Si2  1  0.75000  0.25000  0.50000  1
