CIF file written using JARVIS-Tools package.
data_In3Sb5O12
_symmetry_space_group_name_H-M  'I-43m'
_cell_length_a       9.23643
_cell_length_b       9.23643
_cell_length_c       9.23643
_cell_angle_alpha    109.472
_cell_angle_beta     109.472
_cell_angle_gamma    109.472

_symmetry_Int_Tables_number  217
_chemical_formula_structural  In3Sb5O12
_chemical_formula_sum  In6Sb0O24
_cell_volume  606.5773667608071
_cell_formula_units_Z  2
loop_
  _symmetry_equiv_pos_site_id
 _symmetry_equiv_pos_as_xyz
 1  'x, y, z'
loop_
 _atom_site_type_symbol
 _atom_site_label
 _atom_site_symmetry_multiplicity
 _atom_site_fract_x
 _atom_site_fract_y
 _atom_site_fract_z
 _atom_site_fract_occupancy
 In  In1  1  0.24773  0.74771  0.49772  1
 In  In2  1  0.24773  0.49772  0.74771  1
 In  In3  1  0.49772  0.74771  0.24773  1
 In  In4  1  0.74771  0.24773  0.49772  1
 In  In5  1  0.74771  0.49772  0.24773  1
 In  In6  1  0.49772  0.24773  0.74771  1
 O  O1  1  0.79575  0.99772  0.52098  1
 O  O2  1  0.99772  0.52098  0.79575  1
 O  O3  1  0.52098  0.79575  0.99772  1
 O  O4  1  0.72294  0.19971  0.19971  1
 O  O5  1  0.19971  0.19971  0.72294  1
 O  O6  1  0.49295  0.79054  0.49295  1
 O  O7  1  0.19971  0.72294  0.19971  1
 O  O8  1  0.50251  0.29534  0.99771  1
 O  O9  1  0.47446  0.27248  0.47446  1
 O  O10  1  0.79575  0.52098  0.99772  1
 O  O11  1  0.29534  0.99771  0.50251  1
 O  O12  1  0.99771  0.50251  0.29534  1
 O  O13  1  0.99771  0.29534  0.50251  1
 O  O14  1  0.49295  0.49295  0.79054  1
 O  O15  1  0.47446  0.47446  0.27248  1
 O  O16  1  0.99772  0.79575  0.52098  1
 O  O17  1  0.20489  0.70011  0.70011  1
 O  O18  1  0.52098  0.99772  0.79575  1
 O  O19  1  0.79054  0.49295  0.49295  1
 O  O20  1  0.70011  0.70011  0.20489  1
 O  O21  1  0.70011  0.20489  0.70011  1
 O  O22  1  0.50251  0.99771  0.29534  1
 O  O23  1  0.27248  0.47446  0.47446  1
 O  O24  1  0.29534  0.50251  0.99771  1
 Sb  Sb1  1  0.27946  0.27946  0.99770  1
 Sb  Sb2  1  0.47881  0.99771  0.99771  1
 Sb  Sb3  1  0.99770  0.27946  0.27946  1
 Sb  Sb4  1  0.71599  0.71599  0.99773  1
 Sb  Sb5  1  0.99773  0.71599  0.71599  1
 Sb  Sb6  1  0.99771  0.47881  0.99771  1
 Sb  Sb7  1  0.99771  0.99771  0.47881  1
 Sb  Sb8  1  0.27946  0.99770  0.27946  1
 Sb  Sb9  1  0.51661  0.51661  0.51661  1
 Sb  Sb10  1  0.71599  0.99773  0.71599  1
