CIF file written using JARVIS-Tools package.
data_LiNiO2
_symmetry_space_group_name_H-M  'Imm2'
_cell_length_a       5.38026
_cell_length_b       5.38026
_cell_length_c       5.38026
_cell_angle_alpha    150.819
_cell_angle_beta     146.213
_cell_angle_gamma    45.2353

_symmetry_Int_Tables_number  44
_chemical_formula_structural  LiNiO2
_chemical_formula_sum  LiNiO2
_cell_volume  42.09602010627582
_cell_formula_units_Z  1
loop_
  _symmetry_equiv_pos_site_id
 _symmetry_equiv_pos_as_xyz
 1  'x, y, z'
loop_
 _atom_site_type_symbol
 _atom_site_label
 _atom_site_symmetry_multiplicity
 _atom_site_fract_x
 _atom_site_fract_y
 _atom_site_fract_z
 _atom_site_fract_occupancy
 Li  Li1  1  0.77136  0.27136  0.50000  1
 Ni  Ni1  1  0.50753  0.00753  0.50000  1
 O  O1  1  0.38427  0.38427  0.00000  1
 O  O2  1  0.62984  0.62984  -0.00000  1
