CIF file written using JARVIS-Tools package.
data_NdSi2
_symmetry_space_group_name_H-M  'I4_1/amd'
_cell_length_a       4.24164
_cell_length_b       4.24164
_cell_length_c       7.63581
_cell_angle_alpha    106.126
_cell_angle_beta     106.126
_cell_angle_gamma    90

_symmetry_Int_Tables_number  141
_chemical_formula_structural  NdSi2
_chemical_formula_sum  Nd2Si4
_cell_volume  126.33845874268104
_cell_formula_units_Z  2
loop_
  _symmetry_equiv_pos_site_id
 _symmetry_equiv_pos_as_xyz
 1  'x, y, z'
loop_
 _atom_site_type_symbol
 _atom_site_label
 _atom_site_symmetry_multiplicity
 _atom_site_fract_x
 _atom_site_fract_y
 _atom_site_fract_z
 _atom_site_fract_occupancy
 Nd  Nd1  1  0.25000  0.75000  0.50000  1
 Nd  Nd2  1  0.00000  0.00000  0.00000  1
 Si  Si1  1  0.66556  0.16556  0.33113  1
 Si  Si2  1  0.58444  0.58444  0.16887  1
 Si  Si3  1  0.83444  0.33444  0.66887  1
 Si  Si4  1  0.41556  0.41556  0.83113  1
