CIF file written using JARVIS-Tools package.
data_TaCrO4
_symmetry_space_group_name_H-M  'Cmmm'
_cell_length_a       4.63694
_cell_length_b       5.56247
_cell_length_c       4.63649
_cell_angle_alpha    89.246
_cell_angle_beta     90.9044
_cell_angle_gamma    146.471

_symmetry_Int_Tables_number  65
_chemical_formula_structural  TaCrO4
_chemical_formula_sum  TaCrO4
_cell_volume  66.04694329408711
_cell_formula_units_Z  1
loop_
  _symmetry_equiv_pos_site_id
 _symmetry_equiv_pos_as_xyz
 1  'x, y, z'
loop_
 _atom_site_type_symbol
 _atom_site_label
 _atom_site_symmetry_multiplicity
 _atom_site_fract_x
 _atom_site_fract_y
 _atom_site_fract_z
 _atom_site_fract_occupancy
 Cr  Cr1  1  0.50271  0.99998  0.50235  1
 O  O1  1  0.19950  -0.00001  0.80550  1
 O  O2  1  0.19769  0.49998  0.69742  1
 O  O3  1  0.80594  -0.00002  0.19922  1
 O  O4  1  0.80773  0.49997  0.30729  1
 Ta  Ta1  1  0.50273  0.50000  0.00235  1
