CIF file written using JARVIS-Tools package.
data_CaCuP2O7
_symmetry_space_group_name_H-M  'P2_1/c'
_cell_length_a       5.25098
_cell_length_b       8.06347
_cell_length_c       12.305
_cell_angle_alpha    90
_cell_angle_beta     91.1867
_cell_angle_gamma    90

_symmetry_Int_Tables_number  14
_chemical_formula_structural  CaCuP2O7
_chemical_formula_sum  Ca4Cu4P8O28
_cell_volume  520.8948739138967
_cell_formula_units_Z  4
loop_
  _symmetry_equiv_pos_site_id
 _symmetry_equiv_pos_as_xyz
 1  'x, y, z'
loop_
 _atom_site_type_symbol
 _atom_site_label
 _atom_site_symmetry_multiplicity
 _atom_site_fract_x
 _atom_site_fract_y
 _atom_site_fract_z
 _atom_site_fract_occupancy
 Ca  Ca1  1  0.78699  0.17975  0.77762  1
 Ca  Ca2  1  0.71301  0.67975  0.72238  1
 Ca  Ca3  1  0.28699  0.32025  0.27762  1
 Ca  Ca4  1  0.21301  0.82025  0.22238  1
 Cu  Cu1  1  0.79642  0.13944  0.11066  1
 Cu  Cu2  1  0.70358  0.63944  0.38934  1
 Cu  Cu3  1  0.20358  0.86056  0.88934  1
 Cu  Cu4  1  0.29642  0.36056  0.61066  1
 O  O1  1  0.59922  0.16585  0.96957  1
 O  O2  1  0.90078  0.66585  0.53043  1
 O  O3  1  0.40078  0.83415  0.03043  1
 O  O4  1  0.09922  0.33415  0.46957  1
 O  O5  1  0.96822  0.45951  0.79816  1
 O  O6  1  0.65114  0.39565  0.40039  1
 O  O7  1  0.53178  0.95951  0.70184  1
 O  O8  1  0.73728  0.60456  0.04180  1
 O  O9  1  0.26272  0.39544  0.95820  1
 O  O10  1  0.23728  0.89544  0.54180  1
 O  O11  1  0.21864  0.18032  0.10067  1
 O  O12  1  0.76272  0.10456  0.45820  1
 O  O13  1  0.65441  0.34977  0.15416  1
 O  O14  1  0.84559  0.84977  0.34584  1
 O  O15  1  0.34559  0.65023  0.84584  1
 O  O16  1  0.46822  0.04049  0.29816  1
 O  O17  1  0.28136  0.68032  0.39933  1
 O  O18  1  0.15114  0.10435  0.90039  1
 O  O19  1  0.15441  0.15023  0.65416  1
 O  O20  1  0.78136  0.81968  0.89933  1
 O  O21  1  0.34886  0.60435  0.59961  1
 O  O22  1  0.43167  0.37526  0.76800  1
 O  O23  1  0.06833  0.87526  0.73200  1
 O  O24  1  0.84886  0.89565  0.09961  1
 O  O25  1  0.93167  0.12474  0.26800  1
 O  O26  1  0.03178  0.54049  0.20184  1
 O  O27  1  0.71864  0.31968  0.60067  1
 O  O28  1  0.56833  0.62474  0.23200  1
 P  P1  1  0.81229  0.29899  0.48634  1
 P  P2  1  0.68771  0.79899  0.01366  1
 P  P3  1  0.18771  0.70101  0.51366  1
 P  P4  1  0.31229  0.20101  0.98634  1
 P  P5  1  0.24332  0.47342  0.83804  1
 P  P6  1  0.74332  0.02658  0.33804  1
 P  P7  1  0.75668  0.52658  0.16196  1
 P  P8  1  0.25668  0.97342  0.66196  1
