CIF file written using JARVIS-Tools package.
data_NaUO4
_symmetry_space_group_name_H-M  'R-3m'
_cell_length_a       3.98627
_cell_length_b       3.98627
_cell_length_c       6.32914
_cell_angle_alpha    71.6444
_cell_angle_beta     71.6444
_cell_angle_gamma    59.9999

_symmetry_Int_Tables_number  166
_chemical_formula_structural  NaUO4
_chemical_formula_sum  NaUO4
_cell_volume  81.13553615011875
_cell_formula_units_Z  1
loop_
  _symmetry_equiv_pos_site_id
 _symmetry_equiv_pos_as_xyz
 1  'x, y, z'
loop_
 _atom_site_type_symbol
 _atom_site_label
 _atom_site_symmetry_multiplicity
 _atom_site_fract_x
 _atom_site_fract_y
 _atom_site_fract_z
 _atom_site_fract_occupancy
 Na  Na1  1  0.50000  0.50000  0.50000  1
 O  O1  1  0.10690  0.10690  0.67930  1
 O  O2  1  0.89310  0.89310  0.32070  1
 O  O3  1  0.33803  0.33803  0.98591  1
 O  O4  1  0.66197  0.66197  0.01409  1
 U  U1  1  0.00000  0.00000  0.00000  1
