CIF file written using JARVIS-Tools package.
data_C
_symmetry_space_group_name_H-M  'R-3m'
_cell_length_a       7.01059
_cell_length_b       7.01059
_cell_length_c       7.01058
_cell_angle_alpha    20.2482
_cell_angle_beta     20.2483
_cell_angle_gamma    20.2483

_symmetry_Int_Tables_number  166
_chemical_formula_structural  C
_chemical_formula_sum  C4
_cell_volume  36.11304922844738
_cell_formula_units_Z  4
loop_
  _symmetry_equiv_pos_site_id
 _symmetry_equiv_pos_as_xyz
 1  'x, y, z'
loop_
 _atom_site_type_symbol
 _atom_site_label
 _atom_site_symmetry_multiplicity
 _atom_site_fract_x
 _atom_site_fract_y
 _atom_site_fract_z
 _atom_site_fract_occupancy
 C  C1  1  0.91904  0.91904  0.91904  1
 C  C2  1  0.25235  0.25235  0.25235  1
 C  C3  1  0.74765  0.74765  0.74765  1
 C  C4  1  0.08096  0.08096  0.08096  1
