CIF file written using JARVIS-Tools package.
data_VCr2Te4
_symmetry_space_group_name_H-M  'Cm'
_cell_length_a       7.32097
_cell_length_b       7.32097
_cell_length_c       6.92894
_cell_angle_alpha    63.418
_cell_angle_beta     63.418
_cell_angle_gamma    31.5567

_symmetry_Int_Tables_number  8
_chemical_formula_structural  VCr2Te4
_chemical_formula_sum  VCr2Te4
_cell_volume  172.0623669753024
_cell_formula_units_Z  1
loop_
  _symmetry_equiv_pos_site_id
 _symmetry_equiv_pos_as_xyz
 1  'x, y, z'
loop_
 _atom_site_type_symbol
 _atom_site_label
 _atom_site_symmetry_multiplicity
 _atom_site_fract_x
 _atom_site_fract_y
 _atom_site_fract_z
 _atom_site_fract_occupancy
 Cr  Cr1  1  0.25998  0.25998  0.71637  1
 Cr  Cr2  1  0.99892  0.99892  0.00028  1
 Te  Te1  1  0.88361  0.88361  0.45183  1
 Te  Te2  1  0.11733  0.11733  0.54882  1
 Te  Te3  1  0.63332  0.63332  0.02560  1
 Te  Te4  1  0.36590  0.36590  0.97310  1
 V  V1  1  0.74094  0.74094  0.28399  1
