CIF file written using JARVIS-Tools package.
data_CuNi
_symmetry_space_group_name_H-M  'R-3m'
_cell_length_a       4.37573
_cell_length_b       4.37573
_cell_length_c       4.37573
_cell_angle_alpha    33.3287
_cell_angle_beta     33.3287
_cell_angle_gamma    33.3288

_symmetry_Int_Tables_number  166
_chemical_formula_structural  CuNi
_chemical_formula_sum  CuNi
_cell_volume  22.520398960987556
_cell_formula_units_Z  1
loop_
  _symmetry_equiv_pos_site_id
 _symmetry_equiv_pos_as_xyz
 1  'x, y, z'
loop_
 _atom_site_type_symbol
 _atom_site_label
 _atom_site_symmetry_multiplicity
 _atom_site_fract_x
 _atom_site_fract_y
 _atom_site_fract_z
 _atom_site_fract_occupancy
 Cu  Cu1  1  0.00000  0.00000  0.00000  1
 Ni  Ni1  1  0.50000  0.50000  0.50000  1
