CIF file written using JARVIS-Tools package.
data_TmAu4
_symmetry_space_group_name_H-M  'I4/m'
_cell_length_a       4.17823
_cell_length_b       5.20736
_cell_length_c       5.20736
_cell_angle_alpha    80.738
_cell_angle_beta     66.3478
_cell_angle_gamma    66.3478

_symmetry_Int_Tables_number  87
_chemical_formula_structural  TmAu4
_chemical_formula_sum  TmAu4
_cell_volume  95.06405380787318
_cell_formula_units_Z  1
loop_
  _symmetry_equiv_pos_site_id
 _symmetry_equiv_pos_as_xyz
 1  'x, y, z'
loop_
 _atom_site_type_symbol
 _atom_site_label
 _atom_site_symmetry_multiplicity
 _atom_site_fract_x
 _atom_site_fract_y
 _atom_site_fract_z
 _atom_site_fract_occupancy
 Au  Au1  1  0.60048  0.59987  0.19917  1
 Au  Au2  1  0.39952  0.40013  0.80083  1
 Au  Au3  1  0.20035  0.19917  0.40013  1
 Au  Au4  1  0.79965  0.80083  0.59987  1
 Tm  Tm1  1  0.00000  0.00000  0.00000  1
