CIF file written using JARVIS-Tools package.
data_MgIn2Se4
_symmetry_space_group_name_H-M  'R-3m'
_cell_length_a       13.5354
_cell_length_b       13.5354
_cell_length_c       13.5354
_cell_angle_alpha    17.4534
_cell_angle_beta     17.4534
_cell_angle_gamma    17.4534

_symmetry_Int_Tables_number  166
_chemical_formula_structural  MgIn2Se4
_chemical_formula_sum  MgIn2Se4
_cell_volume  194.682659299621
_cell_formula_units_Z  1
loop_
  _symmetry_equiv_pos_site_id
 _symmetry_equiv_pos_as_xyz
 1  'x, y, z'
loop_
 _atom_site_type_symbol
 _atom_site_label
 _atom_site_symmetry_multiplicity
 _atom_site_fract_x
 _atom_site_fract_y
 _atom_site_fract_z
 _atom_site_fract_occupancy
 In  In1  1  0.76361  0.76361  0.76361  1
 In  In2  1  0.23639  0.23639  0.23639  1
 Mg  Mg1  1  0.00000  0.00000  0.00000  1
 Se  Se1  1  0.87212  0.87212  0.87212  1
 Se  Se2  1  0.70029  0.70029  0.70029  1
 Se  Se3  1  0.12788  0.12788  0.12788  1
 Se  Se4  1  0.29971  0.29971  0.29971  1
