CIF file written using JARVIS-Tools package.
data_BC5
_symmetry_space_group_name_H-M  'I-4m2'
_cell_length_a       2.51684
_cell_length_b       2.51684
_cell_length_c       5.97063
_cell_angle_alpha    102.167
_cell_angle_beta     102.167
_cell_angle_gamma    90

_symmetry_Int_Tables_number  119
_chemical_formula_structural  BC5
_chemical_formula_sum  BC5
_cell_volume  36.10166696057982
_cell_formula_units_Z  1
loop_
  _symmetry_equiv_pos_site_id
 _symmetry_equiv_pos_as_xyz
 1  'x, y, z'
loop_
 _atom_site_type_symbol
 _atom_site_label
 _atom_site_symmetry_multiplicity
 _atom_site_fract_x
 _atom_site_fract_y
 _atom_site_fract_z
 _atom_site_fract_occupancy
 B  B1  1  0.75000  0.25000  0.50000  1
 C  C1  1  0.84371  0.84371  0.68743  1
 C  C2  1  0.15629  0.15629  0.31257  1
 C  C3  1  0.50000  0.50000  0.00000  1
 C  C4  1  0.41990  0.91990  0.83980  1
 C  C5  1  0.08010  0.58010  0.16020  1
