CIF file written using JARVIS-Tools package.
data_TbMgNi
_symmetry_space_group_name_H-M  'Cmcm'
_cell_length_a       3.64842
_cell_length_b       3.9782
_cell_length_c       8.93189
_cell_angle_alpha    90
_cell_angle_beta     101.785
_cell_angle_gamma    90

_symmetry_Int_Tables_number  63
_chemical_formula_structural  TbMgNi
_chemical_formula_sum  Tb2Mg2Ni2
_cell_volume  126.90639959422256
_cell_formula_units_Z  2
loop_
  _symmetry_equiv_pos_site_id
 _symmetry_equiv_pos_as_xyz
 1  'x, y, z'
loop_
 _atom_site_type_symbol
 _atom_site_label
 _atom_site_symmetry_multiplicity
 _atom_site_fract_x
 _atom_site_fract_y
 _atom_site_fract_z
 _atom_site_fract_occupancy
 Mg  Mg1  1  0.79633  0.75000  0.59267  1
 Mg  Mg2  1  0.20367  0.25000  0.40733  1
 Ni  Ni1  1  0.95494  0.75000  0.90988  1
 Ni  Ni2  1  0.04506  0.25000  0.09012  1
 Tb  Tb1  1  0.58687  0.75000  0.17373  1
 Tb  Tb2  1  0.41313  0.25000  0.82627  1
