CIF file written using JARVIS-Tools package.
data_LaAgPb
_symmetry_space_group_name_H-M  'P6_3mc'
_cell_length_a       4.92373
_cell_length_b       4.92374
_cell_length_c       7.87712
_cell_angle_alpha    90
_cell_angle_beta     90
_cell_angle_gamma    120

_symmetry_Int_Tables_number  186
_chemical_formula_structural  LaAgPb
_chemical_formula_sum  La2Ag2Pb2
_cell_volume  165.38156645634982
_cell_formula_units_Z  2
loop_
  _symmetry_equiv_pos_site_id
 _symmetry_equiv_pos_as_xyz
 1  'x, y, z'
loop_
 _atom_site_type_symbol
 _atom_site_label
 _atom_site_symmetry_multiplicity
 _atom_site_fract_x
 _atom_site_fract_y
 _atom_site_fract_z
 _atom_site_fract_occupancy
 Ag  Ag1  1  0.66667  0.33333  0.31529  1
 Ag  Ag2  1  0.33333  0.66667  0.81529  1
 La  La1  1  0.00000  0.00000  0.01173  1
 La  La2  1  0.00000  0.00000  0.51173  1
 Pb  Pb1  1  0.33333  0.66667  0.22997  1
 Pb  Pb2  1  0.66667  0.33333  0.72997  1
