CIF file written using JARVIS-Tools package.
data_ThAlCo
_symmetry_space_group_name_H-M  'P-62m'
_cell_length_a       7.06712
_cell_length_b       7.06712
_cell_length_c       4.00946
_cell_angle_alpha    90
_cell_angle_beta     90
_cell_angle_gamma    120

_symmetry_Int_Tables_number  189
_chemical_formula_structural  ThAlCo
_chemical_formula_sum  Th3Al3Co3
_cell_volume  173.4211040570515
_cell_formula_units_Z  3
loop_
  _symmetry_equiv_pos_site_id
 _symmetry_equiv_pos_as_xyz
 1  'x, y, z'
loop_
 _atom_site_type_symbol
 _atom_site_label
 _atom_site_symmetry_multiplicity
 _atom_site_fract_x
 _atom_site_fract_y
 _atom_site_fract_z
 _atom_site_fract_occupancy
 Al  Al1  1  0.22627  -0.00000  0.50000  1
 Al  Al2  1  -0.00000  0.22627  0.50000  1
 Al  Al3  1  0.77373  0.77373  0.50000  1
 Co  Co1  1  0.33333  0.66667  0.50000  1
 Co  Co2  1  0.66667  0.33333  0.50000  1
 Co  Co3  1  0.00000  0.00000  0.00000  1
 Th  Th1  1  0.57984  0.00000  0.00000  1
 Th  Th2  1  0.00000  0.57984  0.00000  1
 Th  Th3  1  0.42016  0.42016  0.00000  1
