CIF file written using JARVIS-Tools package.
data_CeSi3Os
_symmetry_space_group_name_H-M  'I4mm'
_cell_length_a       4.23581
_cell_length_b       4.23581
_cell_length_c       5.83939
_cell_angle_alpha    111.266
_cell_angle_beta     111.266
_cell_angle_gamma    90

_symmetry_Int_Tables_number  107
_chemical_formula_structural  CeSi3Os
_chemical_formula_sum  CeSi3Os
_cell_volume  89.93873610675485
_cell_formula_units_Z  1
loop_
  _symmetry_equiv_pos_site_id
 _symmetry_equiv_pos_as_xyz
 1  'x, y, z'
loop_
 _atom_site_type_symbol
 _atom_site_label
 _atom_site_symmetry_multiplicity
 _atom_site_fract_x
 _atom_site_fract_y
 _atom_site_fract_z
 _atom_site_fract_occupancy
 Ce  Ce1  1  0.99684  0.99684  0.99368  1
 Os  Os1  1  0.65730  0.65730  0.31461  1
 Si  Si1  1  0.42305  0.42305  0.84610  1
 Si  Si2  1  0.76590  0.26590  0.53181  1
 Si  Si3  1  0.26590  0.76590  0.53181  1
