CIF file written using JARVIS-Tools package.
data_ZrTiNi2H6
_symmetry_space_group_name_H-M  'Amm2'
_cell_length_a       5.40817
_cell_length_b       5.40817
_cell_length_c       4.26305
_cell_angle_alpha    90
_cell_angle_beta     90
_cell_angle_gamma    143.134

_symmetry_Int_Tables_number  38
_chemical_formula_structural  ZrTiNi2H6
_chemical_formula_sum  ZrTiNi2H6
_cell_volume  74.80541035869587
_cell_formula_units_Z  1
loop_
  _symmetry_equiv_pos_site_id
 _symmetry_equiv_pos_as_xyz
 1  'x, y, z'
loop_
 _atom_site_type_symbol
 _atom_site_label
 _atom_site_symmetry_multiplicity
 _atom_site_fract_x
 _atom_site_fract_y
 _atom_site_fract_z
 _atom_site_fract_occupancy
 H  H1  1  0.69373  0.30627  0.74397  1
 H  H2  1  0.31619  0.68381  0.72794  1
 H  H3  1  0.69373  0.30627  0.25603  1
 H  H4  1  0.31619  0.68381  0.27206  1
 H  H5  1  0.05918  0.94082  0.50000  1
 H  H6  1  0.92702  0.07298  0.00000  1
 Ni  Ni1  1  0.56560  0.43440  0.50000  1
 Ni  Ni2  1  0.42819  0.57181  0.00000  1
 Ti  Ti1  1  0.85810  0.14190  0.50000  1
 Zr  Zr1  1  0.14208  0.85792  0.00000  1
