CIF file written using JARVIS-Tools package.
data_Mg3Cr
_symmetry_space_group_name_H-M  'P6_3/mmc'
_cell_length_a       6.17037
_cell_length_b       6.17036
_cell_length_c       4.93444
_cell_angle_alpha    90
_cell_angle_beta     90
_cell_angle_gamma    120

_symmetry_Int_Tables_number  194
_chemical_formula_structural  Mg3Cr
_chemical_formula_sum  Mg6Cr2
_cell_volume  162.70115791760796
_cell_formula_units_Z  2
loop_
  _symmetry_equiv_pos_site_id
 _symmetry_equiv_pos_as_xyz
 1  'x, y, z'
loop_
 _atom_site_type_symbol
 _atom_site_label
 _atom_site_symmetry_multiplicity
 _atom_site_fract_x
 _atom_site_fract_y
 _atom_site_fract_z
 _atom_site_fract_occupancy
 Cr  Cr1  1  0.66667  0.33333  0.25000  1
 Cr  Cr2  1  0.33333  0.66667  0.75000  1
 Mg  Mg1  1  0.17110  0.34220  0.25000  1
 Mg  Mg2  1  0.17110  0.82890  0.25000  1
 Mg  Mg3  1  0.65780  0.82890  0.25000  1
 Mg  Mg4  1  0.34220  0.17110  0.75000  1
 Mg  Mg5  1  0.82890  0.17110  0.75000  1
 Mg  Mg6  1  0.82890  0.65780  0.75000  1
