CIF file written using JARVIS-Tools package.
data_Rb2YHgBr6
_symmetry_space_group_name_H-M  'Fm-3m'
_cell_length_a       8.13215
_cell_length_b       8.13214
_cell_length_c       8.13215
_cell_angle_alpha    60
_cell_angle_beta     60
_cell_angle_gamma    60

_symmetry_Int_Tables_number  225
_chemical_formula_structural  Rb2YHgBr6
_chemical_formula_sum  Rb2YHgBr6
_cell_volume  380.2776564280926
_cell_formula_units_Z  1
loop_
  _symmetry_equiv_pos_site_id
 _symmetry_equiv_pos_as_xyz
 1  'x, y, z'
loop_
 _atom_site_type_symbol
 _atom_site_label
 _atom_site_symmetry_multiplicity
 _atom_site_fract_x
 _atom_site_fract_y
 _atom_site_fract_z
 _atom_site_fract_occupancy
 Br  Br1  1  0.75942  0.24058  0.24058  1
 Br  Br2  1  0.24058  0.24058  0.75942  1
 Br  Br3  1  0.24058  0.75942  0.75942  1
 Br  Br4  1  0.24058  0.75942  0.24058  1
 Br  Br5  1  0.75942  0.24058  0.75942  1
 Br  Br6  1  0.75942  0.75942  0.24058  1
 Hg  Hg1  1  0.50000  0.50000  0.50000  1
 Rb  Rb1  1  0.75000  0.75000  0.75000  1
 Rb  Rb2  1  0.25000  0.25000  0.25000  1
 Y  Y1  1  0.00000  0.00000  0.00000  1
