CIF file written using JARVIS-Tools package.
data_ZrTiPb2O6
_symmetry_space_group_name_H-M  'R3m'
_cell_length_a       5.80892
_cell_length_b       5.80892
_cell_length_c       5.80891
_cell_angle_alpha    59.4753
_cell_angle_beta     59.4753
_cell_angle_gamma    59.4753

_symmetry_Int_Tables_number  160
_chemical_formula_structural  ZrTiPb2O6
_chemical_formula_sum  ZrTiPb2O6
_cell_volume  136.9480898506644
_cell_formula_units_Z  1
loop_
  _symmetry_equiv_pos_site_id
 _symmetry_equiv_pos_as_xyz
 1  'x, y, z'
loop_
 _atom_site_type_symbol
 _atom_site_label
 _atom_site_symmetry_multiplicity
 _atom_site_fract_x
 _atom_site_fract_y
 _atom_site_fract_z
 _atom_site_fract_occupancy
 O  O1  1  0.74470  0.74470  0.24530  1
 O  O2  1  0.25955  0.25955  0.73048  1
 O  O3  1  0.24530  0.74470  0.74470  1
 O  O4  1  0.73048  0.25955  0.25955  1
 O  O5  1  0.74470  0.24530  0.74470  1
 O  O6  1  0.25955  0.73048  0.25955  1
 Pb  Pb1  1  0.77811  0.77811  0.77811  1
 Pb  Pb2  1  0.28050  0.28050  0.28050  1
 Ti  Ti1  1  0.51254  0.51254  0.51254  1
 Zr  Zr1  1  0.01237  0.01237  0.01237  1
