CIF file written using JARVIS-Tools package.
data_UPdSe3
_symmetry_space_group_name_H-M  'Pnma'
_cell_length_a       6.39972
_cell_length_b       7.82507
_cell_length_c       8.84193
_cell_angle_alpha    90
_cell_angle_beta     90
_cell_angle_gamma    90

_symmetry_Int_Tables_number  62
_chemical_formula_structural  UPdSe3
_chemical_formula_sum  U4Pd4Se2
_cell_volume  442.78825562197096
_cell_formula_units_Z  4
loop_
  _symmetry_equiv_pos_site_id
 _symmetry_equiv_pos_as_xyz
 1  'x, y, z'
loop_
 _atom_site_type_symbol
 _atom_site_label
 _atom_site_symmetry_multiplicity
 _atom_site_fract_x
 _atom_site_fract_y
 _atom_site_fract_z
 _atom_site_fract_occupancy
 Pd  Pd1  1  0.00000  0.00000  0.00000  1
 Pd  Pd2  1  0.00000  0.00000  0.50000  1
 Pd  Pd3  1  0.50000  0.50000  0.50000  1
 Pd  Pd4  1  0.50000  0.50000  0.00000  1
 Se  Se1  1  0.16192  0.34103  0.55825  1
 Se  Se2  1  0.33808  0.84103  0.94175  1
 Se  Se3  1  0.83808  0.65897  0.05825  1
 Se  Se4  1  0.66192  0.15897  0.05825  1
 Se  Se5  1  0.33808  0.84103  0.55825  1
 Se  Se6  1  0.16192  0.34103  0.94175  1
 Se  Se7  1  0.67863  0.43694  0.75000  1
 Se  Se8  1  0.83808  0.65897  0.44175  1
 Se  Se9  1  0.82137  0.93694  0.75000  1
 Se  Se10  1  0.17863  0.06306  0.25000  1
 Se  Se11  1  0.66192  0.15897  0.44175  1
 Se  Se12  1  0.32137  0.56306  0.25000  1
 U  U1  1  0.06524  0.63787  0.75000  1
 U  U2  1  0.56524  0.86213  0.25000  1
 U  U3  1  0.43476  0.13787  0.75000  1
 U  U4  1  0.93476  0.36213  0.25000  1
