CIF file written using JARVIS-Tools package.
data_CeSe2
_symmetry_space_group_name_H-M  'Pnnm'
_cell_length_a       4.33255
_cell_length_b       6.466
_cell_length_c       6.55709
_cell_angle_alpha    90
_cell_angle_beta     90
_cell_angle_gamma    90

_symmetry_Int_Tables_number  58
_chemical_formula_structural  CeSe2
_chemical_formula_sum  Ce2Se4
_cell_volume  183.69190053294938
_cell_formula_units_Z  2
loop_
  _symmetry_equiv_pos_site_id
 _symmetry_equiv_pos_as_xyz
 1  'x, y, z'
loop_
 _atom_site_type_symbol
 _atom_site_label
 _atom_site_symmetry_multiplicity
 _atom_site_fract_x
 _atom_site_fract_y
 _atom_site_fract_z
 _atom_site_fract_occupancy
 Ce  Ce1  1  0.50000  0.50000  0.50000  1
 Ce  Ce2  1  0.00000  0.00000  0.00000  1
 Se  Se1  1  0.50000  0.75128  0.13782  1
 Se  Se2  1  0.50000  0.24872  0.86218  1
 Se  Se3  1  0.00000  0.25128  0.36218  1
 Se  Se4  1  0.00000  0.74872  0.63782  1
