CIF file written using JARVIS-Tools package.
data_ErAgP2Se6
_symmetry_space_group_name_H-M  'P-31c'
_cell_length_a       6.61475
_cell_length_b       6.61475
_cell_length_c       13.4965
_cell_angle_alpha    90
_cell_angle_beta     90
_cell_angle_gamma    120

_symmetry_Int_Tables_number  163
_chemical_formula_structural  ErAgP2Se6
_chemical_formula_sum  Er2Ag2P4Se2
_cell_volume  511.42045966530776
_cell_formula_units_Z  2
loop_
  _symmetry_equiv_pos_site_id
 _symmetry_equiv_pos_as_xyz
 1  'x, y, z'
loop_
 _atom_site_type_symbol
 _atom_site_label
 _atom_site_symmetry_multiplicity
 _atom_site_fract_x
 _atom_site_fract_y
 _atom_site_fract_z
 _atom_site_fract_occupancy
 Ag  Ag1  1  0.33333  0.66667  0.25000  1
 Ag  Ag2  1  0.66667  0.33333  0.75000  1
 Er  Er1  1  0.00000  0.00000  0.25000  1
 Er  Er2  1  0.00000  0.00000  0.75000  1
 P  P1  1  0.66667  0.33333  0.33477  1
 P  P2  1  0.66667  0.33333  0.16523  1
 P  P3  1  0.33333  0.66667  0.66523  1
 P  P4  1  0.33333  0.66667  0.83477  1
 Se  Se1  1  0.01918  0.67813  0.88406  1
 Se  Se2  1  0.67813  0.01918  0.38406  1
 Se  Se3  1  0.32187  0.34104  0.88406  1
 Se  Se4  1  0.65896  0.67813  0.61594  1
 Se  Se5  1  0.65896  0.98082  0.88406  1
 Se  Se6  1  0.67813  0.65896  0.11594  1
 Se  Se7  1  0.98082  0.32187  0.11594  1
 Se  Se8  1  0.34104  0.01918  0.11594  1
 Se  Se9  1  0.32187  0.98082  0.61594  1
 Se  Se10  1  0.34104  0.32187  0.38406  1
 Se  Se11  1  0.01918  0.34104  0.61594  1
 Se  Se12  1  0.98082  0.65896  0.38406  1
