CIF file written using JARVIS-Tools package.
data_BaH2O2
_symmetry_space_group_name_H-M  'P2_1/c'
_cell_length_a       9.06096
_cell_length_b       8.10267
_cell_length_c       6.94441
_cell_angle_alpha    90
_cell_angle_beta     96.3746
_cell_angle_gamma    90

_symmetry_Int_Tables_number  14
_chemical_formula_structural  BaH2O2
_chemical_formula_sum  Ba8H6O6
_cell_volume  506.6913686957484
_cell_formula_units_Z  8
loop_
  _symmetry_equiv_pos_site_id
 _symmetry_equiv_pos_as_xyz
 1  'x, y, z'
loop_
 _atom_site_type_symbol
 _atom_site_label
 _atom_site_symmetry_multiplicity
 _atom_site_fract_x
 _atom_site_fract_y
 _atom_site_fract_z
 _atom_site_fract_occupancy
 Ba  Ba1  1  0.89909  0.12525  0.25665  1
 Ba  Ba2  1  0.39909  0.37475  0.75665  1
 Ba  Ba3  1  0.10091  0.87475  0.74335  1
 Ba  Ba4  1  0.60091  0.62525  0.24335  1
 Ba  Ba5  1  0.33412  0.03107  0.24707  1
 Ba  Ba6  1  0.83412  0.46893  0.74707  1
 Ba  Ba7  1  0.66588  0.96893  0.75293  1
 Ba  Ba8  1  0.16588  0.53107  0.25293  1
 H  H1  1  0.46909  0.34067  0.27963  1
 H  H2  1  0.70716  0.90249  0.39413  1
 H  H3  1  0.20716  0.59751  0.89413  1
 H  H4  1  0.29284  0.09751  0.60587  1
 H  H5  1  0.03091  0.84067  0.22037  1
 H  H6  1  0.53091  0.65933  0.72037  1
 H  H7  1  0.96909  0.15933  0.77963  1
 H  H8  1  0.79284  0.40249  0.10587  1
 H  H9  1  0.87075  0.73111  0.05116  1
 H  H10  1  0.37075  0.76889  0.55116  1
 H  H11  1  0.12925  0.26889  0.94884  1
 H  H12  1  0.40339  0.74162  0.94092  1
 H  H13  1  0.90339  0.75838  0.44092  1
 H  H14  1  0.59661  0.25838  0.05908  1
 H  H15  1  0.09661  0.24162  0.55908  1
 H  H16  1  0.62925  0.23111  0.44884  1
 O  O1  1  0.67583  0.24856  0.97298  1
 O  O2  1  0.62960  0.97816  0.33256  1
 O  O3  1  0.12960  0.52184  0.83256  1
 O  O4  1  0.37040  0.02184  0.66744  1
 O  O5  1  0.09081  0.85016  0.34965  1
 O  O6  1  0.59081  0.64984  0.84965  1
 O  O7  1  0.87040  0.47816  0.16744  1
 O  O8  1  0.10188  0.15737  0.98760  1
 O  O9  1  0.89812  0.84263  0.01240  1
 O  O10  1  0.39812  0.65737  0.51240  1
 O  O11  1  0.60188  0.34263  0.48760  1
 O  O12  1  0.32417  0.75144  0.02702  1
 O  O13  1  0.82417  0.74856  0.52702  1
 O  O14  1  0.90919  0.14984  0.65035  1
 O  O15  1  0.40919  0.35016  0.15035  1
 O  O16  1  0.17583  0.25144  0.47298  1
