CIF file written using JARVIS-Tools package.
data_Tl3VO4
_symmetry_space_group_name_H-M  'Imm2'
_cell_length_a       6.03171
_cell_length_b       6.03171
_cell_length_c       6.03171
_cell_angle_alpha    120.902
_cell_angle_beta     115.764
_cell_angle_gamma    92.967

_symmetry_Int_Tables_number  44
_chemical_formula_structural  Tl3VO4
_chemical_formula_sum  Tl3VO4
_cell_volume  158.4737486591229
_cell_formula_units_Z  1
loop_
  _symmetry_equiv_pos_site_id
 _symmetry_equiv_pos_as_xyz
 1  'x, y, z'
loop_
 _atom_site_type_symbol
 _atom_site_label
 _atom_site_symmetry_multiplicity
 _atom_site_fract_x
 _atom_site_fract_y
 _atom_site_fract_z
 _atom_site_fract_occupancy
 O  O1  1  0.83224  0.67234  0.15990  1
 O  O2  1  0.48757  0.32766  0.15990  1
 O  O3  1  0.35631  0.25607  0.61238  1
 O  O4  1  0.35631  0.74393  0.10024  1
 Tl  Tl1  1  0.76779  0.23367  0.53412  1
 Tl  Tl2  1  0.04237  0.00000  0.04237  1
 Tl  Tl3  1  0.30045  0.76633  0.53412  1
 V  V1  1  0.50796  0.50000  0.00796  1
