CIF file written using JARVIS-Tools package.
data_H3ClO5
_symmetry_space_group_name_H-M  'Pnma'
_cell_length_a       8.95154
_cell_length_b       5.76956
_cell_length_c       6.88097
_cell_angle_alpha    90
_cell_angle_beta     90
_cell_angle_gamma    90

_symmetry_Int_Tables_number  62
_chemical_formula_structural  H3ClO5
_chemical_formula_sum  H2Cl4O20
_cell_volume  355.37770736282306
_cell_formula_units_Z  4
loop_
  _symmetry_equiv_pos_site_id
 _symmetry_equiv_pos_as_xyz
 1  'x, y, z'
loop_
 _atom_site_type_symbol
 _atom_site_label
 _atom_site_symmetry_multiplicity
 _atom_site_fract_x
 _atom_site_fract_y
 _atom_site_fract_z
 _atom_site_fract_occupancy
 Cl  Cl1  1  0.56124  0.75000  0.81563  1
 Cl  Cl2  1  0.43876  0.25000  0.18437  1
 Cl  Cl3  1  0.93876  0.25000  0.31563  1
 Cl  Cl4  1  0.06124  0.75000  0.68437  1
 H  H1  1  0.68170  0.75000  0.17483  1
 H  H2  1  0.60102  0.75000  0.40601  1
 H  H3  1  0.18170  0.75000  0.32517  1
 H  H4  1  0.10102  0.75000  0.09399  1
 H  H5  1  0.21123  0.25000  0.61033  1
 H  H6  1  0.31830  0.25000  0.82517  1
 H  H7  1  0.89898  0.25000  0.90601  1
 H  H8  1  0.81830  0.25000  0.67483  1
 H  H9  1  0.28877  0.75000  0.11033  1
 H  H10  1  0.78877  0.75000  0.38967  1
 H  H11  1  0.71123  0.25000  0.88967  1
 H  H12  1  0.39898  0.25000  0.59399  1
 O  O1  1  0.42105  0.75000  0.92152  1
 O  O2  1  0.81284  0.25000  0.45388  1
 O  O3  1  0.19036  0.75000  0.17622  1
 O  O4  1  0.18716  0.75000  0.54612  1
 O  O5  1  0.68716  0.75000  0.95388  1
 O  O6  1  0.07895  0.25000  0.42152  1
 O  O7  1  0.57895  0.25000  0.07848  1
 O  O8  1  0.92105  0.75000  0.57848  1
 O  O9  1  0.31284  0.25000  0.04612  1
 O  O10  1  0.30964  0.25000  0.67622  1
 O  O11  1  0.57185  0.95442  0.69410  1
 O  O12  1  0.07185  0.95442  0.80590  1
 O  O13  1  0.57185  0.54558  0.69410  1
 O  O14  1  0.92815  0.45442  0.19410  1
 O  O15  1  0.42815  0.04558  0.30590  1
 O  O16  1  0.80964  0.25000  0.82378  1
 O  O17  1  0.92815  0.04558  0.19410  1
 O  O18  1  0.07185  0.54558  0.80590  1
 O  O19  1  0.42815  0.45442  0.30590  1
 O  O20  1  0.69036  0.75000  0.32378  1
