CIF file written using JARVIS-Tools package.
data_Al2ZnS4
_symmetry_space_group_name_H-M  'P3m1'
_cell_length_a       3.68389
_cell_length_b       3.68389
_cell_length_c       11.8244
_cell_angle_alpha    90
_cell_angle_beta     90
_cell_angle_gamma    120

_symmetry_Int_Tables_number  156
_chemical_formula_structural  Al2ZnS4
_chemical_formula_sum  Al2ZnS4
_cell_volume  138.97066174511485
_cell_formula_units_Z  1
loop_
  _symmetry_equiv_pos_site_id
 _symmetry_equiv_pos_as_xyz
 1  'x, y, z'
loop_
 _atom_site_type_symbol
 _atom_site_label
 _atom_site_symmetry_multiplicity
 _atom_site_fract_x
 _atom_site_fract_y
 _atom_site_fract_z
 _atom_site_fract_occupancy
 Al  Al1  1  0.66664  0.33332  0.92441  1
 Al  Al2  1  0.33333  0.66666  0.61557  1
 S  S1  1  0.99997  0.99999  0.99731  1
 S  S2  1  -0.00001  -0.00000  0.51920  1
 S  S3  1  0.66665  0.33333  0.73408  1
 S  S4  1  0.66664  0.33332  0.23941  1
 Zn  Zn1  1  0.99997  0.99999  0.30203  1
