CIF file written using JARVIS-Tools package.
data_Ta2CrSi6
_symmetry_space_group_name_H-M  'C222'
_cell_length_a       4.76806
_cell_length_b       4.76806
_cell_length_c       6.52597
_cell_angle_alpha    90
_cell_angle_beta     90
_cell_angle_gamma    121.094

_symmetry_Int_Tables_number  21
_chemical_formula_structural  Ta2CrSi6
_chemical_formula_sum  Ta2CrSi6
_cell_volume  127.04688798200287
_cell_formula_units_Z  1
loop_
  _symmetry_equiv_pos_site_id
 _symmetry_equiv_pos_as_xyz
 1  'x, y, z'
loop_
 _atom_site_type_symbol
 _atom_site_label
 _atom_site_symmetry_multiplicity
 _atom_site_fract_x
 _atom_site_fract_y
 _atom_site_fract_z
 _atom_site_fract_occupancy
 Cr  Cr1  1  0.50000  0.50000  0.00000  1
 Si  Si1  1  0.15967  0.84033  0.00000  1
 Si  Si2  1  0.16986  0.32380  0.67514  1
 Si  Si3  1  0.67620  0.83014  0.32486  1
 Si  Si4  1  0.84033  0.15967  0.00000  1
 Si  Si5  1  0.83014  0.67620  0.67514  1
 Si  Si6  1  0.32380  0.16986  0.32486  1
 Ta  Ta1  1  0.50000  -0.00000  0.66394  1
 Ta  Ta2  1  0.00000  0.50000  0.33606  1
