CIF file written using JARVIS-Tools package.
data_Li2Si2WO7
_symmetry_space_group_name_H-M  'P-1'
_cell_length_a       5.35203
_cell_length_b       6.06914
_cell_length_c       8.68179
_cell_angle_alpha    71.7412
_cell_angle_beta     87.1037
_cell_angle_gamma    85.2039

_symmetry_Int_Tables_number  2
_chemical_formula_structural  Li2Si2WO7
_chemical_formula_sum  Li4Si4W2O4
_cell_volume  266.78009423740605
_cell_formula_units_Z  2
loop_
  _symmetry_equiv_pos_site_id
 _symmetry_equiv_pos_as_xyz
 1  'x, y, z'
loop_
 _atom_site_type_symbol
 _atom_site_label
 _atom_site_symmetry_multiplicity
 _atom_site_fract_x
 _atom_site_fract_y
 _atom_site_fract_z
 _atom_site_fract_occupancy
 Li  Li1  1  0.30478  0.94414  0.14992  1
 Li  Li2  1  0.21657  0.80786  0.52759  1
 Li  Li3  1  0.78343  0.19214  0.47241  1
 Li  Li4  1  0.69522  0.05586  0.85008  1
 O  O1  1  0.60163  0.31998  0.63997  1
 O  O2  1  0.89823  0.51957  0.34536  1
 O  O3  1  0.77170  0.31509  0.92980  1
 O  O4  1  0.71215  0.93251  0.15971  1
 O  O5  1  0.76463  0.84037  0.49088  1
 O  O6  1  0.10177  0.48043  0.65464  1
 O  O7  1  0.92377  0.81273  0.80731  1
 O  O8  1  0.07623  0.18727  0.19269  1
 O  O9  1  0.58140  0.30829  0.23060  1
 O  O10  1  0.28785  0.06749  0.84029  1
 O  O11  1  0.41860  0.69171  0.76940  1
 O  O12  1  0.22830  0.68491  0.07020  1
 O  O13  1  0.23537  0.15963  0.50912  1
 O  O14  1  0.39837  0.68002  0.36003  1
 Si  Si1  1  0.30307  0.26532  0.65532  1
 Si  Si2  1  0.79277  0.20522  0.12495  1
 Si  Si3  1  0.20723  0.79478  0.87505  1
 Si  Si4  1  0.69693  0.73468  0.34468  1
 W  W1  1  0.24050  0.42292  0.28088  1
 W  W2  1  0.75950  0.57708  0.71912  1
