CIF file written using JARVIS-Tools package.
data_Ho2S3
_symmetry_space_group_name_H-M  'Pnma'
_cell_length_a       3.84058
_cell_length_b       10.41
_cell_length_c       10.5815
_cell_angle_alpha    90
_cell_angle_beta     90
_cell_angle_gamma    90

_symmetry_Int_Tables_number  62
_chemical_formula_structural  Ho2S3
_chemical_formula_sum  Ho8S2
_cell_volume  423.0491609172068
_cell_formula_units_Z  4
loop_
  _symmetry_equiv_pos_site_id
 _symmetry_equiv_pos_as_xyz
 1  'x, y, z'
loop_
 _atom_site_type_symbol
 _atom_site_label
 _atom_site_symmetry_multiplicity
 _atom_site_fract_x
 _atom_site_fract_y
 _atom_site_fract_z
 _atom_site_fract_occupancy
 Ho  Ho1  1  0.25000  0.31302  0.98910  1
 Ho  Ho2  1  0.75000  0.81302  0.51090  1
 Ho  Ho3  1  0.25000  0.18698  0.48910  1
 Ho  Ho4  1  0.25000  0.50320  0.30742  1
 Ho  Ho5  1  0.75000  0.49680  0.69258  1
 Ho  Ho6  1  0.75000  0.00320  0.19258  1
 Ho  Ho7  1  0.25000  0.99680  0.80742  1
 Ho  Ho8  1  0.75000  0.68698  0.01090  1
 S  S1  1  0.75000  0.69640  0.27265  1
 S  S2  1  0.75000  0.80360  0.77265  1
 S  S3  1  0.25000  0.19640  0.22735  1
 S  S4  1  0.25000  0.94426  0.38087  1
 S  S5  1  0.75000  0.05574  0.61913  1
 S  S6  1  0.75000  0.37359  0.45416  1
 S  S7  1  0.25000  0.55574  0.88087  1
 S  S8  1  0.25000  0.30360  0.72735  1
 S  S9  1  0.25000  0.87359  0.04584  1
 S  S10  1  0.25000  0.62641  0.54584  1
 S  S11  1  0.75000  0.44426  0.11913  1
 S  S12  1  0.75000  0.12641  0.95416  1
