CIF file written using JARVIS-Tools package.
data_CoCu2GeS4
_symmetry_space_group_name_H-M  'I-42m'
_cell_length_a       5.27242
_cell_length_b       5.2724
_cell_length_c       6.46324
_cell_angle_alpha    114.074
_cell_angle_beta     114.075
_cell_angle_gamma    90.0022

_symmetry_Int_Tables_number  121
_chemical_formula_structural  CoCu2GeS4
_chemical_formula_sum  CoCu2GeS4
_cell_volume  146.7547047559137
_cell_formula_units_Z  1
loop_
  _symmetry_equiv_pos_site_id
 _symmetry_equiv_pos_as_xyz
 1  'x, y, z'
loop_
 _atom_site_type_symbol
 _atom_site_label
 _atom_site_symmetry_multiplicity
 _atom_site_fract_x
 _atom_site_fract_y
 _atom_site_fract_z
 _atom_site_fract_occupancy
 Co  Co1  1  0.99998  0.99998  0.99999  1
 Cu  Cu1  1  0.25000  0.74999  0.49999  1
 Cu  Cu2  1  0.74999  0.25000  0.50000  1
 Ge  Ge1  1  0.50000  0.50000  0.00001  1
 S  S1  1  0.63101  0.12007  0.75106  1
 S  S2  1  0.12007  0.63100  0.75105  1
 S  S3  1  0.36901  0.36901  0.24895  1
 S  S4  1  0.87995  0.87995  0.24896  1
