CIF file written using JARVIS-Tools package.
data_Li2PdO2
_symmetry_space_group_name_H-M  'Immm'
_cell_length_a       3.01959
_cell_length_b       3.73557
_cell_length_c       5.1989
_cell_angle_alpha    111.056
_cell_angle_beta     106.881
_cell_angle_gamma    90.0005

_symmetry_Int_Tables_number  71
_chemical_formula_structural  Li2PdO2
_chemical_formula_sum  Li2PdO2
_cell_volume  52.010217297738016
_cell_formula_units_Z  1
loop_
  _symmetry_equiv_pos_site_id
 _symmetry_equiv_pos_as_xyz
 1  'x, y, z'
loop_
 _atom_site_type_symbol
 _atom_site_label
 _atom_site_symmetry_multiplicity
 _atom_site_fract_x
 _atom_site_fract_y
 _atom_site_fract_z
 _atom_site_fract_occupancy
 Li  Li1  1  0.69977  0.69976  0.39952  1
 Li  Li2  1  0.30023  0.30024  0.60048  1
 O  O1  1  0.65107  0.15107  0.30216  1
 O  O2  1  0.34893  0.84893  0.69784  1
 Pd  Pd1  1  0.00000  0.00000  0.00000  1
