CIF file written using JARVIS-Tools package.
data_BaB2Rh2
_symmetry_space_group_name_H-M  'I4/mmm'
_cell_length_a       3.92781
_cell_length_b       3.92782
_cell_length_c       6.35439
_cell_angle_alpha    108.003
_cell_angle_beta     108.003
_cell_angle_gamma    90

_symmetry_Int_Tables_number  139
_chemical_formula_structural  BaB2Rh2
_chemical_formula_sum  BaB2Rh2
_cell_volume  88.17379617206679
_cell_formula_units_Z  1
loop_
  _symmetry_equiv_pos_site_id
 _symmetry_equiv_pos_as_xyz
 1  'x, y, z'
loop_
 _atom_site_type_symbol
 _atom_site_label
 _atom_site_symmetry_multiplicity
 _atom_site_fract_x
 _atom_site_fract_y
 _atom_site_fract_z
 _atom_site_fract_occupancy
 B  B1  1  0.68127  0.68127  0.36254  1
 B  B2  1  0.31873  0.31873  0.63746  1
 Ba  Ba1  1  0.00000  0.00000  0.00000  1
 Rh  Rh1  1  0.25000  0.75000  0.50000  1
 Rh  Rh2  1  0.75000  0.25000  0.50000  1
