CIF file written using JARVIS-Tools package.
data_Li2VO2F
_symmetry_space_group_name_H-M  'P2_1/m'
_cell_length_a       5.09362
_cell_length_b       2.87932
_cell_length_c       7.20148
_cell_angle_alpha    90
_cell_angle_beta     89.2507
_cell_angle_gamma    90

_symmetry_Int_Tables_number  11
_chemical_formula_structural  Li2VO2F
_chemical_formula_sum  Li4V2O4F2
_cell_volume  105.60929704067951
_cell_formula_units_Z  2
loop_
  _symmetry_equiv_pos_site_id
 _symmetry_equiv_pos_as_xyz
 1  'x, y, z'
loop_
 _atom_site_type_symbol
 _atom_site_label
 _atom_site_symmetry_multiplicity
 _atom_site_fract_x
 _atom_site_fract_y
 _atom_site_fract_z
 _atom_site_fract_occupancy
 F  F1  1  0.41074  0.75000  0.66597  1
 F  F2  1  0.58926  0.25000  0.33403  1
 Li  Li1  1  0.58130  0.25000  0.83857  1
 Li  Li2  1  0.23646  0.25000  0.48745  1
 Li  Li3  1  0.41870  0.75000  0.16143  1
 Li  Li4  1  0.76354  0.75000  0.51255  1
 O  O1  1  0.24104  0.25000  0.99238  1
 O  O2  1  0.75896  0.75000  0.00762  1
 O  O3  1  0.07642  0.75000  0.32391  1
 O  O4  1  0.92358  0.25000  0.67609  1
 V  V1  1  0.06399  0.75000  0.83268  1
 V  V2  1  0.93601  0.25000  0.16732  1
