CIF file written using JARVIS-Tools package.
data_In3Pt2
_symmetry_space_group_name_H-M  'P-3m1'
_cell_length_a       4.61263
_cell_length_b       4.61266
_cell_length_c       5.64559
_cell_angle_alpha    90
_cell_angle_beta     90.0009
_cell_angle_gamma    120

_symmetry_Int_Tables_number  164
_chemical_formula_structural  In3Pt2
_chemical_formula_sum  In3Pt2
_cell_volume  104.02531297006601
_cell_formula_units_Z  1
loop_
  _symmetry_equiv_pos_site_id
 _symmetry_equiv_pos_as_xyz
 1  'x, y, z'
loop_
 _atom_site_type_symbol
 _atom_site_label
 _atom_site_symmetry_multiplicity
 _atom_site_fract_x
 _atom_site_fract_y
 _atom_site_fract_z
 _atom_site_fract_occupancy
 In  In1  1  0.00000  0.00000  0.00000  1
 In  In2  1  0.33334  0.66667  0.65275  1
 In  In3  1  0.66666  0.33333  0.34725  1
 Pt  Pt1  1  0.33333  0.66667  0.16769  1
 Pt  Pt2  1  0.66667  0.33333  0.83231  1
