CIF file written using JARVIS-Tools package.
data_LuZn2
_symmetry_space_group_name_H-M  'Imma'
_cell_length_a       4.39394
_cell_length_b       5.54275
_cell_length_c       5.54275
_cell_angle_alpha    76.0378
_cell_angle_beta     66.6487
_cell_angle_gamma    66.6487

_symmetry_Int_Tables_number  74
_chemical_formula_structural  LuZn2
_chemical_formula_sum  Lu2Zn4
_cell_volume  113.214334113474
_cell_formula_units_Z  2
loop_
  _symmetry_equiv_pos_site_id
 _symmetry_equiv_pos_as_xyz
 1  'x, y, z'
loop_
 _atom_site_type_symbol
 _atom_site_label
 _atom_site_symmetry_multiplicity
 _atom_site_fract_x
 _atom_site_fract_y
 _atom_site_fract_z
 _atom_site_fract_occupancy
 Lu  Lu1  1  0.47722  0.27278  0.77278  1
 Lu  Lu2  1  0.52278  0.72722  0.22722  1
 Zn  Zn1  1  0.83392  0.13284  0.19932  1
 Zn  Zn2  1  0.16608  0.86716  0.80068  1
 Zn  Zn3  1  0.83392  0.69932  0.63284  1
 Zn  Zn4  1  0.16608  0.30068  0.36716  1
