CIF file written using JARVIS-Tools package.
data_NaZnN
_symmetry_space_group_name_H-M  'P6_3mc'
_cell_length_a       3.44354
_cell_length_b       3.4435
_cell_length_c       8.54164
_cell_angle_alpha    90
_cell_angle_beta     90
_cell_angle_gamma    120

_symmetry_Int_Tables_number  186
_chemical_formula_structural  NaZnN
_chemical_formula_sum  Na2Zn2N2
_cell_volume  87.71544864590587
_cell_formula_units_Z  2
loop_
  _symmetry_equiv_pos_site_id
 _symmetry_equiv_pos_as_xyz
 1  'x, y, z'
loop_
 _atom_site_type_symbol
 _atom_site_label
 _atom_site_symmetry_multiplicity
 _atom_site_fract_x
 _atom_site_fract_y
 _atom_site_fract_z
 _atom_site_fract_occupancy
 N  N1  1  0.33333  0.66667  0.55407  1
 N  N2  1  0.66667  0.33333  0.05407  1
 Na  Na1  1  0.66666  0.33332  0.76043  1
 Na  Na2  1  0.33334  0.66668  0.26043  1
 Zn  Zn1  1  0.00000  0.00000  0.53014  1
 Zn  Zn2  1  -0.00000  -0.00000  0.03014  1
