CIF file written using JARVIS-Tools package.
data_CuGeI3
_symmetry_space_group_name_H-M  'Cm'
_cell_length_a       7.66757
_cell_length_b       4.27376
_cell_length_c       7.24063
_cell_angle_alpha    106.627
_cell_angle_beta     121.971
_cell_angle_gamma    57.2878

_symmetry_Int_Tables_number  8
_chemical_formula_structural  CuGeI3
_chemical_formula_sum  CuGeI3
_cell_volume  169.357532528638
_cell_formula_units_Z  1
loop_
  _symmetry_equiv_pos_site_id
 _symmetry_equiv_pos_as_xyz
 1  'x, y, z'
loop_
 _atom_site_type_symbol
 _atom_site_label
 _atom_site_symmetry_multiplicity
 _atom_site_fract_x
 _atom_site_fract_y
 _atom_site_fract_z
 _atom_site_fract_occupancy
 Cu  Cu1  1  0.10779  0.19605  -0.00000  1
 Ge  Ge1  1  0.80589  -0.00730  -0.00000  1
 I  I1  1  0.34453  0.46268  0.00000  1
 I  I2  1  0.03154  0.41829  0.34529  1
 I  I3  1  0.68625  0.41829  0.65471  1
