CIF file written using JARVIS-Tools package.
data_SmYCo2Ni2
_symmetry_space_group_name_H-M  'Imm2'
_cell_length_a       5.10119
_cell_length_b       5.1012
_cell_length_c       5.10119
_cell_angle_alpha    121.67
_cell_angle_beta     119.945
_cell_angle_gamma    88.6132

_symmetry_Int_Tables_number  44
_chemical_formula_structural  SmYCo2Ni2
_chemical_formula_sum  SmYCo2Ni2
_cell_volume  92.6617799973352
_cell_formula_units_Z  1
loop_
  _symmetry_equiv_pos_site_id
 _symmetry_equiv_pos_as_xyz
 1  'x, y, z'
loop_
 _atom_site_type_symbol
 _atom_site_label
 _atom_site_symmetry_multiplicity
 _atom_site_fract_x
 _atom_site_fract_y
 _atom_site_fract_z
 _atom_site_fract_occupancy
 Co  Co1  1  0.37484  0.12467  0.74983  1
 Co  Co2  1  0.37484  0.62501  0.25017  1
 Ni  Ni1  1  0.37437  0.62518  0.74920  1
 Ni  Ni2  1  0.87598  0.62518  0.25080  1
 Sm  Sm1  1  0.74720  0.24720  0.50000  1
 Y  Y1  1  0.00277  0.00277  0.00000  1
