CIF file written using JARVIS-Tools package.
data_Na3VS3O
_symmetry_space_group_name_H-M  'Pnma'
_cell_length_a       5.9057
_cell_length_b       9.64033
_cell_length_c       11.8445
_cell_angle_alpha    90
_cell_angle_beta     90
_cell_angle_gamma    90

_symmetry_Int_Tables_number  62
_chemical_formula_structural  Na3VS3O
_chemical_formula_sum  Na2V4S2O4
_cell_volume  674.3412201323392
_cell_formula_units_Z  4
loop_
  _symmetry_equiv_pos_site_id
 _symmetry_equiv_pos_as_xyz
 1  'x, y, z'
loop_
 _atom_site_type_symbol
 _atom_site_label
 _atom_site_symmetry_multiplicity
 _atom_site_fract_x
 _atom_site_fract_y
 _atom_site_fract_z
 _atom_site_fract_occupancy
 Na  Na1  1  0.24908  0.45604  0.13028  1
 Na  Na2  1  0.23398  0.75000  0.36961  1
 Na  Na3  1  0.25092  0.95604  0.63028  1
 Na  Na4  1  0.74908  0.04396  0.36972  1
 Na  Na5  1  0.26602  0.25000  0.86961  1
 Na  Na6  1  0.24908  0.04396  0.13028  1
 Na  Na7  1  0.25092  0.54396  0.63028  1
 Na  Na8  1  0.73398  0.75000  0.13039  1
 Na  Na9  1  0.74908  0.45604  0.36972  1
 Na  Na10  1  0.75092  0.95604  0.86972  1
 Na  Na11  1  0.76602  0.25000  0.63039  1
 Na  Na12  1  0.75092  0.54396  0.86972  1
 O  O1  1  0.62987  0.25000  0.44722  1
 O  O2  1  0.87013  0.75000  0.94722  1
 O  O3  1  0.37013  0.75000  0.55278  1
 O  O4  1  0.12987  0.25000  0.05278  1
 S  S1  1  0.74988  0.75000  0.36785  1
 S  S2  1  0.27224  0.55917  0.87389  1
 S  S3  1  0.27224  0.94083  0.87389  1
 S  S4  1  0.77224  0.94083  0.62611  1
 S  S5  1  0.72776  0.05917  0.12611  1
 S  S6  1  0.77224  0.55917  0.62611  1
 S  S7  1  0.75012  0.25000  0.86785  1
 S  S8  1  0.22776  0.44083  0.37389  1
 S  S9  1  0.25012  0.25000  0.63215  1
 S  S10  1  0.22776  0.05917  0.37389  1
 S  S11  1  0.24988  0.75000  0.13215  1
 S  S12  1  0.72776  0.44083  0.12611  1
 V  V1  1  0.84420  0.25000  0.04708  1
 V  V2  1  0.65580  0.75000  0.54708  1
 V  V3  1  0.34420  0.25000  0.45292  1
 V  V4  1  0.15580  0.75000  0.95292  1
