CIF file written using JARVIS-Tools package.
data_CeAl8Cu4
_symmetry_space_group_name_H-M  'I4/mmm'
_cell_length_a       5.17608
_cell_length_b       6.802
_cell_length_c       6.802
_cell_angle_alpha    81.6762
_cell_angle_beta     67.6365
_cell_angle_gamma    67.6364

_symmetry_Int_Tables_number  139
_chemical_formula_structural  CeAl8Cu4
_chemical_formula_sum  CeAl8Cu4
_cell_volume  204.81378824126318
_cell_formula_units_Z  1
loop_
  _symmetry_equiv_pos_site_id
 _symmetry_equiv_pos_as_xyz
 1  'x, y, z'
loop_
 _atom_site_type_symbol
 _atom_site_label
 _atom_site_symmetry_multiplicity
 _atom_site_fract_x
 _atom_site_fract_y
 _atom_site_fract_z
 _atom_site_fract_occupancy
 Al  Al1  1  0.34738  0.65262  0.65262  1
 Al  Al2  1  0.00000  0.34738  0.65262  1
 Al  Al3  1  -0.00000  0.65262  0.34738  1
 Al  Al4  1  0.65262  0.34738  0.34738  1
 Al  Al5  1  0.27990  0.22010  0.22010  1
 Al  Al6  1  0.50000  0.77990  0.22010  1
 Al  Al7  1  0.50000  0.22010  0.77990  1
 Al  Al8  1  0.72010  0.77990  0.77990  1
 Ce  Ce1  1  0.00000  0.00000  0.00000  1
 Cu  Cu1  1  0.50000  0.00000  0.50000  1
 Cu  Cu2  1  0.00000  0.50000  0.00000  1
 Cu  Cu3  1  0.50000  0.50000  0.00000  1
 Cu  Cu4  1  -0.00000  0.00000  0.50000  1
