CIF file written using JARVIS-Tools package.
data_Cu3Pd2
_symmetry_space_group_name_H-M  'P4/mmm'
_cell_length_a       3.0178
_cell_length_b       3.0178
_cell_length_c       14.681
_cell_angle_alpha    90
_cell_angle_beta     90
_cell_angle_gamma    90

_symmetry_Int_Tables_number  123
_chemical_formula_structural  Cu3Pd2
_chemical_formula_sum  Cu6Pd4
_cell_volume  133.70206489609922
_cell_formula_units_Z  2
loop_
  _symmetry_equiv_pos_site_id
 _symmetry_equiv_pos_as_xyz
 1  'x, y, z'
loop_
 _atom_site_type_symbol
 _atom_site_label
 _atom_site_symmetry_multiplicity
 _atom_site_fract_x
 _atom_site_fract_y
 _atom_site_fract_z
 _atom_site_fract_occupancy
 Cu  Cu1  1  0.50000  0.50000  0.08995  1
 Cu  Cu2  1  0.50000  0.50000  0.29530  1
 Cu  Cu3  1  0.50000  0.50000  0.50000  1
 Cu  Cu4  1  0.50000  0.50000  0.70470  1
 Cu  Cu5  1  0.50000  0.50000  0.91005  1
 Cu  Cu6  1  0.00000  0.00000  0.00000  1
 Pd  Pd1  1  0.00000  0.00000  0.19182  1
 Pd  Pd2  1  0.00000  0.00000  0.39740  1
 Pd  Pd3  1  0.00000  0.00000  0.60260  1
 Pd  Pd4  1  0.00000  0.00000  0.80818  1
