CIF file written using JARVIS-Tools package.
data_EuCl2
_symmetry_space_group_name_H-M  'P4_2/mnm'
_cell_length_a       6.95737
_cell_length_b       6.95737
_cell_length_c       3.49773
_cell_angle_alpha    90
_cell_angle_beta     90
_cell_angle_gamma    90

_symmetry_Int_Tables_number  136
_chemical_formula_structural  EuCl2
_chemical_formula_sum  Eu2Cl4
_cell_volume  169.30798516338376
_cell_formula_units_Z  2
loop_
  _symmetry_equiv_pos_site_id
 _symmetry_equiv_pos_as_xyz
 1  'x, y, z'
loop_
 _atom_site_type_symbol
 _atom_site_label
 _atom_site_symmetry_multiplicity
 _atom_site_fract_x
 _atom_site_fract_y
 _atom_site_fract_z
 _atom_site_fract_occupancy
 Cl  Cl1  1  0.27940  0.27940  0.00000  1
 Cl  Cl2  1  0.72060  0.72060  0.00000  1
 Cl  Cl3  1  0.22060  0.77940  0.50000  1
 Cl  Cl4  1  0.77940  0.22060  0.50000  1
 Eu  Eu1  1  0.00000  0.00000  0.00000  1
 Eu  Eu2  1  0.50000  0.50000  0.50000  1
