CIF file written using JARVIS-Tools package.
data_MnTeO4
_symmetry_space_group_name_H-M  'Cmmm'
_cell_length_a       4.68164
_cell_length_b       7.35641
_cell_length_c       6.61705
_cell_angle_alpha    25.9146
_cell_angle_beta     45.0407
_cell_angle_gamma    50.5501

_symmetry_Int_Tables_number  65
_chemical_formula_structural  MnTeO4
_chemical_formula_sum  MnTeO4
_cell_volume  70.4749474388269
_cell_formula_units_Z  1
loop_
  _symmetry_equiv_pos_site_id
 _symmetry_equiv_pos_as_xyz
 1  'x, y, z'
loop_
 _atom_site_type_symbol
 _atom_site_label
 _atom_site_symmetry_multiplicity
 _atom_site_fract_x
 _atom_site_fract_y
 _atom_site_fract_z
 _atom_site_fract_occupancy
 Mn  Mn1  1  0.49999  0.50000  0.50000  1
 O  O1  1  0.13433  0.00009  0.18269  1
 O  O2  1  0.49984  0.50001  0.21094  1
 O  O3  1  0.86569  -0.00009  0.81730  1
 O  O4  1  0.50015  0.49999  0.78906  1
 Te  Te1  1  0.50000  -0.00000  0.50000  1
