CIF file written using JARVIS-Tools package.
data_RbPd2F5
_symmetry_space_group_name_H-M  'Imma'
_cell_length_a       6.30645
_cell_length_b       7.31785
_cell_length_c       7.31786
_cell_angle_alpha    63.8558
_cell_angle_beta     64.4756
_cell_angle_gamma    64.4756

_symmetry_Int_Tables_number  74
_chemical_formula_structural  RbPd2F5
_chemical_formula_sum  Rb2Pd4F0
_cell_volume  261.18565299916867
_cell_formula_units_Z  2
loop_
  _symmetry_equiv_pos_site_id
 _symmetry_equiv_pos_as_xyz
 1  'x, y, z'
loop_
 _atom_site_type_symbol
 _atom_site_label
 _atom_site_symmetry_multiplicity
 _atom_site_fract_x
 _atom_site_fract_y
 _atom_site_fract_z
 _atom_site_fract_occupancy
 F  F1  1  0.85021  0.45073  0.31209  1
 F  F2  1  0.61303  0.54927  0.68791  1
 F  F3  1  0.14979  0.18791  0.04927  1
 F  F4  1  0.38697  0.81209  0.95073  1
 F  F5  1  0.14979  0.54927  0.68791  1
 F  F6  1  0.38697  0.45073  0.31209  1
 F  F7  1  0.90233  0.84767  0.34767  1
 F  F8  1  0.09767  0.15233  0.65233  1
 F  F9  1  0.61303  0.18791  0.04927  1
 F  F10  1  0.85021  0.81209  0.95073  1
 Pd  Pd1  1  0.00000  0.50000  0.50000  1
 Pd  Pd2  1  0.00000  0.00000  0.00000  1
 Pd  Pd3  1  0.00000  0.50000  -0.00000  1
 Pd  Pd4  1  0.50000  0.50000  -0.00000  1
 Rb  Rb1  1  0.60709  0.14291  0.64291  1
 Rb  Rb2  1  0.39291  0.85709  0.35709  1
