CIF file written using JARVIS-Tools package.
data_RbMnCl3
_symmetry_space_group_name_H-M  'P6_3/mmc'
_cell_length_a       7.113
_cell_length_b       7.113
_cell_length_c       17.6996
_cell_angle_alpha    90
_cell_angle_beta     90
_cell_angle_gamma    120

_symmetry_Int_Tables_number  194
_chemical_formula_structural  RbMnCl3
_chemical_formula_sum  Rb6Mn6Cl8
_cell_volume  775.5335663406707
_cell_formula_units_Z  6
loop_
  _symmetry_equiv_pos_site_id
 _symmetry_equiv_pos_as_xyz
 1  'x, y, z'
loop_
 _atom_site_type_symbol
 _atom_site_label
 _atom_site_symmetry_multiplicity
 _atom_site_fract_x
 _atom_site_fract_y
 _atom_site_fract_z
 _atom_site_fract_occupancy
 Cl  Cl1  1  0.49570  0.50430  0.75000  1
 Cl  Cl2  1  0.16590  0.83410  0.91777  1
 Cl  Cl3  1  0.16590  0.33180  0.58223  1
 Cl  Cl4  1  0.16590  0.83410  0.58223  1
 Cl  Cl5  1  0.00859  0.50430  0.75000  1
 Cl  Cl6  1  0.66820  0.83410  0.58223  1
 Cl  Cl7  1  0.50430  0.49570  0.25000  1
 Cl  Cl8  1  0.83410  0.66820  0.41777  1
 Cl  Cl9  1  0.83410  0.16590  0.08223  1
 Cl  Cl10  1  0.33180  0.16590  0.41777  1
 Cl  Cl11  1  0.49570  0.99141  0.75000  1
 Cl  Cl12  1  0.83410  0.66820  0.08223  1
 Cl  Cl13  1  0.83410  0.16590  0.41777  1
 Cl  Cl14  1  0.66820  0.83410  0.91777  1
 Cl  Cl15  1  0.50430  0.00859  0.25000  1
 Cl  Cl16  1  0.16590  0.33180  0.91777  1
 Cl  Cl17  1  0.99141  0.49570  0.25000  1
 Cl  Cl18  1  0.33180  0.16590  0.08223  1
 Mn  Mn1  1  0.33333  0.66667  0.83862  1
 Mn  Mn2  1  0.33333  0.66667  0.66138  1
 Mn  Mn3  1  0.66667  0.33333  0.16138  1
 Mn  Mn4  1  0.00000  0.00000  0.00000  1
 Mn  Mn5  1  0.66667  0.33333  0.33862  1
 Mn  Mn6  1  0.00000  0.00000  0.50000  1
 Rb  Rb1  1  0.33333  0.66667  0.08569  1
 Rb  Rb2  1  0.66667  0.33333  0.91431  1
 Rb  Rb3  1  0.00000  0.00000  0.75000  1
 Rb  Rb4  1  0.66667  0.33333  0.58569  1
 Rb  Rb5  1  0.33333  0.66667  0.41431  1
 Rb  Rb6  1  0.00000  0.00000  0.25000  1
