CIF file written using JARVIS-Tools package.
data_AlTeCl7
_symmetry_space_group_name_H-M  'P-1'
_cell_length_a       6.4259
_cell_length_b       8.28371
_cell_length_c       19.3414
_cell_angle_alpha    92.9992
_cell_angle_beta     96.3311
_cell_angle_gamma    97.6057

_symmetry_Int_Tables_number  2
_chemical_formula_structural  AlTeCl7
_chemical_formula_sum  Al4Te4Cl28
_cell_volume  1011.924026689637
_cell_formula_units_Z  4
loop_
  _symmetry_equiv_pos_site_id
 _symmetry_equiv_pos_as_xyz
 1  'x, y, z'
loop_
 _atom_site_type_symbol
 _atom_site_label
 _atom_site_symmetry_multiplicity
 _atom_site_fract_x
 _atom_site_fract_y
 _atom_site_fract_z
 _atom_site_fract_occupancy
 Al  Al1  1  0.30788  0.09835  0.39650  1
 Al  Al2  1  0.70972  0.33459  0.87723  1
 Al  Al3  1  0.69212  0.90165  0.60350  1
 Al  Al4  1  0.29028  0.66541  0.12277  1
 Cl  Cl1  1  0.17033  0.88645  0.44678  1
 Cl  Cl2  1  0.13915  0.44999  0.16760  1
 Cl  Cl3  1  0.41118  0.39299  0.90916  1
 Cl  Cl4  1  0.38630  0.95002  0.63202  1
 Cl  Cl5  1  0.88291  0.83698  0.69095  1
 Cl  Cl6  1  0.90613  0.28479  0.97097  1
 Cl  Cl7  1  0.58882  0.60701  0.09084  1
 Cl  Cl8  1  0.62723  0.69649  0.52486  1
 Cl  Cl9  1  0.86581  0.03313  0.12127  1
 Cl  Cl10  1  0.13459  0.25956  0.72997  1
 Cl  Cl11  1  0.33878  0.86924  0.19586  1
 Cl  Cl12  1  0.61828  0.85247  0.94384  1
 Cl  Cl13  1  0.59431  0.41247  0.66194  1
 Cl  Cl14  1  0.37570  0.70888  0.77733  1
 Cl  Cl15  1  0.11270  0.52611  0.59881  1
 Cl  Cl16  1  0.86085  0.55001  0.83240  1
 Cl  Cl17  1  0.88730  0.47389  0.40119  1
 Cl  Cl18  1  0.82967  0.11355  0.55322  1
 Cl  Cl19  1  0.09387  0.71521  0.02903  1
 Cl  Cl20  1  0.86541  0.74044  0.27003  1
 Cl  Cl21  1  0.62430  0.29112  0.22267  1
 Cl  Cl22  1  0.11709  0.16302  0.30905  1
 Cl  Cl23  1  0.66122  0.13076  0.80414  1
 Cl  Cl24  1  0.38172  0.14753  0.05616  1
 Cl  Cl25  1  0.13419  0.96687  0.87873  1
 Cl  Cl26  1  0.61370  0.04998  0.36798  1
 Cl  Cl27  1  0.40569  0.58753  0.33806  1
 Cl  Cl28  1  0.37277  0.30351  0.47514  1
 Te  Te1  1  0.74694  0.71800  0.38020  1
 Te  Te2  1  0.28514  0.72510  0.89111  1
 Te  Te3  1  0.25306  0.28200  0.61980  1
 Te  Te4  1  0.71486  0.27490  0.10889  1
