CIF file written using JARVIS-Tools package.
data_FeMo3As4
_symmetry_space_group_name_H-M  'Pm'
_cell_length_a       3.40995
_cell_length_b       5.91714
_cell_length_c       6.34203
_cell_angle_alpha    90.0991
_cell_angle_beta     90
_cell_angle_gamma    90

_symmetry_Int_Tables_number  6
_chemical_formula_structural  FeMo3As4
_chemical_formula_sum  FeMo3As4
_cell_volume  127.96386751616824
_cell_formula_units_Z  1
loop_
  _symmetry_equiv_pos_site_id
 _symmetry_equiv_pos_as_xyz
 1  'x, y, z'
loop_
 _atom_site_type_symbol
 _atom_site_label
 _atom_site_symmetry_multiplicity
 _atom_site_fract_x
 _atom_site_fract_y
 _atom_site_fract_z
 _atom_site_fract_occupancy
 As  As1  1  0.50000  0.69032  0.92936  1
 As  As2  1  0.50000  0.19453  0.55892  1
 As  As3  1  0.00000  0.32441  0.08959  1
 As  As4  1  0.00000  0.78340  0.41731  1
 Fe  Fe1  1  0.50000  0.51059  0.31130  1
 Mo  Mo1  1  0.50000  0.01387  0.18338  1
 Mo  Mo2  1  0.00000  0.48601  0.69475  1
 Mo  Mo3  1  0.00000  0.99689  0.81538  1
