CIF file written using JARVIS-Tools package.
data_ZnBiF6
_symmetry_space_group_name_H-M  'R-3'
_cell_length_a       5.7775
_cell_length_b       5.7775
_cell_length_c       5.7775
_cell_angle_alpha    53.955
_cell_angle_beta     53.9549
_cell_angle_gamma    53.9549

_symmetry_Int_Tables_number  148
_chemical_formula_structural  ZnBiF6
_chemical_formula_sum  ZnBiF6
_cell_volume  117.1080874652484
_cell_formula_units_Z  1
loop_
  _symmetry_equiv_pos_site_id
 _symmetry_equiv_pos_as_xyz
 1  'x, y, z'
loop_
 _atom_site_type_symbol
 _atom_site_label
 _atom_site_symmetry_multiplicity
 _atom_site_fract_x
 _atom_site_fract_y
 _atom_site_fract_z
 _atom_site_fract_occupancy
 Bi  Bi1  1  0.00000  0.00000  0.00000  1
 F  F1  1  0.41189  0.11140  0.73600  1
 F  F2  1  0.11140  0.73600  0.41189  1
 F  F3  1  0.26400  0.58811  0.88860  1
 F  F4  1  0.88860  0.26400  0.58811  1
 F  F5  1  0.58811  0.88860  0.26400  1
 F  F6  1  0.73600  0.41189  0.11140  1
 Zn  Zn1  1  0.50000  0.50000  0.50000  1
