CIF file written using JARVIS-Tools package.
data_CeGe2Pt2
_symmetry_space_group_name_H-M  'P4/nmm'
_cell_length_a       4.40267
_cell_length_b       4.40267
_cell_length_c       9.94832
_cell_angle_alpha    90
_cell_angle_beta     90
_cell_angle_gamma    90

_symmetry_Int_Tables_number  129
_chemical_formula_structural  CeGe2Pt2
_chemical_formula_sum  Ce2Ge4Pt4
_cell_volume  192.8336985703029
_cell_formula_units_Z  2
loop_
  _symmetry_equiv_pos_site_id
 _symmetry_equiv_pos_as_xyz
 1  'x, y, z'
loop_
 _atom_site_type_symbol
 _atom_site_label
 _atom_site_symmetry_multiplicity
 _atom_site_fract_x
 _atom_site_fract_y
 _atom_site_fract_z
 _atom_site_fract_occupancy
 Ce  Ce1  1  0.75000  0.75000  0.24982  1
 Ce  Ce2  1  0.25000  0.25000  0.75018  1
 Ge  Ge1  1  0.25000  0.75000  0.50000  1
 Ge  Ge2  1  0.25000  0.25000  0.13032  1
 Ge  Ge3  1  0.75000  0.25000  0.50000  1
 Ge  Ge4  1  0.75000  0.75000  0.86968  1
 Pt  Pt1  1  0.75000  0.25000  0.00000  1
 Pt  Pt2  1  0.75000  0.75000  0.62373  1
 Pt  Pt3  1  0.25000  0.25000  0.37627  1
 Pt  Pt4  1  0.25000  0.75000  0.00000  1
