CIF file written using JARVIS-Tools package.
data_La2B4Rh5
_symmetry_space_group_name_H-M  'Fmmm'
_cell_length_a       5.54348
_cell_length_b       5.75354
_cell_length_c       6.3257
_cell_angle_alpha    77.814
_cell_angle_beta     64.0128
_cell_angle_gamma    61.2006

_symmetry_Int_Tables_number  69
_chemical_formula_structural  La2B4Rh5
_chemical_formula_sum  La2B4Rh5
_cell_volume  158.92489057105968
_cell_formula_units_Z  1
loop_
  _symmetry_equiv_pos_site_id
 _symmetry_equiv_pos_as_xyz
 1  'x, y, z'
loop_
 _atom_site_type_symbol
 _atom_site_label
 _atom_site_symmetry_multiplicity
 _atom_site_fract_x
 _atom_site_fract_y
 _atom_site_fract_z
 _atom_site_fract_occupancy
 B  B1  1  0.20848  0.32329  0.25976  1
 B  B2  1  0.79152  0.67671  0.74024  1
 B  B3  1  0.46823  0.32329  0.74024  1
 B  B4  1  0.53177  0.67671  0.25976  1
 La  La1  1  0.14321  -0.00000  0.71357  1
 La  La2  1  0.85679  0.00000  0.28643  1
 Rh  Rh1  1  0.25000  0.50000  0.50000  1
 Rh  Rh2  1  0.50000  0.50000  -0.00000  1
 Rh  Rh3  1  0.50000  0.00000  0.00000  1
 Rh  Rh4  1  -0.00000  0.50000  -0.00000  1
 Rh  Rh5  1  0.75000  0.50000  0.50000  1
