CIF file written using JARVIS-Tools package.
data_BaNi2P2
_symmetry_space_group_name_H-M  'I4/mmm'
_cell_length_a       3.95515
_cell_length_b       3.95515
_cell_length_c       6.58817
_cell_angle_alpha    107.468
_cell_angle_beta     107.468
_cell_angle_gamma    90

_symmetry_Int_Tables_number  139
_chemical_formula_structural  BaNi2P2
_chemical_formula_sum  BaNi2P2
_cell_volume  93.3133236772835
_cell_formula_units_Z  1
loop_
  _symmetry_equiv_pos_site_id
 _symmetry_equiv_pos_as_xyz
 1  'x, y, z'
loop_
 _atom_site_type_symbol
 _atom_site_label
 _atom_site_symmetry_multiplicity
 _atom_site_fract_x
 _atom_site_fract_y
 _atom_site_fract_z
 _atom_site_fract_occupancy
 Ba  Ba1  1  0.00000  0.00000  0.00000  1
 Ni  Ni1  1  0.25000  0.75000  0.50000  1
 Ni  Ni2  1  0.75000  0.25000  0.50000  1
 P  P1  1  0.65791  0.65791  0.31581  1
 P  P2  1  0.34209  0.34209  0.68419  1
