CIF file written using JARVIS-Tools package.
data_HfNbB4
_symmetry_space_group_name_H-M  'Immm'
_cell_length_a       3.12935
_cell_length_b       6.24465
_cell_length_c       4.64569
_cell_angle_alpha    47.7733
_cell_angle_beta     109.682
_cell_angle_gamma    120.075

_symmetry_Int_Tables_number  71
_chemical_formula_structural  HfNbB4
_chemical_formula_sum  HfNbB4
_cell_volume  58.17506568066778
_cell_formula_units_Z  1
loop_
  _symmetry_equiv_pos_site_id
 _symmetry_equiv_pos_as_xyz
 1  'x, y, z'
loop_
 _atom_site_type_symbol
 _atom_site_label
 _atom_site_symmetry_multiplicity
 _atom_site_fract_x
 _atom_site_fract_y
 _atom_site_fract_z
 _atom_site_fract_occupancy
 B  B1  1  0.33382  0.58343  0.50077  1
 B  B2  1  0.66618  0.91580  0.50075  1
 B  B3  1  0.66618  0.41657  0.49923  1
 B  B4  1  0.33382  0.08420  0.49925  1
 Hf  Hf1  1  -0.00000  0.50000  0.00000  1
 Nb  Nb1  1  0.00000  0.00000  0.00000  1
