CIF file written using JARVIS-Tools package.
data_CeAgPb
_symmetry_space_group_name_H-M  'P6_3mc'
_cell_length_a       4.90515
_cell_length_b       4.90514
_cell_length_c       7.51318
_cell_angle_alpha    90
_cell_angle_beta     90
_cell_angle_gamma    120

_symmetry_Int_Tables_number  186
_chemical_formula_structural  CeAgPb
_chemical_formula_sum  Ce2Ag2Pb2
_cell_volume  156.5520892241823
_cell_formula_units_Z  2
loop_
  _symmetry_equiv_pos_site_id
 _symmetry_equiv_pos_as_xyz
 1  'x, y, z'
loop_
 _atom_site_type_symbol
 _atom_site_label
 _atom_site_symmetry_multiplicity
 _atom_site_fract_x
 _atom_site_fract_y
 _atom_site_fract_z
 _atom_site_fract_occupancy
 Ag  Ag1  1  0.66667  0.33333  0.30441  1
 Ag  Ag2  1  0.33333  0.66667  0.80441  1
 Ce  Ce1  1  0.00000  0.00000  -0.00026  1
 Ce  Ce2  1  0.00000  0.00000  0.49974  1
 Pb  Pb1  1  0.33333  0.66667  0.22295  1
 Pb  Pb2  1  0.66667  0.33333  0.72295  1
