CIF file written using JARVIS-Tools package.
data_CeZn2Au4
_symmetry_space_group_name_H-M  'I4/mmm'
_cell_length_a       5.36268
_cell_length_b       5.64352
_cell_length_c       5.64352
_cell_angle_alpha    76.9537
_cell_angle_beta     61.6329
_cell_angle_gamma    61.6329

_symmetry_Int_Tables_number  139
_chemical_formula_structural  CeZn2Au4
_chemical_formula_sum  CeZn2Au4
_cell_volume  132.24192915292707
_cell_formula_units_Z  1
loop_
  _symmetry_equiv_pos_site_id
 _symmetry_equiv_pos_as_xyz
 1  'x, y, z'
loop_
 _atom_site_type_symbol
 _atom_site_label
 _atom_site_symmetry_multiplicity
 _atom_site_fract_x
 _atom_site_fract_y
 _atom_site_fract_z
 _atom_site_fract_occupancy
 Au  Au1  1  0.69894  -0.00000  0.60212  1
 Au  Au2  1  0.30106  0.00000  0.39788  1
 Au  Au3  1  0.69894  0.60212  -0.00000  1
 Au  Au4  1  0.30106  0.39788  0.00000  1
 Ce  Ce1  1  0.00000  0.00000  0.00000  1
 Zn  Zn1  1  0.25000  0.50000  0.50000  1
 Zn  Zn2  1  0.75000  0.50000  0.50000  1
