CIF file written using JARVIS-Tools package.
data_Li2TiTe3O12
_symmetry_space_group_name_H-M  'P2'
_cell_length_a       4.92393
_cell_length_b       8.4662
_cell_length_c       5.18165
_cell_angle_alpha    90
_cell_angle_beta     91.3882
_cell_angle_gamma    90

_symmetry_Int_Tables_number  3
_chemical_formula_structural  Li2TiTe3O12
_chemical_formula_sum  Li2TiTe3O2
_cell_volume  215.94386530429716
_cell_formula_units_Z  1
loop_
  _symmetry_equiv_pos_site_id
 _symmetry_equiv_pos_as_xyz
 1  'x, y, z'
loop_
 _atom_site_type_symbol
 _atom_site_label
 _atom_site_symmetry_multiplicity
 _atom_site_fract_x
 _atom_site_fract_y
 _atom_site_fract_z
 _atom_site_fract_occupancy
 Li  Li1  1  0.00000  0.69574  0.50000  1
 Li  Li2  1  0.50000  0.82329  0.50000  1
 O  O1  1  0.25981  0.74104  0.14387  1
 O  O2  1  0.29099  0.41865  0.17922  1
 O  O3  1  0.70901  0.41865  0.82078  1
 O  O4  1  0.71261  0.56748  0.32981  1
 O  O5  1  0.20237  0.06595  0.19344  1
 O  O6  1  0.75106  0.24263  0.35227  1
 O  O7  1  0.24894  0.24263  0.64773  1
 O  O8  1  0.20555  0.90896  0.67549  1
 O  O9  1  0.28739  0.56748  0.67019  1
 O  O10  1  0.79763  0.06595  0.80656  1
 O  O11  1  0.79445  0.90896  0.32451  1
 O  O12  1  0.74019  0.74104  0.85613  1
 Te  Te1  1  0.50000  0.38873  0.50000  1
 Te  Te2  1  0.00000  0.08033  0.50000  1
 Te  Te3  1  0.50000  0.58922  0.00000  1
 Ti  Ti1  1  0.00000  0.90649  0.00000  1
