CIF file written using JARVIS-Tools package.
data_CeNi
_symmetry_space_group_name_H-M  'Cmcm'
_cell_length_a       3.61525
_cell_length_b       4.20163
_cell_length_c       5.66104
_cell_angle_alpha    90
_cell_angle_beta     108.621
_cell_angle_gamma    90

_symmetry_Int_Tables_number  63
_chemical_formula_structural  CeNi
_chemical_formula_sum  Ce2Ni2
_cell_volume  81.48937698918513
_cell_formula_units_Z  2
loop_
  _symmetry_equiv_pos_site_id
 _symmetry_equiv_pos_as_xyz
 1  'x, y, z'
loop_
 _atom_site_type_symbol
 _atom_site_label
 _atom_site_symmetry_multiplicity
 _atom_site_fract_x
 _atom_site_fract_y
 _atom_site_fract_z
 _atom_site_fract_occupancy
 Ce  Ce1  1  0.13613  0.75000  0.27225  1
 Ce  Ce2  1  0.86387  0.25000  0.72775  1
 Ni  Ni1  1  0.41619  0.75000  0.83238  1
 Ni  Ni2  1  0.58381  0.25000  0.16762  1
