CIF file written using JARVIS-Tools package.
data_CeSe2
_symmetry_space_group_name_H-M  'I-42d'
_cell_length_a       8.17205
_cell_length_b       8.17205
_cell_length_c       8.17205
_cell_angle_alpha    54.934
_cell_angle_beta     141.93
_cell_angle_gamma    141.93

_symmetry_Int_Tables_number  122
_chemical_formula_structural  CeSe2
_chemical_formula_sum  Ce2Se4
_cell_volume  206.03100015159367
_cell_formula_units_Z  2
loop_
  _symmetry_equiv_pos_site_id
 _symmetry_equiv_pos_as_xyz
 1  'x, y, z'
loop_
 _atom_site_type_symbol
 _atom_site_label
 _atom_site_symmetry_multiplicity
 _atom_site_fract_x
 _atom_site_fract_y
 _atom_site_fract_z
 _atom_site_fract_occupancy
 Ce  Ce1  1  0.50000  0.75000  0.25000  1
 Ce  Ce2  1  0.00000  0.00000  0.00000  1
 Se  Se1  1  -0.04275  0.37500  -0.16775  1
 Se  Se2  1  0.04275  0.87500  0.41775  1
 Se  Se3  1  0.54275  0.16775  0.12500  1
 Se  Se4  1  0.45725  0.58225  0.62500  1
