CIF file written using JARVIS-Tools package.
data_Li5Mn3Cr2O10
_symmetry_space_group_name_H-M  'P-1'
_cell_length_a       5.11348
_cell_length_b       5.13954
_cell_length_c       7.6853
_cell_angle_alpha    103.662
_cell_angle_beta     108.364
_cell_angle_gamma    99.4544

_symmetry_Int_Tables_number  2
_chemical_formula_structural  Li5Mn3Cr2O10
_chemical_formula_sum  Li5Mn3Cr2O0
_cell_volume  179.92101359909725
_cell_formula_units_Z  1
loop_
  _symmetry_equiv_pos_site_id
 _symmetry_equiv_pos_as_xyz
 1  'x, y, z'
loop_
 _atom_site_type_symbol
 _atom_site_label
 _atom_site_symmetry_multiplicity
 _atom_site_fract_x
 _atom_site_fract_y
 _atom_site_fract_z
 _atom_site_fract_occupancy
 Cr  Cr1  1  0.30393  0.89930  0.30804  1
 Cr  Cr2  1  0.69950  0.09966  0.69270  1
 Li  Li1  1  0.28604  0.39135  0.78043  1
 Li  Li2  1  0.08265  0.79433  0.58358  1
 Li  Li3  1  0.50167  0.49948  0.50038  1
 Li  Li4  1  0.71736  0.60761  0.22028  1
 Li  Li5  1  0.92063  0.20481  0.41711  1
 Mn  Mn1  1  0.50172  0.99947  0.00037  1
 Mn  Mn2  1  0.10655  0.30678  0.10668  1
 Mn  Mn3  1  0.89690  0.69217  0.89405  1
 O  O1  1  0.71201  0.32530  0.95662  1
 O  O2  1  0.31759  0.13339  0.54941  1
 O  O3  1  0.91449  0.92677  0.14571  1
 O  O4  1  0.68584  0.86558  0.45132  1
 O  O5  1  0.29144  0.67364  0.04412  1
 O  O6  1  0.53240  0.76975  0.76686  1
 O  O7  1  0.11502  0.55017  0.33610  1
 O  O8  1  0.88840  0.44878  0.66463  1
 O  O9  1  0.47106  0.22920  0.23388  1
 O  O10  1  0.08896  0.07219  0.85502  1
