CIF file written using JARVIS-Tools package.
data_SnN2F2
_symmetry_space_group_name_H-M  'C2/m'
_cell_length_a       6.85237
_cell_length_b       3.68174
_cell_length_c       6.13685
_cell_angle_alpha    117.374
_cell_angle_beta     123.938
_cell_angle_gamma    90

_symmetry_Int_Tables_number  12
_chemical_formula_structural  SnN2F2
_chemical_formula_sum  SnN2F2
_cell_volume  106.91828269693639
_cell_formula_units_Z  1
loop_
  _symmetry_equiv_pos_site_id
 _symmetry_equiv_pos_as_xyz
 1  'x, y, z'
loop_
 _atom_site_type_symbol
 _atom_site_label
 _atom_site_symmetry_multiplicity
 _atom_site_fract_x
 _atom_site_fract_y
 _atom_site_fract_z
 _atom_site_fract_occupancy
 F  F1  1  0.16498  0.75332  0.32996  1
 F  F2  1  0.83502  0.24668  0.67004  1
 N  N1  1  0.45525  0.82119  0.91049  1
 N  N2  1  0.54475  0.17881  0.08951  1
 Sn  Sn1  1  0.00000  0.00000  0.00000  1
