CIF file written using JARVIS-Tools package.
data_Na5TaO5
_symmetry_space_group_name_H-M  'C2/c'
_cell_length_a       6.01122
_cell_length_b       6.01122
_cell_length_c       10.068
_cell_angle_alpha    98.7088
_cell_angle_beta     98.7087
_cell_angle_gamma    116.621

_symmetry_Int_Tables_number  15
_chemical_formula_structural  Na5TaO5
_chemical_formula_sum  Na0Ta2O0
_cell_volume  311.4343799204978
_cell_formula_units_Z  2
loop_
  _symmetry_equiv_pos_site_id
 _symmetry_equiv_pos_as_xyz
 1  'x, y, z'
loop_
 _atom_site_type_symbol
 _atom_site_label
 _atom_site_symmetry_multiplicity
 _atom_site_fract_x
 _atom_site_fract_y
 _atom_site_fract_z
 _atom_site_fract_occupancy
 Na  Na1  1  0.99092  0.67565  0.92096  1
 Na  Na2  1  0.00908  0.32435  0.07904  1
 Na  Na3  1  0.67565  0.99092  0.42096  1
 Na  Na4  1  0.33103  0.66897  0.75000  1
 Na  Na5  1  0.66897  0.33103  0.25000  1
 Na  Na6  1  0.55470  0.78536  0.04894  1
 Na  Na7  1  0.21464  0.44530  0.45106  1
 Na  Na8  1  0.44530  0.21464  0.95106  1
 Na  Na9  1  0.78536  0.55470  0.54894  1
 Na  Na10  1  0.32435  0.00908  0.57904  1
 O  O1  1  0.03787  0.69765  0.38260  1
 O  O2  1  0.30235  0.96213  0.11740  1
 O  O3  1  0.80994  0.59601  0.10464  1
 O  O4  1  0.40399  0.19006  0.39536  1
 O  O5  1  0.19006  0.40399  0.89536  1
 O  O6  1  0.90518  0.09482  0.25000  1
 O  O7  1  0.96213  0.30235  0.61740  1
 O  O8  1  0.69765  0.03787  0.88260  1
 O  O9  1  0.09482  0.90518  0.75000  1
 O  O10  1  0.59601  0.80994  0.60464  1
 Ta  Ta1  1  0.09175  0.90825  0.25000  1
 Ta  Ta2  1  0.90825  0.09175  0.75000  1
