CIF file written using JARVIS-Tools package.
data_PmRh3
_symmetry_space_group_name_H-M  'P6_3/mmc'
_cell_length_a       5.91808
_cell_length_b       5.91808
_cell_length_c       4.60884
_cell_angle_alpha    90
_cell_angle_beta     90
_cell_angle_gamma    120

_symmetry_Int_Tables_number  194
_chemical_formula_structural  PmRh3
_chemical_formula_sum  Pm2Rh6
_cell_volume  139.79266067967606
_cell_formula_units_Z  2
loop_
  _symmetry_equiv_pos_site_id
 _symmetry_equiv_pos_as_xyz
 1  'x, y, z'
loop_
 _atom_site_type_symbol
 _atom_site_label
 _atom_site_symmetry_multiplicity
 _atom_site_fract_x
 _atom_site_fract_y
 _atom_site_fract_z
 _atom_site_fract_occupancy
 Pm  Pm1  1  0.33333  0.66667  0.75000  1
 Pm  Pm2  1  0.66667  0.33333  0.25000  1
 Rh  Rh1  1  0.15351  0.30701  0.25000  1
 Rh  Rh2  1  0.69299  0.84649  0.25000  1
 Rh  Rh3  1  0.15351  0.84649  0.25000  1
 Rh  Rh4  1  0.84649  0.69299  0.75000  1
 Rh  Rh5  1  0.30701  0.15351  0.75000  1
 Rh  Rh6  1  0.84649  0.15351  0.75000  1
