CIF file written using JARVIS-Tools package.
data_Ba3P4O13
_symmetry_space_group_name_H-M  'P-1'
_cell_length_a       7.61951
_cell_length_b       8.67539
_cell_length_c       10.6462
_cell_angle_alpha    108.897
_cell_angle_beta     104.677
_cell_angle_gamma    102.07

_symmetry_Int_Tables_number  2
_chemical_formula_structural  Ba3P4O13
_chemical_formula_sum  Ba6P8O26
_cell_volume  610.6185245351735
_cell_formula_units_Z  2
loop_
  _symmetry_equiv_pos_site_id
 _symmetry_equiv_pos_as_xyz
 1  'x, y, z'
loop_
 _atom_site_type_symbol
 _atom_site_label
 _atom_site_symmetry_multiplicity
 _atom_site_fract_x
 _atom_site_fract_y
 _atom_site_fract_z
 _atom_site_fract_occupancy
 Ba  Ba1  1  0.50000  -0.00000  -0.00000  1
 Ba  Ba2  1  0.15367  0.23385  0.23346  1
 Ba  Ba3  1  0.84633  0.76615  0.76654  1
 Ba  Ba4  1  -0.00000  0.00000  0.50000  1
 Ba  Ba5  1  0.36875  0.78091  0.26900  1
 Ba  Ba6  1  0.63125  0.21909  0.73100  1
 O  O1  1  0.05294  0.89760  0.24210  1
 O  O2  1  0.18818  0.11581  0.97621  1
 O  O3  1  0.81182  0.88419  0.02379  1
 O  O4  1  0.20040  0.38806  0.93321  1
 O  O5  1  0.79960  0.61194  0.06679  1
 O  O6  1  0.72253  0.72273  0.48123  1
 O  O7  1  0.71053  0.15188  0.49050  1
 O  O8  1  0.47214  0.11911  0.26242  1
 O  O9  1  0.17062  0.79106  0.70060  1
 O  O10  1  0.94706  0.10240  0.75790  1
 O  O11  1  0.52786  0.88089  0.73758  1
 O  O12  1  0.69463  0.41816  0.44327  1
 O  O13  1  0.30537  0.58184  0.55673  1
 O  O14  1  0.28449  0.69436  0.96800  1
 O  O15  1  0.82938  0.20894  0.29940  1
 O  O16  1  0.70364  0.84089  0.22275  1
 O  O17  1  0.53730  0.51775  0.73981  1
 O  O18  1  0.29636  0.15911  0.77725  1
 O  O19  1  0.71551  0.30564  0.03200  1
 O  O20  1  0.46270  0.48225  0.26019  1
 O  O21  1  0.05974  0.50200  0.17686  1
 O  O22  1  0.27747  0.27727  0.51877  1
 O  O23  1  0.18418  0.45259  0.71430  1
 O  O24  1  0.81582  0.54741  0.28570  1
 O  O25  1  0.28947  0.84812  0.50950  1
 O  O26  1  0.94026  0.49800  0.82314  1
 P  P1  1  0.66215  0.54566  0.36522  1
 P  P2  1  0.84962  0.48077  0.13535  1
 P  P3  1  0.33785  0.45434  0.63478  1
 P  P4  1  0.32181  0.78928  0.63141  1
 P  P5  1  0.67819  0.21072  0.36859  1
 P  P6  1  0.84258  0.82034  0.14282  1
 P  P7  1  0.15742  0.17966  0.85718  1
 P  P8  1  0.15038  0.51923  0.86465  1
