CIF file written using JARVIS-Tools package.
data_NbAlVC
_symmetry_space_group_name_H-M  'P-3m1'
_cell_length_a       3.04847
_cell_length_b       3.04847
_cell_length_c       13.4959
_cell_angle_alpha    90
_cell_angle_beta     90
_cell_angle_gamma    120

_symmetry_Int_Tables_number  164
_chemical_formula_structural  NbAlVC
_chemical_formula_sum  Nb2Al2V2C2
_cell_volume  108.6170153114994
_cell_formula_units_Z  2
loop_
  _symmetry_equiv_pos_site_id
 _symmetry_equiv_pos_as_xyz
 1  'x, y, z'
loop_
 _atom_site_type_symbol
 _atom_site_label
 _atom_site_symmetry_multiplicity
 _atom_site_fract_x
 _atom_site_fract_y
 _atom_site_fract_z
 _atom_site_fract_occupancy
 Al  Al1  1  0.33333  0.66667  0.76426  1
 Al  Al2  1  0.66667  0.33333  0.23574  1
 C  C1  1  0.00000  0.00000  0.50000  1
 C  C2  1  0.00000  0.00000  0.00000  1
 Nb  Nb1  1  0.33333  0.66667  0.40428  1
 Nb  Nb2  1  0.66667  0.33333  0.59572  1
 V  V1  1  0.66667  0.33333  0.92117  1
 V  V2  1  0.33333  0.66667  0.07883  1
