CIF file written using JARVIS-Tools package.
data_Li2BiS2
_symmetry_space_group_name_H-M  'Immm'
_cell_length_a       7.31593
_cell_length_b       7.31593
_cell_length_c       7.31594
_cell_angle_alpha    148.161
_cell_angle_beta     148.761
_cell_angle_gamma    45.2074

_symmetry_Int_Tables_number  71
_chemical_formula_structural  Li2BiS2
_chemical_formula_sum  Li2BiS2
_cell_volume  106.7871385838081
_cell_formula_units_Z  1
loop_
  _symmetry_equiv_pos_site_id
 _symmetry_equiv_pos_as_xyz
 1  'x, y, z'
loop_
 _atom_site_type_symbol
 _atom_site_label
 _atom_site_symmetry_multiplicity
 _atom_site_fract_x
 _atom_site_fract_y
 _atom_site_fract_z
 _atom_site_fract_occupancy
 Bi  Bi1  1  0.00000  0.00000  0.00000  1
 Li  Li1  1  0.25691  0.25691  0.00000  1
 Li  Li2  1  0.74309  0.74309  -0.00000  1
 S  S1  1  0.85124  0.35124  0.50000  1
 S  S2  1  0.14876  0.64876  0.50000  1
