CIF file written using JARVIS-Tools package.
data_H5C2ClO
_symmetry_space_group_name_H-M  'P2_1/c'
_cell_length_a       6.2798
_cell_length_b       7.77929
_cell_length_c       8.06686
_cell_angle_alpha    90
_cell_angle_beta     110.199
_cell_angle_gamma    90

_symmetry_Int_Tables_number  14
_chemical_formula_structural  H5C2ClO
_chemical_formula_sum  H20C8Cl4O4
_cell_volume  369.84984793041457
_cell_formula_units_Z  4
loop_
  _symmetry_equiv_pos_site_id
 _symmetry_equiv_pos_as_xyz
 1  'x, y, z'
loop_
 _atom_site_type_symbol
 _atom_site_label
 _atom_site_symmetry_multiplicity
 _atom_site_fract_x
 _atom_site_fract_y
 _atom_site_fract_z
 _atom_site_fract_occupancy
 C  C1  1  0.36775  0.18120  0.85196  1
 C  C2  1  0.01651  0.89919  0.21147  1
 C  C3  1  0.86775  0.31880  0.35196  1
 C  C4  1  0.63225  0.81880  0.14804  1
 C  C5  1  0.51651  0.60081  0.71147  1
 C  C6  1  0.98349  0.10081  0.78853  1
 C  C7  1  0.13225  0.68120  0.64804  1
 C  C8  1  0.48349  0.39919  0.28853  1
 Cl  Cl1  1  0.90581  0.37760  0.13783  1
 Cl  Cl2  1  0.40581  0.12240  0.63783  1
 Cl  Cl3  1  0.59419  0.87760  0.36217  1
 Cl  Cl4  1  0.09419  0.62240  0.86217  1
 H  H1  1  0.46251  0.83345  0.04943  1
 H  H2  1  0.56167  0.73713  0.70636  1
 H  H3  1  0.38505  0.47975  0.34697  1
 H  H4  1  0.96251  0.66655  0.54943  1
 H  H5  1  0.30870  0.31506  0.83041  1
 H  H6  1  0.05124  0.93803  0.34967  1
 H  H7  1  0.11495  0.97975  0.15303  1
 H  H8  1  0.69130  0.68494  0.16959  1
 H  H9  1  0.03749  0.33345  0.45057  1
 H  H10  1  0.06167  0.76287  0.20636  1
 H  H11  1  0.55124  0.56197  0.84967  1
 H  H12  1  0.43833  0.26287  0.29364  1
 H  H13  1  0.19130  0.81506  0.66959  1
 H  H14  1  0.53749  0.16655  0.95057  1
 H  H15  1  0.80870  0.18494  0.33041  1
 H  H16  1  0.88505  0.02025  0.84697  1
 H  H17  1  0.94876  0.06197  0.65033  1
 H  H18  1  0.61495  0.52025  0.65303  1
 H  H19  1  0.93833  0.23713  0.79364  1
 H  H20  1  0.44876  0.43803  0.15033  1
 O  O1  1  0.71972  0.42651  0.39131  1
 O  O2  1  0.28028  0.57349  0.60869  1
 O  O3  1  0.78028  0.92651  0.10869  1
 O  O4  1  0.21972  0.07349  0.89131  1
