CIF file written using JARVIS-Tools package.
data_GaGe3
_symmetry_space_group_name_H-M  'P6_3/mmc'
_cell_length_a       6.00099
_cell_length_b       6.00099
_cell_length_c       5.07958
_cell_angle_alpha    90
_cell_angle_beta     90
_cell_angle_gamma    120

_symmetry_Int_Tables_number  194
_chemical_formula_structural  GaGe3
_chemical_formula_sum  Ga2Ge6
_cell_volume  158.41791355367866
_cell_formula_units_Z  2
loop_
  _symmetry_equiv_pos_site_id
 _symmetry_equiv_pos_as_xyz
 1  'x, y, z'
loop_
 _atom_site_type_symbol
 _atom_site_label
 _atom_site_symmetry_multiplicity
 _atom_site_fract_x
 _atom_site_fract_y
 _atom_site_fract_z
 _atom_site_fract_occupancy
 Ga  Ga1  1  0.33333  0.66667  0.75000  1
 Ga  Ga2  1  0.66667  0.33333  0.25000  1
 Ge  Ge1  1  0.16385  0.32770  0.25000  1
 Ge  Ge2  1  0.67230  0.83615  0.25000  1
 Ge  Ge3  1  0.16385  0.83615  0.25000  1
 Ge  Ge4  1  0.83615  0.67230  0.75000  1
 Ge  Ge5  1  0.32770  0.16385  0.75000  1
 Ge  Ge6  1  0.83615  0.16385  0.75000  1
