CIF file written using JARVIS-Tools package.
data_Lu2AlNi2
_symmetry_space_group_name_H-M  'Immm'
_cell_length_a       4.1044
_cell_length_b       5.33646
_cell_length_c       5.25598
_cell_angle_alpha    120.508
_cell_angle_beta     112.983
_cell_angle_gamma    90

_symmetry_Int_Tables_number  71
_chemical_formula_structural  Lu2AlNi2
_chemical_formula_sum  Lu2AlNi2
_cell_volume  88.41382690704842
_cell_formula_units_Z  1
loop_
  _symmetry_equiv_pos_site_id
 _symmetry_equiv_pos_as_xyz
 1  'x, y, z'
loop_
 _atom_site_type_symbol
 _atom_site_label
 _atom_site_symmetry_multiplicity
 _atom_site_fract_x
 _atom_site_fract_y
 _atom_site_fract_z
 _atom_site_fract_occupancy
 Al  Al1  1  0.00000  0.00000  0.00000  1
 Lu  Lu1  1  0.79740  0.29740  0.59480  1
 Lu  Lu2  1  0.20260  0.70260  0.40520  1
 Ni  Ni1  1  0.50000  0.73140  -0.00000  1
 Ni  Ni2  1  0.50000  0.26860  0.00000  1
