CIF file written using JARVIS-Tools package.
data_S
_symmetry_space_group_name_H-M  'P4/mmm'
_cell_length_a       20
_cell_length_b       20
_cell_length_c       21.9202
_cell_angle_alpha    90
_cell_angle_beta     90
_cell_angle_gamma    90

_symmetry_Int_Tables_number  123
_chemical_formula_structural  S
_chemical_formula_sum  S2
_cell_volume  8768.0904
_cell_formula_units_Z  2
loop_
  _symmetry_equiv_pos_site_id
 _symmetry_equiv_pos_as_xyz
 1  'x, y, z'
loop_
 _atom_site_type_symbol
 _atom_site_label
 _atom_site_symmetry_multiplicity
 _atom_site_fract_x
 _atom_site_fract_y
 _atom_site_fract_z
 _atom_site_fract_occupancy
 S  S1  1  0.50000  0.50000  0.54334  1
 S  S2  1  0.50000  0.50000  0.45666  1
