CIF file written using JARVIS-Tools package.
data_Ba2ZnB2O6
_symmetry_space_group_name_H-M  'Pca2_1'
_cell_length_a       8.78178
_cell_length_b       10.2701
_cell_length_c       15.023
_cell_angle_alpha    90
_cell_angle_beta     90
_cell_angle_gamma    90

_symmetry_Int_Tables_number  29
_chemical_formula_structural  Ba2ZnB2O6
_chemical_formula_sum  Ba6Zn8B6O48
_cell_volume  1354.9275372128532
_cell_formula_units_Z  8
loop_
  _symmetry_equiv_pos_site_id
 _symmetry_equiv_pos_as_xyz
 1  'x, y, z'
loop_
 _atom_site_type_symbol
 _atom_site_label
 _atom_site_symmetry_multiplicity
 _atom_site_fract_x
 _atom_site_fract_y
 _atom_site_fract_z
 _atom_site_fract_occupancy
 B  B1  1  0.00919  0.41907  0.01399  1
 B  B2  1  0.65501  0.91200  0.76595  1
 B  B3  1  0.55955  0.17138  0.51141  1
 B  B4  1  0.83907  0.15829  0.25156  1
 B  B5  1  0.99081  0.91907  0.98601  1
 B  B6  1  0.55955  0.67138  0.98859  1
 B  B7  1  0.16093  0.15829  0.75156  1
 B  B8  1  0.16093  0.65829  0.74844  1
 B  B9  1  0.34499  0.41200  0.23405  1
 B  B10  1  0.99081  0.41907  0.51399  1
 B  B11  1  0.44045  0.17138  0.01141  1
 B  B12  1  0.44045  0.67138  0.48859  1
 B  B13  1  0.83907  0.65829  0.24844  1
 B  B14  1  0.34499  0.91200  0.26595  1
 B  B15  1  0.65501  0.41200  0.73405  1
 B  B16  1  0.00919  0.91907  0.48601  1
 Ba  Ba1  1  0.13141  0.62687  0.38578  1
 Ba  Ba2  1  0.68677  0.91531  0.40257  1
 Ba  Ba3  1  0.32571  0.89040  0.61920  1
 Ba  Ba4  1  0.86859  0.62687  0.88578  1
 Ba  Ba5  1  0.31323  0.91531  0.90257  1
 Ba  Ba6  1  0.32571  0.39040  0.88080  1
 Ba  Ba7  1  0.31323  0.41531  0.59743  1
 Ba  Ba8  1  0.67429  0.39040  0.38080  1
 Ba  Ba9  1  0.21039  0.17669  0.38583  1
 Ba  Ba10  1  0.67429  0.89040  0.11920  1
 Ba  Ba11  1  0.68677  0.41531  0.09743  1
 Ba  Ba12  1  0.86859  0.12687  0.61422  1
 Ba  Ba13  1  0.21039  0.67669  0.11417  1
 Ba  Ba14  1  0.13141  0.12687  0.11422  1
 Ba  Ba15  1  0.78961  0.67669  0.61417  1
 Ba  Ba16  1  0.78961  0.17669  0.88583  1
 O  O1  1  0.47965  0.98175  0.27414  1
 O  O2  1  0.78962  0.48041  0.74585  1
 O  O3  1  0.34170  0.77730  0.26945  1
 O  O4  1  0.65830  0.77730  0.76945  1
 O  O5  1  0.46446  0.09011  0.08550  1
 O  O6  1  0.99352  0.36203  0.09852  1
 O  O7  1  0.96926  0.72723  0.22595  1
 O  O8  1  0.89443  0.39103  0.95406  1
 O  O9  1  0.89443  0.89103  0.54594  1
 O  O10  1  0.29459  0.22587  0.73322  1
 O  O11  1  0.53554  0.59011  0.91450  1
 O  O12  1  0.52035  0.98175  0.77414  1
 O  O13  1  0.30171  0.66076  0.53309  1
 O  O14  1  0.10557  0.89103  0.04594  1
 O  O15  1  0.47965  0.48175  0.22586  1
 O  O16  1  0.12506  0.00414  0.50720  1
 O  O17  1  0.46446  0.59011  0.41450  1
 O  O18  1  0.00648  0.36203  0.59852  1
 O  O19  1  0.54811  0.75949  0.51748  1
 O  O20  1  0.53554  0.09011  0.58550  1
 O  O21  1  0.30171  0.16076  0.96691  1
 O  O22  1  0.03074  0.22723  0.77405  1
 O  O23  1  0.52035  0.48175  0.72586  1
 O  O24  1  0.45189  0.25949  0.48252  1
 O  O25  1  0.45189  0.75949  0.01748  1
 O  O26  1  0.69829  0.16076  0.46691  1
 O  O27  1  0.10557  0.39103  0.45406  1
 O  O28  1  0.00648  0.86203  0.90148  1
 O  O29  1  0.15674  0.02377  0.74541  1
 O  O30  1  0.69829  0.66076  0.03309  1
 O  O31  1  0.70541  0.72587  0.26678  1
 O  O32  1  0.87494  0.50414  0.49280  1
 O  O33  1  0.21038  0.98041  0.25415  1
 O  O34  1  0.96926  0.22723  0.27405  1
 O  O35  1  0.78962  0.98041  0.75415  1
 O  O36  1  0.54811  0.25949  0.98252  1
 O  O37  1  0.03074  0.72723  0.72595  1
 O  O38  1  0.34170  0.27730  0.23055  1
 O  O39  1  0.99352  0.86203  0.40148  1
 O  O40  1  0.87494  0.00414  0.00720  1
 O  O41  1  0.29459  0.72587  0.76678  1
 O  O42  1  0.84326  0.52377  0.25459  1
 O  O43  1  0.15674  0.52377  0.75459  1
 O  O44  1  0.65830  0.27730  0.73055  1
 O  O45  1  0.70541  0.22587  0.23322  1
 O  O46  1  0.21038  0.48041  0.24585  1
 O  O47  1  0.84326  0.02377  0.24541  1
 O  O48  1  0.12506  0.50414  0.99280  1
 Zn  Zn1  1  0.50471  0.64971  0.29015  1
 Zn  Zn2  1  0.01077  0.90287  0.27370  1
 Zn  Zn3  1  0.98923  0.90287  0.77370  1
 Zn  Zn4  1  0.98923  0.40287  0.72630  1
 Zn  Zn5  1  0.49529  0.14971  0.70985  1
 Zn  Zn6  1  0.49529  0.64971  0.79015  1
 Zn  Zn7  1  0.50471  0.14971  0.20985  1
 Zn  Zn8  1  0.01077  0.40287  0.22630  1
