CIF file written using JARVIS-Tools package.
data_WSe2
_symmetry_space_group_name_H-M  'P-6m2'
_cell_length_a       3.32728
_cell_length_b       3.32727
_cell_length_c       28.885
_cell_angle_alpha    90
_cell_angle_beta     90
_cell_angle_gamma    120

_symmetry_Int_Tables_number  187
_chemical_formula_structural  WSe2
_chemical_formula_sum  W3Se6
_cell_volume  276.9364016965913
_cell_formula_units_Z  3
loop_
  _symmetry_equiv_pos_site_id
 _symmetry_equiv_pos_as_xyz
 1  'x, y, z'
loop_
 _atom_site_type_symbol
 _atom_site_label
 _atom_site_symmetry_multiplicity
 _atom_site_fract_x
 _atom_site_fract_y
 _atom_site_fract_z
 _atom_site_fract_occupancy
 Se  Se1  1  0.33333  0.66667  0.40489  1
 Se  Se2  1  0.66667  0.33333  0.17592  1
 Se  Se3  1  0.66667  0.33333  0.63381  1
 Se  Se4  1  0.33333  0.66667  0.28839  1
 Se  Se5  1  0.66667  0.33333  0.05948  1
 Se  Se6  1  0.66667  0.33333  0.51737  1
 W  W1  1  0.66667  0.33333  0.34664  1
 W  W2  1  0.33333  0.66667  0.11766  1
 W  W3  1  0.33333  0.66667  0.57562  1
