CIF file written using JARVIS-Tools package.
data_Co4H
_symmetry_space_group_name_H-M  'P-3m1'
_cell_length_a       2.5261
_cell_length_b       2.5261
_cell_length_c       8.15305
_cell_angle_alpha    90
_cell_angle_beta     90
_cell_angle_gamma    120

_symmetry_Int_Tables_number  164
_chemical_formula_structural  Co4H
_chemical_formula_sum  Co4H
_cell_volume  45.05589571384396
_cell_formula_units_Z  1
loop_
  _symmetry_equiv_pos_site_id
 _symmetry_equiv_pos_as_xyz
 1  'x, y, z'
loop_
 _atom_site_type_symbol
 _atom_site_label
 _atom_site_symmetry_multiplicity
 _atom_site_fract_x
 _atom_site_fract_y
 _atom_site_fract_z
 _atom_site_fract_occupancy
 Co  Co1  1  0.33333  0.66667  0.86473  1
 Co  Co2  1  0.33333  0.66667  0.37794  1
 Co  Co3  1  0.66667  0.33333  0.13527  1
 Co  Co4  1  0.66667  0.33333  0.62206  1
 H  H1  1  0.00000  0.00000  0.00000  1
