CIF file written using JARVIS-Tools package.
data_Tm2TiO5
_symmetry_space_group_name_H-M  'Cmcm'
_cell_length_a       4.02833
_cell_length_b       5.79431
_cell_length_c       10.3802
_cell_angle_alpha    90
_cell_angle_beta     90
_cell_angle_gamma    69.6587

_symmetry_Int_Tables_number  63
_chemical_formula_structural  Tm2TiO5
_chemical_formula_sum  Tm4Ti2O0
_cell_volume  227.17842688735337
_cell_formula_units_Z  2
loop_
  _symmetry_equiv_pos_site_id
 _symmetry_equiv_pos_as_xyz
 1  'x, y, z'
loop_
 _atom_site_type_symbol
 _atom_site_label
 _atom_site_symmetry_multiplicity
 _atom_site_fract_x
 _atom_site_fract_y
 _atom_site_fract_z
 _atom_site_fract_occupancy
 O  O1  1  0.05019  0.89962  0.37749  1
 O  O2  1  0.05019  0.89962  0.12251  1
 O  O3  1  0.70875  0.58250  0.91017  1
 O  O4  1  0.70875  0.58250  0.58983  1
 O  O5  1  0.27337  0.45327  0.75000  1
 O  O6  1  0.72663  0.54673  0.25000  1
 O  O7  1  0.29125  0.41750  0.08983  1
 O  O8  1  0.29125  0.41750  0.41017  1
 O  O9  1  0.94981  0.10038  0.62251  1
 O  O10  1  0.94981  0.10038  0.87749  1
 Ti  Ti1  1  0.17201  0.65597  0.25000  1
 Ti  Ti2  1  0.82799  0.34403  0.75000  1
 Tm  Tm1  1  0.14306  0.71387  0.93062  1
 Tm  Tm2  1  0.14306  0.71387  0.56938  1
 Tm  Tm3  1  0.85694  0.28613  0.06938  1
 Tm  Tm4  1  0.85694  0.28613  0.43062  1
