CIF file written using JARVIS-Tools package.
data_SBr
_symmetry_space_group_name_H-M  'Aea2'
_cell_length_a       4.12872
_cell_length_b       4.12873
_cell_length_c       13.9891
_cell_angle_alpha    90
_cell_angle_beta     90
_cell_angle_gamma    105.254

_symmetry_Int_Tables_number  41
_chemical_formula_structural  SBr
_chemical_formula_sum  S4Br4
_cell_volume  230.06240430444004
_cell_formula_units_Z  4
loop_
  _symmetry_equiv_pos_site_id
 _symmetry_equiv_pos_as_xyz
 1  'x, y, z'
loop_
 _atom_site_type_symbol
 _atom_site_label
 _atom_site_symmetry_multiplicity
 _atom_site_fract_x
 _atom_site_fract_y
 _atom_site_fract_z
 _atom_site_fract_occupancy
 Br  Br1  1  0.93281  0.05128  0.83484  1
 Br  Br2  1  0.05128  0.93281  0.16516  1
 Br  Br3  1  0.43281  0.55128  0.66516  1
 Br  Br4  1  0.55128  0.43281  0.33484  1
 S  S1  1  0.19680  0.41812  0.95439  1
 S  S2  1  0.41812  0.19680  0.04561  1
 S  S3  1  0.69680  0.91812  0.54561  1
 S  S4  1  0.91812  0.69680  0.45439  1
