CIF file written using JARVIS-Tools package.
data_Sr2NiTeO6
_symmetry_space_group_name_H-M  'Immm'
_cell_length_a       6.22885
_cell_length_b       6.22886
_cell_length_c       6.22885
_cell_angle_alpha    127.964
_cell_angle_beta     127.786
_cell_angle_gamma    76.8278

_symmetry_Int_Tables_number  71
_chemical_formula_structural  Sr2NiTeO6
_chemical_formula_sum  Sr2NiTeO6
_cell_volume  146.2076072698821
_cell_formula_units_Z  1
loop_
  _symmetry_equiv_pos_site_id
 _symmetry_equiv_pos_as_xyz
 1  'x, y, z'
loop_
 _atom_site_type_symbol
 _atom_site_label
 _atom_site_symmetry_multiplicity
 _atom_site_fract_x
 _atom_site_fract_y
 _atom_site_fract_z
 _atom_site_fract_occupancy
 Ni  Ni1  1  0.00000  0.00000  0.00000  1
 O  O1  1  0.75581  0.75764  0.51345  1
 O  O2  1  0.24419  0.24236  0.48655  1
 O  O3  1  0.79796  0.29796  0.50000  1
 O  O4  1  0.75581  0.24236  -0.00183  1
 O  O5  1  0.24419  0.75764  0.00183  1
 O  O6  1  0.20204  0.70204  0.50000  1
 Sr  Sr1  1  0.30384  0.30384  -0.00000  1
 Sr  Sr2  1  0.69616  0.69616  0.00000  1
 Te  Te1  1  0.00000  0.50000  0.50000  1
