CIF file written using JARVIS-Tools package.
data_SmCo5
_symmetry_space_group_name_H-M  'P6/mmm'
_cell_length_a       3.93475
_cell_length_b       4.95276
_cell_length_c       4.95196
_cell_angle_alpha    120.005
_cell_angle_beta     90
_cell_angle_gamma    90

_symmetry_Int_Tables_number  191
_chemical_formula_structural  SmCo5
_chemical_formula_sum  SmCo5
_cell_volume  83.56963598325913
_cell_formula_units_Z  1
loop_
  _symmetry_equiv_pos_site_id
 _symmetry_equiv_pos_as_xyz
 1  'x, y, z'
loop_
 _atom_site_type_symbol
 _atom_site_label
 _atom_site_symmetry_multiplicity
 _atom_site_fract_x
 _atom_site_fract_y
 _atom_site_fract_z
 _atom_site_fract_occupancy
 Co  Co1  1  0.00000  0.33331  0.66671  1
 Co  Co2  1  0.00000  0.66660  0.33329  1
 Co  Co3  1  0.50000  0.50002  -0.00000  1
 Co  Co4  1  0.50000  0.50000  0.50002  1
 Co  Co5  1  0.50000  0.99999  0.49998  1
 Sm  Sm1  1  0.00000  0.99998  0.00000  1
