CIF file written using JARVIS-Tools package.
data_HS
_symmetry_space_group_name_H-M  'P4mm'
_cell_length_a       20
_cell_length_b       20
_cell_length_c       21.3444
_cell_angle_alpha    90
_cell_angle_beta     90
_cell_angle_gamma    90

_symmetry_Int_Tables_number  99
_chemical_formula_structural  HS
_chemical_formula_sum  HS
_cell_volume  8537.7652
_cell_formula_units_Z  1
loop_
  _symmetry_equiv_pos_site_id
 _symmetry_equiv_pos_as_xyz
 1  'x, y, z'
loop_
 _atom_site_type_symbol
 _atom_site_label
 _atom_site_symmetry_multiplicity
 _atom_site_fract_x
 _atom_site_fract_y
 _atom_site_fract_z
 _atom_site_fract_occupancy
 H  H1  1  0.50000  0.50000  0.46836  1
 S  S1  1  0.50000  0.50000  0.53164  1
