CIF file written using JARVIS-Tools package.
data_Al2ZnS4
_symmetry_space_group_name_H-M  'R-3m'
_cell_length_a       3.68598
_cell_length_b       3.68598
_cell_length_c       12.3364
_cell_angle_alpha    81.4082
_cell_angle_beta     81.4082
_cell_angle_gamma    60

_symmetry_Int_Tables_number  166
_chemical_formula_structural  Al2ZnS4
_chemical_formula_sum  Al2ZnS4
_cell_volume  142.97684159388382
_cell_formula_units_Z  1
loop_
  _symmetry_equiv_pos_site_id
 _symmetry_equiv_pos_as_xyz
 1  'x, y, z'
loop_
 _atom_site_type_symbol
 _atom_site_label
 _atom_site_symmetry_multiplicity
 _atom_site_fract_x
 _atom_site_fract_y
 _atom_site_fract_z
 _atom_site_fract_occupancy
 Al  Al1  1  0.23669  0.23669  0.28992  1
 Al  Al2  1  0.76216  0.76216  0.71351  1
 S  S1  1  0.12213  0.12213  0.63362  1
 S  S2  1  0.87673  0.87673  0.36980  1
 S  S3  1  0.70242  0.70242  0.89274  1
 S  S4  1  0.29644  0.29644  0.11069  1
 Zn  Zn1  1  0.99943  0.99943  0.00172  1
