CIF file written using JARVIS-Tools package.
data_MnMoO4
_symmetry_space_group_name_H-M  'P2/c'
_cell_length_a       4.49597
_cell_length_b       4.81605
_cell_length_c       5.50376
_cell_angle_alpha    90
_cell_angle_beta     90
_cell_angle_gamma    90.4476

_symmetry_Int_Tables_number  13
_chemical_formula_structural  MnMoO4
_chemical_formula_sum  Mn2Mo2O8
_cell_volume  119.16829817487225
_cell_formula_units_Z  2
loop_
  _symmetry_equiv_pos_site_id
 _symmetry_equiv_pos_as_xyz
 1  'x, y, z'
loop_
 _atom_site_type_symbol
 _atom_site_label
 _atom_site_symmetry_multiplicity
 _atom_site_fract_x
 _atom_site_fract_y
 _atom_site_fract_z
 _atom_site_fract_occupancy
 Mn  Mn1  1  -0.00000  0.25000  0.12276  1
 Mn  Mn2  1  -0.00000  0.75000  0.87724  1
 Mo  Mo1  1  0.50000  0.75000  0.36342  1
 Mo  Mo2  1  0.50000  0.25000  0.63658  1
 O  O1  1  0.75002  0.40722  0.36132  1
 O  O2  1  0.24998  0.09278  0.36132  1
 O  O3  1  0.24998  0.59278  0.63868  1
 O  O4  1  0.75002  0.90722  0.63868  1
 O  O5  1  0.76428  0.41797  0.87128  1
 O  O6  1  0.23572  0.08203  0.87128  1
 O  O7  1  0.23572  0.58203  0.12872  1
 O  O8  1  0.76428  0.91797  0.12872  1
