CIF file written using JARVIS-Tools package.
data_Cu2BrCl
_symmetry_space_group_name_H-M  'R-3m'
_cell_length_a       6.39538
_cell_length_b       6.39539
_cell_length_c       6.39537
_cell_angle_alpha    33.8145
_cell_angle_beta     33.8145
_cell_angle_gamma    33.8145

_symmetry_Int_Tables_number  166
_chemical_formula_structural  Cu2BrCl
_chemical_formula_sum  Cu2BrCl
_cell_volume  72.18805144710046
_cell_formula_units_Z  1
loop_
  _symmetry_equiv_pos_site_id
 _symmetry_equiv_pos_as_xyz
 1  'x, y, z'
loop_
 _atom_site_type_symbol
 _atom_site_label
 _atom_site_symmetry_multiplicity
 _atom_site_fract_x
 _atom_site_fract_y
 _atom_site_fract_z
 _atom_site_fract_occupancy
 Br  Br1  1  0.00000  0.00000  0.00000  1
 Cl  Cl1  1  0.50000  0.50000  0.50000  1
 Cu  Cu1  1  0.24597  0.24597  0.24597  1
 Cu  Cu2  1  0.75403  0.75403  0.75403  1
