CIF file written using JARVIS-Tools package.
data_ZrInAu2
_symmetry_space_group_name_H-M  'P4/mmm'
_cell_length_a       3.29289
_cell_length_b       3.29289
_cell_length_c       7.51644
_cell_angle_alpha    90
_cell_angle_beta     90
_cell_angle_gamma    90

_symmetry_Int_Tables_number  123
_chemical_formula_structural  ZrInAu2
_chemical_formula_sum  ZrInAu2
_cell_volume  81.50183009795914
_cell_formula_units_Z  1
loop_
  _symmetry_equiv_pos_site_id
 _symmetry_equiv_pos_as_xyz
 1  'x, y, z'
loop_
 _atom_site_type_symbol
 _atom_site_label
 _atom_site_symmetry_multiplicity
 _atom_site_fract_x
 _atom_site_fract_y
 _atom_site_fract_z
 _atom_site_fract_occupancy
 Au  Au1  1  0.00000  0.00000  0.73887  1
 Au  Au2  1  0.00000  0.00000  0.26113  1
 In  In1  1  0.50000  0.50000  0.00000  1
 Zr  Zr1  1  0.50000  0.50000  0.50000  1
