CIF file written using JARVIS-Tools package.
data_NdSi2Ir2
_symmetry_space_group_name_H-M  'I4/mmm'
_cell_length_a       4.24967
_cell_length_b       4.24967
_cell_length_c       5.8371
_cell_angle_alpha    111.347
_cell_angle_beta     111.347
_cell_angle_gamma    90

_symmetry_Int_Tables_number  139
_chemical_formula_structural  NdSi2Ir2
_chemical_formula_sum  NdSi2Ir2
_cell_volume  90.37413881454812
_cell_formula_units_Z  1
loop_
  _symmetry_equiv_pos_site_id
 _symmetry_equiv_pos_as_xyz
 1  'x, y, z'
loop_
 _atom_site_type_symbol
 _atom_site_label
 _atom_site_symmetry_multiplicity
 _atom_site_fract_x
 _atom_site_fract_y
 _atom_site_fract_z
 _atom_site_fract_occupancy
 Ir  Ir1  1  0.65035  0.65035  0.30071  1
 Ir  Ir2  1  0.38565  0.38565  0.77129  1
 Nd  Nd1  1  0.01800  0.01800  0.03599  1
 Si  Si1  1  0.76800  0.26800  0.53600  1
 Si  Si2  1  0.26800  0.76800  0.53600  1
