CIF file written using JARVIS-Tools package.
data_Tl2Pd3S2
_symmetry_space_group_name_H-M  'R-3m'
_cell_length_a       5.86545
_cell_length_b       5.86545
_cell_length_c       5.86545
_cell_angle_alpha    60.6625
_cell_angle_beta     60.6624
_cell_angle_gamma    60.6625

_symmetry_Int_Tables_number  166
_chemical_formula_structural  Tl2Pd3S2
_chemical_formula_sum  Tl2Pd3S2
_cell_volume  144.82237088993836
_cell_formula_units_Z  1
loop_
  _symmetry_equiv_pos_site_id
 _symmetry_equiv_pos_as_xyz
 1  'x, y, z'
loop_
 _atom_site_type_symbol
 _atom_site_label
 _atom_site_symmetry_multiplicity
 _atom_site_fract_x
 _atom_site_fract_y
 _atom_site_fract_z
 _atom_site_fract_occupancy
 Pd  Pd1  1  -0.00000  -0.00000  0.50000  1
 Pd  Pd2  1  0.00000  0.50000  -0.00000  1
 Pd  Pd3  1  0.50000  -0.00000  0.00000  1
 S  S1  1  0.71967  0.71967  0.71967  1
 S  S2  1  0.28033  0.28033  0.28033  1
 Tl  Tl1  1  0.00000  0.00000  0.00000  1
 Tl  Tl2  1  0.50000  0.50000  0.50000  1
