CIF file written using JARVIS-Tools package.
data_K4NaCl5
_symmetry_space_group_name_H-M  'C2/m'
_cell_length_a       7.51871
_cell_length_b       7.51871
_cell_length_c       10.6463
_cell_angle_alpha    61.7629
_cell_angle_beta     61.763
_cell_angle_gamma    33.4146

_symmetry_Int_Tables_number  12
_chemical_formula_structural  K4NaCl5
_chemical_formula_sum  K4NaCl5
_cell_volume  288.1719157147963
_cell_formula_units_Z  1
loop_
  _symmetry_equiv_pos_site_id
 _symmetry_equiv_pos_as_xyz
 1  'x, y, z'
loop_
 _atom_site_type_symbol
 _atom_site_label
 _atom_site_symmetry_multiplicity
 _atom_site_fract_x
 _atom_site_fract_y
 _atom_site_fract_z
 _atom_site_fract_occupancy
 Cl  Cl1  1  -0.00000  -0.00000  0.50000  1
 Cl  Cl2  1  0.58922  0.58922  0.09170  1
 Cl  Cl3  1  0.19497  0.19497  0.71522  1
 Cl  Cl4  1  0.80503  0.80503  0.28478  1
 Cl  Cl5  1  0.41078  0.41078  0.90830  1
 K  K1  1  0.60408  0.60408  0.59945  1
 K  K2  1  0.19650  0.19650  0.19298  1
 K  K3  1  0.80350  0.80350  0.80702  1
 K  K4  1  0.39592  0.39592  0.40055  1
 Na  Na1  1  0.00000  0.00000  0.00000  1
