CIF file written using JARVIS-Tools package.
data_Na24In5O15
_symmetry_space_group_name_H-M  'I-43m'
_cell_length_a       9.67861
_cell_length_b       9.67861
_cell_length_c       9.67861
_cell_angle_alpha    109.471
_cell_angle_beta     109.471
_cell_angle_gamma    109.471

_symmetry_Int_Tables_number  217
_chemical_formula_structural  Na24In5O15
_chemical_formula_sum  Na24In5O5
_cell_volume  697.9388624637237
_cell_formula_units_Z  1
loop_
  _symmetry_equiv_pos_site_id
 _symmetry_equiv_pos_as_xyz
 1  'x, y, z'
loop_
 _atom_site_type_symbol
 _atom_site_label
 _atom_site_symmetry_multiplicity
 _atom_site_fract_x
 _atom_site_fract_y
 _atom_site_fract_z
 _atom_site_fract_occupancy
 In  In1  1  0.00000  0.71400  -0.00000  1
 In  In2  1  -0.00000  -0.00000  0.71400  1
 In  In3  1  0.71400  0.00000  -0.00000  1
 In  In4  1  0.28600  0.28600  0.28600  1
 In  In5  1  0.00000  0.00000  0.00000  1
 Na  Na1  1  0.54546  0.26397  0.54546  1
 Na  Na2  1  0.21650  0.43619  -0.00000  1
 Na  Na3  1  0.21650  -0.00000  0.43619  1
 Na  Na4  1  0.78031  0.56381  0.56381  1
 Na  Na5  1  0.43619  -0.00000  0.21650  1
 Na  Na6  1  0.56381  0.56381  0.78031  1
 Na  Na7  1  -0.00000  0.21650  0.43619  1
 Na  Na8  1  0.21969  0.78350  0.78350  1
 Na  Na9  1  0.56381  0.78031  0.56381  1
 Na  Na10  1  0.45454  -0.00000  0.71851  1
 Na  Na11  1  0.71851  0.45454  -0.00000  1
 Na  Na12  1  0.78350  0.21969  0.78350  1
 Na  Na13  1  0.71851  -0.00000  0.45454  1
 Na  Na14  1  0.26397  0.54546  0.54546  1
 Na  Na15  1  0.45454  0.71851  -0.00000  1
 Na  Na16  1  0.78350  0.78350  0.21969  1
 Na  Na17  1  0.00000  0.45454  0.71851  1
 Na  Na18  1  0.43619  0.21650  -0.00000  1
 Na  Na19  1  -0.00000  0.43619  0.21650  1
 Na  Na20  1  0.54546  0.54546  0.26397  1
 Na  Na21  1  0.28149  0.73603  0.28149  1
 Na  Na22  1  -0.00000  0.71851  0.45454  1
 Na  Na23  1  0.28149  0.28149  0.73603  1
 Na  Na24  1  0.73603  0.28149  0.28149  1
 O  O1  1  0.50000  0.50000  -0.00000  1
 O  O2  1  0.21511  0.00000  0.69192  1
 O  O3  1  0.30808  0.30808  0.52319  1
 O  O4  1  0.21511  0.69192  -0.00000  1
 O  O5  1  0.50000  0.00000  0.50000  1
 O  O6  1  0.00000  0.21511  0.69192  1
 O  O7  1  -0.00000  0.69192  0.21511  1
 O  O8  1  0.30808  0.52319  0.30808  1
 O  O9  1  0.69192  0.21511  -0.00000  1
 O  O10  1  0.78489  0.47681  0.78489  1
 O  O11  1  0.52319  0.30808  0.30808  1
 O  O12  1  0.78489  0.78489  0.47681  1
 O  O13  1  0.69192  -0.00000  0.21511  1
 O  O14  1  0.47681  0.78489  0.78489  1
 O  O15  1  -0.00000  0.50000  0.50000  1
