CIF file written using JARVIS-Tools package.
data_RbSrCO3F
_symmetry_space_group_name_H-M  'P-6m2'
_cell_length_a       5.31417
_cell_length_b       5.31418
_cell_length_c       4.79902
_cell_angle_alpha    90
_cell_angle_beta     90
_cell_angle_gamma    120

_symmetry_Int_Tables_number  187
_chemical_formula_structural  RbSrCO3F
_chemical_formula_sum  RbSrCO3F
_cell_volume  117.36931761277921
_cell_formula_units_Z  1
loop_
  _symmetry_equiv_pos_site_id
 _symmetry_equiv_pos_as_xyz
 1  'x, y, z'
loop_
 _atom_site_type_symbol
 _atom_site_label
 _atom_site_symmetry_multiplicity
 _atom_site_fract_x
 _atom_site_fract_y
 _atom_site_fract_z
 _atom_site_fract_occupancy
 C  C1  1  0.33333  0.66667  0.50000  1
 F  F1  1  0.00000  0.00000  0.00000  1
 O  O1  1  0.47449  0.94897  0.50000  1
 O  O2  1  0.47449  0.52551  0.50000  1
 O  O3  1  0.05103  0.52551  0.50000  1
 Rb  Rb1  1  0.66667  0.33333  0.00000  1
 Sr  Sr1  1  0.00000  0.00000  0.50000  1
