CIF file written using JARVIS-Tools package.
data_Sm2InPd2
_symmetry_space_group_name_H-M  'P4/mbm'
_cell_length_a       3.79384
_cell_length_b       7.80207
_cell_length_c       7.80207
_cell_angle_alpha    90
_cell_angle_beta     90
_cell_angle_gamma    90

_symmetry_Int_Tables_number  127
_chemical_formula_structural  Sm2InPd2
_chemical_formula_sum  Sm4In2Pd4
_cell_volume  230.9397134441713
_cell_formula_units_Z  2
loop_
  _symmetry_equiv_pos_site_id
 _symmetry_equiv_pos_as_xyz
 1  'x, y, z'
loop_
 _atom_site_type_symbol
 _atom_site_label
 _atom_site_symmetry_multiplicity
 _atom_site_fract_x
 _atom_site_fract_y
 _atom_site_fract_z
 _atom_site_fract_occupancy
 In  In1  1  0.00000  0.00000  0.00000  1
 In  In2  1  0.00000  0.50000  0.50000  1
 Pd  Pd1  1  0.00000  0.12741  0.37259  1
 Pd  Pd2  1  0.00000  0.37259  0.87259  1
 Pd  Pd3  1  0.00000  0.62741  0.12741  1
 Pd  Pd4  1  0.00000  0.87259  0.62741  1
 Sm  Sm1  1  0.50000  0.82578  0.32578  1
 Sm  Sm2  1  0.50000  0.67422  0.82578  1
 Sm  Sm3  1  0.50000  0.32578  0.17422  1
 Sm  Sm4  1  0.50000  0.17422  0.67422  1
