CIF file written using JARVIS-Tools package.
data_Ca2SiIr2
_symmetry_space_group_name_H-M  'C2/c'
_cell_length_a       5.68868
_cell_length_b       5.68867
_cell_length_c       7.33044
_cell_angle_alpha    80.647
_cell_angle_beta     80.647
_cell_angle_gamma    61.1877

_symmetry_Int_Tables_number  15
_chemical_formula_structural  Ca2SiIr2
_chemical_formula_sum  Ca4Si2Ir4
_cell_volume  204.11522803395025
_cell_formula_units_Z  2
loop_
  _symmetry_equiv_pos_site_id
 _symmetry_equiv_pos_as_xyz
 1  'x, y, z'
loop_
 _atom_site_type_symbol
 _atom_site_label
 _atom_site_symmetry_multiplicity
 _atom_site_fract_x
 _atom_site_fract_y
 _atom_site_fract_z
 _atom_site_fract_occupancy
 Ca  Ca1  1  0.72191  0.98694  0.13913  1
 Ca  Ca2  1  0.01306  0.27809  0.36087  1
 Ca  Ca3  1  0.27809  0.01306  0.86087  1
 Ca  Ca4  1  0.98694  0.72191  0.63913  1
 Ir  Ir1  1  0.77700  0.48949  0.98971  1
 Ir  Ir2  1  0.51051  0.22300  0.51029  1
 Ir  Ir3  1  0.22300  0.51051  0.01029  1
 Ir  Ir4  1  0.48949  0.77700  0.48971  1
 Si  Si1  1  0.57090  0.42910  0.75000  1
 Si  Si2  1  0.42910  0.57090  0.25000  1
