CIF file written using JARVIS-Tools package.
data_NiAg2O2
_symmetry_space_group_name_H-M  'C2/m'
_cell_length_a       2.90991
_cell_length_b       2.90991
_cell_length_c       9.97838
_cell_angle_alpha    64.629
_cell_angle_beta     64.629
_cell_angle_gamma    60.0872

_symmetry_Int_Tables_number  12
_chemical_formula_structural  NiAg2O2
_chemical_formula_sum  NiAg2O2
_cell_volume  63.6356991427058
_cell_formula_units_Z  1
loop_
  _symmetry_equiv_pos_site_id
 _symmetry_equiv_pos_as_xyz
 1  'x, y, z'
loop_
 _atom_site_type_symbol
 _atom_site_label
 _atom_site_symmetry_multiplicity
 _atom_site_fract_x
 _atom_site_fract_y
 _atom_site_fract_z
 _atom_site_fract_occupancy
 Ag  Ag1  1  0.70165  0.70165  0.63274  1
 Ag  Ag2  1  0.29835  0.29835  0.36726  1
 Ni  Ni1  1  0.00000  0.00000  0.00000  1
 O  O1  1  0.55705  0.55705  0.11146  1
 O  O2  1  0.44295  0.44295  0.88854  1
