CIF file written using JARVIS-Tools package.
data_AgAsO3
_symmetry_space_group_name_H-M  'R-3'
_cell_length_a       6.41231
_cell_length_b       6.41231
_cell_length_c       6.41231
_cell_angle_alpha    45.7385
_cell_angle_beta     45.7384
_cell_angle_gamma    45.7384

_symmetry_Int_Tables_number  148
_chemical_formula_structural  AgAsO3
_chemical_formula_sum  Ag2As2O6
_cell_volume  123.27506411034194
_cell_formula_units_Z  2
loop_
  _symmetry_equiv_pos_site_id
 _symmetry_equiv_pos_as_xyz
 1  'x, y, z'
loop_
 _atom_site_type_symbol
 _atom_site_label
 _atom_site_symmetry_multiplicity
 _atom_site_fract_x
 _atom_site_fract_y
 _atom_site_fract_z
 _atom_site_fract_occupancy
 Ag  Ag1  1  0.14367  0.14367  0.14367  1
 Ag  Ag2  1  0.85633  0.85633  0.85633  1
 As  As1  1  0.33587  0.33587  0.33587  1
 As  As2  1  0.66413  0.66413  0.66413  1
 O  O1  1  0.67986  0.05768  0.44696  1
 O  O2  1  0.94232  0.55304  0.32014  1
 O  O3  1  0.55304  0.32014  0.94232  1
 O  O4  1  0.44696  0.67986  0.05768  1
 O  O5  1  0.05768  0.44696  0.67986  1
 O  O6  1  0.32014  0.94232  0.55304  1
