CIF file written using JARVIS-Tools package.
data_Fe21W2C6
_symmetry_space_group_name_H-M  'Fm-3m'
_cell_length_a       7.2923
_cell_length_b       7.29231
_cell_length_c       7.29191
_cell_angle_alpha    59.9952
_cell_angle_beta     59.9951
_cell_angle_gamma    60.0003

_symmetry_Int_Tables_number  225
_chemical_formula_structural  Fe21W2C6
_chemical_formula_sum  Fe2W2C6
_cell_volume  274.1731282813703
_cell_formula_units_Z  1
loop_
  _symmetry_equiv_pos_site_id
 _symmetry_equiv_pos_as_xyz
 1  'x, y, z'
loop_
 _atom_site_type_symbol
 _atom_site_label
 _atom_site_symmetry_multiplicity
 _atom_site_fract_x
 _atom_site_fract_y
 _atom_site_fract_z
 _atom_site_fract_occupancy
 C  C1  1  0.72427  0.27574  0.72424  1
 C  C2  1  0.27574  0.72427  0.72424  1
 C  C3  1  0.27576  0.27576  0.72425  1
 C  C4  1  0.27573  0.72426  0.27577  1
 C  C5  1  0.72424  0.72424  0.27575  1
 C  C6  1  0.72426  0.27573  0.27576  1
 Fe  Fe1  1  0.33374  0.00001  0.99997  1
 Fe  Fe2  1  0.00002  0.33375  0.66625  1
 Fe  Fe3  1  0.66627  -0.00001  0.00003  1
 Fe  Fe4  1  0.00001  0.33373  -0.00003  1
 Fe  Fe5  1  0.66625  0.99998  0.33375  1
 Fe  Fe6  1  0.33376  0.00002  0.66625  1
 Fe  Fe7  1  0.61671  0.14983  0.61673  1
 Fe  Fe8  1  0.61669  0.61669  0.14986  1
 Fe  Fe9  1  0.33371  0.66629  0.00000  1
 Fe  Fe10  1  0.00000  0.00000  1.00000  1
 Fe  Fe11  1  0.99999  0.66627  0.00003  1
 Fe  Fe12  1  0.61671  0.61671  0.61677  1
 Fe  Fe13  1  0.14983  0.61671  0.61673  1
 Fe  Fe14  1  0.00001  0.00001  0.66621  1
 Fe  Fe15  1  0.38329  0.85017  0.38327  1
 Fe  Fe16  1  0.85017  0.38329  0.38327  1
 Fe  Fe17  1  0.66629  0.33371  -0.00000  1
 Fe  Fe18  1  0.99998  0.66625  0.33375  1
 Fe  Fe19  1  0.38331  0.38331  0.85014  1
 Fe  Fe20  1  0.38329  0.38329  0.38323  1
 Fe  Fe21  1  0.99999  0.99999  0.33379  1
 W  W1  1  0.24997  0.24997  0.25005  1
 W  W2  1  0.75002  0.75002  0.74995  1
