CIF file written using JARVIS-Tools package.
data_Yb4SmS5
_symmetry_space_group_name_H-M  'Immm'
_cell_length_a       10.5395
_cell_length_b       10.5395
_cell_length_c       10.5395
_cell_angle_alpha    158.357
_cell_angle_beta     149.102
_cell_angle_gamma    38.0398

_symmetry_Int_Tables_number  71
_chemical_formula_structural  Yb4SmS5
_chemical_formula_sum  Yb4SmS5
_cell_volume  221.42464329371666
_cell_formula_units_Z  1
loop_
  _symmetry_equiv_pos_site_id
 _symmetry_equiv_pos_as_xyz
 1  'x, y, z'
loop_
 _atom_site_type_symbol
 _atom_site_label
 _atom_site_symmetry_multiplicity
 _atom_site_fract_x
 _atom_site_fract_y
 _atom_site_fract_z
 _atom_site_fract_occupancy
 S  S1  1  0.80036  0.80036  -0.00000  1
 S  S2  1  0.39825  0.39825  -0.00000  1
 S  S3  1  0.00000  0.00000  0.00000  1
 S  S4  1  0.60175  0.60175  0.00000  1
 S  S5  1  0.19964  0.19964  0.00000  1
 Sm  Sm1  1  0.50000  -0.00000  0.50000  1
 Yb  Yb1  1  0.10109  0.60109  0.50000  1
 Yb  Yb2  1  0.70110  0.20110  0.50000  1
 Yb  Yb3  1  0.29890  0.79890  0.50000  1
 Yb  Yb4  1  0.89891  0.39891  0.50000  1
