CIF file written using JARVIS-Tools package.
data_LiSiBiO4
_symmetry_space_group_name_H-M  'Pna2_1'
_cell_length_a       5.17808
_cell_length_b       7.93036
_cell_length_c       8.40023
_cell_angle_alpha    90
_cell_angle_beta     90
_cell_angle_gamma    90

_symmetry_Int_Tables_number  33
_chemical_formula_structural  LiSiBiO4
_chemical_formula_sum  Li4Si4Bi4O6
_cell_volume  344.94755478101337
_cell_formula_units_Z  4
loop_
  _symmetry_equiv_pos_site_id
 _symmetry_equiv_pos_as_xyz
 1  'x, y, z'
loop_
 _atom_site_type_symbol
 _atom_site_label
 _atom_site_symmetry_multiplicity
 _atom_site_fract_x
 _atom_site_fract_y
 _atom_site_fract_z
 _atom_site_fract_occupancy
 Bi  Bi1  1  0.95866  0.51051  0.74776  1
 Bi  Bi2  1  0.45866  0.48949  0.25224  1
 Bi  Bi3  1  0.45866  0.98949  0.24776  1
 Bi  Bi4  1  0.95866  0.01051  0.75224  1
 Li  Li1  1  0.96923  0.79887  0.08484  1
 Li  Li2  1  0.46923  0.20113  0.91516  1
 Li  Li3  1  0.46923  0.70113  0.58484  1
 Li  Li4  1  0.96923  0.29887  0.41516  1
 O  O1  1  0.74675  0.63521  0.94422  1
 O  O2  1  0.09792  0.04654  0.07917  1
 O  O3  1  0.79268  0.28353  0.21592  1
 O  O4  1  0.33057  0.24092  0.39634  1
 O  O5  1  0.79268  0.78353  0.28408  1
 O  O6  1  0.09792  0.54654  0.42083  1
 O  O7  1  0.24675  0.36479  0.05578  1
 O  O8  1  0.33057  0.74092  0.10366  1
 O  O9  1  0.83057  0.75908  0.60366  1
 O  O10  1  0.29268  0.71647  0.78408  1
 O  O11  1  0.59792  0.45346  0.57917  1
 O  O12  1  0.29268  0.21647  0.71592  1
 O  O13  1  0.24675  0.86479  0.44422  1
 O  O14  1  0.59792  0.95346  0.92083  1
 O  O15  1  0.74675  0.13521  0.55578  1
 O  O16  1  0.83057  0.25908  0.89634  1
 Si  Si1  1  0.48753  0.75806  0.93103  1
 Si  Si2  1  0.48753  0.25806  0.56897  1
 Si  Si3  1  0.98753  0.74194  0.43103  1
 Si  Si4  1  0.98753  0.24194  0.06897  1
