CIF file written using JARVIS-Tools package.
data_CuNiO2
_symmetry_space_group_name_H-M  'C2/m'
_cell_length_a       3.02553
_cell_length_b       3.02553
_cell_length_c       5.89143
_cell_angle_alpha    63.256
_cell_angle_beta     116.744
_cell_angle_gamma    123.629

_symmetry_Int_Tables_number  12
_chemical_formula_structural  CuNiO2
_chemical_formula_sum  CuNiO2
_cell_volume  38.6102795200787
_cell_formula_units_Z  1
loop_
  _symmetry_equiv_pos_site_id
 _symmetry_equiv_pos_as_xyz
 1  'x, y, z'
loop_
 _atom_site_type_symbol
 _atom_site_label
 _atom_site_symmetry_multiplicity
 _atom_site_fract_x
 _atom_site_fract_y
 _atom_site_fract_z
 _atom_site_fract_occupancy
 Cu  Cu1  1  0.00000  0.00000  0.00000  1
 Ni  Ni1  1  0.50000  0.50000  0.50000  1
 O  O1  1  0.31297  0.68703  0.71877  1
 O  O2  1  0.68703  0.31297  0.28123  1
