CIF file written using JARVIS-Tools package.
data_Ca2CdPt2
_symmetry_space_group_name_H-M  'Immm'
_cell_length_a       4.47426
_cell_length_b       5.62828
_cell_length_c       5.62828
_cell_angle_alpha    63.7929
_cell_angle_beta     66.5792
_cell_angle_gamma    66.5792

_symmetry_Int_Tables_number  71
_chemical_formula_structural  Ca2CdPt2
_chemical_formula_sum  Ca2CdPt2
_cell_volume  112.36650283115841
_cell_formula_units_Z  1
loop_
  _symmetry_equiv_pos_site_id
 _symmetry_equiv_pos_as_xyz
 1  'x, y, z'
loop_
 _atom_site_type_symbol
 _atom_site_label
 _atom_site_symmetry_multiplicity
 _atom_site_fract_x
 _atom_site_fract_y
 _atom_site_fract_z
 _atom_site_fract_occupancy
 Ca  Ca1  1  0.20210  0.29790  0.29790  1
 Ca  Ca2  1  0.79790  0.70210  0.70210  1
 Cd  Cd1  1  0.00000  0.00000  0.00000  1
 Pt  Pt1  1  0.50000  0.27685  0.72315  1
 Pt  Pt2  1  0.50000  0.72315  0.27685  1
