CIF file written using JARVIS-Tools package.
data_CaNi5H
_symmetry_space_group_name_H-M  'Cmm2'
_cell_length_a       3.97258
_cell_length_b       4.85305
_cell_length_c       5.0526
_cell_angle_alpha    61.3007
_cell_angle_beta     90
_cell_angle_gamma    90

_symmetry_Int_Tables_number  35
_chemical_formula_structural  CaNi5H
_chemical_formula_sum  CaNi5H
_cell_volume  85.44324780286779
_cell_formula_units_Z  1
loop_
  _symmetry_equiv_pos_site_id
 _symmetry_equiv_pos_as_xyz
 1  'x, y, z'
loop_
 _atom_site_type_symbol
 _atom_site_label
 _atom_site_symmetry_multiplicity
 _atom_site_fract_x
 _atom_site_fract_y
 _atom_site_fract_z
 _atom_site_fract_occupancy
 Ca  Ca1  1  0.00638  0.99356  0.00000  1
 H  H1  1  0.09086  0.49355  0.00001  1
 Ni  Ni1  1  0.00096  0.67422  0.63869  1
 Ni  Ni2  1  0.00096  0.31291  0.36132  1
 Ni  Ni3  1  0.50990  0.49355  -0.00001  1
 Ni  Ni4  1  0.50398  0.49356  0.50000  1
 Ni  Ni5  1  0.50398  0.99356  0.49999  1
