CIF file written using JARVIS-Tools package.
data_TaNi2
_symmetry_space_group_name_H-M  'I4/mmm'
_cell_length_a       3.17564
_cell_length_b       3.17564
_cell_length_c       4.5276
_cell_angle_alpha    110.53
_cell_angle_beta     110.53
_cell_angle_gamma    89.9999

_symmetry_Int_Tables_number  139
_chemical_formula_structural  TaNi2
_chemical_formula_sum  TaNi2
_cell_volume  39.648180469845165
_cell_formula_units_Z  1
loop_
  _symmetry_equiv_pos_site_id
 _symmetry_equiv_pos_as_xyz
 1  'x, y, z'
loop_
 _atom_site_type_symbol
 _atom_site_label
 _atom_site_symmetry_multiplicity
 _atom_site_fract_x
 _atom_site_fract_y
 _atom_site_fract_z
 _atom_site_fract_occupancy
 Ni  Ni1  1  0.33393  0.33393  0.66786  1
 Ni  Ni2  1  0.66607  0.66607  0.33214  1
 Ta  Ta1  1  0.00000  0.00000  0.00000  1
