CIF file written using JARVIS-Tools package.
data_CdCl2
_symmetry_space_group_name_H-M  'R-3m'
_cell_length_a       6.23368
_cell_length_b       6.23368
_cell_length_c       6.23368
_cell_angle_alpha    36.1957
_cell_angle_beta     36.1958
_cell_angle_gamma    36.1957

_symmetry_Int_Tables_number  166
_chemical_formula_structural  CdCl2
_chemical_formula_sum  CdCl2
_cell_volume  75.58459678932697
_cell_formula_units_Z  1
loop_
  _symmetry_equiv_pos_site_id
 _symmetry_equiv_pos_as_xyz
 1  'x, y, z'
loop_
 _atom_site_type_symbol
 _atom_site_label
 _atom_site_symmetry_multiplicity
 _atom_site_fract_x
 _atom_site_fract_y
 _atom_site_fract_z
 _atom_site_fract_occupancy
 Cd  Cd1  1  0.00000  0.00000  0.00000  1
 Cl  Cl1  1  0.74968  0.74968  0.74968  1
 Cl  Cl2  1  0.25032  0.25032  0.25032  1
