CIF file written using JARVIS-Tools package.
data_Cr3Se4
_symmetry_space_group_name_H-M  'C2/m'
_cell_length_a       3.66814
_cell_length_b       6.40548
_cell_length_c       6.87645
_cell_angle_alpha    116.085
_cell_angle_beta     105.469
_cell_angle_gamma    90

_symmetry_Int_Tables_number  12
_chemical_formula_structural  Cr3Se4
_chemical_formula_sum  Cr3Se4
_cell_volume  138.567454674522
_cell_formula_units_Z  1
loop_
  _symmetry_equiv_pos_site_id
 _symmetry_equiv_pos_as_xyz
 1  'x, y, z'
loop_
 _atom_site_type_symbol
 _atom_site_label
 _atom_site_symmetry_multiplicity
 _atom_site_fract_x
 _atom_site_fract_y
 _atom_site_fract_z
 _atom_site_fract_occupancy
 Cr  Cr1  1  0.50000  0.50000  0.00000  1
 Cr  Cr2  1  0.23757  0.21742  0.47513  1
 Cr  Cr3  1  0.76243  0.78258  0.52487  1
 Se  Se1  1  0.86631  0.52333  0.73261  1
 Se  Se2  1  0.13369  0.47667  0.26739  1
 Se  Se3  1  0.37862  0.04936  0.75724  1
 Se  Se4  1  0.62138  0.95064  0.24276  1
