CIF file written using JARVIS-Tools package.
data_YbSnPd
_symmetry_space_group_name_H-M  'P-62m'
_cell_length_a       7.64553
_cell_length_b       7.64553
_cell_length_c       3.85881
_cell_angle_alpha    90
_cell_angle_beta     90
_cell_angle_gamma    120

_symmetry_Int_Tables_number  189
_chemical_formula_structural  YbSnPd
_chemical_formula_sum  Yb3Sn3Pd3
_cell_volume  195.34346498468977
_cell_formula_units_Z  3
loop_
  _symmetry_equiv_pos_site_id
 _symmetry_equiv_pos_as_xyz
 1  'x, y, z'
loop_
 _atom_site_type_symbol
 _atom_site_label
 _atom_site_symmetry_multiplicity
 _atom_site_fract_x
 _atom_site_fract_y
 _atom_site_fract_z
 _atom_site_fract_occupancy
 Pd  Pd1  1  0.66667  0.33333  0.50000  1
 Pd  Pd2  1  0.00000  0.00000  0.00000  1
 Pd  Pd3  1  0.33333  0.66667  0.50000  1
 Sn  Sn1  1  -0.00000  0.26611  0.50000  1
 Sn  Sn2  1  0.73389  0.73389  0.50000  1
 Sn  Sn3  1  0.26611  -0.00000  0.50000  1
 Yb  Yb1  1  0.40355  0.40355  0.00000  1
 Yb  Yb2  1  -0.00000  0.59645  0.00000  1
 Yb  Yb3  1  0.59645  -0.00000  0.00000  1
