CIF file written using JARVIS-Tools package.
data_Zr2TaN3
_symmetry_space_group_name_H-M  'P6/mmm'
_cell_length_a       3.07591
_cell_length_b       5.38666
_cell_length_c       5.38663
_cell_angle_alpha    120
_cell_angle_beta     90
_cell_angle_gamma    90

_symmetry_Int_Tables_number  191
_chemical_formula_structural  Zr2TaN3
_chemical_formula_sum  Zr2TaN3
_cell_volume  77.29322078502267
_cell_formula_units_Z  1
loop_
  _symmetry_equiv_pos_site_id
 _symmetry_equiv_pos_as_xyz
 1  'x, y, z'
loop_
 _atom_site_type_symbol
 _atom_site_label
 _atom_site_symmetry_multiplicity
 _atom_site_fract_x
 _atom_site_fract_y
 _atom_site_fract_z
 _atom_site_fract_occupancy
 N  N1  1  0.00000  0.49999  -0.00000  1
 N  N2  1  0.00000  0.49999  0.50001  1
 N  N3  1  0.00000  0.99998  0.49999  1
 Ta  Ta1  1  0.00000  0.99998  -0.00000  1
 Zr  Zr1  1  0.50000  0.33331  0.66666  1
 Zr  Zr2  1  0.50000  0.66665  0.33334  1
