CIF file written using JARVIS-Tools package.
data_Zn2GaCuTe4
_symmetry_space_group_name_H-M  'I-42m'
_cell_length_a       7.4927
_cell_length_b       7.4927
_cell_length_c       7.4927
_cell_angle_alpha    131.73
_cell_angle_beta     131.73
_cell_angle_gamma    70.6566

_symmetry_Int_Tables_number  121
_chemical_formula_structural  Zn2GaCuTe4
_chemical_formula_sum  Zn2GaCuTe4
_cell_volume  229.51126214442075
_cell_formula_units_Z  1
loop_
  _symmetry_equiv_pos_site_id
 _symmetry_equiv_pos_as_xyz
 1  'x, y, z'
loop_
 _atom_site_type_symbol
 _atom_site_label
 _atom_site_symmetry_multiplicity
 _atom_site_fract_x
 _atom_site_fract_y
 _atom_site_fract_z
 _atom_site_fract_occupancy
 Cu  Cu1  1  0.00000  0.00000  0.00000  1
 Ga  Ga1  1  0.50000  0.50000  0.00000  1
 Te  Te1  1  0.36778  0.36778  0.48989  1
 Te  Te2  1  0.12211  0.63222  -0.00000  1
 Te  Te3  1  0.87789  0.87789  0.51011  1
 Te  Te4  1  0.63222  0.12211  0.00000  1
 Zn  Zn1  1  0.75000  0.25000  0.50000  1
 Zn  Zn2  1  0.25000  0.75000  0.50000  1
