CIF file written using JARVIS-Tools package.
data_Mn2CuNiSb2
_symmetry_space_group_name_H-M  'R3m'
_cell_length_a       7.36294
_cell_length_b       7.36295
_cell_length_c       7.36295
_cell_angle_alpha    33.4989
_cell_angle_beta     33.4989
_cell_angle_gamma    33.4989

_symmetry_Int_Tables_number  160
_chemical_formula_structural  Mn2CuNiSb2
_chemical_formula_sum  Mn2CuNiSb2
_cell_volume  108.29554231748841
_cell_formula_units_Z  1
loop_
  _symmetry_equiv_pos_site_id
 _symmetry_equiv_pos_as_xyz
 1  'x, y, z'
loop_
 _atom_site_type_symbol
 _atom_site_label
 _atom_site_symmetry_multiplicity
 _atom_site_fract_x
 _atom_site_fract_y
 _atom_site_fract_z
 _atom_site_fract_occupancy
 Cu  Cu1  1  0.87544  0.87544  0.87544  1
 Mn  Mn1  1  0.25283  0.25283  0.25283  1
 Mn  Mn2  1  0.74741  0.74741  0.74741  1
 Ni  Ni1  1  0.37444  0.37444  0.37444  1
 Sb  Sb1  1  0.00231  0.00231  0.00231  1
 Sb  Sb2  1  0.49757  0.49757  0.49757  1
