CIF file written using JARVIS-Tools package.
data_CaSi3Ir
_symmetry_space_group_name_H-M  'I4mm'
_cell_length_a       4.24294
_cell_length_b       4.24294
_cell_length_c       5.78895
_cell_angle_alpha    111.498
_cell_angle_beta     111.498
_cell_angle_gamma    90

_symmetry_Int_Tables_number  107
_chemical_formula_structural  CaSi3Ir
_chemical_formula_sum  CaSi3Ir
_cell_volume  89.12771260178086
_cell_formula_units_Z  1
loop_
  _symmetry_equiv_pos_site_id
 _symmetry_equiv_pos_as_xyz
 1  'x, y, z'
loop_
 _atom_site_type_symbol
 _atom_site_label
 _atom_site_symmetry_multiplicity
 _atom_site_fract_x
 _atom_site_fract_y
 _atom_site_fract_z
 _atom_site_fract_occupancy
 Ca  Ca1  1  0.00033  0.00033  0.00065  1
 Ir  Ir1  1  0.64722  0.64722  0.29445  1
 Si  Si1  1  0.40897  0.40897  0.81793  1
 Si  Si2  1  0.75881  0.25881  0.51761  1
 Si  Si3  1  0.25881  0.75881  0.51761  1
