CIF file written using JARVIS-Tools package.
data_Cr5NiAs3
_symmetry_space_group_name_H-M  'Amm2'
_cell_length_a       3.61626
_cell_length_b       6.36568
_cell_length_c       6.36568
_cell_angle_alpha    59.3049
_cell_angle_beta     90
_cell_angle_gamma    90

_symmetry_Int_Tables_number  38
_chemical_formula_structural  Cr5NiAs3
_chemical_formula_sum  Cr5NiAs3
_cell_volume  126.0070498083437
_cell_formula_units_Z  1
loop_
  _symmetry_equiv_pos_site_id
 _symmetry_equiv_pos_as_xyz
 1  'x, y, z'
loop_
 _atom_site_type_symbol
 _atom_site_label
 _atom_site_symmetry_multiplicity
 _atom_site_fract_x
 _atom_site_fract_y
 _atom_site_fract_z
 _atom_site_fract_occupancy
 As  As1  1  0.00000  0.32665  0.34087  1
 As  As2  1  0.00000  0.65913  0.67335  1
 As  As3  1  0.50000  0.01592  0.98408  1
 Cr  Cr1  1  0.50000  0.60222  0.39778  1
 Cr  Cr2  1  0.50000  0.40618  0.01018  1
 Cr  Cr3  1  0.50000  0.98982  0.59382  1
 Cr  Cr4  1  0.00000  0.74834  0.00567  1
 Cr  Cr5  1  0.00000  0.99433  0.25166  1
 Ni  Ni1  1  0.00000  0.25731  0.74269  1
