CIF file written using JARVIS-Tools package.
data_VOF
_symmetry_space_group_name_H-M  'R-3m'
_cell_length_a       3.27205
_cell_length_b       7.34918
_cell_length_c       3.27205
_cell_angle_alpha    102.863
_cell_angle_beta     59.9999
_cell_angle_gamma    102.863

_symmetry_Int_Tables_number  166
_chemical_formula_structural  VOF
_chemical_formula_sum  V2O2F2
_cell_volume  65.85156178294054
_cell_formula_units_Z  2
loop_
  _symmetry_equiv_pos_site_id
 _symmetry_equiv_pos_as_xyz
 1  'x, y, z'
loop_
 _atom_site_type_symbol
 _atom_site_label
 _atom_site_symmetry_multiplicity
 _atom_site_fract_x
 _atom_site_fract_y
 _atom_site_fract_z
 _atom_site_fract_occupancy
 F  F1  1  0.11372  0.34115  0.11372  1
 F  F2  1  0.88628  0.65885  0.88628  1
 O  O1  1  0.29840  0.89520  0.29840  1
 O  O2  1  0.70160  0.10480  0.70160  1
 V  V1  1  0.60410  0.81229  0.60410  1
 V  V2  1  0.39590  0.18771  0.39590  1
