CIF file written using JARVIS-Tools package.
data_HfAsPd
_symmetry_space_group_name_H-M  'P-62m'
_cell_length_a       6.75623
_cell_length_b       6.75622
_cell_length_c       3.9357
_cell_angle_alpha    90
_cell_angle_beta     90
_cell_angle_gamma    120

_symmetry_Int_Tables_number  189
_chemical_formula_structural  HfAsPd
_chemical_formula_sum  Hf3As3Pd3
_cell_volume  155.58258793949807
_cell_formula_units_Z  3
loop_
  _symmetry_equiv_pos_site_id
 _symmetry_equiv_pos_as_xyz
 1  'x, y, z'
loop_
 _atom_site_type_symbol
 _atom_site_label
 _atom_site_symmetry_multiplicity
 _atom_site_fract_x
 _atom_site_fract_y
 _atom_site_fract_z
 _atom_site_fract_occupancy
 As  As1  1  0.33333  0.66667  0.50000  1
 As  As2  1  0.66667  0.33333  0.50000  1
 As  As3  1  0.00000  0.00000  0.00000  1
 Hf  Hf1  1  0.59705  0.00000  0.00000  1
 Hf  Hf2  1  0.00000  0.59705  0.00000  1
 Hf  Hf3  1  0.40295  0.40295  0.00000  1
 Pd  Pd1  1  0.26612  0.00000  0.50000  1
 Pd  Pd2  1  0.00000  0.26612  0.50000  1
 Pd  Pd3  1  0.73388  0.73388  0.50000  1
