CIF file written using JARVIS-Tools package.
data_NaVSe2
_symmetry_space_group_name_H-M  'R-3m'
_cell_length_a       7.14935
_cell_length_b       7.14935
_cell_length_c       7.14935
_cell_angle_alpha    30.5167
_cell_angle_beta     30.5168
_cell_angle_gamma    30.5167

_symmetry_Int_Tables_number  166
_chemical_formula_structural  NaVSe2
_chemical_formula_sum  NaVSe2
_cell_volume  83.52781484648396
_cell_formula_units_Z  1
loop_
  _symmetry_equiv_pos_site_id
 _symmetry_equiv_pos_as_xyz
 1  'x, y, z'
loop_
 _atom_site_type_symbol
 _atom_site_label
 _atom_site_symmetry_multiplicity
 _atom_site_fract_x
 _atom_site_fract_y
 _atom_site_fract_z
 _atom_site_fract_occupancy
 Na  Na1  1  0.50000  0.50000  0.50000  1
 Se  Se1  1  0.73608  0.73608  0.73608  1
 Se  Se2  1  0.26392  0.26392  0.26392  1
 V  V1  1  0.00000  0.00000  0.00000  1
