CIF file written using JARVIS-Tools package.
data_KPPbS4
_symmetry_space_group_name_H-M  'Pnma'
_cell_length_a       6.61331
_cell_length_b       6.64342
_cell_length_c       16.5621
_cell_angle_alpha    90
_cell_angle_beta     90
_cell_angle_gamma    90

_symmetry_Int_Tables_number  62
_chemical_formula_structural  KPPbS4
_chemical_formula_sum  K4P4Pb4S6
_cell_volume  727.6537364372799
_cell_formula_units_Z  4
loop_
  _symmetry_equiv_pos_site_id
 _symmetry_equiv_pos_as_xyz
 1  'x, y, z'
loop_
 _atom_site_type_symbol
 _atom_site_label
 _atom_site_symmetry_multiplicity
 _atom_site_fract_x
 _atom_site_fract_y
 _atom_site_fract_z
 _atom_site_fract_occupancy
 K  K1  1  0.97643  0.25000  0.78877  1
 K  K2  1  0.52357  0.25000  0.28877  1
 K  K3  1  0.02357  0.75000  0.21123  1
 K  K4  1  0.47643  0.75000  0.71123  1
 P  P1  1  0.72197  0.75000  0.40262  1
 P  P2  1  0.77803  0.75000  0.90262  1
 P  P3  1  0.22197  0.25000  0.09738  1
 P  P4  1  0.27803  0.25000  0.59738  1
 Pb  Pb1  1  0.21841  0.75000  0.47647  1
 Pb  Pb2  1  0.78159  0.25000  0.52353  1
 Pb  Pb3  1  0.28159  0.75000  0.97647  1
 Pb  Pb4  1  0.71841  0.25000  0.02353  1
 S  S1  1  0.14786  0.25000  0.97566  1
 S  S2  1  0.89880  0.99747  0.37820  1
 S  S3  1  0.35214  0.25000  0.47566  1
 S  S4  1  0.10120  0.49747  0.62180  1
 S  S5  1  0.39880  0.49747  0.12180  1
 S  S6  1  0.60120  0.99747  0.87820  1
 S  S7  1  0.47234  0.75000  0.32930  1
 S  S8  1  0.52766  0.25000  0.67070  1
 S  S9  1  0.64786  0.75000  0.52434  1
 S  S10  1  0.60120  0.50253  0.87820  1
 S  S11  1  0.85214  0.75000  0.02434  1
 S  S12  1  0.97234  0.25000  0.17070  1
 S  S13  1  0.10120  0.00253  0.62180  1
 S  S14  1  0.39880  0.00253  0.12180  1
 S  S15  1  0.89880  0.50253  0.37820  1
 S  S16  1  0.02766  0.75000  0.82930  1
