CIF file written using JARVIS-Tools package.
data_H8C3N2O
_symmetry_space_group_name_H-M  'P2_1/c'
_cell_length_a       5.92641
_cell_length_b       8.22842
_cell_length_c       9.05507
_cell_angle_alpha    106.534
_cell_angle_beta     90
_cell_angle_gamma    90

_symmetry_Int_Tables_number  14
_chemical_formula_structural  H8C3N2O
_chemical_formula_sum  H32C2N8O4
_cell_volume  423.3109851208714
_cell_formula_units_Z  4
loop_
  _symmetry_equiv_pos_site_id
 _symmetry_equiv_pos_as_xyz
 1  'x, y, z'
loop_
 _atom_site_type_symbol
 _atom_site_label
 _atom_site_symmetry_multiplicity
 _atom_site_fract_x
 _atom_site_fract_y
 _atom_site_fract_z
 _atom_site_fract_occupancy
 C  C1  1  0.39915  0.72076  0.57368  1
 C  C2  1  0.78784  0.42058  0.09263  1
 C  C3  1  0.60085  0.27924  0.42632  1
 C  C4  1  0.08200  0.47432  0.29612  1
 C  C5  1  0.71216  0.92058  0.59263  1
 C  C6  1  0.41800  0.97432  0.79612  1
 C  C7  1  0.91800  0.52568  0.70388  1
 C  C8  1  0.89915  0.77924  0.92632  1
 C  C9  1  0.10085  0.22076  0.07368  1
 C  C10  1  0.28784  0.07942  0.40737  1
 C  C11  1  0.58200  0.02568  0.20388  1
 C  C12  1  0.21216  0.57942  0.90737  1
 H  H1  1  0.54021  0.05361  0.87569  1
 H  H2  1  0.59610  0.37524  0.36254  1
 H  H3  1  0.09610  0.12476  0.13746  1
 H  H4  1  0.78717  0.44340  0.73135  1
 H  H5  1  0.72156  0.74537  0.93911  1
 H  H6  1  0.40390  0.62476  0.63746  1
 H  H7  1  0.21283  0.55660  0.26865  1
 H  H8  1  0.66187  0.11024  0.14442  1
 H  H9  1  0.54432  0.60246  0.11777  1
 H  H10  1  0.74323  0.65007  0.26879  1
 H  H11  1  0.95979  0.55361  0.37569  1
 H  H12  1  -0.02722  0.83249  0.04064  1
 H  H13  1  0.47278  0.66751  0.45936  1
 H  H14  1  0.90390  0.87524  0.86254  1
 H  H15  1  0.83813  0.61024  0.64442  1
 H  H16  1  0.27844  0.25463  0.06089  1
 H  H17  1  0.04432  0.89754  0.38223  1
 H  H18  1  0.33813  0.88976  0.85558  1
 H  H19  1  0.52722  0.33249  0.54064  1
 H  H20  1  0.71283  0.94340  0.23135  1
 H  H21  1  0.16187  0.38976  0.35558  1
 H  H22  1  0.45568  0.39754  0.88223  1
 H  H23  1  0.75677  0.15007  0.76879  1
 H  H24  1  0.22156  0.75463  0.56089  1
 H  H25  1  0.45979  0.94639  0.12431  1
 H  H26  1  0.25677  0.34993  0.73121  1
 H  H27  1  0.77844  0.24537  0.43911  1
 H  H28  1  0.24323  0.84993  0.23121  1
 H  H29  1  0.02722  0.16751  0.95936  1
 H  H30  1  0.04021  0.44639  0.62431  1
 H  H31  1  0.95568  0.10246  0.61777  1
 H  H32  1  0.28717  0.05660  0.76865  1
 N  N1  1  0.81470  0.06788  0.66888  1
 N  N2  1  0.02476  0.62889  0.84393  1
 N  N3  1  0.52476  0.87111  0.65607  1
 N  N4  1  0.31470  0.43212  0.83112  1
 N  N5  1  0.68530  0.56788  0.16888  1
 N  N6  1  0.18530  0.93212  0.33112  1
 N  N7  1  0.97524  0.37111  0.15607  1
 N  N8  1  0.47524  0.12889  0.34393  1
 O  O1  1  0.70603  0.32868  0.96668  1
 O  O2  1  0.29397  0.67132  0.03332  1
 O  O3  1  0.20603  0.17132  0.53332  1
 O  O4  1  0.79397  0.82868  0.46668  1
