CIF file written using JARVIS-Tools package.
data_ThZr2F12
_symmetry_space_group_name_H-M  'C2/m'
_cell_length_a       7.92408
_cell_length_b       8.24721
_cell_length_c       8.24721
_cell_angle_alpha    79.7344
_cell_angle_beta     61.7942
_cell_angle_gamma    61.7942

_symmetry_Int_Tables_number  12
_chemical_formula_structural  ThZr2F12
_chemical_formula_sum  Th2Zr4F24
_cell_volume  417.85953402802363
_cell_formula_units_Z  2
loop_
  _symmetry_equiv_pos_site_id
 _symmetry_equiv_pos_as_xyz
 1  'x, y, z'
loop_
 _atom_site_type_symbol
 _atom_site_label
 _atom_site_symmetry_multiplicity
 _atom_site_fract_x
 _atom_site_fract_y
 _atom_site_fract_z
 _atom_site_fract_occupancy
 F  F1  1  0.42656  0.71314  0.71314  1
 F  F2  1  0.13395  0.69201  0.44013  1
 F  F3  1  0.13395  0.44013  0.69201  1
 F  F4  1  0.86605  0.30799  0.55987  1
 F  F5  1  0.86038  0.77832  0.77832  1
 F  F6  1  0.13962  0.22168  0.22168  1
 F  F7  1  0.00000  0.00000  0.00000  1
 F  F8  1  0.50000  -0.00000  -0.00000  1
 F  F9  1  0.50000  0.61267  0.38733  1
 F  F10  1  0.50000  0.38733  0.61267  1
 F  F11  1  0.28077  0.16747  0.46536  1
 F  F12  1  0.71923  0.53464  0.83253  1
 F  F13  1  0.71923  0.83253  0.53464  1
 F  F14  1  0.86605  0.55987  0.30799  1
 F  F15  1  0.57344  0.28686  0.28686  1
 F  F16  1  0.88864  0.06642  0.35759  1
 F  F17  1  0.11136  0.64241  0.93358  1
 F  F18  1  0.11136  0.93358  0.64241  1
 F  F19  1  0.88864  0.35759  0.06642  1
 F  F20  1  0.66374  0.21884  0.93876  1
 F  F21  1  0.33626  0.06124  0.78116  1
 F  F22  1  0.33626  0.78116  0.06124  1
 F  F23  1  0.66374  0.93876  0.21884  1
 F  F24  1  0.28077  0.46536  0.16747  1
 Th  Th1  1  -0.00000  0.22206  0.77794  1
 Th  Th2  1  0.00000  0.77794  0.22206  1
 Zr  Zr1  1  0.22587  0.64911  0.64911  1
 Zr  Zr2  1  0.77413  0.35089  0.35089  1
 Zr  Zr3  1  0.56975  0.81161  0.81161  1
 Zr  Zr4  1  0.43025  0.18839  0.18839  1
