CIF file written using JARVIS-Tools package.
data_Mn6O5F7
_symmetry_space_group_name_H-M  'P1'
_cell_length_a       4.5579
_cell_length_b       5.63485
_cell_length_c       7.85697
_cell_angle_alpha    86.7796
_cell_angle_beta     89.2631
_cell_angle_gamma    88.8583

_symmetry_Int_Tables_number  1
_chemical_formula_structural  Mn6O5F7
_chemical_formula_sum  Mn6O5F7
_cell_volume  201.41852884352824
_cell_formula_units_Z  1
loop_
  _symmetry_equiv_pos_site_id
 _symmetry_equiv_pos_as_xyz
 1  'x, y, z'
loop_
 _atom_site_type_symbol
 _atom_site_label
 _atom_site_symmetry_multiplicity
 _atom_site_fract_x
 _atom_site_fract_y
 _atom_site_fract_z
 _atom_site_fract_occupancy
 F  F1  1  0.22683  0.96709  0.22396  1
 F  F2  1  0.28042  0.79810  0.86949  1
 F  F3  1  0.28177  0.13687  0.57790  1
 F  F4  1  0.73032  0.20334  0.11305  1
 F  F5  1  0.77703  0.03387  0.76929  1
 F  F6  1  0.79186  0.36452  0.46173  1
 F  F7  1  0.19004  0.63732  0.54637  1
 Mn  Mn1  1  0.49494  0.50152  0.00638  1
 Mn  Mn2  1  0.00554  0.99561  0.99644  1
 Mn  Mn3  1  0.97729  0.66003  0.31208  1
 Mn  Mn4  1  0.00411  0.35098  0.69925  1
 Mn  Mn5  1  0.49885  0.17206  0.33978  1
 Mn  Mn6  1  0.53201  0.80841  0.64574  1
 O  O1  1  0.19780  0.28280  0.90765  1
 O  O2  1  0.69616  0.53426  0.77959  1
 O  O3  1  0.80707  0.71642  0.09265  1
 O  O4  1  0.30718  0.45864  0.23337  1
 O  O5  1  0.70076  0.87815  0.42530  1
