CIF file written using JARVIS-Tools package.
data_ZrMnO3
_symmetry_space_group_name_H-M  'R3c'
_cell_length_a       5.42328
_cell_length_b       5.75951
_cell_length_c       5.42327
_cell_angle_alpha    118.087
_cell_angle_beta     120
_cell_angle_gamma    61.9131

_symmetry_Int_Tables_number  161
_chemical_formula_structural  ZrMnO3
_chemical_formula_sum  Zr2Mn2O6
_cell_volume  123.13020846989522
_cell_formula_units_Z  2
loop_
  _symmetry_equiv_pos_site_id
 _symmetry_equiv_pos_as_xyz
 1  'x, y, z'
loop_
 _atom_site_type_symbol
 _atom_site_label
 _atom_site_symmetry_multiplicity
 _atom_site_fract_x
 _atom_site_fract_y
 _atom_site_fract_z
 _atom_site_fract_occupancy
 Mn  Mn1  1  0.51593  0.45216  0.48401  1
 Mn  Mn2  1  0.01592  0.95217  0.98401  1
 O  O1  1  0.18856  0.31297  0.41721  1
 O  O2  1  0.91569  0.31295  0.81140  1
 O  O3  1  0.41569  0.81295  0.91720  1
 O  O4  1  0.58275  0.31294  0.08424  1
 O  O5  1  0.08273  0.81296  0.31138  1
 O  O6  1  0.68855  0.81294  0.58424  1
 Zr  Zr1  1  0.79679  0.60958  0.20315  1
 Zr  Zr2  1  0.29679  0.10958  0.70315  1
