CIF file written using JARVIS-Tools package.
data_PrSiGe
_symmetry_space_group_name_H-M  'Imma'
_cell_length_a       4.22381
_cell_length_b       4.17349
_cell_length_c       8.262
_cell_angle_alpha    104.63
_cell_angle_beta     104.81
_cell_angle_gamma    90

_symmetry_Int_Tables_number  74
_chemical_formula_structural  PrSiGe
_chemical_formula_sum  Pr2Si2Ge2
_cell_volume  135.91443308185887
_cell_formula_units_Z  2
loop_
  _symmetry_equiv_pos_site_id
 _symmetry_equiv_pos_as_xyz
 1  'x, y, z'
loop_
 _atom_site_type_symbol
 _atom_site_label
 _atom_site_symmetry_multiplicity
 _atom_site_fract_x
 _atom_site_fract_y
 _atom_site_fract_z
 _atom_site_fract_occupancy
 Ge  Ge1  1  0.20172  0.95172  0.90344  1
 Ge  Ge2  1  0.79828  0.04828  0.09656  1
 Pr  Pr1  1  0.62141  0.37141  0.74281  1
 Pr  Pr2  1  0.37859  0.62859  0.25719  1
 Si  Si1  1  0.03835  0.78835  0.57670  1
 Si  Si2  1  0.96165  0.21165  0.42330  1
