CIF file written using JARVIS-Tools package.
data_TiO2
_symmetry_space_group_name_H-M  'I4_1/amd'
_cell_length_a       3.80798
_cell_length_b       3.80777
_cell_length_c       9.63487
_cell_angle_alpha    90
_cell_angle_beta     90.0018
_cell_angle_gamma    90

_symmetry_Int_Tables_number  141
_chemical_formula_structural  TiO2
_chemical_formula_sum  Ti4O8
_cell_volume  139.70467427387575
_cell_formula_units_Z  4
loop_
  _symmetry_equiv_pos_site_id
 _symmetry_equiv_pos_as_xyz
 1  'x, y, z'
loop_
 _atom_site_type_symbol
 _atom_site_label
 _atom_site_symmetry_multiplicity
 _atom_site_fract_x
 _atom_site_fract_y
 _atom_site_fract_z
 _atom_site_fract_occupancy
 O  O1  1  0.50025  0.25000  0.58281  1
 O  O2  1  0.00027  0.25000  -0.08281  1
 O  O3  1  0.49975  0.75000  0.41719  1
 O  O4  1  -0.00027  0.75000  0.08281  1
 O  O5  1  -0.00022  0.25000  0.33281  1
 O  O6  1  0.50024  0.75000  0.83281  1
 O  O7  1  0.00022  0.75000  0.66719  1
 O  O8  1  0.49976  0.25000  0.16719  1
 Ti  Ti1  1  -0.00031  0.25000  0.12500  1
 Ti  Ti2  1  0.50025  0.75000  0.62501  1
 Ti  Ti3  1  0.49975  0.25000  0.37499  1
 Ti  Ti4  1  0.00031  0.75000  0.87500  1
