CIF file written using JARVIS-Tools package.
data_Zr2Te3
_symmetry_space_group_name_H-M  'R-3'
_cell_length_a       7.88571
_cell_length_b       7.88571
_cell_length_c       7.8857
_cell_angle_alpha    52.6981
_cell_angle_beta     52.6981
_cell_angle_gamma    52.6981

_symmetry_Int_Tables_number  148
_chemical_formula_structural  Zr2Te3
_chemical_formula_sum  Zr4Te6
_cell_volume  287.34109339369877
_cell_formula_units_Z  2
loop_
  _symmetry_equiv_pos_site_id
 _symmetry_equiv_pos_as_xyz
 1  'x, y, z'
loop_
 _atom_site_type_symbol
 _atom_site_label
 _atom_site_symmetry_multiplicity
 _atom_site_fract_x
 _atom_site_fract_y
 _atom_site_fract_z
 _atom_site_fract_occupancy
 Te  Te1  1  0.57265  0.26784  0.92425  1
 Te  Te2  1  0.92425  0.57265  0.26784  1
 Te  Te3  1  0.26784  0.92425  0.57265  1
 Te  Te4  1  0.73216  0.07575  0.42735  1
 Te  Te5  1  0.07575  0.42735  0.73216  1
 Te  Te6  1  0.42735  0.73216  0.07575  1
 Zr  Zr1  1  0.50000  0.50000  0.50000  1
 Zr  Zr2  1  0.16090  0.16090  0.16090  1
 Zr  Zr3  1  0.83910  0.83910  0.83910  1
 Zr  Zr4  1  0.00000  0.00000  0.00000  1
