CIF file written using JARVIS-Tools package.
data_Li3ErBr6
_symmetry_space_group_name_H-M  'C2'
_cell_length_a       6.79857
_cell_length_b       6.79856
_cell_length_c       6.7605
_cell_angle_alpha    80.2096
_cell_angle_beta     80.2096
_cell_angle_gamma    119.938

_symmetry_Int_Tables_number  5
_chemical_formula_structural  Li3ErBr6
_chemical_formula_sum  Li3ErBr6
_cell_volume  254.67008879224426
_cell_formula_units_Z  1
loop_
  _symmetry_equiv_pos_site_id
 _symmetry_equiv_pos_as_xyz
 1  'x, y, z'
loop_
 _atom_site_type_symbol
 _atom_site_label
 _atom_site_symmetry_multiplicity
 _atom_site_fract_x
 _atom_site_fract_y
 _atom_site_fract_z
 _atom_site_fract_occupancy
 Br  Br1  1  0.42365  0.08135  0.76000  1
 Br  Br2  1  0.07495  0.40872  0.74764  1
 Br  Br3  1  0.59128  0.92505  0.25236  1
 Br  Br4  1  0.91865  0.57635  0.24000  1
 Br  Br5  1  0.74198  0.75052  0.75581  1
 Br  Br6  1  0.24948  0.25802  0.24419  1
 Er  Er1  1  0.00212  0.99788  -0.00000  1
 Li  Li1  1  0.67189  0.32811  0.00000  1
 Li  Li2  1  0.33275  0.66725  -0.00000  1
 Li  Li3  1  0.83826  0.16174  0.50000  1
