CIF file written using JARVIS-Tools package.
data_SmErMn4
_symmetry_space_group_name_H-M  'F-43m'
_cell_length_a       5.12343
_cell_length_b       5.12342
_cell_length_c       5.12342
_cell_angle_alpha    60
_cell_angle_beta     60
_cell_angle_gamma    60.0001

_symmetry_Int_Tables_number  216
_chemical_formula_structural  SmErMn4
_chemical_formula_sum  SmErMn4
_cell_volume  95.09681611756447
_cell_formula_units_Z  1
loop_
  _symmetry_equiv_pos_site_id
 _symmetry_equiv_pos_as_xyz
 1  'x, y, z'
loop_
 _atom_site_type_symbol
 _atom_site_label
 _atom_site_symmetry_multiplicity
 _atom_site_fract_x
 _atom_site_fract_y
 _atom_site_fract_z
 _atom_site_fract_occupancy
 Er  Er1  1  0.25000  0.25000  0.25000  1
 Mn  Mn1  1  0.62473  0.62473  0.12581  1
 Mn  Mn2  1  0.62473  0.12581  0.62473  1
 Mn  Mn3  1  0.12581  0.62473  0.62473  1
 Mn  Mn4  1  0.62473  0.62473  0.62473  1
 Sm  Sm1  1  0.00000  0.00000  0.00000  1
