CIF file written using JARVIS-Tools package.
data_Fe3O2F4
_symmetry_space_group_name_H-M  'P2_1'
_cell_length_a       5.67969
_cell_length_b       4.72953
_cell_length_c       7.83431
_cell_angle_alpha    90
_cell_angle_beta     94.1112
_cell_angle_gamma    90

_symmetry_Int_Tables_number  4
_chemical_formula_structural  Fe3O2F4
_chemical_formula_sum  Fe6O4F8
_cell_volume  209.9055259750828
_cell_formula_units_Z  2
loop_
  _symmetry_equiv_pos_site_id
 _symmetry_equiv_pos_as_xyz
 1  'x, y, z'
loop_
 _atom_site_type_symbol
 _atom_site_label
 _atom_site_symmetry_multiplicity
 _atom_site_fract_x
 _atom_site_fract_y
 _atom_site_fract_z
 _atom_site_fract_occupancy
 F  F1  1  0.78731  0.79142  0.73896  1
 F  F2  1  0.29040  0.70040  0.72807  1
 F  F3  1  0.21269  0.29142  0.26104  1
 F  F4  1  0.54706  0.30265  0.59905  1
 F  F5  1  0.88119  0.29096  0.94524  1
 F  F6  1  0.70960  0.20040  0.27193  1
 F  F7  1  0.45294  0.80265  0.40095  1
 F  F8  1  0.11881  0.79096  0.05476  1
 Fe  Fe1  1  0.22715  0.48803  0.49635  1
 Fe  Fe2  1  0.10198  0.03408  0.82181  1
 Fe  Fe3  1  0.42535  0.99138  0.14852  1
 Fe  Fe4  1  0.77285  0.98803  0.50365  1
 Fe  Fe5  1  0.89802  0.53408  0.17819  1
 Fe  Fe6  1  0.57465  0.49138  0.85148  1
 O  O1  1  0.38044  0.19721  0.93252  1
 O  O2  1  0.61956  0.69721  0.06748  1
 O  O3  1  0.95705  0.70387  0.39765  1
 O  O4  1  0.04295  0.20387  0.60235  1
