CIF file written using JARVIS-Tools package.
data_Rb3BiO3
_symmetry_space_group_name_H-M  'P2_13'
_cell_length_a       8.75603
_cell_length_b       8.75603
_cell_length_c       8.75603
_cell_angle_alpha    90
_cell_angle_beta     90
_cell_angle_gamma    90

_symmetry_Int_Tables_number  198
_chemical_formula_structural  Rb3BiO3
_chemical_formula_sum  Rb2Bi4O2
_cell_volume  671.3074372363302
_cell_formula_units_Z  4
loop_
  _symmetry_equiv_pos_site_id
 _symmetry_equiv_pos_as_xyz
 1  'x, y, z'
loop_
 _atom_site_type_symbol
 _atom_site_label
 _atom_site_symmetry_multiplicity
 _atom_site_fract_x
 _atom_site_fract_y
 _atom_site_fract_z
 _atom_site_fract_occupancy
 Bi  Bi1  1  0.47950  0.02050  0.97950  1
 Bi  Bi2  1  0.97950  0.47950  0.02050  1
 Bi  Bi3  1  0.02050  0.97950  0.47950  1
 Bi  Bi4  1  0.52050  0.52050  0.52050  1
 O  O1  1  0.56827  0.50500  0.28508  1
 O  O2  1  0.49500  0.78508  0.93173  1
 O  O3  1  0.00500  0.21492  0.43173  1
 O  O4  1  0.21492  0.43173  0.00500  1
 O  O5  1  0.50500  0.28508  0.56827  1
 O  O6  1  0.99500  0.71492  0.06827  1
 O  O7  1  0.71492  0.06827  0.99500  1
 O  O8  1  0.06827  0.99500  0.71492  1
 O  O9  1  0.28508  0.56827  0.50500  1
 O  O10  1  0.78508  0.93173  0.49500  1
 O  O11  1  0.43173  0.00500  0.21492  1
 O  O12  1  0.93173  0.49500  0.78508  1
 Rb  Rb1  1  0.78885  0.21115  0.71115  1
 Rb  Rb2  1  0.28885  0.28885  0.28885  1
 Rb  Rb3  1  0.71115  0.78885  0.21115  1
 Rb  Rb4  1  0.70680  0.20680  0.29320  1
 Rb  Rb5  1  0.79320  0.79320  0.79320  1
 Rb  Rb6  1  0.97067  0.52933  0.47067  1
 Rb  Rb7  1  0.52933  0.47067  0.97067  1
 Rb  Rb8  1  0.47067  0.97067  0.52933  1
 Rb  Rb9  1  0.02933  0.02933  0.02933  1
 Rb  Rb10  1  0.20680  0.29320  0.70680  1
 Rb  Rb11  1  0.29320  0.70680  0.20680  1
 Rb  Rb12  1  0.21115  0.71115  0.78885  1
