CIF file written using JARVIS-Tools package.
data_NdCoSi3
_symmetry_space_group_name_H-M  'I4mm'
_cell_length_a       4.16608
_cell_length_b       4.16608
_cell_length_c       5.64858
_cell_angle_alpha    111.64
_cell_angle_beta     111.64
_cell_angle_gamma    90

_symmetry_Int_Tables_number  107
_chemical_formula_structural  NdCoSi3
_chemical_formula_sum  NdCoSi3
_cell_volume  83.64948103427984
_cell_formula_units_Z  1
loop_
  _symmetry_equiv_pos_site_id
 _symmetry_equiv_pos_as_xyz
 1  'x, y, z'
loop_
 _atom_site_type_symbol
 _atom_site_label
 _atom_site_symmetry_multiplicity
 _atom_site_fract_x
 _atom_site_fract_y
 _atom_site_fract_z
 _atom_site_fract_occupancy
 Co  Co1  1  0.66226  0.66226  0.32453  1
 Nd  Nd1  1  0.00422  0.00422  0.00845  1
 Si  Si1  1  0.42761  0.42761  0.85521  1
 Si  Si2  1  0.76045  0.26045  0.52090  1
 Si  Si3  1  0.26045  0.76045  0.52090  1
