CIF file written using JARVIS-Tools package.
data_Tb2CoSi2
_symmetry_space_group_name_H-M  'C2/m'
_cell_length_a       5.64409
_cell_length_b       5.64409
_cell_length_c       10.0464
_cell_angle_alpha    62.8642
_cell_angle_beta     62.8642
_cell_angle_gamma    43.1824

_symmetry_Int_Tables_number  12
_chemical_formula_structural  Tb2CoSi2
_chemical_formula_sum  Tb4Co2Si4
_cell_volume  190.84936330429053
_cell_formula_units_Z  2
loop_
  _symmetry_equiv_pos_site_id
 _symmetry_equiv_pos_as_xyz
 1  'x, y, z'
loop_
 _atom_site_type_symbol
 _atom_site_label
 _atom_site_symmetry_multiplicity
 _atom_site_fract_x
 _atom_site_fract_y
 _atom_site_fract_z
 _atom_site_fract_occupancy
 Co  Co1  1  0.72664  0.72664  0.62154  1
 Co  Co2  1  0.27336  0.27336  0.37846  1
 Si  Si1  1  0.65485  0.65485  0.43273  1
 Si  Si2  1  0.34515  0.34515  0.56727  1
 Si  Si3  1  0.50489  0.50489  0.12716  1
 Si  Si4  1  0.49511  0.49511  0.87284  1
 Tb  Tb1  1  0.00183  0.00183  0.32824  1
 Tb  Tb2  1  -0.00183  -0.00183  0.67176  1
 Tb  Tb3  1  0.81369  0.81369  0.10500  1
 Tb  Tb4  1  0.18631  0.18631  0.89500  1
