CIF file written using JARVIS-Tools package.
data_Mg3Si2
_symmetry_space_group_name_H-M  'C2/m'
_cell_length_a       5.20162
_cell_length_b       5.20163
_cell_length_c       4.33856
_cell_angle_alpha    68.8391
_cell_angle_beta     68.8391
_cell_angle_gamma    97.2642

_symmetry_Int_Tables_number  12
_chemical_formula_structural  Mg3Si2
_chemical_formula_sum  Mg3Si2
_cell_volume  97.54028872595362
_cell_formula_units_Z  1
loop_
  _symmetry_equiv_pos_site_id
 _symmetry_equiv_pos_as_xyz
 1  'x, y, z'
loop_
 _atom_site_type_symbol
 _atom_site_label
 _atom_site_symmetry_multiplicity
 _atom_site_fract_x
 _atom_site_fract_y
 _atom_site_fract_z
 _atom_site_fract_occupancy
 Mg  Mg1  1  0.70668  0.29332  0.50000  1
 Mg  Mg2  1  0.29332  0.70668  0.50000  1
 Mg  Mg3  1  0.00000  0.00000  0.00000  1
 Si  Si1  1  0.70597  0.70597  0.76844  1
 Si  Si2  1  0.29403  0.29403  0.23156  1
