CIF file written using JARVIS-Tools package.
data_ErPtF7
_symmetry_space_group_name_H-M  'P2_1/c'
_cell_length_a       5.37533
_cell_length_b       8.69971
_cell_length_c       11.047
_cell_angle_alpha    107.052
_cell_angle_beta     90
_cell_angle_gamma    90

_symmetry_Int_Tables_number  14
_chemical_formula_structural  ErPtF7
_chemical_formula_sum  Er4Pt4F28
_cell_volume  493.88913140241885
_cell_formula_units_Z  4
loop_
  _symmetry_equiv_pos_site_id
 _symmetry_equiv_pos_as_xyz
 1  'x, y, z'
loop_
 _atom_site_type_symbol
 _atom_site_label
 _atom_site_symmetry_multiplicity
 _atom_site_fract_x
 _atom_site_fract_y
 _atom_site_fract_z
 _atom_site_fract_occupancy
 Er  Er1  1  0.23680  0.42313  0.23670  1
 Er  Er2  1  0.73680  0.07687  0.26330  1
 Er  Er3  1  0.26320  0.92313  0.73670  1
 Er  Er4  1  0.76320  0.57687  0.76330  1
 F  F1  1  0.42857  0.61359  0.91008  1
 F  F2  1  0.92857  0.88641  0.58992  1
 F  F3  1  0.57600  0.19282  0.45683  1
 F  F4  1  0.07600  0.30718  0.04317  1
 F  F5  1  0.42400  0.80718  0.54317  1
 F  F6  1  0.04647  0.64971  0.36433  1
 F  F7  1  0.70914  0.88620  0.36315  1
 F  F8  1  0.07143  0.11359  0.41008  1
 F  F9  1  0.79086  0.38620  0.86315  1
 F  F10  1  0.29086  0.11380  0.63685  1
 F  F11  1  0.25329  0.93213  0.94994  1
 F  F12  1  0.75329  0.56787  0.55006  1
 F  F13  1  0.74671  0.06787  0.05006  1
 F  F14  1  0.92400  0.69282  0.95683  1
 F  F15  1  0.24671  0.43213  0.44994  1
 F  F16  1  0.40064  0.19592  0.23083  1
 F  F17  1  0.20914  0.61380  0.13685  1
 F  F18  1  0.45353  0.14971  0.86433  1
 F  F19  1  0.94041  0.07536  0.82116  1
 F  F20  1  0.44041  0.42464  0.67884  1
 F  F21  1  0.05959  0.92464  0.17884  1
 F  F22  1  0.55959  0.57536  0.32116  1
 F  F23  1  0.59936  0.80408  0.76917  1
 F  F24  1  0.09936  0.69592  0.73083  1
 F  F25  1  0.95353  0.35029  0.63567  1
 F  F26  1  0.90064  0.30408  0.26917  1
 F  F27  1  0.57143  0.38641  0.08992  1
 F  F28  1  0.54647  0.85029  0.13567  1
 Pt  Pt1  1  0.24041  0.77090  0.04167  1
 Pt  Pt2  1  0.74041  0.72910  0.45833  1
 Pt  Pt3  1  0.75959  0.22910  0.95833  1
 Pt  Pt4  1  0.25959  0.27090  0.54167  1
