CIF file written using JARVIS-Tools package.
data_H4SO5
_symmetry_space_group_name_H-M  'P2_1/c'
_cell_length_a       6.75239
_cell_length_b       7.32686
_cell_length_c       7.65174
_cell_angle_alpha    90
_cell_angle_beta     90.6787
_cell_angle_gamma    90

_symmetry_Int_Tables_number  14
_chemical_formula_structural  H4SO5
_chemical_formula_sum  H6S4O20
_cell_volume  378.5339588441189
_cell_formula_units_Z  4
loop_
  _symmetry_equiv_pos_site_id
 _symmetry_equiv_pos_as_xyz
 1  'x, y, z'
loop_
 _atom_site_type_symbol
 _atom_site_label
 _atom_site_symmetry_multiplicity
 _atom_site_fract_x
 _atom_site_fract_y
 _atom_site_fract_z
 _atom_site_fract_occupancy
 H  H1  1  0.40758  0.16647  0.73167  1
 H  H2  1  0.21931  0.68764  0.69067  1
 H  H3  1  0.59242  0.66647  0.76833  1
 H  H4  1  0.40758  0.33353  0.23167  1
 H  H5  1  0.92159  0.33677  0.91144  1
 H  H6  1  0.78069  0.18764  0.80933  1
 H  H7  1  0.78622  0.40751  0.73528  1
 H  H8  1  0.07841  0.83677  0.58856  1
 H  H9  1  0.59242  0.83353  0.26833  1
 H  H10  1  0.21378  0.90751  0.76472  1
 H  H11  1  0.21378  0.59249  0.26472  1
 H  H12  1  0.21931  0.81236  0.19067  1
 H  H13  1  0.07841  0.66323  0.08856  1
 H  H14  1  0.92159  0.16323  0.41144  1
 H  H15  1  0.78622  0.09249  0.23528  1
 H  H16  1  0.78069  0.31236  0.30933  1
 O  O1  1  0.43562  0.23329  0.61898  1
 O  O2  1  0.78424  0.51762  0.29313  1
 O  O3  1  0.78424  0.98238  0.79313  1
 O  O4  1  0.21576  0.48238  0.70687  1
 O  O5  1  0.29806  0.06962  0.90127  1
 O  O6  1  0.70194  0.93038  0.09873  1
 O  O7  1  0.70194  0.56962  0.59873  1
 O  O8  1  0.20564  0.67525  0.16013  1
 O  O9  1  0.56438  0.73329  0.88102  1
 O  O10  1  0.29806  0.43038  0.40127  1
 O  O11  1  0.56438  0.76671  0.38102  1
 O  O12  1  0.79436  0.17525  0.33987  1
 O  O13  1  0.08045  0.21902  0.55847  1
 O  O14  1  0.91955  0.71902  0.94153  1
 O  O15  1  0.91955  0.78098  0.44153  1
 O  O16  1  0.08045  0.28098  0.05847  1
 O  O17  1  0.79436  0.32475  0.83987  1
 O  O18  1  0.20564  0.82475  0.66013  1
 O  O19  1  0.21576  0.01762  0.20687  1
 O  O20  1  0.43562  0.26671  0.11898  1
 S  S1  1  0.24601  0.34664  0.56909  1
 S  S2  1  0.24601  0.15336  0.06909  1
 S  S3  1  0.75399  0.65336  0.43091  1
 S  S4  1  0.75399  0.84664  0.93091  1
