CIF file written using JARVIS-Tools package.
data_HoMgTl
_symmetry_space_group_name_H-M  'P-62m'
_cell_length_a       7.49721
_cell_length_b       7.49722
_cell_length_c       4.608
_cell_angle_alpha    90
_cell_angle_beta     90
_cell_angle_gamma    120

_symmetry_Int_Tables_number  189
_chemical_formula_structural  HoMgTl
_chemical_formula_sum  Ho3Mg3Tl3
_cell_volume  224.30668806091342
_cell_formula_units_Z  3
loop_
  _symmetry_equiv_pos_site_id
 _symmetry_equiv_pos_as_xyz
 1  'x, y, z'
loop_
 _atom_site_type_symbol
 _atom_site_label
 _atom_site_symmetry_multiplicity
 _atom_site_fract_x
 _atom_site_fract_y
 _atom_site_fract_z
 _atom_site_fract_occupancy
 Ho  Ho1  1  0.57089  0.00000  0.00000  1
 Ho  Ho2  1  -0.00000  0.57089  0.00000  1
 Ho  Ho3  1  0.42911  0.42911  0.00000  1
 Mg  Mg1  1  0.24393  0.00000  0.50000  1
 Mg  Mg2  1  -0.00000  0.24393  0.50000  1
 Mg  Mg3  1  0.75607  0.75607  0.50000  1
 Tl  Tl1  1  0.33333  0.66667  0.50000  1
 Tl  Tl2  1  0.66667  0.33333  0.50000  1
 Tl  Tl3  1  0.00000  0.00000  0.00000  1
