CIF file written using JARVIS-Tools package.
data_Mg9CuO10
_symmetry_space_group_name_H-M  'P-1'
_cell_length_a       3.00829
_cell_length_b       6.65875
_cell_length_c       9.95789
_cell_angle_alpha    101.706
_cell_angle_beta     88.5921
_cell_angle_gamma    102.719

_symmetry_Int_Tables_number  2
_chemical_formula_structural  Mg9CuO10
_chemical_formula_sum  Mg9CuO0
_cell_volume  190.48789841201594
_cell_formula_units_Z  1
loop_
  _symmetry_equiv_pos_site_id
 _symmetry_equiv_pos_as_xyz
 1  'x, y, z'
loop_
 _atom_site_type_symbol
 _atom_site_label
 _atom_site_symmetry_multiplicity
 _atom_site_fract_x
 _atom_site_fract_y
 _atom_site_fract_z
 _atom_site_fract_occupancy
 Cu  Cu1  1  0.10453  0.20047  0.30035  1
 Mg  Mg1  1  -0.01778  -0.00100  0.99778  1
 Mg  Mg2  1  0.39787  0.80543  0.19951  1
 Mg  Mg3  1  0.51868  0.00341  0.49983  1
 Mg  Mg4  1  0.81114  0.59548  0.40120  1
 Mg  Mg5  1  0.60447  0.20045  0.80035  1
 Mg  Mg6  1  0.69030  0.39749  0.10086  1
 Mg  Mg7  1  0.29731  0.59993  0.90109  1
 Mg  Mg8  1  0.22674  0.40190  0.60292  1
 Mg  Mg9  1  0.91162  0.80097  0.69962  1
 O  O1  1  0.83959  0.69933  0.05072  1
 O  O2  1  0.06739  0.10072  0.65084  1
 O  O3  1  0.14155  0.30018  0.94986  1
 O  O4  1  0.71037  0.30503  0.45793  1
 O  O5  1  0.49861  0.09588  0.14276  1
 O  O6  1  0.75917  0.50142  0.75133  1
 O  O7  1  0.25230  0.50102  0.25076  1
 O  O8  1  0.36937  0.70157  0.54998  1
 O  O9  1  0.44976  0.89948  0.84937  1
 O  O10  1  0.95671  0.89989  0.34994  1
