CIF file written using JARVIS-Tools package.
data_CeSiGe
_symmetry_space_group_name_H-M  'I4_1md'
_cell_length_a       8.12258
_cell_length_b       8.12258
_cell_length_c       8.12258
_cell_angle_alpha    150.724
_cell_angle_beta     150.724
_cell_angle_gamma    41.8795

_symmetry_Int_Tables_number  109
_chemical_formula_structural  CeSiGe
_chemical_formula_sum  Ce2Si2Ge2
_cell_volume  127.85374499263482
_cell_formula_units_Z  2
loop_
  _symmetry_equiv_pos_site_id
 _symmetry_equiv_pos_as_xyz
 1  'x, y, z'
loop_
 _atom_site_type_symbol
 _atom_site_label
 _atom_site_symmetry_multiplicity
 _atom_site_fract_x
 _atom_site_fract_y
 _atom_site_fract_z
 _atom_site_fract_occupancy
 Ce  Ce1  1  0.58158  0.58158  0.00000  1
 Ce  Ce2  1  0.33158  0.83158  0.50000  1
 Ge  Ge1  1  0.16438  0.16438  0.00000  1
 Ge  Ge2  1  0.91438  0.41438  0.50000  1
 Si  Si1  1  0.00104  0.00104  -0.00000  1
 Si  Si2  1  0.75104  0.25104  0.50000  1
