CIF file written using JARVIS-Tools package.
data_LiCoO2
_symmetry_space_group_name_H-M  'P6_3mc'
_cell_length_a       2.83155
_cell_length_b       2.83156
_cell_length_c       9.43379
_cell_angle_alpha    90
_cell_angle_beta     90
_cell_angle_gamma    120

_symmetry_Int_Tables_number  186
_chemical_formula_structural  LiCoO2
_chemical_formula_sum  Li2Co2O4
_cell_volume  65.50378095270479
_cell_formula_units_Z  2
loop_
  _symmetry_equiv_pos_site_id
 _symmetry_equiv_pos_as_xyz
 1  'x, y, z'
loop_
 _atom_site_type_symbol
 _atom_site_label
 _atom_site_symmetry_multiplicity
 _atom_site_fract_x
 _atom_site_fract_y
 _atom_site_fract_z
 _atom_site_fract_occupancy
 Co  Co1  1  0.66667  0.33333  0.00032  1
 Co  Co2  1  0.33333  0.66667  0.50032  1
 Li  Li1  1  0.66667  0.33333  0.25876  1
 Li  Li2  1  0.33333  0.66667  0.75876  1
 O  O1  1  0.00000  0.00000  0.89085  1
 O  O2  1  0.00000  0.00000  0.39085  1
 O  O3  1  0.66667  0.33333  0.60900  1
 O  O4  1  0.33333  0.66667  0.10900  1
