CIF file written using JARVIS-Tools package.
data_NaAsH4O5
_symmetry_space_group_name_H-M  'P2_1/m'
_cell_length_a       5.44571
_cell_length_b       7.13157
_cell_length_c       5.92342
_cell_angle_alpha    90
_cell_angle_beta     92.8612
_cell_angle_gamma    90

_symmetry_Int_Tables_number  11
_chemical_formula_structural  NaAsH4O5
_chemical_formula_sum  Na2As2H8O0
_cell_volume  229.7578109882605
_cell_formula_units_Z  2
loop_
  _symmetry_equiv_pos_site_id
 _symmetry_equiv_pos_as_xyz
 1  'x, y, z'
loop_
 _atom_site_type_symbol
 _atom_site_label
 _atom_site_symmetry_multiplicity
 _atom_site_fract_x
 _atom_site_fract_y
 _atom_site_fract_z
 _atom_site_fract_occupancy
 As  As1  1  0.31299  0.25000  0.52361  1
 As  As2  1  0.68701  0.75000  0.47639  1
 H  H1  1  0.25370  0.56143  0.41722  1
 H  H2  1  0.25370  0.93857  0.41722  1
 H  H3  1  0.45192  0.75000  0.03817  1
 H  H4  1  0.32310  0.75000  0.79225  1
 H  H5  1  0.67690  0.25000  0.20775  1
 H  H6  1  0.54808  0.25000  0.96183  1
 H  H7  1  0.74630  0.43857  0.58278  1
 H  H8  1  0.74630  0.06143  0.58278  1
 Na  Na1  1  0.00000  0.50000  0.00000  1
 Na  Na2  1  0.00000  0.00000  0.00000  1
 O  O1  1  0.71097  0.25000  0.04413  1
 O  O2  1  0.19286  0.43376  0.35549  1
 O  O3  1  0.80714  0.93376  0.64451  1
 O  O4  1  0.80714  0.56624  0.64451  1
 O  O5  1  0.19286  0.06624  0.35549  1
 O  O6  1  0.23461  0.25000  0.79419  1
 O  O7  1  0.76539  0.75000  0.20581  1
 O  O8  1  0.62717  0.25000  0.49666  1
 O  O9  1  0.37283  0.75000  0.50334  1
 O  O10  1  0.28903  0.75000  0.95587  1
