CIF file written using JARVIS-Tools package.
data_ZnPb2F6
_symmetry_space_group_name_H-M  'P4_2/ncm'
_cell_length_a       5.70815
_cell_length_b       5.70815
_cell_length_c       16.0225
_cell_angle_alpha    90
_cell_angle_beta     90
_cell_angle_gamma    90

_symmetry_Int_Tables_number  138
_chemical_formula_structural  ZnPb2F6
_chemical_formula_sum  Zn4Pb8F24
_cell_volume  522.0612491342163
_cell_formula_units_Z  4
loop_
  _symmetry_equiv_pos_site_id
 _symmetry_equiv_pos_as_xyz
 1  'x, y, z'
loop_
 _atom_site_type_symbol
 _atom_site_label
 _atom_site_symmetry_multiplicity
 _atom_site_fract_x
 _atom_site_fract_y
 _atom_site_fract_z
 _atom_site_fract_occupancy
 F  F1  1  0.94315  0.94315  0.62201  1
 F  F2  1  0.75000  0.75000  0.25971  1
 F  F3  1  0.25000  0.25000  0.74029  1
 F  F4  1  0.25000  0.25000  0.24029  1
 F  F5  1  0.75000  0.25000  0.25000  1
 F  F6  1  0.25000  0.75000  0.75000  1
 F  F7  1  0.25000  0.75000  0.25000  1
 F  F8  1  0.55685  0.94315  0.12201  1
 F  F9  1  0.94315  0.55685  0.12201  1
 F  F10  1  0.75000  0.75000  0.46214  1
 F  F11  1  0.25000  0.25000  0.53786  1
 F  F12  1  0.25000  0.25000  0.03786  1
 F  F13  1  0.05685  0.05685  0.37799  1
 F  F14  1  0.44315  0.05685  0.87799  1
 F  F15  1  0.05685  0.44315  0.87799  1
 F  F16  1  0.75000  0.25000  0.75000  1
 F  F17  1  0.75000  0.75000  0.75971  1
 F  F18  1  0.44315  0.44315  0.37799  1
 F  F19  1  0.75000  0.25000  0.00000  1
 F  F20  1  0.25000  0.75000  0.50000  1
 F  F21  1  0.25000  0.75000  0.00000  1
 F  F22  1  0.75000  0.25000  0.50000  1
 F  F23  1  0.55685  0.55685  0.62201  1
 F  F24  1  0.75000  0.75000  0.96214  1
 Pb  Pb1  1  0.00881  0.00881  0.84414  1
 Pb  Pb2  1  0.99119  0.99119  0.15586  1
 Pb  Pb3  1  0.50881  0.50881  0.15586  1
 Pb  Pb4  1  0.49119  0.00881  0.34414  1
 Pb  Pb5  1  0.99119  0.50881  0.65586  1
 Pb  Pb6  1  0.49119  0.49119  0.84414  1
 Pb  Pb7  1  0.50881  0.99119  0.65586  1
 Pb  Pb8  1  0.00881  0.49119  0.34414  1
 Zn  Zn1  1  0.00000  0.00000  0.50000  1
 Zn  Zn2  1  0.00000  0.50000  0.00000  1
 Zn  Zn3  1  0.50000  0.50000  0.50000  1
 Zn  Zn4  1  0.50000  0.00000  0.00000  1
