CIF file written using JARVIS-Tools package.
data_YScO3
_symmetry_space_group_name_H-M  'Pnma'
_cell_length_a       5.44153
_cell_length_b       5.74306
_cell_length_c       7.9356
_cell_angle_alpha    90
_cell_angle_beta     90
_cell_angle_gamma    90

_symmetry_Int_Tables_number  62
_chemical_formula_structural  YScO3
_chemical_formula_sum  Y4Sc4O2
_cell_volume  247.99595857657332
_cell_formula_units_Z  4
loop_
  _symmetry_equiv_pos_site_id
 _symmetry_equiv_pos_as_xyz
 1  'x, y, z'
loop_
 _atom_site_type_symbol
 _atom_site_label
 _atom_site_symmetry_multiplicity
 _atom_site_fract_x
 _atom_site_fract_y
 _atom_site_fract_z
 _atom_site_fract_occupancy
 O  O1  1  0.30975  0.30644  0.69124  1
 O  O2  1  0.62991  0.94317  0.50900  1
 O  O3  1  0.80981  0.19345  0.82672  1
 O  O4  1  0.19025  0.80644  0.69124  1
 O  O5  1  0.69025  0.69356  0.19124  1
 O  O6  1  0.19019  0.80655  0.32672  1
 O  O7  1  0.12991  0.55683  0.00900  1
 O  O8  1  0.87009  0.44317  0.50900  1
 O  O9  1  0.30981  0.30655  0.32672  1
 O  O10  1  0.37009  0.05683  0.00900  1
 O  O11  1  0.80975  0.19356  0.19124  1
 O  O12  1  0.69019  0.69345  0.82672  1
 Sc  Sc1  1  0.50000  0.00002  0.25901  1
 Sc  Sc2  1  -0.00000  0.49998  0.75901  1
 Sc  Sc3  1  0.00000  0.50002  0.25901  1
 Sc  Sc4  1  0.50000  0.99998  0.75901  1
 Y  Y1  1  0.01964  0.06410  0.50903  1
 Y  Y2  1  0.51964  0.43590  0.00903  1
 Y  Y3  1  0.48036  0.56410  0.50903  1
 Y  Y4  1  0.98036  0.93590  0.00903  1
