CIF file written using JARVIS-Tools package.
data_KPtN
_symmetry_space_group_name_H-M  'P4_2/mmc'
_cell_length_a       10.4389
_cell_length_b       3.70933
_cell_length_c       5.24586
_cell_angle_alpha    44.9993
_cell_angle_beta     120.162
_cell_angle_gamma    110.811

_symmetry_Int_Tables_number  131
_chemical_formula_structural  KPtN
_chemical_formula_sum  K2Pt2N2
_cell_volume  124.18457071527025
_cell_formula_units_Z  2
loop_
  _symmetry_equiv_pos_site_id
 _symmetry_equiv_pos_as_xyz
 1  'x, y, z'
loop_
 _atom_site_type_symbol
 _atom_site_label
 _atom_site_symmetry_multiplicity
 _atom_site_fract_x
 _atom_site_fract_y
 _atom_site_fract_z
 _atom_site_fract_occupancy
 K  K1  1  0.46567  0.49984  0.14147  1
 K  K2  1  0.96567  0.50016  0.64130  1
 N  N1  1  0.21567  0.00025  0.89118  1
 N  N2  1  0.71567  0.99975  0.89143  1
 Pt  Pt1  1  0.21567  0.50025  0.39118  1
 Pt  Pt2  1  0.71567  0.49975  0.89143  1
