CIF file written using JARVIS-Tools package.
data_MnAlNi6
_symmetry_space_group_name_H-M  'P4/mmm'
_cell_length_a       3.57082
_cell_length_b       3.57082
_cell_length_c       7.09186
_cell_angle_alpha    90
_cell_angle_beta     90
_cell_angle_gamma    90

_symmetry_Int_Tables_number  123
_chemical_formula_structural  MnAlNi6
_chemical_formula_sum  MnAlNi6
_cell_volume  90.42660301127744
_cell_formula_units_Z  1
loop_
  _symmetry_equiv_pos_site_id
 _symmetry_equiv_pos_as_xyz
 1  'x, y, z'
loop_
 _atom_site_type_symbol
 _atom_site_label
 _atom_site_symmetry_multiplicity
 _atom_site_fract_x
 _atom_site_fract_y
 _atom_site_fract_z
 _atom_site_fract_occupancy
 Al  Al1  1  0.00000  0.00000  0.00000  1
 Mn  Mn1  1  0.00000  0.00000  0.50000  1
 Ni  Ni1  1  0.50000  0.50000  0.00000  1
 Ni  Ni2  1  0.50000  0.50000  0.50000  1
 Ni  Ni3  1  0.50000  0.00000  0.25068  1
 Ni  Ni4  1  0.50000  0.00000  0.74932  1
 Ni  Ni5  1  0.00000  0.50000  0.25068  1
 Ni  Ni6  1  0.00000  0.50000  0.74932  1
