CIF file written using JARVIS-Tools package.
data_CdHgS4
_symmetry_space_group_name_H-M  'I-4'
_cell_length_a       3.30281
_cell_length_b       6.38081
_cell_length_c       6.38081
_cell_angle_alpha    86.1594
_cell_angle_beta     75.0007
_cell_angle_gamma    75.0007

_symmetry_Int_Tables_number  82
_chemical_formula_structural  CdHgS4
_chemical_formula_sum  CdHgS4
_cell_volume  125.46595126460716
_cell_formula_units_Z  1
loop_
  _symmetry_equiv_pos_site_id
 _symmetry_equiv_pos_as_xyz
 1  'x, y, z'
loop_
 _atom_site_type_symbol
 _atom_site_label
 _atom_site_symmetry_multiplicity
 _atom_site_fract_x
 _atom_site_fract_y
 _atom_site_fract_z
 _atom_site_fract_occupancy
 Cd  Cd1  1  0.25000  0.50000  0.50000  1
 Hg  Hg1  1  0.00000  0.00000  0.00000  1
 S  S1  1  0.30644  0.38178  0.91086  1
 S  S2  1  0.59909  0.61822  0.08914  1
 S  S3  1  0.31178  0.08914  0.38178  1
 S  S4  1  0.78270  0.91086  0.61822  1
