CIF file written using JARVIS-Tools package.
data_CdFeO3
_symmetry_space_group_name_H-M  'Pnma'
_cell_length_a       5.26492
_cell_length_b       5.30861
_cell_length_c       7.51119
_cell_angle_alpha    90
_cell_angle_beta     90
_cell_angle_gamma    90

_symmetry_Int_Tables_number  62
_chemical_formula_structural  CdFeO3
_chemical_formula_sum  Cd4Fe4O2
_cell_volume  209.93333872515225
_cell_formula_units_Z  4
loop_
  _symmetry_equiv_pos_site_id
 _symmetry_equiv_pos_as_xyz
 1  'x, y, z'
loop_
 _atom_site_type_symbol
 _atom_site_label
 _atom_site_symmetry_multiplicity
 _atom_site_fract_x
 _atom_site_fract_y
 _atom_site_fract_z
 _atom_site_fract_occupancy
 Cd  Cd1  1  0.00643  0.96393  0.75000  1
 Cd  Cd2  1  0.49357  0.46393  0.75000  1
 Cd  Cd3  1  0.50643  0.53607  0.25000  1
 Cd  Cd4  1  0.99357  0.03607  0.25000  1
 Fe  Fe1  1  0.00000  0.50000  0.00000  1
 Fe  Fe2  1  0.00000  0.50000  0.50000  1
 Fe  Fe3  1  0.50000  0.00000  0.00000  1
 Fe  Fe4  1  0.50000  0.00000  0.50000  1
 O  O1  1  0.08193  0.47792  0.25000  1
 O  O2  1  0.79613  0.79308  0.45739  1
 O  O3  1  0.20387  0.20692  0.95739  1
 O  O4  1  0.29613  0.70692  0.54261  1
 O  O5  1  0.20387  0.20692  0.54261  1
 O  O6  1  0.70387  0.29308  0.45739  1
 O  O7  1  0.58193  0.02208  0.75000  1
 O  O8  1  0.70387  0.29308  0.04261  1
 O  O9  1  0.29613  0.70692  0.95739  1
 O  O10  1  0.79613  0.79308  0.04261  1
 O  O11  1  0.41807  0.97792  0.25000  1
 O  O12  1  0.91807  0.52208  0.75000  1
