CIF file written using JARVIS-Tools package.
data_BaMgP2O7
_symmetry_space_group_name_H-M  'P2_1/c'
_cell_length_a       5.52624
_cell_length_b       8.61038
_cell_length_c       12.6314
_cell_angle_alpha    90
_cell_angle_beta     91.4886
_cell_angle_gamma    90

_symmetry_Int_Tables_number  14
_chemical_formula_structural  BaMgP2O7
_chemical_formula_sum  Ba4Mg4P8O28
_cell_volume  600.8383314927631
_cell_formula_units_Z  4
loop_
  _symmetry_equiv_pos_site_id
 _symmetry_equiv_pos_as_xyz
 1  'x, y, z'
loop_
 _atom_site_type_symbol
 _atom_site_label
 _atom_site_symmetry_multiplicity
 _atom_site_fract_x
 _atom_site_fract_y
 _atom_site_fract_z
 _atom_site_fract_occupancy
 Ba  Ba1  1  0.73978  0.36779  0.79302  1
 Ba  Ba2  1  0.23978  0.13221  0.29302  1
 Ba  Ba3  1  0.76022  0.86779  0.70698  1
 Ba  Ba4  1  0.26022  0.63221  0.20698  1
 Mg  Mg1  1  0.20857  0.66025  0.87643  1
 Mg  Mg2  1  0.79143  0.33975  0.12357  1
 Mg  Mg3  1  0.70857  0.83975  0.37643  1
 Mg  Mg4  1  0.29143  0.16025  0.62357  1
 O  O1  1  0.06185  0.18526  0.49858  1
 O  O2  1  0.43815  0.68526  0.00142  1
 O  O3  1  0.93815  0.81474  0.50142  1
 O  O4  1  0.56185  0.31474  0.99858  1
 O  O5  1  0.82833  0.11241  0.14954  1
 O  O6  1  0.44398  0.63162  0.74617  1
 O  O7  1  0.67167  0.61241  0.35046  1
 O  O8  1  0.34596  0.84427  0.41283  1
 O  O9  1  0.65404  0.15573  0.58717  1
 O  O10  1  0.84596  0.65573  0.91283  1
 O  O11  1  0.00962  0.59103  0.70152  1
 O  O12  1  0.15404  0.34427  0.08717  1
 O  O13  1  0.30010  0.63982  0.55054  1
 O  O14  1  0.19990  0.13982  0.94946  1
 O  O15  1  0.69990  0.36018  0.44946  1
 O  O16  1  0.32833  0.38759  0.64954  1
 O  O17  1  0.49038  0.09103  0.79848  1
 O  O18  1  0.94398  0.86838  0.24617  1
 O  O19  1  0.80010  0.86018  0.05054  1
 O  O20  1  0.99038  0.40897  0.29848  1
 O  O21  1  0.55602  0.36838  0.25383  1
 O  O22  1  0.70574  0.07996  0.39243  1
 O  O23  1  0.79426  0.57996  0.10757  1
 O  O24  1  0.05602  0.13162  0.75383  1
 O  O25  1  0.20574  0.42004  0.89243  1
 O  O26  1  0.17167  0.88759  0.85046  1
 O  O27  1  0.50962  0.90897  0.20152  1
 O  O28  1  0.29426  0.92004  0.60757  1
 P  P1  1  0.21401  0.81462  0.51541  1
 P  P2  1  0.23445  0.05696  0.83567  1
 P  P3  1  0.73445  0.44304  0.33567  1
 P  P4  1  0.76555  0.94304  0.16433  1
 P  P5  1  0.28599  0.31462  0.98459  1
 P  P6  1  0.26555  0.55696  0.66433  1
 P  P7  1  0.71401  0.68538  0.01541  1
 P  P8  1  0.78599  0.18538  0.48459  1
