CIF file written using JARVIS-Tools package.
data_LiMnF3
_symmetry_space_group_name_H-M  'P2_13'
_cell_length_a       6.11032
_cell_length_b       6.11032
_cell_length_c       6.11032
_cell_angle_alpha    90
_cell_angle_beta     90
_cell_angle_gamma    90

_symmetry_Int_Tables_number  198
_chemical_formula_structural  LiMnF3
_chemical_formula_sum  Li4Mn4F2
_cell_volume  228.13548492444576
_cell_formula_units_Z  4
loop_
  _symmetry_equiv_pos_site_id
 _symmetry_equiv_pos_as_xyz
 1  'x, y, z'
loop_
 _atom_site_type_symbol
 _atom_site_label
 _atom_site_symmetry_multiplicity
 _atom_site_fract_x
 _atom_site_fract_y
 _atom_site_fract_z
 _atom_site_fract_occupancy
 F  F1  1  0.61578  0.98082  0.76555  1
 F  F2  1  0.51918  0.23445  0.11578  1
 F  F3  1  0.73445  0.38422  0.48082  1
 F  F4  1  0.38422  0.48082  0.73445  1
 F  F5  1  0.23445  0.11578  0.51918  1
 F  F6  1  0.01918  0.26555  0.88422  1
 F  F7  1  0.11578  0.51918  0.23445  1
 F  F8  1  0.48082  0.73445  0.38422  1
 F  F9  1  0.98082  0.76555  0.61578  1
 F  F10  1  0.88422  0.01918  0.26555  1
 F  F11  1  0.76555  0.61578  0.98082  1
 F  F12  1  0.26555  0.88422  0.01918  1
 Li  Li1  1  0.15971  0.84029  0.34029  1
 Li  Li2  1  0.34029  0.15971  0.84029  1
 Li  Li3  1  0.84029  0.34029  0.15971  1
 Li  Li4  1  0.65971  0.65971  0.65971  1
 Mn  Mn1  1  0.61008  0.88992  0.11008  1
 Mn  Mn2  1  0.88992  0.11008  0.61008  1
 Mn  Mn3  1  0.38992  0.38992  0.38992  1
 Mn  Mn4  1  0.11008  0.61008  0.88992  1
