CIF file written using JARVIS-Tools package.
data_SrH4O3
_symmetry_space_group_name_H-M  'Pmc2_1'
_cell_length_a       3.67889
_cell_length_b       6.65835
_cell_length_c       6.16192
_cell_angle_alpha    90
_cell_angle_beta     90.0027
_cell_angle_gamma    90

_symmetry_Int_Tables_number  26
_chemical_formula_structural  SrH4O3
_chemical_formula_sum  Sr2H8O6
_cell_volume  150.93851611264262
_cell_formula_units_Z  2
loop_
  _symmetry_equiv_pos_site_id
 _symmetry_equiv_pos_as_xyz
 1  'x, y, z'
loop_
 _atom_site_type_symbol
 _atom_site_label
 _atom_site_symmetry_multiplicity
 _atom_site_fract_x
 _atom_site_fract_y
 _atom_site_fract_z
 _atom_site_fract_occupancy
 H  H1  1  0.78908  0.82832  0.87875  1
 H  H2  1  0.21070  0.82837  0.87884  1
 H  H3  1  0.21092  0.32832  0.12125  1
 H  H4  1  0.78930  0.32837  0.12116  1
 H  H5  1  0.49968  0.59685  0.03143  1
 H  H6  1  0.50032  0.09685  0.96857  1
 H  H7  1  0.50001  0.60160  0.70616  1
 H  H8  1  0.49999  0.10160  0.29384  1
 O  O1  1  0.99991  0.87651  0.78579  1
 O  O2  1  0.00009  0.37651  0.21421  1
 O  O3  1  0.49989  0.74174  0.05765  1
 O  O4  1  0.50011  0.24174  0.94235  1
 O  O5  1  0.49999  0.53536  0.56454  1
 O  O6  1  0.50001  0.03536  0.43546  1
 Sr  Sr1  1  0.99996  0.75085  0.37089  1
 Sr  Sr2  1  0.00004  0.25085  0.62911  1
