CIF file written using JARVIS-Tools package.
data_UGa5Fe
_symmetry_space_group_name_H-M  'P4/mmm'
_cell_length_a       4.24876
_cell_length_b       4.24876
_cell_length_c       6.66792
_cell_angle_alpha    90
_cell_angle_beta     90
_cell_angle_gamma    90

_symmetry_Int_Tables_number  123
_chemical_formula_structural  UGa5Fe
_chemical_formula_sum  UGa5Fe
_cell_volume  120.36921856853547
_cell_formula_units_Z  1
loop_
  _symmetry_equiv_pos_site_id
 _symmetry_equiv_pos_as_xyz
 1  'x, y, z'
loop_
 _atom_site_type_symbol
 _atom_site_label
 _atom_site_symmetry_multiplicity
 _atom_site_fract_x
 _atom_site_fract_y
 _atom_site_fract_z
 _atom_site_fract_occupancy
 Fe  Fe1  1  0.00000  0.00000  0.50000  1
 Ga  Ga1  1  0.50000  0.50000  0.00000  1
 Ga  Ga2  1  0.50000  0.00000  0.69163  1
 Ga  Ga3  1  0.00000  0.50000  0.69163  1
 Ga  Ga4  1  0.50000  0.00000  0.30837  1
 Ga  Ga5  1  0.00000  0.50000  0.30837  1
 U  U1  1  0.00000  0.00000  0.00000  1
