CIF file written using JARVIS-Tools package.
data_V2Ga5
_symmetry_space_group_name_H-M  'P4/mbm'
_cell_length_a       2.6767
_cell_length_b       8.97126
_cell_length_c       8.97126
_cell_angle_alpha    90
_cell_angle_beta     90
_cell_angle_gamma    90

_symmetry_Int_Tables_number  127
_chemical_formula_structural  V2Ga5
_chemical_formula_sum  V4Ga0
_cell_volume  215.43007481316604
_cell_formula_units_Z  2
loop_
  _symmetry_equiv_pos_site_id
 _symmetry_equiv_pos_as_xyz
 1  'x, y, z'
loop_
 _atom_site_type_symbol
 _atom_site_label
 _atom_site_symmetry_multiplicity
 _atom_site_fract_x
 _atom_site_fract_y
 _atom_site_fract_z
 _atom_site_fract_occupancy
 Ga  Ga1  1  0.00000  0.56177  0.70619  1
 Ga  Ga2  1  0.00000  0.70619  0.43823  1
 Ga  Ga3  1  0.00000  0.79381  0.93823  1
 Ga  Ga4  1  0.00000  0.20619  0.06177  1
 Ga  Ga5  1  0.00000  0.06177  0.79381  1
 Ga  Ga6  1  0.00000  0.93823  0.20619  1
 Ga  Ga7  1  0.00000  0.43823  0.29381  1
 Ga  Ga8  1  0.00000  0.29381  0.56177  1
 Ga  Ga9  1  0.00000  0.50000  0.00000  1
 Ga  Ga10  1  0.00000  0.00000  0.50000  1
 V  V1  1  0.50000  0.67938  0.17938  1
 V  V2  1  0.50000  0.82062  0.67938  1
 V  V3  1  0.50000  0.17938  0.32062  1
 V  V4  1  0.50000  0.32062  0.82062  1
