CIF file written using JARVIS-Tools package.
data_Ca3SiBr2
_symmetry_space_group_name_H-M  'R3m'
_cell_length_a       11.5979
_cell_length_b       11.5979
_cell_length_c       11.5979
_cell_angle_alpha    20.8049
_cell_angle_beta     20.8049
_cell_angle_gamma    20.8049

_symmetry_Int_Tables_number  160
_chemical_formula_structural  Ca3SiBr2
_chemical_formula_sum  Ca3SiBr2
_cell_volume  172.31593551758155
_cell_formula_units_Z  1
loop_
  _symmetry_equiv_pos_site_id
 _symmetry_equiv_pos_as_xyz
 1  'x, y, z'
loop_
 _atom_site_type_symbol
 _atom_site_label
 _atom_site_symmetry_multiplicity
 _atom_site_fract_x
 _atom_site_fract_y
 _atom_site_fract_z
 _atom_site_fract_occupancy
 Br  Br1  1  0.50365  0.50365  0.50365  1
 Br  Br2  1  0.73534  0.73534  0.73534  1
 Ca  Ca1  1  0.11996  0.11996  0.11996  1
 Ca  Ca2  1  -0.00050  -0.00050  -0.00050  1
 Ca  Ca3  1  0.90073  0.90073  0.90073  1
 Si  Si1  1  0.28382  0.28382  0.28382  1
