CIF file written using JARVIS-Tools package.
data_NaSnP
_symmetry_space_group_name_H-M  'P6_3mc'
_cell_length_a       3.93875
_cell_length_b       3.93876
_cell_length_c       11.5485
_cell_angle_alpha    90
_cell_angle_beta     90
_cell_angle_gamma    120

_symmetry_Int_Tables_number  186
_chemical_formula_structural  NaSnP
_chemical_formula_sum  Na2Sn2P2
_cell_volume  155.1580454298499
_cell_formula_units_Z  2
loop_
  _symmetry_equiv_pos_site_id
 _symmetry_equiv_pos_as_xyz
 1  'x, y, z'
loop_
 _atom_site_type_symbol
 _atom_site_label
 _atom_site_symmetry_multiplicity
 _atom_site_fract_x
 _atom_site_fract_y
 _atom_site_fract_z
 _atom_site_fract_occupancy
 Na  Na1  1  0.33333  0.66667  0.27742  1
 Na  Na2  1  0.66667  0.33333  0.77742  1
 P  P1  1  0.33333  0.66667  0.61471  1
 P  P2  1  0.66667  0.33333  0.11471  1
 Sn  Sn1  1  0.00000  0.00000  -0.00133  1
 Sn  Sn2  1  0.00000  0.00000  0.49867  1
