CIF file written using JARVIS-Tools package.
data_Sc2Se3
_symmetry_space_group_name_H-M  'Immm'
_cell_length_a       6.74767
_cell_length_b       6.74768
_cell_length_c       6.74767
_cell_angle_alpha    147.131
_cell_angle_beta     132.928
_cell_angle_gamma    58.6017

_symmetry_Int_Tables_number  71
_chemical_formula_structural  Sc2Se3
_chemical_formula_sum  Sc2Se3
_cell_volume  121.0785823082799
_cell_formula_units_Z  1
loop_
  _symmetry_equiv_pos_site_id
 _symmetry_equiv_pos_as_xyz
 1  'x, y, z'
loop_
 _atom_site_type_symbol
 _atom_site_label
 _atom_site_symmetry_multiplicity
 _atom_site_fract_x
 _atom_site_fract_y
 _atom_site_fract_z
 _atom_site_fract_occupancy
 Sc  Sc1  1  0.66219  0.16219  0.50000  1
 Sc  Sc2  1  0.33781  0.83781  0.50000  1
 Se  Se1  1  0.50000  0.50000  -0.00000  1
 Se  Se2  1  0.17683  0.17683  0.00000  1
 Se  Se3  1  0.82317  0.82317  -0.00000  1
