CIF file written using JARVIS-Tools package.
data_Bi2TeO2
_symmetry_space_group_name_H-M  'I4/mmm'
_cell_length_a       7.0195
_cell_length_b       7.01949
_cell_length_c       4.01993
_cell_angle_alpha    73.3613
_cell_angle_beta     73.3609
_cell_angle_gamma    33.2779

_symmetry_Int_Tables_number  139
_chemical_formula_structural  Bi2TeO2
_chemical_formula_sum  Bi2TeO2
_cell_volume  103.7171054056586
_cell_formula_units_Z  1
loop_
  _symmetry_equiv_pos_site_id
 _symmetry_equiv_pos_as_xyz
 1  'x, y, z'
loop_
 _atom_site_type_symbol
 _atom_site_label
 _atom_site_symmetry_multiplicity
 _atom_site_fract_x
 _atom_site_fract_y
 _atom_site_fract_z
 _atom_site_fract_occupancy
 Bi  Bi1  1  0.65003  0.65634  0.34366  1
 Bi  Bi2  1  0.34366  0.34997  0.65003  1
 O  O1  1  0.24683  0.25317  0.24683  1
 O  O2  1  0.74683  0.75317  0.74683  1
 Te  Te1  1  0.99681  0.00319  0.99681  1
