CIF file written using JARVIS-Tools package.
data_HfB2O5
_symmetry_space_group_name_H-M  'P2_1/c'
_cell_length_a       4.39715
_cell_length_b       6.93018
_cell_length_c       9.00381
_cell_angle_alpha    90
_cell_angle_beta     90.6752
_cell_angle_gamma    90

_symmetry_Int_Tables_number  14
_chemical_formula_structural  HfB2O5
_chemical_formula_sum  Hf4B8O20
_cell_volume  274.3548192190104
_cell_formula_units_Z  4
loop_
  _symmetry_equiv_pos_site_id
 _symmetry_equiv_pos_as_xyz
 1  'x, y, z'
loop_
 _atom_site_type_symbol
 _atom_site_label
 _atom_site_symmetry_multiplicity
 _atom_site_fract_x
 _atom_site_fract_y
 _atom_site_fract_z
 _atom_site_fract_occupancy
 B  B1  1  0.46380  0.41358  0.66642  1
 B  B2  1  0.52668  0.27134  0.92372  1
 B  B3  1  0.53620  0.58642  0.33358  1
 B  B4  1  0.53620  0.91358  0.83358  1
 B  B5  1  0.47332  0.77134  0.57628  1
 B  B6  1  0.47332  0.72866  0.07628  1
 B  B7  1  0.46380  0.08642  0.16642  1
 B  B8  1  0.52668  0.22866  0.42372  1
 Hf  Hf1  1  0.00117  0.11248  0.67059  1
 Hf  Hf2  1  0.00117  0.38752  0.17059  1
 Hf  Hf3  1  0.99883  0.88752  0.32941  1
 Hf  Hf4  1  0.99883  0.61248  0.82941  1
 O  O1  1  0.67094  0.10545  0.84935  1
 O  O2  1  0.32906  0.89455  0.15065  1
 O  O3  1  0.76857  0.40348  0.96824  1
 O  O4  1  0.32906  0.60545  0.65065  1
 O  O5  1  0.21297  0.58975  0.32057  1
 O  O6  1  0.23143  0.90348  0.53176  1
 O  O7  1  0.21297  0.91025  0.82057  1
 O  O8  1  0.34650  0.27817  0.55496  1
 O  O9  1  0.69621  0.84515  0.69170  1
 O  O10  1  0.69621  0.65485  0.19170  1
 O  O11  1  0.78703  0.41025  0.67943  1
 O  O12  1  0.65350  0.72183  0.44504  1
 O  O13  1  0.30379  0.34515  0.80830  1
 O  O14  1  0.30379  0.15485  0.30830  1
 O  O15  1  0.67094  0.39455  0.34935  1
 O  O16  1  0.76857  0.09652  0.46824  1
 O  O17  1  0.65350  0.77817  0.94504  1
 O  O18  1  0.78703  0.08975  0.17943  1
 O  O19  1  0.34650  0.22183  0.05496  1
 O  O20  1  0.23143  0.59652  0.03176  1
