CIF file written using JARVIS-Tools package.
data_ZrHBr
_symmetry_space_group_name_H-M  'P-3m1'
_cell_length_a       3.43534
_cell_length_b       3.43535
_cell_length_c       10.0453
_cell_angle_alpha    90
_cell_angle_beta     90
_cell_angle_gamma    120

_symmetry_Int_Tables_number  164
_chemical_formula_structural  ZrHBr
_chemical_formula_sum  Zr2H2Br2
_cell_volume  102.6680918631202
_cell_formula_units_Z  2
loop_
  _symmetry_equiv_pos_site_id
 _symmetry_equiv_pos_as_xyz
 1  'x, y, z'
loop_
 _atom_site_type_symbol
 _atom_site_label
 _atom_site_symmetry_multiplicity
 _atom_site_fract_x
 _atom_site_fract_y
 _atom_site_fract_z
 _atom_site_fract_occupancy
 Br  Br1  1  0.33333  0.66667  0.16299  1
 Br  Br2  1  0.66667  0.33333  0.83701  1
 H  H1  1  0.33333  0.66667  0.44149  1
 H  H2  1  0.66667  0.33333  0.55851  1
 Zr  Zr1  1  0.33333  0.66667  0.64654  1
 Zr  Zr2  1  0.66667  0.33333  0.35346  1
