CIF file written using JARVIS-Tools package.
data_Mg5Si6
_symmetry_space_group_name_H-M  'C2/m'
_cell_length_a       3.64365
_cell_length_b       6.90243
_cell_length_c       8.56226
_cell_angle_alpha    93.9963
_cell_angle_beta     102.285
_cell_angle_gamma    90

_symmetry_Int_Tables_number  12
_chemical_formula_structural  Mg5Si6
_chemical_formula_sum  Mg5Si6
_cell_volume  209.87461017790122
_cell_formula_units_Z  1
loop_
  _symmetry_equiv_pos_site_id
 _symmetry_equiv_pos_as_xyz
 1  'x, y, z'
loop_
 _atom_site_type_symbol
 _atom_site_label
 _atom_site_symmetry_multiplicity
 _atom_site_fract_x
 _atom_site_fract_y
 _atom_site_fract_z
 _atom_site_fract_occupancy
 Mg  Mg1  1  0.50000  0.00000  -0.00000  1
 Mg  Mg2  1  0.67030  0.98021  0.34061  1
 Mg  Mg3  1  0.32970  0.01979  0.65939  1
 Mg  Mg4  1  0.58098  0.41459  0.16197  1
 Mg  Mg5  1  0.41902  0.58541  0.83803  1
 Si  Si1  1  0.94063  0.25615  0.88125  1
 Si  Si2  1  0.05937  0.74385  0.11875  1
 Si  Si3  1  0.79159  0.71729  0.58317  1
 Si  Si4  1  0.20841  0.28271  0.41683  1
 Si  Si5  1  0.80554  0.35367  0.61108  1
 Si  Si6  1  0.19446  0.64633  0.38892  1
