CIF file written using JARVIS-Tools package.
data_ZrFeCo
_symmetry_space_group_name_H-M  'Imma'
_cell_length_a       4.91158
_cell_length_b       4.91157
_cell_length_c       4.91157
_cell_angle_alpha    121.088
_cell_angle_beta     118.773
_cell_angle_gamma    90.1316

_symmetry_Int_Tables_number  74
_chemical_formula_structural  ZrFeCo
_chemical_formula_sum  Zr2Fe2Co2
_cell_volume  83.82605237654259
_cell_formula_units_Z  2
loop_
  _symmetry_equiv_pos_site_id
 _symmetry_equiv_pos_as_xyz
 1  'x, y, z'
loop_
 _atom_site_type_symbol
 _atom_site_label
 _atom_site_symmetry_multiplicity
 _atom_site_fract_x
 _atom_site_fract_y
 _atom_site_fract_z
 _atom_site_fract_occupancy
 Co  Co1  1  0.50000  0.50000  0.00000  1
 Co  Co2  1  0.00000  0.50000  0.50000  1
 Fe  Fe1  1  0.50000  0.50000  0.50000  1
 Fe  Fe2  1  0.50000  -0.00000  0.00000  1
 Zr  Zr1  1  0.12767  0.87767  0.25000  1
 Zr  Zr2  1  0.87233  0.12233  0.75000  1
