CIF file written using JARVIS-Tools package.
data_U2PtC2
_symmetry_space_group_name_H-M  'I4/mmm'
_cell_length_a       3.53657
_cell_length_b       3.53657
_cell_length_c       6.75386
_cell_angle_alpha    105.178
_cell_angle_beta     105.178
_cell_angle_gamma    90

_symmetry_Int_Tables_number  139
_chemical_formula_structural  U2PtC2
_chemical_formula_sum  U2PtC2
_cell_volume  78.46887805546001
_cell_formula_units_Z  1
loop_
  _symmetry_equiv_pos_site_id
 _symmetry_equiv_pos_as_xyz
 1  'x, y, z'
loop_
 _atom_site_type_symbol
 _atom_site_label
 _atom_site_symmetry_multiplicity
 _atom_site_fract_x
 _atom_site_fract_y
 _atom_site_fract_z
 _atom_site_fract_occupancy
 C  C1  1  0.83181  0.83181  0.66361  1
 C  C2  1  0.16819  0.16819  0.33639  1
 Pt  Pt1  1  0.00000  0.00000  0.00000  1
 U  U1  1  0.64889  0.64889  0.29779  1
 U  U2  1  0.35111  0.35111  0.70221  1
