CIF file written using JARVIS-Tools package.
data_KAuS
_symmetry_space_group_name_H-M  'Cmcm'
_cell_length_a       4.99629
_cell_length_b       4.99629
_cell_length_c       6.74196
_cell_angle_alpha    90
_cell_angle_beta     90
_cell_angle_gamma    102.381

_symmetry_Int_Tables_number  63
_chemical_formula_structural  KAuS
_chemical_formula_sum  K2Au2S2
_cell_volume  164.38511834792334
_cell_formula_units_Z  2
loop_
  _symmetry_equiv_pos_site_id
 _symmetry_equiv_pos_as_xyz
 1  'x, y, z'
loop_
 _atom_site_type_symbol
 _atom_site_label
 _atom_site_symmetry_multiplicity
 _atom_site_fract_x
 _atom_site_fract_y
 _atom_site_fract_z
 _atom_site_fract_occupancy
 Au  Au1  1  0.00000  0.00000  0.00000  1
 Au  Au2  1  0.00000  0.00000  0.50000  1
 K  K1  1  0.62561  0.37439  0.25000  1
 K  K2  1  0.37439  0.62561  0.75000  1
 S  S1  1  0.20746  0.79254  0.25000  1
 S  S2  1  0.79254  0.20746  0.75000  1
