CIF file written using JARVIS-Tools package.
data_NdMgAg
_symmetry_space_group_name_H-M  'P-62m'
_cell_length_a       7.77579
_cell_length_b       7.77579
_cell_length_c       4.28049
_cell_angle_alpha    90
_cell_angle_beta     90
_cell_angle_gamma    120

_symmetry_Int_Tables_number  189
_chemical_formula_structural  NdMgAg
_chemical_formula_sum  Nd3Mg3Ag3
_cell_volume  224.1367627064141
_cell_formula_units_Z  3
loop_
  _symmetry_equiv_pos_site_id
 _symmetry_equiv_pos_as_xyz
 1  'x, y, z'
loop_
 _atom_site_type_symbol
 _atom_site_label
 _atom_site_symmetry_multiplicity
 _atom_site_fract_x
 _atom_site_fract_y
 _atom_site_fract_z
 _atom_site_fract_occupancy
 Ag  Ag1  1  0.33333  0.66667  0.50000  1
 Ag  Ag2  1  0.66667  0.33333  0.50000  1
 Ag  Ag3  1  0.00000  0.00000  0.00000  1
 Mg  Mg1  1  0.24105  0.00000  0.50000  1
 Mg  Mg2  1  0.00000  0.24105  0.50000  1
 Mg  Mg3  1  0.75895  0.75895  0.50000  1
 Nd  Nd1  1  0.58511  0.00000  0.00000  1
 Nd  Nd2  1  0.00000  0.58511  0.00000  1
 Nd  Nd3  1  0.41489  0.41489  0.00000  1
