CIF file written using JARVIS-Tools package.
data_FeBiO3
_symmetry_space_group_name_H-M  'Cm'
_cell_length_a       6.92449
_cell_length_b       5.8358
_cell_length_c       3.87118
_cell_angle_alpha    74.8724
_cell_angle_beta     61.2709
_cell_angle_gamma    32.7004

_symmetry_Int_Tables_number  8
_chemical_formula_structural  FeBiO3
_chemical_formula_sum  FeBiO3
_cell_volume  70.62707271697327
_cell_formula_units_Z  1
loop_
  _symmetry_equiv_pos_site_id
 _symmetry_equiv_pos_as_xyz
 1  'x, y, z'
loop_
 _atom_site_type_symbol
 _atom_site_label
 _atom_site_symmetry_multiplicity
 _atom_site_fract_x
 _atom_site_fract_y
 _atom_site_fract_z
 _atom_site_fract_occupancy
 Bi  Bi1  1  -0.25501  0.27440  0.17944  1
 Fe  Fe1  1  0.21044  0.33340  0.24692  1
 O  O1  1  0.11768  0.10190  0.43336  1
 O  O2  1  0.67345  -0.09411  0.32109  1
 O  O3  1  0.36744  0.49841  -0.06681  1
