CIF file written using JARVIS-Tools package.
data_ScAu4
_symmetry_space_group_name_H-M  'I4/m'
_cell_length_a       4.0822
_cell_length_b       5.12356
_cell_length_c       5.12356
_cell_angle_alpha    80.8684
_cell_angle_beta     66.5234
_cell_angle_gamma    66.5234

_symmetry_Int_Tables_number  87
_chemical_formula_structural  ScAu4
_chemical_formula_sum  ScAu4
_cell_volume  90.15431894476953
_cell_formula_units_Z  1
loop_
  _symmetry_equiv_pos_site_id
 _symmetry_equiv_pos_as_xyz
 1  'x, y, z'
loop_
 _atom_site_type_symbol
 _atom_site_label
 _atom_site_symmetry_multiplicity
 _atom_site_fract_x
 _atom_site_fract_y
 _atom_site_fract_z
 _atom_site_fract_occupancy
 Au  Au1  1  0.60230  0.60129  0.19412  1
 Au  Au2  1  0.39770  0.39871  0.80588  1
 Au  Au3  1  0.20358  0.19412  0.39871  1
 Au  Au4  1  0.79642  0.80588  0.60129  1
 Sc  Sc1  1  0.00000  0.00000  0.00000  1
