CIF file written using JARVIS-Tools package.
data_YSiPd
_symmetry_space_group_name_H-M  'C2/m'
_cell_length_a       5.63083
_cell_length_b       5.63083
_cell_length_c       7.01966
_cell_angle_alpha    51.0553
_cell_angle_beta     51.0553
_cell_angle_gamma    44.4922

_symmetry_Int_Tables_number  12
_chemical_formula_structural  YSiPd
_chemical_formula_sum  Y2Si2Pd2
_cell_volume  114.49206351153393
_cell_formula_units_Z  2
loop_
  _symmetry_equiv_pos_site_id
 _symmetry_equiv_pos_as_xyz
 1  'x, y, z'
loop_
 _atom_site_type_symbol
 _atom_site_label
 _atom_site_symmetry_multiplicity
 _atom_site_fract_x
 _atom_site_fract_y
 _atom_site_fract_z
 _atom_site_fract_occupancy
 Pd  Pd1  1  0.81812  0.81812  0.62380  1
 Pd  Pd2  1  0.18188  0.18188  0.37620  1
 Si  Si1  1  0.15341  0.15341  0.79368  1
 Si  Si2  1  0.84659  0.84659  0.20632  1
 Y  Y1  1  0.45074  0.45074  0.78875  1
 Y  Y2  1  0.54926  0.54926  0.21125  1
