CIF file written using JARVIS-Tools package.
data_Ge
_symmetry_space_group_name_H-M  'Cmmm'
_cell_length_a       2.91144
_cell_length_b       2.91144
_cell_length_c       2.69781
_cell_angle_alpha    90
_cell_angle_beta     90
_cell_angle_gamma    120.427

_symmetry_Int_Tables_number  65
_chemical_formula_structural  Ge
_chemical_formula_sum  Ge
_cell_volume  19.71842339546639
_cell_formula_units_Z  1
loop_
  _symmetry_equiv_pos_site_id
 _symmetry_equiv_pos_as_xyz
 1  'x, y, z'
loop_
 _atom_site_type_symbol
 _atom_site_label
 _atom_site_symmetry_multiplicity
 _atom_site_fract_x
 _atom_site_fract_y
 _atom_site_fract_z
 _atom_site_fract_occupancy
 Ge  Ge1  1  0.50000  0.50000  0.00000  1
