CIF file written using JARVIS-Tools package.
data_AuF3
_symmetry_space_group_name_H-M  'P6_122'
_cell_length_a       5.09108
_cell_length_b       5.09108
_cell_length_c       16.6311
_cell_angle_alpha    90
_cell_angle_beta     90
_cell_angle_gamma    120

_symmetry_Int_Tables_number  178
_chemical_formula_structural  AuF3
_chemical_formula_sum  Au6F8
_cell_volume  373.31088074020965
_cell_formula_units_Z  6
loop_
  _symmetry_equiv_pos_site_id
 _symmetry_equiv_pos_as_xyz
 1  'x, y, z'
loop_
 _atom_site_type_symbol
 _atom_site_label
 _atom_site_symmetry_multiplicity
 _atom_site_fract_x
 _atom_site_fract_y
 _atom_site_fract_z
 _atom_site_fract_occupancy
 Au  Au1  1  0.24153  0.48306  0.25000  1
 Au  Au2  1  0.48306  0.24153  0.08333  1
 Au  Au3  1  0.51694  0.75847  0.58333  1
 Au  Au4  1  0.24153  0.75847  0.91667  1
 Au  Au5  1  0.75847  0.51694  0.75000  1
 Au  Au6  1  0.75847  0.24153  0.41667  1
 F  F1  1  0.52790  0.31783  0.49551  1
 F  F2  1  0.68217  0.21007  0.82885  1
 F  F3  1  0.31783  0.78993  0.32885  1
 F  F4  1  0.21007  0.68217  0.50449  1
 F  F5  1  0.21007  0.52790  0.66218  1
 F  F6  1  0.15742  -0.00000  0.00000  1
 F  F7  1  0.15742  0.15742  0.16667  1
 F  F8  1  0.00000  0.84258  0.83333  1
 F  F9  1  0.78993  0.31783  0.00449  1
 F  F10  1  0.78993  0.47210  0.16218  1
 F  F11  1  0.84258  0.84258  0.66667  1
 F  F12  1  0.47210  0.78993  0.17115  1
 F  F13  1  0.31783  0.52790  0.83782  1
 F  F14  1  0.68217  0.47210  0.33782  1
 F  F15  1  0.52790  0.21007  0.67115  1
 F  F16  1  0.47210  0.68217  0.99551  1
 F  F17  1  -0.00000  0.15742  0.33333  1
 F  F18  1  0.84258  0.00000  0.50000  1
