CIF file written using JARVIS-Tools package.
data_MnAgO3
_symmetry_space_group_name_H-M  'R-3'
_cell_length_a       5.01873
_cell_length_b       5.95204
_cell_length_c       5.01914
_cell_angle_alpha    114.945
_cell_angle_beta     60.0025
_cell_angle_gamma    114.928

_symmetry_Int_Tables_number  148
_chemical_formula_structural  MnAgO3
_chemical_formula_sum  Mn2Ag2O6
_cell_volume  113.41897391990427
_cell_formula_units_Z  2
loop_
  _symmetry_equiv_pos_site_id
 _symmetry_equiv_pos_as_xyz
 1  'x, y, z'
loop_
 _atom_site_type_symbol
 _atom_site_label
 _atom_site_symmetry_multiplicity
 _atom_site_fract_x
 _atom_site_fract_y
 _atom_site_fract_z
 _atom_site_fract_occupancy
 Ag  Ag1  1  0.13808  0.41442  0.13820  1
 Ag  Ag2  1  0.86192  0.58558  0.86180  1
 Mn  Mn1  1  0.33982  0.01942  0.33977  1
 Mn  Mn2  1  0.66018  0.98058  0.66023  1
 O  O1  1  0.06068  0.20338  0.45750  1
 O  O2  1  0.54264  0.79662  0.31471  1
 O  O3  1  0.31484  0.79662  0.93918  1
 O  O4  1  0.68516  0.20338  0.06082  1
 O  O5  1  0.45736  0.20338  0.68529  1
 O  O6  1  0.93932  0.79662  0.54250  1
