CIF file written using JARVIS-Tools package.
data_BaFe2As2
_symmetry_space_group_name_H-M  'I4/mmm'
_cell_length_a       3.96179
_cell_length_b       3.96179
_cell_length_c       12.639
_cell_angle_alpha    90
_cell_angle_beta     90
_cell_angle_gamma    90

_symmetry_Int_Tables_number  139
_chemical_formula_structural  BaFe2As2
_chemical_formula_sum  Ba2Fe4As4
_cell_volume  198.37942502857942
_cell_formula_units_Z  2
loop_
  _symmetry_equiv_pos_site_id
 _symmetry_equiv_pos_as_xyz
 1  'x, y, z'
loop_
 _atom_site_type_symbol
 _atom_site_label
 _atom_site_symmetry_multiplicity
 _atom_site_fract_x
 _atom_site_fract_y
 _atom_site_fract_z
 _atom_site_fract_occupancy
 As  As1  1  0.00000  0.00000  0.34622  1
 As  As2  1  0.50000  0.50000  0.84622  1
 As  As3  1  0.00000  0.00000  0.65378  1
 As  As4  1  0.50000  0.50000  0.15378  1
 Ba  Ba1  1  0.00000  0.00000  0.00000  1
 Ba  Ba2  1  0.50000  0.50000  0.50000  1
 Fe  Fe1  1  0.50000  0.00000  0.25000  1
 Fe  Fe2  1  0.00000  0.50000  0.75000  1
 Fe  Fe3  1  0.50000  0.00000  0.75000  1
 Fe  Fe4  1  0.00000  0.50000  0.25000  1
