CIF file written using JARVIS-Tools package.
data_Li2Co3SnO8
_symmetry_space_group_name_H-M  'P6_3mc'
_cell_length_a       5.74843
_cell_length_b       5.74839
_cell_length_c       9.45943
_cell_angle_alpha    90
_cell_angle_beta     89.9999
_cell_angle_gamma    120

_symmetry_Int_Tables_number  186
_chemical_formula_structural  Li2Co3SnO8
_chemical_formula_sum  Li4Co6Sn2O6
_cell_volume  270.70234404172294
_cell_formula_units_Z  2
loop_
  _symmetry_equiv_pos_site_id
 _symmetry_equiv_pos_as_xyz
 1  'x, y, z'
loop_
 _atom_site_type_symbol
 _atom_site_label
 _atom_site_symmetry_multiplicity
 _atom_site_fract_x
 _atom_site_fract_y
 _atom_site_fract_z
 _atom_site_fract_occupancy
 Co  Co1  1  0.16928  0.83070  0.21505  1
 Co  Co2  1  0.66138  0.83070  0.21505  1
 Co  Co3  1  0.16929  0.33861  0.21506  1
 Co  Co4  1  0.83071  0.16932  0.71506  1
 Co  Co5  1  0.83072  0.66141  0.71505  1
 Co  Co6  1  0.33862  0.16932  0.71505  1
 Li  Li1  1  0.33333  0.66668  0.89342  1
 Li  Li2  1  0.00005  0.00004  0.49603  1
 Li  Li3  1  -0.00005  -0.00001  0.99603  1
 Li  Li4  1  0.66667  0.33335  0.39342  1
 O  O1  1  0.03065  0.51534  0.33083  1
 O  O2  1  0.15590  0.84414  0.60451  1
 O  O3  1  0.96935  0.48469  0.83083  1
 O  O4  1  0.33332  0.66667  0.11203  1
 O  O5  1  -0.00001  -0.00000  0.30779  1
 O  O6  1  0.00001  0.00001  0.80779  1
 O  O7  1  0.15589  0.31177  0.60451  1
 O  O8  1  0.48467  0.51532  0.33082  1
 O  O9  1  0.84410  0.68824  0.10451  1
 O  O10  1  0.51533  0.48470  0.83082  1
 O  O11  1  0.51533  0.03065  0.83082  1
 O  O12  1  0.66668  0.33335  0.61203  1
 O  O13  1  0.48467  0.96938  0.33082  1
 O  O14  1  0.31170  0.15586  0.10449  1
 O  O15  1  0.68830  0.84416  0.60449  1
 O  O16  1  0.84411  0.15588  0.10451  1
 Sn  Sn1  1  0.66663  0.33332  0.99352  1
 Sn  Sn2  1  0.33337  0.66669  0.49352  1
