CIF file written using JARVIS-Tools package.
data_Al2SiO5
_symmetry_space_group_name_H-M  'P-1'
_cell_length_a       5.33049
_cell_length_b       8.50915
_cell_length_c       8.52227
_cell_angle_alpha    110.76
_cell_angle_beta     77.0253
_cell_angle_gamma    100.134

_symmetry_Int_Tables_number  2
_chemical_formula_structural  Al2SiO5
_chemical_formula_sum  Al8Si4O20
_cell_volume  350.25203923182255
_cell_formula_units_Z  4
loop_
  _symmetry_equiv_pos_site_id
 _symmetry_equiv_pos_as_xyz
 1  'x, y, z'
loop_
 _atom_site_type_symbol
 _atom_site_label
 _atom_site_symmetry_multiplicity
 _atom_site_fract_x
 _atom_site_fract_y
 _atom_site_fract_z
 _atom_site_fract_occupancy
 Al  Al1  1  0.78368  0.83001  0.31306  1
 Al  Al2  1  0.26233  0.99353  0.94422  1
 Al  Al3  1  0.67205  0.19003  0.80834  1
 Al  Al4  1  0.32795  0.80997  0.19166  1
 Al  Al5  1  0.87597  0.81793  0.67076  1
 Al  Al6  1  0.73767  0.00647  0.05578  1
 Al  Al7  1  0.12403  0.18207  0.32924  1
 Al  Al8  1  0.21632  0.16999  0.68694  1
 O  O1  1  0.41156  0.84678  0.99125  1
 O  O2  1  0.12152  0.70400  0.49025  1
 O  O3  1  0.49906  0.33120  0.75253  1
 O  O4  1  0.50094  0.66880  0.24747  1
 O  O5  1  0.58844  0.15322  0.00875  1
 O  O6  1  0.37574  0.04068  0.74895  1
 O  O7  1  0.35055  0.22998  0.48458  1
 O  O8  1  0.31924  0.53658  0.61986  1
 O  O9  1  0.00853  0.64673  0.19373  1
 O  O10  1  0.04973  0.12795  0.12106  1
 O  O11  1  0.09022  0.95883  0.32170  1
 O  O12  1  0.21186  0.42570  0.31317  1
 O  O13  1  0.64945  0.77002  0.51542  1
 O  O14  1  0.95027  0.87205  0.87894  1
 O  O15  1  -0.00853  0.35327  0.80627  1
 O  O16  1  0.90978  0.04117  0.67830  1
 O  O17  1  0.78814  0.57430  0.68683  1
 O  O18  1  0.87848  0.29600  0.50975  1
 O  O19  1  0.68076  0.46342  0.38014  1
 O  O20  1  0.62426  0.95932  0.25105  1
 Si  Si1  1  0.98850  0.54484  0.32592  1
 Si  Si2  1  0.42309  0.60788  0.42561  1
 Si  Si3  1  0.01150  0.45516  0.67408  1
 Si  Si4  1  0.57691  0.39212  0.57439  1
