CIF file written using JARVIS-Tools package.
data_DyY3
_symmetry_space_group_name_H-M  'P6_3/mmc'
_cell_length_a       7.21989
_cell_length_b       7.21989
_cell_length_c       5.62842
_cell_angle_alpha    90
_cell_angle_beta     90
_cell_angle_gamma    120

_symmetry_Int_Tables_number  194
_chemical_formula_structural  DyY3
_chemical_formula_sum  Dy2Y6
_cell_volume  254.08442694473464
_cell_formula_units_Z  2
loop_
  _symmetry_equiv_pos_site_id
 _symmetry_equiv_pos_as_xyz
 1  'x, y, z'
loop_
 _atom_site_type_symbol
 _atom_site_label
 _atom_site_symmetry_multiplicity
 _atom_site_fract_x
 _atom_site_fract_y
 _atom_site_fract_z
 _atom_site_fract_occupancy
 Dy  Dy1  1  0.33333  0.66667  0.75000  1
 Dy  Dy2  1  0.66667  0.33333  0.25000  1
 Y  Y1  1  0.16726  0.33452  0.25000  1
 Y  Y2  1  0.66548  0.83274  0.25000  1
 Y  Y3  1  0.16726  0.83274  0.25000  1
 Y  Y4  1  0.83274  0.66548  0.75000  1
 Y  Y5  1  0.33452  0.16726  0.75000  1
 Y  Y6  1  0.83274  0.16726  0.75000  1
