CIF file written using JARVIS-Tools package.
data_ErGa3
_symmetry_space_group_name_H-M  'P6_3/mmc'
_cell_length_a       6.2334
_cell_length_b       6.2334
_cell_length_c       4.51671
_cell_angle_alpha    90
_cell_angle_beta     90
_cell_angle_gamma    120

_symmetry_Int_Tables_number  194
_chemical_formula_structural  ErGa3
_chemical_formula_sum  Er2Ga6
_cell_volume  151.98557509143686
_cell_formula_units_Z  2
loop_
  _symmetry_equiv_pos_site_id
 _symmetry_equiv_pos_as_xyz
 1  'x, y, z'
loop_
 _atom_site_type_symbol
 _atom_site_label
 _atom_site_symmetry_multiplicity
 _atom_site_fract_x
 _atom_site_fract_y
 _atom_site_fract_z
 _atom_site_fract_occupancy
 Er  Er1  1  0.33333  0.66667  0.75000  1
 Er  Er2  1  0.66667  0.33333  0.25000  1
 Ga  Ga1  1  0.14995  0.29989  0.25000  1
 Ga  Ga2  1  0.70011  0.85005  0.25000  1
 Ga  Ga3  1  0.14995  0.85005  0.25000  1
 Ga  Ga4  1  0.85005  0.70011  0.75000  1
 Ga  Ga5  1  0.29989  0.14995  0.75000  1
 Ga  Ga6  1  0.85005  0.14995  0.75000  1
