CIF file written using JARVIS-Tools package.
data_YbMnCuP2
_symmetry_space_group_name_H-M  'P3m1'
_cell_length_a       3.90063
_cell_length_b       3.90064
_cell_length_c       6.51053
_cell_angle_alpha    90
_cell_angle_beta     90
_cell_angle_gamma    120

_symmetry_Int_Tables_number  156
_chemical_formula_structural  YbMnCuP2
_chemical_formula_sum  YbMnCuP2
_cell_volume  85.78609200688508
_cell_formula_units_Z  1
loop_
  _symmetry_equiv_pos_site_id
 _symmetry_equiv_pos_as_xyz
 1  'x, y, z'
loop_
 _atom_site_type_symbol
 _atom_site_label
 _atom_site_symmetry_multiplicity
 _atom_site_fract_x
 _atom_site_fract_y
 _atom_site_fract_z
 _atom_site_fract_occupancy
 Cu  Cu1  1  0.66667  0.33333  0.63489  1
 Mn  Mn1  1  0.00000  0.00000  0.37687  1
 P  P1  1  0.66667  0.33333  0.27286  1
 P  P2  1  0.00000  0.00000  0.72499  1
 Yb  Yb1  1  0.33333  0.66667  0.99039  1
