CIF file written using JARVIS-Tools package.
data_Eu2Co2O5
_symmetry_space_group_name_H-M  'P4/mmm'
_cell_length_a       3.77214
_cell_length_b       3.77214
_cell_length_c       6.80371
_cell_angle_alpha    90
_cell_angle_beta     90
_cell_angle_gamma    90

_symmetry_Int_Tables_number  123
_chemical_formula_structural  Eu2Co2O5
_chemical_formula_sum  Eu2Co2O5
_cell_volume  96.81016156907195
_cell_formula_units_Z  1
loop_
  _symmetry_equiv_pos_site_id
 _symmetry_equiv_pos_as_xyz
 1  'x, y, z'
loop_
 _atom_site_type_symbol
 _atom_site_label
 _atom_site_symmetry_multiplicity
 _atom_site_fract_x
 _atom_site_fract_y
 _atom_site_fract_z
 _atom_site_fract_occupancy
 Co  Co1  1  0.50000  0.50000  0.19668  1
 Co  Co2  1  0.50000  0.50000  0.80332  1
 Eu  Eu1  1  0.00000  0.00000  0.00000  1
 Eu  Eu2  1  0.00000  0.00000  0.50000  1
 O  O1  1  0.50000  0.00000  0.22942  1
 O  O2  1  0.50000  0.00000  0.77058  1
 O  O3  1  0.50000  0.50000  0.50000  1
 O  O4  1  0.00000  0.50000  0.22942  1
 O  O5  1  0.00000  0.50000  0.77058  1
