CIF file written using JARVIS-Tools package.
data_Li3V2Fe3O10
_symmetry_space_group_name_H-M  'P-1'
_cell_length_a       4.99533
_cell_length_b       4.8986
_cell_length_c       7.56663
_cell_angle_alpha    69.2223
_cell_angle_beta     73.3556
_cell_angle_gamma    81.9561

_symmetry_Int_Tables_number  2
_chemical_formula_structural  Li3V2Fe3O10
_chemical_formula_sum  Li3V2Fe3O0
_cell_volume  165.7093981929125
_cell_formula_units_Z  1
loop_
  _symmetry_equiv_pos_site_id
 _symmetry_equiv_pos_as_xyz
 1  'x, y, z'
loop_
 _atom_site_type_symbol
 _atom_site_label
 _atom_site_symmetry_multiplicity
 _atom_site_fract_x
 _atom_site_fract_y
 _atom_site_fract_z
 _atom_site_fract_occupancy
 Fe  Fe1  1  0.50000  0.00000  0.00000  1
 Fe  Fe2  1  0.99059  0.31069  0.89329  1
 Fe  Fe3  1  0.00941  0.68931  0.10671  1
 Li  Li1  1  0.50541  0.78490  0.40806  1
 Li  Li2  1  0.00000  0.50000  0.50000  1
 Li  Li3  1  0.49459  0.21510  0.59194  1
 O  O1  1  0.22590  0.13103  0.45660  1
 O  O2  1  0.77410  0.86897  0.54340  1
 O  O3  1  0.76675  0.63656  0.95600  1
 O  O4  1  0.20655  0.96557  0.85967  1
 O  O5  1  0.23025  0.55006  0.65702  1
 O  O6  1  0.23325  0.36344  0.04400  1
 O  O7  1  0.77333  0.21093  0.75389  1
 O  O8  1  0.22667  0.78907  0.24611  1
 O  O9  1  0.76975  0.44994  0.34298  1
 O  O10  1  0.79345  0.03443  0.14033  1
 V  V1  1  0.01714  0.16030  0.29317  1
 V  V2  1  -0.01714  0.83970  0.70683  1
