CIF file written using JARVIS-Tools package.
data_Sm2In3Cu
_symmetry_space_group_name_H-M  'P3m1'
_cell_length_a       4.74934
_cell_length_b       4.74934
_cell_length_c       7.59514
_cell_angle_alpha    90
_cell_angle_beta     90
_cell_angle_gamma    120

_symmetry_Int_Tables_number  156
_chemical_formula_structural  Sm2In3Cu
_chemical_formula_sum  Sm2In3Cu
_cell_volume  148.3653683875385
_cell_formula_units_Z  1
loop_
  _symmetry_equiv_pos_site_id
 _symmetry_equiv_pos_as_xyz
 1  'x, y, z'
loop_
 _atom_site_type_symbol
 _atom_site_label
 _atom_site_symmetry_multiplicity
 _atom_site_fract_x
 _atom_site_fract_y
 _atom_site_fract_z
 _atom_site_fract_occupancy
 Cu  Cu1  1  0.66667  0.33333  0.54281  1
 In  In1  1  0.00000  0.00000  0.48259  1
 In  In2  1  0.00000  0.00000  0.05105  1
 In  In3  1  0.66667  0.33333  0.93605  1
 Sm  Sm1  1  0.33333  0.66667  0.72461  1
 Sm  Sm2  1  0.33333  0.66667  0.26289  1
