CIF file written using JARVIS-Tools package.
data_P3IrO9
_symmetry_space_group_name_H-M  'P-1'
_cell_length_a       5.00598
_cell_length_b       6.96805
_cell_length_c       10.2821
_cell_angle_alpha    98.839
_cell_angle_beta     92.8104
_cell_angle_gamma    93.0313

_symmetry_Int_Tables_number  2
_chemical_formula_structural  P3IrO9
_chemical_formula_sum  P6Ir2O8
_cell_volume  353.31180241324785
_cell_formula_units_Z  2
loop_
  _symmetry_equiv_pos_site_id
 _symmetry_equiv_pos_as_xyz
 1  'x, y, z'
loop_
 _atom_site_type_symbol
 _atom_site_label
 _atom_site_symmetry_multiplicity
 _atom_site_fract_x
 _atom_site_fract_y
 _atom_site_fract_z
 _atom_site_fract_occupancy
 Ir  Ir1  1  0.50000  0.50000  0.50000  1
 Ir  Ir2  1  0.50000  -0.00000  -0.00000  1
 O  O1  1  0.88041  0.53960  0.23911  1
 O  O2  1  0.95971  0.89065  0.31974  1
 O  O3  1  0.04029  0.10935  0.68026  1
 O  O4  1  0.11959  0.46040  0.76089  1
 O  O5  1  0.84348  0.67141  0.48541  1
 O  O6  1  0.83293  0.88169  0.07383  1
 O  O7  1  0.60154  0.28543  0.08591  1
 O  O8  1  0.67929  0.06462  0.83443  1
 O  O9  1  0.16707  0.11831  0.92617  1
 O  O10  1  0.99304  0.19584  0.22666  1
 O  O11  1  0.57455  0.30215  0.33836  1
 O  O12  1  0.30276  0.66859  0.38323  1
 O  O13  1  0.39846  0.71457  0.91409  1
 O  O14  1  0.00696  0.80416  0.77334  1
 O  O15  1  0.69724  0.33141  0.61677  1
 O  O16  1  0.32071  0.93538  0.16557  1
 O  O17  1  0.15652  0.32859  0.51459  1
 O  O18  1  0.42545  0.69785  0.66164  1
 P  P1  1  0.26233  0.67317  0.77785  1
 P  P2  1  0.73767  0.32683  0.22215  1
 P  P3  1  0.00476  0.68712  0.36718  1
 P  P4  1  0.97022  0.03028  0.81438  1
 P  P5  1  0.02978  0.96972  0.18562  1
 P  P6  1  -0.00476  0.31288  0.63282  1
