CIF file written using JARVIS-Tools package.
data_U2AsS
_symmetry_space_group_name_H-M  'R-3m'
_cell_length_a       6.75069
_cell_length_b       6.75068
_cell_length_c       6.75069
_cell_angle_alpha    34.7762
_cell_angle_beta     34.7762
_cell_angle_gamma    34.7762

_symmetry_Int_Tables_number  166
_chemical_formula_structural  U2AsS
_chemical_formula_sum  U2AsS
_cell_volume  89.32823162144908
_cell_formula_units_Z  1
loop_
  _symmetry_equiv_pos_site_id
 _symmetry_equiv_pos_as_xyz
 1  'x, y, z'
loop_
 _atom_site_type_symbol
 _atom_site_label
 _atom_site_symmetry_multiplicity
 _atom_site_fract_x
 _atom_site_fract_y
 _atom_site_fract_z
 _atom_site_fract_occupancy
 As  As1  1  0.00000  0.00000  0.00000  1
 S  S1  1  0.50000  0.50000  0.50000  1
 U  U1  1  0.24449  0.24449  0.24449  1
 U  U2  1  0.75551  0.75551  0.75551  1
