CIF file written using JARVIS-Tools package.
data_AlH3
_symmetry_space_group_name_H-M  'Pnnm'
_cell_length_a       5.41422
_cell_length_b       5.80991
_cell_length_c       7.39112
_cell_angle_alpha    90
_cell_angle_beta     90
_cell_angle_gamma    90

_symmetry_Int_Tables_number  58
_chemical_formula_structural  AlH3
_chemical_formula_sum  Al6H8
_cell_volume  232.49606496531382
_cell_formula_units_Z  6
loop_
  _symmetry_equiv_pos_site_id
 _symmetry_equiv_pos_as_xyz
 1  'x, y, z'
loop_
 _atom_site_type_symbol
 _atom_site_label
 _atom_site_symmetry_multiplicity
 _atom_site_fract_x
 _atom_site_fract_y
 _atom_site_fract_z
 _atom_site_fract_occupancy
 Al  Al1  1  0.21206  0.00000  0.91311  1
 Al  Al2  1  0.78794  0.00000  0.08689  1
 Al  Al3  1  0.71206  0.50000  0.58689  1
 Al  Al4  1  0.00000  0.50000  0.00000  1
 Al  Al5  1  0.28794  0.50000  0.41311  1
 Al  Al6  1  0.50000  0.00000  0.50000  1
 H  H1  1  0.79770  0.70185  0.08533  1
 H  H2  1  0.09961  0.00000  0.13847  1
 H  H3  1  0.82262  0.50000  0.80241  1
 H  H4  1  0.20230  0.70185  0.91467  1
 H  H5  1  0.67738  0.00000  0.30241  1
 H  H6  1  0.79770  0.29815  0.08533  1
 H  H7  1  0.70230  0.79815  0.58533  1
 H  H8  1  0.59961  0.50000  0.36153  1
 H  H9  1  0.90039  0.00000  0.86153  1
 H  H10  1  0.50000  0.00000  0.00000  1
 H  H11  1  0.40039  0.50000  0.63847  1
 H  H12  1  0.32262  0.00000  0.69759  1
 H  H13  1  0.29770  0.79815  0.41467  1
 H  H14  1  0.70230  0.20185  0.58533  1
 H  H15  1  0.20230  0.29815  0.91467  1
 H  H16  1  0.29770  0.20185  0.41467  1
 H  H17  1  0.17738  0.50000  0.19759  1
 H  H18  1  0.00000  0.50000  0.50000  1
