CIF file written using JARVIS-Tools package.
data_Mn2OF2
_symmetry_space_group_name_H-M  'Cc'
_cell_length_a       5.44369
_cell_length_b       5.73781
_cell_length_c       5.44367
_cell_angle_alpha    95.0314
_cell_angle_beta     115.061
_cell_angle_gamma    117.333

_symmetry_Int_Tables_number  9
_chemical_formula_structural  Mn2OF2
_chemical_formula_sum  Mn4O2F4
_cell_volume  128.13829297953902
_cell_formula_units_Z  2
loop_
  _symmetry_equiv_pos_site_id
 _symmetry_equiv_pos_as_xyz
 1  'x, y, z'
loop_
 _atom_site_type_symbol
 _atom_site_label
 _atom_site_symmetry_multiplicity
 _atom_site_fract_x
 _atom_site_fract_y
 _atom_site_fract_z
 _atom_site_fract_occupancy
 F  F1  1  0.19992  0.79638  0.92403  1
 F  F2  1  0.87236  0.29639  0.09647  1
 F  F3  1  0.16986  0.23842  0.74906  1
 F  F4  1  0.48936  0.73842  0.56857  1
 Mn  Mn1  1  0.21774  0.90856  0.56535  1
 Mn  Mn2  1  0.70163  0.06273  0.33770  1
 Mn  Mn3  1  0.34322  0.40857  0.19083  1
 Mn  Mn4  1  0.72502  0.56272  0.86110  1
 O  O1  1  0.51903  0.24389  0.48203  1
 O  O2  1  0.76186  0.74390  0.22487  1
