CIF file written using JARVIS-Tools package.
data_NbMoO4
_symmetry_space_group_name_H-M  'Cmmm'
_cell_length_a       4.96697
_cell_length_b       4.96696
_cell_length_c       2.8478
_cell_angle_alpha    90
_cell_angle_beta     90
_cell_angle_gamma    89.6875

_symmetry_Int_Tables_number  65
_chemical_formula_structural  NbMoO4
_chemical_formula_sum  NbMoO4
_cell_volume  70.25628826454492
_cell_formula_units_Z  1
loop_
  _symmetry_equiv_pos_site_id
 _symmetry_equiv_pos_as_xyz
 1  'x, y, z'
loop_
 _atom_site_type_symbol
 _atom_site_label
 _atom_site_symmetry_multiplicity
 _atom_site_fract_x
 _atom_site_fract_y
 _atom_site_fract_z
 _atom_site_fract_occupancy
 Mo  Mo1  1  0.00000  0.00000  0.00000  1
 Nb  Nb1  1  0.50000  0.50000  0.50000  1
 O  O1  1  0.20950  0.20950  0.50000  1
 O  O2  1  0.79050  0.79050  0.50000  1
 O  O3  1  0.71782  0.28218  0.00000  1
 O  O4  1  0.28218  0.71782  0.00000  1
