CIF file written using JARVIS-Tools package.
data_LaPO4
_symmetry_space_group_name_H-M  'P6_222'
_cell_length_a       7.23528
_cell_length_b       7.23528
_cell_length_c       6.49759
_cell_angle_alpha    90
_cell_angle_beta     90
_cell_angle_gamma    120

_symmetry_Int_Tables_number  180
_chemical_formula_structural  LaPO4
_chemical_formula_sum  La3P3O2
_cell_volume  294.57365501251246
_cell_formula_units_Z  3
loop_
  _symmetry_equiv_pos_site_id
 _symmetry_equiv_pos_as_xyz
 1  'x, y, z'
loop_
 _atom_site_type_symbol
 _atom_site_label
 _atom_site_symmetry_multiplicity
 _atom_site_fract_x
 _atom_site_fract_y
 _atom_site_fract_z
 _atom_site_fract_occupancy
 La  La1  1  0.50000  0.00000  0.00000  1
 La  La2  1  -0.00000  0.50000  0.66667  1
 La  La3  1  0.50000  0.50000  0.33333  1
 O  O1  1  0.68955  0.13641  0.64592  1
 O  O2  1  0.86359  0.55314  0.31259  1
 O  O3  1  0.13641  0.44686  0.31259  1
 O  O4  1  0.55314  0.86359  0.35408  1
 O  O5  1  0.55314  0.68955  0.97926  1
 O  O6  1  0.44686  0.13641  0.35408  1
 O  O7  1  0.86359  0.31045  0.02074  1
 O  O8  1  0.31045  0.44686  0.68741  1
 O  O9  1  0.68955  0.55314  0.68741  1
 O  O10  1  0.31045  0.86359  0.64592  1
 O  O11  1  0.44686  0.31045  0.97926  1
 O  O12  1  0.13641  0.68955  0.02074  1
 P  P1  1  -0.00000  0.50000  0.16667  1
 P  P2  1  0.50000  0.50000  0.83333  1
 P  P3  1  0.50000  0.00000  0.50000  1
