CIF file written using JARVIS-Tools package.
data_Fe2O3
_symmetry_space_group_name_H-M  'R-3c'
_cell_length_a       4.97827
_cell_length_b       4.9783
_cell_length_c       5.41522
_cell_angle_alpha    117.368
_cell_angle_beta     89.9998
_cell_angle_gamma    120

_symmetry_Int_Tables_number  167
_chemical_formula_structural  Fe2O3
_chemical_formula_sum  Fe4O6
_cell_volume  98.50031372947541
_cell_formula_units_Z  2
loop_
  _symmetry_equiv_pos_site_id
 _symmetry_equiv_pos_as_xyz
 1  'x, y, z'
loop_
 _atom_site_type_symbol
 _atom_site_label
 _atom_site_symmetry_multiplicity
 _atom_site_fract_x
 _atom_site_fract_y
 _atom_site_fract_z
 _atom_site_fract_occupancy
 Fe  Fe1  1  0.64451  0.28901  0.93353  1
 Fe  Fe2  1  0.35549  0.71099  0.06647  1
 Fe  Fe3  1  0.85551  0.71101  0.56650  1
 Fe  Fe4  1  0.14449  0.28899  0.43350  1
 O  O1  1  0.44041  0.19041  0.25001  1
 O  O2  1  0.55959  0.80959  0.74999  1
 O  O3  1  0.74999  0.80959  0.24999  1
 O  O4  1  0.25001  0.19041  0.75001  1
 O  O5  1  0.05961  0.50001  0.25000  1
 O  O6  1  0.94039  0.49999  0.75000  1
