CIF file written using JARVIS-Tools package.
data_Li2NbCo3O8
_symmetry_space_group_name_H-M  'P6_3mc'
_cell_length_a       5.75859
_cell_length_b       5.7584
_cell_length_c       9.34587
_cell_angle_alpha    89.9994
_cell_angle_beta     90.0003
_cell_angle_gamma    119.999

_symmetry_Int_Tables_number  186
_chemical_formula_structural  Li2NbCo3O8
_chemical_formula_sum  Li4Nb2Co6O6
_cell_volume  268.3937314048952
_cell_formula_units_Z  2
loop_
  _symmetry_equiv_pos_site_id
 _symmetry_equiv_pos_as_xyz
 1  'x, y, z'
loop_
 _atom_site_type_symbol
 _atom_site_label
 _atom_site_symmetry_multiplicity
 _atom_site_fract_x
 _atom_site_fract_y
 _atom_site_fract_z
 _atom_site_fract_occupancy
 Co  Co1  1  0.16879  0.33769  0.21537  1
 Co  Co2  1  0.66220  0.83111  0.21537  1
 Co  Co3  1  0.16879  0.83111  0.21537  1
 Co  Co4  1  0.33780  0.16891  0.71537  1
 Co  Co5  1  0.83121  0.66233  0.71537  1
 Co  Co6  1  0.83121  0.16891  0.71537  1
 Li  Li1  1  0.33330  0.66667  0.89636  1
 Li  Li2  1  0.66670  0.33336  0.39636  1
 Li  Li3  1  0.00014  0.00009  0.49694  1
 Li  Li4  1  0.99986  0.99994  0.99694  1
 Nb  Nb1  1  0.33343  0.66673  0.49543  1
 Nb  Nb2  1  0.66657  0.33330  0.99543  1
 O  O1  1  0.16308  0.32607  0.59951  1
 O  O2  1  0.16307  0.83703  0.59951  1
 O  O3  1  0.96460  0.48231  0.83329  1
 O  O4  1  0.33327  0.66665  0.11192  1
 O  O5  1  -0.00008  -0.00003  0.30884  1
 O  O6  1  0.00008  0.00005  0.80884  1
 O  O7  1  0.03540  0.51770  0.33329  1
 O  O8  1  0.83693  0.67395  0.09951  1
 O  O9  1  0.67410  0.83706  0.59947  1
 O  O10  1  0.51776  0.48237  0.83327  1
 O  O11  1  0.51776  0.03541  0.83327  1
 O  O12  1  0.66673  0.33338  0.61192  1
 O  O13  1  0.48224  0.96461  0.33327  1
 O  O14  1  0.32590  0.16296  0.09947  1
 O  O15  1  0.48224  0.51765  0.33327  1
 O  O16  1  0.83692  0.16299  0.09951  1
