CIF file written using JARVIS-Tools package.
data_PrAl3Cu
_symmetry_space_group_name_H-M  'I4mm'
_cell_length_a       4.27174
_cell_length_b       4.27174
_cell_length_c       6.1315
_cell_angle_alpha    110.386
_cell_angle_beta     110.386
_cell_angle_gamma    90

_symmetry_Int_Tables_number  107
_chemical_formula_structural  PrAl3Cu
_chemical_formula_sum  PrAl3Cu
_cell_volume  97.36754363866395
_cell_formula_units_Z  1
loop_
  _symmetry_equiv_pos_site_id
 _symmetry_equiv_pos_as_xyz
 1  'x, y, z'
loop_
 _atom_site_type_symbol
 _atom_site_label
 _atom_site_symmetry_multiplicity
 _atom_site_fract_x
 _atom_site_fract_y
 _atom_site_fract_z
 _atom_site_fract_occupancy
 Al  Al1  1  0.40655  0.40655  0.81311  1
 Al  Al2  1  0.74876  0.24876  0.49752  1
 Al  Al3  1  0.24876  0.74876  0.49752  1
 Cu  Cu1  1  0.63235  0.63235  0.26471  1
 Pr  Pr1  1  0.99958  0.99958  0.99915  1
