CIF file written using JARVIS-Tools package.
data_CrAgO2
_symmetry_space_group_name_H-M  'R-3m'
_cell_length_a       6.45149
_cell_length_b       6.45149
_cell_length_c       6.45149
_cell_angle_alpha    26.9217
_cell_angle_beta     26.9217
_cell_angle_gamma    26.9217

_symmetry_Int_Tables_number  166
_chemical_formula_structural  CrAgO2
_chemical_formula_sum  CrAgO2
_cell_volume  48.548887078276834
_cell_formula_units_Z  1
loop_
  _symmetry_equiv_pos_site_id
 _symmetry_equiv_pos_as_xyz
 1  'x, y, z'
loop_
 _atom_site_type_symbol
 _atom_site_label
 _atom_site_symmetry_multiplicity
 _atom_site_fract_x
 _atom_site_fract_y
 _atom_site_fract_z
 _atom_site_fract_occupancy
 Ag  Ag1  1  0.00000  0.00000  0.00000  1
 Cr  Cr1  1  0.50000  0.50000  0.50000  1
 O  O1  1  0.88664  0.88664  0.88664  1
 O  O2  1  0.11336  0.11336  0.11336  1
