CIF file written using JARVIS-Tools package.
data_NiH6Cl2
_symmetry_space_group_name_H-M  'C2/m'
_cell_length_a       4.53043
_cell_length_b       4.53044
_cell_length_c       5.85681
_cell_angle_alpha    81.1872
_cell_angle_beta     81.1872
_cell_angle_gamma    73.4463

_symmetry_Int_Tables_number  12
_chemical_formula_structural  NiH6Cl2
_chemical_formula_sum  NiH6Cl2
_cell_volume  113.10326864457876
_cell_formula_units_Z  1
loop_
  _symmetry_equiv_pos_site_id
 _symmetry_equiv_pos_as_xyz
 1  'x, y, z'
loop_
 _atom_site_type_symbol
 _atom_site_label
 _atom_site_symmetry_multiplicity
 _atom_site_fract_x
 _atom_site_fract_y
 _atom_site_fract_z
 _atom_site_fract_occupancy
 Cl  Cl1  1  0.80331  0.80331  0.76593  1
 Cl  Cl2  1  0.19669  0.19669  0.23407  1
 H  H1  1  0.24589  0.09150  0.78732  1
 H  H2  1  0.75411  0.90850  0.21268  1
 H  H3  1  0.90850  0.75411  0.21268  1
 H  H4  1  0.09150  0.24589  0.78732  1
 H  H5  1  0.48195  0.48195  0.44393  1
 H  H6  1  0.51805  0.51805  0.55607  1
 Ni  Ni1  1  0.00000  0.00000  0.00000  1
