CIF file written using JARVIS-Tools package.
data_Th3Ti
_symmetry_space_group_name_H-M  'P6_3/mmc'
_cell_length_a       6.87785
_cell_length_b       6.87784
_cell_length_c       5.73538
_cell_angle_alpha    90
_cell_angle_beta     90
_cell_angle_gamma    120

_symmetry_Int_Tables_number  194
_chemical_formula_structural  Th3Ti
_chemical_formula_sum  Th6Ti2
_cell_volume  234.9621569485653
_cell_formula_units_Z  2
loop_
  _symmetry_equiv_pos_site_id
 _symmetry_equiv_pos_as_xyz
 1  'x, y, z'
loop_
 _atom_site_type_symbol
 _atom_site_label
 _atom_site_symmetry_multiplicity
 _atom_site_fract_x
 _atom_site_fract_y
 _atom_site_fract_z
 _atom_site_fract_occupancy
 Th  Th1  1  0.17470  0.34940  0.25000  1
 Th  Th2  1  0.65060  0.82530  0.25000  1
 Th  Th3  1  0.17470  0.82530  0.25000  1
 Th  Th4  1  0.82530  0.65060  0.75000  1
 Th  Th5  1  0.34940  0.17470  0.75000  1
 Th  Th6  1  0.82530  0.17470  0.75000  1
 Ti  Ti1  1  0.33333  0.66667  0.75000  1
 Ti  Ti2  1  0.66667  0.33333  0.25000  1
