CIF file written using JARVIS-Tools package.
data_LaCeAl2O6
_symmetry_space_group_name_H-M  'R32'
_cell_length_a       5.36658
_cell_length_b       5.36658
_cell_length_c       5.36658
_cell_angle_alpha    60.2435
_cell_angle_beta     60.2435
_cell_angle_gamma    60.2435

_symmetry_Int_Tables_number  155
_chemical_formula_structural  LaCeAl2O6
_chemical_formula_sum  LaCeAl2O6
_cell_volume  109.89183783298878
_cell_formula_units_Z  1
loop_
  _symmetry_equiv_pos_site_id
 _symmetry_equiv_pos_as_xyz
 1  'x, y, z'
loop_
 _atom_site_type_symbol
 _atom_site_label
 _atom_site_symmetry_multiplicity
 _atom_site_fract_x
 _atom_site_fract_y
 _atom_site_fract_z
 _atom_site_fract_occupancy
 Al  Al1  1  0.74990  0.74990  0.74990  1
 Al  Al2  1  0.25010  0.25010  0.25010  1
 Ce  Ce1  1  0.50000  0.50000  0.50000  1
 La  La1  1  0.00000  0.00000  0.00000  1
 O  O1  1  0.95923  0.04077  0.50000  1
 O  O2  1  0.50000  0.95923  0.04077  1
 O  O3  1  0.04077  0.50000  0.95923  1
 O  O4  1  1.00000  0.53667  0.46333  1
 O  O5  1  0.46333  0.00000  0.53667  1
 O  O6  1  0.53667  0.46333  1.00000  1
