CIF file written using JARVIS-Tools package.
data_Zn4Ni5Ge
_symmetry_space_group_name_H-M  'P4/mmm'
_cell_length_a       2.95292
_cell_length_b       2.95292
_cell_length_c       14.1217
_cell_angle_alpha    90
_cell_angle_beta     90
_cell_angle_gamma    90

_symmetry_Int_Tables_number  123
_chemical_formula_structural  Zn4Ni5Ge
_chemical_formula_sum  Zn4Ni5Ge
_cell_volume  123.13772713907424
_cell_formula_units_Z  1
loop_
  _symmetry_equiv_pos_site_id
 _symmetry_equiv_pos_as_xyz
 1  'x, y, z'
loop_
 _atom_site_type_symbol
 _atom_site_label
 _atom_site_symmetry_multiplicity
 _atom_site_fract_x
 _atom_site_fract_y
 _atom_site_fract_z
 _atom_site_fract_occupancy
 Ge  Ge1  1  0.00000  0.00000  0.00000  1
 Ni  Ni1  1  0.50000  0.50000  0.09735  1
 Ni  Ni2  1  0.50000  0.50000  0.30179  1
 Ni  Ni3  1  0.50000  0.50000  0.50000  1
 Ni  Ni4  1  0.50000  0.50000  0.69821  1
 Ni  Ni5  1  0.50000  0.50000  0.90265  1
 Zn  Zn1  1  0.00000  0.00000  0.20370  1
 Zn  Zn2  1  0.00000  0.00000  0.40101  1
 Zn  Zn3  1  0.00000  0.00000  0.59899  1
 Zn  Zn4  1  0.00000  0.00000  0.79630  1
