CIF file written using JARVIS-Tools package.
data_TaSN
_symmetry_space_group_name_H-M  'P4/nmm'
_cell_length_a       3.57767
_cell_length_b       3.57767
_cell_length_c       6.10173
_cell_angle_alpha    90
_cell_angle_beta     90
_cell_angle_gamma    90

_symmetry_Int_Tables_number  129
_chemical_formula_structural  TaSN
_chemical_formula_sum  Ta2S2N2
_cell_volume  78.10055661468175
_cell_formula_units_Z  2
loop_
  _symmetry_equiv_pos_site_id
 _symmetry_equiv_pos_as_xyz
 1  'x, y, z'
loop_
 _atom_site_type_symbol
 _atom_site_label
 _atom_site_symmetry_multiplicity
 _atom_site_fract_x
 _atom_site_fract_y
 _atom_site_fract_z
 _atom_site_fract_occupancy
 N  N1  1  0.50000  0.50000  0.00000  1
 N  N2  1  0.00000  0.00000  0.00000  1
 S  S1  1  0.50000  0.00000  0.61781  1
 S  S2  1  0.00000  0.50000  0.38219  1
 Ta  Ta1  1  0.50000  0.00000  0.18559  1
 Ta  Ta2  1  0.00000  0.50000  0.81441  1
