CIF file written using JARVIS-Tools package.
data_U2Fe2Sn
_symmetry_space_group_name_H-M  'P4/mbm'
_cell_length_a       3.36464
_cell_length_b       7.27779
_cell_length_c       7.27779
_cell_angle_alpha    90
_cell_angle_beta     90
_cell_angle_gamma    90

_symmetry_Int_Tables_number  127
_chemical_formula_structural  U2Fe2Sn
_chemical_formula_sum  U4Fe4Sn2
_cell_volume  178.21229901833502
_cell_formula_units_Z  2
loop_
  _symmetry_equiv_pos_site_id
 _symmetry_equiv_pos_as_xyz
 1  'x, y, z'
loop_
 _atom_site_type_symbol
 _atom_site_label
 _atom_site_symmetry_multiplicity
 _atom_site_fract_x
 _atom_site_fract_y
 _atom_site_fract_z
 _atom_site_fract_occupancy
 Fe  Fe1  1  0.00000  0.13520  0.36480  1
 Fe  Fe2  1  0.00000  0.36480  0.86480  1
 Fe  Fe3  1  0.00000  0.63520  0.13520  1
 Fe  Fe4  1  0.00000  0.86480  0.63520  1
 Sn  Sn1  1  0.00000  0.00000  0.00000  1
 Sn  Sn2  1  0.00000  0.50000  0.50000  1
 U  U1  1  0.50000  0.83464  0.33464  1
 U  U2  1  0.50000  0.66536  0.83464  1
 U  U3  1  0.50000  0.33464  0.16536  1
 U  U4  1  0.50000  0.16536  0.66536  1
