CIF file written using JARVIS-Tools package.
data_TbMgTl
_symmetry_space_group_name_H-M  'P-62m'
_cell_length_a       7.53761
_cell_length_b       7.53761
_cell_length_c       4.63317
_cell_angle_alpha    90
_cell_angle_beta     90
_cell_angle_gamma    120

_symmetry_Int_Tables_number  189
_chemical_formula_structural  TbMgTl
_chemical_formula_sum  Tb3Mg3Tl3
_cell_volume  227.96895349108556
_cell_formula_units_Z  3
loop_
  _symmetry_equiv_pos_site_id
 _symmetry_equiv_pos_as_xyz
 1  'x, y, z'
loop_
 _atom_site_type_symbol
 _atom_site_label
 _atom_site_symmetry_multiplicity
 _atom_site_fract_x
 _atom_site_fract_y
 _atom_site_fract_z
 _atom_site_fract_occupancy
 Mg  Mg1  1  0.24379  0.00000  0.50000  1
 Mg  Mg2  1  0.00000  0.24379  0.50000  1
 Mg  Mg3  1  0.75621  0.75621  0.50000  1
 Tb  Tb1  1  0.57170  -0.00000  0.00000  1
 Tb  Tb2  1  -0.00000  0.57170  0.00000  1
 Tb  Tb3  1  0.42830  0.42830  0.00000  1
 Tl  Tl1  1  0.33333  0.66667  0.50000  1
 Tl  Tl2  1  0.66667  0.33333  0.50000  1
 Tl  Tl3  1  0.00000  0.00000  0.00000  1
