CIF file written using JARVIS-Tools package.
data_RbO
_symmetry_space_group_name_H-M  'C2/m'
_cell_length_a       4.12041
_cell_length_b       4.0849
_cell_length_c       5.56732
_cell_angle_alpha    89.1255
_cell_angle_beta     90
_cell_angle_gamma    90

_symmetry_Int_Tables_number  12
_chemical_formula_structural  RbO
_chemical_formula_sum  Rb2O2
_cell_volume  93.69515322601113
_cell_formula_units_Z  2
loop_
  _symmetry_equiv_pos_site_id
 _symmetry_equiv_pos_as_xyz
 1  'x, y, z'
loop_
 _atom_site_type_symbol
 _atom_site_label
 _atom_site_symmetry_multiplicity
 _atom_site_fract_x
 _atom_site_fract_y
 _atom_site_fract_z
 _atom_site_fract_occupancy
 O  O1  1  0.75000  0.75010  0.25000  1
 O  O2  1  0.25000  0.24990  0.75000  1
 Rb  Rb1  1  0.75000  0.74997  0.74997  1
 Rb  Rb2  1  0.25000  0.25003  0.25003  1
