CIF file written using JARVIS-Tools package.
data_Mg4AlSi6
_symmetry_space_group_name_H-M  'C2/m'
_cell_length_a       3.71547
_cell_length_b       6.68213
_cell_length_c       8.49123
_cell_angle_alpha    91.4707
_cell_angle_beta     102.638
_cell_angle_gamma    90

_symmetry_Int_Tables_number  12
_chemical_formula_structural  Mg4AlSi6
_chemical_formula_sum  Mg4AlSi6
_cell_volume  205.63568546075646
_cell_formula_units_Z  1
loop_
  _symmetry_equiv_pos_site_id
 _symmetry_equiv_pos_as_xyz
 1  'x, y, z'
loop_
 _atom_site_type_symbol
 _atom_site_label
 _atom_site_symmetry_multiplicity
 _atom_site_fract_x
 _atom_site_fract_y
 _atom_site_fract_z
 _atom_site_fract_occupancy
 Al  Al1  1  0.50000  0.00000  -0.00000  1
 Mg  Mg1  1  0.42002  0.59488  0.84004  1
 Mg  Mg2  1  0.66615  0.99071  0.33229  1
 Mg  Mg3  1  0.33385  0.00929  0.66771  1
 Mg  Mg4  1  0.57998  0.40512  0.15996  1
 Si  Si1  1  0.94865  0.24724  0.89730  1
 Si  Si2  1  0.05135  0.75276  0.10270  1
 Si  Si3  1  0.78853  0.71510  0.57706  1
 Si  Si4  1  0.21147  0.28490  0.42294  1
 Si  Si5  1  0.80886  0.34540  0.61772  1
 Si  Si6  1  0.19114  0.65460  0.38228  1
