CIF file written using JARVIS-Tools package.
data_K2Mg2O3
_symmetry_space_group_name_H-M  'P2_1/c'
_cell_length_a       5.89989
_cell_length_b       6.2336
_cell_length_c       6.33741
_cell_angle_alpha    90
_cell_angle_beta     113.838
_cell_angle_gamma    90

_symmetry_Int_Tables_number  14
_chemical_formula_structural  K2Mg2O3
_chemical_formula_sum  K4Mg4O6
_cell_volume  213.19139779802026
_cell_formula_units_Z  2
loop_
  _symmetry_equiv_pos_site_id
 _symmetry_equiv_pos_as_xyz
 1  'x, y, z'
loop_
 _atom_site_type_symbol
 _atom_site_label
 _atom_site_symmetry_multiplicity
 _atom_site_fract_x
 _atom_site_fract_y
 _atom_site_fract_z
 _atom_site_fract_occupancy
 K  K1  1  0.17950  0.37083  0.92790  1
 K  K2  1  0.82050  0.87083  0.57210  1
 K  K3  1  0.17950  0.12917  0.42790  1
 K  K4  1  0.82050  0.62917  0.07210  1
 Mg  Mg1  1  0.33676  0.60769  0.57563  1
 Mg  Mg2  1  0.33676  0.89231  0.07563  1
 Mg  Mg3  1  0.66324  0.10769  0.92437  1
 Mg  Mg4  1  0.66324  0.39231  0.42437  1
 O  O1  1  0.00000  0.50000  0.50000  1
 O  O2  1  0.00000  0.00000  0.00000  1
 O  O3  1  0.41648  0.85835  0.79361  1
 O  O4  1  0.58352  0.35835  0.70639  1
 O  O5  1  0.41648  0.64165  0.29361  1
 O  O6  1  0.58352  0.14165  0.20639  1
