CIF file written using JARVIS-Tools package.
data_KZnCuTe2
_symmetry_space_group_name_H-M  'I-4m2'
_cell_length_a       8.04745
_cell_length_b       8.04745
_cell_length_c       8.04745
_cell_angle_alpha    149.235
_cell_angle_beta     149.235
_cell_angle_gamma    44.0654

_symmetry_Int_Tables_number  119
_chemical_formula_structural  KZnCuTe2
_chemical_formula_sum  KZnCuTe2
_cell_volume  135.97116651820167
_cell_formula_units_Z  1
loop_
  _symmetry_equiv_pos_site_id
 _symmetry_equiv_pos_as_xyz
 1  'x, y, z'
loop_
 _atom_site_type_symbol
 _atom_site_label
 _atom_site_symmetry_multiplicity
 _atom_site_fract_x
 _atom_site_fract_y
 _atom_site_fract_z
 _atom_site_fract_occupancy
 Cu  Cu1  1  0.25000  0.75000  0.50000  1
 K  K1  1  0.00000  0.00000  0.00000  1
 Te  Te1  1  0.63788  0.63788  -0.00000  1
 Te  Te2  1  0.36212  0.36212  0.00000  1
 Zn  Zn1  1  0.75000  0.25000  0.50000  1
