CIF file written using JARVIS-Tools package.
data_Cr2Te4O11
_symmetry_space_group_name_H-M  'P2_1/c'
_cell_length_a       6.96525
_cell_length_b       7.6342
_cell_length_c       9.78511
_cell_angle_alpha    90
_cell_angle_beta     100.332
_cell_angle_gamma    90

_symmetry_Int_Tables_number  14
_chemical_formula_structural  Cr2Te4O11
_chemical_formula_sum  Cr4Te8O22
_cell_volume  511.87838378671563
_cell_formula_units_Z  2
loop_
  _symmetry_equiv_pos_site_id
 _symmetry_equiv_pos_as_xyz
 1  'x, y, z'
loop_
 _atom_site_type_symbol
 _atom_site_label
 _atom_site_symmetry_multiplicity
 _atom_site_fract_x
 _atom_site_fract_y
 _atom_site_fract_z
 _atom_site_fract_occupancy
 Cr  Cr1  1  0.31882  0.50045  0.38404  1
 Cr  Cr2  1  0.68118  0.00045  0.11596  1
 Cr  Cr3  1  0.68118  0.49955  0.61596  1
 Cr  Cr4  1  0.31882  0.99955  0.88404  1
 O  O1  1  0.12655  0.31232  0.34331  1
 O  O2  1  0.53011  0.63409  0.73430  1
 O  O3  1  0.56518  0.63719  0.44907  1
 O  O4  1  0.46989  0.36591  0.26570  1
 O  O5  1  0.56518  0.86281  0.94907  1
 O  O6  1  0.43482  0.36281  0.55093  1
 O  O7  1  0.50000  0.00000  0.50000  1
 O  O8  1  0.87345  0.81232  0.15669  1
 O  O9  1  0.15633  0.85188  0.98330  1
 O  O10  1  0.84367  0.35188  0.51670  1
 O  O11  1  0.84367  0.14812  0.01670  1
 O  O12  1  0.15633  0.64812  0.48330  1
 O  O13  1  0.43482  0.13719  0.05093  1
 O  O14  1  0.87345  0.68768  0.65669  1
 O  O15  1  0.20639  0.61703  0.20816  1
 O  O16  1  0.53011  0.86591  0.23430  1
 O  O17  1  0.79361  0.11703  0.29184  1
 O  O18  1  0.79361  0.38297  0.79184  1
 O  O19  1  0.20639  0.88297  0.70816  1
 O  O20  1  0.46989  0.13409  0.76570  1
 O  O21  1  0.12655  0.18768  0.84331  1
 O  O22  1  0.50000  0.50000  0.00000  1
 Te  Te1  1  0.14927  0.63988  0.67674  1
 Te  Te2  1  0.14927  0.86012  0.17674  1
 Te  Te3  1  0.85073  0.36012  0.32326  1
 Te  Te4  1  0.85073  0.13988  0.82326  1
 Te  Te5  1  0.31885  0.13950  0.58462  1
 Te  Te6  1  0.68115  0.86050  0.41538  1
 Te  Te7  1  0.31885  0.36050  0.08462  1
 Te  Te8  1  0.68115  0.63950  0.91538  1
