CIF file written using JARVIS-Tools package.
data_CdHg3Te4
_symmetry_space_group_name_H-M  'P-43m'
_cell_length_a       6.61007
_cell_length_b       6.61007
_cell_length_c       6.61007
_cell_angle_alpha    90
_cell_angle_beta     90
_cell_angle_gamma    90

_symmetry_Int_Tables_number  215
_chemical_formula_structural  CdHg3Te4
_chemical_formula_sum  CdHg3Te4
_cell_volume  288.8135149753095
_cell_formula_units_Z  1
loop_
  _symmetry_equiv_pos_site_id
 _symmetry_equiv_pos_as_xyz
 1  'x, y, z'
loop_
 _atom_site_type_symbol
 _atom_site_label
 _atom_site_symmetry_multiplicity
 _atom_site_fract_x
 _atom_site_fract_y
 _atom_site_fract_z
 _atom_site_fract_occupancy
 Cd  Cd1  1  0.00000  0.00000  0.00000  1
 Hg  Hg1  1  0.00000  0.50000  0.50000  1
 Hg  Hg2  1  0.50000  0.00000  0.50000  1
 Hg  Hg3  1  0.50000  0.50000  0.00000  1
 Te  Te1  1  0.24909  0.24909  0.24909  1
 Te  Te2  1  0.75091  0.75091  0.24909  1
 Te  Te3  1  0.24909  0.75091  0.75091  1
 Te  Te4  1  0.75091  0.24909  0.75091  1
