CIF file written using JARVIS-Tools package.
data_MgCu3NiSe4
_symmetry_space_group_name_H-M  'P-43m'
_cell_length_a       5.71349
_cell_length_b       5.71349
_cell_length_c       5.71349
_cell_angle_alpha    90
_cell_angle_beta     90
_cell_angle_gamma    90

_symmetry_Int_Tables_number  215
_chemical_formula_structural  MgCu3NiSe4
_chemical_formula_sum  MgCu3NiSe4
_cell_volume  186.51106878690734
_cell_formula_units_Z  1
loop_
  _symmetry_equiv_pos_site_id
 _symmetry_equiv_pos_as_xyz
 1  'x, y, z'
loop_
 _atom_site_type_symbol
 _atom_site_label
 _atom_site_symmetry_multiplicity
 _atom_site_fract_x
 _atom_site_fract_y
 _atom_site_fract_z
 _atom_site_fract_occupancy
 Cu  Cu1  1  0.00000  0.50000  0.00000  1
 Cu  Cu2  1  0.00000  0.00000  0.50000  1
 Cu  Cu3  1  0.50000  0.00000  0.00000  1
 Mg  Mg1  1  0.50000  0.50000  0.50000  1
 Ni  Ni1  1  0.00000  0.00000  0.00000  1
 Se  Se1  1  0.24210  0.24210  0.24210  1
 Se  Se2  1  0.75790  0.75790  0.24210  1
 Se  Se3  1  0.24210  0.75790  0.75790  1
 Se  Se4  1  0.75790  0.24210  0.75790  1
