CIF file written using JARVIS-Tools package.
data_Co3P2O8
_symmetry_space_group_name_H-M  'P2_1/c'
_cell_length_a       4.7433
_cell_length_b       5.90568
_cell_length_c       10.2428
_cell_angle_alpha    91.3343
_cell_angle_beta     90
_cell_angle_gamma    90

_symmetry_Int_Tables_number  14
_chemical_formula_structural  Co3P2O8
_chemical_formula_sum  Co6P4O6
_cell_volume  286.84819970092525
_cell_formula_units_Z  2
loop_
  _symmetry_equiv_pos_site_id
 _symmetry_equiv_pos_as_xyz
 1  'x, y, z'
loop_
 _atom_site_type_symbol
 _atom_site_label
 _atom_site_symmetry_multiplicity
 _atom_site_fract_x
 _atom_site_fract_y
 _atom_site_fract_z
 _atom_site_fract_occupancy
 Co  Co1  1  0.51539  0.23861  0.77721  1
 Co  Co2  1  0.98461  0.23861  0.27721  1
 Co  Co3  1  0.01539  0.76139  0.72279  1
 Co  Co4  1  0.48461  0.76139  0.22279  1
 Co  Co5  1  0.00000  0.50000  -0.00000  1
 Co  Co6  1  0.50000  0.50000  0.50000  1
 O  O1  1  0.72228  0.53258  0.83535  1
 O  O2  1  0.18961  0.25432  0.45585  1
 O  O3  1  0.81039  0.74568  0.54415  1
 O  O4  1  0.22228  0.46742  0.66465  1
 O  O5  1  0.27772  0.46742  0.16465  1
 O  O6  1  0.69156  0.94411  0.82257  1
 O  O7  1  0.25138  0.73232  0.39884  1
 O  O8  1  0.74862  0.26768  0.60116  1
 O  O9  1  0.80844  0.94411  0.32257  1
 O  O10  1  0.77772  0.53258  0.33535  1
 O  O11  1  0.30844  0.05589  0.17743  1
 O  O12  1  0.68961  0.74568  0.04415  1
 O  O13  1  0.75138  0.26768  0.10116  1
 O  O14  1  0.24862  0.73232  0.89884  1
 O  O15  1  0.31039  0.25432  0.95585  1
 O  O16  1  0.19156  0.05589  0.67743  1
 P  P1  1  0.42797  0.25377  0.09718  1
 P  P2  1  0.07203  0.25377  0.59718  1
 P  P3  1  0.57203  0.74623  0.90282  1
 P  P4  1  0.92797  0.74623  0.40282  1
