CIF file written using JARVIS-Tools package.
data_SnO2
_symmetry_space_group_name_H-M  'P6_3/mmc'
_cell_length_a       3.11772
_cell_length_b       3.11772
_cell_length_c       9.61591
_cell_angle_alpha    90
_cell_angle_beta     90
_cell_angle_gamma    120

_symmetry_Int_Tables_number  194
_chemical_formula_structural  SnO2
_chemical_formula_sum  Sn2O4
_cell_volume  80.94564867419388
_cell_formula_units_Z  2
loop_
  _symmetry_equiv_pos_site_id
 _symmetry_equiv_pos_as_xyz
 1  'x, y, z'
loop_
 _atom_site_type_symbol
 _atom_site_label
 _atom_site_symmetry_multiplicity
 _atom_site_fract_x
 _atom_site_fract_y
 _atom_site_fract_z
 _atom_site_fract_occupancy
 O  O1  1  0.66667  0.33333  0.62292  1
 O  O2  1  0.33333  0.66667  0.12292  1
 O  O3  1  0.66667  0.33333  -0.12292  1
 O  O4  1  0.33333  0.66667  0.37708  1
 Sn  Sn1  1  0.33333  0.66667  0.75000  1
 Sn  Sn2  1  0.66667  0.33333  0.25000  1
