CIF file written using JARVIS-Tools package.
data_WN2
_symmetry_space_group_name_H-M  'Fd-3m'
_cell_length_a       6.07254
_cell_length_b       6.07254
_cell_length_c       6.07254
_cell_angle_alpha    120.001
_cell_angle_beta     120.001
_cell_angle_gamma    89.9987

_symmetry_Int_Tables_number  227
_chemical_formula_structural  WN2
_chemical_formula_sum  W2N4
_cell_volume  158.33990014804007
_cell_formula_units_Z  2
loop_
  _symmetry_equiv_pos_site_id
 _symmetry_equiv_pos_as_xyz
 1  'x, y, z'
loop_
 _atom_site_type_symbol
 _atom_site_label
 _atom_site_symmetry_multiplicity
 _atom_site_fract_x
 _atom_site_fract_y
 _atom_site_fract_z
 _atom_site_fract_occupancy
 N  N1  1  0.87500  0.62546  0.25046  1
 N  N2  1  0.37546  0.12500  0.75046  1
 N  N3  1  0.37500  0.62454  0.74954  1
 N  N4  1  0.37454  0.62500  0.24954  1
 W  W1  1  0.50000  0.50000  0.00000  1
 W  W2  1  0.25000  0.75000  0.50000  1
