CIF file written using JARVIS-Tools package.
data_GaAgTe2
_symmetry_space_group_name_H-M  'I-42d'
_cell_length_a       6.38082
_cell_length_b       6.38082
_cell_length_c       12.2637
_cell_angle_alpha    90
_cell_angle_beta     90
_cell_angle_gamma    90

_symmetry_Int_Tables_number  122
_chemical_formula_structural  GaAgTe2
_chemical_formula_sum  Ga4Ag4Te8
_cell_volume  499.3143073040767
_cell_formula_units_Z  4
loop_
  _symmetry_equiv_pos_site_id
 _symmetry_equiv_pos_as_xyz
 1  'x, y, z'
loop_
 _atom_site_type_symbol
 _atom_site_label
 _atom_site_symmetry_multiplicity
 _atom_site_fract_x
 _atom_site_fract_y
 _atom_site_fract_z
 _atom_site_fract_occupancy
 Ag  Ag1  1  0.00000  0.00000  0.00000  1
 Ag  Ag2  1  0.50000  0.50000  0.50000  1
 Ag  Ag3  1  0.00000  0.50000  0.25000  1
 Ag  Ag4  1  0.50000  0.00000  0.75000  1
 Ga  Ga1  1  0.00000  0.00000  0.50000  1
 Ga  Ga2  1  0.50000  0.50000  0.00000  1
 Ga  Ga3  1  0.00000  0.50000  0.75000  1
 Ga  Ga4  1  0.50000  0.00000  0.25000  1
 Te  Te1  1  0.26572  0.25000  0.12500  1
 Te  Te2  1  0.76572  0.75000  0.62500  1
 Te  Te3  1  0.25000  0.73428  0.87500  1
 Te  Te4  1  0.75000  0.23428  0.37500  1
 Te  Te5  1  0.73428  0.75000  0.12500  1
 Te  Te6  1  0.23428  0.25000  0.62500  1
 Te  Te7  1  0.75000  0.26572  0.87500  1
 Te  Te8  1  0.25000  0.76572  0.37500  1
