CIF file written using JARVIS-Tools package.
data_SN
_symmetry_space_group_name_H-M  'P2_1/c'
_cell_length_a       4.01467
_cell_length_b       4.48906
_cell_length_c       7.73077
_cell_angle_alpha    90
_cell_angle_beta     108.872
_cell_angle_gamma    90

_symmetry_Int_Tables_number  14
_chemical_formula_structural  SN
_chemical_formula_sum  S4N4
_cell_volume  131.83552161387212
_cell_formula_units_Z  4
loop_
  _symmetry_equiv_pos_site_id
 _symmetry_equiv_pos_as_xyz
 1  'x, y, z'
loop_
 _atom_site_type_symbol
 _atom_site_label
 _atom_site_symmetry_multiplicity
 _atom_site_fract_x
 _atom_site_fract_y
 _atom_site_fract_z
 _atom_site_fract_occupancy
 N  N1  1  0.13364  0.93300  0.81995  1
 N  N2  1  0.86636  0.43300  0.68005  1
 N  N3  1  0.86636  0.06700  0.18005  1
 N  N4  1  0.13364  0.56700  0.31995  1
 S  S1  1  0.17972  0.28493  0.84615  1
 S  S2  1  0.82028  0.78493  0.65385  1
 S  S3  1  0.82028  0.71507  0.15385  1
 S  S4  1  0.17972  0.21507  0.34615  1
