CIF file written using JARVIS-Tools package.
data_Sm2CN2O2
_symmetry_space_group_name_H-M  'P-3m1'
_cell_length_a       3.83343
_cell_length_b       3.83343
_cell_length_c       8.31372
_cell_angle_alpha    90
_cell_angle_beta     90
_cell_angle_gamma    120

_symmetry_Int_Tables_number  164
_chemical_formula_structural  Sm2CN2O2
_chemical_formula_sum  Sm2CN2O2
_cell_volume  105.80390945500949
_cell_formula_units_Z  1
loop_
  _symmetry_equiv_pos_site_id
 _symmetry_equiv_pos_as_xyz
 1  'x, y, z'
loop_
 _atom_site_type_symbol
 _atom_site_label
 _atom_site_symmetry_multiplicity
 _atom_site_fract_x
 _atom_site_fract_y
 _atom_site_fract_z
 _atom_site_fract_occupancy
 C  C1  1  0.00000  0.00000  0.50000  1
 N  N1  1  0.00000  0.00000  0.35150  1
 N  N2  1  0.00000  0.00000  0.64850  1
 O  O1  1  0.66667  0.33333  0.10286  1
 O  O2  1  0.33333  0.66667  0.89714  1
 Sm  Sm1  1  0.66667  0.33333  0.82048  1
 Sm  Sm2  1  0.33333  0.66667  0.17952  1
