CIF file written using JARVIS-Tools package.
data_MgCd2
_symmetry_space_group_name_H-M  'P4_2/mnm'
_cell_length_a       5.90686
_cell_length_b       5.90686
_cell_length_c       5.18502
_cell_angle_alpha    90
_cell_angle_beta     90
_cell_angle_gamma    90

_symmetry_Int_Tables_number  136
_chemical_formula_structural  MgCd2
_chemical_formula_sum  Mg2Cd4
_cell_volume  180.91084219053445
_cell_formula_units_Z  2
loop_
  _symmetry_equiv_pos_site_id
 _symmetry_equiv_pos_as_xyz
 1  'x, y, z'
loop_
 _atom_site_type_symbol
 _atom_site_label
 _atom_site_symmetry_multiplicity
 _atom_site_fract_x
 _atom_site_fract_y
 _atom_site_fract_z
 _atom_site_fract_occupancy
 Cd  Cd1  1  0.32852  0.32852  0.00000  1
 Cd  Cd2  1  0.67148  0.67148  0.00000  1
 Cd  Cd3  1  0.82852  0.17148  0.50000  1
 Cd  Cd4  1  0.17148  0.82852  0.50000  1
 Mg  Mg1  1  0.00000  0.00000  0.00000  1
 Mg  Mg2  1  0.50000  0.50000  0.50000  1
