CIF file written using JARVIS-Tools package.
data_NdCoC2
_symmetry_space_group_name_H-M  'Cc'
_cell_length_a       3.80005
_cell_length_b       3.80006
_cell_length_c       7.41797
_cell_angle_alpha    81.6335
_cell_angle_beta     81.6335
_cell_angle_gamma    90.0439

_symmetry_Int_Tables_number  9
_chemical_formula_structural  NdCoC2
_chemical_formula_sum  Nd2Co2C4
_cell_volume  104.82448578317221
_cell_formula_units_Z  2
loop_
  _symmetry_equiv_pos_site_id
 _symmetry_equiv_pos_as_xyz
 1  'x, y, z'
loop_
 _atom_site_type_symbol
 _atom_site_label
 _atom_site_symmetry_multiplicity
 _atom_site_fract_x
 _atom_site_fract_y
 _atom_site_fract_z
 _atom_site_fract_occupancy
 C  C1  1  0.55505  0.40234  0.02593  1
 C  C2  1  0.40234  0.55505  0.52593  1
 C  C3  1  0.14623  0.50654  0.67794  1
 C  C4  1  0.50654  0.14623  0.17794  1
 Co  Co1  1  0.48261  0.62619  0.25828  1
 Co  Co2  1  0.62619  0.48261  0.75828  1
 Nd  Nd1  1  0.92247  0.07056  0.45086  1
 Nd  Nd2  1  0.07056  0.92247  0.95086  1
