CIF file written using JARVIS-Tools package.
data_Tl3FeCl5
_symmetry_space_group_name_H-M  'I4/mcm'
_cell_length_a       8.34841
_cell_length_b       8.3484
_cell_length_c       9.35574
_cell_angle_alpha    116.498
_cell_angle_beta     116.498
_cell_angle_gamma    90

_symmetry_Int_Tables_number  140
_chemical_formula_structural  Tl3FeCl5
_chemical_formula_sum  Tl6Fe2Cl0
_cell_volume  505.86851718717196
_cell_formula_units_Z  2
loop_
  _symmetry_equiv_pos_site_id
 _symmetry_equiv_pos_as_xyz
 1  'x, y, z'
loop_
 _atom_site_type_symbol
 _atom_site_label
 _atom_site_symmetry_multiplicity
 _atom_site_fract_x
 _atom_site_fract_y
 _atom_site_fract_z
 _atom_site_fract_occupancy
 Cl  Cl1  1  0.50073  0.30855  0.30928  1
 Cl  Cl2  1  0.00000  0.00000  0.00000  1
 Cl  Cl3  1  0.00073  0.50073  0.30928  1
 Cl  Cl4  1  0.69145  0.19145  0.69072  1
 Cl  Cl5  1  0.99927  0.49927  0.69072  1
 Cl  Cl6  1  0.19145  0.99927  0.69072  1
 Cl  Cl7  1  0.49927  0.69145  0.69072  1
 Cl  Cl8  1  0.50000  0.50000  0.00000  1
 Cl  Cl9  1  0.30855  0.80855  0.30928  1
 Cl  Cl10  1  0.80855  0.00073  0.30928  1
 Fe  Fe1  1  0.75000  0.25000  0.50000  1
 Fe  Fe2  1  0.25000  0.75000  0.50000  1
 Tl  Tl1  1  0.84213  0.65787  -0.00000  1
 Tl  Tl2  1  0.75000  0.75000  0.50000  1
 Tl  Tl3  1  0.25000  0.25000  0.50000  1
 Tl  Tl4  1  0.34213  0.84213  -0.00000  1
 Tl  Tl5  1  0.15787  0.34213  0.00000  1
 Tl  Tl6  1  0.65787  0.15787  0.00000  1
