CIF file written using JARVIS-Tools package.
data_BaGe3Pd
_symmetry_space_group_name_H-M  'I4mm'
_cell_length_a       4.63499
_cell_length_b       4.63499
_cell_length_c       6.16649
_cell_angle_alpha    112.075
_cell_angle_beta     112.075
_cell_angle_gamma    90

_symmetry_Int_Tables_number  107
_chemical_formula_structural  BaGe3Pd
_chemical_formula_sum  BaGe3Pd
_cell_volume  112.21535344302832
_cell_formula_units_Z  1
loop_
  _symmetry_equiv_pos_site_id
 _symmetry_equiv_pos_as_xyz
 1  'x, y, z'
loop_
 _atom_site_type_symbol
 _atom_site_label
 _atom_site_symmetry_multiplicity
 _atom_site_fract_x
 _atom_site_fract_y
 _atom_site_fract_z
 _atom_site_fract_occupancy
 Ba  Ba1  1  0.60454  0.60454  0.20909  1
 Ge  Ge1  1  0.85639  0.35639  0.71279  1
 Ge  Ge2  1  0.35639  0.85639  0.71279  1
 Ge  Ge3  1  0.00071  0.00071  0.00141  1
 Pd  Pd1  1  0.25029  0.25029  0.50058  1
