CIF file written using JARVIS-Tools package.
data_NdLuS3
_symmetry_space_group_name_H-M  'Cmcm'
_cell_length_a       6.63885
_cell_length_b       6.63884
_cell_length_c       9.8489
_cell_angle_alpha    90
_cell_angle_beta     90
_cell_angle_gamma    146.899

_symmetry_Int_Tables_number  63
_chemical_formula_structural  NdLuS3
_chemical_formula_sum  Nd2Lu2S6
_cell_volume  237.06091023439555
_cell_formula_units_Z  2
loop_
  _symmetry_equiv_pos_site_id
 _symmetry_equiv_pos_as_xyz
 1  'x, y, z'
loop_
 _atom_site_type_symbol
 _atom_site_label
 _atom_site_symmetry_multiplicity
 _atom_site_fract_x
 _atom_site_fract_y
 _atom_site_fract_z
 _atom_site_fract_occupancy
 Lu  Lu1  1  0.24571  0.75429  0.25000  1
 Lu  Lu2  1  0.75429  0.24571  0.75000  1
 Nd  Nd1  1  0.00000  0.00000  0.00000  1
 Nd  Nd2  1  0.00000  0.00000  0.50000  1
 S  S1  1  0.89280  0.10720  0.25000  1
 S  S2  1  0.10720  0.89280  0.75000  1
 S  S3  1  0.64944  0.35056  0.08200  1
 S  S4  1  0.35056  0.64944  0.58200  1
 S  S5  1  0.64944  0.35056  0.41800  1
 S  S6  1  0.35056  0.64944  0.91800  1
