CIF file written using JARVIS-Tools package.
data_Nb2B2Mo
_symmetry_space_group_name_H-M  'P4/mbm'
_cell_length_a       6.13795
_cell_length_b       6.13795
_cell_length_c       3.30332
_cell_angle_alpha    90
_cell_angle_beta     90
_cell_angle_gamma    90

_symmetry_Int_Tables_number  127
_chemical_formula_structural  Nb2B2Mo
_chemical_formula_sum  Nb4B4Mo2
_cell_volume  124.4506913817162
_cell_formula_units_Z  2
loop_
  _symmetry_equiv_pos_site_id
 _symmetry_equiv_pos_as_xyz
 1  'x, y, z'
loop_
 _atom_site_type_symbol
 _atom_site_label
 _atom_site_symmetry_multiplicity
 _atom_site_fract_x
 _atom_site_fract_y
 _atom_site_fract_z
 _atom_site_fract_occupancy
 B  B1  1  0.10691  0.60691  0.00000  1
 B  B2  1  0.89309  0.39309  0.00000  1
 B  B3  1  0.60691  0.89309  0.00000  1
 B  B4  1  0.39309  0.10691  0.00000  1
 Mo  Mo1  1  0.00000  0.00000  0.00000  1
 Mo  Mo2  1  0.50000  0.50000  0.00000  1
 Nb  Nb1  1  0.67993  0.17993  0.50000  1
 Nb  Nb2  1  0.32007  0.82007  0.50000  1
 Nb  Nb3  1  0.17993  0.32007  0.50000  1
 Nb  Nb4  1  0.82007  0.67993  0.50000  1
