data_image0
_chemical_formula_structural       O24Re6Yb2
_chemical_formula_sum              "O24 Re6 Yb2"
_cell_length_a       9.38956
_cell_length_b       9.38444
_cell_length_c       5.93374
_cell_angle_alpha    90
_cell_angle_beta     90
_cell_angle_gamma    120.075

_space_group_name_H-M_alt    "P 1"
_space_group_IT_number       1

loop_
  _space_group_symop_operation_xyz
  'x, y, z'

loop_
  _atom_site_type_symbol
  _atom_site_label
  _atom_site_symmetry_multiplicity
  _atom_site_fract_x
  _atom_site_fract_y
  _atom_site_fract_z
  _atom_site_occupancy
  O   O1        1.0  0.49000  0.63500  0.98500  1.0000
  O   O2        1.0  0.51000  0.36500  0.48500  1.0000
  O   O3        1.0  0.36400  0.85600  0.98400  1.0000
  O   O4        1.0  0.14500  0.51000  0.98500  1.0000
  O   O5        1.0  0.85500  0.49000  0.48500  1.0000
  O   O6        1.0  0.63600  0.14400  0.48400  1.0000
  O   O7        1.0  0.51000  0.36500  0.01530  1.0000
  O   O8        1.0  0.49000  0.63500  0.51500  1.0000
  O   O9        1.0  0.63600  0.14400  0.01550  1.0000
  O   O10       1.0  0.85500  0.49000  0.01530  1.0000
  O   O11       1.0  0.14500  0.51000  0.51500  1.0000
  O   O12       1.0  0.36400  0.85600  0.51600  1.0000
  O   O13       1.0  0.26000  0.07810  0.25000  1.0000
  O   O14       1.0  0.74000  0.92200  0.75000  1.0000
  O   O15       1.0  0.92300  0.18300  0.25000  1.0000
  O   O16       1.0  0.81800  0.74000  0.25000  1.0000
  O   O17       1.0  0.18200  0.26000  0.75000  1.0000
  O   O18       1.0  0.07710  0.81700  0.75000  1.0000
  O   O19       1.0  0.25200  0.37700  0.25000  1.0000
  O   O20       1.0  0.74800  0.62300  0.75000  1.0000
  O   O21       1.0  0.62300  0.87400  0.25000  1.0000
  O   O22       1.0  0.12600  0.74800  0.25000  1.0000
  O   O23       1.0  0.87400  0.25200  0.75000  1.0000
  O   O24       1.0  0.37700  0.12600  0.75000  1.0000
  Re  Re1       1.0  0.37800  0.29100  0.25000  1.0000
  Re  Re2       1.0  0.62200  0.70900  0.75000  1.0000
  Re  Re3       1.0  0.71000  0.08700  0.25000  1.0000
  Re  Re4       1.0  0.91300  0.62200  0.25000  1.0000
  Re  Re5       1.0  0.08690  0.37800  0.75000  1.0000
  Re  Re6       1.0  0.29000  0.91300  0.75000  1.0000
  Yb  Yb1       1.0  0.33300  0.66700  0.25000  1.0000
  Yb  Yb2       1.0  0.66700  0.33300  0.75000  1.0000
