CIF file written using JARVIS-Tools package.
data_V2N3
_symmetry_space_group_name_H-M  'P-3m1'
_cell_length_a       2.8181
_cell_length_b       2.8181
_cell_length_c       6.26683
_cell_angle_alpha    90
_cell_angle_beta     90.0002
_cell_angle_gamma    120

_symmetry_Int_Tables_number  164
_chemical_formula_structural  V2N3
_chemical_formula_sum  V2N3
_cell_volume  43.10135452057636
_cell_formula_units_Z  1
loop_
  _symmetry_equiv_pos_site_id
 _symmetry_equiv_pos_as_xyz
 1  'x, y, z'
loop_
 _atom_site_type_symbol
 _atom_site_label
 _atom_site_symmetry_multiplicity
 _atom_site_fract_x
 _atom_site_fract_y
 _atom_site_fract_z
 _atom_site_fract_occupancy
 N  N1  1  -0.00000  -0.00000  0.50000  1
 N  N2  1  0.00001  0.00000  0.89333  1
 N  N3  1  -0.00001  -0.00000  0.10667  1
 V  V1  1  0.33334  0.66667  0.69902  1
 V  V2  1  0.66666  0.33333  0.30098  1
