CIF file written using JARVIS-Tools package.
data_HoSi2
_symmetry_space_group_name_H-M  'I4_1/amd'
_cell_length_a       3.91189
_cell_length_b       3.91225
_cell_length_c       8.05573
_cell_angle_alpha    104.053
_cell_angle_beta     104.052
_cell_angle_gamma    90

_symmetry_Int_Tables_number  141
_chemical_formula_structural  HoSi2
_chemical_formula_sum  Ho2Si4
_cell_volume  115.7905745297035
_cell_formula_units_Z  2
loop_
  _symmetry_equiv_pos_site_id
 _symmetry_equiv_pos_as_xyz
 1  'x, y, z'
loop_
 _atom_site_type_symbol
 _atom_site_label
 _atom_site_symmetry_multiplicity
 _atom_site_fract_x
 _atom_site_fract_y
 _atom_site_fract_z
 _atom_site_fract_occupancy
 Ho  Ho1  1  0.62501  0.37501  0.75003  1
 Ho  Ho2  1  0.37499  0.62499  0.24997  1
 Si  Si1  1  0.04430  0.79430  0.58861  1
 Si  Si2  1  0.95570  0.20570  0.41139  1
 Si  Si3  1  0.20569  0.95569  0.91138  1
 Si  Si4  1  0.79431  0.04431  0.08862  1
