CIF file written using JARVIS-Tools package.
data_BaSrCo2O6
_symmetry_space_group_name_H-M  'P-6m2'
_cell_length_a       5.56218
_cell_length_b       5.56218
_cell_length_c       4.73873
_cell_angle_alpha    90
_cell_angle_beta     90
_cell_angle_gamma    120

_symmetry_Int_Tables_number  187
_chemical_formula_structural  BaSrCo2O6
_chemical_formula_sum  BaSrCo2O6
_cell_volume  126.96479285268997
_cell_formula_units_Z  1
loop_
  _symmetry_equiv_pos_site_id
 _symmetry_equiv_pos_as_xyz
 1  'x, y, z'
loop_
 _atom_site_type_symbol
 _atom_site_label
 _atom_site_symmetry_multiplicity
 _atom_site_fract_x
 _atom_site_fract_y
 _atom_site_fract_z
 _atom_site_fract_occupancy
 Ba  Ba1  1  0.00000  0.00000  0.00000  1
 Co  Co1  1  0.66667  0.33333  0.24866  1
 Co  Co2  1  0.66667  0.33333  0.75134  1
 O  O1  1  0.36320  0.18160  0.50000  1
 O  O2  1  0.81840  0.18160  0.50000  1
 O  O3  1  0.81840  0.63680  0.50000  1
 O  O4  1  0.97304  0.48652  0.00000  1
 O  O5  1  0.51348  0.48652  0.00000  1
 O  O6  1  0.51348  0.02696  0.00000  1
 Sr  Sr1  1  0.33333  0.66667  0.50000  1
