CIF file written using JARVIS-Tools package.
data_FeCoO4
_symmetry_space_group_name_H-M  'P2/m'
_cell_length_a       4.66579
_cell_length_b       9.31251
_cell_length_c       8.87365
_cell_angle_alpha    17.6598
_cell_angle_beta     31.1446
_cell_angle_gamma    35.36

_symmetry_Int_Tables_number  10
_chemical_formula_structural  FeCoO4
_chemical_formula_sum  FeCoO4
_cell_volume  60.494531233156046
_cell_formula_units_Z  1
loop_
  _symmetry_equiv_pos_site_id
 _symmetry_equiv_pos_as_xyz
 1  'x, y, z'
loop_
 _atom_site_type_symbol
 _atom_site_label
 _atom_site_symmetry_multiplicity
 _atom_site_fract_x
 _atom_site_fract_y
 _atom_site_fract_z
 _atom_site_fract_occupancy
 Co  Co1  1  0.50000  0.50000  0.50000  1
 Fe  Fe1  1  0.50000  0.00000  0.50000  1
 O  O1  1  0.23865  0.50000  0.23911  1
 O  O2  1  0.76135  0.50000  0.76089  1
 O  O3  1  0.23031  0.00000  0.24100  1
 O  O4  1  0.76969  -0.00000  0.75900  1
