CIF file written using JARVIS-Tools package.
data_MgPb3
_symmetry_space_group_name_H-M  'P6_3/mmc'
_cell_length_a       6.8923
_cell_length_b       6.8923
_cell_length_c       5.67684
_cell_angle_alpha    90
_cell_angle_beta     90
_cell_angle_gamma    120

_symmetry_Int_Tables_number  194
_chemical_formula_structural  MgPb3
_chemical_formula_sum  Mg2Pb6
_cell_volume  233.54227185813565
_cell_formula_units_Z  2
loop_
  _symmetry_equiv_pos_site_id
 _symmetry_equiv_pos_as_xyz
 1  'x, y, z'
loop_
 _atom_site_type_symbol
 _atom_site_label
 _atom_site_symmetry_multiplicity
 _atom_site_fract_x
 _atom_site_fract_y
 _atom_site_fract_z
 _atom_site_fract_occupancy
 Mg  Mg1  1  0.66667  0.33333  0.25000  1
 Mg  Mg2  1  0.33333  0.66667  0.75000  1
 Pb  Pb1  1  0.16991  0.33982  0.25000  1
 Pb  Pb2  1  0.16991  0.83009  0.25000  1
 Pb  Pb3  1  0.66018  0.83009  0.25000  1
 Pb  Pb4  1  0.33982  0.16991  0.75000  1
 Pb  Pb5  1  0.83009  0.16991  0.75000  1
 Pb  Pb6  1  0.83009  0.66018  0.75000  1
