CIF file written using JARVIS-Tools package.
data_PrSO
_symmetry_space_group_name_H-M  'Immm'
_cell_length_a       6.96288
_cell_length_b       6.96288
_cell_length_c       6.96288
_cell_angle_alpha    147.386
_cell_angle_beta     140.765
_cell_angle_gamma    51.9109

_symmetry_Int_Tables_number  71
_chemical_formula_structural  PrSO
_chemical_formula_sum  Pr2S2O2
_cell_volume  114.4503397675794
_cell_formula_units_Z  2
loop_
  _symmetry_equiv_pos_site_id
 _symmetry_equiv_pos_as_xyz
 1  'x, y, z'
loop_
 _atom_site_type_symbol
 _atom_site_label
 _atom_site_symmetry_multiplicity
 _atom_site_fract_x
 _atom_site_fract_y
 _atom_site_fract_z
 _atom_site_fract_occupancy
 O  O1  1  0.76829  0.26829  0.50000  1
 O  O2  1  0.23171  0.73171  0.50000  1
 Pr  Pr1  1  0.66338  0.66338  0.00000  1
 Pr  Pr2  1  0.33662  0.33662  -0.00000  1
 S  S1  1  0.22095  0.00000  0.22095  1
 S  S2  1  0.77905  -0.00000  0.77905  1
