CIF file written using JARVIS-Tools package.
data_Ta2Tl4S11
_symmetry_space_group_name_H-M  'P-1'
_cell_length_a       7.87526
_cell_length_b       8.90741
_cell_length_c       13.341
_cell_angle_alpha    72.3783
_cell_angle_beta     88.9361
_cell_angle_gamma    85.8573

_symmetry_Int_Tables_number  2
_chemical_formula_structural  Ta2Tl4S11
_chemical_formula_sum  Ta4Tl8S22
_cell_volume  889.5968129564047
_cell_formula_units_Z  2
loop_
  _symmetry_equiv_pos_site_id
 _symmetry_equiv_pos_as_xyz
 1  'x, y, z'
loop_
 _atom_site_type_symbol
 _atom_site_label
 _atom_site_symmetry_multiplicity
 _atom_site_fract_x
 _atom_site_fract_y
 _atom_site_fract_z
 _atom_site_fract_occupancy
 S  S1  1  0.03737  0.12971  0.25411  1
 S  S2  1  0.01037  0.70709  0.53395  1
 S  S3  1  0.60867  0.80520  0.63037  1
 S  S4  1  0.39133  0.19480  0.36963  1
 S  S5  1  0.95770  0.34876  0.75600  1
 S  S6  1  0.04230  0.65124  0.24400  1
 S  S7  1  0.88682  0.51188  0.18588  1
 S  S8  1  0.11318  0.48812  0.81412  1
 S  S9  1  0.60354  0.56222  0.65204  1
 S  S10  1  0.39646  0.43778  0.34796  1
 S  S11  1  0.63653  0.14384  0.66653  1
 S  S12  1  0.36347  0.85616  0.33347  1
 S  S13  1  0.27116  0.03782  0.04380  1
 S  S14  1  0.72884  0.96218  0.95620  1
 S  S15  1  0.47186  0.68316  0.88201  1
 S  S16  1  0.98963  0.29291  0.46605  1
 S  S17  1  0.27118  0.39939  0.11013  1
 S  S18  1  0.96263  0.87029  0.74589  1
 S  S19  1  0.40858  0.07381  0.74760  1
 S  S20  1  0.59142  0.92619  0.25240  1
 S  S21  1  0.72882  0.60061  0.88987  1
 S  S22  1  0.52814  0.31684  0.11799  1
 Ta  Ta1  1  0.66543  0.89299  0.80956  1
 Ta  Ta2  1  0.33457  0.10701  0.19044  1
 Ta  Ta3  1  0.12017  0.36535  0.30342  1
 Ta  Ta4  1  0.87983  0.63465  0.69658  1
 Tl  Tl1  1  0.50261  0.71816  0.11588  1
 Tl  Tl2  1  0.06485  0.76249  0.97774  1
 Tl  Tl3  1  0.75006  0.58085  0.41797  1
 Tl  Tl4  1  0.22101  0.96759  0.57070  1
 Tl  Tl5  1  0.24994  0.41915  0.58203  1
 Tl  Tl6  1  0.93515  0.23751  0.02226  1
 Tl  Tl7  1  0.77899  0.03241  0.42930  1
 Tl  Tl8  1  0.49739  0.28184  0.88412  1
