CIF file written using JARVIS-Tools package.
data_FePO4
_symmetry_space_group_name_H-M  'Pbca'
_cell_length_a       8.51083
_cell_length_b       9.10137
_cell_length_c       8.78587
_cell_angle_alpha    90
_cell_angle_beta     90
_cell_angle_gamma    90

_symmetry_Int_Tables_number  61
_chemical_formula_structural  FePO4
_chemical_formula_sum  Fe8P8O32
_cell_volume  680.5553425599624
_cell_formula_units_Z  8
loop_
  _symmetry_equiv_pos_site_id
 _symmetry_equiv_pos_as_xyz
 1  'x, y, z'
loop_
 _atom_site_type_symbol
 _atom_site_label
 _atom_site_symmetry_multiplicity
 _atom_site_fract_x
 _atom_site_fract_y
 _atom_site_fract_z
 _atom_site_fract_occupancy
 Fe  Fe1  1  0.06220  0.23184  0.58860  1
 Fe  Fe2  1  0.43780  0.76816  0.08860  1
 Fe  Fe3  1  0.43780  0.73184  0.58860  1
 Fe  Fe4  1  0.56220  0.23184  0.91140  1
 Fe  Fe5  1  0.06220  0.26816  0.08860  1
 Fe  Fe6  1  0.56220  0.26816  0.41140  1
 Fe  Fe7  1  0.93780  0.76816  0.41140  1
 Fe  Fe8  1  0.93780  0.73184  0.91140  1
 O  O1  1  0.88368  0.92518  0.28136  1
 O  O2  1  0.22035  0.12539  0.10031  1
 O  O3  1  0.27965  0.62539  0.10031  1
 O  O4  1  0.62500  0.82549  0.65517  1
 O  O5  1  0.37500  0.17451  0.34483  1
 O  O6  1  0.12500  0.67451  0.34483  1
 O  O7  1  0.72035  0.12539  0.39969  1
 O  O8  1  0.01750  0.35496  0.90133  1
 O  O9  1  0.51750  0.35496  0.59867  1
 O  O10  1  0.38368  0.57482  0.71864  1
 O  O11  1  0.98250  0.85496  0.59867  1
 O  O12  1  0.11632  0.42518  0.21864  1
 O  O13  1  0.11632  0.07482  0.71864  1
 O  O14  1  0.48250  0.64504  0.40133  1
 O  O15  1  0.51750  0.14504  0.09867  1
 O  O16  1  0.88368  0.57482  0.78136  1
 O  O17  1  0.62500  0.67451  0.15517  1
 O  O18  1  0.87500  0.17451  0.15517  1
 O  O19  1  0.37500  0.32549  0.84483  1
 O  O20  1  0.77965  0.62539  0.39969  1
 O  O21  1  0.61632  0.07482  0.78136  1
 O  O22  1  0.61632  0.42518  0.28136  1
 O  O23  1  0.01750  0.14504  0.40133  1
 O  O24  1  0.72035  0.37461  0.89969  1
 O  O25  1  0.27965  0.87461  0.60031  1
 O  O26  1  0.22035  0.37461  0.60031  1
 O  O27  1  0.87500  0.32549  0.65517  1
 O  O28  1  0.77965  0.87461  0.89969  1
 O  O29  1  0.48250  0.85496  0.90133  1
 O  O30  1  0.98250  0.64504  0.09867  1
 O  O31  1  0.38368  0.92518  0.21864  1
 O  O32  1  0.12500  0.82549  0.84483  1
 P  P1  1  0.37159  0.40768  0.69044  1
 P  P2  1  0.62841  0.59232  0.30956  1
 P  P3  1  0.37159  0.09232  0.19044  1
 P  P4  1  0.12841  0.90768  0.69044  1
 P  P5  1  0.12841  0.59232  0.19044  1
 P  P6  1  0.62841  0.90768  0.80956  1
 P  P7  1  0.87159  0.40768  0.80956  1
 P  P8  1  0.87159  0.09232  0.30956  1
