CIF file written using JARVIS-Tools package.
data_Nd3Sm
_symmetry_space_group_name_H-M  'P6_3/mmc'
_cell_length_a       7.31263
_cell_length_b       7.31262
_cell_length_c       5.91878
_cell_angle_alpha    90
_cell_angle_beta     90
_cell_angle_gamma    120

_symmetry_Int_Tables_number  194
_chemical_formula_structural  Nd3Sm
_chemical_formula_sum  Nd6Sm2
_cell_volume  274.1004070849908
_cell_formula_units_Z  2
loop_
  _symmetry_equiv_pos_site_id
 _symmetry_equiv_pos_as_xyz
 1  'x, y, z'
loop_
 _atom_site_type_symbol
 _atom_site_label
 _atom_site_symmetry_multiplicity
 _atom_site_fract_x
 _atom_site_fract_y
 _atom_site_fract_z
 _atom_site_fract_occupancy
 Nd  Nd1  1  0.16711  0.33423  0.25000  1
 Nd  Nd2  1  0.66577  0.83289  0.25000  1
 Nd  Nd3  1  0.16711  0.83289  0.25000  1
 Nd  Nd4  1  0.83289  0.66577  0.75000  1
 Nd  Nd5  1  0.33423  0.16711  0.75000  1
 Nd  Nd6  1  0.83289  0.16711  0.75000  1
 Sm  Sm1  1  0.33333  0.66667  0.75000  1
 Sm  Sm2  1  0.66667  0.33333  0.25000  1
