CIF file written using JARVIS-Tools package.
data_CrB2Mo
_symmetry_space_group_name_H-M  'Amm2'
_cell_length_a       4.39575
_cell_length_b       4.39575
_cell_length_c       3.00467
_cell_angle_alpha    90
_cell_angle_beta     90
_cell_angle_gamma    139.173

_symmetry_Int_Tables_number  38
_chemical_formula_structural  CrB2Mo
_chemical_formula_sum  CrB2Mo
_cell_volume  37.95720586916771
_cell_formula_units_Z  1
loop_
  _symmetry_equiv_pos_site_id
 _symmetry_equiv_pos_as_xyz
 1  'x, y, z'
loop_
 _atom_site_type_symbol
 _atom_site_label
 _atom_site_symmetry_multiplicity
 _atom_site_fract_x
 _atom_site_fract_y
 _atom_site_fract_z
 _atom_site_fract_occupancy
 B  B1  1  0.43590  0.56410  0.00000  1
 B  B2  1  0.55566  0.44434  0.50000  1
 Cr  Cr1  1  0.85900  0.14100  0.50000  1
 Mo  Mo1  1  0.14943  0.85057  0.00000  1
