CIF file written using JARVIS-Tools package.
data_Sr2CoCl2O2
_symmetry_space_group_name_H-M  'I4/mmm'
_cell_length_a       3.90634
_cell_length_b       3.90789
_cell_length_c       8.55253
_cell_angle_alpha    103.207
_cell_angle_beta     103.201
_cell_angle_gamma    89.9999

_symmetry_Int_Tables_number  139
_chemical_formula_structural  Sr2CoCl2O2
_chemical_formula_sum  Sr2CoCl2O2
_cell_volume  123.55925188194591
_cell_formula_units_Z  1
loop_
  _symmetry_equiv_pos_site_id
 _symmetry_equiv_pos_as_xyz
 1  'x, y, z'
loop_
 _atom_site_type_symbol
 _atom_site_label
 _atom_site_symmetry_multiplicity
 _atom_site_fract_x
 _atom_site_fract_y
 _atom_site_fract_z
 _atom_site_fract_occupancy
 Cl  Cl1  1  0.81364  0.81363  0.62727  1
 Cl  Cl2  1  0.18636  0.18637  0.37273  1
 Co  Co1  1  0.00000  0.00000  1.00000  1
 O  O1  1  0.50000  0.00000  1.00000  1
 O  O2  1  0.00000  0.50000  0.00000  1
 Sr  Sr1  1  0.39131  0.39130  0.78261  1
 Sr  Sr2  1  0.60869  0.60870  0.21739  1
