CIF file written using JARVIS-Tools package.
data_ZrGa2
_symmetry_space_group_name_H-M  'Cmmm'
_cell_length_a       4.0049
_cell_length_b       4.13943
_cell_length_c       6.82429
_cell_angle_alpha    90
_cell_angle_beta     107.063
_cell_angle_gamma    90

_symmetry_Int_Tables_number  65
_chemical_formula_structural  ZrGa2
_chemical_formula_sum  Zr2Ga4
_cell_volume  108.15304391620964
_cell_formula_units_Z  2
loop_
  _symmetry_equiv_pos_site_id
 _symmetry_equiv_pos_as_xyz
 1  'x, y, z'
loop_
 _atom_site_type_symbol
 _atom_site_label
 _atom_site_symmetry_multiplicity
 _atom_site_fract_x
 _atom_site_fract_y
 _atom_site_fract_z
 _atom_site_fract_occupancy
 Ga  Ga1  1  0.00000  0.00000  0.00000  1
 Ga  Ga2  1  0.50000  0.50000  0.00000  1
 Ga  Ga3  1  0.82069  0.50000  0.64138  1
 Ga  Ga4  1  0.17931  0.50000  0.35862  1
 Zr  Zr1  1  0.64919  0.00000  0.29838  1
 Zr  Zr2  1  0.35081  0.00000  0.70162  1
