CIF file written using JARVIS-Tools package.
data_Li2VO2F
_symmetry_space_group_name_H-M  'C2/m'
_cell_length_a       2.87504
_cell_length_b       5.06744
_cell_length_c       7.70127
_cell_angle_alpha    108.513
_cell_angle_beta     100.76
_cell_angle_gamma    90.0008

_symmetry_Int_Tables_number  12
_chemical_formula_structural  Li2VO2F
_chemical_formula_sum  Li4V2O4F2
_cell_volume  104.3118143284365
_cell_formula_units_Z  2
loop_
  _symmetry_equiv_pos_site_id
 _symmetry_equiv_pos_as_xyz
 1  'x, y, z'
loop_
 _atom_site_type_symbol
 _atom_site_label
 _atom_site_symmetry_multiplicity
 _atom_site_fract_x
 _atom_site_fract_y
 _atom_site_fract_z
 _atom_site_fract_occupancy
 F  F1  1  0.74976  0.76145  0.49963  1
 F  F2  1  0.41681  0.73855  0.83370  1
 Li  Li1  1  0.17195  0.50303  0.34400  1
 Li  Li2  1  0.82943  0.47723  0.65870  1
 Li  Li3  1  0.33738  0.02278  0.67463  1
 Li  Li4  1  0.99463  -0.00303  0.98934  1
 O  O1  1  0.08332  0.75000  0.16667  1
 O  O2  1  0.58336  0.25000  0.16667  1
 O  O3  1  0.24459  0.23812  0.48917  1
 O  O4  1  0.92208  0.26188  0.84417  1
 V  V1  1  0.66275  0.02533  0.32549  1
 V  V2  1  0.50394  0.47467  0.00784  1
