CIF file written using JARVIS-Tools package.
data_Zn3FeS4
_symmetry_space_group_name_H-M  'R3m'
_cell_length_a       12.7262
_cell_length_b       12.7262
_cell_length_c       12.7262
_cell_angle_alpha    17.27
_cell_angle_beta     17.27
_cell_angle_gamma    17.27

_symmetry_Int_Tables_number  160
_chemical_formula_structural  Zn3FeS4
_chemical_formula_sum  Zn3FeS4
_cell_volume  158.50702509017688
_cell_formula_units_Z  1
loop_
  _symmetry_equiv_pos_site_id
 _symmetry_equiv_pos_as_xyz
 1  'x, y, z'
loop_
 _atom_site_type_symbol
 _atom_site_label
 _atom_site_symmetry_multiplicity
 _atom_site_fract_x
 _atom_site_fract_y
 _atom_site_fract_z
 _atom_site_fract_occupancy
 Fe  Fe1  1  0.24965  0.24965  0.24965  1
 S  S1  1  0.06232  0.06232  0.06232  1
 S  S2  1  0.81270  0.81270  0.81270  1
 S  S3  1  0.56325  0.56325  0.56325  1
 S  S4  1  0.31155  0.31155  0.31155  1
 Zn  Zn1  1  -0.00024  -0.00024  -0.00024  1
 Zn  Zn2  1  0.75018  0.75018  0.75018  1
 Zn  Zn3  1  0.50060  0.50060  0.50060  1
