CIF file written using JARVIS-Tools package.
data_LaCoSi2
_symmetry_space_group_name_H-M  'Cmcm'
_cell_length_a       8.57286
_cell_length_b       8.57286
_cell_length_c       4.12851
_cell_angle_alpha    90
_cell_angle_beta     90
_cell_angle_gamma    151.287

_symmetry_Int_Tables_number  63
_chemical_formula_structural  LaCoSi2
_chemical_formula_sum  La2Co2Si4
_cell_volume  145.76934811086755
_cell_formula_units_Z  2
loop_
  _symmetry_equiv_pos_site_id
 _symmetry_equiv_pos_as_xyz
 1  'x, y, z'
loop_
 _atom_site_type_symbol
 _atom_site_label
 _atom_site_symmetry_multiplicity
 _atom_site_fract_x
 _atom_site_fract_y
 _atom_site_fract_z
 _atom_site_fract_occupancy
 Co  Co1  1  0.81791  0.18209  0.25000  1
 Co  Co2  1  0.18209  0.81791  0.75000  1
 La  La1  1  0.60782  0.39218  0.25000  1
 La  La2  1  0.39218  0.60782  0.75000  1
 Si  Si1  1  0.95621  0.04379  0.25000  1
 Si  Si2  1  0.04379  0.95621  0.75000  1
 Si  Si3  1  0.24997  0.75003  0.25000  1
 Si  Si4  1  0.75003  0.24997  0.75000  1
