CIF file written using JARVIS-Tools package.
data_Nd2CdCu2
_symmetry_space_group_name_H-M  'Cmmm'
_cell_length_a       3.74766
_cell_length_b       4.23021
_cell_length_c       7.57936
_cell_angle_alpha    106.204
_cell_angle_beta     90
_cell_angle_gamma    90

_symmetry_Int_Tables_number  65
_chemical_formula_structural  Nd2CdCu2
_chemical_formula_sum  Nd2CdCu2
_cell_volume  115.38521033797899
_cell_formula_units_Z  1
loop_
  _symmetry_equiv_pos_site_id
 _symmetry_equiv_pos_as_xyz
 1  'x, y, z'
loop_
 _atom_site_type_symbol
 _atom_site_label
 _atom_site_symmetry_multiplicity
 _atom_site_fract_x
 _atom_site_fract_y
 _atom_site_fract_z
 _atom_site_fract_occupancy
 Cd  Cd1  1  0.50000  0.00000  0.00000  1
 Cu  Cu1  1  0.50000  0.79784  0.59567  1
 Cu  Cu2  1  0.50000  0.20216  0.40433  1
 Nd  Nd1  1  0.00000  0.63106  0.26212  1
 Nd  Nd2  1  0.00000  0.36894  0.73788  1
