CIF file written using JARVIS-Tools package.
data_Mg5MnSb4
_symmetry_space_group_name_H-M  'P3m1'
_cell_length_a       4.53774
_cell_length_b       4.53774
_cell_length_c       14.5213
_cell_angle_alpha    90
_cell_angle_beta     90
_cell_angle_gamma    120

_symmetry_Int_Tables_number  156
_chemical_formula_structural  Mg5MnSb4
_chemical_formula_sum  Mg5MnSb4
_cell_volume  258.9491394892383
_cell_formula_units_Z  1
loop_
  _symmetry_equiv_pos_site_id
 _symmetry_equiv_pos_as_xyz
 1  'x, y, z'
loop_
 _atom_site_type_symbol
 _atom_site_label
 _atom_site_symmetry_multiplicity
 _atom_site_fract_x
 _atom_site_fract_y
 _atom_site_fract_z
 _atom_site_fract_occupancy
 Mg  Mg1  1  0.66667  0.33333  0.99827  1
 Mg  Mg2  1  0.66667  0.33333  0.50262  1
 Mg  Mg3  1  0.00000  0.00000  0.18432  1
 Mg  Mg4  1  0.33333  0.66667  0.81166  1
 Mg  Mg5  1  0.33333  0.66667  0.31620  1
 Mn  Mn1  1  0.00000  0.00000  0.68734  1
 Sb  Sb1  1  0.00000  0.00000  0.88299  1
 Sb  Sb2  1  0.00000  0.00000  0.38843  1
 Sb  Sb3  1  0.33333  0.66667  0.61580  1
 Sb  Sb4  1  0.33333  0.66667  0.11237  1
