CIF file written using JARVIS-Tools package.
data_CeNdAl2O6
_symmetry_space_group_name_H-M  'Cm'
_cell_length_a       5.34446
_cell_length_b       5.34445
_cell_length_c       5.34222
_cell_angle_alpha    60.039
_cell_angle_beta     60.0392
_cell_angle_gamma    89.6489

_symmetry_Int_Tables_number  8
_chemical_formula_structural  CeNdAl2O6
_chemical_formula_sum  CeNdAl2O6
_cell_volume  108.35029814037797
_cell_formula_units_Z  1
loop_
  _symmetry_equiv_pos_site_id
 _symmetry_equiv_pos_as_xyz
 1  'x, y, z'
loop_
 _atom_site_type_symbol
 _atom_site_label
 _atom_site_symmetry_multiplicity
 _atom_site_fract_x
 _atom_site_fract_y
 _atom_site_fract_z
 _atom_site_fract_occupancy
 Al  Al1  1  0.99970  0.50006  0.00012  1
 Al  Al2  1  0.50006  0.99970  0.00012  1
 Ce  Ce1  1  0.75186  0.75186  0.49817  1
 Nd  Nd1  1  0.24606  0.24606  0.50381  1
 O  O1  1  0.22082  0.78145  0.99791  1
 O  O2  1  0.78145  0.22082  0.99791  1
 O  O3  1  0.22196  0.78024  0.49983  1
 O  O4  1  0.78024  0.22196  0.49983  1
 O  O5  1  0.69229  0.69229  0.05653  1
 O  O6  1  0.30556  0.30556  0.94579  1
