CIF file written using JARVIS-Tools package.
data_SnGeO3
_symmetry_space_group_name_H-M  'R-3'
_cell_length_a       7.09701
_cell_length_b       7.09701
_cell_length_c       7.09701
_cell_angle_alpha    43.9955
_cell_angle_beta     43.9955
_cell_angle_gamma    43.9955

_symmetry_Int_Tables_number  148
_chemical_formula_structural  SnGeO3
_chemical_formula_sum  Sn2Ge2O6
_cell_volume  156.64260490348556
_cell_formula_units_Z  2
loop_
  _symmetry_equiv_pos_site_id
 _symmetry_equiv_pos_as_xyz
 1  'x, y, z'
loop_
 _atom_site_type_symbol
 _atom_site_label
 _atom_site_symmetry_multiplicity
 _atom_site_fract_x
 _atom_site_fract_y
 _atom_site_fract_z
 _atom_site_fract_occupancy
 Ge  Ge1  1  0.39200  0.39200  0.39200  1
 Ge  Ge2  1  0.60800  0.60800  0.60800  1
 O  O1  1  0.10637  0.44088  0.77661  1
 O  O2  1  0.44088  0.77661  0.10637  1
 O  O3  1  0.22339  0.89363  0.55912  1
 O  O4  1  0.77661  0.10637  0.44088  1
 O  O5  1  0.55912  0.22339  0.89363  1
 O  O6  1  0.89363  0.55912  0.22339  1
 Sn  Sn1  1  0.16666  0.16666  0.16666  1
 Sn  Sn2  1  0.83334  0.83334  0.83334  1
