CIF file written using JARVIS-Tools package.
data_RuF3
_symmetry_space_group_name_H-M  'R-3c'
_cell_length_a       5.4359
_cell_length_b       5.4359
_cell_length_c       5.4359
_cell_angle_alpha    54.2634
_cell_angle_beta     54.2634
_cell_angle_gamma    54.2634

_symmetry_Int_Tables_number  167
_chemical_formula_structural  RuF3
_chemical_formula_sum  Ru2F6
_cell_volume  98.37549304999435
_cell_formula_units_Z  2
loop_
  _symmetry_equiv_pos_site_id
 _symmetry_equiv_pos_as_xyz
 1  'x, y, z'
loop_
 _atom_site_type_symbol
 _atom_site_label
 _atom_site_symmetry_multiplicity
 _atom_site_fract_x
 _atom_site_fract_y
 _atom_site_fract_z
 _atom_site_fract_occupancy
 F  F1  1  0.75000  0.08916  0.41084  1
 F  F2  1  0.08916  0.41084  0.75000  1
 F  F3  1  0.58916  0.25000  0.91084  1
 F  F4  1  0.91084  0.58916  0.25000  1
 F  F5  1  0.25000  0.91084  0.58916  1
 F  F6  1  0.41084  0.75000  0.08916  1
 Ru  Ru1  1  0.50000  0.50000  0.50000  1
 Ru  Ru2  1  0.00000  0.00000  0.00000  1
