CIF file written using JARVIS-Tools package.
data_TbTh
_symmetry_space_group_name_H-M  'R-3m'
_cell_length_a       6.12766
_cell_length_b       6.12766
_cell_length_c       6.12766
_cell_angle_alpha    33.8918
_cell_angle_beta     33.8919
_cell_angle_gamma    33.8918

_symmetry_Int_Tables_number  166
_chemical_formula_structural  TbTh
_chemical_formula_sum  TbTh
_cell_volume  63.760761101415824
_cell_formula_units_Z  1
loop_
  _symmetry_equiv_pos_site_id
 _symmetry_equiv_pos_as_xyz
 1  'x, y, z'
loop_
 _atom_site_type_symbol
 _atom_site_label
 _atom_site_symmetry_multiplicity
 _atom_site_fract_x
 _atom_site_fract_y
 _atom_site_fract_z
 _atom_site_fract_occupancy
 Tb  Tb1  1  0.00000  0.00000  0.00000  1
 Th  Th1  1  0.50000  0.50000  0.50000  1
