CIF file written using JARVIS-Tools package.
data_TbCeO4
_symmetry_space_group_name_H-M  'P2_1/m'
_cell_length_a       3.81134
_cell_length_b       5.58158
_cell_length_c       7.62575
_cell_angle_alpha    89.9925
_cell_angle_beta     85.6822
_cell_angle_gamma    90.0017

_symmetry_Int_Tables_number  11
_chemical_formula_structural  TbCeO4
_chemical_formula_sum  Tb2Ce2O8
_cell_volume  161.76451945188174
_cell_formula_units_Z  2
loop_
  _symmetry_equiv_pos_site_id
 _symmetry_equiv_pos_as_xyz
 1  'x, y, z'
loop_
 _atom_site_type_symbol
 _atom_site_label
 _atom_site_symmetry_multiplicity
 _atom_site_fract_x
 _atom_site_fract_y
 _atom_site_fract_z
 _atom_site_fract_occupancy
 Ce  Ce1  1  0.26816  0.74506  0.37452  1
 Ce  Ce2  1  0.73461  0.24506  0.62446  1
 O  O1  1  0.27429  0.99342  0.12004  1
 O  O2  1  0.27429  0.49671  0.12007  1
 O  O3  1  0.76665  0.49807  0.37396  1
 O  O4  1  0.76666  0.99199  0.37396  1
 O  O5  1  0.23612  0.49204  0.62502  1
 O  O6  1  0.23612  0.99812  0.62502  1
 O  O7  1  0.72848  0.99670  0.87894  1
 O  O8  1  0.72849  0.49342  0.87891  1
 Tb  Tb1  1  0.77343  0.24507  0.12591  1
 Tb  Tb2  1  0.22934  0.74506  0.87307  1
