CIF file written using JARVIS-Tools package.
data_MnHg2Te3
_symmetry_space_group_name_H-M  'P3m1'
_cell_length_a       4.62435
_cell_length_b       4.62436
_cell_length_c       11.1656
_cell_angle_alpha    90
_cell_angle_beta     90
_cell_angle_gamma    120

_symmetry_Int_Tables_number  156
_chemical_formula_structural  MnHg2Te3
_chemical_formula_sum  MnHg2Te3
_cell_volume  206.78239332859863
_cell_formula_units_Z  1
loop_
  _symmetry_equiv_pos_site_id
 _symmetry_equiv_pos_as_xyz
 1  'x, y, z'
loop_
 _atom_site_type_symbol
 _atom_site_label
 _atom_site_symmetry_multiplicity
 _atom_site_fract_x
 _atom_site_fract_y
 _atom_site_fract_z
 _atom_site_fract_occupancy
 Hg  Hg1  1  0.00000  0.00000  0.99580  1
 Hg  Hg2  1  0.66667  0.33333  0.34078  1
 Mn  Mn1  1  0.33333  0.66667  0.66117  1
 Te  Te1  1  0.00000  0.00000  0.25066  1
 Te  Te2  1  0.66667  0.33333  0.59819  1
 Te  Te3  1  0.33333  0.66667  0.90339  1
