CIF file written using JARVIS-Tools package.
data_TmCl3
_symmetry_space_group_name_H-M  'R-3c'
_cell_length_a       7.0291
_cell_length_b       7.02911
_cell_length_c       7.02911
_cell_angle_alpha    54.1972
_cell_angle_beta     54.1971
_cell_angle_gamma    54.1971

_symmetry_Int_Tables_number  167
_chemical_formula_structural  TmCl3
_chemical_formula_sum  Tm2Cl6
_cell_volume  212.3143983419115
_cell_formula_units_Z  2
loop_
  _symmetry_equiv_pos_site_id
 _symmetry_equiv_pos_as_xyz
 1  'x, y, z'
loop_
 _atom_site_type_symbol
 _atom_site_label
 _atom_site_symmetry_multiplicity
 _atom_site_fract_x
 _atom_site_fract_y
 _atom_site_fract_z
 _atom_site_fract_occupancy
 Cl  Cl1  1  0.41741  0.75000  0.08259  1
 Cl  Cl2  1  0.75000  0.08259  0.41741  1
 Cl  Cl3  1  0.91741  0.58259  0.25000  1
 Cl  Cl4  1  0.25000  0.91741  0.58259  1
 Cl  Cl5  1  0.58259  0.25000  0.91741  1
 Cl  Cl6  1  0.08259  0.41741  0.75000  1
 Tm  Tm1  1  0.50000  0.50000  0.50000  1
 Tm  Tm2  1  0.00000  0.00000  0.00000  1
