CIF file written using JARVIS-Tools package.
data_LaAl3Cu
_symmetry_space_group_name_H-M  'I4mm'
_cell_length_a       4.31294
_cell_length_b       4.31294
_cell_length_c       6.16899
_cell_angle_alpha    110.461
_cell_angle_beta     110.461
_cell_angle_gamma    90

_symmetry_Int_Tables_number  107
_chemical_formula_structural  LaAl3Cu
_chemical_formula_sum  LaAl3Cu
_cell_volume  99.74915485807612
_cell_formula_units_Z  1
loop_
  _symmetry_equiv_pos_site_id
 _symmetry_equiv_pos_as_xyz
 1  'x, y, z'
loop_
 _atom_site_type_symbol
 _atom_site_label
 _atom_site_symmetry_multiplicity
 _atom_site_fract_x
 _atom_site_fract_y
 _atom_site_fract_z
 _atom_site_fract_occupancy
 Al  Al1  1  0.40281  0.40281  0.80562  1
 Al  Al2  1  0.74651  0.24651  0.49302  1
 Al  Al3  1  0.24651  0.74651  0.49302  1
 Cu  Cu1  1  0.63054  0.63054  0.26109  1
 La  La1  1  0.99763  0.99763  0.99526  1
