CIF file written using JARVIS-Tools package.
data_V3O5F
_symmetry_space_group_name_H-M  'Pm'
_cell_length_a       6.50239
_cell_length_b       2.89751
_cell_length_c       10.3366
_cell_angle_alpha    90
_cell_angle_beta     108.294
_cell_angle_gamma    90

_symmetry_Int_Tables_number  6
_chemical_formula_structural  V3O5F
_chemical_formula_sum  V6O0F2
_cell_volume  184.90706364222999
_cell_formula_units_Z  2
loop_
  _symmetry_equiv_pos_site_id
 _symmetry_equiv_pos_as_xyz
 1  'x, y, z'
loop_
 _atom_site_type_symbol
 _atom_site_label
 _atom_site_symmetry_multiplicity
 _atom_site_fract_x
 _atom_site_fract_y
 _atom_site_fract_z
 _atom_site_fract_occupancy
 F  F1  1  0.06757  0.50000  0.13200  1
 F  F2  1  0.03169  0.00000  0.66503  1
 O  O1  1  0.39688  0.50000  0.80297  1
 O  O2  1  0.93200  0.50000  0.85787  1
 O  O3  1  0.29847  0.00000  0.00142  1
 O  O4  1  0.36635  0.00000  0.33574  1
 O  O5  1  0.70473  0.00000  -0.00087  1
 O  O6  1  0.73601  0.50000  0.46617  1
 O  O7  1  0.26310  0.50000  0.53887  1
 O  O8  1  0.60104  0.50000  0.20041  1
 O  O9  1  0.97036  0.00000  0.33188  1
 O  O10  1  0.62829  0.00000  0.66453  1
 V  V1  1  0.17749  0.50000  0.35306  1
 V  V2  1  0.66828  0.00000  0.33018  1
 V  V3  1  0.34957  0.00000  0.67632  1
 V  V4  1  0.50457  0.50000  0.00525  1
 V  V5  1  0.80878  0.50000  0.65686  1
 V  V6  1  0.99483  0.00000  0.98231  1
