CIF file written using JARVIS-Tools package.
data_BHO2
_symmetry_space_group_name_H-M  'Pnma'
_cell_length_a       7.96915
_cell_length_b       9.65027
_cell_length_c       5.95332
_cell_angle_alpha    90
_cell_angle_beta     90
_cell_angle_gamma    90

_symmetry_Int_Tables_number  62
_chemical_formula_structural  BHO2
_chemical_formula_sum  B2H2O24
_cell_volume  457.83689099679395
_cell_formula_units_Z  12
loop_
  _symmetry_equiv_pos_site_id
 _symmetry_equiv_pos_as_xyz
 1  'x, y, z'
loop_
 _atom_site_type_symbol
 _atom_site_label
 _atom_site_symmetry_multiplicity
 _atom_site_fract_x
 _atom_site_fract_y
 _atom_site_fract_z
 _atom_site_fract_occupancy
 B  B1  1  0.50293  0.66954  0.25000  1
 B  B2  1  -0.00059  0.41795  0.25000  1
 B  B3  1  -0.00293  0.16954  0.25000  1
 B  B4  1  0.49707  0.33046  0.75000  1
 B  B5  1  0.50059  0.91795  0.25000  1
 B  B6  1  0.24122  0.79235  0.25000  1
 B  B7  1  0.00293  0.83046  0.75000  1
 B  B8  1  0.00059  0.58205  0.75000  1
 B  B9  1  0.25878  0.29235  0.25000  1
 B  B10  1  0.75878  0.20765  0.75000  1
 B  B11  1  0.74122  0.70765  0.75000  1
 B  B12  1  0.49941  0.08205  0.75000  1
 H  H1  1  0.02818  0.04053  0.75000  1
 H  H2  1  0.52818  0.45947  0.25000  1
 H  H3  1  0.97182  0.95947  0.25000  1
 H  H4  1  0.47182  0.54053  0.75000  1
 H  H5  1  0.70530  0.04133  0.25000  1
 H  H6  1  0.79470  0.54133  0.25000  1
 H  H7  1  0.29470  0.95867  0.75000  1
 H  H8  1  0.01372  0.70282  0.25000  1
 H  H9  1  0.48628  0.20282  0.25000  1
 H  H10  1  0.98628  0.29718  0.75000  1
 H  H11  1  0.20530  0.45867  0.75000  1
 H  H12  1  0.51372  0.79718  0.75000  1
 O  O1  1  0.09063  0.70572  0.75000  1
 O  O2  1  0.40937  0.20572  0.75000  1
 O  O3  1  0.90937  0.29428  0.25000  1
 O  O4  1  0.59063  0.79428  0.25000  1
 O  O5  1  0.40813  0.45142  0.75000  1
 O  O6  1  0.92133  0.54378  0.25000  1
 O  O7  1  0.90813  0.04858  0.25000  1
 O  O8  1  0.59187  0.54858  0.25000  1
 O  O9  1  0.93062  0.20392  0.75000  1
 O  O10  1  0.09187  0.95142  0.75000  1
 O  O11  1  0.57867  0.04378  0.25000  1
 O  O12  1  0.43062  0.29608  0.25000  1
 O  O13  1  0.17224  0.41539  0.25000  1
 O  O14  1  0.06938  0.79608  0.25000  1
 O  O15  1  0.82776  0.58461  0.75000  1
 O  O16  1  0.32996  0.66956  0.25000  1
 O  O17  1  0.67224  0.08461  0.75000  1
 O  O18  1  0.32776  0.91539  0.25000  1
 O  O19  1  0.82995  0.83044  0.75000  1
 O  O20  1  0.67004  0.33044  0.75000  1
 O  O21  1  0.17004  0.16956  0.25000  1
 O  O22  1  0.42133  0.95622  0.75000  1
 O  O23  1  0.07867  0.45622  0.75000  1
 O  O24  1  0.56938  0.70392  0.75000  1
