CIF file written using JARVIS-Tools package.
data_Fe2CoSe4
_symmetry_space_group_name_H-M  'C2/m'
_cell_length_a       3.49279
_cell_length_b       6.07705
_cell_length_c       6.3437
_cell_angle_alpha    116.094
_cell_angle_beta     105.98
_cell_angle_gamma    90

_symmetry_Int_Tables_number  12
_chemical_formula_structural  Fe2CoSe4
_chemical_formula_sum  Fe2CoSe4
_cell_volume  115.10409405025786
_cell_formula_units_Z  1
loop_
  _symmetry_equiv_pos_site_id
 _symmetry_equiv_pos_as_xyz
 1  'x, y, z'
loop_
 _atom_site_type_symbol
 _atom_site_label
 _atom_site_symmetry_multiplicity
 _atom_site_fract_x
 _atom_site_fract_y
 _atom_site_fract_z
 _atom_site_fract_occupancy
 Co  Co1  1  0.00000  0.00000  0.00000  1
 Fe  Fe1  1  0.74008  0.69506  0.48015  1
 Fe  Fe2  1  0.25992  0.30494  0.51985  1
 Se  Se1  1  0.63559  0.97881  0.27118  1
 Se  Se2  1  0.36441  0.02119  0.72882  1
 Se  Se3  1  0.89004  0.55292  0.78009  1
 Se  Se4  1  0.10996  0.44708  0.21991  1
