CIF file written using JARVIS-Tools package.
data_AuCl
_symmetry_space_group_name_H-M  'P4_2/ncm'
_cell_length_a       4.31635
_cell_length_b       4.31635
_cell_length_c       10.8044
_cell_angle_alpha    90
_cell_angle_beta     90
_cell_angle_gamma    90

_symmetry_Int_Tables_number  138
_chemical_formula_structural  AuCl
_chemical_formula_sum  Au4Cl4
_cell_volume  201.29431710617376
_cell_formula_units_Z  4
loop_
  _symmetry_equiv_pos_site_id
 _symmetry_equiv_pos_as_xyz
 1  'x, y, z'
loop_
 _atom_site_type_symbol
 _atom_site_label
 _atom_site_symmetry_multiplicity
 _atom_site_fract_x
 _atom_site_fract_y
 _atom_site_fract_z
 _atom_site_fract_occupancy
 Au  Au1  1  0.25000  0.75000  0.75000  1
 Au  Au2  1  0.75000  0.75000  0.25000  1
 Au  Au3  1  0.25000  0.25000  0.25000  1
 Au  Au4  1  0.75000  0.25000  0.75000  1
 Cl  Cl1  1  0.50000  0.00000  0.91504  1
 Cl  Cl2  1  0.50000  0.00000  0.41504  1
 Cl  Cl3  1  0.00000  0.50000  0.08496  1
 Cl  Cl4  1  0.00000  0.50000  0.58496  1
