CIF file written using JARVIS-Tools package.
data_CuO2
_symmetry_space_group_name_H-M  'R-3m'
_cell_length_a       4.38881
_cell_length_b       4.3888
_cell_length_c       4.38881
_cell_angle_alpha    39.2717
_cell_angle_beta     39.2718
_cell_angle_gamma    39.2718

_symmetry_Int_Tables_number  166
_chemical_formula_structural  CuO2
_chemical_formula_sum  CuO2
_cell_volume  30.47758543896827
_cell_formula_units_Z  1
loop_
  _symmetry_equiv_pos_site_id
 _symmetry_equiv_pos_as_xyz
 1  'x, y, z'
loop_
 _atom_site_type_symbol
 _atom_site_label
 _atom_site_symmetry_multiplicity
 _atom_site_fract_x
 _atom_site_fract_y
 _atom_site_fract_z
 _atom_site_fract_occupancy
 Cu  Cu1  1  0.00000  0.00000  0.00000  1
 O  O1  1  0.25589  0.25589  0.25589  1
 O  O2  1  0.74411  0.74411  0.74411  1
