CIF file written using JARVIS-Tools package.
data_Li2VN2
_symmetry_space_group_name_H-M  'P-3m1'
_cell_length_a       2.97262
_cell_length_b       2.97229
_cell_length_c       5.43878
_cell_angle_alpha    90.0106
_cell_angle_beta     90.0078
_cell_angle_gamma    119.999

_symmetry_Int_Tables_number  164
_chemical_formula_structural  Li2VN2
_chemical_formula_sum  Li2VN2
_cell_volume  41.61640271756855
_cell_formula_units_Z  1
loop_
  _symmetry_equiv_pos_site_id
 _symmetry_equiv_pos_as_xyz
 1  'x, y, z'
loop_
 _atom_site_type_symbol
 _atom_site_label
 _atom_site_symmetry_multiplicity
 _atom_site_fract_x
 _atom_site_fract_y
 _atom_site_fract_z
 _atom_site_fract_occupancy
 Li  Li1  1  0.66665  0.33331  0.36526  1
 Li  Li2  1  0.33335  0.66669  0.63474  1
 N  N1  1  0.66683  0.33352  0.78617  1
 N  N2  1  0.33317  0.66648  0.21383  1
 V  V1  1  0.00000  0.00000  0.00000  1
