CIF file written using JARVIS-Tools package.
data_NaYZrS4
_symmetry_space_group_name_H-M  'P2/m'
_cell_length_a       3.84992
_cell_length_b       6.58786
_cell_length_c       6.90114
_cell_angle_alpha    71.9822
_cell_angle_beta     90
_cell_angle_gamma    90

_symmetry_Int_Tables_number  10
_chemical_formula_structural  NaYZrS4
_chemical_formula_sum  NaYZrS4
_cell_volume  166.44799823906357
_cell_formula_units_Z  1
loop_
  _symmetry_equiv_pos_site_id
 _symmetry_equiv_pos_as_xyz
 1  'x, y, z'
loop_
 _atom_site_type_symbol
 _atom_site_label
 _atom_site_symmetry_multiplicity
 _atom_site_fract_x
 _atom_site_fract_y
 _atom_site_fract_z
 _atom_site_fract_occupancy
 Na  Na1  1  0.00000  0.50000  0.50000  1
 S  S1  1  0.50000  0.77622  0.22487  1
 S  S2  1  0.00000  0.24347  0.22385  1
 S  S3  1  0.50000  0.22378  0.77513  1
 S  S4  1  0.00000  0.75653  0.77615  1
 Y  Y1  1  0.50000  0.50000  0.00000  1
 Zr  Zr1  1  0.00000  0.00000  0.00000  1
