CIF file written using JARVIS-Tools package.
data_U2CuSi3
_symmetry_space_group_name_H-M  'Pmm2'
_cell_length_a       3.94176
_cell_length_b       4.05331
_cell_length_c       6.93869
_cell_angle_alpha    90
_cell_angle_beta     90
_cell_angle_gamma    90

_symmetry_Int_Tables_number  25
_chemical_formula_structural  U2CuSi3
_chemical_formula_sum  U2CuSi3
_cell_volume  110.86073666129903
_cell_formula_units_Z  1
loop_
  _symmetry_equiv_pos_site_id
 _symmetry_equiv_pos_as_xyz
 1  'x, y, z'
loop_
 _atom_site_type_symbol
 _atom_site_label
 _atom_site_symmetry_multiplicity
 _atom_site_fract_x
 _atom_site_fract_y
 _atom_site_fract_z
 _atom_site_fract_occupancy
 Cu  Cu1  1  0.50000  0.50000  0.32974  1
 Si  Si1  1  0.50000  0.00000  0.83547  1
 Si  Si2  1  0.50000  0.00000  0.17338  1
 Si  Si3  1  0.50000  0.50000  0.66044  1
 U  U1  1  0.00000  0.50000  0.99248  1
 U  U2  1  0.00000  0.00000  0.50849  1
