CIF file written using JARVIS-Tools package.
data_Yb2TiCuO6
_symmetry_space_group_name_H-M  'P-6m2'
_cell_length_a       3.49251
_cell_length_b       3.4925
_cell_length_c       11.6179
_cell_angle_alpha    90
_cell_angle_beta     90
_cell_angle_gamma    120

_symmetry_Int_Tables_number  187
_chemical_formula_structural  Yb2TiCuO6
_chemical_formula_sum  Yb2TiCuO6
_cell_volume  122.7250173537318
_cell_formula_units_Z  1
loop_
  _symmetry_equiv_pos_site_id
 _symmetry_equiv_pos_as_xyz
 1  'x, y, z'
loop_
 _atom_site_type_symbol
 _atom_site_label
 _atom_site_symmetry_multiplicity
 _atom_site_fract_x
 _atom_site_fract_y
 _atom_site_fract_z
 _atom_site_fract_occupancy
 Cu  Cu1  1  0.33333  0.66667  0.50000  1
 O  O1  1  0.00000  0.00000  0.84111  1
 O  O2  1  0.33333  0.66667  0.34601  1
 O  O3  1  0.66667  0.33333  0.00000  1
 O  O4  1  0.66667  0.33333  0.50000  1
 O  O5  1  0.33333  0.66667  0.65399  1
 O  O6  1  0.00000  0.00000  0.15889  1
 Ti  Ti1  1  0.00000  0.00000  0.00000  1
 Yb  Yb1  1  0.66667  0.33333  0.74223  1
 Yb  Yb2  1  0.66667  0.33333  0.25777  1
