CIF file written using JARVIS-Tools package.
data_Li3Co4O8
_symmetry_space_group_name_H-M  'R-3m'
_cell_length_a       5.68016
_cell_length_b       5.65066
_cell_length_c       5.68016
_cell_angle_alpha    59.8272
_cell_angle_beta     120
_cell_angle_gamma    120.173

_symmetry_Int_Tables_number  166
_chemical_formula_structural  Li3Co4O8
_chemical_formula_sum  Li3Co4O8
_cell_volume  128.57788783240903
_cell_formula_units_Z  1
loop_
  _symmetry_equiv_pos_site_id
 _symmetry_equiv_pos_as_xyz
 1  'x, y, z'
loop_
 _atom_site_type_symbol
 _atom_site_label
 _atom_site_symmetry_multiplicity
 _atom_site_fract_x
 _atom_site_fract_y
 _atom_site_fract_z
 _atom_site_fract_occupancy
 Co  Co1  1  0.50000  0.50000  0.50000  1
 Co  Co2  1  0.50000  0.50000  0.00000  1
 Co  Co3  1  -0.00000  0.50000  0.00000  1
 Co  Co4  1  0.50000  -0.00000  0.00000  1
 Li  Li1  1  0.50000  0.00000  0.50000  1
 Li  Li2  1  -0.00000  0.00000  0.50000  1
 Li  Li3  1  0.00000  0.00000  0.00000  1
 O  O1  1  0.74022  0.72065  0.75978  1
 O  O2  1  0.71445  0.74189  0.23628  1
 O  O3  1  0.26372  0.74189  0.78555  1
 O  O4  1  0.73628  0.25811  0.76372  1
 O  O5  1  0.26372  0.74189  0.23628  1
 O  O6  1  0.73628  0.25811  0.21445  1
 O  O7  1  0.28555  0.25811  0.76372  1
 O  O8  1  0.25978  0.27935  0.24022  1
