CIF file written using JARVIS-Tools package.
data_YUSb2
_symmetry_space_group_name_H-M  'R-3m'
_cell_length_a       7.70936
_cell_length_b       7.70936
_cell_length_c       7.70936
_cell_angle_alpha    32.6402
_cell_angle_beta     32.6402
_cell_angle_gamma    32.6402

_symmetry_Int_Tables_number  166
_chemical_formula_structural  YUSb2
_chemical_formula_sum  YUSb2
_cell_volume  118.55251167428395
_cell_formula_units_Z  1
loop_
  _symmetry_equiv_pos_site_id
 _symmetry_equiv_pos_as_xyz
 1  'x, y, z'
loop_
 _atom_site_type_symbol
 _atom_site_label
 _atom_site_symmetry_multiplicity
 _atom_site_fract_x
 _atom_site_fract_y
 _atom_site_fract_z
 _atom_site_fract_occupancy
 Sb  Sb1  1  0.24934  0.24934  0.24934  1
 Sb  Sb2  1  0.75066  0.75066  0.75066  1
 U  U1  1  0.00000  0.00000  0.00000  1
 Y  Y1  1  0.50000  0.50000  0.50000  1
