CIF file written using JARVIS-Tools package.
data_XeF2
_symmetry_space_group_name_H-M  'I4/mmm'
_cell_length_a       4.18695
_cell_length_b       4.18696
_cell_length_c       4.62427
_cell_angle_alpha    116.918
_cell_angle_beta     116.918
_cell_angle_gamma    90

_symmetry_Int_Tables_number  139
_chemical_formula_structural  XeF2
_chemical_formula_sum  XeF2
_cell_volume  62.27319683728632
_cell_formula_units_Z  1
loop_
  _symmetry_equiv_pos_site_id
 _symmetry_equiv_pos_as_xyz
 1  'x, y, z'
loop_
 _atom_site_type_symbol
 _atom_site_label
 _atom_site_symmetry_multiplicity
 _atom_site_fract_x
 _atom_site_fract_y
 _atom_site_fract_z
 _atom_site_fract_occupancy
 F  F1  1  0.70593  0.70593  0.41185  1
 F  F2  1  0.29407  0.29407  0.58815  1
 Xe  Xe1  1  0.00000  0.00000  0.00000  1
