CIF file written using JARVIS-Tools package.
data_ThSi3Os
_symmetry_space_group_name_H-M  'I4mm'
_cell_length_a       4.28654
_cell_length_b       4.28654
_cell_length_c       5.84683
_cell_angle_alpha    111.504
_cell_angle_beta     111.504
_cell_angle_gamma    90

_symmetry_Int_Tables_number  107
_chemical_formula_structural  ThSi3Os
_chemical_formula_sum  ThSi3Os
_cell_volume  91.86854046041427
_cell_formula_units_Z  1
loop_
  _symmetry_equiv_pos_site_id
 _symmetry_equiv_pos_as_xyz
 1  'x, y, z'
loop_
 _atom_site_type_symbol
 _atom_site_label
 _atom_site_symmetry_multiplicity
 _atom_site_fract_x
 _atom_site_fract_y
 _atom_site_fract_z
 _atom_site_fract_occupancy
 Os  Os1  1  0.65527  0.65527  0.31054  1
 Si  Si1  1  0.41838  0.41838  0.83677  1
 Si  Si2  1  0.76253  0.26253  0.52505  1
 Si  Si3  1  0.26253  0.76253  0.52505  1
 Th  Th1  1  0.99529  0.99529  0.99059  1
