CIF file written using JARVIS-Tools package.
data_Na2Zr2O5
_symmetry_space_group_name_H-M  'P4/mmm'
_cell_length_a       4.01175
_cell_length_b       4.01175
_cell_length_c       8.09165
_cell_angle_alpha    90
_cell_angle_beta     90
_cell_angle_gamma    90

_symmetry_Int_Tables_number  123
_chemical_formula_structural  Na2Zr2O5
_chemical_formula_sum  Na2Zr2O5
_cell_volume  130.22829113917723
_cell_formula_units_Z  1
loop_
  _symmetry_equiv_pos_site_id
 _symmetry_equiv_pos_as_xyz
 1  'x, y, z'
loop_
 _atom_site_type_symbol
 _atom_site_label
 _atom_site_symmetry_multiplicity
 _atom_site_fract_x
 _atom_site_fract_y
 _atom_site_fract_z
 _atom_site_fract_occupancy
 Na  Na1  1  0.00000  0.00000  0.00000  1
 Na  Na2  1  0.00000  0.00000  0.50000  1
 O  O1  1  0.50000  0.00000  0.19684  1
 O  O2  1  0.50000  0.00000  0.80316  1
 O  O3  1  0.50000  0.50000  0.50000  1
 O  O4  1  0.00000  0.50000  0.19684  1
 O  O5  1  0.00000  0.50000  0.80316  1
 Zr  Zr1  1  0.50000  0.50000  0.25037  1
 Zr  Zr2  1  0.50000  0.50000  0.74963  1
