CIF file written using JARVIS-Tools package.
data_CaNdAlO4
_symmetry_space_group_name_H-M  'I4mm'
_cell_length_a       6.64642
_cell_length_b       6.64642
_cell_length_c       6.64642
_cell_angle_alpha    147.714
_cell_angle_beta     147.714
_cell_angle_gamma    46.3075

_symmetry_Int_Tables_number  107
_chemical_formula_structural  CaNdAlO4
_chemical_formula_sum  CaNdAlO4
_cell_volume  83.47373864101016
_cell_formula_units_Z  1
loop_
  _symmetry_equiv_pos_site_id
 _symmetry_equiv_pos_as_xyz
 1  'x, y, z'
loop_
 _atom_site_type_symbol
 _atom_site_label
 _atom_site_symmetry_multiplicity
 _atom_site_fract_x
 _atom_site_fract_y
 _atom_site_fract_z
 _atom_site_fract_occupancy
 Al  Al1  1  0.00947  0.00947  -0.00000  1
 Ca  Ca1  1  0.64234  0.64234  0.00000  1
 Nd  Nd1  1  0.35737  0.35737  0.00000  1
 O  O1  1  0.83095  0.83095  0.00000  1
 O  O2  1  0.16558  0.16558  0.00000  1
 O  O3  1  0.49715  0.99715  0.50000  1
 O  O4  1  0.99715  0.49715  0.50000  1
