CIF file written using JARVIS-Tools package.
data_TmTe
_symmetry_space_group_name_H-M  'Fm-3m'
_cell_length_a       4.29147
_cell_length_b       4.29147
_cell_length_c       4.29147
_cell_angle_alpha    60.0001
_cell_angle_beta     60
_cell_angle_gamma    60

_symmetry_Int_Tables_number  225
_chemical_formula_structural  TmTe
_chemical_formula_sum  TmTe
_cell_volume  55.885890089029644
_cell_formula_units_Z  1
loop_
  _symmetry_equiv_pos_site_id
 _symmetry_equiv_pos_as_xyz
 1  'x, y, z'
loop_
 _atom_site_type_symbol
 _atom_site_label
 _atom_site_symmetry_multiplicity
 _atom_site_fract_x
 _atom_site_fract_y
 _atom_site_fract_z
 _atom_site_fract_occupancy
 Te  Te1  1  0.00000  0.00000  0.00000  1
 Tm  Tm1  1  0.50000  0.50000  0.50000  1
