CIF file written using JARVIS-Tools package.
data_K5Bi4
_symmetry_space_group_name_H-M  'C2/m'
_cell_length_a       6.85414
_cell_length_b       6.85414
_cell_length_c       11.6481
_cell_angle_alpha    70.593
_cell_angle_beta     70.593
_cell_angle_gamma    48.0114

_symmetry_Int_Tables_number  12
_chemical_formula_structural  K5Bi4
_chemical_formula_sum  K5Bi4
_cell_volume  378.87539814079094
_cell_formula_units_Z  1
loop_
  _symmetry_equiv_pos_site_id
 _symmetry_equiv_pos_as_xyz
 1  'x, y, z'
loop_
 _atom_site_type_symbol
 _atom_site_label
 _atom_site_symmetry_multiplicity
 _atom_site_fract_x
 _atom_site_fract_y
 _atom_site_fract_z
 _atom_site_fract_occupancy
 Bi  Bi1  1  0.61427  0.61427  0.39172  1
 Bi  Bi2  1  0.38573  0.38573  0.60828  1
 Bi  Bi3  1  0.54715  0.54715  0.16774  1
 Bi  Bi4  1  0.45285  0.45285  0.83226  1
 K  K1  1  0.90723  0.90723  0.38681  1
 K  K2  1  0.09277  0.09277  0.61319  1
 K  K3  1  0.24621  0.24621  0.16632  1
 K  K4  1  0.75379  0.75379  0.83368  1
 K  K5  1  0.00000  0.00000  0.00000  1
