CIF file written using JARVIS-Tools package.
data_CoCl2O2
_symmetry_space_group_name_H-M  'C2/m'
_cell_length_a       3.42664
_cell_length_b       4.83402
_cell_length_c       4.83402
_cell_angle_alpha    95.8423
_cell_angle_beta     90.1475
_cell_angle_gamma    90.1475

_symmetry_Int_Tables_number  12
_chemical_formula_structural  CoCl2O2
_chemical_formula_sum  CoCl2O2
_cell_volume  79.6562854060117
_cell_formula_units_Z  1
loop_
  _symmetry_equiv_pos_site_id
 _symmetry_equiv_pos_as_xyz
 1  'x, y, z'
loop_
 _atom_site_type_symbol
 _atom_site_label
 _atom_site_symmetry_multiplicity
 _atom_site_fract_x
 _atom_site_fract_y
 _atom_site_fract_z
 _atom_site_fract_occupancy
 Cl  Cl1  1  0.50175  0.24793  0.24793  1
 Cl  Cl2  1  0.49825  0.75207  0.75207  1
 Co  Co1  1  0.00000  0.00000  0.00000  1
 O  O1  1  -0.00000  0.76992  0.23008  1
 O  O2  1  -0.00000  0.23008  0.76992  1
