CIF file written using JARVIS-Tools package.
data_K2Mo2O7
_symmetry_space_group_name_H-M  'P-1'
_cell_length_a       6.93176
_cell_length_b       7.25368
_cell_length_c       7.55478
_cell_angle_alpha    82.6841
_cell_angle_beta     68.1966
_cell_angle_gamma    85.4833

_symmetry_Int_Tables_number  2
_chemical_formula_structural  K2Mo2O7
_chemical_formula_sum  K4Mo4O4
_cell_volume  349.61080271699285
_cell_formula_units_Z  2
loop_
  _symmetry_equiv_pos_site_id
 _symmetry_equiv_pos_as_xyz
 1  'x, y, z'
loop_
 _atom_site_type_symbol
 _atom_site_label
 _atom_site_symmetry_multiplicity
 _atom_site_fract_x
 _atom_site_fract_y
 _atom_site_fract_z
 _atom_site_fract_occupancy
 K  K1  1  0.23615  0.61779  0.43488  1
 K  K2  1  0.76385  0.38221  0.56512  1
 K  K3  1  0.30312  0.15907  0.15529  1
 K  K4  1  0.69688  0.84093  0.84471  1
 Mo  Mo1  1  0.82579  0.34927  0.05418  1
 Mo  Mo2  1  0.74935  0.91355  0.31375  1
 Mo  Mo3  1  0.25065  0.08645  0.68625  1
 Mo  Mo4  1  0.17421  0.65073  0.94582  1
 O  O1  1  0.48107  0.91096  0.35708  1
 O  O2  1  0.94139  0.53039  0.85728  1
 O  O3  1  0.05861  0.46961  0.14272  1
 O  O4  1  0.12368  0.18575  0.90312  1
 O  O5  1  0.87632  0.81425  0.09688  1
 O  O6  1  0.82490  0.76939  0.48380  1
 O  O7  1  0.71087  0.20683  0.95263  1
 O  O8  1  0.85251  0.15048  0.26704  1
 O  O9  1  0.51893  0.08904  0.64292  1
 O  O10  1  0.14749  0.84952  0.73296  1
 O  O11  1  0.61355  0.46196  0.21381  1
 O  O12  1  0.38645  0.53804  0.78619  1
 O  O13  1  0.17510  0.23061  0.51620  1
 O  O14  1  0.28913  0.79317  0.04737  1
