CIF file written using JARVIS-Tools package.
data_Na4CrO4
_symmetry_space_group_name_H-M  'P-1'
_cell_length_a       5.70063
_cell_length_b       5.70333
_cell_length_c       8.64741
_cell_angle_alpha    71.0938
_cell_angle_beta     80.8656
_cell_angle_gamma    68.3416

_symmetry_Int_Tables_number  2
_chemical_formula_structural  Na4CrO4
_chemical_formula_sum  Na8Cr2O8
_cell_volume  246.95806331109688
_cell_formula_units_Z  2
loop_
  _symmetry_equiv_pos_site_id
 _symmetry_equiv_pos_as_xyz
 1  'x, y, z'
loop_
 _atom_site_type_symbol
 _atom_site_label
 _atom_site_symmetry_multiplicity
 _atom_site_fract_x
 _atom_site_fract_y
 _atom_site_fract_z
 _atom_site_fract_occupancy
 Cr  Cr1  1  0.72013  0.84425  0.75650  1
 Cr  Cr2  1  0.27987  0.15575  0.24350  1
 Na  Na1  1  0.73407  0.47849  0.56772  1
 Na  Na2  1  0.26534  0.39398  0.81854  1
 Na  Na3  1  0.24679  0.75863  0.01304  1
 Na  Na4  1  0.75966  0.05116  0.39693  1
 Na  Na5  1  0.26593  0.52151  0.43228  1
 Na  Na6  1  0.24034  0.94884  0.60307  1
 Na  Na7  1  0.73466  0.60602  0.18146  1
 Na  Na8  1  0.75321  0.24137  0.98696  1
 O  O1  1  0.02717  0.29654  0.37708  1
 O  O2  1  0.52561  0.16274  0.63843  1
 O  O3  1  0.84803  0.85084  0.92824  1
 O  O4  1  0.47439  0.83726  0.36157  1
 O  O5  1  0.47114  0.36367  0.19696  1
 O  O6  1  0.52886  0.63633  0.80304  1
 O  O7  1  0.97283  0.70346  0.62292  1
 O  O8  1  0.15197  0.14916  0.07176  1
