CIF file written using JARVIS-Tools package.
data_CrIn2S4
_symmetry_space_group_name_H-M  'Imma'
_cell_length_a       7.56071
_cell_length_b       7.5607
_cell_length_c       7.44986
_cell_angle_alpha    60.4838
_cell_angle_beta     60.4838
_cell_angle_gamma    62.3937

_symmetry_Int_Tables_number  74
_chemical_formula_structural  CrIn2S4
_chemical_formula_sum  Cr2In4S8
_cell_volume  308.5023096044575
_cell_formula_units_Z  2
loop_
  _symmetry_equiv_pos_site_id
 _symmetry_equiv_pos_as_xyz
 1  'x, y, z'
loop_
 _atom_site_type_symbol
 _atom_site_label
 _atom_site_symmetry_multiplicity
 _atom_site_fract_x
 _atom_site_fract_y
 _atom_site_fract_z
 _atom_site_fract_occupancy
 Cr  Cr1  1  0.62500  0.62500  0.12500  1
 Cr  Cr2  1  0.62500  0.62500  0.62500  1
 In  In1  1  0.01407  0.01407  0.98593  1
 In  In2  1  0.23593  0.23593  0.26407  1
 In  In3  1  0.12500  0.62500  0.62500  1
 In  In4  1  0.62500  0.12500  0.62500  1
 S  S1  1  0.39387  0.39387  0.36777  1
 S  S2  1  0.39387  0.39387  0.84450  1
 S  S3  1  0.41697  0.82733  0.37785  1
 S  S4  1  0.82733  0.41697  0.37785  1
 S  S5  1  0.42267  0.83303  0.87215  1
 S  S6  1  0.83303  0.42267  0.87215  1
 S  S7  1  0.85613  0.85613  0.40550  1
 S  S8  1  0.85613  0.85613  0.88223  1
