CIF file written using JARVIS-Tools package.
data_Ba2NdCu3O7
_symmetry_space_group_name_H-M  'Pmmm'
_cell_length_a       3.88477
_cell_length_b       3.95148
_cell_length_c       11.7756
_cell_angle_alpha    90
_cell_angle_beta     90
_cell_angle_gamma    90

_symmetry_Int_Tables_number  47
_chemical_formula_structural  Ba2NdCu3O7
_chemical_formula_sum  Ba2NdCu3O7
_cell_volume  180.7626221252715
_cell_formula_units_Z  1
loop_
  _symmetry_equiv_pos_site_id
 _symmetry_equiv_pos_as_xyz
 1  'x, y, z'
loop_
 _atom_site_type_symbol
 _atom_site_label
 _atom_site_symmetry_multiplicity
 _atom_site_fract_x
 _atom_site_fract_y
 _atom_site_fract_z
 _atom_site_fract_occupancy
 Ba  Ba1  1  0.50000  0.50000  0.81983  1
 Ba  Ba2  1  0.50000  0.50000  0.18017  1
 Cu  Cu1  1  0.00000  0.00000  0.65268  1
 Cu  Cu2  1  0.00000  0.00000  0.34732  1
 Cu  Cu3  1  0.00000  0.00000  0.00000  1
 Nd  Nd1  1  0.50000  0.50000  0.50000  1
 O  O1  1  0.00000  0.00000  0.84097  1
 O  O2  1  0.00000  0.00000  0.15903  1
 O  O3  1  0.00000  0.50000  0.62952  1
 O  O4  1  0.00000  0.50000  0.37048  1
 O  O5  1  0.50000  0.00000  0.62875  1
 O  O6  1  0.50000  0.00000  0.37125  1
 O  O7  1  0.00000  0.50000  0.00000  1
