CIF file written using JARVIS-Tools package.
data_Ta2CrNO5
_symmetry_space_group_name_H-M  'Cmmm'
_cell_length_a       4.7167
_cell_length_b       4.7167
_cell_length_c       9.23161
_cell_angle_alpha    90
_cell_angle_beta     90
_cell_angle_gamma    89.5399

_symmetry_Int_Tables_number  65
_chemical_formula_structural  Ta2CrNO5
_chemical_formula_sum  Ta4Cr2N2O0
_cell_volume  205.37157671688917
_cell_formula_units_Z  2
loop_
  _symmetry_equiv_pos_site_id
 _symmetry_equiv_pos_as_xyz
 1  'x, y, z'
loop_
 _atom_site_type_symbol
 _atom_site_label
 _atom_site_symmetry_multiplicity
 _atom_site_fract_x
 _atom_site_fract_y
 _atom_site_fract_z
 _atom_site_fract_occupancy
 Cr  Cr1  1  0.00000  0.00000  0.00000  1
 Cr  Cr2  1  0.50000  0.50000  0.50000  1
 N  N1  1  0.19874  0.80126  0.50000  1
 N  N2  1  0.80126  0.19874  0.50000  1
 O  O1  1  0.69469  0.69469  0.67164  1
 O  O2  1  0.80182  0.19818  0.16229  1
 O  O3  1  0.19818  0.80182  0.16229  1
 O  O4  1  0.30531  0.30531  0.32836  1
 O  O5  1  0.19818  0.80182  0.83771  1
 O  O6  1  0.30347  0.30347  0.00000  1
 O  O7  1  0.80182  0.19818  0.83771  1
 O  O8  1  0.69469  0.69469  0.32836  1
 O  O9  1  0.30531  0.30531  0.67164  1
 O  O10  1  0.69653  0.69653  0.00000  1
 Ta  Ta1  1  0.50000  0.50000  0.83187  1
 Ta  Ta2  1  0.50000  0.50000  0.16813  1
 Ta  Ta3  1  0.00000  0.00000  0.65704  1
 Ta  Ta4  1  0.00000  0.00000  0.34296  1
