CIF file written using JARVIS-Tools package.
data_Y3Mn3Ga2Si
_symmetry_space_group_name_H-M  'P-6'
_cell_length_a       6.93816
_cell_length_b       6.93817
_cell_length_c       4.13875
_cell_angle_alpha    90
_cell_angle_beta     90
_cell_angle_gamma    120

_symmetry_Int_Tables_number  174
_chemical_formula_structural  Y3Mn3Ga2Si
_chemical_formula_sum  Y3Mn3Ga2Si
_cell_volume  172.5394335612831
_cell_formula_units_Z  1
loop_
  _symmetry_equiv_pos_site_id
 _symmetry_equiv_pos_as_xyz
 1  'x, y, z'
loop_
 _atom_site_type_symbol
 _atom_site_label
 _atom_site_symmetry_multiplicity
 _atom_site_fract_x
 _atom_site_fract_y
 _atom_site_fract_z
 _atom_site_fract_occupancy
 Ga  Ga1  1  0.00000  0.00000  0.50000  1
 Ga  Ga2  1  0.66667  0.33333  0.00000  1
 Mn  Mn1  1  0.22347  0.98988  0.00000  1
 Mn  Mn2  1  0.76641  0.77653  0.00000  1
 Mn  Mn3  1  0.01012  0.23359  0.00000  1
 Si  Si1  1  0.33333  0.66667  0.00000  1
 Y  Y1  1  0.57742  0.99697  0.50000  1
 Y  Y2  1  0.41955  0.42258  0.50000  1
 Y  Y3  1  0.00303  0.58045  0.50000  1
