CIF file written using JARVIS-Tools package.
data_UCoNiGe2
_symmetry_space_group_name_H-M  'I-4m2'
_cell_length_a       5.62735
_cell_length_b       5.62735
_cell_length_c       5.62734
_cell_angle_alpha    138.089
_cell_angle_beta     138.089
_cell_angle_gamma    60.7673

_symmetry_Int_Tables_number  119
_chemical_formula_structural  UCoNiGe2
_chemical_formula_sum  UCoNiGe2
_cell_volume  78.65322083369722
_cell_formula_units_Z  1
loop_
  _symmetry_equiv_pos_site_id
 _symmetry_equiv_pos_as_xyz
 1  'x, y, z'
loop_
 _atom_site_type_symbol
 _atom_site_label
 _atom_site_symmetry_multiplicity
 _atom_site_fract_x
 _atom_site_fract_y
 _atom_site_fract_z
 _atom_site_fract_occupancy
 Co  Co1  1  0.25000  0.75000  0.50000  1
 Ge  Ge1  1  0.62595  0.62595  0.00000  1
 Ge  Ge2  1  0.37405  0.37405  -0.00000  1
 Ni  Ni1  1  0.75000  0.25000  0.50000  1
 U  U1  1  0.00000  0.00000  0.00000  1
