CIF file written using JARVIS-Tools package.
data_NbBr2O
_symmetry_space_group_name_H-M  'C2'
_cell_length_a       3.9273
_cell_length_b       7.07445
_cell_length_c       7.25444
_cell_angle_alpha    104.918
_cell_angle_beta     105.702
_cell_angle_gamma    89.9997

_symmetry_Int_Tables_number  5
_chemical_formula_structural  NbBr2O
_chemical_formula_sum  Nb2Br4O2
_cell_volume  186.96606638490906
_cell_formula_units_Z  2
loop_
  _symmetry_equiv_pos_site_id
 _symmetry_equiv_pos_as_xyz
 1  'x, y, z'
loop_
 _atom_site_type_symbol
 _atom_site_label
 _atom_site_symmetry_multiplicity
 _atom_site_fract_x
 _atom_site_fract_y
 _atom_site_fract_z
 _atom_site_fract_occupancy
 Br  Br1  1  0.91685  0.93100  0.73367  1
 Br  Br2  1  0.88842  0.41533  0.68646  1
 Br  Br3  1  0.20190  0.58467  0.31354  1
 Br  Br4  1  0.18312  0.06900  0.26633  1
 Nb  Nb1  1  0.01246  0.71494  0.99922  1
 Nb  Nb2  1  0.01324  0.28506  0.00077  1
 O  O1  1  0.53719  0.72124  0.99758  1
 O  O2  1  0.53961  0.27877  0.00242  1
