CIF file written using JARVIS-Tools package.
data_MnCdS2
_symmetry_space_group_name_H-M  'R3m'
_cell_length_a       7.0132
_cell_length_b       7.0132
_cell_length_c       7.0132
_cell_angle_alpha    33.7618
_cell_angle_beta     33.7618
_cell_angle_gamma    33.7618

_symmetry_Int_Tables_number  160
_chemical_formula_structural  MnCdS2
_chemical_formula_sum  MnCdS2
_cell_volume  94.92592930352812
_cell_formula_units_Z  1
loop_
  _symmetry_equiv_pos_site_id
 _symmetry_equiv_pos_as_xyz
 1  'x, y, z'
loop_
 _atom_site_type_symbol
 _atom_site_label
 _atom_site_symmetry_multiplicity
 _atom_site_fract_x
 _atom_site_fract_y
 _atom_site_fract_z
 _atom_site_fract_occupancy
 Cd  Cd1  1  0.00150  0.00150  0.00150  1
 Mn  Mn1  1  0.49884  0.49884  0.49884  1
 S  S1  1  0.13017  0.13017  0.13017  1
 S  S2  1  0.61949  0.61949  0.61949  1
