data_image0
_chemical_formula_structural       B3La3O15Si3
_chemical_formula_sum              "B3 La3 O15 Si3"
_cell_length_a       6.74335
_cell_length_b       6.74335
_cell_length_c       6.7226
_cell_angle_alpha    90
_cell_angle_beta     90
_cell_angle_gamma    120

_space_group_name_H-M_alt    "P 1"
_space_group_IT_number       1

loop_
  _space_group_symop_operation_xyz
  'x, y, z'

loop_
  _atom_site_type_symbol
  _atom_site_label
  _atom_site_symmetry_multiplicity
  _atom_site_fract_x
  _atom_site_fract_y
  _atom_site_fract_z
  _atom_site_occupancy
  B   B1        1.0  0.11000  0.00001  0.99700  1.0000
  B   B2        1.0  0.00000  0.11000  0.33100  1.0000
  B   B3        1.0  0.89000  0.89000  0.66400  1.0000
  La  La1       1.0  0.60400  0.00002  0.99700  1.0000
  La  La2       1.0  0.00000  0.60400  0.33100  1.0000
  La  La3       1.0  0.39600  0.39600  0.66400  1.0000
  O   O1        1.0  0.00029  0.04390  0.83000  1.0000
  O   O2        1.0  0.95600  0.95600  0.16400  1.0000
  O   O3        1.0  0.04360  0.00000  0.49700  1.0000
  O   O4        1.0  0.47100  0.60700  0.99400  1.0000
  O   O5        1.0  0.39300  0.86400  0.32700  1.0000
  O   O6        1.0  0.13600  0.52900  0.66000  1.0000
  O   O7        1.0  0.60700  0.47100  0.33400  1.0000
  O   O8        1.0  0.52900  0.13600  0.66700  1.0000
  O   O9        1.0  0.86400  0.39300  0.00077  1.0000
  O   O10       1.0  0.19100  0.34800  0.30100  1.0000
  O   O11       1.0  0.65200  0.84300  0.63400  1.0000
  O   O12       1.0  0.15700  0.80900  0.96700  1.0000
  O   O13       1.0  0.34800  0.19100  0.02750  1.0000
  O   O14       1.0  0.80900  0.15700  0.36100  1.0000
  O   O15       1.0  0.84300  0.65200  0.69400  1.0000
  Si  Si1       1.0  0.58000  0.00011  0.49700  1.0000
  Si  Si2       1.0  0.00000  0.57900  0.83100  1.0000
  Si  Si3       1.0  0.42100  0.42000  0.16400  1.0000
