CIF file written using JARVIS-Tools package.
data_Pr2Ni2Sn
_symmetry_space_group_name_H-M  'Immm'
_cell_length_a       4.36131
_cell_length_b       5.64578
_cell_length_c       5.64578
_cell_angle_alpha    62.2675
_cell_angle_beta     67.2789
_cell_angle_gamma    67.2789

_symmetry_Int_Tables_number  71
_chemical_formula_structural  Pr2Ni2Sn
_chemical_formula_sum  Pr2Ni2Sn
_cell_volume  109.80758583651216
_cell_formula_units_Z  1
loop_
  _symmetry_equiv_pos_site_id
 _symmetry_equiv_pos_as_xyz
 1  'x, y, z'
loop_
 _atom_site_type_symbol
 _atom_site_label
 _atom_site_symmetry_multiplicity
 _atom_site_fract_x
 _atom_site_fract_y
 _atom_site_fract_z
 _atom_site_fract_occupancy
 Ni  Ni1  1  0.50000  0.29247  0.70753  1
 Ni  Ni2  1  0.50000  0.70753  0.29247  1
 Pr  Pr1  1  0.79588  0.70412  0.70412  1
 Pr  Pr2  1  0.20412  0.29588  0.29588  1
 Sn  Sn1  1  0.00000  0.00000  0.00000  1
