CIF file written using JARVIS-Tools package.
data_Ba2In2O5
_symmetry_space_group_name_H-M  'I4/mmm'
_cell_length_a       6.05153
_cell_length_b       6.05153
_cell_length_c       6.05154
_cell_angle_alpha    120.076
_cell_angle_beta     120.076
_cell_angle_gamma    89.8688

_symmetry_Int_Tables_number  139
_chemical_formula_structural  Ba2In2O5
_chemical_formula_sum  Ba2In2O5
_cell_volume  156.52436523846862
_cell_formula_units_Z  1
loop_
  _symmetry_equiv_pos_site_id
 _symmetry_equiv_pos_as_xyz
 1  'x, y, z'
loop_
 _atom_site_type_symbol
 _atom_site_label
 _atom_site_symmetry_multiplicity
 _atom_site_fract_x
 _atom_site_fract_y
 _atom_site_fract_z
 _atom_site_fract_occupancy
 Ba  Ba1  1  -0.00000  0.50000  0.50000  1
 Ba  Ba2  1  0.50000  0.00000  0.50000  1
 In  In1  1  0.73396  0.73396  0.00000  1
 In  In2  1  0.26604  0.26604  0.00000  1
 O  O1  1  -0.00000  0.00000  0.50000  1
 O  O2  1  0.50000  0.50000  0.00000  1
 O  O3  1  0.50000  0.00000  0.00000  1
 O  O4  1  0.50000  0.50000  0.50000  1
 O  O5  1  -0.00000  0.50000  0.00000  1
