CIF file written using JARVIS-Tools package.
data_Co2NiN2
_symmetry_space_group_name_H-M  'R-3m'
_cell_length_a       2.75384
_cell_length_b       2.75413
_cell_length_c       8.19098
_cell_angle_alpha    90
_cell_angle_beta     109.66
_cell_angle_gamma    120.004

_symmetry_Int_Tables_number  166
_chemical_formula_structural  Co2NiN2
_chemical_formula_sum  Co2NiN2
_cell_volume  49.57309314854329
_cell_formula_units_Z  1
loop_
  _symmetry_equiv_pos_site_id
 _symmetry_equiv_pos_as_xyz
 1  'x, y, z'
loop_
 _atom_site_type_symbol
 _atom_site_label
 _atom_site_symmetry_multiplicity
 _atom_site_fract_x
 _atom_site_fract_y
 _atom_site_fract_z
 _atom_site_fract_occupancy
 Co  Co1  1  0.85822  0.42911  0.14415  1
 Co  Co2  1  0.14178  0.57089  0.85585  1
 N  N1  1  0.32263  0.16131  0.74164  1
 N  N2  1  0.67737  0.83869  0.25836  1
 Ni  Ni1  1  0.00000  -0.00000  0.50000  1
