CIF file written using JARVIS-Tools package.
data_Tm2S3
_symmetry_space_group_name_H-M  'Ia-3'
_cell_length_a       10.8145
_cell_length_b       10.8145
_cell_length_c       10.8145
_cell_angle_alpha    109.471
_cell_angle_beta     109.471
_cell_angle_gamma    109.471

_symmetry_Int_Tables_number  206
_chemical_formula_structural  Tm2S3
_chemical_formula_sum  Tm6S24
_cell_volume  973.6302919206636
_cell_formula_units_Z  8
loop_
  _symmetry_equiv_pos_site_id
 _symmetry_equiv_pos_as_xyz
 1  'x, y, z'
loop_
 _atom_site_type_symbol
 _atom_site_label
 _atom_site_symmetry_multiplicity
 _atom_site_fract_x
 _atom_site_fract_y
 _atom_site_fract_z
 _atom_site_fract_occupancy
 S  S1  1  0.95560  0.51078  0.23290  1
 S  S2  1  0.76710  0.04440  0.48922  1
 S  S3  1  0.73290  0.22212  0.27729  1
 S  S4  1  0.45560  0.22271  0.44483  1
 S  S5  1  0.22271  0.44483  0.45560  1
 S  S6  1  0.01078  0.05517  0.27788  1
 S  S7  1  0.04440  0.48922  0.76710  1
 S  S8  1  0.27729  0.73290  0.22212  1
 S  S9  1  0.77788  0.72271  0.26710  1
 S  S10  1  0.51078  0.23290  0.95560  1
 S  S11  1  0.22212  0.27729  0.73290  1
 S  S12  1  0.44483  0.45560  0.22271  1
 S  S13  1  0.94483  0.72212  0.98922  1
 S  S14  1  0.23290  0.95560  0.51078  1
 S  S15  1  0.26710  0.77788  0.72271  1
 S  S16  1  0.54440  0.77729  0.55517  1
 S  S17  1  0.55517  0.54440  0.77729  1
 S  S18  1  0.27788  0.01078  0.05517  1
 S  S19  1  0.05517  0.27788  0.01078  1
 S  S20  1  0.72212  0.98922  0.94483  1
 S  S21  1  0.98922  0.94483  0.72212  1
 S  S22  1  0.77729  0.55517  0.54440  1
 S  S23  1  0.72271  0.26710  0.77788  1
 S  S24  1  0.48922  0.76710  0.04440  1
 Tm  Tm1  1  0.95165  0.25000  0.20165  1
 Tm  Tm2  1  0.75000  0.29835  0.54835  1
 Tm  Tm3  1  0.20165  0.95165  0.25000  1
 Tm  Tm4  1  0.29835  0.54835  0.75000  1
 Tm  Tm5  1  0.25000  0.20165  0.95165  1
 Tm  Tm6  1  0.04835  0.75000  0.79835  1
 Tm  Tm7  1  0.54835  0.75000  0.29835  1
 Tm  Tm8  1  0.70165  0.45165  0.25000  1
 Tm  Tm9  1  0.75000  0.79835  0.04835  1
 Tm  Tm10  1  0.45165  0.25000  0.70165  1
 Tm  Tm11  1  -0.00000  0.50000  0.00000  1
 Tm  Tm12  1  0.50000  0.00000  -0.00000  1
 Tm  Tm13  1  0.25000  0.70165  0.45165  1
 Tm  Tm14  1  0.00000  0.00000  0.50000  1
 Tm  Tm15  1  0.79835  0.04835  0.75000  1
 Tm  Tm16  1  0.50000  0.50000  0.50000  1
