CIF file written using JARVIS-Tools package.
data_Rb2Sn2O3
_symmetry_space_group_name_H-M  'R-3m'
_cell_length_a       6.1113
_cell_length_b       6.11131
_cell_length_c       6.1113
_cell_angle_alpha    60.5958
_cell_angle_beta     60.5958
_cell_angle_gamma    60.5957

_symmetry_Int_Tables_number  166
_chemical_formula_structural  Rb2Sn2O3
_chemical_formula_sum  Rb2Sn2O3
_cell_volume  163.56567415090862
_cell_formula_units_Z  1
loop_
  _symmetry_equiv_pos_site_id
 _symmetry_equiv_pos_as_xyz
 1  'x, y, z'
loop_
 _atom_site_type_symbol
 _atom_site_label
 _atom_site_symmetry_multiplicity
 _atom_site_fract_x
 _atom_site_fract_y
 _atom_site_fract_z
 _atom_site_fract_occupancy
 O  O1  1  0.00000  0.50000  0.00000  1
 O  O2  1  -0.00000  -0.00000  0.50000  1
 O  O3  1  0.50000  0.00000  0.00000  1
 Rb  Rb1  1  0.50000  0.50000  0.50000  1
 Rb  Rb2  1  0.00000  0.00000  0.00000  1
 Sn  Sn1  1  0.23864  0.23864  0.23864  1
 Sn  Sn2  1  0.76136  0.76136  0.76136  1
