CIF file written using JARVIS-Tools package.
data_DyO2
_symmetry_space_group_name_H-M  'I4/mmm'
_cell_length_a       4.07441
_cell_length_b       4.07494
_cell_length_c       4.71175
_cell_angle_alpha    89.9942
_cell_angle_beta     90
_cell_angle_gamma    90

_symmetry_Int_Tables_number  139
_chemical_formula_structural  DyO2
_chemical_formula_sum  Dy2O4
_cell_volume  78.22914695540372
_cell_formula_units_Z  2
loop_
  _symmetry_equiv_pos_site_id
 _symmetry_equiv_pos_as_xyz
 1  'x, y, z'
loop_
 _atom_site_type_symbol
 _atom_site_label
 _atom_site_symmetry_multiplicity
 _atom_site_fract_x
 _atom_site_fract_y
 _atom_site_fract_z
 _atom_site_fract_occupancy
 Dy  Dy1  1  0.25000  0.25000  0.25000  1
 Dy  Dy2  1  0.75000  0.75000  0.75000  1
 O  O1  1  0.25000  0.74999  0.49995  1
 O  O2  1  0.75000  0.25001  0.50005  1
 O  O3  1  0.25000  0.75001  1.00000  1
 O  O4  1  0.75000  0.24999  -0.00000  1
