CIF file written using JARVIS-Tools package.
data_H4CN5Cl
_symmetry_space_group_name_H-M  'Cc'
_cell_length_a       5.97429
_cell_length_b       5.97429
_cell_length_c       9.59213
_cell_angle_alpha    87.7117
_cell_angle_beta     92.2883
_cell_angle_gamma    48.1819

_symmetry_Int_Tables_number  9
_chemical_formula_structural  H4CN5Cl
_chemical_formula_sum  H8C2N0Cl2
_cell_volume  253.92722894170632
_cell_formula_units_Z  2
loop_
  _symmetry_equiv_pos_site_id
 _symmetry_equiv_pos_as_xyz
 1  'x, y, z'
loop_
 _atom_site_type_symbol
 _atom_site_label
 _atom_site_symmetry_multiplicity
 _atom_site_fract_x
 _atom_site_fract_y
 _atom_site_fract_z
 _atom_site_fract_occupancy
 C  C1  1  0.40312  0.48300  0.44058  1
 C  C2  1  0.51700  0.59688  0.94058  1
 Cl  Cl1  1  0.14489  0.16589  0.24666  1
 Cl  Cl2  1  0.83411  0.85511  0.74666  1
 H  H1  1  0.76348  0.24591  0.32052  1
 H  H2  1  0.75409  0.23652  0.82052  1
 H  H3  1  0.32317  0.96643  0.05423  1
 H  H4  1  0.81983  0.48816  0.80382  1
 H  H5  1  0.06999  0.47797  0.41059  1
 H  H6  1  0.52203  0.93001  0.91059  1
 H  H7  1  0.03357  0.67683  0.55423  1
 H  H8  1  0.51184  0.18017  0.30382  1
 N  N1  1  0.71668  0.42303  0.85066  1
 N  N2  1  0.14007  0.56901  0.46599  1
 N  N3  1  0.43099  0.85993  0.96599  1
 N  N4  1  0.21088  0.04453  0.62396  1
 N  N5  1  0.40349  0.48407  0.00729  1
 N  N6  1  0.33869  0.83250  0.56620  1
 N  N7  1  0.16750  0.66131  0.06620  1
 N  N8  1  0.51593  0.59651  0.50729  1
 N  N9  1  0.95547  0.78912  0.12396  1
 N  N10  1  0.57697  0.28332  0.35066  1
