CIF file written using JARVIS-Tools package.
data_KCu2GeS4
_symmetry_space_group_name_H-M  'I-42m'
_cell_length_a       6.07269
_cell_length_b       6.0727
_cell_length_c       6.0727
_cell_angle_alpha    117.034
_cell_angle_beta     117.035
_cell_angle_gamma    95.218

_symmetry_Int_Tables_number  121
_chemical_formula_structural  KCu2GeS4
_chemical_formula_sum  KCu2GeS4
_cell_volume  164.7128268734964
_cell_formula_units_Z  1
loop_
  _symmetry_equiv_pos_site_id
 _symmetry_equiv_pos_as_xyz
 1  'x, y, z'
loop_
 _atom_site_type_symbol
 _atom_site_label
 _atom_site_symmetry_multiplicity
 _atom_site_fract_x
 _atom_site_fract_y
 _atom_site_fract_z
 _atom_site_fract_occupancy
 Cu  Cu1  1  0.75000  0.25000  0.50000  1
 Cu  Cu2  1  0.25000  0.75000  0.50000  1
 Ge  Ge1  1  0.00000  0.00000  0.00000  1
 K  K1  1  0.50000  0.50000  -0.00000  1
 S  S1  1  0.36389  0.96084  -0.00000  1
 S  S2  1  0.96084  0.36389  0.00000  1
 S  S3  1  0.63611  0.63611  0.59695  1
 S  S4  1  0.03916  0.03916  0.40305  1
