CIF file written using JARVIS-Tools package.
data_UPSe
_symmetry_space_group_name_H-M  'P4/nmm'
_cell_length_a       3.89525
_cell_length_b       3.89525
_cell_length_c       8.34563
_cell_angle_alpha    90
_cell_angle_beta     90
_cell_angle_gamma    90

_symmetry_Int_Tables_number  129
_chemical_formula_structural  UPSe
_chemical_formula_sum  U2P2Se2
_cell_volume  126.62815222277311
_cell_formula_units_Z  2
loop_
  _symmetry_equiv_pos_site_id
 _symmetry_equiv_pos_as_xyz
 1  'x, y, z'
loop_
 _atom_site_type_symbol
 _atom_site_label
 _atom_site_symmetry_multiplicity
 _atom_site_fract_x
 _atom_site_fract_y
 _atom_site_fract_z
 _atom_site_fract_occupancy
 P  P1  1  0.00000  0.00000  0.00000  1
 P  P2  1  0.50000  0.50000  0.00000  1
 Se  Se1  1  0.00000  0.50000  0.63231  1
 Se  Se2  1  0.50000  0.00000  0.36769  1
 U  U1  1  0.50000  0.00000  0.74348  1
 U  U2  1  0.00000  0.50000  0.25652  1
