CIF file written using JARVIS-Tools package.
data_CdGeAsP
_symmetry_space_group_name_H-M  'I2_12_12_1'
_cell_length_a       7.01043
_cell_length_b       7.01043
_cell_length_c       7.01043
_cell_angle_alpha    130.494
_cell_angle_beta     129.692
_cell_angle_gamma    73.26

_symmetry_Int_Tables_number  24
_chemical_formula_structural  CdGeAsP
_chemical_formula_sum  Cd2Ge2As2P2
_cell_volume  196.83110858348635
_cell_formula_units_Z  2
loop_
  _symmetry_equiv_pos_site_id
 _symmetry_equiv_pos_as_xyz
 1  'x, y, z'
loop_
 _atom_site_type_symbol
 _atom_site_label
 _atom_site_symmetry_multiplicity
 _atom_site_fract_x
 _atom_site_fract_y
 _atom_site_fract_z
 _atom_site_fract_occupancy
 As  As1  1  0.25000  0.47854  0.22854  1
 As  As2  1  0.75000  0.02146  0.27146  1
 Cd  Cd1  1  0.86616  0.61616  0.25000  1
 Cd  Cd2  1  0.63384  0.88384  0.75000  1
 Ge  Ge1  1  0.37205  0.12205  0.25000  1
 Ge  Ge2  1  0.12795  0.37795  0.75000  1
 P  P1  1  0.46577  0.25000  0.71577  1
 P  P2  1  0.03423  0.75000  0.78423  1
