CIF file written using JARVIS-Tools package.
data_NaMgSb
_symmetry_space_group_name_H-M  'P4/nmm'
_cell_length_a       4.63297
_cell_length_b       4.63297
_cell_length_c       7.6525
_cell_angle_alpha    90
_cell_angle_beta     90
_cell_angle_gamma    90

_symmetry_Int_Tables_number  129
_chemical_formula_structural  NaMgSb
_chemical_formula_sum  Na2Mg2Sb2
_cell_volume  164.25627941643313
_cell_formula_units_Z  2
loop_
  _symmetry_equiv_pos_site_id
 _symmetry_equiv_pos_as_xyz
 1  'x, y, z'
loop_
 _atom_site_type_symbol
 _atom_site_label
 _atom_site_symmetry_multiplicity
 _atom_site_fract_x
 _atom_site_fract_y
 _atom_site_fract_z
 _atom_site_fract_occupancy
 Mg  Mg1  1  0.00000  0.00000  0.00000  1
 Mg  Mg2  1  0.50000  0.50000  0.00000  1
 Na  Na1  1  0.00000  0.50000  0.35946  1
 Na  Na2  1  0.50000  0.00000  0.64054  1
 Sb  Sb1  1  0.00000  0.50000  0.77185  1
 Sb  Sb2  1  0.50000  0.00000  0.22815  1
