CIF file written using JARVIS-Tools package.
data_K2SbAu
_symmetry_space_group_name_H-M  'Cmcm'
_cell_length_a       6.51645
_cell_length_b       6.51645
_cell_length_c       6.54912
_cell_angle_alpha    90
_cell_angle_beta     90
_cell_angle_gamma    106.003

_symmetry_Int_Tables_number  63
_chemical_formula_structural  K2SbAu
_chemical_formula_sum  K4Sb2Au2
_cell_volume  267.32575862260273
_cell_formula_units_Z  2
loop_
  _symmetry_equiv_pos_site_id
 _symmetry_equiv_pos_as_xyz
 1  'x, y, z'
loop_
 _atom_site_type_symbol
 _atom_site_label
 _atom_site_symmetry_multiplicity
 _atom_site_fract_x
 _atom_site_fract_y
 _atom_site_fract_z
 _atom_site_fract_occupancy
 Au  Au1  1  0.00000  0.00000  0.00000  1
 Au  Au2  1  0.00000  0.00000  0.50000  1
 K  K1  1  0.84059  0.49694  0.75000  1
 K  K2  1  0.50306  0.15941  0.25000  1
 K  K3  1  0.49694  0.84059  0.75000  1
 K  K4  1  0.15941  0.50306  0.25000  1
 Sb  Sb1  1  0.72669  0.72669  0.25000  1
 Sb  Sb2  1  0.27331  0.27331  0.75000  1
