CIF file written using JARVIS-Tools package.
data_Te2AuI
_symmetry_space_group_name_H-M  'Pmma'
_cell_length_a       4.1113
_cell_length_b       4.80242
_cell_length_c       12.8551
_cell_angle_alpha    90
_cell_angle_beta     90
_cell_angle_gamma    90

_symmetry_Int_Tables_number  51
_chemical_formula_structural  Te2AuI
_chemical_formula_sum  Te4Au2I2
_cell_volume  253.8135964338941
_cell_formula_units_Z  2
loop_
  _symmetry_equiv_pos_site_id
 _symmetry_equiv_pos_as_xyz
 1  'x, y, z'
loop_
 _atom_site_type_symbol
 _atom_site_label
 _atom_site_symmetry_multiplicity
 _atom_site_fract_x
 _atom_site_fract_y
 _atom_site_fract_z
 _atom_site_fract_occupancy
 Au  Au1  1  0.00000  0.50000  0.50000  1
 Au  Au2  1  0.00000  0.50000  0.00000  1
 I  I1  1  0.00000  0.26656  0.25000  1
 I  I2  1  0.00000  0.73344  0.75000  1
 Te  Te1  1  0.50000  0.19573  0.58239  1
 Te  Te2  1  0.50000  0.80427  0.41761  1
 Te  Te3  1  0.50000  0.19573  0.91761  1
 Te  Te4  1  0.50000  0.80427  0.08239  1
