CIF file written using JARVIS-Tools package.
data_Ca2ZnGa3
_symmetry_space_group_name_H-M  'Cm'
_cell_length_a       5.75513
_cell_length_b       5.75514
_cell_length_c       7.3239
_cell_angle_alpha    50.665
_cell_angle_beta     50.6649
_cell_angle_gamma    45.8072

_symmetry_Int_Tables_number  8
_chemical_formula_structural  Ca2ZnGa3
_chemical_formula_sum  Ca2ZnGa3
_cell_volume  126.20482375186354
_cell_formula_units_Z  1
loop_
  _symmetry_equiv_pos_site_id
 _symmetry_equiv_pos_as_xyz
 1  'x, y, z'
loop_
 _atom_site_type_symbol
 _atom_site_label
 _atom_site_symmetry_multiplicity
 _atom_site_fract_x
 _atom_site_fract_y
 _atom_site_fract_z
 _atom_site_fract_occupancy
 Ca  Ca1  1  0.45909  0.45909  0.79104  1
 Ca  Ca2  1  0.54256  0.54256  0.20843  1
 Ga  Ga1  1  0.15944  0.15944  0.39421  1
 Ga  Ga2  1  0.16534  0.16534  0.78115  1
 Ga  Ga3  1  0.84027  0.84027  0.21632  1
 Zn  Zn1  1  0.83331  0.83331  0.60885  1
