CIF file written using JARVIS-Tools package.
data_VH4C2O6
_symmetry_space_group_name_H-M  'Pcca'
_cell_length_a       6.88223
_cell_length_b       8.1233
_cell_length_c       8.9344
_cell_angle_alpha    90
_cell_angle_beta     90
_cell_angle_gamma    90

_symmetry_Int_Tables_number  54
_chemical_formula_structural  VH4C2O6
_chemical_formula_sum  V4H6C8O24
_cell_volume  499.4906374943159
_cell_formula_units_Z  4
loop_
  _symmetry_equiv_pos_site_id
 _symmetry_equiv_pos_as_xyz
 1  'x, y, z'
loop_
 _atom_site_type_symbol
 _atom_site_label
 _atom_site_symmetry_multiplicity
 _atom_site_fract_x
 _atom_site_fract_y
 _atom_site_fract_z
 _atom_site_fract_occupancy
 C  C1  1  0.76763  0.74547  0.49685  1
 C  C2  1  0.76763  0.75453  0.99685  1
 C  C3  1  0.23237  0.25453  0.50315  1
 C  C4  1  0.23237  0.24547  0.00315  1
 C  C5  1  0.76763  0.25453  0.00315  1
 C  C6  1  0.23237  0.75453  0.49685  1
 C  C7  1  0.23237  0.74547  0.99685  1
 C  C8  1  0.76763  0.24547  0.50315  1
 H  H1  1  0.83271  0.14738  0.43343  1
 H  H2  1  0.37848  0.41048  0.20919  1
 H  H3  1  0.62152  0.91048  0.29081  1
 H  H4  1  0.16729  0.85262  0.56657  1
 H  H5  1  0.62152  0.41048  0.70919  1
 H  H6  1  0.62152  0.08952  0.20919  1
 H  H7  1  0.37848  0.58952  0.29081  1
 H  H8  1  0.16729  0.64738  0.06657  1
 H  H9  1  0.83271  0.85262  0.06657  1
 H  H10  1  0.37848  0.91048  0.79081  1
 H  H11  1  0.16729  0.14738  0.93343  1
 H  H12  1  0.83271  0.64738  0.56657  1
 H  H13  1  0.16729  0.35262  0.43343  1
 H  H14  1  0.37848  0.08952  0.70919  1
 H  H15  1  0.62152  0.58952  0.79081  1
 H  H16  1  0.83271  0.35262  0.93343  1
 O  O1  1  0.27354  0.71498  0.86004  1
 O  O2  1  0.27354  0.78502  0.36004  1
 O  O3  1  0.73449  0.11403  0.94880  1
 O  O4  1  0.72646  0.28502  0.13996  1
 O  O5  1  0.72646  0.78502  0.86004  1
 O  O6  1  -0.01153  0.50000  0.75000  1
 O  O7  1  0.26551  0.38597  0.94880  1
 O  O8  1  0.73449  0.61403  0.05120  1
 O  O9  1  0.46011  0.50000  0.25000  1
 O  O10  1  0.46011  0.00000  0.75000  1
 O  O11  1  0.73449  0.38597  0.44880  1
 O  O12  1  0.72646  0.21498  0.63996  1
 O  O13  1  0.27354  0.28502  0.63996  1
 O  O14  1  0.53989  0.00000  0.25000  1
 O  O15  1  0.72646  0.71498  0.36004  1
 O  O16  1  0.26551  0.61403  0.55120  1
 O  O17  1  0.73449  0.88597  0.55120  1
 O  O18  1  0.01153  0.00000  0.75000  1
 O  O19  1  0.53989  0.50000  0.75000  1
 O  O20  1  0.01153  0.50000  0.25000  1
 O  O21  1  0.26551  0.88597  0.05120  1
 O  O22  1  0.27354  0.21498  0.13996  1
 O  O23  1  0.26551  0.11403  0.44880  1
 O  O24  1  -0.01153  0.00000  0.25000  1
 V  V1  1  0.22474  0.00000  0.25000  1
 V  V2  1  0.77526  0.00000  0.75000  1
 V  V3  1  0.77526  0.50000  0.25000  1
 V  V4  1  0.22474  0.50000  0.75000  1
