CIF file written using JARVIS-Tools package.
data_K2LiLaCl6
_symmetry_space_group_name_H-M  'Fm-3m'
_cell_length_a       7.41276
_cell_length_b       7.41277
_cell_length_c       7.41277
_cell_angle_alpha    60
_cell_angle_beta     60
_cell_angle_gamma    60

_symmetry_Int_Tables_number  225
_chemical_formula_structural  K2LiLaCl6
_chemical_formula_sum  K2LiLaCl6
_cell_volume  288.02231766183473
_cell_formula_units_Z  1
loop_
  _symmetry_equiv_pos_site_id
 _symmetry_equiv_pos_as_xyz
 1  'x, y, z'
loop_
 _atom_site_type_symbol
 _atom_site_label
 _atom_site_symmetry_multiplicity
 _atom_site_fract_x
 _atom_site_fract_y
 _atom_site_fract_z
 _atom_site_fract_occupancy
 Cl  Cl1  1  0.73837  0.26163  0.26163  1
 Cl  Cl2  1  0.26163  0.26163  0.73837  1
 Cl  Cl3  1  0.26163  0.73837  0.73837  1
 Cl  Cl4  1  0.26163  0.73837  0.26163  1
 Cl  Cl5  1  0.73837  0.26163  0.73837  1
 Cl  Cl6  1  0.73837  0.73837  0.26163  1
 K  K1  1  0.75000  0.75000  0.75000  1
 K  K2  1  0.25000  0.25000  0.25000  1
 La  La1  1  0.00000  0.00000  0.00000  1
 Li  Li1  1  0.50000  0.50000  0.50000  1
