CIF file written using JARVIS-Tools package.
data_Mn3Ga
_symmetry_space_group_name_H-M  'P-6m2'
_cell_length_a       2.59909
_cell_length_b       2.59908
_cell_length_c       8.03014
_cell_angle_alpha    90
_cell_angle_beta     90
_cell_angle_gamma    120

_symmetry_Int_Tables_number  187
_chemical_formula_structural  Mn3Ga
_chemical_formula_sum  Mn3Ga
_cell_volume  46.97801664677084
_cell_formula_units_Z  1
loop_
  _symmetry_equiv_pos_site_id
 _symmetry_equiv_pos_as_xyz
 1  'x, y, z'
loop_
 _atom_site_type_symbol
 _atom_site_label
 _atom_site_symmetry_multiplicity
 _atom_site_fract_x
 _atom_site_fract_y
 _atom_site_fract_z
 _atom_site_fract_occupancy
 Ga  Ga1  1  0.33333  0.66667  0.00000  1
 Mn  Mn1  1  0.33333  0.66667  0.50000  1
 Mn  Mn2  1  0.00000  0.00000  0.26239  1
 Mn  Mn3  1  0.00000  0.00000  0.73761  1
