CIF file written using JARVIS-Tools package.
data_Ti2HC
_symmetry_space_group_name_H-M  'R-3m'
_cell_length_a       5.12583
_cell_length_b       5.12583
_cell_length_c       5.12583
_cell_angle_alpha    35.2224
_cell_angle_beta     35.2223
_cell_angle_gamma    35.2224

_symmetry_Int_Tables_number  166
_chemical_formula_structural  Ti2HC
_chemical_formula_sum  Ti2HC
_cell_volume  40.01578410821754
_cell_formula_units_Z  1
loop_
  _symmetry_equiv_pos_site_id
 _symmetry_equiv_pos_as_xyz
 1  'x, y, z'
loop_
 _atom_site_type_symbol
 _atom_site_label
 _atom_site_symmetry_multiplicity
 _atom_site_fract_x
 _atom_site_fract_y
 _atom_site_fract_z
 _atom_site_fract_occupancy
 C  C1  1  0.50000  0.50000  0.50000  1
 H  H1  1  0.00000  0.00000  0.00000  1
 Ti  Ti1  1  0.24418  0.24418  0.24418  1
 Ti  Ti2  1  0.75582  0.75582  0.75582  1
