CIF file written using JARVIS-Tools package.
data_NdCo2Ge2
_symmetry_space_group_name_H-M  'I4/mmm'
_cell_length_a       4.03141
_cell_length_b       4.03141
_cell_length_c       5.87118
_cell_angle_alpha    110.079
_cell_angle_beta     110.079
_cell_angle_gamma    90.0001

_symmetry_Int_Tables_number  139
_chemical_formula_structural  NdCo2Ge2
_chemical_formula_sum  NdCo2Ge2
_cell_volume  83.4181625534644
_cell_formula_units_Z  1
loop_
  _symmetry_equiv_pos_site_id
 _symmetry_equiv_pos_as_xyz
 1  'x, y, z'
loop_
 _atom_site_type_symbol
 _atom_site_label
 _atom_site_symmetry_multiplicity
 _atom_site_fract_x
 _atom_site_fract_y
 _atom_site_fract_z
 _atom_site_fract_occupancy
 Co  Co1  1  0.75000  0.25000  0.50000  1
 Co  Co2  1  0.25000  0.75000  0.50000  1
 Ge  Ge1  1  0.63267  0.63267  0.26534  1
 Ge  Ge2  1  0.36733  0.36733  0.73466  1
 Nd  Nd1  1  0.00000  0.00000  0.00000  1
