CIF file written using JARVIS-Tools package.
data_TmGaAu
_symmetry_space_group_name_H-M  'C2/m'
_cell_length_a       5.63789
_cell_length_b       5.63789
_cell_length_c       6.99562
_cell_angle_alpha    52.5201
_cell_angle_beta     52.5201
_cell_angle_gamma    46.3976

_symmetry_Int_Tables_number  12
_chemical_formula_structural  TmGaAu
_chemical_formula_sum  Tm2Ga2Au2
_cell_volume  120.68447859388725
_cell_formula_units_Z  2
loop_
  _symmetry_equiv_pos_site_id
 _symmetry_equiv_pos_as_xyz
 1  'x, y, z'
loop_
 _atom_site_type_symbol
 _atom_site_label
 _atom_site_symmetry_multiplicity
 _atom_site_fract_x
 _atom_site_fract_y
 _atom_site_fract_z
 _atom_site_fract_occupancy
 Au  Au1  1  0.82272  0.82272  0.71102  1
 Au  Au2  1  0.17728  0.17728  0.28898  1
 Ga  Ga1  1  0.15673  0.15673  0.89622  1
 Ga  Ga2  1  0.84327  0.84327  0.10378  1
 Tm  Tm1  1  0.46272  0.46272  0.29790  1
 Tm  Tm2  1  0.53728  0.53728  0.70210  1
