CIF file written using JARVIS-Tools package.
data_DyFe2O4
_symmetry_space_group_name_H-M  'R-3m'
_cell_length_a       8.49707
_cell_length_b       8.49707
_cell_length_c       8.49707
_cell_angle_alpha    23.8691
_cell_angle_beta     23.8691
_cell_angle_gamma    23.8691

_symmetry_Int_Tables_number  166
_chemical_formula_structural  DyFe2O4
_chemical_formula_sum  DyFe2O4
_cell_volume  88.25233829977697
_cell_formula_units_Z  1
loop_
  _symmetry_equiv_pos_site_id
 _symmetry_equiv_pos_as_xyz
 1  'x, y, z'
loop_
 _atom_site_type_symbol
 _atom_site_label
 _atom_site_symmetry_multiplicity
 _atom_site_fract_x
 _atom_site_fract_y
 _atom_site_fract_z
 _atom_site_fract_occupancy
 Dy  Dy1  1  0.50000  0.50000  0.50000  1
 Fe  Fe1  1  0.71247  0.71247  0.71247  1
 Fe  Fe2  1  0.28753  0.28753  0.28753  1
 O  O1  1  0.79135  0.79135  0.79135  1
 O  O2  1  0.62672  0.62672  0.62672  1
 O  O3  1  0.20865  0.20865  0.20865  1
 O  O4  1  0.37328  0.37328  0.37328  1
