CIF file written using JARVIS-Tools package.
data_La2NiPt
_symmetry_space_group_name_H-M  'Amm2'
_cell_length_a       5.84509
_cell_length_b       5.84509
_cell_length_c       4.46925
_cell_angle_alpha    90
_cell_angle_beta     90
_cell_angle_gamma    140.477

_symmetry_Int_Tables_number  38
_chemical_formula_structural  La2NiPt
_chemical_formula_sum  La2NiPt
_cell_volume  97.1712686981641
_cell_formula_units_Z  1
loop_
  _symmetry_equiv_pos_site_id
 _symmetry_equiv_pos_as_xyz
 1  'x, y, z'
loop_
 _atom_site_type_symbol
 _atom_site_label
 _atom_site_symmetry_multiplicity
 _atom_site_fract_x
 _atom_site_fract_y
 _atom_site_fract_z
 _atom_site_fract_occupancy
 La  La1  1  0.86267  0.13733  0.50000  1
 La  La2  1  0.13479  0.86521  0.00000  1
 Ni  Ni1  1  0.58710  0.41290  0.50000  1
 Pt  Pt1  1  0.41544  0.58456  0.00000  1
