CIF file written using JARVIS-Tools package.
data_Dy5Sn11
_symmetry_space_group_name_H-M  'Immm'
_cell_length_a       4.37549
_cell_length_b       4.44627
_cell_length_c       21.7361
_cell_angle_alpha    95.8728
_cell_angle_beta     95.7782
_cell_angle_gamma    89.9995

_symmetry_Int_Tables_number  71
_chemical_formula_structural  Dy5Sn11
_chemical_formula_sum  Dy5Sn
_cell_volume  418.48754961586775
_cell_formula_units_Z  1
loop_
  _symmetry_equiv_pos_site_id
 _symmetry_equiv_pos_as_xyz
 1  'x, y, z'
loop_
 _atom_site_type_symbol
 _atom_site_label
 _atom_site_symmetry_multiplicity
 _atom_site_fract_x
 _atom_site_fract_y
 _atom_site_fract_z
 _atom_site_fract_occupancy
 Dy  Dy1  1  0.80731  0.30740  0.61463  1
 Dy  Dy2  1  0.61726  0.61719  0.23454  1
 Dy  Dy3  1  0.00000  0.00000  0.00000  1
 Dy  Dy4  1  0.19269  0.69260  0.38537  1
 Dy  Dy5  1  0.38274  0.38281  0.76546  1
 Sn  Sn1  1  0.43968  0.93971  0.87937  1
 Sn  Sn2  1  0.13168  0.13165  0.26342  1
 Sn  Sn3  1  0.24937  0.24934  0.49874  1
 Sn  Sn4  1  0.56032  0.06029  0.12063  1
 Sn  Sn5  1  0.32030  0.82039  0.64058  1
 Sn  Sn6  1  0.75063  0.75066  0.50126  1
 Sn  Sn7  1  0.05991  0.55986  0.11985  1
 Sn  Sn8  1  0.94009  0.44014  0.88015  1
 Sn  Sn9  1  0.86832  0.86835  0.73658  1
 Sn  Sn10  1  0.50000  0.50000  0.00000  1
 Sn  Sn11  1  0.67970  0.17961  0.35942  1
