CIF file written using JARVIS-Tools package.
data_NaSm2Se3
_symmetry_space_group_name_H-M  'Immm'
_cell_length_a       7.2577
_cell_length_b       7.2577
_cell_length_c       7.2577
_cell_angle_alpha    146.775
_cell_angle_beta     132.212
_cell_angle_gamma    59.4422

_symmetry_Int_Tables_number  71
_chemical_formula_structural  NaSm2Se3
_chemical_formula_sum  NaSm2Se3
_cell_volume  153.7840486794248
_cell_formula_units_Z  1
loop_
  _symmetry_equiv_pos_site_id
 _symmetry_equiv_pos_as_xyz
 1  'x, y, z'
loop_
 _atom_site_type_symbol
 _atom_site_label
 _atom_site_symmetry_multiplicity
 _atom_site_fract_x
 _atom_site_fract_y
 _atom_site_fract_z
 _atom_site_fract_occupancy
 Na  Na1  1  0.00000  0.00000  0.00000  1
 Se  Se1  1  0.50000  0.00000  0.50000  1
 Se  Se2  1  0.16823  0.66823  0.50000  1
 Se  Se3  1  0.83177  0.33177  0.50000  1
 Sm  Sm1  1  0.66410  0.66410  -0.00000  1
 Sm  Sm2  1  0.33590  0.33590  0.00000  1
