CIF file written using JARVIS-Tools package.
data_VCu3Te2Se2
_symmetry_space_group_name_H-M  'Cmm2'
_cell_length_a       5.76395
_cell_length_b       5.76395
_cell_length_c       5.73767
_cell_angle_alpha    90
_cell_angle_beta     90
_cell_angle_gamma    91.6571

_symmetry_Int_Tables_number  35
_chemical_formula_structural  VCu3Te2Se2
_chemical_formula_sum  VCu3Te2Se2
_cell_volume  190.54338408010486
_cell_formula_units_Z  1
loop_
  _symmetry_equiv_pos_site_id
 _symmetry_equiv_pos_as_xyz
 1  'x, y, z'
loop_
 _atom_site_type_symbol
 _atom_site_label
 _atom_site_symmetry_multiplicity
 _atom_site_fract_x
 _atom_site_fract_y
 _atom_site_fract_z
 _atom_site_fract_occupancy
 Cu  Cu1  1  0.50000  0.00000  0.01122  1
 Cu  Cu2  1  -0.00000  0.50000  0.01122  1
 Cu  Cu3  1  0.00000  0.00000  0.49585  1
 Se  Se1  1  0.23462  0.76538  0.24361  1
 Se  Se2  1  0.76538  0.23462  0.24361  1
 Te  Te1  1  0.73597  0.73597  0.74488  1
 Te  Te2  1  0.26403  0.26403  0.74488  1
 V  V1  1  0.00000  0.00000  0.00472  1
