CIF file written using JARVIS-Tools package.
data_Nd2Ni2Sn
_symmetry_space_group_name_H-M  'Immm'
_cell_length_a       5.59503
_cell_length_b       5.59503
_cell_length_c       5.59503
_cell_angle_alpha    134.396
_cell_angle_beta     117.52
_cell_angle_gamma    80.6954

_symmetry_Int_Tables_number  71
_chemical_formula_structural  Nd2Ni2Sn
_chemical_formula_sum  Nd2Ni2Sn
_cell_volume  107.31676989518799
_cell_formula_units_Z  1
loop_
  _symmetry_equiv_pos_site_id
 _symmetry_equiv_pos_as_xyz
 1  'x, y, z'
loop_
 _atom_site_type_symbol
 _atom_site_label
 _atom_site_symmetry_multiplicity
 _atom_site_fract_x
 _atom_site_fract_y
 _atom_site_fract_z
 _atom_site_fract_occupancy
 Nd  Nd1  1  0.29593  0.79593  0.50000  1
 Nd  Nd2  1  0.70407  0.20407  0.50000  1
 Ni  Ni1  1  0.70784  0.50000  0.20784  1
 Ni  Ni2  1  0.29216  0.50000  0.79216  1
 Sn  Sn1  1  0.00000  0.00000  0.00000  1
