CIF file written using JARVIS-Tools package.
data_ZrO2
_symmetry_space_group_name_H-M  'I4_1/amd'
_cell_length_a       4.03751
_cell_length_b       6.07735
_cell_length_c       4.03754
_cell_angle_alpha    70.6056
_cell_angle_beta     90
_cell_angle_gamma    109.401

_symmetry_Int_Tables_number  141
_chemical_formula_structural  ZrO2
_chemical_formula_sum  Zr2O4
_cell_volume  87.46267312371191
_cell_formula_units_Z  2
loop_
  _symmetry_equiv_pos_site_id
 _symmetry_equiv_pos_as_xyz
 1  'x, y, z'
loop_
 _atom_site_type_symbol
 _atom_site_label
 _atom_site_symmetry_multiplicity
 _atom_site_fract_x
 _atom_site_fract_y
 _atom_site_fract_z
 _atom_site_fract_occupancy
 O  O1  1  0.79817  0.59635  0.20180  1
 O  O2  1  0.20183  0.40365  0.79804  1
 O  O3  1  0.95183  0.90365  0.54820  1
 O  O4  1  0.54817  0.09635  0.95196  1
 Zr  Zr1  1  -0.00000  -0.00000  0.00004  1
 Zr  Zr2  1  0.75000  0.50000  0.74996  1
