CIF file written using JARVIS-Tools package.
data_LaSi3Os
_symmetry_space_group_name_H-M  'I4mm'
_cell_length_a       4.32483
_cell_length_b       4.32483
_cell_length_c       5.88085
_cell_angle_alpha    111.574
_cell_angle_beta     111.574
_cell_angle_gamma    90

_symmetry_Int_Tables_number  107
_chemical_formula_structural  LaSi3Os
_chemical_formula_sum  LaSi3Os
_cell_volume  93.95426753374605
_cell_formula_units_Z  1
loop_
  _symmetry_equiv_pos_site_id
 _symmetry_equiv_pos_as_xyz
 1  'x, y, z'
loop_
 _atom_site_type_symbol
 _atom_site_label
 _atom_site_symmetry_multiplicity
 _atom_site_fract_x
 _atom_site_fract_y
 _atom_site_fract_z
 _atom_site_fract_occupancy
 La  La1  1  0.99840  0.99840  0.99680  1
 Os  Os1  1  0.65547  0.65547  0.31095  1
 Si  Si1  1  0.41957  0.41957  0.83914  1
 Si  Si2  1  0.76028  0.26028  0.52056  1
 Si  Si3  1  0.26028  0.76028  0.52056  1
