CIF file written using JARVIS-Tools package.
data_NbRh2
_symmetry_space_group_name_H-M  'P2/m'
_cell_length_a       2.8061
_cell_length_b       4.83499
_cell_length_c       6.92738
_cell_angle_alpha    77.9623
_cell_angle_beta     90
_cell_angle_gamma    90

_symmetry_Int_Tables_number  10
_chemical_formula_structural  NbRh2
_chemical_formula_sum  Nb2Rh4
_cell_volume  91.92024917644463
_cell_formula_units_Z  2
loop_
  _symmetry_equiv_pos_site_id
 _symmetry_equiv_pos_as_xyz
 1  'x, y, z'
loop_
 _atom_site_type_symbol
 _atom_site_label
 _atom_site_symmetry_multiplicity
 _atom_site_fract_x
 _atom_site_fract_y
 _atom_site_fract_z
 _atom_site_fract_occupancy
 Nb  Nb1  1  0.00000  0.23420  0.32690  1
 Nb  Nb2  1  0.00000  0.76580  0.67310  1
 Rh  Rh1  1  0.50000  0.73136  0.33399  1
 Rh  Rh2  1  0.50000  0.26864  0.66601  1
 Rh  Rh3  1  0.50000  0.50000  -0.00000  1
 Rh  Rh4  1  0.00000  0.00000  0.00000  1
