CIF file written using JARVIS-Tools package.
data_MnFe4
_symmetry_space_group_name_H-M  'Fmmm'
_cell_length_a       10.1943
_cell_length_b       10.0974
_cell_length_c       2.42982
_cell_angle_alpha    85.3981
_cell_angle_beta     80.8583
_cell_angle_gamma    13.7438

_symmetry_Int_Tables_number  69
_chemical_formula_structural  MnFe4
_chemical_formula_sum  MnFe4
_cell_volume  55.66390982263356
_cell_formula_units_Z  1
loop_
  _symmetry_equiv_pos_site_id
 _symmetry_equiv_pos_as_xyz
 1  'x, y, z'
loop_
 _atom_site_type_symbol
 _atom_site_label
 _atom_site_symmetry_multiplicity
 _atom_site_fract_x
 _atom_site_fract_y
 _atom_site_fract_z
 _atom_site_fract_occupancy
 Fe  Fe1  1  0.40078  0.40078  0.59922  1
 Fe  Fe2  1  0.80041  0.80041  0.19959  1
 Fe  Fe3  1  0.19959  0.19959  0.80041  1
 Fe  Fe4  1  0.59922  0.59922  0.40078  1
 Mn  Mn1  1  0.00000  0.00000  0.00000  1
