CIF file written using JARVIS-Tools package.
data_LiSbTe3O12
_symmetry_space_group_name_H-M  'P2'
_cell_length_a       4.816
_cell_length_b       8.53804
_cell_length_c       5.23304
_cell_angle_alpha    90
_cell_angle_beta     90.2369
_cell_angle_gamma    90

_symmetry_Int_Tables_number  3
_chemical_formula_structural  LiSbTe3O12
_chemical_formula_sum  LiSbTe3O2
_cell_volume  215.17620825326904
_cell_formula_units_Z  1
loop_
  _symmetry_equiv_pos_site_id
 _symmetry_equiv_pos_as_xyz
 1  'x, y, z'
loop_
 _atom_site_type_symbol
 _atom_site_label
 _atom_site_symmetry_multiplicity
 _atom_site_fract_x
 _atom_site_fract_y
 _atom_site_fract_z
 _atom_site_fract_occupancy
 Li  Li1  1  0.50000  0.79348  0.50000  1
 O  O1  1  0.28450  0.41867  0.18324  1
 O  O2  1  0.26118  0.74191  0.14878  1
 O  O3  1  0.21673  0.07017  0.19343  1
 O  O4  1  0.73882  0.74191  0.85122  1
 O  O5  1  0.75377  0.24829  0.35459  1
 O  O6  1  0.71086  0.57289  0.32206  1
 O  O7  1  0.77778  0.92214  0.32322  1
 O  O8  1  0.28914  0.57289  0.67794  1
 O  O9  1  0.24623  0.24829  0.64541  1
 O  O10  1  0.78327  0.07017  0.80657  1
 O  O11  1  0.22222  0.92214  0.67678  1
 O  O12  1  0.71550  0.41867  0.81676  1
 Sb  Sb1  1  0.00000  0.90258  0.00000  1
 Te  Te1  1  0.00000  0.08676  0.50000  1
 Te  Te2  1  0.50000  0.39796  0.50000  1
 Te  Te3  1  0.50000  0.58378  -0.00000  1
