CIF file written using JARVIS-Tools package.
data_CeY4Rh5
_symmetry_space_group_name_H-M  'P4/mmm'
_cell_length_a       3.42985
_cell_length_b       3.42985
_cell_length_c       17.2834
_cell_angle_alpha    90
_cell_angle_beta     90
_cell_angle_gamma    90

_symmetry_Int_Tables_number  123
_chemical_formula_structural  CeY4Rh5
_chemical_formula_sum  CeY4Rh5
_cell_volume  203.3201262178564
_cell_formula_units_Z  1
loop_
  _symmetry_equiv_pos_site_id
 _symmetry_equiv_pos_as_xyz
 1  'x, y, z'
loop_
 _atom_site_type_symbol
 _atom_site_label
 _atom_site_symmetry_multiplicity
 _atom_site_fract_x
 _atom_site_fract_y
 _atom_site_fract_z
 _atom_site_fract_occupancy
 Ce  Ce1  1  0.00000  0.00000  0.00000  1
 Rh  Rh1  1  0.50000  0.50000  0.09782  1
 Rh  Rh2  1  0.50000  0.50000  0.30034  1
 Rh  Rh3  1  0.50000  0.50000  0.50000  1
 Rh  Rh4  1  0.50000  0.50000  0.69966  1
 Rh  Rh5  1  0.50000  0.50000  0.90218  1
 Y  Y1  1  0.00000  0.00000  0.20219  1
 Y  Y2  1  0.00000  0.00000  0.40071  1
 Y  Y3  1  0.00000  0.00000  0.59929  1
 Y  Y4  1  0.00000  0.00000  0.79781  1
