CIF file written using JARVIS-Tools package.
data_YbGa4
_symmetry_space_group_name_H-M  'C2/m'
_cell_length_a       4.32615
_cell_length_b       4.32615
_cell_length_c       6.05292
_cell_angle_alpha    69.7209
_cell_angle_beta     69.7209
_cell_angle_gamma    89.3061

_symmetry_Int_Tables_number  12
_chemical_formula_structural  YbGa4
_chemical_formula_sum  YbGa4
_cell_volume  98.92147450418724
_cell_formula_units_Z  1
loop_
  _symmetry_equiv_pos_site_id
 _symmetry_equiv_pos_as_xyz
 1  'x, y, z'
loop_
 _atom_site_type_symbol
 _atom_site_label
 _atom_site_symmetry_multiplicity
 _atom_site_fract_x
 _atom_site_fract_y
 _atom_site_fract_z
 _atom_site_fract_occupancy
 Ga  Ga1  1  0.58435  0.58435  0.77056  1
 Ga  Ga2  1  0.41565  0.41565  0.22944  1
 Ga  Ga3  1  0.22525  0.77475  0.50000  1
 Ga  Ga4  1  0.77475  0.22525  0.50000  1
 Yb  Yb1  1  0.00000  0.00000  0.00000  1
