CIF file written using JARVIS-Tools package.
data_LiCoC2O6
_symmetry_space_group_name_H-M  'C2/m'
_cell_length_a       4.63855
_cell_length_b       4.63855
_cell_length_c       5.89138
_cell_angle_alpha    69.6487
_cell_angle_beta     69.6487
_cell_angle_gamma    65.297

_symmetry_Int_Tables_number  12
_chemical_formula_structural  LiCoC2O6
_chemical_formula_sum  LiCoC2O6
_cell_volume  104.87773781836607
_cell_formula_units_Z  1
loop_
  _symmetry_equiv_pos_site_id
 _symmetry_equiv_pos_as_xyz
 1  'x, y, z'
loop_
 _atom_site_type_symbol
 _atom_site_label
 _atom_site_symmetry_multiplicity
 _atom_site_fract_x
 _atom_site_fract_y
 _atom_site_fract_z
 _atom_site_fract_occupancy
 C  C1  1  0.55728  0.55728  0.21247  1
 C  C2  1  0.44272  0.44272  0.78753  1
 Co  Co1  1  0.00000  0.00000  0.00000  1
 Li  Li1  1  0.00000  0.00000  0.50000  1
 O  O1  1  0.24032  0.68743  0.27157  1
 O  O2  1  0.31257  0.75968  0.72843  1
 O  O3  1  0.73472  0.73472  0.09671  1
 O  O4  1  0.26528  0.26528  0.90329  1
 O  O5  1  0.68743  0.24032  0.27157  1
 O  O6  1  0.75968  0.31257  0.72843  1
