CIF file written using JARVIS-Tools package.
data_Zn3P2
_symmetry_space_group_name_H-M  'P4_2/nmc'
_cell_length_a       8.14309
_cell_length_b       8.14309
_cell_length_c       11.5067
_cell_angle_alpha    90
_cell_angle_beta     90
_cell_angle_gamma    90

_symmetry_Int_Tables_number  137
_chemical_formula_structural  Zn3P2
_chemical_formula_sum  Zn24P6
_cell_volume  763.0046501420035
_cell_formula_units_Z  8
loop_
  _symmetry_equiv_pos_site_id
 _symmetry_equiv_pos_as_xyz
 1  'x, y, z'
loop_
 _atom_site_type_symbol
 _atom_site_label
 _atom_site_symmetry_multiplicity
 _atom_site_fract_x
 _atom_site_fract_y
 _atom_site_fract_z
 _atom_site_fract_occupancy
 P  P1  1  0.25500  0.25500  0.00000  1
 P  P2  1  0.75500  0.24500  0.50000  1
 P  P3  1  0.75500  0.75500  0.50000  1
 P  P4  1  0.74500  0.74500  0.00000  1
 P  P5  1  0.24500  0.24500  0.50000  1
 P  P6  1  0.25500  0.74500  0.00000  1
 P  P7  1  0.00000  0.50000  0.25271  1
 P  P8  1  0.74500  0.25500  0.00000  1
 P  P9  1  0.50000  0.00000  0.24729  1
 P  P10  1  0.50000  0.00000  0.74729  1
 P  P11  1  0.50000  0.50000  0.25629  1
 P  P12  1  0.00000  0.00000  0.24371  1
 P  P13  1  0.50000  0.50000  0.74371  1
 P  P14  1  0.24500  0.75500  0.50000  1
 P  P15  1  0.00000  0.00000  0.75629  1
 P  P16  1  0.00000  0.50000  0.75271  1
 Zn  Zn1  1  0.28626  0.50000  0.39654  1
 Zn  Zn2  1  0.50000  0.28626  0.60346  1
 Zn  Zn3  1  0.71291  0.00000  0.38731  1
 Zn  Zn4  1  0.50000  0.78709  0.88731  1
 Zn  Zn5  1  0.50000  0.71374  0.60346  1
 Zn  Zn6  1  0.00000  0.21374  0.89654  1
 Zn  Zn7  1  0.25366  0.50000  0.84768  1
 Zn  Zn8  1  0.74634  0.50000  0.84768  1
 Zn  Zn9  1  0.50000  0.25366  0.15232  1
 Zn  Zn10  1  0.00000  0.24634  0.34768  1
 Zn  Zn11  1  0.24634  0.00000  0.65232  1
 Zn  Zn12  1  0.75366  0.00000  0.65232  1
 Zn  Zn13  1  0.50000  0.74634  0.15232  1
 Zn  Zn14  1  0.00000  0.78626  0.89654  1
 Zn  Zn15  1  0.21291  0.50000  0.11269  1
 Zn  Zn16  1  0.50000  0.21291  0.88731  1
 Zn  Zn17  1  0.00000  0.28709  0.61269  1
 Zn  Zn18  1  0.00000  0.75366  0.34768  1
 Zn  Zn19  1  0.28709  0.00000  0.38731  1
 Zn  Zn20  1  0.00000  0.71291  0.61269  1
 Zn  Zn21  1  0.78626  0.00000  0.10346  1
 Zn  Zn22  1  0.21374  0.00000  0.10346  1
 Zn  Zn23  1  0.78709  0.50000  0.11269  1
 Zn  Zn24  1  0.71374  0.50000  0.39654  1
