CIF file written using JARVIS-Tools package.
data_CaFeF6
_symmetry_space_group_name_H-M  'R-3'
_cell_length_a       5.57421
_cell_length_b       5.57421
_cell_length_c       5.57421
_cell_angle_alpha    54.1907
_cell_angle_beta     54.1908
_cell_angle_gamma    54.1907

_symmetry_Int_Tables_number  148
_chemical_formula_structural  CaFeF6
_chemical_formula_sum  CaFeF6
_cell_volume  105.86509790876366
_cell_formula_units_Z  1
loop_
  _symmetry_equiv_pos_site_id
 _symmetry_equiv_pos_as_xyz
 1  'x, y, z'
loop_
 _atom_site_type_symbol
 _atom_site_label
 _atom_site_symmetry_multiplicity
 _atom_site_fract_x
 _atom_site_fract_y
 _atom_site_fract_z
 _atom_site_fract_occupancy
 Ca  Ca1  1  0.50000  0.50000  0.50000  1
 F  F1  1  0.37242  0.05801  0.79196  1
 F  F2  1  0.05801  0.79196  0.37242  1
 F  F3  1  0.20804  0.62758  0.94199  1
 F  F4  1  0.94199  0.20804  0.62758  1
 F  F5  1  0.62758  0.94199  0.20804  1
 F  F6  1  0.79196  0.37242  0.05801  1
 Fe  Fe1  1  0.00000  0.00000  0.00000  1
