CIF file written using JARVIS-Tools package.
data_Li2VFeO4
_symmetry_space_group_name_H-M  'P2/m'
_cell_length_a       2.88258
_cell_length_b       5.12025
_cell_length_c       4.76808
_cell_angle_alpha    71.5864
_cell_angle_beta     90
_cell_angle_gamma    90

_symmetry_Int_Tables_number  10
_chemical_formula_structural  Li2VFeO4
_chemical_formula_sum  Li2VFeO4
_cell_volume  66.77165687571612
_cell_formula_units_Z  1
loop_
  _symmetry_equiv_pos_site_id
 _symmetry_equiv_pos_as_xyz
 1  'x, y, z'
loop_
 _atom_site_type_symbol
 _atom_site_label
 _atom_site_symmetry_multiplicity
 _atom_site_fract_x
 _atom_site_fract_y
 _atom_site_fract_z
 _atom_site_fract_occupancy
 Fe  Fe1  1  0.00000  0.50000  0.50000  1
 Li  Li1  1  0.00000  0.00000  0.00000  1
 Li  Li2  1  0.50000  0.00000  0.50000  1
 O  O1  1  0.00000  0.26296  0.24294  1
 O  O2  1  0.50000  0.27068  0.73591  1
 O  O3  1  0.00000  0.73704  0.75706  1
 O  O4  1  0.50000  0.72932  0.26409  1
 V  V1  1  0.50000  0.50000  0.00000  1
