CIF file written using JARVIS-Tools package.
data_NbNi6Mo
_symmetry_space_group_name_H-M  'Pmm2'
_cell_length_a       4.24716
_cell_length_b       4.50144
_cell_length_c       5.07065
_cell_angle_alpha    90
_cell_angle_beta     90
_cell_angle_gamma    90

_symmetry_Int_Tables_number  25
_chemical_formula_structural  NbNi6Mo
_chemical_formula_sum  NbNi6Mo
_cell_volume  96.94241357488195
_cell_formula_units_Z  1
loop_
  _symmetry_equiv_pos_site_id
 _symmetry_equiv_pos_as_xyz
 1  'x, y, z'
loop_
 _atom_site_type_symbol
 _atom_site_label
 _atom_site_symmetry_multiplicity
 _atom_site_fract_x
 _atom_site_fract_y
 _atom_site_fract_z
 _atom_site_fract_occupancy
 Mo  Mo1  1  0.50000  0.65194  0.50000  1
 Nb  Nb1  1  0.00000  0.34459  0.00000  1
 Ni  Ni1  1  0.00000  0.33310  0.50000  1
 Ni  Ni2  1  0.50000  0.67911  0.00000  1
 Ni  Ni3  1  0.50000  0.15768  0.74520  1
 Ni  Ni4  1  0.50000  0.15768  0.25480  1
 Ni  Ni5  1  0.00000  0.83794  0.74395  1
 Ni  Ni6  1  0.00000  0.83794  0.25605  1
