CIF file written using JARVIS-Tools package.
data_TbSrO3
_symmetry_space_group_name_H-M  'Pnma'
_cell_length_a       6.03197
_cell_length_b       6.21231
_cell_length_c       8.5295
_cell_angle_alpha    90
_cell_angle_beta     90
_cell_angle_gamma    90

_symmetry_Int_Tables_number  62
_chemical_formula_structural  TbSrO3
_chemical_formula_sum  Tb4Sr4O2
_cell_volume  319.6213970095282
_cell_formula_units_Z  4
loop_
  _symmetry_equiv_pos_site_id
 _symmetry_equiv_pos_as_xyz
 1  'x, y, z'
loop_
 _atom_site_type_symbol
 _atom_site_label
 _atom_site_symmetry_multiplicity
 _atom_site_fract_x
 _atom_site_fract_y
 _atom_site_fract_z
 _atom_site_fract_occupancy
 O  O1  1  0.38318  0.94812  0.25000  1
 O  O2  1  0.70451  0.29268  0.43737  1
 O  O3  1  0.29549  0.70732  0.93737  1
 O  O4  1  0.79549  0.79268  0.06263  1
 O  O5  1  0.79549  0.79268  0.43737  1
 O  O6  1  0.29549  0.70732  0.56263  1
 O  O7  1  0.70451  0.29268  0.06263  1
 O  O8  1  0.20451  0.20732  0.93737  1
 O  O9  1  0.20451  0.20732  0.56263  1
 O  O10  1  0.61682  0.05188  0.75000  1
 O  O11  1  0.88318  0.55188  0.75000  1
 O  O12  1  0.11682  0.44812  0.25000  1
 Sr  Sr1  1  0.98240  0.05147  0.25000  1
 Sr  Sr2  1  0.48240  0.44853  0.75000  1
 Sr  Sr3  1  0.51760  0.55147  0.25000  1
 Sr  Sr4  1  0.01760  0.94853  0.75000  1
 Tb  Tb1  1  0.00000  0.50000  0.50000  1
 Tb  Tb2  1  0.50000  0.00000  0.00000  1
 Tb  Tb3  1  0.00000  0.50000  0.00000  1
 Tb  Tb4  1  0.50000  0.00000  0.50000  1
