CIF file written using JARVIS-Tools package.
data_Mn3Ni4Sb
_symmetry_space_group_name_H-M  'R-3m'
_cell_length_a       7.32341
_cell_length_b       7.32341
_cell_length_c       7.3234
_cell_angle_alpha    33.0538
_cell_angle_beta     33.0539
_cell_angle_gamma    33.0538

_symmetry_Int_Tables_number  166
_chemical_formula_structural  Mn3Ni4Sb
_chemical_formula_sum  Mn3Ni4Sb
_cell_volume  103.99166431939264
_cell_formula_units_Z  1
loop_
  _symmetry_equiv_pos_site_id
 _symmetry_equiv_pos_as_xyz
 1  'x, y, z'
loop_
 _atom_site_type_symbol
 _atom_site_label
 _atom_site_symmetry_multiplicity
 _atom_site_fract_x
 _atom_site_fract_y
 _atom_site_fract_z
 _atom_site_fract_occupancy
 Mn  Mn1  1  0.24308  0.24308  0.24308  1
 Mn  Mn2  1  0.75692  0.75692  0.75692  1
 Mn  Mn3  1  0.50000  0.50000  0.50000  1
 Ni  Ni1  1  0.87505  0.87505  0.87505  1
 Ni  Ni2  1  0.37871  0.37871  0.37871  1
 Ni  Ni3  1  0.12495  0.12495  0.12495  1
 Ni  Ni4  1  0.62129  0.62129  0.62129  1
 Sb  Sb1  1  0.00000  0.00000  0.00000  1
