CIF file written using JARVIS-Tools package.
data_TiAl6Mo
_symmetry_space_group_name_H-M  'P4/mmm'
_cell_length_a       3.81062
_cell_length_b       3.81062
_cell_length_c       8.48999
_cell_angle_alpha    90
_cell_angle_beta     90
_cell_angle_gamma    90

_symmetry_Int_Tables_number  123
_chemical_formula_structural  TiAl6Mo
_chemical_formula_sum  TiAl6Mo
_cell_volume  123.28182158602138
_cell_formula_units_Z  1
loop_
  _symmetry_equiv_pos_site_id
 _symmetry_equiv_pos_as_xyz
 1  'x, y, z'
loop_
 _atom_site_type_symbol
 _atom_site_label
 _atom_site_symmetry_multiplicity
 _atom_site_fract_x
 _atom_site_fract_y
 _atom_site_fract_z
 _atom_site_fract_occupancy
 Al  Al1  1  0.50000  0.50000  0.00000  1
 Al  Al2  1  0.00000  0.00000  0.50000  1
 Al  Al3  1  0.00000  0.50000  0.25171  1
 Al  Al4  1  0.50000  0.00000  0.74829  1
 Al  Al5  1  0.50000  0.00000  0.25171  1
 Al  Al6  1  0.00000  0.50000  0.74829  1
 Mo  Mo1  1  0.00000  0.00000  0.00000  1
 Ti  Ti1  1  0.50000  0.50000  0.50000  1
