CIF file written using JARVIS-Tools package.
data_NaPr2Cl6
_symmetry_space_group_name_H-M  'P-3'
_cell_length_a       7.92698
_cell_length_b       7.92698
_cell_length_c       3.93163
_cell_angle_alpha    90
_cell_angle_beta     90
_cell_angle_gamma    120

_symmetry_Int_Tables_number  147
_chemical_formula_structural  NaPr2Cl6
_chemical_formula_sum  NaPr2Cl6
_cell_volume  213.95331308151898
_cell_formula_units_Z  1
loop_
  _symmetry_equiv_pos_site_id
 _symmetry_equiv_pos_as_xyz
 1  'x, y, z'
loop_
 _atom_site_type_symbol
 _atom_site_label
 _atom_site_symmetry_multiplicity
 _atom_site_fract_x
 _atom_site_fract_y
 _atom_site_fract_z
 _atom_site_fract_occupancy
 Cl  Cl1  1  0.07617  0.69876  0.75084  1
 Cl  Cl2  1  0.30124  0.37741  0.75084  1
 Cl  Cl3  1  0.62259  0.92383  0.75084  1
 Cl  Cl4  1  0.92383  0.30124  0.24916  1
 Cl  Cl5  1  0.69876  0.62259  0.24916  1
 Cl  Cl6  1  0.37741  0.07617  0.24916  1
 Na  Na1  1  0.00000  0.00000  0.50000  1
 Pr  Pr1  1  0.66667  0.33333  0.74868  1
 Pr  Pr2  1  0.33333  0.66667  0.25132  1
