CIF file written using JARVIS-Tools package.
data_VNiO3
_symmetry_space_group_name_H-M  'R-3'
_cell_length_a       4.91934
_cell_length_b       5.42625
_cell_length_c       4.91932
_cell_angle_alpha    116.964
_cell_angle_beta     119.997
_cell_angle_gamma    63.0416

_symmetry_Int_Tables_number  148
_chemical_formula_structural  VNiO3
_chemical_formula_sum  V2Ni2O6
_cell_volume  96.8938203510443
_cell_formula_units_Z  2
loop_
  _symmetry_equiv_pos_site_id
 _symmetry_equiv_pos_as_xyz
 1  'x, y, z'
loop_
 _atom_site_type_symbol
 _atom_site_label
 _atom_site_symmetry_multiplicity
 _atom_site_fract_x
 _atom_site_fract_y
 _atom_site_fract_z
 _atom_site_fract_occupancy
 Ni  Ni1  1  0.85003  0.44988  0.14996  1
 Ni  Ni2  1  0.14997  0.55012  0.85003  1
 O  O1  1  0.26766  0.23783  0.06735  1
 O  O2  1  0.73234  0.76217  0.93265  1
 O  O3  1  0.43816  0.76221  0.26770  1
 O  O4  1  0.56184  0.23779  0.73230  1
 O  O5  1  0.93269  0.23779  0.43813  1
 O  O6  1  0.06732  0.76222  0.56187  1
 V  V1  1  0.64601  0.06197  0.35394  1
 V  V2  1  0.35399  0.93802  0.64606  1
