CIF file written using JARVIS-Tools package.
data_CeMnCrSi2
_symmetry_space_group_name_H-M  'I-4m2'
_cell_length_a       4.00241
_cell_length_b       4.00242
_cell_length_c       5.88218
_cell_angle_alpha    70.11
_cell_angle_beta     70.11
_cell_angle_gamma    90

_symmetry_Int_Tables_number  119
_chemical_formula_structural  CeMnCrSi2
_chemical_formula_sum  CeMnCrSi2
_cell_volume  82.6048550051619
_cell_formula_units_Z  1
loop_
  _symmetry_equiv_pos_site_id
 _symmetry_equiv_pos_as_xyz
 1  'x, y, z'
loop_
 _atom_site_type_symbol
 _atom_site_label
 _atom_site_symmetry_multiplicity
 _atom_site_fract_x
 _atom_site_fract_y
 _atom_site_fract_z
 _atom_site_fract_occupancy
 Ce  Ce1  1  0.00000  0.00000  0.00000  1
 Cr  Cr1  1  0.75000  0.25000  0.50000  1
 Mn  Mn1  1  0.25000  0.75000  0.50000  1
 Si  Si1  1  0.37753  0.37753  0.24493  1
 Si  Si2  1  0.62247  0.62247  0.75507  1
