CIF file written using JARVIS-Tools package.
data_NdGe5
_symmetry_space_group_name_H-M  'Immm'
_cell_length_a       4.03791
_cell_length_b       6.25607
_cell_length_c       6.25607
_cell_angle_alpha    60.2104
_cell_angle_beta     71.1726
_cell_angle_gamma    71.1726

_symmetry_Int_Tables_number  71
_chemical_formula_structural  NdGe5
_chemical_formula_sum  NdGe5
_cell_volume  127.2532617544085
_cell_formula_units_Z  1
loop_
  _symmetry_equiv_pos_site_id
 _symmetry_equiv_pos_as_xyz
 1  'x, y, z'
loop_
 _atom_site_type_symbol
 _atom_site_label
 _atom_site_symmetry_multiplicity
 _atom_site_fract_x
 _atom_site_fract_y
 _atom_site_fract_z
 _atom_site_fract_occupancy
 Ge  Ge1  1  0.66985  0.12499  0.53530  1
 Ge  Ge2  1  0.33015  0.87501  0.46470  1
 Ge  Ge3  1  0.33015  0.46470  0.87501  1
 Ge  Ge4  1  0.66985  0.53530  0.12499  1
 Ge  Ge5  1  0.00000  0.50000  0.50000  1
 Nd  Nd1  1  0.00000  0.00000  0.00000  1
