CIF file written using JARVIS-Tools package.
data_MgSbF6
_symmetry_space_group_name_H-M  'R-3'
_cell_length_a       5.59434
_cell_length_b       5.59433
_cell_length_c       5.59434
_cell_angle_alpha    55.082
_cell_angle_beta     55.082
_cell_angle_gamma    55.082

_symmetry_Int_Tables_number  148
_chemical_formula_structural  MgSbF6
_chemical_formula_sum  MgSbF6
_cell_volume  109.6412310566235
_cell_formula_units_Z  1
loop_
  _symmetry_equiv_pos_site_id
 _symmetry_equiv_pos_as_xyz
 1  'x, y, z'
loop_
 _atom_site_type_symbol
 _atom_site_label
 _atom_site_symmetry_multiplicity
 _atom_site_fract_x
 _atom_site_fract_y
 _atom_site_fract_z
 _atom_site_fract_occupancy
 F  F1  1  0.39012  0.11791  0.74529  1
 F  F2  1  0.11791  0.74529  0.39012  1
 F  F3  1  0.25471  0.60988  0.88209  1
 F  F4  1  0.88209  0.25471  0.60988  1
 F  F5  1  0.60988  0.88209  0.25471  1
 F  F6  1  0.74529  0.39012  0.11791  1
 Mg  Mg1  1  0.50000  0.50000  0.50000  1
 Sb  Sb1  1  0.00000  0.00000  0.00000  1
