CIF file written using JARVIS-Tools package.
data_TmInCo4
_symmetry_space_group_name_H-M  'F-43m'
_cell_length_a       4.9462
_cell_length_b       4.94619
_cell_length_c       4.9462
_cell_angle_alpha    60
_cell_angle_beta     60
_cell_angle_gamma    60

_symmetry_Int_Tables_number  216
_chemical_formula_structural  TmInCo4
_chemical_formula_sum  TmInCo4
_cell_volume  85.56554329819583
_cell_formula_units_Z  1
loop_
  _symmetry_equiv_pos_site_id
 _symmetry_equiv_pos_as_xyz
 1  'x, y, z'
loop_
 _atom_site_type_symbol
 _atom_site_label
 _atom_site_symmetry_multiplicity
 _atom_site_fract_x
 _atom_site_fract_y
 _atom_site_fract_z
 _atom_site_fract_occupancy
 Co  Co1  1  0.37459  0.37459  0.37459  1
 Co  Co2  1  0.87624  0.37459  0.37459  1
 Co  Co3  1  0.37459  0.87624  0.37459  1
 Co  Co4  1  0.37459  0.37459  0.87624  1
 In  In1  1  0.00000  0.00000  0.00000  1
 Tm  Tm1  1  0.75000  0.75000  0.75000  1
