CIF file written using JARVIS-Tools package.
data_FeMo3S4
_symmetry_space_group_name_H-M  'P-1'
_cell_length_a       6.4797
_cell_length_b       6.50132
_cell_length_c       6.51681
_cell_angle_alpha    97.6505
_cell_angle_beta     91.2051
_cell_angle_gamma    95.5102

_symmetry_Int_Tables_number  2
_chemical_formula_structural  FeMo3S4
_chemical_formula_sum  Fe2Mo6S8
_cell_volume  270.67062167523017
_cell_formula_units_Z  2
loop_
  _symmetry_equiv_pos_site_id
 _symmetry_equiv_pos_as_xyz
 1  'x, y, z'
loop_
 _atom_site_type_symbol
 _atom_site_label
 _atom_site_symmetry_multiplicity
 _atom_site_fract_x
 _atom_site_fract_y
 _atom_site_fract_z
 _atom_site_fract_occupancy
 Fe  Fe1  1  0.99406  0.14832  0.90810  1
 Fe  Fe2  1  0.00594  0.85168  0.09190  1
 Mo  Mo1  1  0.77844  0.58981  0.45040  1
 Mo  Mo2  1  0.22156  0.41019  0.54960  1
 Mo  Mo3  1  0.45656  0.78111  0.59911  1
 Mo  Mo4  1  0.54344  0.21889  0.40089  1
 Mo  Mo5  1  0.58401  0.46287  0.77617  1
 Mo  Mo6  1  0.41599  0.53713  0.22383  1
 S  S1  1  0.73745  0.35869  0.11810  1
 S  S2  1  0.26255  0.64131  0.88190  1
 S  S3  1  0.79606  0.81394  0.78658  1
 S  S4  1  0.20394  0.18606  0.21342  1
 S  S5  1  0.64142  0.85981  0.26813  1
 S  S6  1  0.35858  0.14019  0.73187  1
 S  S7  1  0.14191  0.72625  0.38754  1
 S  S8  1  0.85809  0.27375  0.61246  1
