CIF file written using JARVIS-Tools package.
data_K2O
_symmetry_space_group_name_H-M  'I4_1/amd'
_cell_length_a       7.53473
_cell_length_b       7.53473
_cell_length_c       7.53473
_cell_angle_alpha    139.917
_cell_angle_beta     139.917
_cell_angle_gamma    57.9795

_symmetry_Int_Tables_number  141
_chemical_formula_structural  K2O
_chemical_formula_sum  K4O2
_cell_volume  175.77539886333216
_cell_formula_units_Z  2
loop_
  _symmetry_equiv_pos_site_id
 _symmetry_equiv_pos_as_xyz
 1  'x, y, z'
loop_
 _atom_site_type_symbol
 _atom_site_label
 _atom_site_symmetry_multiplicity
 _atom_site_fract_x
 _atom_site_fract_y
 _atom_site_fract_z
 _atom_site_fract_occupancy
 K  K1  1  0.29966  0.29966  -0.00000  1
 K  K2  1  0.70034  0.70034  0.00000  1
 K  K3  1  0.45034  0.95034  0.50000  1
 K  K4  1  0.04966  0.54966  0.50000  1
 O  O1  1  0.25000  0.75000  0.50000  1
 O  O2  1  0.50000  0.50000  -0.00000  1
