CIF file written using JARVIS-Tools package.
data_Tl4Br3Cl
_symmetry_space_group_name_H-M  'P4/mmm'
_cell_length_a       3.94859
_cell_length_b       3.94859
_cell_length_c       15.7936
_cell_angle_alpha    90
_cell_angle_beta     90
_cell_angle_gamma    90

_symmetry_Int_Tables_number  123
_chemical_formula_structural  Tl4Br3Cl
_chemical_formula_sum  Tl4Br3Cl
_cell_volume  246.24323960914973
_cell_formula_units_Z  1
loop_
  _symmetry_equiv_pos_site_id
 _symmetry_equiv_pos_as_xyz
 1  'x, y, z'
loop_
 _atom_site_type_symbol
 _atom_site_label
 _atom_site_symmetry_multiplicity
 _atom_site_fract_x
 _atom_site_fract_y
 _atom_site_fract_z
 _atom_site_fract_occupancy
 Br  Br1  1  0.50000  0.50000  0.24560  1
 Br  Br2  1  0.50000  0.50000  0.50000  1
 Br  Br3  1  0.50000  0.50000  0.75440  1
 Cl  Cl1  1  0.50000  0.50000  0.00000  1
 Tl  Tl1  1  0.00000  0.00000  0.88182  1
 Tl  Tl2  1  0.00000  0.00000  0.11818  1
 Tl  Tl3  1  0.00000  0.00000  0.37286  1
 Tl  Tl4  1  0.00000  0.00000  0.62714  1
