CIF file written using JARVIS-Tools package.
data_CdH2SeO4
_symmetry_space_group_name_H-M  'Pnma'
_cell_length_a       12.986
_cell_length_b       5.96985
_cell_length_c       5.04256
_cell_angle_alpha    90
_cell_angle_beta     90
_cell_angle_gamma    90

_symmetry_Int_Tables_number  62
_chemical_formula_structural  CdH2SeO4
_chemical_formula_sum  Cd4H8Se4O6
_cell_volume  390.9225500332849
_cell_formula_units_Z  4
loop_
  _symmetry_equiv_pos_site_id
 _symmetry_equiv_pos_as_xyz
 1  'x, y, z'
loop_
 _atom_site_type_symbol
 _atom_site_label
 _atom_site_symmetry_multiplicity
 _atom_site_fract_x
 _atom_site_fract_y
 _atom_site_fract_z
 _atom_site_fract_occupancy
 Cd  Cd1  1  0.77437  0.25000  0.08523  1
 Cd  Cd2  1  0.27437  0.25000  0.41477  1
 Cd  Cd3  1  0.22563  0.75000  0.91477  1
 Cd  Cd4  1  0.72563  0.75000  0.58523  1
 H  H1  1  0.39188  0.11818  0.96298  1
 H  H2  1  0.60812  0.61818  0.03702  1
 H  H3  1  0.10812  0.88182  0.46298  1
 H  H4  1  0.89188  0.38182  0.53702  1
 H  H5  1  0.10812  0.61818  0.46298  1
 H  H6  1  0.39188  0.38182  0.96298  1
 H  H7  1  0.89188  0.11818  0.53702  1
 H  H8  1  0.60812  0.88182  0.03702  1
 O  O1  1  0.65481  0.46888  0.33892  1
 O  O2  1  0.10155  0.75000  0.58241  1
 O  O3  1  0.63230  0.25000  0.80638  1
 O  O4  1  0.13230  0.25000  0.69362  1
 O  O5  1  0.36770  0.75000  0.19362  1
 O  O6  1  0.86770  0.75000  0.30638  1
 O  O7  1  0.84519  0.53112  0.83892  1
 O  O8  1  0.15481  0.03112  0.16108  1
 O  O9  1  0.15481  0.46888  0.16108  1
 O  O10  1  0.60155  0.75000  0.91759  1
 O  O11  1  0.84519  0.96888  0.83892  1
 O  O12  1  0.34519  0.53112  0.66108  1
 O  O13  1  0.89845  0.25000  0.41759  1
 O  O14  1  0.39845  0.25000  0.08241  1
 O  O15  1  0.34519  0.96888  0.66108  1
 O  O16  1  0.65481  0.03112  0.33892  1
 Se  Se1  1  0.91377  0.75000  -0.00526  1
 Se  Se2  1  0.58623  0.25000  0.49474  1
 Se  Se3  1  0.08623  0.25000  0.00526  1
 Se  Se4  1  0.41377  0.75000  0.50526  1
