CIF file written using JARVIS-Tools package.
data_SrCa3
_symmetry_space_group_name_H-M  'P6_3/mmc'
_cell_length_a       7.89385
_cell_length_b       7.89386
_cell_length_c       6.48182
_cell_angle_alpha    90
_cell_angle_beta     90
_cell_angle_gamma    120

_symmetry_Int_Tables_number  194
_chemical_formula_structural  SrCa3
_chemical_formula_sum  Sr2Ca6
_cell_volume  349.7886390376933
_cell_formula_units_Z  2
loop_
  _symmetry_equiv_pos_site_id
 _symmetry_equiv_pos_as_xyz
 1  'x, y, z'
loop_
 _atom_site_type_symbol
 _atom_site_label
 _atom_site_symmetry_multiplicity
 _atom_site_fract_x
 _atom_site_fract_y
 _atom_site_fract_z
 _atom_site_fract_occupancy
 Ca  Ca1  1  0.16457  0.32914  0.25000  1
 Ca  Ca2  1  0.67086  0.83543  0.25000  1
 Ca  Ca3  1  0.16457  0.83543  0.25000  1
 Ca  Ca4  1  0.83543  0.67086  0.75000  1
 Ca  Ca5  1  0.32914  0.16457  0.75000  1
 Ca  Ca6  1  0.83543  0.16457  0.75000  1
 Sr  Sr1  1  0.33333  0.66667  0.75000  1
 Sr  Sr2  1  0.66667  0.33333  0.25000  1
