CIF file written using JARVIS-Tools package.
data_CoNi2Se4
_symmetry_space_group_name_H-M  'Cm'
_cell_length_a       6.29357
_cell_length_b       6.29357
_cell_length_c       6.18603
_cell_angle_alpha    61.5159
_cell_angle_beta     61.5159
_cell_angle_gamma    33.5023

_symmetry_Int_Tables_number  8
_chemical_formula_structural  CoNi2Se4
_chemical_formula_sum  CoNi2Se4
_cell_volume  117.27777748231355
_cell_formula_units_Z  1
loop_
  _symmetry_equiv_pos_site_id
 _symmetry_equiv_pos_as_xyz
 1  'x, y, z'
loop_
 _atom_site_type_symbol
 _atom_site_label
 _atom_site_symmetry_multiplicity
 _atom_site_fract_x
 _atom_site_fract_y
 _atom_site_fract_z
 _atom_site_fract_occupancy
 Co  Co1  1  0.74061  0.74061  0.27950  1
 Ni  Ni1  1  0.00213  0.00213  0.00306  1
 Ni  Ni2  1  0.25917  0.25917  0.72142  1
 Se  Se1  1  0.87712  0.87712  0.45460  1
 Se  Se2  1  0.12139  0.12139  0.53510  1
 Se  Se3  1  0.63479  0.63479  0.02882  1
 Se  Se4  1  0.36479  0.36479  0.97749  1
