CIF file written using JARVIS-Tools package.
data_Hg
_symmetry_space_group_name_H-M  'P6_3/mmc'
_cell_length_a       3.49836
_cell_length_b       3.49836
_cell_length_c       5.58421
_cell_angle_alpha    90
_cell_angle_beta     90
_cell_angle_gamma    120.125

_symmetry_Int_Tables_number  194
_chemical_formula_structural  Hg
_chemical_formula_sum  Hg2
_cell_volume  59.11139227424962
_cell_formula_units_Z  2
loop_
  _symmetry_equiv_pos_site_id
 _symmetry_equiv_pos_as_xyz
 1  'x, y, z'
loop_
 _atom_site_type_symbol
 _atom_site_label
 _atom_site_symmetry_multiplicity
 _atom_site_fract_x
 _atom_site_fract_y
 _atom_site_fract_z
 _atom_site_fract_occupancy
 Hg  Hg1  1  0.83360  0.16640  0.75000  1
 Hg  Hg2  1  0.16640  0.83360  0.25000  1
