CIF file written using JARVIS-Tools package.
data_AlCoO3
_symmetry_space_group_name_H-M  'R-3'
_cell_length_a       5.14931
_cell_length_b       5.14932
_cell_length_c       5.14931
_cell_angle_alpha    55.9483
_cell_angle_beta     55.9483
_cell_angle_gamma    55.9483

_symmetry_Int_Tables_number  148
_chemical_formula_structural  AlCoO3
_chemical_formula_sum  Al2Co2O6
_cell_volume  87.48126959161615
_cell_formula_units_Z  2
loop_
  _symmetry_equiv_pos_site_id
 _symmetry_equiv_pos_as_xyz
 1  'x, y, z'
loop_
 _atom_site_type_symbol
 _atom_site_label
 _atom_site_symmetry_multiplicity
 _atom_site_fract_x
 _atom_site_fract_y
 _atom_site_fract_z
 _atom_site_fract_occupancy
 Al  Al1  1  0.85403  0.85403  0.85403  1
 Al  Al2  1  0.14597  0.14597  0.14597  1
 Co  Co1  1  0.34498  0.34498  0.34498  1
 Co  Co2  1  0.65502  0.65502  0.65502  1
 O  O1  1  0.44675  0.75153  0.05495  1
 O  O2  1  0.24847  0.94505  0.55325  1
 O  O3  1  0.05495  0.44675  0.75153  1
 O  O4  1  0.94505  0.55325  0.24847  1
 O  O5  1  0.75153  0.05495  0.44675  1
 O  O6  1  0.55325  0.24847  0.94505  1
