CIF file written using JARVIS-Tools package.
data_SmCoP
_symmetry_space_group_name_H-M  'P4/nmm'
_cell_length_a       3.90255
_cell_length_b       3.90255
_cell_length_c       6.77319
_cell_angle_alpha    90
_cell_angle_beta     90
_cell_angle_gamma    90

_symmetry_Int_Tables_number  129
_chemical_formula_structural  SmCoP
_chemical_formula_sum  Sm2Co2P2
_cell_volume  103.15476887117387
_cell_formula_units_Z  2
loop_
  _symmetry_equiv_pos_site_id
 _symmetry_equiv_pos_as_xyz
 1  'x, y, z'
loop_
 _atom_site_type_symbol
 _atom_site_label
 _atom_site_symmetry_multiplicity
 _atom_site_fract_x
 _atom_site_fract_y
 _atom_site_fract_z
 _atom_site_fract_occupancy
 Co  Co1  1  0.75000  0.25000  0.00000  1
 Co  Co2  1  0.25000  0.75000  0.00000  1
 P  P1  1  0.75000  0.75000  0.80709  1
 P  P2  1  0.25000  0.25000  0.19291  1
 Sm  Sm1  1  0.75000  0.75000  0.32378  1
 Sm  Sm2  1  0.25000  0.25000  0.67622  1
