CIF file written using JARVIS-Tools package.
data_NbRhO4
_symmetry_space_group_name_H-M  'Cmmm'
_cell_length_a       4.68815
_cell_length_b       4.68816
_cell_length_c       3.13357
_cell_angle_alpha    90
_cell_angle_beta     90
_cell_angle_gamma    90.6609

_symmetry_Int_Tables_number  65
_chemical_formula_structural  NbRhO4
_chemical_formula_sum  NbRhO4
_cell_volume  68.86767510490051
_cell_formula_units_Z  1
loop_
  _symmetry_equiv_pos_site_id
 _symmetry_equiv_pos_as_xyz
 1  'x, y, z'
loop_
 _atom_site_type_symbol
 _atom_site_label
 _atom_site_symmetry_multiplicity
 _atom_site_fract_x
 _atom_site_fract_y
 _atom_site_fract_z
 _atom_site_fract_occupancy
 Nb  Nb1  1  0.00000  0.00000  0.00000  1
 O  O1  1  0.19609  0.80391  0.50000  1
 O  O2  1  0.80391  0.19609  0.50000  1
 O  O3  1  0.30538  0.30538  0.00000  1
 O  O4  1  0.69462  0.69462  0.00000  1
 Rh  Rh1  1  0.50000  0.50000  0.50000  1
