CIF file written using JARVIS-Tools package.
data_LaGe3Os
_symmetry_space_group_name_H-M  'I4mm'
_cell_length_a       4.49087
_cell_length_b       4.49087
_cell_length_c       6.0203
_cell_angle_alpha    111.899
_cell_angle_beta     111.899
_cell_angle_gamma    90

_symmetry_Int_Tables_number  107
_chemical_formula_structural  LaGe3Os
_chemical_formula_sum  LaGe3Os
_cell_volume  103.15277417475934
_cell_formula_units_Z  1
loop_
  _symmetry_equiv_pos_site_id
 _symmetry_equiv_pos_as_xyz
 1  'x, y, z'
loop_
 _atom_site_type_symbol
 _atom_site_label
 _atom_site_symmetry_multiplicity
 _atom_site_fract_x
 _atom_site_fract_y
 _atom_site_fract_z
 _atom_site_fract_occupancy
 Ge  Ge1  1  0.42512  0.42512  0.85024  1
 Ge  Ge2  1  0.75954  0.25954  0.51908  1
 Ge  Ge3  1  0.25954  0.75954  0.51908  1
 La  La1  1  -0.00063  -0.00063  -0.00126  1
 Os  Os1  1  0.65843  0.65843  0.31686  1
