CIF file written using JARVIS-Tools package.
data_CeAlCu2Ni2
_symmetry_space_group_name_H-M  'Cmmm'
_cell_length_a       4.99627
_cell_length_b       4.99627
_cell_length_c       4.09713
_cell_angle_alpha    90
_cell_angle_beta     90
_cell_angle_gamma    118.127

_symmetry_Int_Tables_number  65
_chemical_formula_structural  CeAlCu2Ni2
_chemical_formula_sum  CeAlCu2Ni2
_cell_volume  90.1977221525162
_cell_formula_units_Z  1
loop_
  _symmetry_equiv_pos_site_id
 _symmetry_equiv_pos_as_xyz
 1  'x, y, z'
loop_
 _atom_site_type_symbol
 _atom_site_label
 _atom_site_symmetry_multiplicity
 _atom_site_fract_x
 _atom_site_fract_y
 _atom_site_fract_z
 _atom_site_fract_occupancy
 Al  Al1  1  0.50000  0.50000  0.50000  1
 Ce  Ce1  1  0.00000  0.00000  0.00000  1
 Cu  Cu1  1  0.50000  -0.00000  0.50000  1
 Cu  Cu2  1  -0.00000  0.50000  0.50000  1
 Ni  Ni1  1  0.66323  0.33677  0.00000  1
 Ni  Ni2  1  0.33677  0.66323  0.00000  1
