CIF file written using JARVIS-Tools package.
data_MnZnSe2
_symmetry_space_group_name_H-M  'P3m1'
_cell_length_a       4.09346
_cell_length_b       4.09346
_cell_length_c       6.73194
_cell_angle_alpha    90
_cell_angle_beta     90
_cell_angle_gamma    120

_symmetry_Int_Tables_number  156
_chemical_formula_structural  MnZnSe2
_chemical_formula_sum  MnZnSe2
_cell_volume  97.69036812118141
_cell_formula_units_Z  1
loop_
  _symmetry_equiv_pos_site_id
 _symmetry_equiv_pos_as_xyz
 1  'x, y, z'
loop_
 _atom_site_type_symbol
 _atom_site_label
 _atom_site_symmetry_multiplicity
 _atom_site_fract_x
 _atom_site_fract_y
 _atom_site_fract_z
 _atom_site_fract_occupancy
 Mn  Mn1  1  0.33333  0.66667  0.49696  1
 Se  Se1  1  0.33333  0.66667  0.12136  1
 Se  Se2  1  0.66667  0.33333  0.63075  1
 Zn  Zn1  1  0.66667  0.33333  0.99893  1
