CIF file written using JARVIS-Tools package.
data_Ta3Ru
_symmetry_space_group_name_H-M  'Cmmm'
_cell_length_a       2.86906
_cell_length_b       2.86907
_cell_length_c       8.80846
_cell_angle_alpha    90
_cell_angle_beta     90
_cell_angle_gamma    109.385

_symmetry_Int_Tables_number  65
_chemical_formula_structural  Ta3Ru
_chemical_formula_sum  Ta3Ru
_cell_volume  68.39667272432864
_cell_formula_units_Z  1
loop_
  _symmetry_equiv_pos_site_id
 _symmetry_equiv_pos_as_xyz
 1  'x, y, z'
loop_
 _atom_site_type_symbol
 _atom_site_label
 _atom_site_symmetry_multiplicity
 _atom_site_fract_x
 _atom_site_fract_y
 _atom_site_fract_z
 _atom_site_fract_occupancy
 Ru  Ru1  1  0.00000  0.00000  0.00000  1
 Ta  Ta1  1  0.50000  0.50000  0.76338  1
 Ta  Ta2  1  0.00000  0.00000  0.50000  1
 Ta  Ta3  1  0.50000  0.50000  0.23662  1
