CIF file written using JARVIS-Tools package.
data_Rb2CoCl4
_symmetry_space_group_name_H-M  'Pnma'
_cell_length_a       7.07042
_cell_length_b       9.29894
_cell_length_c       12.3916
_cell_angle_alpha    90
_cell_angle_beta     90
_cell_angle_gamma    90

_symmetry_Int_Tables_number  62
_chemical_formula_structural  Rb2CoCl4
_chemical_formula_sum  Rb8Co4Cl6
_cell_volume  814.7133072905741
_cell_formula_units_Z  4
loop_
  _symmetry_equiv_pos_site_id
 _symmetry_equiv_pos_as_xyz
 1  'x, y, z'
loop_
 _atom_site_type_symbol
 _atom_site_label
 _atom_site_symmetry_multiplicity
 _atom_site_fract_x
 _atom_site_fract_y
 _atom_site_fract_z
 _atom_site_fract_occupancy
 Cl  Cl1  1  0.75000  0.48843  0.40227  1
 Cl  Cl2  1  -0.00622  0.17383  0.65284  1
 Cl  Cl3  1  0.00622  0.32617  0.15284  1
 Cl  Cl4  1  0.50622  0.67383  0.84716  1
 Cl  Cl5  1  0.50622  0.17383  0.65284  1
 Cl  Cl6  1  0.00622  0.82617  0.34716  1
 Cl  Cl7  1  -0.00622  0.67383  0.84716  1
 Cl  Cl8  1  0.49378  0.32617  0.15284  1
 Cl  Cl9  1  0.25000  0.18550  0.40575  1
 Cl  Cl10  1  0.75000  0.81450  0.59425  1
 Cl  Cl11  1  0.25000  0.68550  0.09425  1
 Cl  Cl12  1  0.75000  0.31450  0.90575  1
 Cl  Cl13  1  0.49378  0.82617  0.34716  1
 Cl  Cl14  1  0.25000  0.01157  0.90227  1
 Cl  Cl15  1  0.25000  0.51157  0.59773  1
 Cl  Cl16  1  0.75000  0.98843  0.09773  1
 Co  Co1  1  0.25000  0.27104  0.57579  1
 Co  Co2  1  0.75000  0.72896  0.42421  1
 Co  Co3  1  0.25000  0.77104  0.92421  1
 Co  Co4  1  0.75000  0.22896  0.07579  1
 Rb  Rb1  1  0.25000  0.02120  0.17041  1
 Rb  Rb2  1  0.25000  0.86819  0.59509  1
 Rb  Rb3  1  0.75000  0.13181  0.40491  1
 Rb  Rb4  1  0.25000  0.36819  0.90491  1
 Rb  Rb5  1  0.75000  0.63181  0.09509  1
 Rb  Rb6  1  0.25000  0.52120  0.32959  1
 Rb  Rb7  1  0.75000  0.47880  0.67041  1
 Rb  Rb8  1  0.75000  0.97880  0.82959  1
