CIF file written using JARVIS-Tools package.
data_Ni2SnP
_symmetry_space_group_name_H-M  'Pnma'
_cell_length_a       3.59798
_cell_length_b       5.11114
_cell_length_c       13.0366
_cell_angle_alpha    90
_cell_angle_beta     90
_cell_angle_gamma    90

_symmetry_Int_Tables_number  62
_chemical_formula_structural  Ni2SnP
_chemical_formula_sum  Ni8Sn4P4
_cell_volume  239.73930413339662
_cell_formula_units_Z  4
loop_
  _symmetry_equiv_pos_site_id
 _symmetry_equiv_pos_as_xyz
 1  'x, y, z'
loop_
 _atom_site_type_symbol
 _atom_site_label
 _atom_site_symmetry_multiplicity
 _atom_site_fract_x
 _atom_site_fract_y
 _atom_site_fract_z
 _atom_site_fract_occupancy
 Ni  Ni1  1  0.25000  0.50106  0.11381  1
 Ni  Ni2  1  0.75000  0.49894  0.88619  1
 Ni  Ni3  1  0.75000  0.00106  0.38619  1
 Ni  Ni4  1  0.25000  -0.00106  0.61381  1
 Ni  Ni5  1  0.75000  0.51450  0.42135  1
 Ni  Ni6  1  0.25000  0.48550  0.57865  1
 Ni  Ni7  1  0.25000  0.01450  0.07865  1
 Ni  Ni8  1  0.75000  0.98550  0.92135  1
 P  P1  1  0.75000  0.28633  0.04330  1
 P  P2  1  0.25000  0.71367  0.95670  1
 P  P3  1  0.25000  0.78633  0.45670  1
 P  P4  1  0.75000  0.21367  0.54330  1
 Sn  Sn1  1  0.25000  0.29395  0.29508  1
 Sn  Sn2  1  0.75000  0.70605  0.70492  1
 Sn  Sn3  1  0.75000  0.79395  0.20492  1
 Sn  Sn4  1  0.25000  0.20605  0.79508  1
