CIF file written using JARVIS-Tools package.
data_NbRh2
_symmetry_space_group_name_H-M  'Pm'
_cell_length_a       2.83261
_cell_length_b       4.82006
_cell_length_c       6.98893
_cell_angle_alpha    75.1951
_cell_angle_beta     90
_cell_angle_gamma    90

_symmetry_Int_Tables_number  6
_chemical_formula_structural  NbRh2
_chemical_formula_sum  Nb2Rh4
_cell_volume  92.25449172969897
_cell_formula_units_Z  2
loop_
  _symmetry_equiv_pos_site_id
 _symmetry_equiv_pos_as_xyz
 1  'x, y, z'
loop_
 _atom_site_type_symbol
 _atom_site_label
 _atom_site_symmetry_multiplicity
 _atom_site_fract_x
 _atom_site_fract_y
 _atom_site_fract_z
 _atom_site_fract_occupancy
 Nb  Nb1  1  0.50000  0.26860  0.65266  1
 Nb  Nb2  1  0.50000  0.52126  0.01531  1
 Rh  Rh1  1  0.00000  0.75842  0.67052  1
 Rh  Rh2  1  0.00000  0.20929  0.33237  1
 Rh  Rh3  1  0.00000  0.01768  0.99312  1
 Rh  Rh4  1  0.50000  0.72475  0.33603  1
