CIF file written using JARVIS-Tools package.
data_Al2HgS4
_symmetry_space_group_name_H-M  'I-4'
_cell_length_a       5.57348
_cell_length_b       5.57349
_cell_length_c       6.47809
_cell_angle_alpha    115.479
_cell_angle_beta     115.479
_cell_angle_gamma    90

_symmetry_Int_Tables_number  82
_chemical_formula_structural  Al2HgS4
_chemical_formula_sum  Al2HgS4
_cell_volume  159.7105471773248
_cell_formula_units_Z  1
loop_
  _symmetry_equiv_pos_site_id
 _symmetry_equiv_pos_as_xyz
 1  'x, y, z'
loop_
 _atom_site_type_symbol
 _atom_site_label
 _atom_site_symmetry_multiplicity
 _atom_site_fract_x
 _atom_site_fract_y
 _atom_site_fract_z
 _atom_site_fract_occupancy
 Al  Al1  1  0.25000  0.75000  0.50000  1
 Al  Al2  1  0.50000  0.50000  0.00000  1
 Hg  Hg1  1  0.00000  0.00000  0.00000  1
 S  S1  1  0.86595  0.86101  0.27528  1
 S  S2  1  0.40933  0.41426  0.27528  1
 S  S3  1  0.13899  0.59067  0.72472  1
 S  S4  1  0.58574  0.13405  0.72472  1
