CIF file written using JARVIS-Tools package.
data_Mn2FeO6
_symmetry_space_group_name_H-M  'C2/m'
_cell_length_a       6.21536
_cell_length_b       6.21536
_cell_length_c       5.51912
_cell_angle_alpha    80.1303
_cell_angle_beta     80.1303
_cell_angle_gamma    26.6552

_symmetry_Int_Tables_number  12
_chemical_formula_structural  Mn2FeO6
_chemical_formula_sum  Mn2FeO6
_cell_volume  94.15351915457721
_cell_formula_units_Z  1
loop_
  _symmetry_equiv_pos_site_id
 _symmetry_equiv_pos_as_xyz
 1  'x, y, z'
loop_
 _atom_site_type_symbol
 _atom_site_label
 _atom_site_symmetry_multiplicity
 _atom_site_fract_x
 _atom_site_fract_y
 _atom_site_fract_z
 _atom_site_fract_occupancy
 Fe  Fe1  1  0.50000  0.50000  -0.00000  1
 Mn  Mn1  1  0.16633  0.16633  0.66791  1
 Mn  Mn2  1  0.83367  0.83367  0.33209  1
 O  O1  1  0.65767  0.65767  0.89876  1
 O  O2  1  0.32577  0.32577  0.56528  1
 O  O3  1  0.34233  0.34233  0.10124  1
 O  O4  1  0.99302  0.99302  0.22611  1
 O  O5  1  0.00698  0.00698  0.77389  1
 O  O6  1  0.67423  0.67423  0.43472  1
