CIF file written using JARVIS-Tools package.
data_LiVF4
_symmetry_space_group_name_H-M  'Cmmm'
_cell_length_a       4.60978
_cell_length_b       4.60978
_cell_length_c       6.17914
_cell_angle_alpha    90
_cell_angle_beta     90
_cell_angle_gamma    91.4882

_symmetry_Int_Tables_number  65
_chemical_formula_structural  LiVF4
_chemical_formula_sum  Li2V2F8
_cell_volume  131.26292254361024
_cell_formula_units_Z  2
loop_
  _symmetry_equiv_pos_site_id
 _symmetry_equiv_pos_as_xyz
 1  'x, y, z'
loop_
 _atom_site_type_symbol
 _atom_site_label
 _atom_site_symmetry_multiplicity
 _atom_site_fract_x
 _atom_site_fract_y
 _atom_site_fract_z
 _atom_site_fract_occupancy
 F  F1  1  0.19151  0.80840  0.25000  1
 F  F2  1  0.19159  0.80849  0.75000  1
 F  F3  1  0.70531  0.70531  0.50004  1
 F  F4  1  0.70531  0.70531  -0.00004  1
 F  F5  1  0.29469  0.29469  0.00004  1
 F  F6  1  0.29469  0.29469  0.49996  1
 F  F7  1  0.80840  0.19151  0.25000  1
 F  F8  1  0.80849  0.19159  0.75000  1
 Li  Li1  1  0.49995  0.49995  0.75000  1
 Li  Li2  1  0.50005  0.50005  0.25000  1
 V  V1  1  0.00000  0.00000  0.00000  1
 V  V2  1  0.00000  0.00000  0.50000  1
