CIF file written using JARVIS-Tools package.
data_Y2GeI2
_symmetry_space_group_name_H-M  'R-3m'
_cell_length_a       10.8237
_cell_length_b       10.8237
_cell_length_c       10.8237
_cell_angle_alpha    22.4621
_cell_angle_beta     22.4621
_cell_angle_gamma    22.4622

_symmetry_Int_Tables_number  166
_chemical_formula_structural  Y2GeI2
_chemical_formula_sum  Y2GeI2
_cell_volume  162.3575404596354
_cell_formula_units_Z  1
loop_
  _symmetry_equiv_pos_site_id
 _symmetry_equiv_pos_as_xyz
 1  'x, y, z'
loop_
 _atom_site_type_symbol
 _atom_site_label
 _atom_site_symmetry_multiplicity
 _atom_site_fract_x
 _atom_site_fract_y
 _atom_site_fract_z
 _atom_site_fract_occupancy
 Ge  Ge1  1  0.00000  0.00000  0.00000  1
 I  I1  1  0.22079  0.22079  0.22079  1
 I  I2  1  0.77921  0.77921  0.77921  1
 Y  Y1  1  0.61728  0.61728  0.61728  1
 Y  Y2  1  0.38272  0.38272  0.38272  1
