CIF file written using JARVIS-Tools package.
data_Sc6Te2Ir
_symmetry_space_group_name_H-M  'P-62m'
_cell_length_a       7.745
_cell_length_b       7.745
_cell_length_c       3.82198
_cell_angle_alpha    90
_cell_angle_beta     90
_cell_angle_gamma    120

_symmetry_Int_Tables_number  189
_chemical_formula_structural  Sc6Te2Ir
_chemical_formula_sum  Sc6Te2Ir
_cell_volume  198.5464450865138
_cell_formula_units_Z  1
loop_
  _symmetry_equiv_pos_site_id
 _symmetry_equiv_pos_as_xyz
 1  'x, y, z'
loop_
 _atom_site_type_symbol
 _atom_site_label
 _atom_site_symmetry_multiplicity
 _atom_site_fract_x
 _atom_site_fract_y
 _atom_site_fract_z
 _atom_site_fract_occupancy
 Ir  Ir1  1  0.00000  0.00000  0.00000  1
 Sc  Sc1  1  0.24142  0.00000  0.50000  1
 Sc  Sc2  1  0.00000  0.24142  0.50000  1
 Sc  Sc3  1  0.75858  0.75858  0.50000  1
 Sc  Sc4  1  0.61255  -0.00000  0.00000  1
 Sc  Sc5  1  -0.00000  0.61255  0.00000  1
 Sc  Sc6  1  0.38745  0.38745  0.00000  1
 Te  Te1  1  0.33333  0.66667  0.50000  1
 Te  Te2  1  0.66667  0.33333  0.50000  1
