CIF file written using JARVIS-Tools package.
data_KNaMg2F6
_symmetry_space_group_name_H-M  'P4/mmm'
_cell_length_a       3.95987
_cell_length_b       3.95987
_cell_length_c       7.91706
_cell_angle_alpha    90
_cell_angle_beta     90
_cell_angle_gamma    90

_symmetry_Int_Tables_number  123
_chemical_formula_structural  KNaMg2F6
_chemical_formula_sum  KNaMg2F6
_cell_volume  124.14385158516053
_cell_formula_units_Z  1
loop_
  _symmetry_equiv_pos_site_id
 _symmetry_equiv_pos_as_xyz
 1  'x, y, z'
loop_
 _atom_site_type_symbol
 _atom_site_label
 _atom_site_symmetry_multiplicity
 _atom_site_fract_x
 _atom_site_fract_y
 _atom_site_fract_z
 _atom_site_fract_occupancy
 F  F1  1  0.50000  0.00000  0.24289  1
 F  F2  1  0.50000  0.00000  0.75711  1
 F  F3  1  0.00000  0.50000  0.75711  1
 F  F4  1  0.00000  0.50000  0.24289  1
 F  F5  1  0.00000  0.00000  0.00000  1
 F  F6  1  0.00000  0.00000  0.50000  1
 K  K1  1  0.50000  0.50000  0.50000  1
 Mg  Mg1  1  0.00000  0.00000  0.24638  1
 Mg  Mg2  1  0.00000  0.00000  0.75362  1
 Na  Na1  1  0.50000  0.50000  0.00000  1
