CIF file written using JARVIS-Tools package.
data_NaSbS2
_symmetry_space_group_name_H-M  'I4_1/amd'
_cell_length_a       6.95812
_cell_length_b       6.95812
_cell_length_c       6.95813
_cell_angle_alpha    132.738
_cell_angle_beta     132.738
_cell_angle_gamma    69.0664

_symmetry_Int_Tables_number  141
_chemical_formula_structural  NaSbS2
_chemical_formula_sum  Na2Sb2S4
_cell_volume  178.36712924042195
_cell_formula_units_Z  2
loop_
  _symmetry_equiv_pos_site_id
 _symmetry_equiv_pos_as_xyz
 1  'x, y, z'
loop_
 _atom_site_type_symbol
 _atom_site_label
 _atom_site_symmetry_multiplicity
 _atom_site_fract_x
 _atom_site_fract_y
 _atom_site_fract_z
 _atom_site_fract_occupancy
 Na  Na1  1  0.50000  0.50000  -0.00000  1
 Na  Na2  1  0.25000  0.75000  0.50000  1
 S  S1  1  0.75910  0.75910  -0.00000  1
 S  S2  1  0.24090  0.24090  0.00000  1
 S  S3  1  0.99090  0.49090  0.50000  1
 S  S4  1  0.50910  0.00910  0.50000  1
 Sb  Sb1  1  0.00000  0.00000  0.00000  1
 Sb  Sb2  1  0.75000  0.25000  0.50000  1
