CIF file written using JARVIS-Tools package.
data_MnCuAg2O4
_symmetry_space_group_name_H-M  'P2/m'
_cell_length_a       2.90766
_cell_length_b       5.43089
_cell_length_c       6.46758
_cell_angle_alpha    71.7332
_cell_angle_beta     90
_cell_angle_gamma    90

_symmetry_Int_Tables_number  10
_chemical_formula_structural  MnCuAg2O4
_chemical_formula_sum  MnCuAg2O4
_cell_volume  96.98403728170076
_cell_formula_units_Z  1
loop_
  _symmetry_equiv_pos_site_id
 _symmetry_equiv_pos_as_xyz
 1  'x, y, z'
loop_
 _atom_site_type_symbol
 _atom_site_label
 _atom_site_symmetry_multiplicity
 _atom_site_fract_x
 _atom_site_fract_y
 _atom_site_fract_z
 _atom_site_fract_occupancy
 Ag  Ag1  1  0.00000  0.00000  0.00000  1
 Ag  Ag2  1  0.50000  0.50000  0.00000  1
 Cu  Cu1  1  0.00000  0.50000  0.50000  1
 Mn  Mn1  1  0.50000  0.00000  0.50000  1
 O  O1  1  0.50000  0.36988  0.35158  1
 O  O2  1  0.00000  0.94689  0.32777  1
 O  O3  1  0.50000  0.63012  0.64842  1
 O  O4  1  0.00000  0.05311  0.67223  1
