CIF file written using JARVIS-Tools package.
data_BaAs2Ru2
_symmetry_space_group_name_H-M  'I4/mmm'
_cell_length_a       4.19707
_cell_length_b       4.19708
_cell_length_c       6.8523
_cell_angle_alpha    107.834
_cell_angle_beta     107.834
_cell_angle_gamma    89.9999

_symmetry_Int_Tables_number  139
_chemical_formula_structural  BaAs2Ru2
_chemical_formula_sum  BaAs2Ru2
_cell_volume  108.79777463005357
_cell_formula_units_Z  1
loop_
  _symmetry_equiv_pos_site_id
 _symmetry_equiv_pos_as_xyz
 1  'x, y, z'
loop_
 _atom_site_type_symbol
 _atom_site_label
 _atom_site_symmetry_multiplicity
 _atom_site_fract_x
 _atom_site_fract_y
 _atom_site_fract_z
 _atom_site_fract_occupancy
 As  As1  1  0.64844  0.64844  0.29688  1
 As  As2  1  0.35156  0.35156  0.70312  1
 Ba  Ba1  1  0.00000  0.00000  0.00000  1
 Ru  Ru1  1  0.25000  0.75000  0.50000  1
 Ru  Ru2  1  0.75000  0.25000  0.50000  1
