CIF file written using JARVIS-Tools package.
data_In3CuSe5
_symmetry_space_group_name_H-M  'P1'
_cell_length_a       5.78924
_cell_length_b       7.12847
_cell_length_c       7.15004
_cell_angle_alpha    80.2132
_cell_angle_beta     66.2028
_cell_angle_gamma    66.2941

_symmetry_Int_Tables_number  1
_chemical_formula_structural  In3CuSe5
_chemical_formula_sum  In3CuSe5
_cell_volume  247.19214593084513
_cell_formula_units_Z  1
loop_
  _symmetry_equiv_pos_site_id
 _symmetry_equiv_pos_as_xyz
 1  'x, y, z'
loop_
 _atom_site_type_symbol
 _atom_site_label
 _atom_site_symmetry_multiplicity
 _atom_site_fract_x
 _atom_site_fract_y
 _atom_site_fract_z
 _atom_site_fract_occupancy
 Cu  Cu1  1  0.96576  0.01733  0.00622  1
 In  In1  1  0.81138  0.81368  0.58564  1
 In  In2  1  0.62563  0.59351  0.20254  1
 In  In3  1  0.40278  0.37975  0.80507  1
 Se  Se1  1  0.06569  0.26642  0.12711  1
 Se  Se2  1  0.89772  0.10797  0.68472  1
 Se  Se3  1  0.61632  0.93448  0.29533  1
 Se  Se4  1  0.42054  0.71955  0.90567  1
 Se  Se5  1  0.24418  0.46731  0.48770  1
