CIF file written using JARVIS-Tools package.
data_Mn2AlCu3
_symmetry_space_group_name_H-M  'R-3m'
_cell_length_a       4.85252
_cell_length_b       4.85252
_cell_length_c       4.85251
_cell_angle_alpha    59.8938
_cell_angle_beta     59.8938
_cell_angle_gamma    59.8938

_symmetry_Int_Tables_number  166
_chemical_formula_structural  Mn2AlCu3
_chemical_formula_sum  Mn2AlCu3
_cell_volume  80.60059772988052
_cell_formula_units_Z  1
loop_
  _symmetry_equiv_pos_site_id
 _symmetry_equiv_pos_as_xyz
 1  'x, y, z'
loop_
 _atom_site_type_symbol
 _atom_site_label
 _atom_site_symmetry_multiplicity
 _atom_site_fract_x
 _atom_site_fract_y
 _atom_site_fract_z
 _atom_site_fract_occupancy
 Al  Al1  1  0.50000  0.50000  0.50000  1
 Cu  Cu1  1  0.50000  0.00000  0.50000  1
 Cu  Cu2  1  -0.00000  0.50000  0.50000  1
 Cu  Cu3  1  0.50000  0.50000  -0.00000  1
 Mn  Mn1  1  0.12662  0.12662  0.12662  1
 Mn  Mn2  1  0.87338  0.87338  0.87338  1
