CIF file written using JARVIS-Tools package.
data_V6O11F
_symmetry_space_group_name_H-M  'Amm2'
_cell_length_a       6.43018
_cell_length_b       2.86892
_cell_length_c       10.3996
_cell_angle_alpha    90
_cell_angle_beta     108.008
_cell_angle_gamma    90

_symmetry_Int_Tables_number  38
_chemical_formula_structural  V6O11F
_chemical_formula_sum  V6OF
_cell_volume  182.45061255856018
_cell_formula_units_Z  1
loop_
  _symmetry_equiv_pos_site_id
 _symmetry_equiv_pos_as_xyz
 1  'x, y, z'
loop_
 _atom_site_type_symbol
 _atom_site_label
 _atom_site_symmetry_multiplicity
 _atom_site_fract_x
 _atom_site_fract_y
 _atom_site_fract_z
 _atom_site_fract_occupancy
 F  F1  1  0.93404  0.50000  0.86809  1
 O  O1  1  0.06978  0.50000  0.13959  1
 O  O2  1  0.29547  0.00000  0.99874  1
 O  O3  1  0.63638  0.00000  0.66728  1
 O  O4  1  0.36813  0.00000  0.33494  1
 O  O5  1  0.70325  0.00000  0.99873  1
 O  O6  1  0.59747  0.50000  0.19492  1
 O  O7  1  0.26842  0.50000  0.53683  1
 O  O8  1  0.73133  0.50000  0.46266  1
 O  O9  1  0.40032  0.50000  0.80064  1
 O  O10  1  0.96683  0.00000  0.33495  1
 O  O11  1  0.03090  0.00000  0.66728  1
 V  V1  1  0.82196  0.50000  0.64392  1
 V  V2  1  0.33544  0.00000  0.67087  1
 V  V3  1  0.66085  0.00000  0.32168  1
 V  V4  1  0.49729  0.50000  0.99461  1
 V  V5  1  0.17315  0.50000  0.34627  1
 V  V6  1  0.00899  0.00000  0.01801  1
