CIF file written using JARVIS-Tools package.
data_Co2RhS4
_symmetry_space_group_name_H-M  'Imma'
_cell_length_a       6.72076
_cell_length_b       6.68881
_cell_length_c       6.72076
_cell_angle_alpha    60.1571
_cell_angle_beta     60.3075
_cell_angle_gamma    60.1571

_symmetry_Int_Tables_number  74
_chemical_formula_structural  Co2RhS4
_chemical_formula_sum  Co4Rh2S8
_cell_volume  214.6359460599813
_cell_formula_units_Z  2
loop_
  _symmetry_equiv_pos_site_id
 _symmetry_equiv_pos_as_xyz
 1  'x, y, z'
loop_
 _atom_site_type_symbol
 _atom_site_label
 _atom_site_symmetry_multiplicity
 _atom_site_fract_x
 _atom_site_fract_y
 _atom_site_fract_z
 _atom_site_fract_occupancy
 Co  Co1  1  0.00094  0.99906  0.00094  1
 Co  Co2  1  0.24906  0.25094  0.24906  1
 Co  Co3  1  0.62500  0.12500  0.62500  1
 Co  Co4  1  0.62500  0.62500  0.62500  1
 Rh  Rh1  1  0.12500  0.62500  0.62500  1
 Rh  Rh2  1  0.62500  0.62500  0.12500  1
 S  S1  1  0.38510  0.36830  0.38510  1
 S  S2  1  0.39049  0.37525  0.85902  1
 S  S3  1  0.38510  0.86151  0.38510  1
 S  S4  1  0.85902  0.37525  0.39049  1
 S  S5  1  0.39098  0.87475  0.85951  1
 S  S6  1  0.86490  0.38849  0.86490  1
 S  S7  1  0.85951  0.87475  0.39098  1
 S  S8  1  0.86490  0.88170  0.86490  1
