CIF file written using JARVIS-Tools package.
data_CaInI3
_symmetry_space_group_name_H-M  'Cmcm'
_cell_length_a       7.80404
_cell_length_b       7.80404
_cell_length_c       11.6072
_cell_angle_alpha    90
_cell_angle_beta     90
_cell_angle_gamma    146.239

_symmetry_Int_Tables_number  63
_chemical_formula_structural  CaInI3
_chemical_formula_sum  Ca2In2I6
_cell_volume  392.8558806169427
_cell_formula_units_Z  2
loop_
  _symmetry_equiv_pos_site_id
 _symmetry_equiv_pos_as_xyz
 1  'x, y, z'
loop_
 _atom_site_type_symbol
 _atom_site_label
 _atom_site_symmetry_multiplicity
 _atom_site_fract_x
 _atom_site_fract_y
 _atom_site_fract_z
 _atom_site_fract_occupancy
 Ca  Ca1  1  0.00000  0.00000  0.00000  1
 Ca  Ca2  1  0.00000  0.00000  0.50000  1
 I  I1  1  0.63854  0.36146  0.05413  1
 I  I2  1  0.36146  0.63854  0.94587  1
 I  I3  1  0.36146  0.63854  0.55413  1
 I  I4  1  0.63854  0.36146  0.44587  1
 I  I5  1  0.92797  0.07203  0.25000  1
 I  I6  1  0.07203  0.92797  0.75000  1
 In  In1  1  0.25669  0.74331  0.25000  1
 In  In2  1  0.74331  0.25669  0.75000  1
