CIF file written using JARVIS-Tools package.
data_LiCuS
_symmetry_space_group_name_H-M  'I-4m2'
_cell_length_a       3.92707
_cell_length_b       3.93459
_cell_length_c       5.5778
_cell_angle_alpha    90
_cell_angle_beta     90
_cell_angle_gamma    90

_symmetry_Int_Tables_number  119
_chemical_formula_structural  LiCuS
_chemical_formula_sum  Li2Cu2S2
_cell_volume  86.18485350982695
_cell_formula_units_Z  2
loop_
  _symmetry_equiv_pos_site_id
 _symmetry_equiv_pos_as_xyz
 1  'x, y, z'
loop_
 _atom_site_type_symbol
 _atom_site_label
 _atom_site_symmetry_multiplicity
 _atom_site_fract_x
 _atom_site_fract_y
 _atom_site_fract_z
 _atom_site_fract_occupancy
 Cu  Cu1  1  0.00000  0.75011  0.41932  1
 Cu  Cu2  1  0.50000  0.24989  0.91932  1
 Li  Li1  1  0.00000  0.74995  -0.08089  1
 Li  Li2  1  0.50000  0.25005  0.41911  1
 S  S1  1  0.00000  0.25003  0.66934  1
 S  S2  1  0.50000  0.74997  0.16934  1
