CIF file written using JARVIS-Tools package.
data_UMnAl
_symmetry_space_group_name_H-M  'Imma'
_cell_length_a       5.04187
_cell_length_b       5.04187
_cell_length_c       5.04186
_cell_angle_alpha    115.999
_cell_angle_beta     113.594
_cell_angle_gamma    99.2876

_symmetry_Int_Tables_number  74
_chemical_formula_structural  UMnAl
_chemical_formula_sum  U2Mn2Al2
_cell_volume  96.33476657308783
_cell_formula_units_Z  2
loop_
  _symmetry_equiv_pos_site_id
 _symmetry_equiv_pos_as_xyz
 1  'x, y, z'
loop_
 _atom_site_type_symbol
 _atom_site_label
 _atom_site_symmetry_multiplicity
 _atom_site_fract_x
 _atom_site_fract_y
 _atom_site_fract_z
 _atom_site_fract_occupancy
 Al  Al1  1  -0.00000  0.50000  -0.00000  1
 Al  Al2  1  0.00000  -0.00000  0.50000  1
 Mn  Mn1  1  0.50000  0.50000  -0.00000  1
 Mn  Mn2  1  -0.00000  0.50000  0.50000  1
 U  U1  1  0.43025  0.18025  0.25000  1
 U  U2  1  0.56975  0.81975  0.75000  1
