CIF file written using JARVIS-Tools package.
data_Lu2SnAu2
_symmetry_space_group_name_H-M  'P4/mbm'
_cell_length_a       8.16241
_cell_length_b       8.16241
_cell_length_c       3.52047
_cell_angle_alpha    90
_cell_angle_beta     90
_cell_angle_gamma    90

_symmetry_Int_Tables_number  127
_chemical_formula_structural  Lu2SnAu2
_chemical_formula_sum  Lu4Sn2Au4
_cell_volume  234.55096092335268
_cell_formula_units_Z  2
loop_
  _symmetry_equiv_pos_site_id
 _symmetry_equiv_pos_as_xyz
 1  'x, y, z'
loop_
 _atom_site_type_symbol
 _atom_site_label
 _atom_site_symmetry_multiplicity
 _atom_site_fract_x
 _atom_site_fract_y
 _atom_site_fract_z
 _atom_site_fract_occupancy
 Au  Au1  1  0.63226  0.13226  0.00000  1
 Au  Au2  1  0.36774  0.86774  0.00000  1
 Au  Au3  1  0.13226  0.36774  0.00000  1
 Au  Au4  1  0.86774  0.63226  0.00000  1
 Lu  Lu1  1  0.84008  0.34008  0.50000  1
 Lu  Lu2  1  0.15992  0.65992  0.50000  1
 Lu  Lu3  1  0.34008  0.15992  0.50000  1
 Lu  Lu4  1  0.65992  0.84008  0.50000  1
 Sn  Sn1  1  0.00000  0.00000  0.50000  1
 Sn  Sn2  1  0.50000  0.50000  0.50000  1
