CIF file written using JARVIS-Tools package.
data_Al3Ru2
_symmetry_space_group_name_H-M  'I4/mmm'
_cell_length_a       3.10822
_cell_length_b       3.10822
_cell_length_c       7.51441
_cell_angle_alpha    101.936
_cell_angle_beta     101.936
_cell_angle_gamma    90

_symmetry_Int_Tables_number  139
_chemical_formula_structural  Al3Ru2
_chemical_formula_sum  Al3Ru2
_cell_volume  69.42239973186274
_cell_formula_units_Z  1
loop_
  _symmetry_equiv_pos_site_id
 _symmetry_equiv_pos_as_xyz
 1  'x, y, z'
loop_
 _atom_site_type_symbol
 _atom_site_label
 _atom_site_symmetry_multiplicity
 _atom_site_fract_x
 _atom_site_fract_y
 _atom_site_fract_z
 _atom_site_fract_occupancy
 Al  Al1  1  0.00000  0.00000  0.00000  1
 Al  Al2  1  0.80626  0.80626  0.61252  1
 Al  Al3  1  0.19374  0.19374  0.38748  1
 Ru  Ru1  1  0.60621  0.60621  0.21242  1
 Ru  Ru2  1  0.39379  0.39379  0.78758  1
