CIF file written using JARVIS-Tools package.
data_Tc3Rh
_symmetry_space_group_name_H-M  'P6_3/mmc'
_cell_length_a       5.51261
_cell_length_b       5.51261
_cell_length_c       4.35427
_cell_angle_alpha    90
_cell_angle_beta     90
_cell_angle_gamma    120

_symmetry_Int_Tables_number  194
_chemical_formula_structural  Tc3Rh
_chemical_formula_sum  Tc6Rh2
_cell_volume  114.5937389790189
_cell_formula_units_Z  2
loop_
  _symmetry_equiv_pos_site_id
 _symmetry_equiv_pos_as_xyz
 1  'x, y, z'
loop_
 _atom_site_type_symbol
 _atom_site_label
 _atom_site_symmetry_multiplicity
 _atom_site_fract_x
 _atom_site_fract_y
 _atom_site_fract_z
 _atom_site_fract_occupancy
 Rh  Rh1  1  0.66667  0.33333  0.25000  1
 Rh  Rh2  1  0.33333  0.66667  0.75000  1
 Tc  Tc1  1  0.83976  0.16024  0.75000  1
 Tc  Tc2  1  0.32049  0.16024  0.75000  1
 Tc  Tc3  1  0.83976  0.67951  0.75000  1
 Tc  Tc4  1  0.16024  0.83976  0.25000  1
 Tc  Tc5  1  0.67951  0.83976  0.25000  1
 Tc  Tc6  1  0.16024  0.32049  0.25000  1
