CIF file written using JARVIS-Tools package.
data_NaNpCO5
_symmetry_space_group_name_H-M  'Pmn2_1'
_cell_length_a       4.38225
_cell_length_b       4.89304
_cell_length_c       10.3915
_cell_angle_alpha    90
_cell_angle_beta     89.9993
_cell_angle_gamma    90

_symmetry_Int_Tables_number  31
_chemical_formula_structural  NaNpCO5
_chemical_formula_sum  Na2Np2C2O0
_cell_volume  222.82021397517227
_cell_formula_units_Z  2
loop_
  _symmetry_equiv_pos_site_id
 _symmetry_equiv_pos_as_xyz
 1  'x, y, z'
loop_
 _atom_site_type_symbol
 _atom_site_label
 _atom_site_symmetry_multiplicity
 _atom_site_fract_x
 _atom_site_fract_y
 _atom_site_fract_z
 _atom_site_fract_occupancy
 C  C1  1  0.34290  0.50000  0.99902  1
 C  C2  1  0.65710  -0.00000  0.49902  1
 Na  Na1  1  0.78514  0.50000  0.24526  1
 Na  Na2  1  0.21487  0.00000  0.74526  1
 Np  Np1  1  0.27385  0.50000  0.50276  1
 Np  Np2  1  0.72615  -0.00000  0.00276  1
 O  O1  1  0.21467  0.26550  0.98919  1
 O  O2  1  0.78533  0.23450  0.48919  1
 O  O3  1  0.74416  -0.00000  0.18139  1
 O  O4  1  0.25582  0.50000  0.68138  1
 O  O5  1  0.28424  0.50000  0.32284  1
 O  O6  1  0.36203  -0.00000  0.52036  1
 O  O7  1  0.78533  0.76550  0.48919  1
 O  O8  1  0.63798  0.50000  0.02036  1
 O  O9  1  0.71577  -0.00000  0.82284  1
 O  O10  1  0.21467  0.73450  0.98919  1
