CIF file written using JARVIS-Tools package.
data_AuCl
_symmetry_space_group_name_H-M  'I4_1/amd'
_cell_length_a       6.48366
_cell_length_b       6.48366
_cell_length_c       6.48366
_cell_angle_alpha    97.6144
_cell_angle_beta     115.706
_cell_angle_gamma    115.706

_symmetry_Int_Tables_number  141
_chemical_formula_structural  AuCl
_chemical_formula_sum  Au4Cl4
_cell_volume  203.29168548284503
_cell_formula_units_Z  4
loop_
  _symmetry_equiv_pos_site_id
 _symmetry_equiv_pos_as_xyz
 1  'x, y, z'
loop_
 _atom_site_type_symbol
 _atom_site_label
 _atom_site_symmetry_multiplicity
 _atom_site_fract_x
 _atom_site_fract_y
 _atom_site_fract_z
 _atom_site_fract_occupancy
 Au  Au1  1  -0.00000  0.00000  0.50000  1
 Au  Au2  1  0.00000  0.00000  0.00000  1
 Au  Au3  1  0.50000  0.50000  0.00000  1
 Au  Au4  1  0.50000  -0.00000  0.00000  1
 Cl  Cl1  1  0.25000  0.81766  0.56766  1
 Cl  Cl2  1  0.25000  0.43234  0.18234  1
 Cl  Cl3  1  0.75000  0.56766  0.81766  1
 Cl  Cl4  1  0.75000  0.18234  0.43234  1
