CIF file written using JARVIS-Tools package.
data_Cd5TeS4
_symmetry_space_group_name_H-M  'I-4m2'
_cell_length_a       15.2983
_cell_length_b       15.2983
_cell_length_c       15.2983
_cell_angle_alpha    163.89
_cell_angle_beta     163.89
_cell_angle_gamma    22.8587

_symmetry_Int_Tables_number  119
_chemical_formula_structural  Cd5TeS4
_chemical_formula_sum  Cd5TeS4
_cell_volume  275.60590804665384
_cell_formula_units_Z  1
loop_
  _symmetry_equiv_pos_site_id
 _symmetry_equiv_pos_as_xyz
 1  'x, y, z'
loop_
 _atom_site_type_symbol
 _atom_site_label
 _atom_site_symmetry_multiplicity
 _atom_site_fract_x
 _atom_site_fract_y
 _atom_site_fract_z
 _atom_site_fract_occupancy
 Cd  Cd1  1  0.81018  0.81018  -0.00000  1
 Cd  Cd2  1  0.18982  0.18982  0.00000  1
 Cd  Cd3  1  0.59449  0.59449  0.00000  1
 Cd  Cd4  1  0.00000  0.00000  0.00000  1
 Cd  Cd5  1  0.40551  0.40551  -0.00000  1
 S  S1  1  0.14196  0.64196  0.50000  1
 S  S2  1  0.54727  0.04727  0.50000  1
 S  S3  1  0.95273  0.45273  0.50000  1
 S  S4  1  0.35804  0.85804  0.50000  1
 Te  Te1  1  0.75000  0.25000  0.50000  1
