CIF file written using JARVIS-Tools package.
data_Sr5Mn5O13
_symmetry_space_group_name_H-M  'P4/m'
_cell_length_a       3.84395
_cell_length_b       8.62233
_cell_length_c       8.62233
_cell_angle_alpha    90
_cell_angle_beta     90
_cell_angle_gamma    90

_symmetry_Int_Tables_number  83
_chemical_formula_structural  Sr5Mn5O13
_chemical_formula_sum  Sr5Mn5O3
_cell_volume  285.7764232520638
_cell_formula_units_Z  1
loop_
  _symmetry_equiv_pos_site_id
 _symmetry_equiv_pos_as_xyz
 1  'x, y, z'
loop_
 _atom_site_type_symbol
 _atom_site_label
 _atom_site_symmetry_multiplicity
 _atom_site_fract_x
 _atom_site_fract_y
 _atom_site_fract_z
 _atom_site_fract_occupancy
 Mn  Mn1  1  0.00000  0.19685  0.39924  1
 Mn  Mn2  1  0.00000  0.80315  0.60076  1
 Mn  Mn3  1  0.00000  0.60076  0.19685  1
 Mn  Mn4  1  0.00000  0.39924  0.80315  1
 Mn  Mn5  1  0.00000  0.00000  0.00000  1
 O  O1  1  0.50000  0.58453  0.16543  1
 O  O2  1  0.00000  0.71035  0.40112  1
 O  O3  1  0.50000  0.00000  0.00000  1
 O  O4  1  0.50000  0.83457  0.58453  1
 O  O5  1  0.00000  0.07672  0.21007  1
 O  O6  1  0.00000  0.59888  0.71035  1
 O  O7  1  0.00000  0.78993  0.07672  1
 O  O8  1  0.00000  0.21007  0.92328  1
 O  O9  1  0.00000  0.40112  0.28965  1
 O  O10  1  0.50000  0.41547  0.83457  1
 O  O11  1  0.00000  0.28965  0.59888  1
 O  O12  1  0.00000  0.92328  0.78993  1
 O  O13  1  0.50000  0.16543  0.41547  1
 Sr  Sr1  1  0.50000  0.50000  0.50000  1
 Sr  Sr2  1  0.50000  0.71698  0.88730  1
 Sr  Sr3  1  0.50000  0.11270  0.71698  1
 Sr  Sr4  1  0.50000  0.88730  0.28302  1
 Sr  Sr5  1  0.50000  0.28302  0.11270  1
