CIF file written using JARVIS-Tools package.
data_TaOF3
_symmetry_space_group_name_H-M  'Immm'
_cell_length_a       5.00094
_cell_length_b       5.00093
_cell_length_c       5.00093
_cell_angle_alpha    134.555
_cell_angle_beta     131.815
_cell_angle_gamma    68.3882

_symmetry_Int_Tables_number  71
_chemical_formula_structural  TaOF3
_chemical_formula_sum  TaOF3
_cell_volume  65.2483854513295
_cell_formula_units_Z  1
loop_
  _symmetry_equiv_pos_site_id
 _symmetry_equiv_pos_as_xyz
 1  'x, y, z'
loop_
 _atom_site_type_symbol
 _atom_site_label
 _atom_site_symmetry_multiplicity
 _atom_site_fract_x
 _atom_site_fract_y
 _atom_site_fract_z
 _atom_site_fract_occupancy
 F  F1  1  0.76947  0.76947  -0.00000  1
 F  F2  1  0.50000  -0.00000  0.50000  1
 F  F3  1  0.23053  0.23053  0.00000  1
 O  O1  1  0.00000  0.50000  0.50000  1
 Ta  Ta1  1  0.00000  0.00000  0.00000  1
