CIF file written using JARVIS-Tools package.
data_Nb2NiO6
_symmetry_space_group_name_H-M  'Pbcn'
_cell_length_a       5.07037
_cell_length_b       5.73186
_cell_length_c       14.1065
_cell_angle_alpha    90
_cell_angle_beta     90
_cell_angle_gamma    90

_symmetry_Int_Tables_number  60
_chemical_formula_structural  Nb2NiO6
_chemical_formula_sum  Nb8Ni4O24
_cell_volume  409.97282235924644
_cell_formula_units_Z  4
loop_
  _symmetry_equiv_pos_site_id
 _symmetry_equiv_pos_as_xyz
 1  'x, y, z'
loop_
 _atom_site_type_symbol
 _atom_site_label
 _atom_site_symmetry_multiplicity
 _atom_site_fract_x
 _atom_site_fract_y
 _atom_site_fract_z
 _atom_site_fract_occupancy
 Nb  Nb1  1  0.24068  0.31711  0.65778  1
 Nb  Nb2  1  0.75932  0.68289  0.34222  1
 Nb  Nb3  1  0.25932  0.81711  0.15778  1
 Nb  Nb4  1  0.74068  0.68289  0.65778  1
 Nb  Nb5  1  0.74068  0.18289  0.84222  1
 Nb  Nb6  1  0.75932  0.18289  0.15778  1
 Nb  Nb7  1  0.25932  0.31711  0.34222  1
 Nb  Nb8  1  0.24068  0.81711  0.84222  1
 Ni  Ni1  1  0.75000  0.65079  0.00000  1
 Ni  Ni2  1  0.25000  0.34921  0.00000  1
 Ni  Ni3  1  0.75000  0.15079  0.50000  1
 Ni  Ni4  1  0.25000  0.84921  0.50000  1
 O  O1  1  0.57105  0.88015  0.75613  1
 O  O2  1  0.58655  0.89011  0.09183  1
 O  O3  1  0.41345  0.60989  0.59183  1
 O  O4  1  0.91345  0.89011  0.90817  1
 O  O5  1  0.08498  0.11273  0.42309  1
 O  O6  1  0.58498  0.38727  0.07691  1
 O  O7  1  0.41502  0.11273  0.57691  1
 O  O8  1  0.92895  0.88015  0.24387  1
 O  O9  1  0.08655  0.10989  0.09183  1
 O  O10  1  0.42895  0.61985  0.25613  1
 O  O11  1  0.07105  0.61985  0.74387  1
 O  O12  1  0.91345  0.39011  0.59183  1
 O  O13  1  0.57105  0.38015  0.74387  1
 O  O14  1  0.42895  0.11985  0.24387  1
 O  O15  1  0.08655  0.60989  0.40817  1
 O  O16  1  0.92895  0.38015  0.25613  1
 O  O17  1  0.91502  0.38727  0.92309  1
 O  O18  1  0.91502  0.88727  0.57691  1
 O  O19  1  0.41502  0.61273  0.92309  1
 O  O20  1  0.58498  0.88727  0.42309  1
 O  O21  1  0.08498  0.61273  0.07691  1
 O  O22  1  0.41345  0.10989  0.90817  1
 O  O23  1  0.07105  0.11985  0.75613  1
 O  O24  1  0.58655  0.39011  0.40817  1
