CIF file written using JARVIS-Tools package.
data_Cd4Te3Se
_symmetry_space_group_name_H-M  'Pmm2'
_cell_length_a       4.58343
_cell_length_b       6.46242
_cell_length_c       9.1726
_cell_angle_alpha    90
_cell_angle_beta     90
_cell_angle_gamma    90

_symmetry_Int_Tables_number  25
_chemical_formula_structural  Cd4Te3Se
_chemical_formula_sum  Cd4Te3Se
_cell_volume  271.69299048045855
_cell_formula_units_Z  1
loop_
  _symmetry_equiv_pos_site_id
 _symmetry_equiv_pos_as_xyz
 1  'x, y, z'
loop_
 _atom_site_type_symbol
 _atom_site_label
 _atom_site_symmetry_multiplicity
 _atom_site_fract_x
 _atom_site_fract_y
 _atom_site_fract_z
 _atom_site_fract_occupancy
 Cd  Cd1  1  0.00000  0.02472  0.00000  1
 Cd  Cd2  1  0.50000  0.49135  0.76156  1
 Cd  Cd3  1  0.00000  0.99170  0.50000  1
 Cd  Cd4  1  0.50000  0.49135  0.23844  1
 Se  Se1  1  0.50000  0.24903  0.00000  1
 Te  Te1  1  0.00000  0.75032  0.75767  1
 Te  Te2  1  0.50000  0.25121  0.50000  1
 Te  Te3  1  0.00000  0.75032  0.24233  1
