CIF file written using JARVIS-Tools package.
data_LiFeF3
_symmetry_space_group_name_H-M  'P1'
_cell_length_a       2.96508
_cell_length_b       6.49506
_cell_length_c       6.31721
_cell_angle_alpha    71.1207
_cell_angle_beta     71.9672
_cell_angle_gamma    81.9729

_symmetry_Int_Tables_number  1
_chemical_formula_structural  LiFeF3
_chemical_formula_sum  Li2Fe2F6
_cell_volume  109.35404042155731
_cell_formula_units_Z  2
loop_
  _symmetry_equiv_pos_site_id
 _symmetry_equiv_pos_as_xyz
 1  'x, y, z'
loop_
 _atom_site_type_symbol
 _atom_site_label
 _atom_site_symmetry_multiplicity
 _atom_site_fract_x
 _atom_site_fract_y
 _atom_site_fract_z
 _atom_site_fract_occupancy
 F  F1  1  0.33943  0.52250  0.24115  1
 F  F2  1  0.59998  0.80342  0.43261  1
 F  F3  1  0.90985  0.84020  0.87272  1
 F  F4  1  0.12238  0.16544  0.13750  1
 F  F5  1  0.74046  0.46867  0.77028  1
 F  F6  1  0.44735  0.17531  0.60439  1
 Fe  Fe1  1  0.02409  0.49985  0.01126  1
 Fe  Fe2  1  0.04063  0.00370  0.48427  1
 Li  Li1  1  0.31613  0.99882  0.93356  1
 Li  Li2  1  0.41930  0.49822  0.53173  1
