CIF file written using JARVIS-Tools package.
data_TbSiOs2C
_symmetry_space_group_name_H-M  'Cmcm'
_cell_length_a       5.9223
_cell_length_b       5.9223
_cell_length_c       7.14825
_cell_angle_alpha    90
_cell_angle_beta     90
_cell_angle_gamma    141.739

_symmetry_Int_Tables_number  63
_chemical_formula_structural  TbSiOs2C
_chemical_formula_sum  Tb2Si2Os4C2
_cell_volume  155.2528690962378
_cell_formula_units_Z  2
loop_
  _symmetry_equiv_pos_site_id
 _symmetry_equiv_pos_as_xyz
 1  'x, y, z'
loop_
 _atom_site_type_symbol
 _atom_site_label
 _atom_site_symmetry_multiplicity
 _atom_site_fract_x
 _atom_site_fract_y
 _atom_site_fract_z
 _atom_site_fract_occupancy
 C  C1  1  0.00000  0.00000  0.00000  1
 C  C2  1  0.00000  0.00000  0.50000  1
 Os  Os1  1  0.83510  0.16490  0.05753  1
 Os  Os2  1  0.16490  0.83510  0.94247  1
 Os  Os3  1  0.16490  0.83510  0.55753  1
 Os  Os4  1  0.83510  0.16490  0.44247  1
 Si  Si1  1  0.26939  0.73061  0.25000  1
 Si  Si2  1  0.73061  0.26939  0.75000  1
 Tb  Tb1  1  0.54781  0.45219  0.25000  1
 Tb  Tb2  1  0.45219  0.54781  0.75000  1
