CIF file written using JARVIS-Tools package.
data_SrCrPd2
_symmetry_space_group_name_H-M  'F-43m'
_cell_length_a       4.824
_cell_length_b       4.82403
_cell_length_c       4.82417
_cell_angle_alpha    59.9962
_cell_angle_beta     59.9969
_cell_angle_gamma    59.9972

_symmetry_Int_Tables_number  216
_chemical_formula_structural  SrCrPd2
_chemical_formula_sum  SrCrPd2
_cell_volume  79.37672596153627
_cell_formula_units_Z  1
loop_
  _symmetry_equiv_pos_site_id
 _symmetry_equiv_pos_as_xyz
 1  'x, y, z'
loop_
 _atom_site_type_symbol
 _atom_site_label
 _atom_site_symmetry_multiplicity
 _atom_site_fract_x
 _atom_site_fract_y
 _atom_site_fract_z
 _atom_site_fract_occupancy
 Cr  Cr1  1  0.49999  0.50000  0.50000  1
 Pd  Pd1  1  1.00000  1.00000  0.00000  1
 Pd  Pd2  1  0.25000  0.25000  0.25000  1
 Sr  Sr1  1  0.75000  0.75000  0.75000  1
