CIF file written using JARVIS-Tools package.
data_Mn2InCu4Sn
_symmetry_space_group_name_H-M  'R-3m'
_cell_length_a       7.60611
_cell_length_b       7.60611
_cell_length_c       7.60611
_cell_angle_alpha    33.5054
_cell_angle_beta     33.5054
_cell_angle_gamma    33.5054

_symmetry_Int_Tables_number  166
_chemical_formula_structural  Mn2InCu4Sn
_chemical_formula_sum  Mn2InCu4Sn
_cell_volume  119.42468630946225
_cell_formula_units_Z  1
loop_
  _symmetry_equiv_pos_site_id
 _symmetry_equiv_pos_as_xyz
 1  'x, y, z'
loop_
 _atom_site_type_symbol
 _atom_site_label
 _atom_site_symmetry_multiplicity
 _atom_site_fract_x
 _atom_site_fract_y
 _atom_site_fract_z
 _atom_site_fract_occupancy
 Cu  Cu1  1  0.62521  0.62521  0.62521  1
 Cu  Cu2  1  0.12462  0.12462  0.12462  1
 Cu  Cu3  1  0.87538  0.87538  0.87538  1
 Cu  Cu4  1  0.37479  0.37479  0.37479  1
 In  In1  1  0.00000  0.00000  0.00000  1
 Mn  Mn1  1  0.25086  0.25086  0.25086  1
 Mn  Mn2  1  0.74914  0.74914  0.74914  1
 Sn  Sn1  1  0.50000  0.50000  0.50000  1
