CIF file written using JARVIS-Tools package.
data_CeCoRh
_symmetry_space_group_name_H-M  'Imma'
_cell_length_a       5.16274
_cell_length_b       5.16274
_cell_length_c       5.16275
_cell_angle_alpha    120.88
_cell_angle_beta     116.924
_cell_angle_gamma    91.9451

_symmetry_Int_Tables_number  74
_chemical_formula_structural  CeCoRh
_chemical_formula_sum  Ce2Co2Rh2
_cell_volume  98.71463508449467
_cell_formula_units_Z  2
loop_
  _symmetry_equiv_pos_site_id
 _symmetry_equiv_pos_as_xyz
 1  'x, y, z'
loop_
 _atom_site_type_symbol
 _atom_site_label
 _atom_site_symmetry_multiplicity
 _atom_site_fract_x
 _atom_site_fract_y
 _atom_site_fract_z
 _atom_site_fract_occupancy
 Ce  Ce1  1  0.36767  0.11767  0.25000  1
 Ce  Ce2  1  0.63233  0.88233  0.75000  1
 Co  Co1  1  -0.00000  0.50000  -0.00000  1
 Co  Co2  1  -0.00000  -0.00000  0.50000  1
 Rh  Rh1  1  0.50000  0.50000  0.00000  1
 Rh  Rh2  1  -0.00000  0.50000  0.50000  1
