CIF file written using JARVIS-Tools package.
data_HI3
_symmetry_space_group_name_H-M  'P-1'
_cell_length_a       4.36191
_cell_length_b       9.05021
_cell_length_c       7.18509
_cell_angle_alpha    98.2019
_cell_angle_beta     87.5277
_cell_angle_gamma    83.6204

_symmetry_Int_Tables_number  2
_chemical_formula_structural  HI3
_chemical_formula_sum  H2I6
_cell_volume  278.49790601809616
_cell_formula_units_Z  2
loop_
  _symmetry_equiv_pos_site_id
 _symmetry_equiv_pos_as_xyz
 1  'x, y, z'
loop_
 _atom_site_type_symbol
 _atom_site_label
 _atom_site_symmetry_multiplicity
 _atom_site_fract_x
 _atom_site_fract_y
 _atom_site_fract_z
 _atom_site_fract_occupancy
 H  H1  1  -0.15431  0.69560  0.55229  1
 H  H2  1  0.15431  0.30440  0.44771  1
 I  I1  1  0.38390  0.39122  0.74423  1
 I  I2  1  0.32778  0.89837  0.24290  1
 I  I3  1  -0.00452  0.75535  0.75835  1
 I  I4  1  0.61610  0.60878  0.25577  1
 I  I5  1  0.67222  0.10163  0.75710  1
 I  I6  1  0.00452  0.24465  0.24165  1
