CIF file written using JARVIS-Tools package.
data_LiUI6
_symmetry_space_group_name_H-M  'C2'
_cell_length_a       7.31589
_cell_length_b       7.31589
_cell_length_c       7.24232
_cell_angle_alpha    80.6157
_cell_angle_beta     80.6157
_cell_angle_gamma    119.78

_symmetry_Int_Tables_number  5
_chemical_formula_structural  LiUI6
_chemical_formula_sum  LiUI6
_cell_volume  318.1663682212723
_cell_formula_units_Z  1
loop_
  _symmetry_equiv_pos_site_id
 _symmetry_equiv_pos_as_xyz
 1  'x, y, z'
loop_
 _atom_site_type_symbol
 _atom_site_label
 _atom_site_symmetry_multiplicity
 _atom_site_fract_x
 _atom_site_fract_y
 _atom_site_fract_z
 _atom_site_fract_occupancy
 I  I1  1  0.25333  0.25818  0.23856  1
 I  I2  1  0.74182  0.74667  0.76144  1
 I  I3  1  0.07036  0.40432  0.74742  1
 I  I4  1  0.39988  0.07998  0.75032  1
 I  I5  1  0.92002  0.60012  0.24968  1
 I  I6  1  0.59568  0.92964  0.25258  1
 Li  Li1  1  0.85398  0.14602  0.50000  1
 U  U1  1  -0.00107  0.00107  0.00000  1
