CIF file written using JARVIS-Tools package.
data_Li2Ti2Sb2O
_symmetry_space_group_name_H-M  'I4/mmm'
_cell_length_a       7.91987
_cell_length_b       7.91987
_cell_length_c       7.91987
_cell_angle_alpha    150.039
_cell_angle_beta     150.039
_cell_angle_gamma    42.8838

_symmetry_Int_Tables_number  139
_chemical_formula_structural  Li2Ti2Sb2O
_chemical_formula_sum  Li2Ti2Sb2O
_cell_volume  123.58003085736837
_cell_formula_units_Z  1
loop_
  _symmetry_equiv_pos_site_id
 _symmetry_equiv_pos_as_xyz
 1  'x, y, z'
loop_
 _atom_site_type_symbol
 _atom_site_label
 _atom_site_symmetry_multiplicity
 _atom_site_fract_x
 _atom_site_fract_y
 _atom_site_fract_z
 _atom_site_fract_occupancy
 Li  Li1  1  0.66816  0.66816  0.00000  1
 Li  Li2  1  0.33184  0.33184  -0.00000  1
 O  O1  1  0.50000  0.50000  -0.00000  1
 Sb  Sb1  1  0.85992  0.85992  0.00000  1
 Sb  Sb2  1  0.14008  0.14008  -0.00000  1
 Ti  Ti1  1  0.50000  -0.00000  0.50000  1
 Ti  Ti2  1  0.00000  0.50000  0.50000  1
