CIF file written using JARVIS-Tools package.
data_SrCu2O3
_symmetry_space_group_name_H-M  'Cmmm'
_cell_length_a       3.50745
_cell_length_b       3.97607
_cell_length_c       6.12575
_cell_angle_alpha    108.938
_cell_angle_beta     90
_cell_angle_gamma    90

_symmetry_Int_Tables_number  65
_chemical_formula_structural  SrCu2O3
_chemical_formula_sum  SrCu2O3
_cell_volume  80.80488843615977
_cell_formula_units_Z  1
loop_
  _symmetry_equiv_pos_site_id
 _symmetry_equiv_pos_as_xyz
 1  'x, y, z'
loop_
 _atom_site_type_symbol
 _atom_site_label
 _atom_site_symmetry_multiplicity
 _atom_site_fract_x
 _atom_site_fract_y
 _atom_site_fract_z
 _atom_site_fract_occupancy
 Cu  Cu1  1  0.00000  0.33482  0.66964  1
 Cu  Cu2  1  0.00000  0.66518  0.33036  1
 O  O1  1  0.00000  0.82989  0.65978  1
 O  O2  1  0.00000  0.17011  0.34022  1
 O  O3  1  0.00000  0.50000  -0.00000  1
 Sr  Sr1  1  0.50000  0.00000  0.00000  1
