CIF file written using JARVIS-Tools package.
data_ReSi
_symmetry_space_group_name_H-M  'P2_13'
_cell_length_a       4.82701
_cell_length_b       4.82701
_cell_length_c       4.82701
_cell_angle_alpha    90
_cell_angle_beta     90
_cell_angle_gamma    90

_symmetry_Int_Tables_number  198
_chemical_formula_structural  ReSi
_chemical_formula_sum  Re4Si4
_cell_volume  112.4695798009657
_cell_formula_units_Z  4
loop_
  _symmetry_equiv_pos_site_id
 _symmetry_equiv_pos_as_xyz
 1  'x, y, z'
loop_
 _atom_site_type_symbol
 _atom_site_label
 _atom_site_symmetry_multiplicity
 _atom_site_fract_x
 _atom_site_fract_y
 _atom_site_fract_z
 _atom_site_fract_occupancy
 Re  Re1  1  0.86731  0.63269  0.36731  1
 Re  Re2  1  0.63269  0.36731  0.86731  1
 Re  Re3  1  0.36731  0.86731  0.63269  1
 Re  Re4  1  0.13269  0.13269  0.13269  1
 Si  Si1  1  0.15632  0.34368  0.65632  1
 Si  Si2  1  0.34368  0.65632  0.15632  1
 Si  Si3  1  0.65632  0.15632  0.34368  1
 Si  Si4  1  0.84368  0.84368  0.84368  1
