CIF file written using JARVIS-Tools package.
data_Mn3TeO8
_symmetry_space_group_name_H-M  'P6_3mc'
_cell_length_a       5.73236
_cell_length_b       5.73234
_cell_length_c       9.82696
_cell_angle_alpha    89.9997
_cell_angle_beta     90.0001
_cell_angle_gamma    120

_symmetry_Int_Tables_number  186
_chemical_formula_structural  Mn3TeO8
_chemical_formula_sum  Mn6Te2O6
_cell_volume  279.6506021741724
_cell_formula_units_Z  2
loop_
  _symmetry_equiv_pos_site_id
 _symmetry_equiv_pos_as_xyz
 1  'x, y, z'
loop_
 _atom_site_type_symbol
 _atom_site_label
 _atom_site_symmetry_multiplicity
 _atom_site_fract_x
 _atom_site_fract_y
 _atom_site_fract_z
 _atom_site_fract_occupancy
 Mn  Mn1  1  0.16905  0.83107  0.21620  1
 Mn  Mn2  1  0.16906  0.33800  0.21621  1
 Mn  Mn3  1  0.66212  0.83107  0.21622  1
 Mn  Mn4  1  0.33788  0.16894  0.71622  1
 Mn  Mn5  1  0.83095  0.66202  0.71620  1
 Mn  Mn6  1  0.83094  0.16894  0.71621  1
 O  O1  1  0.15849  0.84142  0.60667  1
 O  O2  1  0.02707  0.51354  0.32214  1
 O  O3  1  0.33342  0.66672  0.11412  1
 O  O4  1  0.97293  0.48647  0.82214  1
 O  O5  1  0.99991  -0.00004  0.81039  1
 O  O6  1  0.15849  0.31708  0.60667  1
 O  O7  1  0.00009  0.00005  0.31039  1
 O  O8  1  0.48654  0.51357  0.32217  1
 O  O9  1  0.51346  0.48645  0.82217  1
 O  O10  1  0.68280  0.84141  0.60668  1
 O  O11  1  0.48654  0.97299  0.32217  1
 O  O12  1  0.51346  0.02702  0.82217  1
 O  O13  1  0.66658  0.33330  0.61412  1
 O  O14  1  0.84151  0.68293  0.10667  1
 O  O15  1  0.31720  0.15861  0.10668  1
 O  O16  1  0.84151  0.15860  0.10667  1
 Te  Te1  1  0.66672  0.33337  0.99820  1
 Te  Te2  1  0.33328  0.66665  0.49820  1
