CIF file written using JARVIS-Tools package.
data_RbAs2Ir2
_symmetry_space_group_name_H-M  'I4/mmm'
_cell_length_a       7.50129
_cell_length_b       7.50129
_cell_length_c       7.50129
_cell_angle_alpha    148.565
_cell_angle_beta     148.565
_cell_angle_gamma    45.0524

_symmetry_Int_Tables_number  139
_chemical_formula_structural  RbAs2Ir2
_chemical_formula_sum  RbAs2Ir2
_cell_volume  114.44766847593102
_cell_formula_units_Z  1
loop_
  _symmetry_equiv_pos_site_id
 _symmetry_equiv_pos_as_xyz
 1  'x, y, z'
loop_
 _atom_site_type_symbol
 _atom_site_label
 _atom_site_symmetry_multiplicity
 _atom_site_fract_x
 _atom_site_fract_y
 _atom_site_fract_z
 _atom_site_fract_occupancy
 As  As1  1  0.35208  0.35208  0.00000  1
 As  As2  1  0.64792  0.64792  -0.00000  1
 Ir  Ir1  1  0.75000  0.25000  0.50000  1
 Ir  Ir2  1  0.25000  0.75000  0.50000  1
 Rb  Rb1  1  0.00000  0.00000  0.00000  1
