CIF file written using JARVIS-Tools package.
data_SiCl2O
_symmetry_space_group_name_H-M  'P-1'
_cell_length_a       5.90071
_cell_length_b       8.05491
_cell_length_c       8.0777
_cell_angle_alpha    77.8713
_cell_angle_beta     81.4702
_cell_angle_gamma    72.8612

_symmetry_Int_Tables_number  2
_chemical_formula_structural  SiCl2O
_chemical_formula_sum  Si4Cl8O4
_cell_volume  357.154647337517
_cell_formula_units_Z  4
loop_
  _symmetry_equiv_pos_site_id
 _symmetry_equiv_pos_as_xyz
 1  'x, y, z'
loop_
 _atom_site_type_symbol
 _atom_site_label
 _atom_site_symmetry_multiplicity
 _atom_site_fract_x
 _atom_site_fract_y
 _atom_site_fract_z
 _atom_site_fract_occupancy
 Cl  Cl1  1  0.72956  0.33145  0.42601  1
 Cl  Cl2  1  0.27044  0.66855  0.57399  1
 Cl  Cl3  1  0.70744  0.88952  0.66511  1
 Cl  Cl4  1  0.29256  0.11048  0.33489  1
 Cl  Cl5  1  0.12096  0.11075  0.78364  1
 Cl  Cl6  1  0.87904  0.88925  0.21636  1
 Cl  Cl7  1  0.54985  0.28318  0.90328  1
 Cl  Cl8  1  0.45015  0.71682  0.09672  1
 O  O1  1  0.95478  0.30926  0.07209  1
 O  O2  1  0.04522  0.69074  0.92791  1
 O  O3  1  0.89460  0.49840  0.76191  1
 O  O4  1  0.10540  0.50160  0.23809  1
 Si  Si1  1  0.11551  0.68791  0.11501  1
 Si  Si2  1  0.88449  0.31209  0.88499  1
 Si  Si3  1  0.97830  0.67778  0.74408  1
 Si  Si4  1  0.02170  0.32222  0.25592  1
