CIF file written using JARVIS-Tools package.
data_Te3Mo2Se
_symmetry_space_group_name_H-M  'P3m1'
_cell_length_a       3.50871
_cell_length_b       3.50871
_cell_length_c       13.9708
_cell_angle_alpha    90
_cell_angle_beta     90
_cell_angle_gamma    120

_symmetry_Int_Tables_number  156
_chemical_formula_structural  Te3Mo2Se
_chemical_formula_sum  Te3Mo2Se
_cell_volume  148.95264802565242
_cell_formula_units_Z  1
loop_
  _symmetry_equiv_pos_site_id
 _symmetry_equiv_pos_as_xyz
 1  'x, y, z'
loop_
 _atom_site_type_symbol
 _atom_site_label
 _atom_site_symmetry_multiplicity
 _atom_site_fract_x
 _atom_site_fract_y
 _atom_site_fract_z
 _atom_site_fract_occupancy
 Mo  Mo1  1  0.66667  0.33333  0.75493  1
 Mo  Mo2  1  0.33333  0.66667  0.23897  1
 Se  Se1  1  0.66667  0.33333  0.12462  1
 Te  Te1  1  0.33333  0.66667  0.88637  1
 Te  Te2  1  0.33333  0.66667  0.62380  1
 Te  Te3  1  0.66667  0.33333  0.37131  1
