CIF file written using JARVIS-Tools package.
data_K4HgAs2
_symmetry_space_group_name_H-M  'R-3m'
_cell_length_a       9.89542
_cell_length_b       9.89542
_cell_length_c       9.89541
_cell_angle_alpha    33.5587
_cell_angle_beta     33.5587
_cell_angle_gamma    33.5587

_symmetry_Int_Tables_number  166
_chemical_formula_structural  K4HgAs2
_chemical_formula_sum  K4HgAs2
_cell_volume  263.73534430382585
_cell_formula_units_Z  1
loop_
  _symmetry_equiv_pos_site_id
 _symmetry_equiv_pos_as_xyz
 1  'x, y, z'
loop_
 _atom_site_type_symbol
 _atom_site_label
 _atom_site_symmetry_multiplicity
 _atom_site_fract_x
 _atom_site_fract_y
 _atom_site_fract_z
 _atom_site_fract_occupancy
 As  As1  1  0.90982  0.90982  0.90982  1
 As  As2  1  0.09018  0.09018  0.09018  1
 Hg  Hg1  1  0.00000  0.00000  0.00000  1
 K  K1  1  0.20754  0.20754  0.20754  1
 K  K2  1  0.79246  0.79246  0.79246  1
 K  K3  1  0.38792  0.38792  0.38792  1
 K  K4  1  0.61208  0.61208  0.61208  1
