CIF file written using JARVIS-Tools package.
data_Y2Al3Si2
_symmetry_space_group_name_H-M  'C2/m'
_cell_length_a       4.06043
_cell_length_b       5.50816
_cell_length_c       6.66199
_cell_angle_alpha    100.244
_cell_angle_beta     90
_cell_angle_gamma    111.628

_symmetry_Int_Tables_number  12
_chemical_formula_structural  Y2Al3Si2
_chemical_formula_sum  Y2Al3Si2
_cell_volume  135.9503420157833
_cell_formula_units_Z  1
loop_
  _symmetry_equiv_pos_site_id
 _symmetry_equiv_pos_as_xyz
 1  'x, y, z'
loop_
 _atom_site_type_symbol
 _atom_site_label
 _atom_site_symmetry_multiplicity
 _atom_site_fract_x
 _atom_site_fract_y
 _atom_site_fract_z
 _atom_site_fract_occupancy
 Al  Al1  1  0.69460  0.38920  0.86623  1
 Al  Al2  1  0.00000  0.00000  0.00000  1
 Al  Al3  1  0.30540  0.61080  0.13377  1
 Si  Si1  1  0.90657  0.81315  0.36082  1
 Si  Si2  1  0.09343  0.18685  0.63918  1
 Y  Y1  1  0.38040  0.76080  0.67882  1
 Y  Y2  1  0.61960  0.23920  0.32118  1
