CIF file written using JARVIS-Tools package.
data_GaHgO2
_symmetry_space_group_name_H-M  'R-3m'
_cell_length_a       7.00555
_cell_length_b       7.00555
_cell_length_c       7.00555
_cell_angle_alpha    25.0563
_cell_angle_beta     25.0563
_cell_angle_gamma    25.0562

_symmetry_Int_Tables_number  166
_chemical_formula_structural  GaHgO2
_chemical_formula_sum  GaHgO2
_cell_volume  54.25532624782258
_cell_formula_units_Z  1
loop_
  _symmetry_equiv_pos_site_id
 _symmetry_equiv_pos_as_xyz
 1  'x, y, z'
loop_
 _atom_site_type_symbol
 _atom_site_label
 _atom_site_symmetry_multiplicity
 _atom_site_fract_x
 _atom_site_fract_y
 _atom_site_fract_z
 _atom_site_fract_occupancy
 Ga  Ga1  1  0.50000  0.50000  0.50000  1
 Hg  Hg1  1  0.00000  0.00000  0.00000  1
 O  O1  1  0.11727  0.11727  0.11727  1
 O  O2  1  0.88273  0.88273  0.88273  1
