CIF file written using JARVIS-Tools package.
data_MoPdRu2
_symmetry_space_group_name_H-M  'P-6m2'
_cell_length_a       2.77228
_cell_length_b       2.77228
_cell_length_c       8.84587
_cell_angle_alpha    90
_cell_angle_beta     90
_cell_angle_gamma    120

_symmetry_Int_Tables_number  187
_chemical_formula_structural  MoPdRu2
_chemical_formula_sum  MoPdRu2
_cell_volume  58.8768015166797
_cell_formula_units_Z  1
loop_
  _symmetry_equiv_pos_site_id
 _symmetry_equiv_pos_as_xyz
 1  'x, y, z'
loop_
 _atom_site_type_symbol
 _atom_site_label
 _atom_site_symmetry_multiplicity
 _atom_site_fract_x
 _atom_site_fract_y
 _atom_site_fract_z
 _atom_site_fract_occupancy
 Mo  Mo1  1  0.33333  0.66667  0.00000  1
 Pd  Pd1  1  0.33333  0.66667  0.50000  1
 Ru  Ru1  1  0.00000  0.00000  0.24233  1
 Ru  Ru2  1  0.00000  0.00000  0.75767  1
