CIF file written using JARVIS-Tools package.
data_Fe2Si
_symmetry_space_group_name_H-M  'P4/mmm'
_cell_length_a       2.8061
_cell_length_b       2.8061
_cell_length_c       8.28472
_cell_angle_alpha    90
_cell_angle_beta     90
_cell_angle_gamma    90

_symmetry_Int_Tables_number  123
_chemical_formula_structural  Fe2Si
_chemical_formula_sum  Fe4Si2
_cell_volume  65.23539977983624
_cell_formula_units_Z  2
loop_
  _symmetry_equiv_pos_site_id
 _symmetry_equiv_pos_as_xyz
 1  'x, y, z'
loop_
 _atom_site_type_symbol
 _atom_site_label
 _atom_site_symmetry_multiplicity
 _atom_site_fract_x
 _atom_site_fract_y
 _atom_site_fract_z
 _atom_site_fract_occupancy
 Fe  Fe1  1  0.00000  0.00000  0.82712  1
 Fe  Fe2  1  0.00000  0.00000  0.17288  1
 Fe  Fe3  1  0.00000  0.00000  0.50000  1
 Fe  Fe4  1  0.50000  0.50000  0.00000  1
 Si  Si1  1  0.50000  0.50000  0.33174  1
 Si  Si2  1  0.50000  0.50000  0.66826  1
