CIF file written using JARVIS-Tools package.
data_LiMnF3
_symmetry_space_group_name_H-M  'Cmcm'
_cell_length_a       5.97544
_cell_length_b       5.97544
_cell_length_c       5.35575
_cell_angle_alpha    90
_cell_angle_beta     90
_cell_angle_gamma    126.864

_symmetry_Int_Tables_number  63
_chemical_formula_structural  LiMnF3
_chemical_formula_sum  Li2Mn2F6
_cell_volume  152.99622032558077
_cell_formula_units_Z  2
loop_
  _symmetry_equiv_pos_site_id
 _symmetry_equiv_pos_as_xyz
 1  'x, y, z'
loop_
 _atom_site_type_symbol
 _atom_site_label
 _atom_site_symmetry_multiplicity
 _atom_site_fract_x
 _atom_site_fract_y
 _atom_site_fract_z
 _atom_site_fract_occupancy
 F  F1  1  0.74963  0.74973  0.73701  1
 F  F2  1  0.73015  0.26985  0.98639  1
 F  F3  1  0.74973  0.74963  0.23701  1
 F  F4  1  0.25027  0.25037  0.73701  1
 F  F5  1  0.26985  0.73015  0.48639  1
 F  F6  1  0.25037  0.25027  0.23701  1
 Li  Li1  1  0.56327  0.43673  0.98696  1
 Li  Li2  1  0.43673  0.56327  0.48696  1
 Mn  Mn1  1  0.90938  0.09062  0.98712  1
 Mn  Mn2  1  0.09062  0.90938  0.48712  1
