CIF file written using JARVIS-Tools package.
data_TiFeBi2O6
_symmetry_space_group_name_H-M  'R3'
_cell_length_a       5.65223
_cell_length_b       5.65217
_cell_length_c       5.64775
_cell_angle_alpha    90.0088
_cell_angle_beta     120.024
_cell_angle_gamma    119.994

_symmetry_Int_Tables_number  146
_chemical_formula_structural  TiFeBi2O6
_chemical_formula_sum  TiFeBi2O6
_cell_volume  127.53876550718398
_cell_formula_units_Z  1
loop_
  _symmetry_equiv_pos_site_id
 _symmetry_equiv_pos_as_xyz
 1  'x, y, z'
loop_
 _atom_site_type_symbol
 _atom_site_label
 _atom_site_symmetry_multiplicity
 _atom_site_fract_x
 _atom_site_fract_y
 _atom_site_fract_z
 _atom_site_fract_occupancy
 Bi  Bi1  1  0.00676  0.50335  0.51011  1
 Bi  Bi2  1  0.00374  0.00183  0.00562  1
 Fe  Fe1  1  0.46034  0.23015  0.69045  1
 O  O1  1  0.49243  0.93279  0.88392  1
 O  O2  1  0.34573  0.45791  0.38130  1
 O  O3  1  0.95111  0.55967  0.88399  1
 O  O4  1  0.32424  0.39143  0.88393  1
 O  O5  1  0.49338  0.03562  0.38121  1
 O  O6  1  0.92339  0.88785  0.38118  1
 Ti  Ti1  1  0.45688  0.72841  0.18529  1
