CIF file written using JARVIS-Tools package.
data_Al2ZnSe4
_symmetry_space_group_name_H-M  'I-4'
_cell_length_a       5.58534
_cell_length_b       5.58534
_cell_length_c       6.74877
_cell_angle_alpha    114.444
_cell_angle_beta     114.444
_cell_angle_gamma    90

_symmetry_Int_Tables_number  82
_chemical_formula_structural  Al2ZnSe4
_chemical_formula_sum  Al2ZnSe4
_cell_volume  170.71910322761678
_cell_formula_units_Z  1
loop_
  _symmetry_equiv_pos_site_id
 _symmetry_equiv_pos_as_xyz
 1  'x, y, z'
loop_
 _atom_site_type_symbol
 _atom_site_label
 _atom_site_symmetry_multiplicity
 _atom_site_fract_x
 _atom_site_fract_y
 _atom_site_fract_z
 _atom_site_fract_occupancy
 Al  Al1  1  0.25000  0.75000  0.50000  1
 Al  Al2  1  0.50000  0.50000  0.00000  1
 Se  Se1  1  0.39858  0.37887  0.26623  1
 Se  Se2  1  0.11264  0.60142  0.73377  1
 Se  Se3  1  0.62113  0.13235  0.73377  1
 Se  Se4  1  0.86765  0.88736  0.26623  1
 Zn  Zn1  1  0.00000  0.00000  0.00000  1
