CIF file written using JARVIS-Tools package.
data_Mg5Ag
_symmetry_space_group_name_H-M  'Amm2'
_cell_length_a       8.13407
_cell_length_b       8.13407
_cell_length_c       4.94572
_cell_angle_alpha    90
_cell_angle_beta     90
_cell_angle_gamma    157.521

_symmetry_Int_Tables_number  38
_chemical_formula_structural  Mg5Ag
_chemical_formula_sum  Mg5Ag
_cell_volume  125.11089979792153
_cell_formula_units_Z  1
loop_
  _symmetry_equiv_pos_site_id
 _symmetry_equiv_pos_as_xyz
 1  'x, y, z'
loop_
 _atom_site_type_symbol
 _atom_site_label
 _atom_site_symmetry_multiplicity
 _atom_site_fract_x
 _atom_site_fract_y
 _atom_site_fract_z
 _atom_site_fract_occupancy
 Ag  Ag1  1  0.22214  0.77786  0.00000  1
 Mg  Mg1  1  0.99958  0.00042  0.50000  1
 Mg  Mg2  1  0.67211  0.32789  0.50000  1
 Mg  Mg3  1  0.33242  0.66758  0.50000  1
 Mg  Mg4  1  0.56167  0.43833  0.00000  1
 Mg  Mg5  1  0.87876  0.12124  0.00000  1
