CIF file written using JARVIS-Tools package.
data_ErAu4
_symmetry_space_group_name_H-M  'I4/m'
_cell_length_a       4.19384
_cell_length_b       5.21595
_cell_length_c       5.21595
_cell_angle_alpha    80.699
_cell_angle_beta     66.2954
_cell_angle_gamma    66.2954

_symmetry_Int_Tables_number  87
_chemical_formula_structural  ErAu4
_chemical_formula_sum  ErAu4
_cell_volume  95.657466338372
_cell_formula_units_Z  1
loop_
  _symmetry_equiv_pos_site_id
 _symmetry_equiv_pos_as_xyz
 1  'x, y, z'
loop_
 _atom_site_type_symbol
 _atom_site_label
 _atom_site_symmetry_multiplicity
 _atom_site_fract_x
 _atom_site_fract_y
 _atom_site_fract_z
 _atom_site_fract_occupancy
 Au  Au1  1  0.59994  0.60003  0.20009  1
 Au  Au2  1  0.40006  0.39997  0.79991  1
 Au  Au3  1  0.19997  0.20009  0.39997  1
 Au  Au4  1  0.80003  0.79991  0.60003  1
 Er  Er1  1  0.00000  0.00000  0.00000  1
