CIF file written using JARVIS-Tools package.
data_IrC2
_symmetry_space_group_name_H-M  'I4/mcm'
_cell_length_a       4.17148
_cell_length_b       4.17148
_cell_length_c       4.17148
_cell_angle_alpha    101.677
_cell_angle_beta     113.503
_cell_angle_gamma    113.503

_symmetry_Int_Tables_number  140
_chemical_formula_structural  IrC2
_chemical_formula_sum  Ir2C4
_cell_volume  55.118346503155166
_cell_formula_units_Z  2
loop_
  _symmetry_equiv_pos_site_id
 _symmetry_equiv_pos_as_xyz
 1  'x, y, z'
loop_
 _atom_site_type_symbol
 _atom_site_label
 _atom_site_symmetry_multiplicity
 _atom_site_fract_x
 _atom_site_fract_y
 _atom_site_fract_z
 _atom_site_fract_occupancy
 C  C1  1  0.27672  0.88836  0.38836  1
 C  C2  1  0.72328  0.11164  0.61164  1
 C  C3  1  0.50000  0.61164  0.88836  1
 C  C4  1  0.50000  0.38836  0.11164  1
 Ir  Ir1  1  0.00000  0.75000  0.75000  1
 Ir  Ir2  1  0.00000  0.25000  0.25000  1
