CIF file written using JARVIS-Tools package.
data_BaYBr5
_symmetry_space_group_name_H-M  'C2/c'
_cell_length_a       7.10682
_cell_length_b       7.10682
_cell_length_c       11.2908
_cell_angle_alpha    71.5019
_cell_angle_beta     108.498
_cell_angle_gamma    113.095

_symmetry_Int_Tables_number  15
_chemical_formula_structural  BaYBr5
_chemical_formula_sum  Ba2Y2Br0
_cell_volume  485.154019168683
_cell_formula_units_Z  2
loop_
  _symmetry_equiv_pos_site_id
 _symmetry_equiv_pos_as_xyz
 1  'x, y, z'
loop_
 _atom_site_type_symbol
 _atom_site_label
 _atom_site_symmetry_multiplicity
 _atom_site_fract_x
 _atom_site_fract_y
 _atom_site_fract_z
 _atom_site_fract_occupancy
 Ba  Ba1  1  0.48508  0.48508  0.75000  1
 Ba  Ba2  1  0.51492  0.51492  0.25000  1
 Br  Br1  1  0.05223  0.62076  0.63113  1
 Br  Br2  1  0.79173  0.57090  0.02487  1
 Br  Br3  1  0.37924  0.94777  0.13113  1
 Br  Br4  1  0.05669  0.05669  0.75000  1
 Br  Br5  1  0.57090  0.79173  0.47513  1
 Br  Br6  1  0.42910  0.20827  0.52487  1
 Br  Br7  1  0.94331  0.94331  0.25000  1
 Br  Br8  1  0.62076  0.05223  0.86887  1
 Br  Br9  1  0.20827  0.42910  -0.02487  1
 Br  Br10  1  0.94777  0.37924  0.36887  1
 Y  Y1  1  -0.00000  -0.00000  0.50000  1
 Y  Y2  1  0.00000  0.00000  0.00000  1
