CIF file written using JARVIS-Tools package.
data_HfAlZn
_symmetry_space_group_name_H-M  'Imma'
_cell_length_a       5.22215
_cell_length_b       5.22215
_cell_length_c       5.22216
_cell_angle_alpha    120.457
_cell_angle_beta     119.225
_cell_angle_gamma    90.2791

_symmetry_Int_Tables_number  74
_chemical_formula_structural  HfAlZn
_chemical_formula_sum  Hf2Al2Zn2
_cell_volume  100.92731093387856
_cell_formula_units_Z  2
loop_
  _symmetry_equiv_pos_site_id
 _symmetry_equiv_pos_as_xyz
 1  'x, y, z'
loop_
 _atom_site_type_symbol
 _atom_site_label
 _atom_site_symmetry_multiplicity
 _atom_site_fract_x
 _atom_site_fract_y
 _atom_site_fract_z
 _atom_site_fract_occupancy
 Al  Al1  1  0.50000  0.50000  0.00000  1
 Al  Al2  1  0.00000  0.50000  0.50000  1
 Hf  Hf1  1  0.12316  0.87316  0.25000  1
 Hf  Hf2  1  0.87684  0.12684  0.75000  1
 Zn  Zn1  1  0.50000  0.50000  0.50000  1
 Zn  Zn2  1  0.50000  0.00000  0.00000  1
