CIF file written using JARVIS-Tools package.
data_ZrMnCu2Se4
_symmetry_space_group_name_H-M  'Cm'
_cell_length_a       6.69066
_cell_length_b       6.69066
_cell_length_c       6.17301
_cell_angle_alpha    64.4421
_cell_angle_beta     64.4421
_cell_angle_gamma    43.2454

_symmetry_Int_Tables_number  8
_chemical_formula_structural  ZrMnCu2Se4
_chemical_formula_sum  ZrMnCu2Se4
_cell_volume  167.70127871997192
_cell_formula_units_Z  1
loop_
  _symmetry_equiv_pos_site_id
 _symmetry_equiv_pos_as_xyz
 1  'x, y, z'
loop_
 _atom_site_type_symbol
 _atom_site_label
 _atom_site_symmetry_multiplicity
 _atom_site_fract_x
 _atom_site_fract_y
 _atom_site_fract_z
 _atom_site_fract_occupancy
 Cu  Cu1  1  0.03643  0.03643  0.38470  1
 Cu  Cu2  1  0.70500  0.70500  0.54610  1
 Mn  Mn1  1  0.24702  0.24702  0.76246  1
 Se  Se1  1  0.74065  0.74065  0.89682  1
 Se  Se2  1  0.25026  0.25026  0.34676  1
 Se  Se3  1  0.49321  0.49321  0.57773  1
 Se  Se4  1  0.00226  0.00226  0.02205  1
 Zr  Zr1  1  0.49309  0.49309  0.16087  1
