CIF file written using JARVIS-Tools package.
data_TaB
_symmetry_space_group_name_H-M  'Cmcm'
_cell_length_a       3.16435
_cell_length_b       3.30306
_cell_length_c       4.66839
_cell_angle_alpha    110.718
_cell_angle_beta     90
_cell_angle_gamma    90

_symmetry_Int_Tables_number  63
_chemical_formula_structural  TaB
_chemical_formula_sum  Ta2B2
_cell_volume  45.638828576448354
_cell_formula_units_Z  2
loop_
  _symmetry_equiv_pos_site_id
 _symmetry_equiv_pos_as_xyz
 1  'x, y, z'
loop_
 _atom_site_type_symbol
 _atom_site_label
 _atom_site_symmetry_multiplicity
 _atom_site_fract_x
 _atom_site_fract_y
 _atom_site_fract_z
 _atom_site_fract_occupancy
 B  B1  1  0.75000  0.44088  0.88176  1
 B  B2  1  0.25000  0.55912  0.11824  1
 Ta  Ta1  1  0.75000  0.14599  0.29198  1
 Ta  Ta2  1  0.25000  0.85401  0.70802  1
