CIF file written using JARVIS-Tools package.
data_TlBiPbS3
_symmetry_space_group_name_H-M  'Imm2'
_cell_length_a       7.53948
_cell_length_b       7.53947
_cell_length_c       7.53948
_cell_angle_alpha    148.1
_cell_angle_beta     133.433
_cell_angle_gamma    57.5563

_symmetry_Int_Tables_number  44
_chemical_formula_structural  TlBiPbS3
_chemical_formula_sum  TlBiPbS3
_cell_volume  163.21444354910568
_cell_formula_units_Z  1
loop_
  _symmetry_equiv_pos_site_id
 _symmetry_equiv_pos_as_xyz
 1  'x, y, z'
loop_
 _atom_site_type_symbol
 _atom_site_label
 _atom_site_symmetry_multiplicity
 _atom_site_fract_x
 _atom_site_fract_y
 _atom_site_fract_z
 _atom_site_fract_occupancy
 Bi  Bi1  1  0.33705  0.33705  -0.00000  1
 Pb  Pb1  1  0.66808  0.66808  -0.00000  1
 S  S1  1  0.48207  0.98207  0.50000  1
 S  S2  1  0.18831  0.68831  0.50000  1
 S  S3  1  0.81738  0.31738  0.50000  1
 Tl  Tl1  1  0.00711  0.00711  0.00000  1
