CIF file written using JARVIS-Tools package.
data_NaHO
_symmetry_space_group_name_H-M  'P2_1'
_cell_length_a       3.47361
_cell_length_b       3.39401
_cell_length_c       5.28034
_cell_angle_alpha    90
_cell_angle_beta     105.94
_cell_angle_gamma    90

_symmetry_Int_Tables_number  4
_chemical_formula_structural  NaHO
_chemical_formula_sum  Na2H2O2
_cell_volume  59.85877120896263
_cell_formula_units_Z  2
loop_
  _symmetry_equiv_pos_site_id
 _symmetry_equiv_pos_as_xyz
 1  'x, y, z'
loop_
 _atom_site_type_symbol
 _atom_site_label
 _atom_site_symmetry_multiplicity
 _atom_site_fract_x
 _atom_site_fract_y
 _atom_site_fract_z
 _atom_site_fract_occupancy
 H  H1  1  0.54484  0.07105  0.07584  1
 H  H2  1  0.45516  0.57105  0.92416  1
 Na  Na1  1  0.83250  0.20089  0.69456  1
 Na  Na2  1  0.16750  0.70089  0.30544  1
 O  O1  1  0.65226  0.22810  0.23649  1
 O  O2  1  0.34774  0.72810  0.76351  1
