CIF file written using JARVIS-Tools package.
data_Na4SrCaSi2
_symmetry_space_group_name_H-M  'P-4m2'
_cell_length_a       5.25366
_cell_length_b       5.25366
_cell_length_c       7.45615
_cell_angle_alpha    90
_cell_angle_beta     90
_cell_angle_gamma    90

_symmetry_Int_Tables_number  115
_chemical_formula_structural  Na4SrCaSi2
_chemical_formula_sum  Na4SrCaSi2
_cell_volume  205.79656490010433
_cell_formula_units_Z  1
loop_
  _symmetry_equiv_pos_site_id
 _symmetry_equiv_pos_as_xyz
 1  'x, y, z'
loop_
 _atom_site_type_symbol
 _atom_site_label
 _atom_site_symmetry_multiplicity
 _atom_site_fract_x
 _atom_site_fract_y
 _atom_site_fract_z
 _atom_site_fract_occupancy
 Ca  Ca1  1  0.50000  0.50000  0.50000  1
 Na  Na1  1  0.50000  0.00000  0.26926  1
 Na  Na2  1  0.00000  0.50000  0.73074  1
 Na  Na3  1  0.50000  0.50000  0.00000  1
 Na  Na4  1  0.00000  0.00000  0.50000  1
 Si  Si1  1  0.50000  0.00000  0.73798  1
 Si  Si2  1  0.00000  0.50000  0.26202  1
 Sr  Sr1  1  0.00000  0.00000  0.00000  1
