CIF file written using JARVIS-Tools package.
data_SmI3
_symmetry_space_group_name_H-M  'P6_3/mmc'
_cell_length_a       10.4914
_cell_length_b       10.4914
_cell_length_c       4.07158
_cell_angle_alpha    90
_cell_angle_beta     90
_cell_angle_gamma    120

_symmetry_Int_Tables_number  194
_chemical_formula_structural  SmI3
_chemical_formula_sum  Sm2I6
_cell_volume  388.1164976274141
_cell_formula_units_Z  2
loop_
  _symmetry_equiv_pos_site_id
 _symmetry_equiv_pos_as_xyz
 1  'x, y, z'
loop_
 _atom_site_type_symbol
 _atom_site_label
 _atom_site_symmetry_multiplicity
 _atom_site_fract_x
 _atom_site_fract_y
 _atom_site_fract_z
 _atom_site_fract_occupancy
 I  I1  1  0.20452  0.40905  0.25000  1
 I  I2  1  0.59095  0.79548  0.25000  1
 I  I3  1  0.20452  0.79548  0.25000  1
 I  I4  1  0.79548  0.59095  0.75000  1
 I  I5  1  0.40905  0.20452  0.75000  1
 I  I6  1  0.79548  0.20452  0.75000  1
 Sm  Sm1  1  0.33333  0.66667  0.75000  1
 Sm  Sm2  1  0.66667  0.33333  0.25000  1
