CIF file written using JARVIS-Tools package.
data_MnV2Si6
_symmetry_space_group_name_H-M  'C222'
_cell_length_a       4.52451
_cell_length_b       4.52452
_cell_length_c       6.3748
_cell_angle_alpha    90
_cell_angle_beta     90
_cell_angle_gamma    120.557

_symmetry_Int_Tables_number  21
_chemical_formula_structural  MnV2Si6
_chemical_formula_sum  MnV2Si6
_cell_volume  112.37681012944329
_cell_formula_units_Z  1
loop_
  _symmetry_equiv_pos_site_id
 _symmetry_equiv_pos_as_xyz
 1  'x, y, z'
loop_
 _atom_site_type_symbol
 _atom_site_label
 _atom_site_symmetry_multiplicity
 _atom_site_fract_x
 _atom_site_fract_y
 _atom_site_fract_z
 _atom_site_fract_occupancy
 Mn  Mn1  1  0.50000  0.50000  0.00000  1
 Si  Si1  1  0.16522  0.83478  0.00000  1
 Si  Si2  1  0.16620  0.32984  0.66823  1
 Si  Si3  1  0.67016  0.83380  0.33177  1
 Si  Si4  1  0.83478  0.16522  0.00000  1
 Si  Si5  1  0.83380  0.67016  0.66823  1
 Si  Si6  1  0.32984  0.16620  0.33177  1
 V  V1  1  0.50000  0.00000  0.66972  1
 V  V2  1  -0.00000  0.50000  0.33028  1
