CIF file written using JARVIS-Tools package.
data_LiCaSb
_symmetry_space_group_name_H-M  'F-43m'
_cell_length_a       4.70713
_cell_length_b       4.70714
_cell_length_c       4.70713
_cell_angle_alpha    60
_cell_angle_beta     59.9999
_cell_angle_gamma    60

_symmetry_Int_Tables_number  216
_chemical_formula_structural  LiCaSb
_chemical_formula_sum  LiCaSb
_cell_volume  73.74857741431967
_cell_formula_units_Z  1
loop_
  _symmetry_equiv_pos_site_id
 _symmetry_equiv_pos_as_xyz
 1  'x, y, z'
loop_
 _atom_site_type_symbol
 _atom_site_label
 _atom_site_symmetry_multiplicity
 _atom_site_fract_x
 _atom_site_fract_y
 _atom_site_fract_z
 _atom_site_fract_occupancy
 Ca  Ca1  1  0.50000  0.50000  0.50000  1
 Li  Li1  1  0.75000  0.75000  0.75000  1
 Sb  Sb1  1  0.00000  0.00000  0.00000  1
