CIF file written using JARVIS-Tools package.
data_SrLaMnO4
_symmetry_space_group_name_H-M  'I4mm'
_cell_length_a       3.86801
_cell_length_b       3.86801
_cell_length_c       6.88116
_cell_angle_alpha    73.6766
_cell_angle_beta     73.6766
_cell_angle_gamma    90

_symmetry_Int_Tables_number  107
_chemical_formula_structural  SrLaMnO4
_chemical_formula_sum  SrLaMnO4
_cell_volume  94.47040570003763
_cell_formula_units_Z  1
loop_
  _symmetry_equiv_pos_site_id
 _symmetry_equiv_pos_as_xyz
 1  'x, y, z'
loop_
 _atom_site_type_symbol
 _atom_site_label
 _atom_site_symmetry_multiplicity
 _atom_site_fract_x
 _atom_site_fract_y
 _atom_site_fract_z
 _atom_site_fract_occupancy
 La  La1  1  0.64163  0.64163  0.71674  1
 Mn  Mn1  1  0.99696  0.99696  0.00607  1
 O  O1  1  0.50468  0.00468  0.99065  1
 O  O2  1  0.00468  0.50468  0.99065  1
 O  O3  1  0.16525  0.16525  0.66949  1
 O  O4  1  0.82833  0.82833  0.34334  1
 Sr  Sr1  1  0.35847  0.35847  0.28306  1
