CIF file written using JARVIS-Tools package.
data_In3Ga
_symmetry_space_group_name_H-M  'I4/mmm'
_cell_length_a       5.66965
_cell_length_b       5.66965
_cell_length_c       5.66965
_cell_angle_alpha    130.711
_cell_angle_beta     130.711
_cell_angle_gamma    72.2732

_symmetry_Int_Tables_number  139
_chemical_formula_structural  In3Ga
_chemical_formula_sum  In3Ga
_cell_volume  102.3721889957969
_cell_formula_units_Z  1
loop_
  _symmetry_equiv_pos_site_id
 _symmetry_equiv_pos_as_xyz
 1  'x, y, z'
loop_
 _atom_site_type_symbol
 _atom_site_label
 _atom_site_symmetry_multiplicity
 _atom_site_fract_x
 _atom_site_fract_y
 _atom_site_fract_z
 _atom_site_fract_occupancy
 Ga  Ga1  1  0.00000  0.00000  0.00000  1
 In  In1  1  0.75000  0.25000  0.50000  1
 In  In2  1  0.25000  0.75000  0.50000  1
 In  In3  1  0.50000  0.50000  0.00000  1
