CIF file written using JARVIS-Tools package.
data_HgCl
_symmetry_space_group_name_H-M  'I4/mmm'
_cell_length_a       4.50278
_cell_length_b       4.50279
_cell_length_c       6.38366
_cell_angle_alpha    110.651
_cell_angle_beta     110.651
_cell_angle_gamma    90

_symmetry_Int_Tables_number  139
_chemical_formula_structural  HgCl
_chemical_formula_sum  Hg2Cl2
_cell_volume  112.18091327166778
_cell_formula_units_Z  2
loop_
  _symmetry_equiv_pos_site_id
 _symmetry_equiv_pos_as_xyz
 1  'x, y, z'
loop_
 _atom_site_type_symbol
 _atom_site_label
 _atom_site_symmetry_multiplicity
 _atom_site_fract_x
 _atom_site_fract_y
 _atom_site_fract_z
 _atom_site_fract_occupancy
 Cl  Cl1  1  0.65904  0.65904  0.31809  1
 Cl  Cl2  1  0.34096  0.34096  0.68191  1
 Hg  Hg1  1  0.88274  0.88274  0.76548  1
 Hg  Hg2  1  0.11726  0.11726  0.23452  1
