CIF file written using JARVIS-Tools package.
data_Sr2ZnP2
_symmetry_space_group_name_H-M  'P-6m2'
_cell_length_a       4.23199
_cell_length_b       4.23199
_cell_length_c       8.32051
_cell_angle_alpha    90
_cell_angle_beta     90
_cell_angle_gamma    120

_symmetry_Int_Tables_number  187
_chemical_formula_structural  Sr2ZnP2
_chemical_formula_sum  Sr2ZnP2
_cell_volume  129.05351923205902
_cell_formula_units_Z  1
loop_
  _symmetry_equiv_pos_site_id
 _symmetry_equiv_pos_as_xyz
 1  'x, y, z'
loop_
 _atom_site_type_symbol
 _atom_site_label
 _atom_site_symmetry_multiplicity
 _atom_site_fract_x
 _atom_site_fract_y
 _atom_site_fract_z
 _atom_site_fract_occupancy
 P  P1  1  0.66667  0.33333  0.50000  1
 P  P2  1  0.33333  0.66667  0.00000  1
 Sr  Sr1  1  0.00000  0.00000  0.70573  1
 Sr  Sr2  1  0.00000  0.00000  0.29427  1
 Zn  Zn1  1  0.66667  0.33333  0.00000  1
