CIF file written using JARVIS-Tools package.
data_U2TeSe
_symmetry_space_group_name_H-M  'R-3m'
_cell_length_a       7.10433
_cell_length_b       7.10433
_cell_length_c       7.10433
_cell_angle_alpha    35.0783
_cell_angle_beta     35.0782
_cell_angle_gamma    35.0782

_symmetry_Int_Tables_number  166
_chemical_formula_structural  U2TeSe
_chemical_formula_sum  U2TeSe
_cell_volume  105.7533952147534
_cell_formula_units_Z  1
loop_
  _symmetry_equiv_pos_site_id
 _symmetry_equiv_pos_as_xyz
 1  'x, y, z'
loop_
 _atom_site_type_symbol
 _atom_site_label
 _atom_site_symmetry_multiplicity
 _atom_site_fract_x
 _atom_site_fract_y
 _atom_site_fract_z
 _atom_site_fract_occupancy
 Se  Se1  1  0.00000  0.00000  0.00000  1
 Te  Te1  1  0.50000  0.50000  0.50000  1
 U  U1  1  0.26047  0.26047  0.26047  1
 U  U2  1  0.73953  0.73953  0.73953  1
