CIF file written using JARVIS-Tools package.
data_AlH3O3
_symmetry_space_group_name_H-M  'P1'
_cell_length_a       8.76648
_cell_length_b       5.03787
_cell_length_c       9.3669
_cell_angle_alpha    87.3404
_cell_angle_beta     92.0416
_cell_angle_gamma    88.879

_symmetry_Int_Tables_number  1
_chemical_formula_structural  AlH3O3
_chemical_formula_sum  Al8H24O24
_cell_volume  412.8821593400323
_cell_formula_units_Z  8
loop_
  _symmetry_equiv_pos_site_id
 _symmetry_equiv_pos_as_xyz
 1  'x, y, z'
loop_
 _atom_site_type_symbol
 _atom_site_label
 _atom_site_symmetry_multiplicity
 _atom_site_fract_x
 _atom_site_fract_y
 _atom_site_fract_z
 _atom_site_fract_occupancy
 Al  Al1  1  0.38880  0.94414  0.49207  1
 Al  Al2  1  0.71557  0.03836  0.49512  1
 Al  Al3  1  0.87761  0.50638  0.49706  1
 Al  Al4  1  0.21696  0.45435  0.49586  1
 Al  Al5  1  0.76988  0.06996  0.00363  1
 Al  Al6  1  0.11938  0.01666  0.00652  1
 Al  Al7  1  0.28221  0.50587  -0.00168  1
 Al  Al8  1  0.61260  0.56916  0.99557  1
 H  H1  1  0.03474  0.36054  0.28953  1
 H  H2  1  0.60004  0.65106  0.38762  1
 H  H3  1  0.50533  0.30689  0.59671  1
 H  H4  1  0.13989  0.02416  0.60751  1
 H  H5  1  0.42675  0.34511  0.31811  1
 H  H6  1  0.87335  0.16967  0.71805  1
 H  H7  1  0.23025  0.77940  0.28887  1
 H  H8  1  0.95764  0.38183  0.91642  1
 H  H9  1  0.97452  0.96003  0.41804  1
 H  H10  1  0.05236  0.44444  0.69347  1
 H  H11  1  0.64860  0.61987  0.62707  1
 H  H12  1  0.39650  0.62628  0.70741  1
 H  H13  1  0.91316  0.86497  0.24283  1
 H  H14  1  0.76719  0.75500  0.79369  1
 H  H15  1  0.41075  0.88079  0.87665  1
 H  H16  1  0.59445  0.21091  0.79342  1
 H  H17  1  0.36944  0.87811  0.13162  1
 H  H18  1  0.26027  0.18573  0.78577  1
 H  H19  1  0.49355  0.20532  0.10608  1
 H  H20  1  0.09485  0.71683  0.80271  1
 H  H21  1  -0.09113  0.66864  0.10989  1
 H  H22  1  0.60542  0.87253  0.21144  1
 H  H23  1  0.21800  0.25902  0.21300  1
 H  H24  1  0.74706  0.36017  0.22355  1
 O  O1  1  0.26338  0.19908  0.89212  1
 O  O2  1  0.23184  0.77534  0.39503  1
 O  O3  1  0.06325  0.58791  0.62068  1
 O  O4  1  0.03777  0.35400  0.39442  1
 O  O5  1  0.56430  0.84408  0.38523  1
 O  O6  1  0.54035  0.11794  0.60525  1
 O  O7  1  0.23547  0.12280  0.60843  1
 O  O8  1  0.72065  0.35955  0.39140  1
 O  O9  1  0.38973  0.61063  0.60128  1
 O  O10  1  0.86734  0.18766  0.61325  1
 O  O11  1  0.88408  0.85454  0.39323  1
 O  O12  1  0.26720  0.80643  0.11631  1
 O  O13  1  0.93457  0.85736  0.12986  1
 O  O14  1  0.46059  0.39378  0.10535  1
 O  O15  1  0.42997  0.68726  0.88338  1
 O  O16  1  0.63830  0.27386  0.88356  1
 O  O17  1  0.15356  0.30205  0.12501  1
 O  O18  1  0.75773  0.76667  0.89900  1
 O  O19  1  0.76820  0.37397  0.11469  1
 O  O20  1  0.95013  0.18737  0.91176  1
 O  O21  1  0.11178  0.70261  0.90759  1
 O  O22  1  0.34770  0.26190  0.37601  1
 O  O23  1  0.74604  0.70783  0.61444  1
 O  O24  1  0.61139  0.88573  0.10450  1
