CIF file written using JARVIS-Tools package.
data_Cr3SbO8
_symmetry_space_group_name_H-M  'P6_3mc'
_cell_length_a       5.8334
_cell_length_b       5.83342
_cell_length_c       9.24829
_cell_angle_alpha    90.0013
_cell_angle_beta     89.9993
_cell_angle_gamma    120

_symmetry_Int_Tables_number  186
_chemical_formula_structural  Cr3SbO8
_chemical_formula_sum  Cr6Sb2O6
_cell_volume  272.54423622813374
_cell_formula_units_Z  2
loop_
  _symmetry_equiv_pos_site_id
 _symmetry_equiv_pos_as_xyz
 1  'x, y, z'
loop_
 _atom_site_type_symbol
 _atom_site_label
 _atom_site_symmetry_multiplicity
 _atom_site_fract_x
 _atom_site_fract_y
 _atom_site_fract_z
 _atom_site_fract_occupancy
 Cr  Cr1  1  0.16968  0.83033  0.21271  1
 Cr  Cr2  1  0.16967  0.33935  0.21271  1
 Cr  Cr3  1  0.66062  0.83032  0.21272  1
 Cr  Cr4  1  0.33938  0.16970  0.71272  1
 Cr  Cr5  1  0.83032  0.66065  0.71271  1
 Cr  Cr6  1  0.83033  0.16969  0.71271  1
 O  O1  1  0.16488  0.83513  0.60336  1
 O  O2  1  0.03904  0.51953  0.33693  1
 O  O3  1  0.33332  0.66666  0.10557  1
 O  O4  1  0.96096  0.48049  0.83693  1
 O  O5  1  0.00003  0.00002  0.80128  1
 O  O6  1  0.16489  0.32978  0.60336  1
 O  O7  1  -0.00003  -0.00001  0.30128  1
 O  O8  1  0.48046  0.51952  0.33694  1
 O  O9  1  0.51953  0.48049  0.83694  1
 O  O10  1  0.67019  0.83511  0.60338  1
 O  O11  1  0.48047  0.96096  0.33694  1
 O  O12  1  0.51954  0.03906  0.83694  1
 O  O13  1  0.66668  0.33334  0.60557  1
 O  O14  1  0.83512  0.67025  0.10336  1
 O  O15  1  0.32981  0.16492  0.10338  1
 O  O16  1  0.83511  0.16489  0.10336  1
 Sb  Sb1  1  0.66669  0.33336  0.99198  1
 Sb  Sb2  1  0.33331  0.66667  0.49198  1
