CIF file written using JARVIS-Tools package.
data_LaSmS2
_symmetry_space_group_name_H-M  'R-3m'
_cell_length_a       7.09671
_cell_length_b       7.09671
_cell_length_c       7.09671
_cell_angle_alpha    33.3143
_cell_angle_beta     33.3142
_cell_angle_gamma    33.3143

_symmetry_Int_Tables_number  166
_chemical_formula_structural  LaSmS2
_chemical_formula_sum  LaSmS2
_cell_volume  95.99559413731512
_cell_formula_units_Z  1
loop_
  _symmetry_equiv_pos_site_id
 _symmetry_equiv_pos_as_xyz
 1  'x, y, z'
loop_
 _atom_site_type_symbol
 _atom_site_label
 _atom_site_symmetry_multiplicity
 _atom_site_fract_x
 _atom_site_fract_y
 _atom_site_fract_z
 _atom_site_fract_occupancy
 La  La1  1  0.00000  0.00000  0.00000  1
 S  S1  1  0.24620  0.24620  0.24620  1
 S  S2  1  0.75380  0.75380  0.75380  1
 Sm  Sm1  1  0.50000  0.50000  0.50000  1
