CIF file written using JARVIS-Tools package.
data_SrCo2Ge2
_symmetry_space_group_name_H-M  'I4/mmm'
_cell_length_a       4.02987
_cell_length_b       4.02987
_cell_length_c       6.1616
_cell_angle_alpha    109.088
_cell_angle_beta     109.088
_cell_angle_gamma    90

_symmetry_Int_Tables_number  139
_chemical_formula_structural  SrCo2Ge2
_chemical_formula_sum  SrCo2Ge2
_cell_volume  88.71963272391893
_cell_formula_units_Z  1
loop_
  _symmetry_equiv_pos_site_id
 _symmetry_equiv_pos_as_xyz
 1  'x, y, z'
loop_
 _atom_site_type_symbol
 _atom_site_label
 _atom_site_symmetry_multiplicity
 _atom_site_fract_x
 _atom_site_fract_y
 _atom_site_fract_z
 _atom_site_fract_occupancy
 Co  Co1  1  0.25000  0.75000  0.50000  1
 Co  Co2  1  0.75000  0.25000  0.50000  1
 Ge  Ge1  1  0.64095  0.64095  0.28191  1
 Ge  Ge2  1  0.35905  0.35905  0.71809  1
 Sr  Sr1  1  0.00000  0.00000  0.00000  1
