CIF file written using JARVIS-Tools package.
data_CaBiNO5
_symmetry_space_group_name_H-M  'Imm2'
_cell_length_a       7.79318
_cell_length_b       7.79317
_cell_length_c       7.79318
_cell_angle_alpha    152.624
_cell_angle_beta     146.501
_cell_angle_gamma    43.7879

_symmetry_Int_Tables_number  44
_chemical_formula_structural  CaBiNO5
_chemical_formula_sum  CaBiNO5
_cell_volume  119.79672598264041
_cell_formula_units_Z  1
loop_
  _symmetry_equiv_pos_site_id
 _symmetry_equiv_pos_as_xyz
 1  'x, y, z'
loop_
 _atom_site_type_symbol
 _atom_site_label
 _atom_site_symmetry_multiplicity
 _atom_site_fract_x
 _atom_site_fract_y
 _atom_site_fract_z
 _atom_site_fract_occupancy
 Bi  Bi1  1  0.18324  0.18324  -0.00000  1
 Ca  Ca1  1  0.82798  0.82798  -0.00000  1
 N  N1  1  0.50397  0.50397  0.00000  1
 O  O1  1  0.26886  0.76886  0.50000  1
 O  O2  1  0.73896  0.23896  0.50000  1
 O  O3  1  0.78913  0.54649  0.24264  1
 O  O4  1  0.30385  0.54649  0.75736  1
 O  O5  1  0.41502  0.41502  0.00000  1
