CIF file written using JARVIS-Tools package.
data_BaGe2
_symmetry_space_group_name_H-M  'I4_1/amd'
_cell_length_a       4.80692
_cell_length_b       4.80692
_cell_length_c       8.20539
_cell_angle_alpha    107.032
_cell_angle_beta     107.032
_cell_angle_gamma    90

_symmetry_Int_Tables_number  141
_chemical_formula_structural  BaGe2
_chemical_formula_sum  Ba2Ge4
_cell_volume  172.56564895311928
_cell_formula_units_Z  2
loop_
  _symmetry_equiv_pos_site_id
 _symmetry_equiv_pos_as_xyz
 1  'x, y, z'
loop_
 _atom_site_type_symbol
 _atom_site_label
 _atom_site_symmetry_multiplicity
 _atom_site_fract_x
 _atom_site_fract_y
 _atom_site_fract_z
 _atom_site_fract_occupancy
 Ba  Ba1  1  0.87500  0.62500  0.25000  1
 Ba  Ba2  1  0.12500  0.37500  0.75000  1
 Ge  Ge1  1  0.70821  0.95821  0.91642  1
 Ge  Ge2  1  0.45821  0.20821  0.41642  1
 Ge  Ge3  1  0.54179  0.79179  0.58358  1
 Ge  Ge4  1  0.29179  0.04179  0.08358  1
