CIF file written using JARVIS-Tools package.
data_Dy2Fe3Ni
_symmetry_space_group_name_H-M  'R-3m'
_cell_length_a       5.01176
_cell_length_b       5.01175
_cell_length_c       5.19054
_cell_angle_alpha    90
_cell_angle_beta     61.133
_cell_angle_gamma    120

_symmetry_Int_Tables_number  166
_chemical_formula_structural  Dy2Fe3Ni
_chemical_formula_sum  Dy2Fe3Ni
_cell_volume  93.7357617742058
_cell_formula_units_Z  1
loop_
  _symmetry_equiv_pos_site_id
 _symmetry_equiv_pos_as_xyz
 1  'x, y, z'
loop_
 _atom_site_type_symbol
 _atom_site_label
 _atom_site_symmetry_multiplicity
 _atom_site_fract_x
 _atom_site_fract_y
 _atom_site_fract_z
 _atom_site_fract_occupancy
 Dy  Dy1  1  0.50275  0.75137  0.74588  1
 Dy  Dy2  1  0.99725  0.99863  0.00412  1
 Fe  Fe1  1  0.25000  0.37500  0.37500  1
 Fe  Fe2  1  0.25000  0.87500  0.37500  1
 Fe  Fe3  1  0.75000  0.37500  0.37500  1
 Ni  Ni1  1  0.75000  0.37500  0.87500  1
