CIF file written using JARVIS-Tools package.
data_SmYNi2
_symmetry_space_group_name_H-M  'Amm2'
_cell_length_a       5.44715
_cell_length_b       5.44716
_cell_length_c       4.25019
_cell_angle_alpha    90
_cell_angle_beta     90
_cell_angle_gamma    139.994

_symmetry_Int_Tables_number  38
_chemical_formula_structural  SmYNi2
_chemical_formula_sum  SmYNi2
_cell_volume  81.07130264520192
_cell_formula_units_Z  1
loop_
  _symmetry_equiv_pos_site_id
 _symmetry_equiv_pos_as_xyz
 1  'x, y, z'
loop_
 _atom_site_type_symbol
 _atom_site_label
 _atom_site_symmetry_multiplicity
 _atom_site_fract_x
 _atom_site_fract_y
 _atom_site_fract_z
 _atom_site_fract_occupancy
 Ni  Ni1  1  0.42403  0.57597  0.00000  1
 Ni  Ni2  1  0.57439  0.42561  0.50000  1
 Sm  Sm1  1  0.13953  0.86047  0.00000  1
 Y  Y1  1  0.86205  0.13795  0.50000  1
