CIF file written using JARVIS-Tools package.
data_MnCrSi2
_symmetry_space_group_name_H-M  'P2_1'
_cell_length_a       4.56226
_cell_length_b       4.59379
_cell_length_c       4.58737
_cell_angle_alpha    89.499
_cell_angle_beta     90
_cell_angle_gamma    90

_symmetry_Int_Tables_number  4
_chemical_formula_structural  MnCrSi2
_chemical_formula_sum  Mn2Cr2Si4
_cell_volume  96.1388010712401
_cell_formula_units_Z  2
loop_
  _symmetry_equiv_pos_site_id
 _symmetry_equiv_pos_as_xyz
 1  'x, y, z'
loop_
 _atom_site_type_symbol
 _atom_site_label
 _atom_site_symmetry_multiplicity
 _atom_site_fract_x
 _atom_site_fract_y
 _atom_site_fract_z
 _atom_site_fract_occupancy
 Cr  Cr1  1  0.63643  0.63270  0.89124  1
 Cr  Cr2  1  0.13643  0.36730  0.10876  1
 Mn  Mn1  1  0.36315  0.86224  0.38524  1
 Mn  Mn2  1  0.86315  0.13776  0.61476  1
 Si  Si1  1  0.34565  0.34287  0.59145  1
 Si  Si2  1  0.84565  0.65713  0.40855  1
 Si  Si3  1  0.65477  0.14911  0.09729  1
 Si  Si4  1  0.15477  0.85089  0.90271  1
