CIF file written using JARVIS-Tools package.
data_CaLaGaO4
_symmetry_space_group_name_H-M  'I4mm'
_cell_length_a       6.79323
_cell_length_b       6.79323
_cell_length_c       6.79323
_cell_angle_alpha    147.357
_cell_angle_beta     147.357
_cell_angle_gamma    46.8354

_symmetry_Int_Tables_number  107
_chemical_formula_structural  CaLaGaO4
_chemical_formula_sum  CaLaGaO4
_cell_volume  90.87658651955925
_cell_formula_units_Z  1
loop_
  _symmetry_equiv_pos_site_id
 _symmetry_equiv_pos_as_xyz
 1  'x, y, z'
loop_
 _atom_site_type_symbol
 _atom_site_label
 _atom_site_symmetry_multiplicity
 _atom_site_fract_x
 _atom_site_fract_y
 _atom_site_fract_z
 _atom_site_fract_occupancy
 Ca  Ca1  1  0.64182  0.64182  0.00000  1
 Ga  Ga1  1  0.01220  0.01220  0.00000  1
 La  La1  1  0.35657  0.35657  -0.00000  1
 O  O1  1  0.99733  0.49733  0.50000  1
 O  O2  1  0.49733  0.99733  0.50000  1
 O  O3  1  0.82518  0.82518  -0.00000  1
 O  O4  1  0.16957  0.16957  0.00000  1
