CIF file written using JARVIS-Tools package.
data_SnTe2Pd6
_symmetry_space_group_name_H-M  'I4mm'
_cell_length_a       10.8358
_cell_length_b       10.8358
_cell_length_c       10.8358
_cell_angle_alpha    158.251
_cell_angle_beta     158.251
_cell_angle_gamma    30.948

_symmetry_Int_Tables_number  107
_chemical_formula_structural  SnTe2Pd6
_chemical_formula_sum  SnTe2Pd6
_cell_volume  174.5640386401046
_cell_formula_units_Z  1
loop_
  _symmetry_equiv_pos_site_id
 _symmetry_equiv_pos_as_xyz
 1  'x, y, z'
loop_
 _atom_site_type_symbol
 _atom_site_label
 _atom_site_symmetry_multiplicity
 _atom_site_fract_x
 _atom_site_fract_y
 _atom_site_fract_z
 _atom_site_fract_occupancy
 Pd  Pd1  1  0.90633  0.40633  0.50000  1
 Pd  Pd2  1  0.40633  0.90633  0.50000  1
 Pd  Pd3  1  0.09583  0.59583  0.50000  1
 Pd  Pd4  1  0.59583  0.09583  0.50000  1
 Pd  Pd5  1  0.50132  0.50132  -0.00000  1
 Pd  Pd6  1  0.80338  0.80338  -0.00000  1
 Sn  Sn1  1  0.99961  0.99961  0.00000  1
 Te  Te1  1  0.67760  0.67760  0.00000  1
 Te  Te2  1  0.31638  0.31638  -0.00000  1
