CIF file written using JARVIS-Tools package.
data_CdAg2SnSe4
_symmetry_space_group_name_H-M  'Pm'
_cell_length_a       4.29115
_cell_length_b       7.09889
_cell_length_c       7.52158
_cell_angle_alpha    90.4997
_cell_angle_beta     90
_cell_angle_gamma    90

_symmetry_Int_Tables_number  6
_chemical_formula_structural  CdAg2SnSe4
_chemical_formula_sum  CdAg2SnSe4
_cell_volume  229.1166071983604
_cell_formula_units_Z  1
loop_
  _symmetry_equiv_pos_site_id
 _symmetry_equiv_pos_as_xyz
 1  'x, y, z'
loop_
 _atom_site_type_symbol
 _atom_site_label
 _atom_site_symmetry_multiplicity
 _atom_site_fract_x
 _atom_site_fract_y
 _atom_site_fract_z
 _atom_site_fract_occupancy
 Ag  Ag1  1  0.50000  0.13128  0.32570  1
 Ag  Ag2  1  0.50000  0.64688  0.69203  1
 Cd  Cd1  1  0.00000  0.10765  0.82518  1
 Se  Se1  1  0.50000  0.50534  0.34157  1
 Se  Se2  1  0.00000  0.49403  0.84107  1
 Se  Se3  1  0.50000  0.00942  0.65154  1
 Se  Se4  1  0.00000  0.99443  0.16417  1
 Sn  Sn1  1  0.00000  0.63137  0.15873  1
