CIF file written using JARVIS-Tools package.
data_MnIn2Te4
_symmetry_space_group_name_H-M  'I-4'
_cell_length_a       7.66362
_cell_length_b       7.66362
_cell_length_c       7.66362
_cell_angle_alpha    131.969
_cell_angle_beta     131.969
_cell_angle_gamma    70.2783

_symmetry_Int_Tables_number  82
_chemical_formula_structural  MnIn2Te4
_chemical_formula_sum  MnIn2Te4
_cell_volume  243.86237108687538
_cell_formula_units_Z  1
loop_
  _symmetry_equiv_pos_site_id
 _symmetry_equiv_pos_as_xyz
 1  'x, y, z'
loop_
 _atom_site_type_symbol
 _atom_site_label
 _atom_site_symmetry_multiplicity
 _atom_site_fract_x
 _atom_site_fract_y
 _atom_site_fract_z
 _atom_site_fract_occupancy
 In  In1  1  0.00000  0.00000  0.00000  1
 In  In2  1  0.25000  0.75000  0.50000  1
 Mn  Mn1  1  0.75000  0.25000  0.50000  1
 Te  Te1  1  0.82834  0.38541  0.98180  1
 Te  Te2  1  0.40360  0.84653  0.01820  1
 Te  Te3  1  0.15347  0.17166  0.55707  1
 Te  Te4  1  0.61459  0.59640  0.44293  1
