CIF file written using JARVIS-Tools package.
data_KBiS2
_symmetry_space_group_name_H-M  'R-3m'
_cell_length_a       7.74186
_cell_length_b       7.74186
_cell_length_c       7.74186
_cell_angle_alpha    31.015
_cell_angle_beta     31.015
_cell_angle_gamma    31.0151

_symmetry_Int_Tables_number  166
_chemical_formula_structural  KBiS2
_chemical_formula_sum  KBiS2
_cell_volume  109.29091171576509
_cell_formula_units_Z  1
loop_
  _symmetry_equiv_pos_site_id
 _symmetry_equiv_pos_as_xyz
 1  'x, y, z'
loop_
 _atom_site_type_symbol
 _atom_site_label
 _atom_site_symmetry_multiplicity
 _atom_site_fract_x
 _atom_site_fract_y
 _atom_site_fract_z
 _atom_site_fract_occupancy
 Bi  Bi1  1  0.00000  0.00000  0.00000  1
 K  K1  1  0.50000  0.50000  0.50000  1
 S  S1  1  0.26128  0.26128  0.26128  1
 S  S2  1  0.73872  0.73872  0.73872  1
