CIF file written using JARVIS-Tools package.
data_Zr2Fe
_symmetry_space_group_name_H-M  'I4/mcm'
_cell_length_a       5.26135
_cell_length_b       5.26135
_cell_length_c       5.26135
_cell_angle_alpha    107.288
_cell_angle_beta     107.288
_cell_angle_gamma    113.932

_symmetry_Int_Tables_number  140
_chemical_formula_structural  Zr2Fe
_chemical_formula_sum  Zr4Fe2
_cell_volume  111.60275368715757
_cell_formula_units_Z  2
loop_
  _symmetry_equiv_pos_site_id
 _symmetry_equiv_pos_as_xyz
 1  'x, y, z'
loop_
 _atom_site_type_symbol
 _atom_site_label
 _atom_site_symmetry_multiplicity
 _atom_site_fract_x
 _atom_site_fract_y
 _atom_site_fract_z
 _atom_site_fract_occupancy
 Fe  Fe1  1  0.25000  0.25000  -0.00000  1
 Fe  Fe2  1  0.75000  0.75000  -0.00000  1
 Zr  Zr1  1  0.67913  0.17913  0.85826  1
 Zr  Zr2  1  0.17913  0.32087  0.50000  1
 Zr  Zr3  1  0.82087  0.67913  0.50000  1
 Zr  Zr4  1  0.32087  0.82087  0.14174  1
