CIF file written using JARVIS-Tools package.
data_HfPbN2
_symmetry_space_group_name_H-M  'P4/nmm'
_cell_length_a       4.03582
_cell_length_b       4.03582
_cell_length_c       8.01133
_cell_angle_alpha    90
_cell_angle_beta     90
_cell_angle_gamma    90

_symmetry_Int_Tables_number  129
_chemical_formula_structural  HfPbN2
_chemical_formula_sum  Hf2Pb2N4
_cell_volume  130.48719147036326
_cell_formula_units_Z  2
loop_
  _symmetry_equiv_pos_site_id
 _symmetry_equiv_pos_as_xyz
 1  'x, y, z'
loop_
 _atom_site_type_symbol
 _atom_site_label
 _atom_site_symmetry_multiplicity
 _atom_site_fract_x
 _atom_site_fract_y
 _atom_site_fract_z
 _atom_site_fract_occupancy
 Hf  Hf1  1  0.75000  0.75000  0.59621  1
 Hf  Hf2  1  0.25000  0.25000  0.40379  1
 N  N1  1  0.75000  0.25000  0.50000  1
 N  N2  1  0.25000  0.75000  0.50000  1
 N  N3  1  0.75000  0.75000  0.85022  1
 N  N4  1  0.25000  0.25000  0.14978  1
 Pb  Pb1  1  0.75000  0.75000  0.13722  1
 Pb  Pb2  1  0.25000  0.25000  0.86278  1
