CIF file written using JARVIS-Tools package.
data_Dy2V2O7
_symmetry_space_group_name_H-M  'C2/m'
_cell_length_a       5.78979
_cell_length_b       5.78979
_cell_length_c       5.16238
_cell_angle_alpha    83.6929
_cell_angle_beta     96.3071
_cell_angle_gamma    71.2459

_symmetry_Int_Tables_number  12
_chemical_formula_structural  Dy2V2O7
_chemical_formula_sum  Dy2V2O7
_cell_volume  160.92274770439997
_cell_formula_units_Z  1
loop_
  _symmetry_equiv_pos_site_id
 _symmetry_equiv_pos_as_xyz
 1  'x, y, z'
loop_
 _atom_site_type_symbol
 _atom_site_label
 _atom_site_symmetry_multiplicity
 _atom_site_fract_x
 _atom_site_fract_y
 _atom_site_fract_z
 _atom_site_fract_occupancy
 Dy  Dy1  1  0.31048  0.31048  0.50000  1
 Dy  Dy2  1  0.68952  0.68952  0.50000  1
 O  O1  1  0.07025  0.60684  0.71115  1
 O  O2  1  0.39316  0.92975  0.71115  1
 O  O3  1  0.41528  0.58472  0.22301  1
 O  O4  1  0.58472  0.41528  0.77699  1
 O  O5  1  0.00000  0.00000  0.00000  1
 O  O6  1  0.60684  0.07025  0.28885  1
 O  O7  1  0.92975  0.39316  0.28885  1
 V  V1  1  0.24119  0.75881  0.90408  1
 V  V2  1  0.75881  0.24119  0.09592  1
