CIF file written using JARVIS-Tools package.
data_Ti5CN4
_symmetry_space_group_name_H-M  'R-3m'
_cell_length_a       12.4375
_cell_length_b       12.4375
_cell_length_c       12.4375
_cell_angle_alpha    13.9268
_cell_angle_beta     13.9268
_cell_angle_gamma    13.9268

_symmetry_Int_Tables_number  166
_chemical_formula_structural  Ti5CN4
_chemical_formula_sum  Ti5CN4
_cell_volume  96.99535371176728
_cell_formula_units_Z  1
loop_
  _symmetry_equiv_pos_site_id
 _symmetry_equiv_pos_as_xyz
 1  'x, y, z'
loop_
 _atom_site_type_symbol
 _atom_site_label
 _atom_site_symmetry_multiplicity
 _atom_site_fract_x
 _atom_site_fract_y
 _atom_site_fract_z
 _atom_site_fract_occupancy
 C  C1  1  0.50000  0.50000  0.50000  1
 N  N1  1  0.09895  0.09895  0.09895  1
 N  N2  1  0.69983  0.69983  0.69983  1
 N  N3  1  0.30017  0.30017  0.30017  1
 N  N4  1  0.90105  0.90105  0.90105  1
 Ti  Ti1  1  0.60056  0.60056  0.60056  1
 Ti  Ti2  1  0.00000  0.00000  0.00000  1
 Ti  Ti3  1  0.39944  0.39944  0.39944  1
 Ti  Ti4  1  0.19992  0.19992  0.19992  1
 Ti  Ti5  1  0.80008  0.80008  0.80008  1
