CIF file written using JARVIS-Tools package.
data_LiCoNiO4
_symmetry_space_group_name_H-M  'Imma'
_cell_length_a       5.66349
_cell_length_b       5.6635
_cell_length_c       5.66352
_cell_angle_alpha    119.606
_cell_angle_beta     60.3094
_cell_angle_gamma    89.39

_symmetry_Int_Tables_number  74
_chemical_formula_structural  LiCoNiO4
_chemical_formula_sum  Li2Co2Ni2O8
_cell_volume  129.12688760562185
_cell_formula_units_Z  2
loop_
  _symmetry_equiv_pos_site_id
 _symmetry_equiv_pos_as_xyz
 1  'x, y, z'
loop_
 _atom_site_type_symbol
 _atom_site_label
 _atom_site_symmetry_multiplicity
 _atom_site_fract_x
 _atom_site_fract_y
 _atom_site_fract_z
 _atom_site_fract_occupancy
 Co  Co1  1  0.00000  0.00000  0.00000  1
 Co  Co2  1  0.50000  -0.00000  0.50000  1
 Li  Li1  1  0.50000  0.00000  0.00000  1
 Li  Li2  1  0.50000  0.50000  0.50000  1
 Ni  Ni1  1  -0.00000  0.50000  0.00000  1
 Ni  Ni2  1  -0.00000  -0.00000  0.50000  1
 O  O1  1  0.21395  0.76356  0.02250  1
 O  O2  1  0.23955  0.22929  0.96884  1
 O  O3  1  0.24106  0.23644  0.52249  1
 O  O4  1  0.23955  0.79162  0.53116  1
 O  O5  1  0.76045  0.20838  0.46884  1
 O  O6  1  0.75894  0.76356  0.47751  1
 O  O7  1  0.76045  0.77071  0.03116  1
 O  O8  1  0.78605  0.23644  0.97751  1
