CIF file written using JARVIS-Tools package.
data_SrCeAlO4
_symmetry_space_group_name_H-M  'I4mm'
_cell_length_a       6.76931
_cell_length_b       6.76931
_cell_length_c       6.76932
_cell_angle_alpha    147.82
_cell_angle_beta     147.82
_cell_angle_gamma    46.1517

_symmetry_Int_Tables_number  107
_chemical_formula_structural  SrCeAlO4
_chemical_formula_sum  SrCeAlO4
_cell_volume  87.68100428923486
_cell_formula_units_Z  1
loop_
  _symmetry_equiv_pos_site_id
 _symmetry_equiv_pos_as_xyz
 1  'x, y, z'
loop_
 _atom_site_type_symbol
 _atom_site_label
 _atom_site_symmetry_multiplicity
 _atom_site_fract_x
 _atom_site_fract_y
 _atom_site_fract_z
 _atom_site_fract_occupancy
 Al  Al1  1  0.00360  0.00360  0.00000  1
 Ce  Ce1  1  0.35667  0.35667  1.00000  1
 O  O1  1  0.99507  0.49507  0.50000  1
 O  O2  1  0.49507  0.99507  0.50000  1
 O  O3  1  0.83964  0.83964  0.00000  1
 O  O4  1  0.16605  0.16605  1.00000  1
 Sr  Sr1  1  0.64390  0.64390  0.00000  1
