CIF file written using JARVIS-Tools package.
data_KCuH3
_symmetry_space_group_name_H-M  'I4/mcm'
_cell_length_a       5.4008
_cell_length_b       5.40081
_cell_length_c       5.4008
_cell_angle_alpha    114.935
_cell_angle_beta     114.935
_cell_angle_gamma    99.0225

_symmetry_Int_Tables_number  140
_chemical_formula_structural  KCuH3
_chemical_formula_sum  K2Cu2H6
_cell_volume  118.32776762197027
_cell_formula_units_Z  2
loop_
  _symmetry_equiv_pos_site_id
 _symmetry_equiv_pos_as_xyz
 1  'x, y, z'
loop_
 _atom_site_type_symbol
 _atom_site_label
 _atom_site_symmetry_multiplicity
 _atom_site_fract_x
 _atom_site_fract_y
 _atom_site_fract_z
 _atom_site_fract_occupancy
 Cu  Cu1  1  0.50000  -0.00000  0.50000  1
 Cu  Cu2  1  0.00000  0.50000  0.50000  1
 H  H1  1  0.80770  0.30770  0.11540  1
 H  H2  1  0.75000  0.25000  0.50000  1
 H  H3  1  0.69230  0.80770  0.50000  1
 H  H4  1  0.25000  0.75000  0.50000  1
 H  H5  1  0.30770  0.19230  0.50000  1
 H  H6  1  0.19230  0.69230  0.88460  1
 K  K1  1  0.75000  0.75000  0.00000  1
 K  K2  1  0.25000  0.25000  0.00000  1
