CIF file written using JARVIS-Tools package.
data_TePb3Cl2O4
_symmetry_space_group_name_H-M  'Amm2'
_cell_length_a       6.86985
_cell_length_b       6.86985
_cell_length_c       5.61086
_cell_angle_alpha    90
_cell_angle_beta     90
_cell_angle_gamma    131.758

_symmetry_Int_Tables_number  38
_chemical_formula_structural  TePb3Cl2O4
_chemical_formula_sum  TePb3Cl2O4
_cell_volume  197.53473911834703
_cell_formula_units_Z  1
loop_
  _symmetry_equiv_pos_site_id
 _symmetry_equiv_pos_as_xyz
 1  'x, y, z'
loop_
 _atom_site_type_symbol
 _atom_site_label
 _atom_site_symmetry_multiplicity
 _atom_site_fract_x
 _atom_site_fract_y
 _atom_site_fract_z
 _atom_site_fract_occupancy
 Cl  Cl1  1  0.25976  0.74024  0.00000  1
 Cl  Cl2  1  0.74887  0.25113  0.50000  1
 O  O1  1  0.77282  0.76102  0.26657  1
 O  O2  1  0.77282  0.76102  0.73343  1
 O  O3  1  0.23898  0.22718  0.26657  1
 O  O4  1  0.23898  0.22718  0.73343  1
 Pb  Pb1  1  0.61151  0.38849  0.00000  1
 Pb  Pb2  1  0.38925  0.61075  0.50000  1
 Pb  Pb3  1  0.89512  0.10488  0.00000  1
 Te  Te1  1  0.07190  0.92810  0.50000  1
