CIF file written using JARVIS-Tools package.
data_Ca2Ti6N2O11
_symmetry_space_group_name_H-M  'Cm'
_cell_length_a       3.76052
_cell_length_b       7.66636
_cell_length_c       9.55699
_cell_angle_alpha    100.732
_cell_angle_beta     90.0049
_cell_angle_gamma    104.189

_symmetry_Int_Tables_number  8
_chemical_formula_structural  Ca2Ti6N2O11
_chemical_formula_sum  Ca2Ti6N2O
_cell_volume  262.1434010172773
_cell_formula_units_Z  1
loop_
  _symmetry_equiv_pos_site_id
 _symmetry_equiv_pos_as_xyz
 1  'x, y, z'
loop_
 _atom_site_type_symbol
 _atom_site_label
 _atom_site_symmetry_multiplicity
 _atom_site_fract_x
 _atom_site_fract_y
 _atom_site_fract_z
 _atom_site_fract_occupancy
 Ca  Ca1  1  0.55088  0.10300  0.73256  1
 Ca  Ca2  1  0.46769  0.93612  0.19528  1
 N  N1  1  0.29350  0.58830  0.58714  1
 N  N2  1  0.93712  0.87558  0.72780  1
 O  O1  1  0.87628  0.75450  0.40020  1
 O  O2  1  0.11693  0.23487  0.60961  1
 O  O3  1  0.14311  0.28732  0.88756  1
 O  O4  1  0.64072  0.28259  0.11321  1
 O  O5  1  0.05582  0.11250  0.30242  1
 O  O6  1  0.75137  0.50390  0.77111  1
 O  O7  1  0.23810  0.47746  0.24395  1
 O  O8  1  0.84611  0.69353  0.11474  1
 O  O9  1  0.69627  0.39368  0.42569  1
 O  O10  1  0.35574  0.71268  0.90019  1
 O  O11  1  0.00011  0.00137  0.02675  1
 Ti  Ti1  1  0.88855  0.77830  0.89384  1
 Ti  Ti2  1  0.83505  0.67150  0.57078  1
 Ti  Ti3  1  0.77645  0.55420  0.24461  1
 Ti  Ti4  1  0.23634  0.47383  0.74875  1
 Ti  Ti5  1  0.15897  0.31905  0.43459  1
 Ti  Ti6  1  0.12683  0.25481  0.06912  1
