CIF file written using JARVIS-Tools package.
data_MgAlCu3Se4
_symmetry_space_group_name_H-M  'P-43m'
_cell_length_a       5.77705
_cell_length_b       5.77705
_cell_length_c       5.77705
_cell_angle_alpha    90
_cell_angle_beta     90
_cell_angle_gamma    90

_symmetry_Int_Tables_number  215
_chemical_formula_structural  MgAlCu3Se4
_chemical_formula_sum  MgAlCu3Se4
_cell_volume  192.8052270261193
_cell_formula_units_Z  1
loop_
  _symmetry_equiv_pos_site_id
 _symmetry_equiv_pos_as_xyz
 1  'x, y, z'
loop_
 _atom_site_type_symbol
 _atom_site_label
 _atom_site_symmetry_multiplicity
 _atom_site_fract_x
 _atom_site_fract_y
 _atom_site_fract_z
 _atom_site_fract_occupancy
 Al  Al1  1  0.00000  0.00000  0.00000  1
 Cu  Cu1  1  0.00000  0.50000  0.00000  1
 Cu  Cu2  1  0.00000  0.00000  0.50000  1
 Cu  Cu3  1  0.50000  0.00000  0.00000  1
 Mg  Mg1  1  0.50000  0.50000  0.50000  1
 Se  Se1  1  0.24312  0.24312  0.24312  1
 Se  Se2  1  0.75688  0.75688  0.24312  1
 Se  Se3  1  0.24312  0.75688  0.75688  1
 Se  Se4  1  0.75688  0.24312  0.75688  1
