CIF file written using JARVIS-Tools package.
data_Li2TiTeO6
_symmetry_space_group_name_H-M  'Pnn2'
_cell_length_a       4.9074
_cell_length_b       5.09947
_cell_length_c       8.53321
_cell_angle_alpha    90
_cell_angle_beta     90
_cell_angle_gamma    90

_symmetry_Int_Tables_number  34
_chemical_formula_structural  Li2TiTeO6
_chemical_formula_sum  Li4Ti2Te2O2
_cell_volume  213.54499071540693
_cell_formula_units_Z  2
loop_
  _symmetry_equiv_pos_site_id
 _symmetry_equiv_pos_as_xyz
 1  'x, y, z'
loop_
 _atom_site_type_symbol
 _atom_site_label
 _atom_site_symmetry_multiplicity
 _atom_site_fract_x
 _atom_site_fract_y
 _atom_site_fract_z
 _atom_site_fract_occupancy
 Li  Li1  1  0.00000  0.00000  0.30659  1
 Li  Li2  1  0.50000  0.00000  0.17315  1
 Li  Li3  1  0.00000  0.50000  0.67315  1
 Li  Li4  1  0.50000  0.50000  0.80659  1
 O  O1  1  0.74313  0.84803  0.74386  1
 O  O2  1  0.29260  0.17643  0.41845  1
 O  O3  1  0.79541  0.82036  0.07373  1
 O  O4  1  0.29541  0.67964  0.57373  1
 O  O5  1  0.70740  0.82357  0.41845  1
 O  O6  1  0.24313  0.65197  0.24386  1
 O  O7  1  0.75687  0.34803  0.24386  1
 O  O8  1  0.70459  0.32036  0.57373  1
 O  O9  1  0.20740  0.67643  0.91845  1
 O  O10  1  0.20459  0.17964  0.07373  1
 O  O11  1  0.79260  0.32357  0.91845  1
 O  O12  1  0.25687  0.15197  0.74386  1
 Te  Te1  1  0.00000  0.50000  0.08684  1
 Te  Te2  1  0.50000  0.00000  0.58684  1
 Ti  Ti1  1  0.50000  0.50000  0.39080  1
 Ti  Ti2  1  0.00000  0.00000  0.89080  1
