CIF file written using JARVIS-Tools package.
data_NiO2
_symmetry_space_group_name_H-M  'C2/m'
_cell_length_a       2.82768
_cell_length_b       2.82766
_cell_length_c       9.23715
_cell_angle_alpha    72.5862
_cell_angle_beta     89.9903
_cell_angle_gamma    120.001

_symmetry_Int_Tables_number  12
_chemical_formula_structural  NiO2
_chemical_formula_sum  Ni2O4
_cell_volume  60.01931129659384
_cell_formula_units_Z  2
loop_
  _symmetry_equiv_pos_site_id
 _symmetry_equiv_pos_as_xyz
 1  'x, y, z'
loop_
 _atom_site_type_symbol
 _atom_site_label
 _atom_site_symmetry_multiplicity
 _atom_site_fract_x
 _atom_site_fract_y
 _atom_site_fract_z
 _atom_site_fract_occupancy
 Ni  Ni1  1  0.99726  -0.00108  0.50208  1
 Ni  Ni2  1  -0.00171  0.00055  0.00208  1
 O  O1  1  0.73482  0.47388  0.39359  1
 O  O2  1  0.59405  0.19219  0.11065  1
 O  O3  1  0.25973  0.52400  0.61057  1
 O  O4  1  0.40253  0.80890  0.89350  1
