CIF file written using JARVIS-Tools package.
data_TbZr3
_symmetry_space_group_name_H-M  'P-6m2'
_cell_length_a       3.29131
_cell_length_b       3.29131
_cell_length_c       10.5716
_cell_angle_alpha    90
_cell_angle_beta     90
_cell_angle_gamma    120

_symmetry_Int_Tables_number  187
_chemical_formula_structural  TbZr3
_chemical_formula_sum  TbZr3
_cell_volume  99.17713208945271
_cell_formula_units_Z  1
loop_
  _symmetry_equiv_pos_site_id
 _symmetry_equiv_pos_as_xyz
 1  'x, y, z'
loop_
 _atom_site_type_symbol
 _atom_site_label
 _atom_site_symmetry_multiplicity
 _atom_site_fract_x
 _atom_site_fract_y
 _atom_site_fract_z
 _atom_site_fract_occupancy
 Tb  Tb1  1  0.33333  0.66667  0.00000  1
 Zr  Zr1  1  0.33333  0.66667  0.50000  1
 Zr  Zr2  1  0.00000  0.00000  0.26150  1
 Zr  Zr3  1  0.00000  0.00000  0.73850  1
