CIF file written using JARVIS-Tools package.
data_CrFeAs4
_symmetry_space_group_name_H-M  'P2/m'
_cell_length_a       2.93472
_cell_length_b       5.43423
_cell_length_c       6.17592
_cell_angle_alpha    89.9333
_cell_angle_beta     90
_cell_angle_gamma    90

_symmetry_Int_Tables_number  10
_chemical_formula_structural  CrFeAs4
_chemical_formula_sum  CrFeAs4
_cell_volume  98.49322994997203
_cell_formula_units_Z  1
loop_
  _symmetry_equiv_pos_site_id
 _symmetry_equiv_pos_as_xyz
 1  'x, y, z'
loop_
 _atom_site_type_symbol
 _atom_site_label
 _atom_site_symmetry_multiplicity
 _atom_site_fract_x
 _atom_site_fract_y
 _atom_site_fract_z
 _atom_site_fract_occupancy
 As  As1  1  0.50000  0.31633  0.87148  1
 As  As2  1  0.50000  0.68367  0.12852  1
 As  As3  1  0.00000  0.83174  0.64321  1
 As  As4  1  0.00000  0.16826  0.35679  1
 Cr  Cr1  1  0.50000  0.50000  0.50000  1
 Fe  Fe1  1  0.00000  0.00000  0.00000  1
