CIF file written using JARVIS-Tools package.
data_CaEuH6Ru
_symmetry_space_group_name_H-M  'F-43m'
_cell_length_a       5.07865
_cell_length_b       5.07865
_cell_length_c       5.07865
_cell_angle_alpha    60
_cell_angle_beta     60.0001
_cell_angle_gamma    60

_symmetry_Int_Tables_number  216
_chemical_formula_structural  CaEuH6Ru
_chemical_formula_sum  CaEuH6Ru
_cell_volume  92.62511365543624
_cell_formula_units_Z  1
loop_
  _symmetry_equiv_pos_site_id
 _symmetry_equiv_pos_as_xyz
 1  'x, y, z'
loop_
 _atom_site_type_symbol
 _atom_site_label
 _atom_site_symmetry_multiplicity
 _atom_site_fract_x
 _atom_site_fract_y
 _atom_site_fract_z
 _atom_site_fract_occupancy
 Ca  Ca1  1  0.75000  0.75000  0.75000  1
 Eu  Eu1  1  0.25000  0.25000  0.25000  1
 H  H1  1  0.75648  0.75648  0.24352  1
 H  H2  1  0.24352  0.75648  0.24352  1
 H  H3  1  0.75648  0.24352  0.24352  1
 H  H4  1  0.24352  0.24352  0.75648  1
 H  H5  1  0.75648  0.24352  0.75648  1
 H  H6  1  0.24352  0.75648  0.75648  1
 Ru  Ru1  1  0.00000  0.00000  0.00000  1
