CIF file written using JARVIS-Tools package.
data_AsNO2F6
_symmetry_space_group_name_H-M  'C2/m'
_cell_length_a       4.8318
_cell_length_b       4.8318
_cell_length_c       5.40045
_cell_angle_alpha    83.5952
_cell_angle_beta     83.5951
_cell_angle_gamma    96.2578

_symmetry_Int_Tables_number  12
_chemical_formula_structural  AsNO2F6
_chemical_formula_sum  AsNO2F6
_cell_volume  123.56626646090017
_cell_formula_units_Z  1
loop_
  _symmetry_equiv_pos_site_id
 _symmetry_equiv_pos_as_xyz
 1  'x, y, z'
loop_
 _atom_site_type_symbol
 _atom_site_label
 _atom_site_symmetry_multiplicity
 _atom_site_fract_x
 _atom_site_fract_y
 _atom_site_fract_z
 _atom_site_fract_occupancy
 As  As1  1  0.00000  0.00000  0.00000  1
 F  F1  1  0.27878  0.27878  0.95590  1
 F  F2  1  0.18089  0.83512  0.76408  1
 F  F3  1  0.83512  0.18089  0.76408  1
 F  F4  1  0.16488  0.81911  0.23592  1
 F  F5  1  0.81911  0.16488  0.23592  1
 F  F6  1  0.72122  0.72122  0.04410  1
 N  N1  1  0.50000  0.50000  0.50000  1
 O  O1  1  0.65881  0.65881  0.56552  1
 O  O2  1  0.34119  0.34119  0.43448  1
