CIF file written using JARVIS-Tools package.
data_Y3Si2Ni2
_symmetry_space_group_name_H-M  'Immm'
_cell_length_a       8.95599
_cell_length_b       8.95598
_cell_length_c       8.95598
_cell_angle_alpha    153.741
_cell_angle_beta     153.548
_cell_angle_gamma    37.6171

_symmetry_Int_Tables_number  71
_chemical_formula_structural  Y3Si2Ni2
_chemical_formula_sum  Y3Si2Ni2
_cell_volume  141.36262701964992
_cell_formula_units_Z  1
loop_
  _symmetry_equiv_pos_site_id
 _symmetry_equiv_pos_as_xyz
 1  'x, y, z'
loop_
 _atom_site_type_symbol
 _atom_site_label
 _atom_site_symmetry_multiplicity
 _atom_site_fract_x
 _atom_site_fract_y
 _atom_site_fract_z
 _atom_site_fract_occupancy
 Ni  Ni1  1  0.43094  0.43094  0.00000  1
 Ni  Ni2  1  0.56906  0.56906  -0.00000  1
 Si  Si1  1  0.36129  0.86129  0.50000  1
 Si  Si2  1  0.63871  0.13871  0.50000  1
 Y  Y1  1  0.18102  0.68102  0.50000  1
 Y  Y2  1  0.81898  0.31898  0.50000  1
 Y  Y3  1  0.00000  0.00000  0.00000  1
