CIF file written using JARVIS-Tools package.
data_Zr2Al3Ni
_symmetry_space_group_name_H-M  'R-3m'
_cell_length_a       5.14192
_cell_length_b       5.14192
_cell_length_c       5.14193
_cell_angle_alpha    62.1912
_cell_angle_beta     62.1912
_cell_angle_gamma    62.1911

_symmetry_Int_Tables_number  166
_chemical_formula_structural  Zr2Al3Ni
_chemical_formula_sum  Zr2Al3Ni
_cell_volume  100.8355719249773
_cell_formula_units_Z  1
loop_
  _symmetry_equiv_pos_site_id
 _symmetry_equiv_pos_as_xyz
 1  'x, y, z'
loop_
 _atom_site_type_symbol
 _atom_site_label
 _atom_site_symmetry_multiplicity
 _atom_site_fract_x
 _atom_site_fract_y
 _atom_site_fract_z
 _atom_site_fract_occupancy
 Al  Al1  1  0.00000  0.50000  0.00000  1
 Al  Al2  1  0.50000  -0.00000  -0.00000  1
 Al  Al3  1  0.00000  0.00000  0.50000  1
 Ni  Ni1  1  0.00000  0.00000  0.00000  1
 Zr  Zr1  1  0.62534  0.62534  0.62534  1
 Zr  Zr2  1  0.37466  0.37466  0.37466  1
