CIF file written using JARVIS-Tools package.
data_SnH8N2Cl6
_symmetry_space_group_name_H-M  'Fm-3m'
_cell_length_a       7.14946
_cell_length_b       7.14946
_cell_length_c       7.14946
_cell_angle_alpha    60
_cell_angle_beta     60
_cell_angle_gamma    60

_symmetry_Int_Tables_number  225
_chemical_formula_structural  SnH8N2Cl6
_chemical_formula_sum  SnH8N2Cl6
_cell_volume  258.4076195640874
_cell_formula_units_Z  1
loop_
  _symmetry_equiv_pos_site_id
 _symmetry_equiv_pos_as_xyz
 1  'x, y, z'
loop_
 _atom_site_type_symbol
 _atom_site_label
 _atom_site_symmetry_multiplicity
 _atom_site_fract_x
 _atom_site_fract_y
 _atom_site_fract_z
 _atom_site_fract_occupancy
 Cl  Cl1  1  0.75609  0.24391  0.75609  1
 Cl  Cl2  1  0.24391  0.75609  0.24391  1
 Cl  Cl3  1  0.24391  0.24391  0.75609  1
 Cl  Cl4  1  0.24391  0.75609  0.75609  1
 Cl  Cl5  1  0.75609  0.75609  0.24391  1
 Cl  Cl6  1  0.75609  0.24391  0.24391  1
 H  H1  1  0.57274  0.80909  0.80909  1
 H  H2  1  0.80909  0.80909  0.80909  1
 H  H3  1  0.80909  0.57274  0.80909  1
 H  H4  1  0.19091  0.19091  0.19091  1
 H  H5  1  0.42726  0.19091  0.19091  1
 H  H6  1  0.19091  0.19091  0.42726  1
 H  H7  1  0.19091  0.42726  0.19091  1
 H  H8  1  0.80909  0.80909  0.57274  1
 N  N1  1  0.75000  0.75000  0.75000  1
 N  N2  1  0.25000  0.25000  0.25000  1
 Sn  Sn1  1  0.00000  0.00000  0.00000  1
