CIF file written using JARVIS-Tools package.
data_Ba2SrI6
_symmetry_space_group_name_H-M  'P-31m'
_cell_length_a       8.57972
_cell_length_b       8.57922
_cell_length_c       7.13659
_cell_angle_alpha    90.0016
_cell_angle_beta     89.9968
_cell_angle_gamma    120.002

_symmetry_Int_Tables_number  162
_chemical_formula_structural  Ba2SrI6
_chemical_formula_sum  Ba2SrI6
_cell_volume  454.9186878339016
_cell_formula_units_Z  1
loop_
  _symmetry_equiv_pos_site_id
 _symmetry_equiv_pos_as_xyz
 1  'x, y, z'
loop_
 _atom_site_type_symbol
 _atom_site_label
 _atom_site_symmetry_multiplicity
 _atom_site_fract_x
 _atom_site_fract_y
 _atom_site_fract_z
 _atom_site_fract_occupancy
 Ba  Ba1  1  0.33332  0.66666  0.50000  1
 Ba  Ba2  1  0.66666  0.33334  0.50000  1
 I  I1  1  -0.00000  0.67082  0.76359  1
 I  I2  1  -0.00002  0.32917  0.23641  1
 I  I3  1  0.32917  0.32918  0.76359  1
 I  I4  1  0.67082  0.67083  0.23641  1
 I  I5  1  0.32913  -0.00000  0.23648  1
 I  I6  1  0.67083  0.00000  0.76352  1
 Sr  Sr1  1  0.99999  -0.00000  0.99999  1
