CIF file written using JARVIS-Tools package.
data_CdInAsSe
_symmetry_space_group_name_H-M  'R3m'
_cell_length_a       7.59737
_cell_length_b       7.59737
_cell_length_c       7.59738
_cell_angle_alpha    33.3844
_cell_angle_beta     33.3845
_cell_angle_gamma    33.3844

_symmetry_Int_Tables_number  160
_chemical_formula_structural  CdInAsSe
_chemical_formula_sum  CdInAsSe
_cell_volume  118.23246740955335
_cell_formula_units_Z  1
loop_
  _symmetry_equiv_pos_site_id
 _symmetry_equiv_pos_as_xyz
 1  'x, y, z'
loop_
 _atom_site_type_symbol
 _atom_site_label
 _atom_site_symmetry_multiplicity
 _atom_site_fract_x
 _atom_site_fract_y
 _atom_site_fract_z
 _atom_site_fract_occupancy
 As  As1  1  0.12579  0.12579  0.12579  1
 Cd  Cd1  1  0.00257  0.00257  0.00257  1
 In  In1  1  0.49829  0.49829  0.49829  1
 Se  Se1  1  0.62334  0.62334  0.62334  1
