CIF file written using JARVIS-Tools package.
data_Ti2Si6Mo
_symmetry_space_group_name_H-M  'C222'
_cell_length_a       4.74873
_cell_length_b       4.74873
_cell_length_c       6.55021
_cell_angle_alpha    90
_cell_angle_beta     90
_cell_angle_gamma    120.095

_symmetry_Int_Tables_number  21
_chemical_formula_structural  Ti2Si6Mo
_chemical_formula_sum  Ti2Si6Mo
_cell_volume  127.79876316465955
_cell_formula_units_Z  1
loop_
  _symmetry_equiv_pos_site_id
 _symmetry_equiv_pos_as_xyz
 1  'x, y, z'
loop_
 _atom_site_type_symbol
 _atom_site_label
 _atom_site_symmetry_multiplicity
 _atom_site_fract_x
 _atom_site_fract_y
 _atom_site_fract_z
 _atom_site_fract_occupancy
 Mo  Mo1  1  0.50000  0.50000  0.00000  1
 Si  Si1  1  0.16670  0.83330  0.00000  1
 Si  Si2  1  0.15717  0.31726  0.66749  1
 Si  Si3  1  0.68274  0.84283  0.33251  1
 Si  Si4  1  0.83330  0.16670  0.00000  1
 Si  Si5  1  0.84283  0.68274  0.66749  1
 Si  Si6  1  0.31726  0.15717  0.33251  1
 Ti  Ti1  1  0.50000  -0.00000  0.66595  1
 Ti  Ti2  1  0.00000  0.50000  0.33405  1
