CIF file written using JARVIS-Tools package.
data_As2S
_symmetry_space_group_name_H-M  'I4_1/amd'
_cell_length_a       5.57458
_cell_length_b       5.57458
_cell_length_c       5.57458
_cell_angle_alpha    101.734
_cell_angle_beta     101.734
_cell_angle_gamma    126.388

_symmetry_Int_Tables_number  141
_chemical_formula_structural  As2S
_chemical_formula_sum  As4S2
_cell_volume  124.471599421709
_cell_formula_units_Z  2
loop_
  _symmetry_equiv_pos_site_id
 _symmetry_equiv_pos_as_xyz
 1  'x, y, z'
loop_
 _atom_site_type_symbol
 _atom_site_label
 _atom_site_symmetry_multiplicity
 _atom_site_fract_x
 _atom_site_fract_y
 _atom_site_fract_z
 _atom_site_fract_occupancy
 As  As1  1  0.12500  0.87500  0.25000  1
 As  As2  1  0.62500  0.87500  0.75000  1
 As  As3  1  0.12500  0.37500  0.25000  1
 As  As4  1  0.12500  0.87500  0.75000  1
 S  S1  1  0.75000  0.25000  0.50000  1
 S  S2  1  0.50000  0.50000  -0.00000  1
