CIF file written using JARVIS-Tools package.
data_Nb3CuO8
_symmetry_space_group_name_H-M  'P2_1/c'
_cell_length_a       5.11705
_cell_length_b       7.59777
_cell_length_c       15.0453
_cell_angle_alpha    101.475
_cell_angle_beta     90
_cell_angle_gamma    90

_symmetry_Int_Tables_number  14
_chemical_formula_structural  Nb3CuO8
_chemical_formula_sum  Nb2Cu4O32
_cell_volume  573.2431828663649
_cell_formula_units_Z  4
loop_
  _symmetry_equiv_pos_site_id
 _symmetry_equiv_pos_as_xyz
 1  'x, y, z'
loop_
 _atom_site_type_symbol
 _atom_site_label
 _atom_site_symmetry_multiplicity
 _atom_site_fract_x
 _atom_site_fract_y
 _atom_site_fract_z
 _atom_site_fract_occupancy
 Cu  Cu1  1  0.25482  0.16229  0.41926  1
 Cu  Cu2  1  0.24518  0.66229  0.91926  1
 Cu  Cu3  1  0.74518  0.83771  0.58074  1
 Cu  Cu4  1  0.75482  0.33771  0.08074  1
 Nb  Nb1  1  0.74783  0.82238  0.07581  1
 Nb  Nb2  1  0.25938  0.15773  0.16795  1
 Nb  Nb3  1  0.75938  0.34227  0.33205  1
 Nb  Nb4  1  0.25217  0.17762  0.92419  1
 Nb  Nb5  1  0.74062  0.84227  0.83205  1
 Nb  Nb6  1  0.24062  0.65773  0.66795  1
 Nb  Nb7  1  0.24783  0.67762  0.42419  1
 Nb  Nb8  1  0.74810  0.35200  0.83582  1
 Nb  Nb9  1  0.24810  0.14800  0.66418  1
 Nb  Nb10  1  0.25190  0.64800  0.16418  1
 Nb  Nb11  1  0.75190  0.85200  0.33582  1
 Nb  Nb12  1  0.75217  0.32238  0.57581  1
 O  O1  1  0.92158  0.80654  0.45441  1
 O  O2  1  0.42158  0.69346  0.04559  1
 O  O3  1  0.39691  0.41883  0.15543  1
 O  O4  1  0.07842  0.19346  0.54559  1
 O  O5  1  0.42558  0.90820  0.40186  1
 O  O6  1  0.92558  0.59180  0.09814  1
 O  O7  1  0.07545  0.69690  0.78357  1
 O  O8  1  0.07442  0.40820  0.90186  1
 O  O9  1  0.57545  0.80310  0.71643  1
 O  O10  1  0.42455  0.19690  0.28357  1
 O  O11  1  0.92455  0.30310  0.21643  1
 O  O12  1  0.60309  0.58117  0.84457  1
 O  O13  1  0.42758  0.93998  0.90001  1
 O  O14  1  0.57442  0.09180  0.59814  1
 O  O15  1  0.92758  0.56002  0.59999  1
 O  O16  1  0.60096  0.31252  0.46089  1
 O  O17  1  0.07242  0.43998  0.40001  1
 O  O18  1  0.92451  0.06982  0.84476  1
 O  O19  1  0.42451  0.43018  0.65524  1
 O  O20  1  0.07549  0.93018  0.15524  1
 O  O21  1  0.10309  0.91883  0.65543  1
 O  O22  1  0.57549  0.56982  0.34476  1
 O  O23  1  0.57842  0.30654  0.95441  1
 O  O24  1  0.92181  0.30140  0.71489  1
 O  O25  1  0.57819  0.80140  0.21489  1
 O  O26  1  0.07819  0.69860  0.28511  1
 O  O27  1  0.89904  0.81252  0.96089  1
 O  O28  1  0.39904  0.68748  0.53911  1
 O  O29  1  0.10096  0.18748  0.03911  1
 O  O30  1  0.42181  0.19860  0.78511  1
 O  O31  1  0.57242  0.06002  0.09999  1
 O  O32  1  0.89691  0.08117  0.34457  1
