CIF file written using JARVIS-Tools package.
data_V2O3
_symmetry_space_group_name_H-M  'Ia-3'
_cell_length_a       8.13751
_cell_length_b       8.13751
_cell_length_c       8.13751
_cell_angle_alpha    109.471
_cell_angle_beta     109.471
_cell_angle_gamma    109.471

_symmetry_Int_Tables_number  206
_chemical_formula_structural  V2O3
_chemical_formula_sum  V6O24
_cell_volume  414.8129874735268
_cell_formula_units_Z  8
loop_
  _symmetry_equiv_pos_site_id
 _symmetry_equiv_pos_as_xyz
 1  'x, y, z'
loop_
 _atom_site_type_symbol
 _atom_site_label
 _atom_site_symmetry_multiplicity
 _atom_site_fract_x
 _atom_site_fract_y
 _atom_site_fract_z
 _atom_site_fract_occupancy
 O  O1  1  0.45221  0.48929  0.22583  1
 O  O2  1  0.77417  0.54779  0.51071  1
 O  O3  1  0.72583  0.23653  0.77362  1
 O  O4  1  0.95221  0.72638  0.96291  1
 O  O5  1  0.72638  0.96291  0.95221  1
 O  O6  1  0.98929  0.53709  0.26347  1
 O  O7  1  0.54779  0.51071  0.77417  1
 O  O8  1  0.77362  0.72583  0.23653  1
 O  O9  1  0.76347  0.22638  0.27417  1
 O  O10  1  0.48929  0.22583  0.45221  1
 O  O11  1  0.23653  0.77362  0.72583  1
 O  O12  1  0.96291  0.95221  0.72638  1
 O  O13  1  0.46291  0.73653  0.01071  1
 O  O14  1  0.22583  0.45221  0.48929  1
 O  O15  1  0.27417  0.76347  0.22638  1
 O  O16  1  0.04779  0.27362  0.03709  1
 O  O17  1  0.03709  0.04779  0.27362  1
 O  O18  1  0.26347  0.98929  0.53709  1
 O  O19  1  0.53709  0.26347  0.98929  1
 O  O20  1  0.73653  0.01071  0.46291  1
 O  O21  1  0.01071  0.46291  0.73653  1
 O  O22  1  0.27362  0.03709  0.04779  1
 O  O23  1  0.22638  0.27417  0.76347  1
 O  O24  1  0.51071  0.77417  0.54779  1
 V  V1  1  0.25000  0.03392  0.78392  1
 V  V2  1  0.71608  0.75000  0.46608  1
 V  V3  1  0.46608  0.71608  0.75000  1
 V  V4  1  0.78392  0.25000  0.03392  1
 V  V5  1  0.03392  0.78392  0.25000  1
 V  V6  1  0.75000  0.96608  0.21608  1
 V  V7  1  0.75000  0.46608  0.71608  1
 V  V8  1  0.21608  0.75000  0.96608  1
 V  V9  1  0.96608  0.21608  0.75000  1
 V  V10  1  0.25000  0.53392  0.28392  1
 V  V11  1  0.50000  0.50000  0.00000  1
 V  V12  1  0.50000  0.00000  0.50000  1
 V  V13  1  0.28392  0.25000  0.53392  1
 V  V14  1  0.00000  0.50000  0.50000  1
 V  V15  1  0.53392  0.28392  0.25000  1
 V  V16  1  0.00000  0.00000  0.00000  1
