CIF file written using JARVIS-Tools package.
data_Rb5Bi4
_symmetry_space_group_name_H-M  'Cm'
_cell_length_a       7.11726
_cell_length_b       7.11726
_cell_length_c       11.9671
_cell_angle_alpha    69.8457
_cell_angle_beta     69.8457
_cell_angle_gamma    48.2021

_symmetry_Int_Tables_number  8
_chemical_formula_structural  Rb5Bi4
_chemical_formula_sum  Rb5Bi4
_cell_volume  418.49117267684267
_cell_formula_units_Z  1
loop_
  _symmetry_equiv_pos_site_id
 _symmetry_equiv_pos_as_xyz
 1  'x, y, z'
loop_
 _atom_site_type_symbol
 _atom_site_label
 _atom_site_symmetry_multiplicity
 _atom_site_fract_x
 _atom_site_fract_y
 _atom_site_fract_z
 _atom_site_fract_occupancy
 Bi  Bi1  1  0.05136  0.05136  0.67102  1
 Bi  Bi2  1  0.95676  0.95676  0.32419  1
 Bi  Bi3  1  0.11392  0.11392  0.88904  1
 Bi  Bi4  1  0.89416  0.89416  0.10616  1
 Rb  Rb1  1  0.40619  0.40619  0.88852  1
 Rb  Rb2  1  0.60192  0.60192  0.10656  1
 Rb  Rb3  1  0.75154  0.75154  0.66449  1
 Rb  Rb4  1  0.25685  0.25685  0.33068  1
 Rb  Rb5  1  0.50470  0.50470  0.49722  1
