CIF file written using JARVIS-Tools package.
data_SiSe2
_symmetry_space_group_name_H-M  'Ibam'
_cell_length_a       6.40673
_cell_length_b       6.40673
_cell_length_c       6.40673
_cell_angle_alpha    124.907
_cell_angle_beta     124.971
_cell_angle_gamma    81.6396

_symmetry_Int_Tables_number  72
_chemical_formula_structural  SiSe2
_chemical_formula_sum  Si2Se4
_cell_volume  170.07318820098328
_cell_formula_units_Z  2
loop_
  _symmetry_equiv_pos_site_id
 _symmetry_equiv_pos_as_xyz
 1  'x, y, z'
loop_
 _atom_site_type_symbol
 _atom_site_label
 _atom_site_symmetry_multiplicity
 _atom_site_fract_x
 _atom_site_fract_y
 _atom_site_fract_z
 _atom_site_fract_occupancy
 Se  Se1  1  0.90496  0.62422  0.28074  1
 Se  Se2  1  0.34348  0.12422  0.21926  1
 Se  Se3  1  0.09504  0.37578  0.71926  1
 Se  Se4  1  0.65652  0.87578  0.78074  1
 Si  Si1  1  0.00000  0.75000  0.75000  1
 Si  Si2  1  0.00000  0.25000  0.25000  1
