CIF file written using JARVIS-Tools package.
data_CrClO
_symmetry_space_group_name_H-M  'Pmmn'
_cell_length_a       3.2044
_cell_length_b       3.86189
_cell_length_c       7.71943
_cell_angle_alpha    90
_cell_angle_beta     90
_cell_angle_gamma    90

_symmetry_Int_Tables_number  59
_chemical_formula_structural  CrClO
_chemical_formula_sum  Cr2Cl2O2
_cell_volume  95.52816284521019
_cell_formula_units_Z  2
loop_
  _symmetry_equiv_pos_site_id
 _symmetry_equiv_pos_as_xyz
 1  'x, y, z'
loop_
 _atom_site_type_symbol
 _atom_site_label
 _atom_site_symmetry_multiplicity
 _atom_site_fract_x
 _atom_site_fract_y
 _atom_site_fract_z
 _atom_site_fract_occupancy
 Cl  Cl1  1  0.25000  0.75000  0.67032  1
 Cl  Cl2  1  0.75000  0.25000  0.32968  1
 Cr  Cr1  1  0.25000  0.25000  0.11063  1
 Cr  Cr2  1  0.75000  0.75000  0.88937  1
 O  O1  1  0.75000  0.25000  0.94675  1
 O  O2  1  0.25000  0.75000  0.05325  1
