CIF file written using JARVIS-Tools package.
data_YbHo2Se4
_symmetry_space_group_name_H-M  'P2/m'
_cell_length_a       4.09035
_cell_length_b       6.98421
_cell_length_c       7.09415
_cell_angle_alpha    71.7402
_cell_angle_beta     90
_cell_angle_gamma    90

_symmetry_Int_Tables_number  10
_chemical_formula_structural  YbHo2Se4
_chemical_formula_sum  YbHo2Se4
_cell_volume  192.4600108476749
_cell_formula_units_Z  1
loop_
  _symmetry_equiv_pos_site_id
 _symmetry_equiv_pos_as_xyz
 1  'x, y, z'
loop_
 _atom_site_type_symbol
 _atom_site_label
 _atom_site_symmetry_multiplicity
 _atom_site_fract_x
 _atom_site_fract_y
 _atom_site_fract_z
 _atom_site_fract_occupancy
 Ho  Ho1  1  0.00000  0.00000  0.00000  1
 Ho  Ho2  1  0.50000  0.50000  -0.00000  1
 Se  Se1  1  0.50000  0.75721  0.24548  1
 Se  Se2  1  0.00000  0.25653  0.23649  1
 Se  Se3  1  0.50000  0.24279  0.75452  1
 Se  Se4  1  0.00000  0.74347  0.76351  1
 Yb  Yb1  1  0.00000  0.50000  0.50000  1
