CIF file written using JARVIS-Tools package.
data_PrCo5H4
_symmetry_space_group_name_H-M  'Cmmm'
_cell_length_a       5.18514
_cell_length_b       5.18513
_cell_length_c       4.02195
_cell_angle_alpha    90
_cell_angle_beta     90
_cell_angle_gamma    116.926

_symmetry_Int_Tables_number  65
_chemical_formula_structural  PrCo5H4
_chemical_formula_sum  PrCo5H4
_cell_volume  96.40997378892203
_cell_formula_units_Z  1
loop_
  _symmetry_equiv_pos_site_id
 _symmetry_equiv_pos_as_xyz
 1  'x, y, z'
loop_
 _atom_site_type_symbol
 _atom_site_label
 _atom_site_symmetry_multiplicity
 _atom_site_fract_x
 _atom_site_fract_y
 _atom_site_fract_z
 _atom_site_fract_occupancy
 Co  Co1  1  0.86431  0.13569  0.50000  1
 Co  Co2  1  0.13569  0.86431  0.50000  1
 Co  Co3  1  -0.00000  0.50000  0.00000  1
 Co  Co4  1  0.50000  -0.00000  0.00000  1
 Co  Co5  1  0.00000  0.00000  0.00000  1
 H  H1  1  0.64454  0.35546  0.00000  1
 H  H2  1  0.35546  0.64454  0.00000  1
 H  H3  1  -0.00000  0.50000  0.50000  1
 H  H4  1  0.50000  -0.00000  0.50000  1
 Pr  Pr1  1  0.50000  0.50000  0.50000  1
