CIF file written using JARVIS-Tools package.
data_SbPbS2
_symmetry_space_group_name_H-M  'Amm2'
_cell_length_a       6.16424
_cell_length_b       6.16424
_cell_length_c       4.41932
_cell_angle_alpha    90
_cell_angle_beta     90
_cell_angle_gamma    143.47

_symmetry_Int_Tables_number  38
_chemical_formula_structural  SbPbS2
_chemical_formula_sum  SbPbS2
_cell_volume  99.95603926811448
_cell_formula_units_Z  1
loop_
  _symmetry_equiv_pos_site_id
 _symmetry_equiv_pos_as_xyz
 1  'x, y, z'
loop_
 _atom_site_type_symbol
 _atom_site_label
 _atom_site_symmetry_multiplicity
 _atom_site_fract_x
 _atom_site_fract_y
 _atom_site_fract_z
 _atom_site_fract_occupancy
 Pb  Pb1  1  0.11664  0.88336  0.50000  1
 S  S1  1  0.36118  0.63882  0.50000  1
 S  S2  1  0.65231  0.34769  0.00000  1
 Sb  Sb1  1  0.86987  0.13013  0.00000  1
