CIF file written using JARVIS-Tools package.
data_Mo2AsP3
_symmetry_space_group_name_H-M  'Cm'
_cell_length_a       5.94205
_cell_length_b       5.94204
_cell_length_c       5.12294
_cell_angle_alpha    89.2425
_cell_angle_beta     89.2425
_cell_angle_gamma    31.2732

_symmetry_Int_Tables_number  8
_chemical_formula_structural  Mo2AsP3
_chemical_formula_sum  Mo2AsP3
_cell_volume  93.88952019440782
_cell_formula_units_Z  1
loop_
  _symmetry_equiv_pos_site_id
 _symmetry_equiv_pos_as_xyz
 1  'x, y, z'
loop_
 _atom_site_type_symbol
 _atom_site_label
 _atom_site_symmetry_multiplicity
 _atom_site_fract_x
 _atom_site_fract_y
 _atom_site_fract_z
 _atom_site_fract_occupancy
 As  As1  1  0.29684  0.29684  0.70098  1
 Mo  Mo1  1  0.09130  0.09130  0.49848  1
 Mo  Mo2  1  0.90965  0.90965  0.00809  1
 P  P1  1  0.69899  0.69899  0.19631  1
 P  P2  1  0.43469  0.43469  0.37327  1
 P  P3  1  0.56853  0.56853  0.88085  1
