CIF file written using JARVIS-Tools package.
data_KU2P3O12
_symmetry_space_group_name_H-M  'R-3c'
_cell_length_a       9.88002
_cell_length_b       9.88002
_cell_length_c       9.88002
_cell_angle_alpha    55.5229
_cell_angle_beta     55.5229
_cell_angle_gamma    55.5229

_symmetry_Int_Tables_number  167
_chemical_formula_structural  KU2P3O12
_chemical_formula_sum  K2U4P6O24
_cell_volume  611.07589436923
_cell_formula_units_Z  2
loop_
  _symmetry_equiv_pos_site_id
 _symmetry_equiv_pos_as_xyz
 1  'x, y, z'
loop_
 _atom_site_type_symbol
 _atom_site_label
 _atom_site_symmetry_multiplicity
 _atom_site_fract_x
 _atom_site_fract_y
 _atom_site_fract_z
 _atom_site_fract_occupancy
 K  K1  1  0.50000  0.50000  0.50000  1
 K  K2  1  0.00000  0.00000  0.00000  1
 O  O1  1  0.71118  0.08577  0.92946  1
 O  O2  1  0.57054  0.41423  0.78882  1
 O  O3  1  0.27192  0.11563  0.51301  1
 O  O4  1  0.98699  0.38437  0.22808  1
 O  O5  1  0.61563  0.77192  0.01301  1
 O  O6  1  0.21118  0.42946  0.58577  1
 O  O7  1  0.07054  0.28882  0.91423  1
 O  O8  1  0.41423  0.78882  0.57054  1
 O  O9  1  0.72808  0.88437  0.48699  1
 O  O10  1  0.77192  0.01301  0.61563  1
 O  O11  1  0.58577  0.21118  0.42946  1
 O  O12  1  0.92946  0.71118  0.08577  1
 O  O13  1  0.28882  0.91423  0.07054  1
 O  O14  1  0.48699  0.72808  0.88437  1
 O  O15  1  0.78882  0.57054  0.41423  1
 O  O16  1  0.51301  0.27192  0.11563  1
 O  O17  1  0.11563  0.51301  0.27192  1
 O  O18  1  0.22808  0.98699  0.38437  1
 O  O19  1  0.01301  0.61563  0.77192  1
 O  O20  1  0.88437  0.48699  0.72808  1
 O  O21  1  0.91423  0.07054  0.28882  1
 O  O22  1  0.38437  0.22808  0.98699  1
 O  O23  1  0.42946  0.58577  0.21118  1
 O  O24  1  0.08577  0.92946  0.71118  1
 P  P1  1  0.45601  0.75000  0.04399  1
 P  P2  1  0.95601  0.54399  0.25000  1
 P  P3  1  0.54399  0.25000  0.95601  1
 P  P4  1  0.25000  0.95601  0.54399  1
 P  P5  1  0.75000  0.04399  0.45601  1
 P  P6  1  0.04399  0.45601  0.75000  1
 U  U1  1  0.35067  0.35067  0.35067  1
 U  U2  1  0.64933  0.64933  0.64933  1
 U  U3  1  0.14933  0.14933  0.14933  1
 U  U4  1  0.85067  0.85067  0.85067  1
