CIF file written using JARVIS-Tools package.
data_MgSb2
_symmetry_space_group_name_H-M  'C2/m'
_cell_length_a       6.58717
_cell_length_b       6.58717
_cell_length_c       8.11681
_cell_angle_alpha    78.7413
_cell_angle_beta     78.7413
_cell_angle_gamma    28.6332

_symmetry_Int_Tables_number  12
_chemical_formula_structural  MgSb2
_chemical_formula_sum  Mg2Sb4
_cell_volume  165.3099232742132
_cell_formula_units_Z  2
loop_
  _symmetry_equiv_pos_site_id
 _symmetry_equiv_pos_as_xyz
 1  'x, y, z'
loop_
 _atom_site_type_symbol
 _atom_site_label
 _atom_site_symmetry_multiplicity
 _atom_site_fract_x
 _atom_site_fract_y
 _atom_site_fract_z
 _atom_site_fract_occupancy
 Mg  Mg1  1  0.63332  0.63332  0.01139  1
 Mg  Mg2  1  0.36668  0.36668  0.98861  1
 Sb  Sb1  1  0.23474  0.23474  0.71346  1
 Sb  Sb2  1  0.00181  0.00181  0.70810  1
 Sb  Sb3  1  0.99819  0.99819  0.29190  1
 Sb  Sb4  1  0.76526  0.76526  0.28654  1
