CIF file written using JARVIS-Tools package.
data_CoB2W2
_symmetry_space_group_name_H-M  'Immm'
_cell_length_a       3.19196
_cell_length_b       4.52375
_cell_length_c       4.52375
_cell_angle_alpha    60.7568
_cell_angle_beta     69.3412
_cell_angle_gamma    69.3413

_symmetry_Int_Tables_number  71
_chemical_formula_structural  CoB2W2
_chemical_formula_sum  CoB2W2
_cell_volume  52.01250718418211
_cell_formula_units_Z  1
loop_
  _symmetry_equiv_pos_site_id
 _symmetry_equiv_pos_as_xyz
 1  'x, y, z'
loop_
 _atom_site_type_symbol
 _atom_site_label
 _atom_site_symmetry_multiplicity
 _atom_site_fract_x
 _atom_site_fract_y
 _atom_site_fract_z
 _atom_site_fract_occupancy
 B  B1  1  0.50000  0.70394  0.29606  1
 B  B2  1  0.50000  0.29606  0.70394  1
 Co  Co1  1  0.00000  0.00000  0.00000  1
 W  W1  1  0.79877  0.70123  0.70123  1
 W  W2  1  0.20123  0.29877  0.29877  1
