CIF file written using JARVIS-Tools package.
data_K5Sb4
_symmetry_space_group_name_H-M  'C2/m'
_cell_length_a       6.72379
_cell_length_b       6.72379
_cell_length_c       11.3215
_cell_angle_alpha    69.9991
_cell_angle_beta     69.9991
_cell_angle_gamma    48.0064

_symmetry_Int_Tables_number  12
_chemical_formula_structural  K5Sb4
_chemical_formula_sum  K5Sb4
_cell_volume  352.73820986996697
_cell_formula_units_Z  1
loop_
  _symmetry_equiv_pos_site_id
 _symmetry_equiv_pos_as_xyz
 1  'x, y, z'
loop_
 _atom_site_type_symbol
 _atom_site_label
 _atom_site_symmetry_multiplicity
 _atom_site_fract_x
 _atom_site_fract_y
 _atom_site_fract_z
 _atom_site_fract_occupancy
 K  K1  1  0.09617  0.09617  0.11081  1
 K  K2  1  0.89836  0.89836  0.89304  1
 K  K3  1  0.75006  0.75006  0.33620  1
 K  K4  1  0.24434  0.24434  0.66759  1
 K  K5  1  0.99699  0.99699  0.50205  1
 Sb  Sb1  1  0.45110  0.45110  0.32852  1
 Sb  Sb2  1  0.54342  0.54342  0.67529  1
 Sb  Sb3  1  0.38812  0.38812  0.11110  1
 Sb  Sb4  1  0.60644  0.60644  0.89270  1
