CIF file written using JARVIS-Tools package.
data_Li2CuPO4
_symmetry_space_group_name_H-M  'P1'
_cell_length_a       5.01574
_cell_length_b       5.27248
_cell_length_c       6.22705
_cell_angle_alpha    91.5943
_cell_angle_beta     89.6167
_cell_angle_gamma    90.6275

_symmetry_Int_Tables_number  1
_chemical_formula_structural  Li2CuPO4
_chemical_formula_sum  Li4Cu2P2O8
_cell_volume  164.5993438421831
_cell_formula_units_Z  2
loop_
  _symmetry_equiv_pos_site_id
 _symmetry_equiv_pos_as_xyz
 1  'x, y, z'
loop_
 _atom_site_type_symbol
 _atom_site_label
 _atom_site_symmetry_multiplicity
 _atom_site_fract_x
 _atom_site_fract_y
 _atom_site_fract_z
 _atom_site_fract_occupancy
 Cu  Cu1  1  -0.00677  0.78711  0.49105  1
 Cu  Cu2  1  0.01693  0.35992  0.27408  1
 Li  Li1  1  0.49541  0.16064  0.00187  1
 Li  Li2  1  -0.00018  0.32708  0.75207  1
 Li  Li3  1  0.49009  0.67311  0.74541  1
 Li  Li4  1  0.48278  0.67485  0.24915  1
 O  O1  1  0.89244  0.11188  0.98644  1
 O  O2  1  0.30073  0.82354  0.99882  1
 O  O3  1  0.88561  0.68046  0.79020  1
 O  O4  1  0.39119  0.31293  0.71127  1
 O  O5  1  0.81270  0.17842  0.51411  1
 O  O6  1  0.40712  0.89083  0.50177  1
 O  O7  1  0.41657  0.30711  0.29753  1
 O  O8  1  0.86269  0.70422  0.18884  1
 P  P1  1  0.99183  0.83513  0.99003  1
 P  P2  1  0.50344  0.17277  0.50734  1
