CIF file written using JARVIS-Tools package.
data_KFeSeS
_symmetry_space_group_name_H-M  'C2'
_cell_length_a       6.62118
_cell_length_b       6.62117
_cell_length_c       5.46676
_cell_angle_alpha    77.85
_cell_angle_beta     77.8501
_cell_angle_gamma    116.503

_symmetry_Int_Tables_number  5
_chemical_formula_structural  KFeSeS
_chemical_formula_sum  K2Fe2Se2S2
_cell_volume  196.57094800759143
_cell_formula_units_Z  2
loop_
  _symmetry_equiv_pos_site_id
 _symmetry_equiv_pos_as_xyz
 1  'x, y, z'
loop_
 _atom_site_type_symbol
 _atom_site_label
 _atom_site_symmetry_multiplicity
 _atom_site_fract_x
 _atom_site_fract_y
 _atom_site_fract_z
 _atom_site_fract_occupancy
 Fe  Fe1  1  0.00306  0.99694  0.50000  1
 Fe  Fe2  1  0.00717  0.99283  0.00000  1
 K  K1  1  0.35943  0.64057  0.50000  1
 K  K2  1  0.63803  0.36197  -0.00000  1
 S  S1  1  0.92286  0.70087  0.34873  1
 S  S2  1  0.29913  0.07714  0.65127  1
 Se  Se1  1  0.08870  0.31840  0.14504  1
 Se  Se2  1  0.68160  0.91130  0.85496  1
