CIF file written using JARVIS-Tools package.
data_BaSn3Pt
_symmetry_space_group_name_H-M  'I4mm'
_cell_length_a       4.97848
_cell_length_b       4.97848
_cell_length_c       6.62538
_cell_angle_alpha    112.068
_cell_angle_beta     112.068
_cell_angle_gamma    90

_symmetry_Int_Tables_number  107
_chemical_formula_structural  BaSn3Pt
_chemical_formula_sum  BaSn3Pt
_cell_volume  139.11384765726723
_cell_formula_units_Z  1
loop_
  _symmetry_equiv_pos_site_id
 _symmetry_equiv_pos_as_xyz
 1  'x, y, z'
loop_
 _atom_site_type_symbol
 _atom_site_label
 _atom_site_symmetry_multiplicity
 _atom_site_fract_x
 _atom_site_fract_y
 _atom_site_fract_z
 _atom_site_fract_occupancy
 Ba  Ba1  1  0.00225  0.00225  0.00451  1
 Pt  Pt1  1  0.65394  0.65394  0.30788  1
 Sn  Sn1  1  0.75308  0.25308  0.50616  1
 Sn  Sn2  1  0.25308  0.75308  0.50616  1
 Sn  Sn3  1  0.41675  0.41675  0.83349  1
