CIF file written using JARVIS-Tools package.
data_Mg6SiSn2
_symmetry_space_group_name_H-M  'Immm'
_cell_length_a       8.13225
_cell_length_b       8.13225
_cell_length_c       8.13225
_cell_angle_alpha    146.427
_cell_angle_beta     131.685
_cell_angle_gamma    60.1177

_symmetry_Int_Tables_number  71
_chemical_formula_structural  Mg6SiSn2
_chemical_formula_sum  Mg6SiSn2
_cell_volume  220.06642773382745
_cell_formula_units_Z  1
loop_
  _symmetry_equiv_pos_site_id
 _symmetry_equiv_pos_as_xyz
 1  'x, y, z'
loop_
 _atom_site_type_symbol
 _atom_site_label
 _atom_site_symmetry_multiplicity
 _atom_site_fract_x
 _atom_site_fract_y
 _atom_site_fract_z
 _atom_site_fract_occupancy
 Mg  Mg1  1  0.23701  0.50000  0.73701  1
 Mg  Mg2  1  0.91725  0.16000  0.75724  1
 Mg  Mg3  1  0.59724  0.84000  0.75724  1
 Mg  Mg4  1  0.76299  0.50000  0.26299  1
 Mg  Mg5  1  0.40276  0.16000  0.24276  1
 Mg  Mg6  1  0.08275  0.84000  0.24276  1
 Si  Si1  1  0.00000  0.00000  0.00000  1
 Sn  Sn1  1  0.66622  0.66622  0.00000  1
 Sn  Sn2  1  0.33378  0.33378  -0.00000  1
