CIF file written using JARVIS-Tools package.
data_LiInO2
_symmetry_space_group_name_H-M  'I4_1/amd'
_cell_length_a       5.58996
_cell_length_b       5.58997
_cell_length_c       5.58996
_cell_angle_alpha    133.947
_cell_angle_beta     133.947
_cell_angle_gamma    67.1712

_symmetry_Int_Tables_number  141
_chemical_formula_structural  LiInO2
_chemical_formula_sum  Li2In2O4
_cell_volume  89.05712138831278
_cell_formula_units_Z  2
loop_
  _symmetry_equiv_pos_site_id
 _symmetry_equiv_pos_as_xyz
 1  'x, y, z'
loop_
 _atom_site_type_symbol
 _atom_site_label
 _atom_site_symmetry_multiplicity
 _atom_site_fract_x
 _atom_site_fract_y
 _atom_site_fract_z
 _atom_site_fract_occupancy
 In  In1  1  0.75746  0.25746  0.50000  1
 In  In2  1  0.00746  0.00746  0.00000  1
 Li  Li1  1  0.25754  0.75754  0.50000  1
 Li  Li2  1  0.50754  0.50754  -0.00000  1
 O  O1  1  0.99361  0.49361  0.50000  1
 O  O2  1  0.77129  0.77129  0.00000  1
 O  O3  1  0.52129  0.02129  0.50000  1
 O  O4  1  0.24361  0.24361  0.00000  1
