CIF file written using JARVIS-Tools package.
data_Zr2Cu3Sb3
_symmetry_space_group_name_H-M  'P4mm'
_cell_length_a       4.23298
_cell_length_b       4.23298
_cell_length_c       8.79776
_cell_angle_alpha    90
_cell_angle_beta     90
_cell_angle_gamma    90

_symmetry_Int_Tables_number  99
_chemical_formula_structural  Zr2Cu3Sb3
_chemical_formula_sum  Zr2Cu3Sb3
_cell_volume  157.6393889879816
_cell_formula_units_Z  1
loop_
  _symmetry_equiv_pos_site_id
 _symmetry_equiv_pos_as_xyz
 1  'x, y, z'
loop_
 _atom_site_type_symbol
 _atom_site_label
 _atom_site_symmetry_multiplicity
 _atom_site_fract_x
 _atom_site_fract_y
 _atom_site_fract_z
 _atom_site_fract_occupancy
 Cu  Cu1  1  0.50000  0.00000  0.47588  1
 Cu  Cu2  1  0.00000  0.50000  0.47588  1
 Cu  Cu3  1  0.50000  0.50000  0.32873  1
 Sb  Sb1  1  0.50000  0.00000  0.01709  1
 Sb  Sb2  1  0.00000  0.50000  0.01709  1
 Sb  Sb3  1  0.00000  0.00000  0.66010  1
 Zr  Zr1  1  0.50000  0.50000  0.75906  1
 Zr  Zr2  1  0.00000  0.00000  0.26617  1
