CIF file written using JARVIS-Tools package.
data_NiI2O6
_symmetry_space_group_name_H-M  'P-3m1'
_cell_length_a       5.85697
_cell_length_b       5.85698
_cell_length_c       4.47803
_cell_angle_alpha    90
_cell_angle_beta     90
_cell_angle_gamma    120

_symmetry_Int_Tables_number  164
_chemical_formula_structural  NiI2O6
_chemical_formula_sum  NiI2O6
_cell_volume  133.0343259811253
_cell_formula_units_Z  1
loop_
  _symmetry_equiv_pos_site_id
 _symmetry_equiv_pos_as_xyz
 1  'x, y, z'
loop_
 _atom_site_type_symbol
 _atom_site_label
 _atom_site_symmetry_multiplicity
 _atom_site_fract_x
 _atom_site_fract_y
 _atom_site_fract_z
 _atom_site_fract_occupancy
 I  I1  1  0.66667  0.33333  0.02849  1
 I  I2  1  0.33333  0.66667  0.97151  1
 Ni  Ni1  1  0.00000  0.00000  0.00000  1
 O  O1  1  0.34585  0.17292  0.23275  1
 O  O2  1  0.82708  0.65415  0.23275  1
 O  O3  1  0.82708  0.17292  0.23275  1
 O  O4  1  0.65415  0.82708  0.76725  1
 O  O5  1  0.17292  0.34585  0.76725  1
 O  O6  1  0.17292  0.82708  0.76725  1
