CIF file written using JARVIS-Tools package.
data_Te2MoW3Se6
_symmetry_space_group_name_H-M  'P3m1'
_cell_length_a       3.38584
_cell_length_b       3.38587
_cell_length_c       35.5556
_cell_angle_alpha    90.0002
_cell_angle_beta     90
_cell_angle_gamma    120

_symmetry_Int_Tables_number  156
_chemical_formula_structural  Te2MoW3Se6
_chemical_formula_sum  Te2MoW3Se6
_cell_volume  353.00063162007586
_cell_formula_units_Z  1
loop_
  _symmetry_equiv_pos_site_id
 _symmetry_equiv_pos_as_xyz
 1  'x, y, z'
loop_
 _atom_site_type_symbol
 _atom_site_label
 _atom_site_symmetry_multiplicity
 _atom_site_fract_x
 _atom_site_fract_y
 _atom_site_fract_z
 _atom_site_fract_occupancy
 Mo  Mo1  1  0.33333  0.66666  0.46515  1
 Se  Se1  1  0.33332  0.66665  0.32793  1
 Se  Se2  1  0.66665  0.33330  0.05014  1
 Se  Se3  1  0.66665  0.33330  0.41865  1
 Se  Se4  1  0.66667  0.33333  0.14355  1
 Se  Se5  1  0.66668  0.33336  0.51169  1
 Se  Se6  1  0.33337  0.66674  0.23448  1
 Te  Te1  1  0.33335  0.66671  0.71291  1
 Te  Te2  1  0.33334  0.66667  0.60648  1
 W  W1  1  0.33330  0.66660  0.09682  1
 W  W2  1  0.66666  0.33332  0.28120  1
 W  W3  1  0.66668  0.33336  0.65975  1
