CIF file written using JARVIS-Tools package.
data_BaSrBiSbO6
_symmetry_space_group_name_H-M  'R3'
_cell_length_a       5.99677
_cell_length_b       5.99677
_cell_length_c       5.99677
_cell_angle_alpha    61.1898
_cell_angle_beta     61.1899
_cell_angle_gamma    61.1899

_symmetry_Int_Tables_number  146
_chemical_formula_structural  BaSrBiSbO6
_chemical_formula_sum  BaSrBiSbO6
_cell_volume  156.57030098290835
_cell_formula_units_Z  1
loop_
  _symmetry_equiv_pos_site_id
 _symmetry_equiv_pos_as_xyz
 1  'x, y, z'
loop_
 _atom_site_type_symbol
 _atom_site_label
 _atom_site_symmetry_multiplicity
 _atom_site_fract_x
 _atom_site_fract_y
 _atom_site_fract_z
 _atom_site_fract_occupancy
 Ba  Ba1  1  0.74956  0.74956  0.74956  1
 Bi  Bi1  1  0.00091  0.00091  0.00091  1
 O  O1  1  0.81233  0.27649  0.64655  1
 O  O2  1  0.27649  0.64655  0.81233  1
 O  O3  1  0.64655  0.81233  0.27649  1
 O  O4  1  0.20603  0.71708  0.32861  1
 O  O5  1  0.71708  0.32861  0.20603  1
 O  O6  1  0.32861  0.20603  0.71708  1
 Sb  Sb1  1  0.50058  0.50058  0.50058  1
 Sr  Sr1  1  0.26187  0.26187  0.26187  1
