CIF file written using JARVIS-Tools package.
data_V2CoO6
_symmetry_space_group_name_H-M  'C2/m'
_cell_length_a       4.97889
_cell_length_b       4.97889
_cell_length_c       6.64385
_cell_angle_alpha    70.3542
_cell_angle_beta     70.3542
_cell_angle_gamma    40.6313

_symmetry_Int_Tables_number  12
_chemical_formula_structural  V2CoO6
_chemical_formula_sum  V2CoO6
_cell_volume  100.11972779927811
_cell_formula_units_Z  1
loop_
  _symmetry_equiv_pos_site_id
 _symmetry_equiv_pos_as_xyz
 1  'x, y, z'
loop_
 _atom_site_type_symbol
 _atom_site_label
 _atom_site_symmetry_multiplicity
 _atom_site_fract_x
 _atom_site_fract_y
 _atom_site_fract_z
 _atom_site_fract_occupancy
 Co  Co1  1  0.98738  0.01262  -0.00000  1
 O  O1  1  0.67469  0.69979  0.44010  1
 O  O2  1  0.02662  0.05175  0.26263  1
 O  O3  1  0.94825  0.97338  0.73737  1
 O  O4  1  0.30021  0.32531  0.55990  1
 O  O5  1  0.33998  0.36505  0.10697  1
 O  O6  1  0.63495  0.66002  0.89303  1
 V  V1  1  0.79165  0.81673  0.66217  1
 V  V2  1  0.18327  0.20835  0.33783  1
