CIF file written using JARVIS-Tools package.
data_KFe2Se2
_symmetry_space_group_name_H-M  'I4/mmm'
_cell_length_a       3.82414
_cell_length_b       3.82414
_cell_length_c       13.1954
_cell_angle_alpha    90
_cell_angle_beta     90
_cell_angle_gamma    90

_symmetry_Int_Tables_number  139
_chemical_formula_structural  KFe2Se2
_chemical_formula_sum  K2Fe4Se4
_cell_volume  192.9698261650607
_cell_formula_units_Z  2
loop_
  _symmetry_equiv_pos_site_id
 _symmetry_equiv_pos_as_xyz
 1  'x, y, z'
loop_
 _atom_site_type_symbol
 _atom_site_label
 _atom_site_symmetry_multiplicity
 _atom_site_fract_x
 _atom_site_fract_y
 _atom_site_fract_z
 _atom_site_fract_occupancy
 Fe  Fe1  1  0.50000  0.00000  0.25000  1
 Fe  Fe2  1  0.00000  0.50000  0.75000  1
 Fe  Fe3  1  0.00000  0.50000  0.25000  1
 Fe  Fe4  1  0.50000  0.00000  0.75000  1
 K  K1  1  0.00000  0.00000  0.00000  1
 K  K2  1  0.50000  0.50000  0.50000  1
 Se  Se1  1  0.00000  0.00000  0.65010  1
 Se  Se2  1  0.50000  0.50000  0.15010  1
 Se  Se3  1  0.00000  0.00000  0.34990  1
 Se  Se4  1  0.50000  0.50000  0.84990  1
