CIF file written using JARVIS-Tools package.
data_HoGePd
_symmetry_space_group_name_H-M  'C2/m'
_cell_length_a       5.63715
_cell_length_b       5.63715
_cell_length_c       6.99822
_cell_angle_alpha    51.8401
_cell_angle_beta     51.8401
_cell_angle_gamma    45.1965

_symmetry_Int_Tables_number  12
_chemical_formula_structural  HoGePd
_chemical_formula_sum  Ho2Ge2Pd2
_cell_volume  117.24441137960305
_cell_formula_units_Z  2
loop_
  _symmetry_equiv_pos_site_id
 _symmetry_equiv_pos_as_xyz
 1  'x, y, z'
loop_
 _atom_site_type_symbol
 _atom_site_label
 _atom_site_symmetry_multiplicity
 _atom_site_fract_x
 _atom_site_fract_y
 _atom_site_fract_z
 _atom_site_fract_occupancy
 Ge  Ge1  1  0.15819  0.15819  0.90108  1
 Ge  Ge2  1  0.84181  0.84181  0.09892  1
 Ho  Ho1  1  0.45227  0.45227  0.30884  1
 Ho  Ho2  1  0.54773  0.54773  0.69116  1
 Pd  Pd1  1  0.82378  0.82378  0.72143  1
 Pd  Pd2  1  0.17622  0.17622  0.27857  1
