CIF file written using JARVIS-Tools package.
data_PdSe2Br6
_symmetry_space_group_name_H-M  'P-1'
_cell_length_a       4.65873
_cell_length_b       7.01285
_cell_length_c       8.96204
_cell_angle_alpha    105.84
_cell_angle_beta     97.5759
_cell_angle_gamma    95.0382

_symmetry_Int_Tables_number  2
_chemical_formula_structural  PdSe2Br6
_chemical_formula_sum  PdSe2Br6
_cell_volume  276.85896148924223
_cell_formula_units_Z  1
loop_
  _symmetry_equiv_pos_site_id
 _symmetry_equiv_pos_as_xyz
 1  'x, y, z'
loop_
 _atom_site_type_symbol
 _atom_site_label
 _atom_site_symmetry_multiplicity
 _atom_site_fract_x
 _atom_site_fract_y
 _atom_site_fract_z
 _atom_site_fract_occupancy
 Br  Br1  1  0.32500  0.63895  0.34779  1
 Br  Br2  1  0.67500  0.36105  0.65221  1
 Br  Br3  1  0.73785  0.30687  0.04379  1
 Br  Br4  1  0.07773  0.02044  0.71498  1
 Br  Br5  1  0.92227  -0.02044  0.28502  1
 Br  Br6  1  0.26215  0.69313  0.95621  1
 Pd  Pd1  1  -0.00000  0.50000  0.50000  1
 Se  Se1  1  0.66136  0.26089  0.28812  1
 Se  Se2  1  0.33864  0.73911  0.71188  1
