CIF file written using JARVIS-Tools package.
data_AgPd2Au
_symmetry_space_group_name_H-M  'R3m'
_cell_length_a       9.47084
_cell_length_b       9.47083
_cell_length_c       9.47084
_cell_angle_alpha    17.3367
_cell_angle_beta     17.3367
_cell_angle_gamma    17.3367

_symmetry_Int_Tables_number  160
_chemical_formula_structural  AgPd2Au
_chemical_formula_sum  AgPd2Au
_cell_volume  65.8245166526368
_cell_formula_units_Z  1
loop_
  _symmetry_equiv_pos_site_id
 _symmetry_equiv_pos_as_xyz
 1  'x, y, z'
loop_
 _atom_site_type_symbol
 _atom_site_label
 _atom_site_symmetry_multiplicity
 _atom_site_fract_x
 _atom_site_fract_y
 _atom_site_fract_z
 _atom_site_fract_occupancy
 Ag  Ag1  1  0.99785  0.99785  0.99785  1
 Au  Au1  1  0.75151  0.75151  0.75151  1
 Pd  Pd1  1  0.50184  0.50184  0.50184  1
 Pd  Pd2  1  0.24880  0.24880  0.24880  1
