CIF file written using JARVIS-Tools package.
data_Cd3FeS4
_symmetry_space_group_name_H-M  'P-4m2'
_cell_length_a       4.07107
_cell_length_b       4.07107
_cell_length_c       11.5779
_cell_angle_alpha    90
_cell_angle_beta     90
_cell_angle_gamma    90

_symmetry_Int_Tables_number  115
_chemical_formula_structural  Cd3FeS4
_chemical_formula_sum  Cd3FeS4
_cell_volume  191.88700698588832
_cell_formula_units_Z  1
loop_
  _symmetry_equiv_pos_site_id
 _symmetry_equiv_pos_as_xyz
 1  'x, y, z'
loop_
 _atom_site_type_symbol
 _atom_site_label
 _atom_site_symmetry_multiplicity
 _atom_site_fract_x
 _atom_site_fract_y
 _atom_site_fract_z
 _atom_site_fract_occupancy
 Cd  Cd1  1  0.00000  0.00000  0.76443  1
 Cd  Cd2  1  0.50000  0.50000  0.50000  1
 Cd  Cd3  1  0.00000  0.00000  0.23557  1
 Fe  Fe1  1  0.50000  0.50000  0.00000  1
 S  S1  1  0.00000  0.50000  0.36781  1
 S  S2  1  0.50000  0.00000  0.10168  1
 S  S3  1  0.00000  0.50000  0.89832  1
 S  S4  1  0.50000  0.00000  0.63219  1
