CIF file written using JARVIS-Tools package.
data_ZnGa2S4
_symmetry_space_group_name_H-M  'I-4'
_cell_length_a       5.32134
_cell_length_b       5.32146
_cell_length_c       6.43565
_cell_angle_alpha    114.422
_cell_angle_beta     114.424
_cell_angle_gamma    90

_symmetry_Int_Tables_number  82
_chemical_formula_structural  ZnGa2S4
_chemical_formula_sum  ZnGa2S4
_cell_volume  147.83892498648186
_cell_formula_units_Z  1
loop_
  _symmetry_equiv_pos_site_id
 _symmetry_equiv_pos_as_xyz
 1  'x, y, z'
loop_
 _atom_site_type_symbol
 _atom_site_label
 _atom_site_symmetry_multiplicity
 _atom_site_fract_x
 _atom_site_fract_y
 _atom_site_fract_z
 _atom_site_fract_occupancy
 Ga  Ga1  1  0.00003  -0.00002  0.00000  1
 Ga  Ga2  1  0.75000  0.25003  0.50001  1
 S  S1  1  0.62741  0.14527  0.76396  1
 S  S2  1  0.85465  0.86344  0.23600  1
 S  S3  1  0.13665  0.61865  0.76402  1
 S  S4  1  0.38133  0.37264  0.23602  1
 Zn  Zn1  1  0.24993  0.74999  0.49999  1
