CIF file written using JARVIS-Tools package.
data_Tb2PbS4
_symmetry_space_group_name_H-M  'I-42d'
_cell_length_a       7.37657
_cell_length_b       7.37658
_cell_length_c       7.37657
_cell_angle_alpha    109.359
_cell_angle_beta     109.359
_cell_angle_gamma    109.696

_symmetry_Int_Tables_number  122
_chemical_formula_structural  Tb2PbS4
_chemical_formula_sum  Tb4Pb2S8
_cell_volume  308.98505217875413
_cell_formula_units_Z  2
loop_
  _symmetry_equiv_pos_site_id
 _symmetry_equiv_pos_as_xyz
 1  'x, y, z'
loop_
 _atom_site_type_symbol
 _atom_site_label
 _atom_site_symmetry_multiplicity
 _atom_site_fract_x
 _atom_site_fract_y
 _atom_site_fract_z
 _atom_site_fract_occupancy
 Pb  Pb1  1  0.62500  0.37500  0.25000  1
 Pb  Pb2  1  0.87500  0.12500  0.75000  1
 S  S1  1  0.01338  0.86148  0.49621  1
 S  S2  1  0.13852  0.13472  0.15189  1
 S  S3  1  0.36148  0.51338  0.99621  1
 S  S4  1  0.63472  0.63852  0.65189  1
 S  S5  1  0.48662  0.98283  0.84811  1
 S  S6  1  0.48283  0.98662  0.34811  1
 S  S7  1  0.86528  0.51717  0.00379  1
 S  S8  1  0.01717  0.36528  0.50379  1
 Tb  Tb1  1  0.11880  0.75000  0.86880  1
 Tb  Tb2  1  0.25000  0.61880  0.36880  1
 Tb  Tb3  1  0.38120  0.25000  0.63120  1
 Tb  Tb4  1  0.75000  0.88120  0.13120  1
