CIF file written using JARVIS-Tools package.
data_K3NaSn3Se8
_symmetry_space_group_name_H-M  'P4/nbm'
_cell_length_a       8.1424
_cell_length_b       8.1424
_cell_length_c       13.8231
_cell_angle_alpha    90
_cell_angle_beta     90
_cell_angle_gamma    90

_symmetry_Int_Tables_number  125
_chemical_formula_structural  K3NaSn3Se8
_chemical_formula_sum  K6Na2Sn6Se6
_cell_volume  916.455864480866
_cell_formula_units_Z  2
loop_
  _symmetry_equiv_pos_site_id
 _symmetry_equiv_pos_as_xyz
 1  'x, y, z'
loop_
 _atom_site_type_symbol
 _atom_site_label
 _atom_site_symmetry_multiplicity
 _atom_site_fract_x
 _atom_site_fract_y
 _atom_site_fract_z
 _atom_site_fract_occupancy
 K  K1  1  0.25000  0.25000  0.72547  1
 K  K2  1  0.75000  0.75000  0.72547  1
 K  K3  1  0.75000  0.75000  0.27453  1
 K  K4  1  0.25000  0.25000  0.27453  1
 K  K5  1  0.75000  0.75000  0.00000  1
 K  K6  1  0.25000  0.25000  0.00000  1
 Na  Na1  1  0.25000  0.75000  0.00000  1
 Na  Na2  1  0.75000  0.25000  0.00000  1
 Se  Se1  1  0.56541  0.06541  0.14375  1
 Se  Se2  1  0.58217  0.08217  0.62388  1
 Se  Se3  1  0.93459  0.43459  0.14375  1
 Se  Se4  1  0.93459  0.06541  0.85625  1
 Se  Se5  1  0.41783  0.58217  0.62388  1
 Se  Se6  1  0.08217  0.58217  0.37612  1
 Se  Se7  1  0.43459  0.93459  0.85625  1
 Se  Se8  1  0.08217  0.91783  0.62388  1
 Se  Se9  1  0.58217  0.41783  0.37612  1
 Se  Se10  1  0.06541  0.56541  0.85625  1
 Se  Se11  1  0.43459  0.56541  0.14375  1
 Se  Se12  1  0.91783  0.41783  0.62388  1
 Se  Se13  1  0.41783  0.91783  0.37612  1
 Se  Se14  1  0.06541  0.93459  0.14375  1
 Se  Se15  1  0.91783  0.08217  0.37612  1
 Se  Se16  1  0.56541  0.43459  0.85625  1
 Sn  Sn1  1  0.75000  0.25000  0.75648  1
 Sn  Sn2  1  0.75000  0.25000  0.24352  1
 Sn  Sn3  1  0.25000  0.75000  0.75648  1
 Sn  Sn4  1  0.25000  0.75000  0.24352  1
 Sn  Sn5  1  0.75000  0.25000  0.50000  1
 Sn  Sn6  1  0.25000  0.75000  0.50000  1
