CIF file written using JARVIS-Tools package.
data_AgIO3
_symmetry_space_group_name_H-M  'Pbca'
_cell_length_a       5.48422
_cell_length_b       7.44841
_cell_length_c       15.1436
_cell_angle_alpha    90
_cell_angle_beta     90
_cell_angle_gamma    90

_symmetry_Int_Tables_number  61
_chemical_formula_structural  AgIO3
_chemical_formula_sum  Ag8I8O24
_cell_volume  618.5971986721961
_cell_formula_units_Z  8
loop_
  _symmetry_equiv_pos_site_id
 _symmetry_equiv_pos_as_xyz
 1  'x, y, z'
loop_
 _atom_site_type_symbol
 _atom_site_label
 _atom_site_symmetry_multiplicity
 _atom_site_fract_x
 _atom_site_fract_y
 _atom_site_fract_z
 _atom_site_fract_occupancy
 Ag  Ag1  1  0.55305  0.89884  0.70946  1
 Ag  Ag2  1  0.07964  0.60111  0.29055  1
 Ag  Ag3  1  0.57964  0.39889  0.70945  1
 Ag  Ag4  1  0.07964  0.39889  0.79055  1
 Ag  Ag5  1  0.57964  0.60111  0.20945  1
 Ag  Ag6  1  0.05305  0.10116  0.29054  1
 Ag  Ag7  1  0.05305  0.89884  0.79054  1
 Ag  Ag8  1  0.55305  0.10116  0.20946  1
 I  I1  1  0.53663  0.64850  0.92004  1
 I  I2  1  0.59608  0.85150  0.42003  1
 I  I3  1  0.53663  0.35150  0.42004  1
 I  I4  1  0.03663  0.64850  0.57996  1
 I  I5  1  0.59608  0.14850  0.92003  1
 I  I6  1  0.09608  0.14850  0.57997  1
 I  I7  1  0.03663  0.35150  0.07996  1
 I  I8  1  0.09608  0.85150  0.07997  1
 O  O1  1  0.49868  0.85278  0.30299  1
 O  O2  1  0.32995  0.54857  0.41630  1
 O  O3  1  0.29624  0.17634  0.41241  1
 O  O4  1  0.79624  0.82366  0.58759  1
 O  O5  1  0.29624  0.82366  0.91241  1
 O  O6  1  0.79624  0.17634  0.08759  1
 O  O7  1  0.80279  0.04855  0.41630  1
 O  O8  1  0.30279  0.95145  0.58370  1
 O  O9  1  0.30279  0.04855  0.08370  1
 O  O10  1  0.32995  0.45143  0.91630  1
 O  O11  1  -0.00132  0.14722  0.69701  1
 O  O12  1  0.33645  0.32369  0.58759  1
 O  O13  1  -0.00132  0.85278  0.19701  1
 O  O14  1  0.63407  0.35279  0.30300  1
 O  O15  1  0.13407  0.64721  0.69700  1
 O  O16  1  0.63407  0.64721  0.80300  1
 O  O17  1  0.82995  0.45143  0.58370  1
 O  O18  1  0.13407  0.35279  0.19700  1
 O  O19  1  0.80279  0.95145  0.91630  1
 O  O20  1  0.83645  0.32369  0.91241  1
 O  O21  1  0.33645  0.67631  0.08759  1
 O  O22  1  0.83645  0.67631  0.41241  1
 O  O23  1  0.49868  0.14722  0.80299  1
 O  O24  1  0.82995  0.54857  0.08370  1
