CIF file written using JARVIS-Tools package.
data_USbSe
_symmetry_space_group_name_H-M  'P4/nmm'
_cell_length_a       4.18052
_cell_length_b       4.18052
_cell_length_c       8.65671
_cell_angle_alpha    90
_cell_angle_beta     90
_cell_angle_gamma    90

_symmetry_Int_Tables_number  129
_chemical_formula_structural  USbSe
_chemical_formula_sum  U2Sb2Se2
_cell_volume  151.2911353963654
_cell_formula_units_Z  2
loop_
  _symmetry_equiv_pos_site_id
 _symmetry_equiv_pos_as_xyz
 1  'x, y, z'
loop_
 _atom_site_type_symbol
 _atom_site_label
 _atom_site_symmetry_multiplicity
 _atom_site_fract_x
 _atom_site_fract_y
 _atom_site_fract_z
 _atom_site_fract_occupancy
 Sb  Sb1  1  0.50000  0.50000  0.00000  1
 Sb  Sb2  1  0.00000  0.00000  0.00000  1
 Se  Se1  1  0.50000  0.00000  0.36672  1
 Se  Se2  1  0.00000  0.50000  0.63328  1
 U  U1  1  0.50000  0.00000  0.70685  1
 U  U2  1  0.00000  0.50000  0.29315  1
