CIF file written using JARVIS-Tools package.
data_Sm2Bi
_symmetry_space_group_name_H-M  'I4/mmm'
_cell_length_a       9.46884
_cell_length_b       9.46884
_cell_length_c       9.46884
_cell_angle_alpha    152.163
_cell_angle_beta     152.163
_cell_angle_gamma    39.775

_symmetry_Int_Tables_number  139
_chemical_formula_structural  Sm2Bi
_chemical_formula_sum  Sm4Bi2
_cell_volume  184.76483983628657
_cell_formula_units_Z  2
loop_
  _symmetry_equiv_pos_site_id
 _symmetry_equiv_pos_as_xyz
 1  'x, y, z'
loop_
 _atom_site_type_symbol
 _atom_site_label
 _atom_site_symmetry_multiplicity
 _atom_site_fract_x
 _atom_site_fract_y
 _atom_site_fract_z
 _atom_site_fract_occupancy
 Bi  Bi1  1  0.14010  0.14010  -0.00000  1
 Bi  Bi2  1  0.85990  0.85990  0.00000  1
 Sm  Sm1  1  0.32202  0.32202  -0.00000  1
 Sm  Sm2  1  0.67798  0.67798  0.00000  1
 Sm  Sm3  1  0.50000  0.00000  0.50000  1
 Sm  Sm4  1  0.00000  0.50000  0.50000  1
