CIF file written using JARVIS-Tools package.
data_Mg13Al14
_symmetry_space_group_name_H-M  'Im-3m'
_cell_length_a       8.86558
_cell_length_b       8.86557
_cell_length_c       8.86558
_cell_angle_alpha    109.471
_cell_angle_beta     109.471
_cell_angle_gamma    109.471

_symmetry_Int_Tables_number  229
_chemical_formula_structural  Mg13Al14
_chemical_formula_sum  Mg3Al4
_cell_volume  536.4126086612446
_cell_formula_units_Z  1
loop_
  _symmetry_equiv_pos_site_id
 _symmetry_equiv_pos_as_xyz
 1  'x, y, z'
loop_
 _atom_site_type_symbol
 _atom_site_label
 _atom_site_symmetry_multiplicity
 _atom_site_fract_x
 _atom_site_fract_y
 _atom_site_fract_z
 _atom_site_fract_occupancy
 Al  Al1  1  -0.00000  0.69984  0.69984  1
 Al  Al2  1  0.00000  0.30016  0.30016  1
 Al  Al3  1  0.65524  0.65524  0.65524  1
 Al  Al4  1  -0.00000  0.65524  0.00000  1
 Al  Al5  1  0.00000  0.00000  0.34476  1
 Al  Al6  1  0.00000  0.34476  -0.00000  1
 Al  Al7  1  0.00000  0.00000  0.65524  1
 Al  Al8  1  0.34476  0.34476  0.34476  1
 Al  Al9  1  0.30016  0.30016  -0.00000  1
 Al  Al10  1  0.69984  0.69984  0.00000  1
 Al  Al11  1  0.69984  0.00000  0.69984  1
 Al  Al12  1  0.30016  0.00000  0.30016  1
 Al  Al13  1  0.34476  0.00000  -0.00000  1
 Al  Al14  1  0.65524  0.00000  0.00000  1
 Mg  Mg1  1  0.65458  0.30915  0.65458  1
 Mg  Mg2  1  0.65458  0.34542  0.00000  1
 Mg  Mg3  1  0.65458  0.00000  0.34542  1
 Mg  Mg4  1  0.65458  0.65458  0.30915  1
 Mg  Mg5  1  -0.00000  0.65458  0.34542  1
 Mg  Mg6  1  0.34542  0.69085  0.34542  1
 Mg  Mg7  1  0.34542  0.65458  -0.00000  1
 Mg  Mg8  1  0.34542  0.34542  0.69085  1
 Mg  Mg9  1  0.34542  0.00000  0.65458  1
 Mg  Mg10  1  0.69085  0.34542  0.34542  1
 Mg  Mg11  1  0.30915  0.65458  0.65458  1
 Mg  Mg12  1  0.00000  0.34542  0.65458  1
 Mg  Mg13  1  0.00000  0.00000  0.00000  1
