CIF file written using JARVIS-Tools package.
data_NaGa
_symmetry_space_group_name_H-M  'Cmcm'
_cell_length_a       5.19368
_cell_length_b       5.19368
_cell_length_c       4.46147
_cell_angle_alpha    90
_cell_angle_beta     90
_cell_angle_gamma    113.019

_symmetry_Int_Tables_number  63
_chemical_formula_structural  NaGa
_chemical_formula_sum  Na2Ga2
_cell_volume  110.7625488546188
_cell_formula_units_Z  2
loop_
  _symmetry_equiv_pos_site_id
 _symmetry_equiv_pos_as_xyz
 1  'x, y, z'
loop_
 _atom_site_type_symbol
 _atom_site_label
 _atom_site_symmetry_multiplicity
 _atom_site_fract_x
 _atom_site_fract_y
 _atom_site_fract_z
 _atom_site_fract_occupancy
 Ga  Ga1  1  0.05376  0.94624  0.25000  1
 Ga  Ga2  1  0.94624  0.05376  0.75000  1
 Na  Na1  1  0.68034  0.31966  0.25000  1
 Na  Na2  1  0.31966  0.68034  0.75000  1
