CIF file written using JARVIS-Tools package.
data_GaH3O3
_symmetry_space_group_name_H-M  'R-3'
_cell_length_a       6.51379
_cell_length_b       6.51379
_cell_length_c       6.43831
_cell_angle_alpha    109.237
_cell_angle_beta     109.237
_cell_angle_gamma    109.705

_symmetry_Int_Tables_number  148
_chemical_formula_structural  GaH3O3
_chemical_formula_sum  Ga4H2O2
_cell_volume  210.8956042487511
_cell_formula_units_Z  4
loop_
  _symmetry_equiv_pos_site_id
 _symmetry_equiv_pos_as_xyz
 1  'x, y, z'
loop_
 _atom_site_type_symbol
 _atom_site_label
 _atom_site_symmetry_multiplicity
 _atom_site_fract_x
 _atom_site_fract_y
 _atom_site_fract_z
 _atom_site_fract_occupancy
 Ga  Ga1  1  0.50000  -0.00000  -0.00000  1
 Ga  Ga2  1  -0.00000  0.00000  0.50000  1
 Ga  Ga3  1  -0.00000  0.50000  0.00000  1
 Ga  Ga4  1  0.50000  0.50000  0.50000  1
 H  H1  1  0.30151  0.25999  0.95949  1
 H  H2  1  0.63493  0.18082  0.45248  1
 H  H3  1  0.74001  0.04152  0.69950  1
 H  H4  1  0.36507  0.81918  0.54752  1
 H  H5  1  0.45411  0.63493  0.18245  1
 H  H6  1  0.25999  0.95848  0.30050  1
 H  H7  1  0.69849  0.74001  0.04051  1
 H  H8  1  0.54589  0.36507  0.81755  1
 H  H9  1  0.04152  0.30151  0.34202  1
 H  H10  1  0.18082  0.54589  0.72834  1
 H  H11  1  0.95848  0.69849  0.65798  1
 H  H12  1  0.81918  0.45411  0.27166  1
 O  O1  1  0.17381  0.67756  0.85733  1
 O  O2  1  0.49625  0.17381  0.31648  1
 O  O3  1  0.13464  0.82375  0.30904  1
 O  O4  1  0.50375  0.82619  0.68352  1
 O  O5  1  0.86536  0.17625  0.69096  1
 O  O6  1  0.67756  0.50375  0.82022  1
 O  O7  1  0.68912  0.86536  0.17440  1
 O  O8  1  0.17625  0.31088  0.48528  1
 O  O9  1  0.82619  0.32244  0.14267  1
 O  O10  1  0.32244  0.49625  0.17978  1
 O  O11  1  0.31088  0.13464  0.82560  1
 O  O12  1  0.82375  0.68912  0.51472  1
