CIF file written using JARVIS-Tools package.
data_Ca2Mg
_symmetry_space_group_name_H-M  'Cmcm'
_cell_length_a       9.14926
_cell_length_b       9.14926
_cell_length_c       5.80742
_cell_angle_alpha    90
_cell_angle_beta     90
_cell_angle_gamma    155.295

_symmetry_Int_Tables_number  63
_chemical_formula_structural  Ca2Mg
_chemical_formula_sum  Ca4Mg2
_cell_volume  203.1744989139477
_cell_formula_units_Z  2
loop_
  _symmetry_equiv_pos_site_id
 _symmetry_equiv_pos_as_xyz
 1  'x, y, z'
loop_
 _atom_site_type_symbol
 _atom_site_label
 _atom_site_symmetry_multiplicity
 _atom_site_fract_x
 _atom_site_fract_y
 _atom_site_fract_z
 _atom_site_fract_occupancy
 Ca  Ca1  1  0.08373  0.91627  0.25000  1
 Ca  Ca2  1  0.77509  0.22491  0.25000  1
 Ca  Ca3  1  0.22491  0.77509  0.75000  1
 Ca  Ca4  1  0.91627  0.08373  0.75000  1
 Mg  Mg1  1  0.42903  0.57097  0.25000  1
 Mg  Mg2  1  0.57097  0.42903  0.75000  1
