CIF file written using JARVIS-Tools package.
data_YAgSe2
_symmetry_space_group_name_H-M  'Cm'
_cell_length_a       5.56846
_cell_length_b       5.76554
_cell_length_c       7.32173
_cell_angle_alpha    114.204
_cell_angle_beta     112.351
_cell_angle_gamma    89.9989

_symmetry_Int_Tables_number  8
_chemical_formula_structural  YAgSe2
_chemical_formula_sum  Y2Ag2Se4
_cell_volume  194.8786634479088
_cell_formula_units_Z  2
loop_
  _symmetry_equiv_pos_site_id
 _symmetry_equiv_pos_as_xyz
 1  'x, y, z'
loop_
 _atom_site_type_symbol
 _atom_site_label
 _atom_site_symmetry_multiplicity
 _atom_site_fract_x
 _atom_site_fract_y
 _atom_site_fract_z
 _atom_site_fract_occupancy
 Ag  Ag1  1  0.48571  0.58854  0.97495  1
 Ag  Ag2  1  0.70632  0.09187  0.41665  1
 Se  Se1  1  0.77513  0.72009  0.55400  1
 Se  Se2  1  0.24659  0.24959  0.49707  1
 Se  Se3  1  0.49250  0.06859  0.98874  1
 Se  Se4  1  0.01997  0.52422  0.04360  1
 Y  Y1  1  0.01001  0.00146  0.02379  1
 Y  Y2  1  0.25510  0.76570  0.51398  1
