CIF file written using JARVIS-Tools package.
data_Ca4P2O
_symmetry_space_group_name_H-M  'I4/mmm'
_cell_length_a       4.49155
_cell_length_b       4.49154
_cell_length_c       8.15208
_cell_angle_alpha    105.991
_cell_angle_beta     105.991
_cell_angle_gamma    90

_symmetry_Int_Tables_number  139
_chemical_formula_structural  Ca4P2O
_chemical_formula_sum  Ca4P2O
_cell_volume  151.46537915861094
_cell_formula_units_Z  1
loop_
  _symmetry_equiv_pos_site_id
 _symmetry_equiv_pos_as_xyz
 1  'x, y, z'
loop_
 _atom_site_type_symbol
 _atom_site_label
 _atom_site_symmetry_multiplicity
 _atom_site_fract_x
 _atom_site_fract_y
 _atom_site_fract_z
 _atom_site_fract_occupancy
 Ca  Ca1  1  0.82677  0.82677  0.65354  1
 Ca  Ca2  1  0.17323  0.17323  0.34646  1
 Ca  Ca3  1  0.00000  0.50000  -0.00000  1
 Ca  Ca4  1  0.50000  -0.00000  -0.00000  1
 O  O1  1  0.00000  0.00000  0.00000  1
 P  P1  1  0.63631  0.63631  0.27261  1
 P  P2  1  0.36369  0.36369  0.72739  1
