CIF file written using JARVIS-Tools package.
data_SmHO2
_symmetry_space_group_name_H-M  'P2_1/m'
_cell_length_a       3.76034
_cell_length_b       4.39154
_cell_length_c       6.16465
_cell_angle_alpha    71.2427
_cell_angle_beta     90
_cell_angle_gamma    90

_symmetry_Int_Tables_number  11
_chemical_formula_structural  SmHO2
_chemical_formula_sum  Sm2H2O4
_cell_volume  96.39441239425761
_cell_formula_units_Z  2
loop_
  _symmetry_equiv_pos_site_id
 _symmetry_equiv_pos_as_xyz
 1  'x, y, z'
loop_
 _atom_site_type_symbol
 _atom_site_label
 _atom_site_symmetry_multiplicity
 _atom_site_fract_x
 _atom_site_fract_y
 _atom_site_fract_z
 _atom_site_fract_occupancy
 H  H1  1  0.75000  0.98409  0.42498  1
 H  H2  1  0.25000  0.01591  0.57502  1
 O  O1  1  0.25000  0.23582  0.04668  1
 O  O2  1  0.75000  0.75622  0.43883  1
 O  O3  1  0.25000  0.24378  0.56117  1
 O  O4  1  0.75000  0.76418  0.95332  1
 Sm  Sm1  1  0.25000  0.66624  0.19116  1
 Sm  Sm2  1  0.75000  0.33376  0.80884  1
