CIF file written using JARVIS-Tools package.
data_DyCdIn
_symmetry_space_group_name_H-M  'P-3m1'
_cell_length_a       4.83547
_cell_length_b       4.83547
_cell_length_c       7.43897
_cell_angle_alpha    90
_cell_angle_beta     90
_cell_angle_gamma    120

_symmetry_Int_Tables_number  164
_chemical_formula_structural  DyCdIn
_chemical_formula_sum  Dy2Cd2In2
_cell_volume  150.63286296447873
_cell_formula_units_Z  2
loop_
  _symmetry_equiv_pos_site_id
 _symmetry_equiv_pos_as_xyz
 1  'x, y, z'
loop_
 _atom_site_type_symbol
 _atom_site_label
 _atom_site_symmetry_multiplicity
 _atom_site_fract_x
 _atom_site_fract_y
 _atom_site_fract_z
 _atom_site_fract_occupancy
 Cd  Cd1  1  0.33333  0.66667  0.47421  1
 Cd  Cd2  1  0.66667  0.33333  0.52579  1
 Dy  Dy1  1  0.00000  0.00000  0.26315  1
 Dy  Dy2  1  0.00000  0.00000  0.73685  1
 In  In1  1  0.66667  0.33333  0.94340  1
 In  In2  1  0.33333  0.66667  0.05660  1
