CIF file written using JARVIS-Tools package.
data_Dy2NiAs2
_symmetry_space_group_name_H-M  'P6_3mc'
_cell_length_a       4.0998
_cell_length_b       4.0998
_cell_length_c       14.2038
_cell_angle_alpha    90
_cell_angle_beta     90
_cell_angle_gamma    120

_symmetry_Int_Tables_number  186
_chemical_formula_structural  Dy2NiAs2
_chemical_formula_sum  Dy4Ni2As4
_cell_volume  206.75772859360467
_cell_formula_units_Z  2
loop_
  _symmetry_equiv_pos_site_id
 _symmetry_equiv_pos_as_xyz
 1  'x, y, z'
loop_
 _atom_site_type_symbol
 _atom_site_label
 _atom_site_symmetry_multiplicity
 _atom_site_fract_x
 _atom_site_fract_y
 _atom_site_fract_z
 _atom_site_fract_occupancy
 As  As1  1  0.66667  0.33333  0.98700  1
 As  As2  1  0.33333  0.66667  0.48700  1
 As  As3  1  0.00000  0.00000  0.73691  1
 As  As4  1  0.00000  0.00000  0.23691  1
 Dy  Dy1  1  0.66667  0.33333  0.61978  1
 Dy  Dy2  1  0.33333  0.66667  0.11978  1
 Dy  Dy3  1  0.66667  0.33333  0.35403  1
 Dy  Dy4  1  0.33333  0.66667  0.85403  1
 Ni  Ni1  1  0.00000  0.00000  0.98662  1
 Ni  Ni2  1  0.00000  0.00000  0.48662  1
