CIF file written using JARVIS-Tools package.
data_Mg2Sc
_symmetry_space_group_name_H-M  'C2/m'
_cell_length_a       6.20387
_cell_length_b       6.20387
_cell_length_c       7.56007
_cell_angle_alpha    75.4016
_cell_angle_beta     75.4016
_cell_angle_gamma    29.5269

_symmetry_Int_Tables_number  12
_chemical_formula_structural  Mg2Sc
_chemical_formula_sum  Mg4Sc2
_cell_volume  138.44328422994354
_cell_formula_units_Z  2
loop_
  _symmetry_equiv_pos_site_id
 _symmetry_equiv_pos_as_xyz
 1  'x, y, z'
loop_
 _atom_site_type_symbol
 _atom_site_label
 _atom_site_symmetry_multiplicity
 _atom_site_fract_x
 _atom_site_fract_y
 _atom_site_fract_z
 _atom_site_fract_occupancy
 Mg  Mg1  1  0.19646  0.19646  0.85790  1
 Mg  Mg2  1  0.86017  0.86017  0.53079  1
 Mg  Mg3  1  0.13983  0.13983  0.46921  1
 Mg  Mg4  1  0.80354  0.80354  0.14210  1
 Sc  Sc1  1  0.47638  0.47638  0.80566  1
 Sc  Sc2  1  0.52362  0.52362  0.19434  1
