CIF file written using JARVIS-Tools package.
data_LaAl2Ag3
_symmetry_space_group_name_H-M  'Cmmm'
_cell_length_a       5.63188
_cell_length_b       5.63187
_cell_length_c       4.52407
_cell_angle_alpha    90
_cell_angle_beta     90
_cell_angle_gamma    121.486

_symmetry_Int_Tables_number  65
_chemical_formula_structural  LaAl2Ag3
_chemical_formula_sum  LaAl2Ag3
_cell_volume  122.36704245210014
_cell_formula_units_Z  1
loop_
  _symmetry_equiv_pos_site_id
 _symmetry_equiv_pos_as_xyz
 1  'x, y, z'
loop_
 _atom_site_type_symbol
 _atom_site_label
 _atom_site_symmetry_multiplicity
 _atom_site_fract_x
 _atom_site_fract_y
 _atom_site_fract_z
 _atom_site_fract_occupancy
 Ag  Ag1  1  0.67722  0.32278  0.00000  1
 Ag  Ag2  1  0.32278  0.67722  0.00000  1
 Ag  Ag3  1  0.50000  0.50000  0.50000  1
 Al  Al1  1  0.50000  -0.00000  0.50000  1
 Al  Al2  1  0.00000  0.50000  0.50000  1
 La  La1  1  0.00000  0.00000  0.00000  1
