CIF file written using JARVIS-Tools package.
data_CePdPt4
_symmetry_space_group_name_H-M  'P-6m2'
_cell_length_a       5.37466
_cell_length_b       5.37467
_cell_length_c       4.47418
_cell_angle_alpha    90
_cell_angle_beta     90
_cell_angle_gamma    120

_symmetry_Int_Tables_number  187
_chemical_formula_structural  CePdPt4
_chemical_formula_sum  CePdPt4
_cell_volume  111.92993877308965
_cell_formula_units_Z  1
loop_
  _symmetry_equiv_pos_site_id
 _symmetry_equiv_pos_as_xyz
 1  'x, y, z'
loop_
 _atom_site_type_symbol
 _atom_site_label
 _atom_site_symmetry_multiplicity
 _atom_site_fract_x
 _atom_site_fract_y
 _atom_site_fract_z
 _atom_site_fract_occupancy
 Ce  Ce1  1  0.33333  0.66667  0.00000  1
 Pd  Pd1  1  0.00000  0.00000  0.00000  1
 Pt  Pt1  1  0.66667  0.33333  0.00000  1
 Pt  Pt2  1  0.83374  0.16626  0.50000  1
 Pt  Pt3  1  0.83374  0.66748  0.50000  1
 Pt  Pt4  1  0.33252  0.16626  0.50000  1
