CIF file written using JARVIS-Tools package.
data_Mo3C2
_symmetry_space_group_name_H-M  'P-3m1'
_cell_length_a       3.06737
_cell_length_b       3.06737
_cell_length_c       14.5088
_cell_angle_alpha    90
_cell_angle_beta     90
_cell_angle_gamma    120

_symmetry_Int_Tables_number  164
_chemical_formula_structural  Mo3C2
_chemical_formula_sum  Mo6C4
_cell_volume  118.22149674338826
_cell_formula_units_Z  2
loop_
  _symmetry_equiv_pos_site_id
 _symmetry_equiv_pos_as_xyz
 1  'x, y, z'
loop_
 _atom_site_type_symbol
 _atom_site_label
 _atom_site_symmetry_multiplicity
 _atom_site_fract_x
 _atom_site_fract_y
 _atom_site_fract_z
 _atom_site_fract_occupancy
 C  C1  1  0.66667  0.33333  0.32019  1
 C  C2  1  0.33333  0.66667  0.67981  1
 C  C3  1  0.00000  0.00000  0.50000  1
 C  C4  1  0.00000  0.00000  0.00000  1
 Mo  Mo1  1  0.00000  0.00000  0.24580  1
 Mo  Mo2  1  0.00000  0.00000  0.75420  1
 Mo  Mo3  1  0.33333  0.66667  0.40845  1
 Mo  Mo4  1  0.66667  0.33333  0.59155  1
 Mo  Mo5  1  0.66667  0.33333  0.91645  1
 Mo  Mo6  1  0.33333  0.66667  0.08355  1
