CIF file written using JARVIS-Tools package.
data_NaLuS2
_symmetry_space_group_name_H-M  'R-3m'
_cell_length_a       6.96201
_cell_length_b       6.962
_cell_length_c       6.962
_cell_angle_alpha    32.3807
_cell_angle_beta     32.3807
_cell_angle_gamma    32.3808

_symmetry_Int_Tables_number  166
_chemical_formula_structural  NaLuS2
_chemical_formula_sum  NaLuS2
_cell_volume  86.04128216629876
_cell_formula_units_Z  1
loop_
  _symmetry_equiv_pos_site_id
 _symmetry_equiv_pos_as_xyz
 1  'x, y, z'
loop_
 _atom_site_type_symbol
 _atom_site_label
 _atom_site_symmetry_multiplicity
 _atom_site_fract_x
 _atom_site_fract_y
 _atom_site_fract_z
 _atom_site_fract_occupancy
 Lu  Lu1  1  0.00000  0.00000  0.00000  1
 Na  Na1  1  0.50000  0.50000  0.50000  1
 S  S1  1  0.25831  0.25831  0.25831  1
 S  S2  1  0.74169  0.74169  0.74169  1
