CIF file written using JARVIS-Tools package.
data_La2GaCoO6
_symmetry_space_group_name_H-M  'R-3'
_cell_length_a       5.42519
_cell_length_b       5.42519
_cell_length_c       5.42519
_cell_angle_alpha    61.1633
_cell_angle_beta     61.1633
_cell_angle_gamma    61.1633

_symmetry_Int_Tables_number  148
_chemical_formula_structural  La2GaCoO6
_chemical_formula_sum  La2GaCoO6
_cell_volume  115.86438592689012
_cell_formula_units_Z  1
loop_
  _symmetry_equiv_pos_site_id
 _symmetry_equiv_pos_as_xyz
 1  'x, y, z'
loop_
 _atom_site_type_symbol
 _atom_site_label
 _atom_site_symmetry_multiplicity
 _atom_site_fract_x
 _atom_site_fract_y
 _atom_site_fract_z
 _atom_site_fract_occupancy
 Co  Co1  1  0.00000  0.00000  0.00000  1
 Ga  Ga1  1  0.50000  0.50000  0.50000  1
 La  La1  1  0.24922  0.24922  0.24922  1
 La  La2  1  0.75078  0.75078  0.75078  1
 O  O1  1  0.69307  0.81294  0.24610  1
 O  O2  1  0.24610  0.69307  0.81294  1
 O  O3  1  0.81294  0.24610  0.69307  1
 O  O4  1  0.75390  0.30693  0.18706  1
 O  O5  1  0.18706  0.75390  0.30693  1
 O  O6  1  0.30693  0.18706  0.75390  1
