CIF file written using JARVIS-Tools package.
data_PrAlZn
_symmetry_space_group_name_H-M  'C2/m'
_cell_length_a       5.82336
_cell_length_b       5.82337
_cell_length_c       7.57899
_cell_angle_alpha    50.8446
_cell_angle_beta     50.8445
_cell_angle_gamma    46.409

_symmetry_Int_Tables_number  12
_chemical_formula_structural  PrAlZn
_chemical_formula_sum  Pr2Al2Zn2
_cell_volume  135.2677568269595
_cell_formula_units_Z  2
loop_
  _symmetry_equiv_pos_site_id
 _symmetry_equiv_pos_as_xyz
 1  'x, y, z'
loop_
 _atom_site_type_symbol
 _atom_site_label
 _atom_site_symmetry_multiplicity
 _atom_site_fract_x
 _atom_site_fract_y
 _atom_site_fract_z
 _atom_site_fract_occupancy
 Al  Al1  1  0.16265  0.16265  0.38825  1
 Al  Al2  1  0.83735  0.83735  0.61175  1
 Pr  Pr1  1  0.53755  0.53755  0.20760  1
 Pr  Pr2  1  0.46245  0.46245  0.79240  1
 Zn  Zn1  1  0.83443  0.83443  0.21919  1
 Zn  Zn2  1  0.16557  0.16557  0.78081  1
