CIF file written using JARVIS-Tools package.
data_Mn2O3F
_symmetry_space_group_name_H-M  'Cmcm'
_cell_length_a       4.49349
_cell_length_b       4.49349
_cell_length_c       5.82446
_cell_angle_alpha    90
_cell_angle_beta     90
_cell_angle_gamma    93.2131

_symmetry_Int_Tables_number  63
_chemical_formula_structural  Mn2O3F
_chemical_formula_sum  Mn4O6F2
_cell_volume  117.41900103724495
_cell_formula_units_Z  2
loop_
  _symmetry_equiv_pos_site_id
 _symmetry_equiv_pos_as_xyz
 1  'x, y, z'
loop_
 _atom_site_type_symbol
 _atom_site_label
 _atom_site_symmetry_multiplicity
 _atom_site_fract_x
 _atom_site_fract_y
 _atom_site_fract_z
 _atom_site_fract_occupancy
 F  F1  1  0.21780  0.78220  0.25000  1
 F  F2  1  0.78220  0.21780  0.75000  1
 Mn  Mn1  1  0.00000  0.00000  0.00000  1
 Mn  Mn2  1  0.00000  0.00000  0.50000  1
 Mn  Mn3  1  0.53246  0.46754  0.25000  1
 Mn  Mn4  1  0.46754  0.53246  0.75000  1
 O  O1  1  0.19108  0.80892  0.75000  1
 O  O2  1  0.30715  0.30715  0.00000  1
 O  O3  1  0.30715  0.30715  0.50000  1
 O  O4  1  0.69285  0.69285  0.00000  1
 O  O5  1  0.69285  0.69285  0.50000  1
 O  O6  1  0.80892  0.19108  0.25000  1
