CIF file written using JARVIS-Tools package.
data_KSb2F7
_symmetry_space_group_name_H-M  'P2_1/c'
_cell_length_a       7.53082
_cell_length_b       8.24548
_cell_length_c       10.7258
_cell_angle_alpha    101.495
_cell_angle_beta     90
_cell_angle_gamma    90

_symmetry_Int_Tables_number  14
_chemical_formula_structural  KSb2F7
_chemical_formula_sum  K4Sb8F28
_cell_volume  652.6654829310419
_cell_formula_units_Z  4
loop_
  _symmetry_equiv_pos_site_id
 _symmetry_equiv_pos_as_xyz
 1  'x, y, z'
loop_
 _atom_site_type_symbol
 _atom_site_label
 _atom_site_symmetry_multiplicity
 _atom_site_fract_x
 _atom_site_fract_y
 _atom_site_fract_z
 _atom_site_fract_occupancy
 F  F1  1  0.84187  0.96724  0.58862  1
 F  F2  1  0.06719  0.55417  0.88610  1
 F  F3  1  0.43281  0.05417  0.88610  1
 F  F4  1  0.93281  0.44583  0.11390  1
 F  F5  1  0.89432  0.07350  0.11555  1
 F  F6  1  0.39432  0.42650  0.88445  1
 F  F7  1  0.10568  0.92650  0.88445  1
 F  F8  1  0.60568  0.57350  0.11555  1
 F  F9  1  0.90789  0.19514  0.85414  1
 F  F10  1  0.59211  0.69514  0.85414  1
 F  F11  1  0.20410  0.13261  0.72121  1
 F  F12  1  0.70410  0.36739  0.27879  1
 F  F13  1  0.11459  0.30152  0.30164  1
 F  F14  1  0.61459  0.19848  0.69836  1
 F  F15  1  0.88541  0.69848  0.69836  1
 F  F16  1  0.38541  0.80152  0.30164  1
 F  F17  1  0.40789  0.30486  0.14586  1
 F  F18  1  0.79590  0.86739  0.27879  1
 F  F19  1  0.56719  0.94583  0.11390  1
 F  F20  1  0.09211  0.80486  0.14586  1
 F  F21  1  0.65813  0.46724  0.58862  1
 F  F22  1  0.15813  0.03276  0.41138  1
 F  F23  1  0.00717  0.62279  0.37957  1
 F  F24  1  0.50717  0.87721  0.62043  1
 F  F25  1  0.99283  0.37721  0.62043  1
 F  F26  1  0.49283  0.12279  0.37957  1
 F  F27  1  0.34187  0.53276  0.41138  1
 F  F28  1  0.29590  0.63261  0.72121  1
 K  K1  1  0.66334  0.67600  0.42493  1
 K  K2  1  0.33666  0.32400  0.57507  1
 K  K3  1  0.83666  0.17600  0.42493  1
 K  K4  1  0.16334  0.82400  0.57507  1
 Sb  Sb1  1  0.68825  0.98554  0.74461  1
 Sb  Sb2  1  0.82125  0.83474  0.09380  1
 Sb  Sb3  1  0.31175  0.01446  0.25539  1
 Sb  Sb4  1  0.67875  0.33474  0.09380  1
 Sb  Sb5  1  0.81175  0.48554  0.74461  1
 Sb  Sb6  1  0.32125  0.66526  0.90620  1
 Sb  Sb7  1  0.18825  0.51446  0.25539  1
 Sb  Sb8  1  0.17875  0.16526  0.90620  1
