CIF file written using JARVIS-Tools package.
data_CeCdIn
_symmetry_space_group_name_H-M  'P-3m1'
_cell_length_a       4.97091
_cell_length_b       4.9709
_cell_length_c       7.38612
_cell_angle_alpha    90
_cell_angle_beta     90
_cell_angle_gamma    120

_symmetry_Int_Tables_number  164
_chemical_formula_structural  CeCdIn
_chemical_formula_sum  Ce2Cd2In2
_cell_volume  158.05858057661735
_cell_formula_units_Z  2
loop_
  _symmetry_equiv_pos_site_id
 _symmetry_equiv_pos_as_xyz
 1  'x, y, z'
loop_
 _atom_site_type_symbol
 _atom_site_label
 _atom_site_symmetry_multiplicity
 _atom_site_fract_x
 _atom_site_fract_y
 _atom_site_fract_z
 _atom_site_fract_occupancy
 Cd  Cd1  1  0.66667  0.33333  0.48034  1
 Cd  Cd2  1  0.33333  0.66667  0.51966  1
 Ce  Ce1  1  0.00000  0.00000  0.26033  1
 Ce  Ce2  1  0.00000  0.00000  0.73967  1
 In  In1  1  0.33333  0.66667  0.95381  1
 In  In2  1  0.66667  0.33333  0.04619  1
