CIF file written using JARVIS-Tools package.
data_Ga3Co4Ge
_symmetry_space_group_name_H-M  'R3'
_cell_length_a       4.63919
_cell_length_b       4.63919
_cell_length_c       4.63919
_cell_angle_alpha    90.6378
_cell_angle_beta     90.6378
_cell_angle_gamma    90.6378

_symmetry_Int_Tables_number  146
_chemical_formula_structural  Ga3Co4Ge
_chemical_formula_sum  Ga3Co4Ge
_cell_volume  99.82606216793552
_cell_formula_units_Z  1
loop_
  _symmetry_equiv_pos_site_id
 _symmetry_equiv_pos_as_xyz
 1  'x, y, z'
loop_
 _atom_site_type_symbol
 _atom_site_label
 _atom_site_symmetry_multiplicity
 _atom_site_fract_x
 _atom_site_fract_y
 _atom_site_fract_z
 _atom_site_fract_occupancy
 Co  Co1  1  0.13584  0.13584  0.13584  1
 Co  Co2  1  0.64491  0.86142  0.36015  1
 Co  Co3  1  0.86142  0.36015  0.64491  1
 Co  Co4  1  0.36015  0.64491  0.86142  1
 Ga  Ga1  1  0.34234  0.16225  0.65354  1
 Ga  Ga2  1  0.16225  0.65354  0.34234  1
 Ga  Ga3  1  0.65354  0.34234  0.16225  1
 Ge  Ge1  1  0.83955  0.83955  0.83955  1
