CIF file written using JARVIS-Tools package.
data_BaSrI4
_symmetry_space_group_name_H-M  'C2/c'
_cell_length_a       8.66723
_cell_length_b       9.15293
_cell_length_c       9.15293
_cell_angle_alpha    108.479
_cell_angle_beta     67.6374
_cell_angle_gamma    67.6374

_symmetry_Int_Tables_number  15
_chemical_formula_structural  BaSrI4
_chemical_formula_sum  Ba2Sr2I8
_cell_volume  522.7278580460664
_cell_formula_units_Z  2
loop_
  _symmetry_equiv_pos_site_id
 _symmetry_equiv_pos_as_xyz
 1  'x, y, z'
loop_
 _atom_site_type_symbol
 _atom_site_label
 _atom_site_symmetry_multiplicity
 _atom_site_fract_x
 _atom_site_fract_y
 _atom_site_fract_z
 _atom_site_fract_occupancy
 Ba  Ba1  1  0.75000  0.23318  0.26682  1
 Ba  Ba2  1  0.25000  0.76682  0.73318  1
 I  I1  1  0.25721  0.99756  0.11991  1
 I  I2  1  0.93051  0.76336  0.12680  1
 I  I3  1  0.43051  0.62680  0.26336  1
 I  I4  1  0.24279  0.38009  0.50244  1
 I  I5  1  0.75721  0.61991  0.49756  1
 I  I6  1  0.56949  0.37320  0.73664  1
 I  I7  1  0.06949  0.23664  0.87320  1
 I  I8  1  0.74279  0.00244  0.88009  1
 Sr  Sr1  1  0.25000  0.38174  0.11826  1
 Sr  Sr2  1  0.75000  0.61826  0.88174  1
