CIF file written using JARVIS-Tools package.
data_Al2CdTe4
_symmetry_space_group_name_H-M  'I-4'
_cell_length_a       6.2254
_cell_length_b       6.2254
_cell_length_c       7.41214
_cell_angle_alpha    114.831
_cell_angle_beta     114.831
_cell_angle_gamma    90

_symmetry_Int_Tables_number  82
_chemical_formula_structural  Al2CdTe4
_chemical_formula_sum  Al2CdTe4
_cell_volume  231.114711923455
_cell_formula_units_Z  1
loop_
  _symmetry_equiv_pos_site_id
 _symmetry_equiv_pos_as_xyz
 1  'x, y, z'
loop_
 _atom_site_type_symbol
 _atom_site_label
 _atom_site_symmetry_multiplicity
 _atom_site_fract_x
 _atom_site_fract_y
 _atom_site_fract_z
 _atom_site_fract_occupancy
 Al  Al1  1  0.25000  0.75000  0.50000  1
 Al  Al2  1  0.50000  0.50000  0.00000  1
 Cd  Cd1  1  0.00000  0.00000  0.00000  1
 Te  Te1  1  0.41441  0.39106  0.27702  1
 Te  Te2  1  0.11404  0.58559  0.72298  1
 Te  Te3  1  0.60894  0.13739  0.72298  1
 Te  Te4  1  0.86261  0.88596  0.27702  1
