CIF file written using JARVIS-Tools package.
data_YbSb2
_symmetry_space_group_name_H-M  'Cmcm'
_cell_length_a       4.318
_cell_length_b       4.59799
_cell_length_c       8.72198
_cell_angle_alpha    105.283
_cell_angle_beta     90
_cell_angle_gamma    90

_symmetry_Int_Tables_number  63
_chemical_formula_structural  YbSb2
_chemical_formula_sum  Yb2Sb4
_cell_volume  167.0434746735327
_cell_formula_units_Z  2
loop_
  _symmetry_equiv_pos_site_id
 _symmetry_equiv_pos_as_xyz
 1  'x, y, z'
loop_
 _atom_site_type_symbol
 _atom_site_label
 _atom_site_symmetry_multiplicity
 _atom_site_fract_x
 _atom_site_fract_y
 _atom_site_fract_z
 _atom_site_fract_occupancy
 Sb  Sb1  1  0.25000  0.25624  0.51247  1
 Sb  Sb2  1  0.75000  0.74376  0.48753  1
 Sb  Sb3  1  0.75000  0.43834  0.87667  1
 Sb  Sb4  1  0.25000  0.56166  0.12333  1
 Yb  Yb1  1  0.25000  0.89619  0.79238  1
 Yb  Yb2  1  0.75000  0.10381  0.20762  1
