CIF file written using JARVIS-Tools package.
data_HoGaAu
_symmetry_space_group_name_H-M  'C2/m'
_cell_length_a       5.66784
_cell_length_b       5.66784
_cell_length_c       7.0692
_cell_angle_alpha    52.3949
_cell_angle_beta     52.3949
_cell_angle_gamma    46.3447

_symmetry_Int_Tables_number  12
_chemical_formula_structural  HoGaAu
_chemical_formula_sum  Ho2Ga2Au2
_cell_volume  122.88952132987997
_cell_formula_units_Z  2
loop_
  _symmetry_equiv_pos_site_id
 _symmetry_equiv_pos_as_xyz
 1  'x, y, z'
loop_
 _atom_site_type_symbol
 _atom_site_label
 _atom_site_symmetry_multiplicity
 _atom_site_fract_x
 _atom_site_fract_y
 _atom_site_fract_z
 _atom_site_fract_occupancy
 Au  Au1  1  0.17728  0.17728  0.28789  1
 Au  Au2  1  0.82272  0.82272  0.71211  1
 Ga  Ga1  1  0.84328  0.84328  0.10348  1
 Ga  Ga2  1  0.15672  0.15672  0.89652  1
 Ho  Ho1  1  0.53724  0.53724  0.70184  1
 Ho  Ho2  1  0.46276  0.46276  0.29816  1
