CIF file written using JARVIS-Tools package.
data_TeSe
_symmetry_space_group_name_H-M  'P1'
_cell_length_a       4.29297
_cell_length_b       4.34509
_cell_length_c       11.1321
_cell_angle_alpha    89.0535
_cell_angle_beta     89.574
_cell_angle_gamma    60.9869

_symmetry_Int_Tables_number  1
_chemical_formula_structural  TeSe
_chemical_formula_sum  Te3Se3
_cell_volume  181.56773791937596
_cell_formula_units_Z  3
loop_
  _symmetry_equiv_pos_site_id
 _symmetry_equiv_pos_as_xyz
 1  'x, y, z'
loop_
 _atom_site_type_symbol
 _atom_site_label
 _atom_site_symmetry_multiplicity
 _atom_site_fract_x
 _atom_site_fract_y
 _atom_site_fract_z
 _atom_site_fract_occupancy
 Se  Se1  1  0.74925  0.24665  0.34204  1
 Se  Se2  1  0.74770  0.24121  0.82682  1
 Se  Se3  1  0.98489  0.77493  0.49738  1
 Te  Te1  1  0.98865  0.72488  0.99694  1
 Te  Te2  1  0.26810  0.00055  0.17595  1
 Te  Te3  1  0.26140  0.01177  0.66076  1
