CIF file written using JARVIS-Tools package.
data_CeAsS
_symmetry_space_group_name_H-M  'P4/nmm'
_cell_length_a       3.94973
_cell_length_b       3.94973
_cell_length_c       16.8345
_cell_angle_alpha    90
_cell_angle_beta     90
_cell_angle_gamma    89.9983

_symmetry_Int_Tables_number  129
_chemical_formula_structural  CeAsS
_chemical_formula_sum  Ce4As4S4
_cell_volume  262.6245113649755
_cell_formula_units_Z  4
loop_
  _symmetry_equiv_pos_site_id
 _symmetry_equiv_pos_as_xyz
 1  'x, y, z'
loop_
 _atom_site_type_symbol
 _atom_site_label
 _atom_site_symmetry_multiplicity
 _atom_site_fract_x
 _atom_site_fract_y
 _atom_site_fract_z
 _atom_site_fract_occupancy
 As  As1  1  0.25000  0.25008  0.00000  1
 As  As2  1  0.25000  0.24992  0.50000  1
 As  As3  1  0.75000  0.74992  -0.00000  1
 As  As4  1  0.75000  0.75008  0.50000  1
 Ce  Ce1  1  0.25000  0.75012  0.14343  1
 Ce  Ce2  1  0.25000  0.74988  0.64343  1
 Ce  Ce3  1  0.75000  0.24988  0.85657  1
 Ce  Ce4  1  0.75000  0.25012  0.35657  1
 S  S1  1  0.25000  0.75012  0.31601  1
 S  S2  1  0.25000  0.74988  0.81601  1
 S  S3  1  0.75000  0.24988  0.68399  1
 S  S4  1  0.75000  0.25012  0.18399  1
