CIF file written using JARVIS-Tools package.
data_BaSrTi2O6
_symmetry_space_group_name_H-M  'P4/mmm'
_cell_length_a       3.97918
_cell_length_b       3.97918
_cell_length_c       7.95362
_cell_angle_alpha    90
_cell_angle_beta     90
_cell_angle_gamma    90

_symmetry_Int_Tables_number  123
_chemical_formula_structural  BaSrTi2O6
_chemical_formula_sum  BaSrTi2O6
_cell_volume  125.93651391753266
_cell_formula_units_Z  1
loop_
  _symmetry_equiv_pos_site_id
 _symmetry_equiv_pos_as_xyz
 1  'x, y, z'
loop_
 _atom_site_type_symbol
 _atom_site_label
 _atom_site_symmetry_multiplicity
 _atom_site_fract_x
 _atom_site_fract_y
 _atom_site_fract_z
 _atom_site_fract_occupancy
 Ba  Ba1  1  0.50000  0.50000  0.00000  1
 O  O1  1  0.00000  0.00000  0.00000  1
 O  O2  1  0.00000  0.00000  0.50000  1
 O  O3  1  0.00000  0.50000  0.74120  1
 O  O4  1  0.00000  0.50000  0.25880  1
 O  O5  1  0.50000  0.00000  0.74120  1
 O  O6  1  0.50000  0.00000  0.25880  1
 Sr  Sr1  1  0.50000  0.50000  0.50000  1
 Ti  Ti1  1  0.00000  0.00000  0.74480  1
 Ti  Ti2  1  0.00000  0.00000  0.25520  1
