CIF file written using JARVIS-Tools package.
data_Sr3Mn4O12
_symmetry_space_group_name_H-M  'P-3m1'
_cell_length_a       5.42289
_cell_length_b       5.42289
_cell_length_c       9.11367
_cell_angle_alpha    90
_cell_angle_beta     90
_cell_angle_gamma    120

_symmetry_Int_Tables_number  164
_chemical_formula_structural  Sr3Mn4O12
_chemical_formula_sum  Sr3Mn4O2
_cell_volume  232.1055227075658
_cell_formula_units_Z  1
loop_
  _symmetry_equiv_pos_site_id
 _symmetry_equiv_pos_as_xyz
 1  'x, y, z'
loop_
 _atom_site_type_symbol
 _atom_site_label
 _atom_site_symmetry_multiplicity
 _atom_site_fract_x
 _atom_site_fract_y
 _atom_site_fract_z
 _atom_site_fract_occupancy
 Mn  Mn1  1  0.33333  0.66667  0.89305  1
 Mn  Mn2  1  0.33333  0.66667  0.61446  1
 Mn  Mn3  1  0.66667  0.33333  0.38554  1
 Mn  Mn4  1  0.66667  0.33333  0.10695  1
 O  O1  1  0.36615  0.18307  0.25143  1
 O  O2  1  -0.00000  0.50000  0.50000  1
 O  O3  1  0.18307  0.81693  0.74857  1
 O  O4  1  0.81693  0.18307  0.25143  1
 O  O5  1  0.18307  0.36615  0.74857  1
 O  O6  1  0.50000  -0.00000  0.50000  1
 O  O7  1  0.50000  0.50000  0.00000  1
 O  O8  1  -0.00000  0.50000  0.00000  1
 O  O9  1  0.63385  0.81693  0.74857  1
 O  O10  1  0.50000  -0.00000  0.00000  1
 O  O11  1  0.81693  0.63385  0.25143  1
 O  O12  1  0.50000  0.50000  0.50000  1
 Sr  Sr1  1  0.66667  0.33333  0.75949  1
 Sr  Sr2  1  0.33333  0.66667  0.24051  1
 Sr  Sr3  1  0.00000  0.00000  0.50000  1
