CIF file written using JARVIS-Tools package.
data_V4Zn5
_symmetry_space_group_name_H-M  'I4/mmm'
_cell_length_a       3.20939
_cell_length_b       6.46968
_cell_length_c       6.46968
_cell_angle_alpha    86.473
_cell_angle_beta     75.6388
_cell_angle_gamma    75.6389

_symmetry_Int_Tables_number  139
_chemical_formula_structural  V4Zn5
_chemical_formula_sum  V4Zn5
_cell_volume  126.07026411289436
_cell_formula_units_Z  1
loop_
  _symmetry_equiv_pos_site_id
 _symmetry_equiv_pos_as_xyz
 1  'x, y, z'
loop_
 _atom_site_type_symbol
 _atom_site_label
 _atom_site_symmetry_multiplicity
 _atom_site_fract_x
 _atom_site_fract_y
 _atom_site_fract_z
 _atom_site_fract_occupancy
 V  V1  1  0.34428  0.65572  0.65572  1
 V  V2  1  0.00000  0.34428  0.65572  1
 V  V3  1  -0.00000  0.65572  0.34428  1
 V  V4  1  0.65572  0.34428  0.34428  1
 Zn  Zn1  1  0.00000  0.00000  0.00000  1
 Zn  Zn2  1  0.33036  0.00000  0.33929  1
 Zn  Zn3  1  0.66964  0.66071  -0.00000  1
 Zn  Zn4  1  0.33036  0.33929  0.00000  1
 Zn  Zn5  1  0.66964  -0.00000  0.66071  1
