CIF file written using JARVIS-Tools package.
data_Na3CuO3
_symmetry_space_group_name_H-M  'P4_2/mnm'
_cell_length_a       9.19906
_cell_length_b       9.19906
_cell_length_c       4.4567
_cell_angle_alpha    90
_cell_angle_beta     90
_cell_angle_gamma    90

_symmetry_Int_Tables_number  136
_chemical_formula_structural  Na3CuO3
_chemical_formula_sum  Na2Cu4O2
_cell_volume  377.1381194628457
_cell_formula_units_Z  4
loop_
  _symmetry_equiv_pos_site_id
 _symmetry_equiv_pos_as_xyz
 1  'x, y, z'
loop_
 _atom_site_type_symbol
 _atom_site_label
 _atom_site_symmetry_multiplicity
 _atom_site_fract_x
 _atom_site_fract_y
 _atom_site_fract_z
 _atom_site_fract_occupancy
 Cu  Cu1  1  0.61054  0.61054  0.00000  1
 Cu  Cu2  1  0.88946  0.11054  0.50000  1
 Cu  Cu3  1  0.38946  0.38946  0.00000  1
 Cu  Cu4  1  0.11054  0.88946  0.50000  1
 Na  Na1  1  0.62604  0.87166  0.50000  1
 Na  Na2  1  0.37166  0.87396  0.00000  1
 Na  Na3  1  0.85150  0.85150  0.00000  1
 Na  Na4  1  0.35150  0.64850  0.50000  1
 Na  Na5  1  0.37396  0.12834  0.50000  1
 Na  Na6  1  0.12604  0.62834  0.00000  1
 Na  Na7  1  0.87396  0.37166  0.00000  1
 Na  Na8  1  0.12834  0.37396  0.50000  1
 Na  Na9  1  0.64850  0.35150  0.50000  1
 Na  Na10  1  0.14850  0.14850  0.00000  1
 Na  Na11  1  0.62834  0.12604  0.00000  1
 Na  Na12  1  0.87166  0.62604  0.50000  1
 O  O1  1  0.60692  0.81112  0.00000  1
 O  O2  1  0.10692  0.68888  0.50000  1
 O  O3  1  0.81112  0.60692  0.00000  1
 O  O4  1  0.40456  0.59544  0.00000  1
 O  O5  1  0.59544  0.40456  0.00000  1
 O  O6  1  0.39308  0.18888  0.00000  1
 O  O7  1  0.89308  0.31112  0.50000  1
 O  O8  1  0.68888  0.10692  0.50000  1
 O  O9  1  0.09544  0.09544  0.50000  1
 O  O10  1  0.31112  0.89308  0.50000  1
 O  O11  1  0.18888  0.39308  0.00000  1
 O  O12  1  0.90456  0.90456  0.50000  1
