CIF file written using JARVIS-Tools package.
data_ClF
_symmetry_space_group_name_H-M  'P2_1/c'
_cell_length_a       6.22721
_cell_length_b       3.7793
_cell_length_c       6.45155
_cell_angle_alpha    90
_cell_angle_beta     104.719
_cell_angle_gamma    90

_symmetry_Int_Tables_number  14
_chemical_formula_structural  ClF
_chemical_formula_sum  Cl4F4
_cell_volume  146.85136993710708
_cell_formula_units_Z  4
loop_
  _symmetry_equiv_pos_site_id
 _symmetry_equiv_pos_as_xyz
 1  'x, y, z'
loop_
 _atom_site_type_symbol
 _atom_site_label
 _atom_site_symmetry_multiplicity
 _atom_site_fract_x
 _atom_site_fract_y
 _atom_site_fract_z
 _atom_site_fract_occupancy
 Cl  Cl1  1  0.83893  0.49873  0.20839  1
 Cl  Cl2  1  0.16107  0.99873  0.29161  1
 Cl  Cl3  1  0.16107  0.50127  0.79161  1
 Cl  Cl4  1  0.83893  0.00127  0.70839  1
 F  F1  1  0.62049  0.21753  0.15086  1
 F  F2  1  0.37951  0.71753  0.34914  1
 F  F3  1  0.37951  0.78247  0.84914  1
 F  F4  1  0.62049  0.28247  0.65086  1
