CIF file written using JARVIS-Tools package.
data_HoCoRu
_symmetry_space_group_name_H-M  'Imma'
_cell_length_a       5.17123
_cell_length_b       5.17123
_cell_length_c       5.17123
_cell_angle_alpha    120.463
_cell_angle_beta     120.397
_cell_angle_gamma    89.257

_symmetry_Int_Tables_number  74
_chemical_formula_structural  HoCoRu
_chemical_formula_sum  Ho2Co2Ru2
_cell_volume  97.13920736769249
_cell_formula_units_Z  2
loop_
  _symmetry_equiv_pos_site_id
 _symmetry_equiv_pos_as_xyz
 1  'x, y, z'
loop_
 _atom_site_type_symbol
 _atom_site_label
 _atom_site_symmetry_multiplicity
 _atom_site_fract_x
 _atom_site_fract_y
 _atom_site_fract_z
 _atom_site_fract_occupancy
 Co  Co1  1  -0.00000  -0.00000  0.50000  1
 Co  Co2  1  -0.00000  0.50000  -0.00000  1
 Ho  Ho1  1  0.37560  0.12560  0.25000  1
 Ho  Ho2  1  0.62440  0.87440  0.75000  1
 Ru  Ru1  1  -0.00000  0.50000  0.50000  1
 Ru  Ru2  1  0.50000  0.50000  -0.00000  1
