CIF file written using JARVIS-Tools package.
data_TePb2S
_symmetry_space_group_name_H-M  'R-3m'
_cell_length_a       7.66571
_cell_length_b       7.66571
_cell_length_c       7.6657
_cell_angle_alpha    33.5673
_cell_angle_beta     33.5673
_cell_angle_gamma    33.5673

_symmetry_Int_Tables_number  166
_chemical_formula_structural  TePb2S
_chemical_formula_sum  TePb2S
_cell_volume  122.66600297054858
_cell_formula_units_Z  1
loop_
  _symmetry_equiv_pos_site_id
 _symmetry_equiv_pos_as_xyz
 1  'x, y, z'
loop_
 _atom_site_type_symbol
 _atom_site_label
 _atom_site_symmetry_multiplicity
 _atom_site_fract_x
 _atom_site_fract_y
 _atom_site_fract_z
 _atom_site_fract_occupancy
 Pb  Pb1  1  0.25855  0.25855  0.25855  1
 Pb  Pb2  1  0.74145  0.74145  0.74145  1
 S  S1  1  0.00000  0.00000  0.00000  1
 Te  Te1  1  0.50000  0.50000  0.50000  1
