CIF file written using JARVIS-Tools package.
data_Tb2Al3Pt
_symmetry_space_group_name_H-M  'R-3m'
_cell_length_a       5.44567
_cell_length_b       5.44567
_cell_length_c       5.44567
_cell_angle_alpha    61.0286
_cell_angle_beta     61.0286
_cell_angle_gamma    61.0285

_symmetry_Int_Tables_number  166
_chemical_formula_structural  Tb2Al3Pt
_chemical_formula_sum  Tb2Al3Pt
_cell_volume  116.83814048741439
_cell_formula_units_Z  1
loop_
  _symmetry_equiv_pos_site_id
 _symmetry_equiv_pos_as_xyz
 1  'x, y, z'
loop_
 _atom_site_type_symbol
 _atom_site_label
 _atom_site_symmetry_multiplicity
 _atom_site_fract_x
 _atom_site_fract_y
 _atom_site_fract_z
 _atom_site_fract_occupancy
 Al  Al1  1  0.00000  0.50000  0.00000  1
 Al  Al2  1  0.50000  0.00000  0.00000  1
 Al  Al3  1  0.00000  -0.00000  0.50000  1
 Pt  Pt1  1  0.00000  0.00000  0.00000  1
 Tb  Tb1  1  0.62528  0.62528  0.62528  1
 Tb  Tb2  1  0.37472  0.37472  0.37472  1
