CIF file written using JARVIS-Tools package.
data_LiMg
_symmetry_space_group_name_H-M  'Cmmm'
_cell_length_a       3.01142
_cell_length_b       3.01143
_cell_length_c       4.84583
_cell_angle_alpha    90
_cell_angle_beta     90
_cell_angle_gamma    109.646

_symmetry_Int_Tables_number  65
_chemical_formula_structural  LiMg
_chemical_formula_sum  LiMg
_cell_volume  41.38725376719927
_cell_formula_units_Z  1
loop_
  _symmetry_equiv_pos_site_id
 _symmetry_equiv_pos_as_xyz
 1  'x, y, z'
loop_
 _atom_site_type_symbol
 _atom_site_label
 _atom_site_symmetry_multiplicity
 _atom_site_fract_x
 _atom_site_fract_y
 _atom_site_fract_z
 _atom_site_fract_occupancy
 Li  Li1  1  0.00000  0.00000  0.00000  1
 Mg  Mg1  1  0.50000  0.50000  0.50000  1
