CIF file written using JARVIS-Tools package.
data_YPRu2C
_symmetry_space_group_name_H-M  'Cmcm'
_cell_length_a       5.8467
_cell_length_b       5.84671
_cell_length_c       7.06979
_cell_angle_alpha    90
_cell_angle_beta     90
_cell_angle_gamma    142.271

_symmetry_Int_Tables_number  63
_chemical_formula_structural  YPRu2C
_chemical_formula_sum  Y2P2Ru4C2
_cell_volume  147.8861914289083
_cell_formula_units_Z  2
loop_
  _symmetry_equiv_pos_site_id
 _symmetry_equiv_pos_as_xyz
 1  'x, y, z'
loop_
 _atom_site_type_symbol
 _atom_site_label
 _atom_site_symmetry_multiplicity
 _atom_site_fract_x
 _atom_site_fract_y
 _atom_site_fract_z
 _atom_site_fract_occupancy
 C  C1  1  0.00000  0.00000  0.00000  1
 C  C2  1  0.00000  0.00000  0.50000  1
 P  P1  1  0.26824  0.73176  0.25000  1
 P  P2  1  0.73176  0.26824  0.75000  1
 Ru  Ru1  1  0.83479  0.16521  0.05311  1
 Ru  Ru2  1  0.16521  0.83479  0.94689  1
 Ru  Ru3  1  0.16521  0.83479  0.55311  1
 Ru  Ru4  1  0.83479  0.16521  0.44689  1
 Y  Y1  1  0.54369  0.45631  0.25000  1
 Y  Y2  1  0.45631  0.54369  0.75000  1
