CIF file written using JARVIS-Tools package.
data_Rb2PdCl6
_symmetry_space_group_name_H-M  'Fm-3m'
_cell_length_a       6.96296
_cell_length_b       6.96296
_cell_length_c       6.96296
_cell_angle_alpha    60
_cell_angle_beta     60
_cell_angle_gamma    60.0001

_symmetry_Int_Tables_number  225
_chemical_formula_structural  Rb2PdCl6
_chemical_formula_sum  Rb2PdCl6
_cell_volume  238.70811852841888
_cell_formula_units_Z  1
loop_
  _symmetry_equiv_pos_site_id
 _symmetry_equiv_pos_as_xyz
 1  'x, y, z'
loop_
 _atom_site_type_symbol
 _atom_site_label
 _atom_site_symmetry_multiplicity
 _atom_site_fract_x
 _atom_site_fract_y
 _atom_site_fract_z
 _atom_site_fract_occupancy
 Cl  Cl1  1  0.23856  0.76144  0.76144  1
 Cl  Cl2  1  0.23856  0.76144  0.23856  1
 Cl  Cl3  1  0.76144  0.23856  0.76144  1
 Cl  Cl4  1  0.76144  0.23856  0.23856  1
 Cl  Cl5  1  0.76144  0.76144  0.23856  1
 Cl  Cl6  1  0.23856  0.23856  0.76144  1
 Pd  Pd1  1  0.00000  0.00000  0.00000  1
 Rb  Rb1  1  0.75000  0.75000  0.75000  1
 Rb  Rb2  1  0.25000  0.25000  0.25000  1
