CIF file written using JARVIS-Tools package.
data_Yb2Fe3Cu
_symmetry_space_group_name_H-M  'R-3m'
_cell_length_a       5.18397
_cell_length_b       5.18397
_cell_length_c       5.18397
_cell_angle_alpha    56.4406
_cell_angle_beta     56.4407
_cell_angle_gamma    56.4406

_symmetry_Int_Tables_number  166
_chemical_formula_structural  Yb2Fe3Cu
_chemical_formula_sum  Yb2Fe3Cu
_cell_volume  90.40175973965601
_cell_formula_units_Z  1
loop_
  _symmetry_equiv_pos_site_id
 _symmetry_equiv_pos_as_xyz
 1  'x, y, z'
loop_
 _atom_site_type_symbol
 _atom_site_label
 _atom_site_symmetry_multiplicity
 _atom_site_fract_x
 _atom_site_fract_y
 _atom_site_fract_z
 _atom_site_fract_occupancy
 Cu  Cu1  1  0.50000  0.50000  0.50000  1
 Fe  Fe1  1  0.50000  -0.00000  0.50000  1
 Fe  Fe2  1  -0.00000  0.50000  0.50000  1
 Fe  Fe3  1  0.50000  0.50000  0.00000  1
 Yb  Yb1  1  0.12391  0.12391  0.12391  1
 Yb  Yb2  1  0.87609  0.87609  0.87609  1
