CIF file written using JARVIS-Tools package.
data_Li4MnFe3O8
_symmetry_space_group_name_H-M  'R-3m'
_cell_length_a       5.65306
_cell_length_b       5.74801
_cell_length_c       5.74825
_cell_angle_alpha    121.088
_cell_angle_beta     119.451
_cell_angle_gamma    90.0017

_symmetry_Int_Tables_number  166
_chemical_formula_structural  Li4MnFe3O8
_chemical_formula_sum  Li4MnFe3O8
_cell_volume  130.96149243009216
_cell_formula_units_Z  1
loop_
  _symmetry_equiv_pos_site_id
 _symmetry_equiv_pos_as_xyz
 1  'x, y, z'
loop_
 _atom_site_type_symbol
 _atom_site_label
 _atom_site_symmetry_multiplicity
 _atom_site_fract_x
 _atom_site_fract_y
 _atom_site_fract_z
 _atom_site_fract_occupancy
 Fe  Fe1  1  0.50000  0.50000  0.50000  1
 Fe  Fe2  1  0.50000  0.00000  0.00000  1
 Fe  Fe3  1  1.00000  0.50000  0.50000  1
 Li  Li1  1  0.50000  0.99999  0.50000  1
 Li  Li2  1  1.00000  0.50000  0.99999  1
 Li  Li3  1  1.00000  1.00000  0.50000  1
 Li  Li4  1  0.50000  0.50000  1.00000  1
 Mn  Mn1  1  0.00000  0.00001  0.00001  1
 O  O1  1  0.25895  0.74110  0.51788  1
 O  O2  1  0.74429  0.75866  0.98560  1
 O  O3  1  0.75871  0.24135  0.01441  1
 O  O4  1  0.24129  0.25567  0.48261  1
 O  O5  1  0.75871  0.74434  0.51740  1
 O  O6  1  0.24129  0.75866  0.98560  1
 O  O7  1  0.25571  0.24135  0.01441  1
 O  O8  1  0.74105  0.25890  0.48212  1
