CIF file written using JARVIS-Tools package.
data_Li2FeO2
_symmetry_space_group_name_H-M  'P-3m1'
_cell_length_a       3.08822
_cell_length_b       3.08648
_cell_length_c       5.23696
_cell_angle_alpha    90.0067
_cell_angle_beta     90
_cell_angle_gamma    120.019

_symmetry_Int_Tables_number  164
_chemical_formula_structural  Li2FeO2
_chemical_formula_sum  Li2FeO2
_cell_volume  43.22163683827483
_cell_formula_units_Z  1
loop_
  _symmetry_equiv_pos_site_id
 _symmetry_equiv_pos_as_xyz
 1  'x, y, z'
loop_
 _atom_site_type_symbol
 _atom_site_label
 _atom_site_symmetry_multiplicity
 _atom_site_fract_x
 _atom_site_fract_y
 _atom_site_fract_z
 _atom_site_fract_occupancy
 Fe  Fe1  1  0.99996  -0.00000  0.00000  1
 Li  Li1  1  0.33326  0.66661  0.63659  1
 Li  Li2  1  0.66666  0.33339  0.36341  1
 O  O1  1  0.33320  0.66647  0.24566  1
 O  O2  1  0.66672  0.33353  0.75434  1
