CIF file written using JARVIS-Tools package.
data_Cr4CuO12
_symmetry_space_group_name_H-M  'C2'
_cell_length_a       6.66597
_cell_length_b       6.66598
_cell_length_c       5.74681
_cell_angle_alpha    74.7709
_cell_angle_beta     105.229
_cell_angle_gamma    96.8864

_symmetry_Int_Tables_number  5
_chemical_formula_structural  Cr4CuO12
_chemical_formula_sum  Cr4CuO2
_cell_volume  237.3852453032886
_cell_formula_units_Z  1
loop_
  _symmetry_equiv_pos_site_id
 _symmetry_equiv_pos_as_xyz
 1  'x, y, z'
loop_
 _atom_site_type_symbol
 _atom_site_label
 _atom_site_symmetry_multiplicity
 _atom_site_fract_x
 _atom_site_fract_y
 _atom_site_fract_z
 _atom_site_fract_occupancy
 Cr  Cr1  1  0.19954  0.60832  0.76135  1
 Cr  Cr2  1  0.39089  0.79603  0.27134  1
 Cr  Cr3  1  0.60832  0.19954  0.73865  1
 Cr  Cr4  1  0.79603  0.39089  0.22866  1
 Cu  Cu1  1  0.91886  0.91886  0.25000  1
 O  O1  1  0.02444  0.77868  0.62015  1
 O  O2  1  0.09006  0.37949  0.80602  1
 O  O3  1  0.21621  0.96631  0.19271  1
 O  O4  1  0.90745  0.62585  0.18779  1
 O  O5  1  0.35812  0.62980  0.55231  1
 O  O6  1  0.62980  0.35812  0.94769  1
 O  O7  1  0.37949  0.09006  0.69398  1
 O  O8  1  0.62585  0.90745  0.31221  1
 O  O9  1  0.65433  0.35371  0.45435  1
 O  O10  1  0.77868  0.02444  0.87985  1
 O  O11  1  0.35371  0.65433  0.04565  1
 O  O12  1  0.96631  0.21621  0.30729  1
