CIF file written using JARVIS-Tools package.
data_VW2C3
_symmetry_space_group_name_H-M  'Immm'
_cell_length_a       5.29693
_cell_length_b       5.29693
_cell_length_c       5.29693
_cell_angle_alpha    146.414
_cell_angle_beta     131.823
_cell_angle_gamma    60.0076

_symmetry_Int_Tables_number  71
_chemical_formula_structural  VW2C3
_chemical_formula_sum  VW2C3
_cell_volume  60.70691207195978
_cell_formula_units_Z  1
loop_
  _symmetry_equiv_pos_site_id
 _symmetry_equiv_pos_as_xyz
 1  'x, y, z'
loop_
 _atom_site_type_symbol
 _atom_site_label
 _atom_site_symmetry_multiplicity
 _atom_site_fract_x
 _atom_site_fract_y
 _atom_site_fract_z
 _atom_site_fract_occupancy
 C  C1  1  0.00000  0.00000  0.00000  1
 C  C2  1  0.66113  0.66113  -0.00000  1
 C  C3  1  0.33887  0.33887  -0.00000  1
 V  V1  1  0.50000  0.00000  0.50000  1
 W  W1  1  0.16611  0.66611  0.50000  1
 W  W2  1  0.83389  0.33389  0.50000  1
