CIF file written using JARVIS-Tools package.
data_CeSi2Re4
_symmetry_space_group_name_H-M  'Cmmm'
_cell_length_a       4.08379
_cell_length_b       4.1589
_cell_length_c       7.31227
_cell_angle_alpha    106.522
_cell_angle_beta     90
_cell_angle_gamma    90

_symmetry_Int_Tables_number  65
_chemical_formula_structural  CeSi2Re4
_chemical_formula_sum  CeSi2Re4
_cell_volume  119.06463870083424
_cell_formula_units_Z  1
loop_
  _symmetry_equiv_pos_site_id
 _symmetry_equiv_pos_as_xyz
 1  'x, y, z'
loop_
 _atom_site_type_symbol
 _atom_site_label
 _atom_site_symmetry_multiplicity
 _atom_site_fract_x
 _atom_site_fract_y
 _atom_site_fract_z
 _atom_site_fract_occupancy
 Ce  Ce1  1  0.00000  0.00000  0.00000  1
 Re  Re1  1  0.50000  0.81462  0.62924  1
 Re  Re2  1  0.00000  0.69485  0.38971  1
 Re  Re3  1  0.50000  0.18538  0.37076  1
 Re  Re4  1  0.00000  0.30515  0.61029  1
 Si  Si1  1  0.50000  0.58678  0.17357  1
 Si  Si2  1  0.50000  0.41322  0.82643  1
