CIF file written using JARVIS-Tools package.
data_HoCo4Cu
_symmetry_space_group_name_H-M  'P-6m2'
_cell_length_a       3.97181
_cell_length_b       4.86619
_cell_length_c       4.86495
_cell_angle_alpha    119.996
_cell_angle_beta     90
_cell_angle_gamma    90

_symmetry_Int_Tables_number  187
_chemical_formula_structural  HoCo4Cu
_chemical_formula_sum  HoCo4Cu
_cell_volume  81.43366072956952
_cell_formula_units_Z  1
loop_
  _symmetry_equiv_pos_site_id
 _symmetry_equiv_pos_as_xyz
 1  'x, y, z'
loop_
 _atom_site_type_symbol
 _atom_site_label
 _atom_site_symmetry_multiplicity
 _atom_site_fract_x
 _atom_site_fract_y
 _atom_site_fract_z
 _atom_site_fract_occupancy
 Co  Co1  1  0.00000  0.66660  0.33330  1
 Co  Co2  1  0.50000  0.50130  0.00263  1
 Co  Co3  1  0.50000  0.50130  0.49869  1
 Co  Co4  1  0.50000  0.99736  0.49869  1
 Cu  Cu1  1  0.00000  0.33336  0.66670  1
 Ho  Ho1  1  0.00000  0.99998  -0.00000  1
