CIF file written using JARVIS-Tools package.
data_LiH3Se2O6
_symmetry_space_group_name_H-M  'Pc'
_cell_length_a       5.44988
_cell_length_b       7.8812
_cell_length_c       7.09419
_cell_angle_alpha    90
_cell_angle_beta     122.247
_cell_angle_gamma    90

_symmetry_Int_Tables_number  7
_chemical_formula_structural  LiH3Se2O6
_chemical_formula_sum  Li2H6Se4O2
_cell_volume  257.7069097686286
_cell_formula_units_Z  2
loop_
  _symmetry_equiv_pos_site_id
 _symmetry_equiv_pos_as_xyz
 1  'x, y, z'
loop_
 _atom_site_type_symbol
 _atom_site_label
 _atom_site_symmetry_multiplicity
 _atom_site_fract_x
 _atom_site_fract_y
 _atom_site_fract_z
 _atom_site_fract_occupancy
 H  H1  1  0.57051  0.14433  0.66854  1
 H  H2  1  0.57051  0.85567  0.16854  1
 H  H3  1  0.46311  0.39305  0.39117  1
 H  H4  1  0.46311  0.60695  0.89117  1
 H  H5  1  0.97079  0.23042  0.44747  1
 H  H6  1  0.97079  0.76958  0.94747  1
 Li  Li1  1  0.48042  0.24310  0.00228  1
 Li  Li2  1  0.48042  0.75690  0.50228  1
 O  O1  1  0.57456  0.48242  0.51958  1
 O  O2  1  0.88784  0.79746  0.78452  1
 O  O3  1  0.88784  0.20254  0.28452  1
 O  O4  1  0.06720  0.70733  0.19905  1
 O  O5  1  0.06720  0.29267  0.69905  1
 O  O6  1  0.29571  0.72210  0.69363  1
 O  O7  1  0.29571  0.27790  0.19363  1
 O  O8  1  0.39900  0.97651  0.97958  1
 O  O9  1  0.67238  0.22462  0.80805  1
 O  O10  1  0.39900  0.02349  0.47958  1
 O  O11  1  0.57456  0.51758  0.01958  1
 O  O12  1  0.67238  0.77538  0.30805  1
 Se  Se1  1  0.86513  0.39582  0.77635  1
 Se  Se2  1  0.13912  0.90044  0.72397  1
 Se  Se3  1  0.13912  0.09956  0.22397  1
 Se  Se4  1  0.86513  0.60418  0.27635  1
