CIF file written using JARVIS-Tools package.
data_NbNi3
_symmetry_space_group_name_H-M  'Pmmn'
_cell_length_a       4.26458
_cell_length_b       4.56363
_cell_length_c       5.12547
_cell_angle_alpha    90
_cell_angle_beta     90
_cell_angle_gamma    90

_symmetry_Int_Tables_number  59
_chemical_formula_structural  NbNi3
_chemical_formula_sum  Nb2Ni6
_cell_volume  99.75173933982964
_cell_formula_units_Z  2
loop_
  _symmetry_equiv_pos_site_id
 _symmetry_equiv_pos_as_xyz
 1  'x, y, z'
loop_
 _atom_site_type_symbol
 _atom_site_label
 _atom_site_symmetry_multiplicity
 _atom_site_fract_x
 _atom_site_fract_y
 _atom_site_fract_z
 _atom_site_fract_occupancy
 Nb  Nb1  1  0.25000  0.34854  0.75000  1
 Nb  Nb2  1  0.75000  0.65146  0.25000  1
 Ni  Ni1  1  0.25000  0.31759  0.25000  1
 Ni  Ni2  1  0.75000  0.68241  0.75000  1
 Ni  Ni3  1  0.75000  0.15920  0.49964  1
 Ni  Ni4  1  0.25000  0.84080  0.50036  1
 Ni  Ni5  1  0.25000  0.84080  0.99964  1
 Ni  Ni6  1  0.75000  0.15920  0.00036  1
