CIF file written using JARVIS-Tools package.
data_Ba2CaN2
_symmetry_space_group_name_H-M  'Pmmn'
_cell_length_a       3.64938
_cell_length_b       5.9451
_cell_length_c       11.2947
_cell_angle_alpha    90
_cell_angle_beta     90
_cell_angle_gamma    90

_symmetry_Int_Tables_number  59
_chemical_formula_structural  Ba2CaN2
_chemical_formula_sum  Ba4Ca2N4
_cell_volume  245.0489833230393
_cell_formula_units_Z  2
loop_
  _symmetry_equiv_pos_site_id
 _symmetry_equiv_pos_as_xyz
 1  'x, y, z'
loop_
 _atom_site_type_symbol
 _atom_site_label
 _atom_site_symmetry_multiplicity
 _atom_site_fract_x
 _atom_site_fract_y
 _atom_site_fract_z
 _atom_site_fract_occupancy
 Ba  Ba1  1  0.22861  0.25000  0.93198  1
 Ba  Ba2  1  0.22861  0.25000  0.56802  1
 Ba  Ba3  1  0.77139  0.75000  0.06802  1
 Ba  Ba4  1  0.77139  0.75000  0.43198  1
 Ca  Ca1  1  0.22469  0.25000  0.25000  1
 Ca  Ca2  1  0.77531  0.75000  0.75000  1
 N  N1  1  0.71041  0.25000  0.40311  1
 N  N2  1  0.71041  0.25000  0.09689  1
 N  N3  1  0.28959  0.75000  0.59689  1
 N  N4  1  0.28959  0.75000  0.90311  1
