CIF file written using JARVIS-Tools package.
data_KRb2WO3F3
_symmetry_space_group_name_H-M  'Fmm2'
_cell_length_a       6.40525
_cell_length_b       6.34594
_cell_length_c       6.29843
_cell_angle_alpha    60.8699
_cell_angle_beta     59.9316
_cell_angle_gamma    59.1985

_symmetry_Int_Tables_number  42
_chemical_formula_structural  KRb2WO3F3
_chemical_formula_sum  KRb2WO3F3
_cell_volume  180.95206506488972
_cell_formula_units_Z  1
loop_
  _symmetry_equiv_pos_site_id
 _symmetry_equiv_pos_as_xyz
 1  'x, y, z'
loop_
 _atom_site_type_symbol
 _atom_site_label
 _atom_site_symmetry_multiplicity
 _atom_site_fract_x
 _atom_site_fract_y
 _atom_site_fract_z
 _atom_site_fract_occupancy
 F  F1  1  0.22375  0.78069  0.21931  1
 F  F2  1  0.77856  0.77856  0.22144  1
 F  F3  1  0.78069  0.22375  0.77625  1
 K  K1  1  0.50340  0.50340  0.49660  1
 O  O1  1  0.18379  0.77388  0.81621  1
 O  O2  1  0.21386  0.21386  0.78614  1
 O  O3  1  0.77388  0.18379  0.22612  1
 Rb  Rb1  1  0.76194  0.76194  0.73806  1
 Rb  Rb2  1  0.26194  0.26194  0.23806  1
 W  W1  1  0.01819  0.01819  0.98181  1
