CIF file written using JARVIS-Tools package.
data_Bi2Te
_symmetry_space_group_name_H-M  'I4_1/amd'
_cell_length_a       6.65263
_cell_length_b       6.65262
_cell_length_c       6.65263
_cell_angle_alpha    102.828
_cell_angle_beta     102.828
_cell_angle_gamma    123.776

_symmetry_Int_Tables_number  141
_chemical_formula_structural  Bi2Te
_chemical_formula_sum  Bi4Te2
_cell_volume  215.86230391156937
_cell_formula_units_Z  2
loop_
  _symmetry_equiv_pos_site_id
 _symmetry_equiv_pos_as_xyz
 1  'x, y, z'
loop_
 _atom_site_type_symbol
 _atom_site_label
 _atom_site_symmetry_multiplicity
 _atom_site_fract_x
 _atom_site_fract_y
 _atom_site_fract_z
 _atom_site_fract_occupancy
 Bi  Bi1  1  0.62500  0.37535  0.25035  1
 Bi  Bi2  1  0.12500  0.37465  0.74965  1
 Bi  Bi3  1  0.62465  0.87500  0.24965  1
 Bi  Bi4  1  0.62535  0.37500  0.75035  1
 Te  Te1  1  0.25000  0.75000  0.50000  1
 Te  Te2  1  0.00000  0.00000  0.00000  1
