CIF file written using JARVIS-Tools package.
data_GaCuGeSe4
_symmetry_space_group_name_H-M  'I-4'
_cell_length_a       6.69581
_cell_length_b       6.69581
_cell_length_c       6.69581
_cell_angle_alpha    131.232
_cell_angle_beta     131.232
_cell_angle_gamma    71.4454

_symmetry_Int_Tables_number  82
_chemical_formula_structural  GaCuGeSe4
_chemical_formula_sum  GaCuGeSe4
_cell_volume  166.16441001922993
_cell_formula_units_Z  1
loop_
  _symmetry_equiv_pos_site_id
 _symmetry_equiv_pos_as_xyz
 1  'x, y, z'
loop_
 _atom_site_type_symbol
 _atom_site_label
 _atom_site_symmetry_multiplicity
 _atom_site_fract_x
 _atom_site_fract_y
 _atom_site_fract_z
 _atom_site_fract_occupancy
 Cu  Cu1  1  0.25000  0.75000  0.50000  1
 Ga  Ga1  1  0.50000  0.50000  0.00000  1
 Ge  Ge1  1  0.75000  0.25000  0.50000  1
 Se  Se1  1  0.11295  0.11532  0.46277  1
 Se  Se2  1  0.65255  0.65018  0.53723  1
 Se  Se3  1  0.34982  0.88705  0.00237  1
 Se  Se4  1  0.88468  0.34745  0.99763  1
