CIF file written using JARVIS-Tools package.
data_Al2HgTe4
_symmetry_space_group_name_H-M  'I-4'
_cell_length_a       6.22075
_cell_length_b       6.22075
_cell_length_c       7.41458
_cell_angle_alpha    114.803
_cell_angle_beta     114.803
_cell_angle_gamma    90.0001

_symmetry_Int_Tables_number  82
_chemical_formula_structural  Al2HgTe4
_chemical_formula_sum  Al2HgTe4
_cell_volume  230.9810240687158
_cell_formula_units_Z  1
loop_
  _symmetry_equiv_pos_site_id
 _symmetry_equiv_pos_as_xyz
 1  'x, y, z'
loop_
 _atom_site_type_symbol
 _atom_site_label
 _atom_site_symmetry_multiplicity
 _atom_site_fract_x
 _atom_site_fract_y
 _atom_site_fract_z
 _atom_site_fract_occupancy
 Al  Al1  1  0.25000  0.75000  0.50000  1
 Al  Al2  1  0.50000  0.50000  -0.00000  1
 Hg  Hg1  1  0.00000  0.00000  0.00000  1
 Te  Te1  1  0.86137  0.88697  0.27913  1
 Te  Te2  1  0.41777  0.39217  0.27913  1
 Te  Te3  1  0.11303  0.58223  0.72087  1
 Te  Te4  1  0.60783  0.13863  0.72087  1
