CIF file written using JARVIS-Tools package.
data_FeAs2O7
_symmetry_space_group_name_H-M  'C2'
_cell_length_a       5.04994
_cell_length_b       5.04994
_cell_length_c       4.69565
_cell_angle_alpha    80.6377
_cell_angle_beta     80.6377
_cell_angle_gamma    98.7706

_symmetry_Int_Tables_number  5
_chemical_formula_structural  FeAs2O7
_chemical_formula_sum  FeAs2O7
_cell_volume  114.59271031902121
_cell_formula_units_Z  1
loop_
  _symmetry_equiv_pos_site_id
 _symmetry_equiv_pos_as_xyz
 1  'x, y, z'
loop_
 _atom_site_type_symbol
 _atom_site_label
 _atom_site_symmetry_multiplicity
 _atom_site_fract_x
 _atom_site_fract_y
 _atom_site_fract_z
 _atom_site_fract_occupancy
 As  As1  1  0.31319  0.26031  0.40197  1
 As  As2  1  0.73969  0.68681  0.59803  1
 Fe  Fe1  1  0.88945  0.11055  -0.00000  1
 O  O1  1  0.16365  0.02972  0.72743  1
 O  O2  1  0.14669  0.35846  0.11937  1
 O  O3  1  0.60461  0.13706  0.29931  1
 O  O4  1  0.97028  0.83635  0.27257  1
 O  O5  1  0.64154  0.85331  0.88063  1
 O  O6  1  0.86294  0.39539  0.70069  1
 O  O7  1  0.42051  0.57949  0.50000  1
