CIF file written using JARVIS-Tools package.
data_Dy2Ga3Ni
_symmetry_space_group_name_H-M  'P3m1'
_cell_length_a       4.25882
_cell_length_b       4.25882
_cell_length_c       7.47854
_cell_angle_alpha    90
_cell_angle_beta     90
_cell_angle_gamma    120

_symmetry_Int_Tables_number  156
_chemical_formula_structural  Dy2Ga3Ni
_chemical_formula_sum  Dy2Ga3Ni
_cell_volume  117.46955533487647
_cell_formula_units_Z  1
loop_
  _symmetry_equiv_pos_site_id
 _symmetry_equiv_pos_as_xyz
 1  'x, y, z'
loop_
 _atom_site_type_symbol
 _atom_site_label
 _atom_site_symmetry_multiplicity
 _atom_site_fract_x
 _atom_site_fract_y
 _atom_site_fract_z
 _atom_site_fract_occupancy
 Dy  Dy1  1  0.66667  0.33333  0.77279  1
 Dy  Dy2  1  0.66667  0.33333  0.23456  1
 Ga  Ga1  1  0.33333  0.66667  0.01271  1
 Ga  Ga2  1  0.33333  0.66667  0.45885  1
 Ga  Ga3  1  0.00000  0.00000  0.54729  1
 Ni  Ni1  1  0.00000  0.00000  0.97381  1
