CIF file written using JARVIS-Tools package.
data_BiPbIO2
_symmetry_space_group_name_H-M  'I4mm'
_cell_length_a       7.4743
_cell_length_b       7.4743
_cell_length_c       7.47431
_cell_angle_alpha    148.462
_cell_angle_beta     148.462
_cell_angle_gamma    45.2035

_symmetry_Int_Tables_number  107
_chemical_formula_structural  BiPbIO2
_chemical_formula_sum  BiPbIO2
_cell_volume  113.87586489734572
_cell_formula_units_Z  1
loop_
  _symmetry_equiv_pos_site_id
 _symmetry_equiv_pos_as_xyz
 1  'x, y, z'
loop_
 _atom_site_type_symbol
 _atom_site_label
 _atom_site_symmetry_multiplicity
 _atom_site_fract_x
 _atom_site_fract_y
 _atom_site_fract_z
 _atom_site_fract_occupancy
 Bi  Bi1  1  0.33541  0.33541  -0.00000  1
 I  I1  1  0.99156  0.99156  -0.00000  1
 O  O1  1  0.75642  0.25642  0.50000  1
 O  O2  1  0.25642  0.75642  0.50000  1
 Pb  Pb1  1  0.66019  0.66019  0.00000  1
