CIF file written using JARVIS-Tools package.
data_Th2Si3Ru
_symmetry_space_group_name_H-M  'Imm2'
_cell_length_a       7.81353
_cell_length_b       7.81353
_cell_length_c       7.81353
_cell_angle_alpha    149.707
_cell_angle_beta     148.491
_cell_angle_gamma    44.2734

_symmetry_Int_Tables_number  44
_chemical_formula_structural  Th2Si3Ru
_chemical_formula_sum  Th2Si3Ru
_cell_volume  125.38911260669865
_cell_formula_units_Z  1
loop_
  _symmetry_equiv_pos_site_id
 _symmetry_equiv_pos_as_xyz
 1  'x, y, z'
loop_
 _atom_site_type_symbol
 _atom_site_label
 _atom_site_symmetry_multiplicity
 _atom_site_fract_x
 _atom_site_fract_y
 _atom_site_fract_z
 _atom_site_fract_occupancy
 Ru  Ru1  1  0.16602  0.66602  0.50000  1
 Si  Si1  1  0.58407  0.58407  -0.00000  1
 Si  Si2  1  0.32989  0.82989  0.50000  1
 Si  Si3  1  0.41849  0.41849  0.00000  1
 Th  Th1  1  0.74898  0.24898  0.50000  1
 Th  Th2  1  0.00254  0.00254  -0.00000  1
