CIF file written using JARVIS-Tools package.
data_ScAg4
_symmetry_space_group_name_H-M  'I4/m'
_cell_length_a       4.09353
_cell_length_b       5.11012
_cell_length_c       5.11012
_cell_angle_alpha    80.7684
_cell_angle_beta     66.3886
_cell_angle_gamma    66.3886

_symmetry_Int_Tables_number  87
_chemical_formula_structural  ScAg4
_chemical_formula_sum  ScAg4
_cell_volume  89.74704650097885
_cell_formula_units_Z  1
loop_
  _symmetry_equiv_pos_site_id
 _symmetry_equiv_pos_as_xyz
 1  'x, y, z'
loop_
 _atom_site_type_symbol
 _atom_site_label
 _atom_site_symmetry_multiplicity
 _atom_site_fract_x
 _atom_site_fract_y
 _atom_site_fract_z
 _atom_site_fract_occupancy
 Ag  Ag1  1  0.20029  0.19987  0.39954  1
 Ag  Ag2  1  0.59983  0.60046  0.19987  1
 Ag  Ag3  1  0.40017  0.39954  0.80013  1
 Ag  Ag4  1  0.79971  0.80013  0.60046  1
 Sc  Sc1  1  0.00000  0.00000  0.00000  1
