CIF file written using JARVIS-Tools package.
data_Ta3N
_symmetry_space_group_name_H-M  'P-3m1'
_cell_length_a       2.99836
_cell_length_b       2.99836
_cell_length_c       7.65902
_cell_angle_alpha    90
_cell_angle_beta     90
_cell_angle_gamma    120

_symmetry_Int_Tables_number  164
_chemical_formula_structural  Ta3N
_chemical_formula_sum  Ta3N
_cell_volume  59.63077330207089
_cell_formula_units_Z  1
loop_
  _symmetry_equiv_pos_site_id
 _symmetry_equiv_pos_as_xyz
 1  'x, y, z'
loop_
 _atom_site_type_symbol
 _atom_site_label
 _atom_site_symmetry_multiplicity
 _atom_site_fract_x
 _atom_site_fract_y
 _atom_site_fract_z
 _atom_site_fract_occupancy
 N  N1  1  0.00000  0.00000  0.00000  1
 Ta  Ta1  1  0.00000  0.00000  0.50000  1
 Ta  Ta2  1  0.33333  0.66667  0.17653  1
 Ta  Ta3  1  0.66667  0.33333  0.82347  1
