CIF file written using JARVIS-Tools package.
data_ThUMn4Si4
_symmetry_space_group_name_H-M  'P4/mmm'
_cell_length_a       3.95973
_cell_length_b       3.95973
_cell_length_c       10.1534
_cell_angle_alpha    90
_cell_angle_beta     90
_cell_angle_gamma    90

_symmetry_Int_Tables_number  123
_chemical_formula_structural  ThUMn4Si4
_chemical_formula_sum  ThUMn4Si4
_cell_volume  159.20093976696722
_cell_formula_units_Z  1
loop_
  _symmetry_equiv_pos_site_id
 _symmetry_equiv_pos_as_xyz
 1  'x, y, z'
loop_
 _atom_site_type_symbol
 _atom_site_label
 _atom_site_symmetry_multiplicity
 _atom_site_fract_x
 _atom_site_fract_y
 _atom_site_fract_z
 _atom_site_fract_occupancy
 Mn  Mn1  1  0.00000  0.50000  0.25914  1
 Mn  Mn2  1  0.50000  0.00000  0.74086  1
 Mn  Mn3  1  0.50000  0.00000  0.25914  1
 Mn  Mn4  1  0.00000  0.50000  0.74086  1
 Si  Si1  1  0.50000  0.50000  0.13039  1
 Si  Si2  1  0.00000  0.00000  0.61724  1
 Si  Si3  1  0.00000  0.00000  0.38276  1
 Si  Si4  1  0.50000  0.50000  0.86961  1
 Th  Th1  1  0.00000  0.00000  0.00000  1
 U  U1  1  0.50000  0.50000  0.50000  1
