CIF file written using JARVIS-Tools package.
data_SiPN3
_symmetry_space_group_name_H-M  'P2_1'
_cell_length_a       4.70065
_cell_length_b       5.26885
_cell_length_c       5.28533
_cell_angle_alpha    60.46
_cell_angle_beta     90
_cell_angle_gamma    90

_symmetry_Int_Tables_number  4
_chemical_formula_structural  SiPN3
_chemical_formula_sum  Si2P2N6
_cell_volume  113.885949404771
_cell_formula_units_Z  2
loop_
  _symmetry_equiv_pos_site_id
 _symmetry_equiv_pos_as_xyz
 1  'x, y, z'
loop_
 _atom_site_type_symbol
 _atom_site_label
 _atom_site_symmetry_multiplicity
 _atom_site_fract_x
 _atom_site_fract_y
 _atom_site_fract_z
 _atom_site_fract_occupancy
 N  N1  1  0.85809  0.33197  0.57207  1
 N  N2  1  0.84224  0.91572  0.42969  1
 N  N3  1  0.35809  0.66803  0.42793  1
 N  N4  1  0.34224  0.08428  0.57031  1
 N  N5  1  0.93348  0.76954  0.98135  1
 N  N6  1  0.43348  0.23046  0.01865  1
 P  P1  1  0.49589  0.99402  0.33511  1
 P  P2  1  0.99589  0.00598  0.66489  1
 Si  Si1  1  0.50350  0.32638  0.67692  1
 Si  Si2  1  0.00350  0.67362  0.32308  1
