CIF file written using JARVIS-Tools package.
data_BaP3Pt2
_symmetry_space_group_name_H-M  'P2_1/c'
_cell_length_a       5.84342
_cell_length_b       8.44634
_cell_length_c       11.7191
_cell_angle_alpha    106.742
_cell_angle_beta     90
_cell_angle_gamma    90

_symmetry_Int_Tables_number  14
_chemical_formula_structural  BaP3Pt2
_chemical_formula_sum  Ba4P2Pt8
_cell_volume  553.8837641838323
_cell_formula_units_Z  4
loop_
  _symmetry_equiv_pos_site_id
 _symmetry_equiv_pos_as_xyz
 1  'x, y, z'
loop_
 _atom_site_type_symbol
 _atom_site_label
 _atom_site_symmetry_multiplicity
 _atom_site_fract_x
 _atom_site_fract_y
 _atom_site_fract_z
 _atom_site_fract_occupancy
 Ba  Ba1  1  0.41254  0.24050  0.85261  1
 Ba  Ba2  1  0.58746  0.75950  0.14739  1
 Ba  Ba3  1  0.91254  0.75950  0.64739  1
 Ba  Ba4  1  0.08746  0.24050  0.35261  1
 P  P1  1  0.84640  0.54511  0.82517  1
 P  P2  1  0.88445  0.27475  0.08277  1
 P  P3  1  0.61555  0.27475  0.58277  1
 P  P4  1  0.11555  0.72525  0.91723  1
 P  P5  1  0.37987  0.06780  0.07183  1
 P  P6  1  0.87987  0.93220  0.42817  1
 P  P7  1  0.62013  0.93220  0.92817  1
 P  P8  1  0.65360  0.54511  0.32517  1
 P  P9  1  0.15360  0.45489  0.17483  1
 P  P10  1  0.34640  0.45489  0.67483  1
 P  P11  1  0.38445  0.72525  0.41723  1
 P  P12  1  0.12013  0.06780  0.57183  1
 Pt  Pt1  1  0.98347  0.33766  0.66130  1
 Pt  Pt2  1  0.51653  0.33766  0.16130  1
 Pt  Pt3  1  0.50000  -0.00000  0.50000  1
 Pt  Pt4  1  0.00000  0.50000  -0.00000  1
 Pt  Pt5  1  0.50000  0.50000  0.50000  1
 Pt  Pt6  1  0.00000  0.00000  0.00000  1
 Pt  Pt7  1  0.48347  0.66234  0.83870  1
 Pt  Pt8  1  0.01653  0.66234  0.33870  1
