CIF file written using JARVIS-Tools package.
data_Ho2Mo2C3
_symmetry_space_group_name_H-M  'C2/m'
_cell_length_a       5.89076
_cell_length_b       5.89076
_cell_length_c       5.67093
_cell_angle_alpha    72.8522
_cell_angle_beta     72.8522
_cell_angle_gamma    33.3232

_symmetry_Int_Tables_number  12
_chemical_formula_structural  Ho2Mo2C3
_chemical_formula_sum  Ho2Mo2C3
_cell_volume  102.8603381942071
_cell_formula_units_Z  1
loop_
  _symmetry_equiv_pos_site_id
 _symmetry_equiv_pos_as_xyz
 1  'x, y, z'
loop_
 _atom_site_type_symbol
 _atom_site_label
 _atom_site_symmetry_multiplicity
 _atom_site_fract_x
 _atom_site_fract_y
 _atom_site_fract_z
 _atom_site_fract_occupancy
 C  C1  1  -0.00000  0.00000  0.50000  1
 C  C2  1  0.72926  0.72926  0.74298  1
 C  C3  1  0.27074  0.27074  0.25702  1
 Ho  Ho1  1  0.38629  0.38629  0.82107  1
 Ho  Ho2  1  0.61371  0.61371  0.17893  1
 Mo  Mo1  1  0.14954  0.14954  0.62791  1
 Mo  Mo2  1  0.85046  0.85046  0.37209  1
