CIF file written using JARVIS-Tools package.
data_MgGe
_symmetry_space_group_name_H-M  'C2/m'
_cell_length_a       5.90278
_cell_length_b       5.90277
_cell_length_c       4.50151
_cell_angle_alpha    73.5929
_cell_angle_beta     73.5929
_cell_angle_gamma    32.0539

_symmetry_Int_Tables_number  12
_chemical_formula_structural  MgGe
_chemical_formula_sum  Mg2Ge2
_cell_volume  79.56442586268726
_cell_formula_units_Z  2
loop_
  _symmetry_equiv_pos_site_id
 _symmetry_equiv_pos_as_xyz
 1  'x, y, z'
loop_
 _atom_site_type_symbol
 _atom_site_label
 _atom_site_symmetry_multiplicity
 _atom_site_fract_x
 _atom_site_fract_y
 _atom_site_fract_z
 _atom_site_fract_occupancy
 Ge  Ge1  1  0.39716  0.39716  0.71980  1
 Ge  Ge2  1  0.60284  0.60284  0.28020  1
 Mg  Mg1  1  0.14151  0.14151  0.75464  1
 Mg  Mg2  1  0.85849  0.85849  0.24536  1
