CIF file written using JARVIS-Tools package.
data_NiSn2Au
_symmetry_space_group_name_H-M  'P-3m1'
_cell_length_a       4.15941
_cell_length_b       4.15942
_cell_length_c       5.38841
_cell_angle_alpha    90
_cell_angle_beta     90
_cell_angle_gamma    120

_symmetry_Int_Tables_number  164
_chemical_formula_structural  NiSn2Au
_chemical_formula_sum  NiSn2Au
_cell_volume  80.73374950185622
_cell_formula_units_Z  1
loop_
  _symmetry_equiv_pos_site_id
 _symmetry_equiv_pos_as_xyz
 1  'x, y, z'
loop_
 _atom_site_type_symbol
 _atom_site_label
 _atom_site_symmetry_multiplicity
 _atom_site_fract_x
 _atom_site_fract_y
 _atom_site_fract_z
 _atom_site_fract_occupancy
 Au  Au1  1  0.00000  0.00000  0.50000  1
 Ni  Ni1  1  0.00000  0.00000  0.00000  1
 Sn  Sn1  1  0.33333  0.66667  0.21167  1
 Sn  Sn2  1  0.66667  0.33333  0.78833  1
