CIF file written using JARVIS-Tools package.
data_Ca2GaAg
_symmetry_space_group_name_H-M  'Amm2'
_cell_length_a       5.9575
_cell_length_b       5.95749
_cell_length_c       4.65918
_cell_angle_alpha    90
_cell_angle_beta     90
_cell_angle_gamma    140.951

_symmetry_Int_Tables_number  38
_chemical_formula_structural  Ca2GaAg
_chemical_formula_sum  Ca2GaAg
_cell_volume  104.17655621296667
_cell_formula_units_Z  1
loop_
  _symmetry_equiv_pos_site_id
 _symmetry_equiv_pos_as_xyz
 1  'x, y, z'
loop_
 _atom_site_type_symbol
 _atom_site_label
 _atom_site_symmetry_multiplicity
 _atom_site_fract_x
 _atom_site_fract_y
 _atom_site_fract_z
 _atom_site_fract_occupancy
 Ag  Ag1  1  0.06906  0.93094  0.00000  1
 Ca  Ca1  1  0.35728  0.64272  0.00000  1
 Ca  Ca2  1  0.64538  0.35462  0.50000  1
 Ga  Ga1  1  0.92828  0.07172  0.50000  1
