CIF file written using JARVIS-Tools package.
data_HfZr2UC4
_symmetry_space_group_name_H-M  'R3m'
_cell_length_a       11.2387
_cell_length_b       11.2387
_cell_length_c       11.2387
_cell_angle_alpha    17.2126
_cell_angle_beta     17.2126
_cell_angle_gamma    17.2126

_symmetry_Int_Tables_number  160
_chemical_formula_structural  HfZr2UC4
_chemical_formula_sum  HfZr2UC4
_cell_volume  108.46075076940862
_cell_formula_units_Z  1
loop_
  _symmetry_equiv_pos_site_id
 _symmetry_equiv_pos_as_xyz
 1  'x, y, z'
loop_
 _atom_site_type_symbol
 _atom_site_label
 _atom_site_symmetry_multiplicity
 _atom_site_fract_x
 _atom_site_fract_y
 _atom_site_fract_z
 _atom_site_fract_occupancy
 C  C1  1  0.87600  0.87600  0.87600  1
 C  C2  1  0.62540  0.62540  0.62540  1
 C  C3  1  0.37245  0.37245  0.37245  1
 C  C4  1  0.12624  0.12624  0.12624  1
 Hf  Hf1  1  0.99635  0.99635  0.99635  1
 U  U1  1  0.74952  0.74952  0.74952  1
 Zr  Zr1  1  0.50364  0.50364  0.50364  1
 Zr  Zr2  1  0.25040  0.25040  0.25040  1
