CIF file written using JARVIS-Tools package.
data_ScOF
_symmetry_space_group_name_H-M  'P2_1/c'
_cell_length_a       5.30724
_cell_length_b       4.92234
_cell_length_c       5.75638
_cell_angle_alpha    90
_cell_angle_beta     91.0244
_cell_angle_gamma    90

_symmetry_Int_Tables_number  14
_chemical_formula_structural  ScOF
_chemical_formula_sum  Sc4O4F4
_cell_volume  150.3556942358218
_cell_formula_units_Z  4
loop_
  _symmetry_equiv_pos_site_id
 _symmetry_equiv_pos_as_xyz
 1  'x, y, z'
loop_
 _atom_site_type_symbol
 _atom_site_label
 _atom_site_symmetry_multiplicity
 _atom_site_fract_x
 _atom_site_fract_y
 _atom_site_fract_z
 _atom_site_fract_occupancy
 F  F1  1  0.57380  0.22608  0.88441  1
 F  F2  1  0.57380  0.27392  0.38441  1
 F  F3  1  0.42620  0.77392  0.11559  1
 F  F4  1  0.42620  0.72608  0.61559  1
 O  O1  1  0.92042  0.72638  0.40146  1
 O  O2  1  0.92042  0.77362  0.90146  1
 O  O3  1  0.07958  0.27362  0.59854  1
 O  O4  1  0.07958  0.22638  0.09854  1
 Sc  Sc1  1  0.21842  0.48885  0.32703  1
 Sc  Sc2  1  0.78158  0.98885  0.17297  1
 Sc  Sc3  1  0.78158  0.51115  0.67297  1
 Sc  Sc4  1  0.21842  0.01115  0.82703  1
