CIF file written using JARVIS-Tools package.
data_MnF3
_symmetry_space_group_name_H-M  'R-3c'
_cell_length_a       5.37454
_cell_length_b       5.37454
_cell_length_c       5.37453
_cell_angle_alpha    57.3963
_cell_angle_beta     57.3963
_cell_angle_gamma    57.3963

_symmetry_Int_Tables_number  167
_chemical_formula_structural  MnF3
_chemical_formula_sum  Mn2F6
_cell_volume  103.19883719710141
_cell_formula_units_Z  2
loop_
  _symmetry_equiv_pos_site_id
 _symmetry_equiv_pos_as_xyz
 1  'x, y, z'
loop_
 _atom_site_type_symbol
 _atom_site_label
 _atom_site_symmetry_multiplicity
 _atom_site_fract_x
 _atom_site_fract_y
 _atom_site_fract_z
 _atom_site_fract_occupancy
 F  F1  1  0.84842  0.65158  0.25000  1
 F  F2  1  0.15158  0.34842  0.75000  1
 F  F3  1  0.25000  0.84842  0.65158  1
 F  F4  1  0.65158  0.25000  0.84842  1
 F  F5  1  0.75000  0.15158  0.34842  1
 F  F6  1  0.34842  0.75000  0.15158  1
 Mn  Mn1  1  0.00000  0.00000  0.00000  1
 Mn  Mn2  1  0.50000  0.50000  0.50000  1
