CIF file written using JARVIS-Tools package.
data_HfNb4CN4
_symmetry_space_group_name_H-M  'I4/mmm'
_cell_length_a       11.4955
_cell_length_b       11.4955
_cell_length_c       11.4955
_cell_angle_alpha    164.147
_cell_angle_beta     164.147
_cell_angle_gamma    22.4921

_symmetry_Int_Tables_number  139
_chemical_formula_structural  HfNb4CN4
_chemical_formula_sum  HfNb4CN4
_cell_volume  113.33331194325395
_cell_formula_units_Z  1
loop_
  _symmetry_equiv_pos_site_id
 _symmetry_equiv_pos_as_xyz
 1  'x, y, z'
loop_
 _atom_site_type_symbol
 _atom_site_label
 _atom_site_symmetry_multiplicity
 _atom_site_fract_x
 _atom_site_fract_y
 _atom_site_fract_z
 _atom_site_fract_occupancy
 C  C1  1  0.50000  0.50000  0.00000  1
 Hf  Hf1  1  0.00000  0.00000  0.00000  1
 N  N1  1  0.89797  0.89797  -0.00000  1
 N  N2  1  0.30384  0.30384  0.00000  1
 N  N3  1  0.69616  0.69616  -0.00000  1
 N  N4  1  0.10203  0.10203  0.00000  1
 Nb  Nb1  1  0.40411  0.40411  0.00000  1
 Nb  Nb2  1  0.79491  0.79491  -0.00000  1
 Nb  Nb3  1  0.20509  0.20509  0.00000  1
 Nb  Nb4  1  0.59589  0.59589  -0.00000  1
