CIF file written using JARVIS-Tools package.
data_Hf5ScSi4
_symmetry_space_group_name_H-M  'P4/m'
_cell_length_a       7.04202
_cell_length_b       7.04202
_cell_length_c       3.68298
_cell_angle_alpha    90
_cell_angle_beta     90
_cell_angle_gamma    90

_symmetry_Int_Tables_number  83
_chemical_formula_structural  Hf5ScSi4
_chemical_formula_sum  Hf5ScSi4
_cell_volume  182.6394449558393
_cell_formula_units_Z  1
loop_
  _symmetry_equiv_pos_site_id
 _symmetry_equiv_pos_as_xyz
 1  'x, y, z'
loop_
 _atom_site_type_symbol
 _atom_site_label
 _atom_site_symmetry_multiplicity
 _atom_site_fract_x
 _atom_site_fract_y
 _atom_site_fract_z
 _atom_site_fract_occupancy
 Hf  Hf1  1  0.67658  0.16966  0.50000  1
 Hf  Hf2  1  0.32342  0.83034  0.50000  1
 Hf  Hf3  1  0.16966  0.32342  0.50000  1
 Hf  Hf4  1  0.83034  0.67658  0.50000  1
 Hf  Hf5  1  0.00000  0.00000  0.00000  1
 Sc  Sc1  1  0.50000  0.50000  0.00000  1
 Si  Si1  1  0.12507  0.62350  0.00000  1
 Si  Si2  1  0.87493  0.37650  0.00000  1
 Si  Si3  1  0.62350  0.87493  0.00000  1
 Si  Si4  1  0.37650  0.12507  0.00000  1
