CIF file written using JARVIS-Tools package.
data_Be4FeGe
_symmetry_space_group_name_H-M  'F-43m'
_cell_length_a       4.23737
_cell_length_b       4.23737
_cell_length_c       4.23737
_cell_angle_alpha    59.9999
_cell_angle_beta     59.9999
_cell_angle_gamma    60

_symmetry_Int_Tables_number  216
_chemical_formula_structural  Be4FeGe
_chemical_formula_sum  Be4FeGe
_cell_volume  53.79915163823522
_cell_formula_units_Z  1
loop_
  _symmetry_equiv_pos_site_id
 _symmetry_equiv_pos_as_xyz
 1  'x, y, z'
loop_
 _atom_site_type_symbol
 _atom_site_label
 _atom_site_symmetry_multiplicity
 _atom_site_fract_x
 _atom_site_fract_y
 _atom_site_fract_z
 _atom_site_fract_occupancy
 Be  Be1  1  0.62383  0.62383  0.12851  1
 Be  Be2  1  0.62383  0.12851  0.62383  1
 Be  Be3  1  0.12851  0.62383  0.62383  1
 Be  Be4  1  0.62383  0.62383  0.62383  1
 Fe  Fe1  1  0.25000  0.25000  0.25000  1
 Ge  Ge1  1  0.00000  0.00000  0.00000  1
