CIF file written using JARVIS-Tools package.
data_Tb2MgCu2
_symmetry_space_group_name_H-M  'P4/mbm'
_cell_length_a       7.5861
_cell_length_b       7.5861
_cell_length_c       3.70243
_cell_angle_alpha    90
_cell_angle_beta     90
_cell_angle_gamma    90

_symmetry_Int_Tables_number  127
_chemical_formula_structural  Tb2MgCu2
_chemical_formula_sum  Tb4Mg2Cu4
_cell_volume  213.07119785161348
_cell_formula_units_Z  2
loop_
  _symmetry_equiv_pos_site_id
 _symmetry_equiv_pos_as_xyz
 1  'x, y, z'
loop_
 _atom_site_type_symbol
 _atom_site_label
 _atom_site_symmetry_multiplicity
 _atom_site_fract_x
 _atom_site_fract_y
 _atom_site_fract_z
 _atom_site_fract_occupancy
 Cu  Cu1  1  0.12446  0.62446  0.00000  1
 Cu  Cu2  1  0.87554  0.37554  0.00000  1
 Cu  Cu3  1  0.62446  0.87554  0.00000  1
 Cu  Cu4  1  0.37554  0.12446  0.00000  1
 Mg  Mg1  1  0.00000  0.00000  0.00000  1
 Mg  Mg2  1  0.50000  0.50000  0.00000  1
 Tb  Tb1  1  0.66950  0.16950  0.50000  1
 Tb  Tb2  1  0.33050  0.83050  0.50000  1
 Tb  Tb3  1  0.16950  0.33050  0.50000  1
 Tb  Tb4  1  0.83050  0.66950  0.50000  1
