CIF file written using JARVIS-Tools package.
data_YNiGe
_symmetry_space_group_name_H-M  'C2/m'
_cell_length_a       5.51558
_cell_length_b       5.51558
_cell_length_c       6.88916
_cell_angle_alpha    51.7632
_cell_angle_beta     51.7632
_cell_angle_gamma    43.9247

_symmetry_Int_Tables_number  12
_chemical_formula_structural  YNiGe
_chemical_formula_sum  Y2Ni2Ge2
_cell_volume  108.27791033323007
_cell_formula_units_Z  2
loop_
  _symmetry_equiv_pos_site_id
 _symmetry_equiv_pos_as_xyz
 1  'x, y, z'
loop_
 _atom_site_type_symbol
 _atom_site_label
 _atom_site_symmetry_multiplicity
 _atom_site_fract_x
 _atom_site_fract_y
 _atom_site_fract_z
 _atom_site_fract_occupancy
 Ge  Ge1  1  0.82928  0.82928  0.10326  1
 Ge  Ge2  1  0.17072  0.17072  0.89674  1
 Ni  Ni1  1  0.16816  0.16816  0.28052  1
 Ni  Ni2  1  0.83184  0.83184  0.71948  1
 Y  Y1  1  0.55137  0.55137  0.68954  1
 Y  Y2  1  0.44863  0.44863  0.31046  1
