CIF file written using JARVIS-Tools package.
data_C4SO2
_symmetry_space_group_name_H-M  'Pca2_1'
_cell_length_a       5.91215
_cell_length_b       9.37347
_cell_length_c       13.7923
_cell_angle_alpha    90
_cell_angle_beta     90
_cell_angle_gamma    90

_symmetry_Int_Tables_number  29
_chemical_formula_structural  C4SO2
_chemical_formula_sum  C32S8O6
_cell_volume  764.3322988593808
_cell_formula_units_Z  8
loop_
  _symmetry_equiv_pos_site_id
 _symmetry_equiv_pos_as_xyz
 1  'x, y, z'
loop_
 _atom_site_type_symbol
 _atom_site_label
 _atom_site_symmetry_multiplicity
 _atom_site_fract_x
 _atom_site_fract_y
 _atom_site_fract_z
 _atom_site_fract_occupancy
 C  C1  1  0.77394  0.40830  0.43789  1
 C  C2  1  0.70998  0.78108  0.76363  1
 C  C3  1  0.44979  0.96871  0.52113  1
 C  C4  1  0.90715  0.22425  0.69879  1
 C  C5  1  0.22606  0.40830  0.93789  1
 C  C6  1  0.55021  0.46871  0.47887  1
 C  C7  1  0.38290  0.89992  0.42662  1
 C  C8  1  0.02934  0.15653  0.29442  1
 C  C9  1  0.29002  0.28108  0.23637  1
 C  C10  1  0.97066  0.65653  0.70558  1
 C  C11  1  0.97066  0.15653  0.79442  1
 C  C12  1  0.74836  0.21976  0.83422  1
 C  C13  1  0.74836  0.71976  0.66578  1
 C  C14  1  0.61710  0.39992  0.57338  1
 C  C15  1  0.61710  0.89992  0.92662  1
 C  C16  1  0.38290  0.39992  0.07338  1
 C  C17  1  0.29002  0.78108  0.26363  1
 C  C18  1  0.77394  0.90830  0.06211  1
 C  C19  1  0.90715  0.72425  0.80121  1
 C  C20  1  0.09285  0.72425  0.30121  1
 C  C21  1  0.18500  0.84443  0.46450  1
 C  C22  1  0.18500  0.34443  0.03550  1
 C  C23  1  0.02934  0.65653  0.20558  1
 C  C24  1  0.22606  0.90830  0.56211  1
 C  C25  1  0.55021  0.96871  0.02113  1
 C  C26  1  0.81500  0.84443  0.96450  1
 C  C27  1  0.70998  0.28108  0.73637  1
 C  C28  1  0.25164  0.21976  0.33422  1
 C  C29  1  0.09285  0.22425  0.19879  1
 C  C30  1  0.81500  0.34443  0.53550  1
 C  C31  1  0.44979  0.46871  0.97887  1
 C  C32  1  0.25164  0.71976  0.16578  1
 O  O1  1  0.65021  0.22110  0.91175  1
 O  O2  1  0.39414  0.03844  0.05231  1
 O  O3  1  0.87387  0.08840  0.32784  1
 O  O4  1  0.12613  0.08840  0.82784  1
 O  O5  1  0.12651  0.41365  0.86087  1
 O  O6  1  0.12613  0.58840  0.67216  1
 O  O7  1  0.12651  0.91365  0.63913  1
 O  O8  1  0.87349  0.41365  0.36087  1
 O  O9  1  0.34979  0.22110  0.41175  1
 O  O10  1  0.34979  0.72110  0.08825  1
 O  O11  1  0.60586  0.03844  0.55231  1
 O  O12  1  0.39414  0.53844  0.44769  1
 O  O13  1  0.60586  0.53844  0.94769  1
 O  O14  1  0.65021  0.72110  0.58825  1
 O  O15  1  0.87349  0.91365  0.13913  1
 O  O16  1  0.87387  0.58840  0.17216  1
 S  S1  1  0.49586  0.89043  0.31106  1
 S  S2  1  0.02576  0.24080  0.58550  1
 S  S3  1  0.50414  0.39043  0.68894  1
 S  S4  1  0.49586  0.39043  0.18894  1
 S  S5  1  0.50414  0.89043  0.81106  1
 S  S6  1  0.97424  0.24080  0.08550  1
 S  S7  1  0.02576  0.74080  0.91450  1
 S  S8  1  0.97424  0.74080  0.41450  1
