CIF file written using JARVIS-Tools package.
data_NaScO2
_symmetry_space_group_name_H-M  'R-3m'
_cell_length_a       5.72218
_cell_length_b       5.72218
_cell_length_c       5.72218
_cell_angle_alpha    32.1699
_cell_angle_beta     32.1699
_cell_angle_gamma    32.1699

_symmetry_Int_Tables_number  166
_chemical_formula_structural  NaScO2
_chemical_formula_sum  NaScO2
_cell_volume  47.20446775766536
_cell_formula_units_Z  1
loop_
  _symmetry_equiv_pos_site_id
 _symmetry_equiv_pos_as_xyz
 1  'x, y, z'
loop_
 _atom_site_type_symbol
 _atom_site_label
 _atom_site_symmetry_multiplicity
 _atom_site_fract_x
 _atom_site_fract_y
 _atom_site_fract_z
 _atom_site_fract_occupancy
 Na  Na1  1  0.50000  0.50000  0.50000  1
 O  O1  1  0.73508  0.73508  0.73508  1
 O  O2  1  0.26492  0.26492  0.26492  1
 Sc  Sc1  1  0.00000  0.00000  0.00000  1
