CIF file written using JARVIS-Tools package.
data_Cr2Ir2C
_symmetry_space_group_name_H-M  'R-3m'
_cell_length_a       8.97462
_cell_length_b       8.97462
_cell_length_c       8.97462
_cell_angle_alpha    17.6282
_cell_angle_beta     17.6282
_cell_angle_gamma    17.6282

_symmetry_Int_Tables_number  166
_chemical_formula_structural  Cr2Ir2C
_chemical_formula_sum  Cr2Ir2C
_cell_volume  57.86466409222326
_cell_formula_units_Z  1
loop_
  _symmetry_equiv_pos_site_id
 _symmetry_equiv_pos_as_xyz
 1  'x, y, z'
loop_
 _atom_site_type_symbol
 _atom_site_label
 _atom_site_symmetry_multiplicity
 _atom_site_fract_x
 _atom_site_fract_y
 _atom_site_fract_z
 _atom_site_fract_occupancy
 C  C1  1  0.00000  0.00000  0.00000  1
 Cr  Cr1  1  0.37704  0.37704  0.37704  1
 Cr  Cr2  1  0.62296  0.62296  0.62296  1
 Ir  Ir1  1  0.87850  0.87850  0.87850  1
 Ir  Ir2  1  0.12150  0.12150  0.12150  1
