CIF file written using JARVIS-Tools package.
data_Y4S3N2
_symmetry_space_group_name_H-M  'C2/m'
_cell_length_a       6.73215
_cell_length_b       3.832
_cell_length_c       10.2711
_cell_angle_alpha    90
_cell_angle_beta     50.7326
_cell_angle_gamma    73.4648

_symmetry_Int_Tables_number  12
_chemical_formula_structural  Y4S3N2
_chemical_formula_sum  Y4S3N2
_cell_volume  190.7760795734643
_cell_formula_units_Z  1
loop_
  _symmetry_equiv_pos_site_id
 _symmetry_equiv_pos_as_xyz
 1  'x, y, z'
loop_
 _atom_site_type_symbol
 _atom_site_label
 _atom_site_symmetry_multiplicity
 _atom_site_fract_x
 _atom_site_fract_y
 _atom_site_fract_z
 _atom_site_fract_occupancy
 N  N1  1  0.56466  0.71767  0.36088  1
 N  N2  1  0.43534  0.28233  0.63912  1
 S  S1  1  0.00000  0.00000  0.00000  1
 S  S2  1  0.78110  0.60945  0.78251  1
 S  S3  1  0.21890  0.39055  0.21749  1
 Y  Y1  1  0.22159  0.88921  0.64872  1
 Y  Y2  1  0.77841  0.11079  0.35128  1
 Y  Y3  1  0.58274  0.70863  0.14451  1
 Y  Y4  1  0.41726  0.29137  0.85549  1
