CIF file written using JARVIS-Tools package.
data_BaCa3
_symmetry_space_group_name_H-M  'R-3m'
_cell_length_a       13.2381
_cell_length_b       13.2381
_cell_length_c       13.2381
_cell_angle_alpha    17.2636
_cell_angle_beta     17.2636
_cell_angle_gamma    17.2637

_symmetry_Int_Tables_number  166
_chemical_formula_structural  BaCa3
_chemical_formula_sum  BaCa3
_cell_volume  178.28509939853976
_cell_formula_units_Z  1
loop_
  _symmetry_equiv_pos_site_id
 _symmetry_equiv_pos_as_xyz
 1  'x, y, z'
loop_
 _atom_site_type_symbol
 _atom_site_label
 _atom_site_symmetry_multiplicity
 _atom_site_fract_x
 _atom_site_fract_y
 _atom_site_fract_z
 _atom_site_fract_occupancy
 Ba  Ba1  1  0.00000  0.00000  0.00000  1
 Ca  Ca1  1  0.24590  0.24590  0.24590  1
 Ca  Ca2  1  0.50000  0.50000  0.50000  1
 Ca  Ca3  1  0.75410  0.75410  0.75410  1
