CIF file written using JARVIS-Tools package.
data_Si
_symmetry_space_group_name_H-M  'Fmmm'
_cell_length_a       5.37443
_cell_length_b       5.37444
_cell_length_c       5.46586
_cell_angle_alpha    90
_cell_angle_beta     90
_cell_angle_gamma    125.458

_symmetry_Int_Tables_number  69
_chemical_formula_structural  Si
_chemical_formula_sum  Si8
_cell_volume  128.59854178951235
_cell_formula_units_Z  8
loop_
  _symmetry_equiv_pos_site_id
 _symmetry_equiv_pos_as_xyz
 1  'x, y, z'
loop_
 _atom_site_type_symbol
 _atom_site_label
 _atom_site_symmetry_multiplicity
 _atom_site_fract_x
 _atom_site_fract_y
 _atom_site_fract_z
 _atom_site_fract_occupancy
 Si  Si1  1  0.00001  0.00001  0.27492  1
 Si  Si2  1  0.49999  0.49999  0.77492  1
 Si  Si3  1  0.50001  0.50001  0.22508  1
 Si  Si4  1  -0.00001  -0.00001  0.72508  1
 Si  Si5  1  0.21595  0.78405  0.00000  1
 Si  Si6  1  0.28405  0.71595  0.50000  1
 Si  Si7  1  0.78405  0.21595  0.00000  1
 Si  Si8  1  0.71595  0.28405  0.50000  1
