CIF file written using JARVIS-Tools package.
data_InAgGeSe4
_symmetry_space_group_name_H-M  'I-4'
_cell_length_a       6.90022
_cell_length_b       6.90022
_cell_length_c       6.90023
_cell_angle_alpha    130.174
_cell_angle_beta     130.174
_cell_angle_gamma    73.1288

_symmetry_Int_Tables_number  82
_chemical_formula_structural  InAgGeSe4
_chemical_formula_sum  InAgGeSe4
_cell_volume  187.29665500163267
_cell_formula_units_Z  1
loop_
  _symmetry_equiv_pos_site_id
 _symmetry_equiv_pos_as_xyz
 1  'x, y, z'
loop_
 _atom_site_type_symbol
 _atom_site_label
 _atom_site_symmetry_multiplicity
 _atom_site_fract_x
 _atom_site_fract_y
 _atom_site_fract_z
 _atom_site_fract_occupancy
 Ag  Ag1  1  0.25000  0.75000  0.50000  1
 Ge  Ge1  1  0.75000  0.25000  0.50000  1
 In  In1  1  0.50000  0.50000  -0.00000  1
 Se  Se1  1  0.08263  0.12125  0.43670  1
 Se  Se2  1  0.68455  0.64592  0.56330  1
 Se  Se3  1  0.35408  0.91737  0.03862  1
 Se  Se4  1  0.87875  0.31545  0.96138  1
