CIF file written using JARVIS-Tools package.
data_UNb
_symmetry_space_group_name_H-M  'Cmmm'
_cell_length_a       2.9724
_cell_length_b       2.9724
_cell_length_c       4.90791
_cell_angle_alpha    90
_cell_angle_beta     90
_cell_angle_gamma    114.043

_symmetry_Int_Tables_number  65
_chemical_formula_structural  UNb
_chemical_formula_sum  UNb
_cell_volume  39.60006885704563
_cell_formula_units_Z  1
loop_
  _symmetry_equiv_pos_site_id
 _symmetry_equiv_pos_as_xyz
 1  'x, y, z'
loop_
 _atom_site_type_symbol
 _atom_site_label
 _atom_site_symmetry_multiplicity
 _atom_site_fract_x
 _atom_site_fract_y
 _atom_site_fract_z
 _atom_site_fract_occupancy
 Nb  Nb1  1  0.00000  0.00000  0.00000  1
 U  U1  1  0.50000  0.50000  0.50000  1
