CIF file written using JARVIS-Tools package.
data_NaU2Cl6
_symmetry_space_group_name_H-M  'P-3'
_cell_length_a       7.80048
_cell_length_b       7.80048
_cell_length_c       3.94264
_cell_angle_alpha    90
_cell_angle_beta     90
_cell_angle_gamma    120

_symmetry_Int_Tables_number  147
_chemical_formula_structural  NaU2Cl6
_chemical_formula_sum  NaU2Cl6
_cell_volume  207.7590905426621
_cell_formula_units_Z  1
loop_
  _symmetry_equiv_pos_site_id
 _symmetry_equiv_pos_as_xyz
 1  'x, y, z'
loop_
 _atom_site_type_symbol
 _atom_site_label
 _atom_site_symmetry_multiplicity
 _atom_site_fract_x
 _atom_site_fract_y
 _atom_site_fract_z
 _atom_site_fract_occupancy
 Cl  Cl1  1  0.30149  0.37744  0.74978  1
 Cl  Cl2  1  0.62256  0.92405  0.74978  1
 Cl  Cl3  1  0.07595  0.69851  0.74978  1
 Cl  Cl4  1  0.69851  0.62256  0.25022  1
 Cl  Cl5  1  0.37744  0.07595  0.25022  1
 Cl  Cl6  1  0.92405  0.30149  0.25022  1
 Na  Na1  1  0.00000  0.00000  0.50000  1
 U  U1  1  0.66667  0.33333  0.75545  1
 U  U2  1  0.33333  0.66667  0.24455  1
