CIF file written using JARVIS-Tools package.
data_Ce2ThO6
_symmetry_space_group_name_H-M  'Immm'
_cell_length_a       6.75145
_cell_length_b       6.75145
_cell_length_c       6.75145
_cell_angle_alpha    146.384
_cell_angle_beta     131.791
_cell_angle_gamma    60.054

_symmetry_Int_Tables_number  71
_chemical_formula_structural  Ce2ThO6
_chemical_formula_sum  Ce2ThO6
_cell_volume  125.86327368767995
_cell_formula_units_Z  1
loop_
  _symmetry_equiv_pos_site_id
 _symmetry_equiv_pos_as_xyz
 1  'x, y, z'
loop_
 _atom_site_type_symbol
 _atom_site_label
 _atom_site_symmetry_multiplicity
 _atom_site_fract_x
 _atom_site_fract_y
 _atom_site_fract_z
 _atom_site_fract_occupancy
 Ce  Ce1  1  0.66776  0.66776  -0.00000  1
 Ce  Ce2  1  0.33224  0.33224  -0.00000  1
 O  O1  1  0.74568  0.50000  0.24568  1
 O  O2  1  0.42088  0.16870  0.25218  1
 O  O3  1  0.08348  0.83130  0.25218  1
 O  O4  1  0.25432  0.50000  0.75432  1
 O  O5  1  0.91652  0.16870  0.74782  1
 O  O6  1  0.57912  0.83130  0.74782  1
 Th  Th1  1  0.00000  0.00000  0.00000  1
