CIF file written using JARVIS-Tools package.
data_Tl2BiSbTe4
_symmetry_space_group_name_H-M  'P2/m'
_cell_length_a       4.53257
_cell_length_b       7.85261
_cell_length_c       8.31454
_cell_angle_alpha    71.6567
_cell_angle_beta     90
_cell_angle_gamma    90

_symmetry_Int_Tables_number  10
_chemical_formula_structural  Tl2BiSbTe4
_chemical_formula_sum  Tl2BiSbTe4
_cell_volume  280.8982821286617
_cell_formula_units_Z  1
loop_
  _symmetry_equiv_pos_site_id
 _symmetry_equiv_pos_as_xyz
 1  'x, y, z'
loop_
 _atom_site_type_symbol
 _atom_site_label
 _atom_site_symmetry_multiplicity
 _atom_site_fract_x
 _atom_site_fract_y
 _atom_site_fract_z
 _atom_site_fract_occupancy
 Bi  Bi1  1  0.00000  0.00000  0.00000  1
 Sb  Sb1  1  0.50000  0.50000  0.00000  1
 Te  Te1  1  0.50000  0.75407  0.22441  1
 Te  Te2  1  0.00000  0.26381  0.22176  1
 Te  Te3  1  0.50000  0.24593  0.77559  1
 Te  Te4  1  0.00000  0.73619  0.77824  1
 Tl  Tl1  1  0.00000  0.50000  0.50000  1
 Tl  Tl2  1  0.50000  0.00000  0.50000  1
