CIF file written using JARVIS-Tools package.
data_Na3YH12C3O15
_symmetry_space_group_name_H-M  'P6_3'
_cell_length_a       11.2719
_cell_length_b       11.2719
_cell_length_c       5.83577
_cell_angle_alpha    90
_cell_angle_beta     90
_cell_angle_gamma    120

_symmetry_Int_Tables_number  173
_chemical_formula_structural  Na3YH12C3O15
_chemical_formula_sum  Na6Y2H24C6O30
_cell_volume  642.1305751808438
_cell_formula_units_Z  2
loop_
  _symmetry_equiv_pos_site_id
 _symmetry_equiv_pos_as_xyz
 1  'x, y, z'
loop_
 _atom_site_type_symbol
 _atom_site_label
 _atom_site_symmetry_multiplicity
 _atom_site_fract_x
 _atom_site_fract_y
 _atom_site_fract_z
 _atom_site_fract_occupancy
 C  C1  1  0.43468  0.31788  0.18429  1
 C  C2  1  0.88320  0.56532  0.18429  1
 C  C3  1  0.11680  0.43468  0.68429  1
 C  C4  1  0.56532  0.68212  0.68429  1
 C  C5  1  0.31788  0.88320  0.68429  1
 C  C6  1  0.68212  0.11680  0.18429  1
 H  H1  1  0.85700  0.88018  0.92986  1
 H  H2  1  0.14300  0.11982  0.42986  1
 H  H3  1  0.89649  0.77503  0.03300  1
 H  H4  1  0.27118  0.49508  0.35814  1
 H  H5  1  0.58610  0.87719  0.14601  1
 H  H6  1  0.41390  0.12281  0.64601  1
 H  H7  1  0.22497  0.12146  0.03300  1
 H  H8  1  0.70891  0.58610  0.64601  1
 H  H9  1  0.29109  0.41390  0.14601  1
 H  H10  1  0.22391  0.72882  0.35814  1
 H  H11  1  0.87854  0.10351  0.03300  1
 H  H12  1  0.88018  0.02319  0.42986  1
 H  H13  1  0.72882  0.50492  0.85814  1
 H  H14  1  0.10351  0.22497  0.53300  1
 H  H15  1  0.12146  0.89649  0.53300  1
 H  H16  1  0.49508  0.22391  0.85814  1
 H  H17  1  0.50492  0.77609  0.35814  1
 H  H18  1  0.77503  0.87854  0.53300  1
 H  H19  1  0.02319  0.14300  0.92986  1
 H  H20  1  -0.02319  0.85700  0.42986  1
 H  H21  1  0.12281  0.70891  0.14601  1
 H  H22  1  0.87719  0.29109  0.64601  1
 H  H23  1  0.77609  0.27118  0.85814  1
 H  H24  1  0.11982  -0.02319  0.92986  1
 Na  Na1  1  0.62870  0.63813  0.18252  1
 Na  Na2  1  -0.00943  0.62870  0.68252  1
 Na  Na3  1  0.63813  0.00943  0.68252  1
 Na  Na4  1  0.37130  0.36187  0.68252  1
 Na  Na5  1  0.36187  -0.00943  0.18252  1
 Na  Na6  1  0.00943  0.37130  0.18252  1
 O  O1  1  0.82091  0.97895  0.56201  1
 O  O2  1  0.73226  0.51198  0.68646  1
 O  O3  1  0.76172  0.24821  0.14301  1
 O  O4  1  0.97213  0.67010  0.07090  1
 O  O5  1  0.97895  0.15804  0.06201  1
 O  O6  1  0.48802  0.22029  0.68646  1
 O  O7  1  0.59011  0.08393  0.34129  1
 O  O8  1  0.49382  0.40989  0.34129  1
 O  O9  1  0.51198  0.77971  0.18646  1
 O  O10  1  0.69797  0.02787  0.07090  1
 O  O11  1  0.91607  0.50618  0.34129  1
 O  O12  1  0.26774  0.48802  0.18646  1
 O  O13  1  0.67010  0.69797  0.57090  1
 O  O14  1  0.51351  0.76172  0.64301  1
 O  O15  1  0.02787  0.32990  0.57090  1
 O  O16  1  0.32990  0.30203  0.07090  1
 O  O17  1  0.84196  0.82091  0.06201  1
 O  O18  1  0.23828  0.75179  0.64301  1
 O  O19  1  0.75179  0.51351  0.14301  1
 O  O20  1  0.30203  0.97213  0.57090  1
 O  O21  1  0.22029  0.73226  0.18646  1
 O  O22  1  0.48649  0.23828  0.14301  1
 O  O23  1  0.50618  0.59011  0.84129  1
 O  O24  1  0.08393  0.49382  0.84129  1
 O  O25  1  0.77971  0.26774  0.68646  1
 O  O26  1  0.15804  0.17909  0.56201  1
 O  O27  1  0.02105  0.84196  0.56201  1
 O  O28  1  0.17909  0.02105  0.06201  1
 O  O29  1  0.24821  0.48649  0.64301  1
 O  O30  1  0.40989  0.91607  0.84129  1
 Y  Y1  1  0.66667  0.33333  0.41520  1
 Y  Y2  1  0.33333  0.66667  0.91520  1
