CIF file written using JARVIS-Tools package.
data_RbBiO2
_symmetry_space_group_name_H-M  'C2/c'
_cell_length_a       5.77224
_cell_length_b       5.77223
_cell_length_c       6.09542
_cell_angle_alpha    112.814
_cell_angle_beta     112.814
_cell_angle_gamma    91.2084

_symmetry_Int_Tables_number  15
_chemical_formula_structural  RbBiO2
_chemical_formula_sum  Rb2Bi2O4
_cell_volume  169.00882020265013
_cell_formula_units_Z  2
loop_
  _symmetry_equiv_pos_site_id
 _symmetry_equiv_pos_as_xyz
 1  'x, y, z'
loop_
 _atom_site_type_symbol
 _atom_site_label
 _atom_site_symmetry_multiplicity
 _atom_site_fract_x
 _atom_site_fract_y
 _atom_site_fract_z
 _atom_site_fract_occupancy
 Bi  Bi1  1  0.10078  0.89922  0.25000  1
 Bi  Bi2  1  0.89922  0.10078  0.75000  1
 O  O1  1  0.11995  0.25113  0.21297  1
 O  O2  1  0.74887  0.88005  0.28703  1
 O  O3  1  0.25113  0.11995  0.71297  1
 O  O4  1  0.88005  0.74887  0.78703  1
 Rb  Rb1  1  0.36915  0.63085  0.75000  1
 Rb  Rb2  1  0.63085  0.36915  0.25000  1
