CIF file written using JARVIS-Tools package.
data_CoSI
_symmetry_space_group_name_H-M  'R3m'
_cell_length_a       3.53335
_cell_length_b       3.53335
_cell_length_c       6.13809
_cell_angle_alpha    73.3145
_cell_angle_beta     73.3145
_cell_angle_gamma    59.9996

_symmetry_Int_Tables_number  160
_chemical_formula_structural  CoSI
_chemical_formula_sum  CoSI
_cell_volume  62.610951545849346
_cell_formula_units_Z  1
loop_
  _symmetry_equiv_pos_site_id
 _symmetry_equiv_pos_as_xyz
 1  'x, y, z'
loop_
 _atom_site_type_symbol
 _atom_site_label
 _atom_site_symmetry_multiplicity
 _atom_site_fract_x
 _atom_site_fract_y
 _atom_site_fract_z
 _atom_site_fract_occupancy
 Co  Co1  1  0.99073  0.99073  0.03588  1
 I  I1  1  0.75303  0.75303  0.74820  1
 S  S1  1  0.26417  0.26417  0.21592  1
