CIF file written using JARVIS-Tools package.
data_V2Cr3Sb3O16
_symmetry_space_group_name_H-M  'Cm'
_cell_length_a       6.05522
_cell_length_b       6.09323
_cell_length_c       8.8814
_cell_angle_alpha    90.0002
_cell_angle_beta     91.2063
_cell_angle_gamma    120.209

_symmetry_Int_Tables_number  8
_chemical_formula_structural  V2Cr3Sb3O16
_chemical_formula_sum  V2Cr3Sb3O6
_cell_volume  283.1014826574468
_cell_formula_units_Z  1
loop_
  _symmetry_equiv_pos_site_id
 _symmetry_equiv_pos_as_xyz
 1  'x, y, z'
loop_
 _atom_site_type_symbol
 _atom_site_label
 _atom_site_symmetry_multiplicity
 _atom_site_fract_x
 _atom_site_fract_y
 _atom_site_fract_z
 _atom_site_fract_occupancy
 Cr  Cr1  1  0.17185  0.83521  0.20590  1
 Cr  Cr2  1  0.17185  0.33666  0.20591  1
 Cr  Cr3  1  0.34091  0.17046  0.70722  1
 O  O1  1  0.52483  0.47135  0.83960  1
 O  O2  1  0.16671  0.82923  0.60049  1
 O  O3  1  0.05438  0.52720  0.33335  1
 O  O4  1  0.32872  0.66436  0.09650  1
 O  O5  1  0.96317  0.48159  0.84912  1
 O  O6  1  0.01497  0.00749  0.82316  1
 O  O7  1  0.16671  0.33750  0.60049  1
 O  O8  1  0.01192  0.00597  0.31112  1
 O  O9  1  0.46995  0.52071  0.34491  1
 O  O10  1  0.34796  0.17399  0.10329  1
 O  O11  1  0.82662  0.17334  0.09889  1
 O  O12  1  0.46994  0.94925  0.34491  1
 O  O13  1  0.52483  0.05349  0.83960  1
 O  O14  1  0.66476  0.33238  0.59121  1
 O  O15  1  0.82662  0.65330  0.09888  1
 O  O16  1  0.66235  0.83119  0.59992  1
 Sb  Sb1  1  0.83793  0.17101  0.71296  1
 Sb  Sb2  1  0.83793  0.66693  0.71296  1
 Sb  Sb3  1  0.66603  0.83303  0.21156  1
 V  V1  1  0.64633  0.32317  0.00386  1
 V  V2  1  0.30274  0.65138  0.47989  1
