CIF file written using JARVIS-Tools package.
data_MgFeGe
_symmetry_space_group_name_H-M  'P4/nmm'
_cell_length_a       3.92952
_cell_length_b       3.92952
_cell_length_c       6.09259
_cell_angle_alpha    90
_cell_angle_beta     90
_cell_angle_gamma    90

_symmetry_Int_Tables_number  129
_chemical_formula_structural  MgFeGe
_chemical_formula_sum  Mg2Fe2Ge2
_cell_volume  94.07652815908638
_cell_formula_units_Z  2
loop_
  _symmetry_equiv_pos_site_id
 _symmetry_equiv_pos_as_xyz
 1  'x, y, z'
loop_
 _atom_site_type_symbol
 _atom_site_label
 _atom_site_symmetry_multiplicity
 _atom_site_fract_x
 _atom_site_fract_y
 _atom_site_fract_z
 _atom_site_fract_occupancy
 Fe  Fe1  1  0.75000  0.25000  0.50000  1
 Fe  Fe2  1  0.25000  0.75000  0.50000  1
 Ge  Ge1  1  0.25000  0.25000  0.27535  1
 Ge  Ge2  1  0.75000  0.75000  0.72465  1
 Mg  Mg1  1  0.25000  0.25000  0.81913  1
 Mg  Mg2  1  0.75000  0.75000  0.18087  1
