CIF file written using JARVIS-Tools package.
data_CdHg3
_symmetry_space_group_name_H-M  'P6_3/mmc'
_cell_length_a       6.75263
_cell_length_b       6.75263
_cell_length_c       5.32796
_cell_angle_alpha    90
_cell_angle_beta     90
_cell_angle_gamma    120

_symmetry_Int_Tables_number  194
_chemical_formula_structural  CdHg3
_chemical_formula_sum  Cd2Hg6
_cell_volume  210.39602758004733
_cell_formula_units_Z  2
loop_
  _symmetry_equiv_pos_site_id
 _symmetry_equiv_pos_as_xyz
 1  'x, y, z'
loop_
 _atom_site_type_symbol
 _atom_site_label
 _atom_site_symmetry_multiplicity
 _atom_site_fract_x
 _atom_site_fract_y
 _atom_site_fract_z
 _atom_site_fract_occupancy
 Cd  Cd1  1  0.33333  0.66667  0.75000  1
 Cd  Cd2  1  0.66667  0.33333  0.25000  1
 Hg  Hg1  1  0.16826  0.33652  0.25000  1
 Hg  Hg2  1  0.66348  0.83174  0.25000  1
 Hg  Hg3  1  0.16826  0.83174  0.25000  1
 Hg  Hg4  1  0.83174  0.66348  0.75000  1
 Hg  Hg5  1  0.33652  0.16826  0.75000  1
 Hg  Hg6  1  0.83174  0.16826  0.75000  1
