CIF file written using JARVIS-Tools package.
data_PrGa3Pt
_symmetry_space_group_name_H-M  'I-4m2'
_cell_length_a       6.15587
_cell_length_b       6.15587
_cell_length_c       6.15587
_cell_angle_alpha    139.502
_cell_angle_beta     139.502
_cell_angle_gamma    58.6097

_symmetry_Int_Tables_number  119
_chemical_formula_structural  PrGa3Pt
_chemical_formula_sum  PrGa3Pt
_cell_volume  97.46680377226859
_cell_formula_units_Z  1
loop_
  _symmetry_equiv_pos_site_id
 _symmetry_equiv_pos_as_xyz
 1  'x, y, z'
loop_
 _atom_site_type_symbol
 _atom_site_label
 _atom_site_symmetry_multiplicity
 _atom_site_fract_x
 _atom_site_fract_y
 _atom_site_fract_z
 _atom_site_fract_occupancy
 Ga  Ga1  1  0.61592  0.61592  -0.00000  1
 Ga  Ga2  1  0.38408  0.38408  0.00000  1
 Ga  Ga3  1  0.75000  0.25000  0.50000  1
 Pr  Pr1  1  0.00000  0.00000  0.00000  1
 Pt  Pt1  1  0.25000  0.75000  0.50000  1
