CIF file written using JARVIS-Tools package.
data_Ac2Mg
_symmetry_space_group_name_H-M  'Cmcm'
_cell_length_a       9.5115
_cell_length_b       9.5115
_cell_length_c       6.05065
_cell_angle_alpha    90
_cell_angle_beta     90
_cell_angle_gamma    155.049

_symmetry_Int_Tables_number  63
_chemical_formula_structural  Ac2Mg
_chemical_formula_sum  Ac4Mg2
_cell_volume  230.91672054273636
_cell_formula_units_Z  2
loop_
  _symmetry_equiv_pos_site_id
 _symmetry_equiv_pos_as_xyz
 1  'x, y, z'
loop_
 _atom_site_type_symbol
 _atom_site_label
 _atom_site_symmetry_multiplicity
 _atom_site_fract_x
 _atom_site_fract_y
 _atom_site_fract_z
 _atom_site_fract_occupancy
 Ac  Ac1  1  0.22706  0.77294  0.25000  1
 Ac  Ac2  1  0.91620  0.08380  0.25000  1
 Ac  Ac3  1  0.77294  0.22706  0.75000  1
 Ac  Ac4  1  0.08380  0.91620  0.75000  1
 Mg  Mg1  1  0.57099  0.42901  0.25000  1
 Mg  Mg2  1  0.42901  0.57099  0.75000  1
