CIF file written using JARVIS-Tools package.
data_LiMnTe2
_symmetry_space_group_name_H-M  'P3m1'
_cell_length_a       4.20002
_cell_length_b       4.20002
_cell_length_c       7.22576
_cell_angle_alpha    90
_cell_angle_beta     90
_cell_angle_gamma    120

_symmetry_Int_Tables_number  156
_chemical_formula_structural  LiMnTe2
_chemical_formula_sum  LiMnTe2
_cell_volume  110.38672635645231
_cell_formula_units_Z  1
loop_
  _symmetry_equiv_pos_site_id
 _symmetry_equiv_pos_as_xyz
 1  'x, y, z'
loop_
 _atom_site_type_symbol
 _atom_site_label
 _atom_site_symmetry_multiplicity
 _atom_site_fract_x
 _atom_site_fract_y
 _atom_site_fract_z
 _atom_site_fract_occupancy
 Li  Li1  1  0.66667  0.33333  0.20024  1
 Mn  Mn1  1  0.00000  0.00000  0.65377  1
 Te  Te1  1  0.00000  0.00000  0.00417  1
 Te  Te2  1  0.33333  0.66667  0.48912  1
