CIF file written using JARVIS-Tools package.
data_Pr2Mg
_symmetry_space_group_name_H-M  'C2/m'
_cell_length_a       7.21345
_cell_length_b       7.21345
_cell_length_c       7.55782
_cell_angle_alpha    74.8213
_cell_angle_beta     74.8213
_cell_angle_gamma    30.3699

_symmetry_Int_Tables_number  12
_chemical_formula_structural  Pr2Mg
_chemical_formula_sum  Pr4Mg2
_cell_volume  191.3681276946924
_cell_formula_units_Z  2
loop_
  _symmetry_equiv_pos_site_id
 _symmetry_equiv_pos_as_xyz
 1  'x, y, z'
loop_
 _atom_site_type_symbol
 _atom_site_label
 _atom_site_symmetry_multiplicity
 _atom_site_fract_x
 _atom_site_fract_y
 _atom_site_fract_z
 _atom_site_fract_occupancy
 Mg  Mg1  1  0.49989  0.49989  0.75048  1
 Mg  Mg2  1  0.50011  0.50011  0.24952  1
 Pr  Pr1  1  0.84292  0.84292  0.57838  1
 Pr  Pr2  1  0.15708  0.15708  0.42162  1
 Pr  Pr3  1  0.84259  0.84259  0.07885  1
 Pr  Pr4  1  0.15741  0.15741  0.92115  1
