CIF file written using JARVIS-Tools package.
data_InGa3N4
_symmetry_space_group_name_H-M  'P3m1'
_cell_length_a       3.29503
_cell_length_b       3.29503
_cell_length_c       10.8268
_cell_angle_alpha    90
_cell_angle_beta     90
_cell_angle_gamma    120

_symmetry_Int_Tables_number  156
_chemical_formula_structural  InGa3N4
_chemical_formula_sum  InGa3N4
_cell_volume  101.79982603019678
_cell_formula_units_Z  1
loop_
  _symmetry_equiv_pos_site_id
 _symmetry_equiv_pos_as_xyz
 1  'x, y, z'
loop_
 _atom_site_type_symbol
 _atom_site_label
 _atom_site_symmetry_multiplicity
 _atom_site_fract_x
 _atom_site_fract_y
 _atom_site_fract_z
 _atom_site_fract_occupancy
 Ga  Ga1  1  0.33333  0.66667  0.25911  1
 Ga  Ga2  1  0.33333  0.66667  0.73793  1
 Ga  Ga3  1  0.66667  0.33333  0.49838  1
 In  In1  1  0.66667  0.33333  0.99809  1
 N  N1  1  0.33333  0.66667  0.07985  1
 N  N2  1  0.33333  0.66667  0.55621  1
 N  N3  1  0.66667  0.33333  0.31675  1
 N  N4  1  0.66667  0.33333  0.79549  1
