CIF file written using JARVIS-Tools package.
data_Cr4Cu3Se8
_symmetry_space_group_name_H-M  'Imm2'
_cell_length_a       7.47478
_cell_length_b       7.46954
_cell_length_c       7.47477
_cell_angle_alpha    60.0231
_cell_angle_beta     60.0474
_cell_angle_gamma    60.0231

_symmetry_Int_Tables_number  44
_chemical_formula_structural  Cr4Cu3Se8
_chemical_formula_sum  Cr4Cu3Se8
_cell_volume  295.3123495024081
_cell_formula_units_Z  1
loop_
  _symmetry_equiv_pos_site_id
 _symmetry_equiv_pos_as_xyz
 1  'x, y, z'
loop_
 _atom_site_type_symbol
 _atom_site_label
 _atom_site_symmetry_multiplicity
 _atom_site_fract_x
 _atom_site_fract_y
 _atom_site_fract_z
 _atom_site_fract_occupancy
 Cr  Cr1  1  0.49453  0.99622  0.49453  1
 Cr  Cr2  1  0.49453  0.51473  0.49453  1
 Cr  Cr3  1  0.48155  0.51047  -0.00250  1
 Cr  Cr4  1  -0.00250  0.51047  0.48155  1
 Cu  Cu1  1  0.13807  0.11193  0.13807  1
 Cu  Cu2  1  0.90406  0.34594  0.90406  1
 Cu  Cu3  1  0.86911  0.88089  0.86911  1
 Se  Se1  1  0.25731  0.26170  0.25731  1
 Se  Se2  1  0.28329  0.24707  0.72256  1
 Se  Se3  1  0.25731  0.72368  0.25731  1
 Se  Se4  1  0.72256  0.24707  0.28329  1
 Se  Se5  1  0.26674  0.74731  0.73865  1
 Se  Se6  1  0.73865  0.74731  0.26674  1
 Se  Se7  1  0.73740  0.27761  0.73740  1
 Se  Se8  1  0.73740  0.74759  0.73740  1
