CIF file written using JARVIS-Tools package.
data_NaTmS2
_symmetry_space_group_name_H-M  'R-3m'
_cell_length_a       6.97145
_cell_length_b       6.97144
_cell_length_c       6.97144
_cell_angle_alpha    32.5968
_cell_angle_beta     32.5968
_cell_angle_gamma    32.5968

_symmetry_Int_Tables_number  166
_chemical_formula_structural  NaTmS2
_chemical_formula_sum  NaTmS2
_cell_volume  87.45146579597184
_cell_formula_units_Z  1
loop_
  _symmetry_equiv_pos_site_id
 _symmetry_equiv_pos_as_xyz
 1  'x, y, z'
loop_
 _atom_site_type_symbol
 _atom_site_label
 _atom_site_symmetry_multiplicity
 _atom_site_fract_x
 _atom_site_fract_y
 _atom_site_fract_z
 _atom_site_fract_occupancy
 Na  Na1  1  0.50000  0.50000  0.50000  1
 S  S1  1  0.25776  0.25776  0.25776  1
 S  S2  1  0.74224  0.74224  0.74224  1
 Tm  Tm1  1  0.00000  0.00000  0.00000  1
