CIF file written using JARVIS-Tools package.
data_YbBiO3
_symmetry_space_group_name_H-M  'R3c'
_cell_length_a       6.09362
_cell_length_b       6.09363
_cell_length_c       6.09363
_cell_angle_alpha    57.1036
_cell_angle_beta     57.1036
_cell_angle_gamma    57.1037

_symmetry_Int_Tables_number  161
_chemical_formula_structural  YbBiO3
_chemical_formula_sum  Yb2Bi2O6
_cell_volume  149.3178284567878
_cell_formula_units_Z  2
loop_
  _symmetry_equiv_pos_site_id
 _symmetry_equiv_pos_as_xyz
 1  'x, y, z'
loop_
 _atom_site_type_symbol
 _atom_site_label
 _atom_site_symmetry_multiplicity
 _atom_site_fract_x
 _atom_site_fract_y
 _atom_site_fract_z
 _atom_site_fract_occupancy
 Bi  Bi1  1  0.98875  0.98875  0.98875  1
 Bi  Bi2  1  0.48875  0.48875  0.48875  1
 O  O1  1  0.18882  0.60451  0.86592  1
 O  O2  1  0.10451  0.68882  0.36592  1
 O  O3  1  0.36592  0.10451  0.68882  1
 O  O4  1  0.86592  0.18882  0.60451  1
 O  O5  1  0.60451  0.86592  0.18882  1
 O  O6  1  0.68882  0.36592  0.10451  1
 Yb  Yb1  1  0.77359  0.77359  0.77359  1
 Yb  Yb2  1  0.27359  0.27359  0.27359  1
