CIF file written using JARVIS-Tools package.
data_TbSmO3
_symmetry_space_group_name_H-M  'Pnma'
_cell_length_a       5.77555
_cell_length_b       6.04811
_cell_length_c       8.51823
_cell_angle_alpha    90
_cell_angle_beta     90
_cell_angle_gamma    90

_symmetry_Int_Tables_number  62
_chemical_formula_structural  TbSmO3
_chemical_formula_sum  Tb4Sm4O2
_cell_volume  297.5515341798204
_cell_formula_units_Z  4
loop_
  _symmetry_equiv_pos_site_id
 _symmetry_equiv_pos_as_xyz
 1  'x, y, z'
loop_
 _atom_site_type_symbol
 _atom_site_label
 _atom_site_symmetry_multiplicity
 _atom_site_fract_x
 _atom_site_fract_y
 _atom_site_fract_z
 _atom_site_fract_occupancy
 O  O1  1  0.31334  0.69013  0.57827  1
 O  O2  1  0.64702  0.07516  0.75000  1
 O  O3  1  0.81334  0.80987  0.42173  1
 O  O4  1  0.18666  0.19013  0.92173  1
 O  O5  1  0.68666  0.30987  0.42173  1
 O  O6  1  0.18666  0.19013  0.57827  1
 O  O7  1  0.14702  0.42484  0.25000  1
 O  O8  1  0.85298  0.57516  0.75000  1
 O  O9  1  0.31334  0.69013  0.92173  1
 O  O10  1  0.35298  0.92484  0.25000  1
 O  O11  1  0.81334  0.80987  0.07827  1
 O  O12  1  0.68666  0.30987  0.07827  1
 Sm  Sm1  1  0.01998  0.94541  0.75000  1
 Sm  Sm2  1  0.51998  0.55459  0.25000  1
 Sm  Sm3  1  0.48002  0.44541  0.75000  1
 Sm  Sm4  1  0.98002  0.05459  0.25000  1
 Tb  Tb1  1  0.00000  0.50000  0.50000  1
 Tb  Tb2  1  0.00000  0.50000  0.00000  1
 Tb  Tb3  1  0.50000  0.00000  0.50000  1
 Tb  Tb4  1  0.50000  0.00000  0.00000  1
