CIF file written using JARVIS-Tools package.
data_W2N3
_symmetry_space_group_name_H-M  'Cm'
_cell_length_a       5.00755
_cell_length_b       5.00755
_cell_length_c       5.37146
_cell_angle_alpha    80.8989
_cell_angle_beta     80.8988
_cell_angle_gamma    119.682

_symmetry_Int_Tables_number  8
_chemical_formula_structural  W2N3
_chemical_formula_sum  W4N6
_cell_volume  111.06800713493385
_cell_formula_units_Z  2
loop_
  _symmetry_equiv_pos_site_id
 _symmetry_equiv_pos_as_xyz
 1  'x, y, z'
loop_
 _atom_site_type_symbol
 _atom_site_label
 _atom_site_symmetry_multiplicity
 _atom_site_fract_x
 _atom_site_fract_y
 _atom_site_fract_z
 _atom_site_fract_occupancy
 N  N1  1  0.09285  0.09285  0.74974  1
 N  N2  1  0.41153  0.74648  0.74713  1
 N  N3  1  0.74648  0.41153  0.74713  1
 N  N4  1  0.26357  0.58028  0.25073  1
 N  N5  1  0.90409  0.90409  0.25315  1
 N  N6  1  0.58028  0.26357  0.25073  1
 W  W1  1  0.33061  0.99355  0.00895  1
 W  W2  1  0.67742  0.67742  0.98390  1
 W  W3  1  0.99355  0.33061  0.00895  1
 W  W4  1  0.49229  0.49229  0.52159  1
