CIF file written using JARVIS-Tools package.
data_Cr2F5
_symmetry_space_group_name_H-M  'C2/c'
_cell_length_a       5.14219
_cell_length_b       5.1422
_cell_length_c       7.2314
_cell_angle_alpha    68.33
_cell_angle_beta     68.3299
_cell_angle_gamma    91.6701

_symmetry_Int_Tables_number  15
_chemical_formula_structural  Cr2F5
_chemical_formula_sum  Cr4F0
_cell_volume  162.0806887566337
_cell_formula_units_Z  2
loop_
  _symmetry_equiv_pos_site_id
 _symmetry_equiv_pos_as_xyz
 1  'x, y, z'
loop_
 _atom_site_type_symbol
 _atom_site_label
 _atom_site_symmetry_multiplicity
 _atom_site_fract_x
 _atom_site_fract_y
 _atom_site_fract_z
 _atom_site_fract_occupancy
 Cr  Cr1  1  0.00000  0.00000  0.50000  1
 Cr  Cr2  1  0.50000  0.50000  0.00000  1
 Cr  Cr3  1  0.50000  0.50000  0.50000  1
 Cr  Cr4  1  0.00000  0.00000  0.00000  1
 F  F1  1  0.68871  0.18563  0.54718  1
 F  F2  1  0.31437  0.81129  0.95282  1
 F  F3  1  0.31129  0.81437  0.45282  1
 F  F4  1  0.68563  0.18871  0.04718  1
 F  F5  1  0.16139  0.33861  0.75000  1
 F  F6  1  0.83861  0.66139  0.25000  1
 F  F7  1  0.87288  0.82040  0.84128  1
 F  F8  1  0.67960  0.62712  0.65872  1
 F  F9  1  0.12712  0.17960  0.15872  1
 F  F10  1  0.32040  0.37288  0.34128  1
