CIF file written using JARVIS-Tools package.
data_Li5CuF6
_symmetry_space_group_name_H-M  'C2/m'
_cell_length_a       5.07745
_cell_length_b       5.07745
_cell_length_c       5.09564
_cell_angle_alpha    79.6779
_cell_angle_beta     100.322
_cell_angle_gamma    60.5567

_symmetry_Int_Tables_number  12
_chemical_formula_structural  Li5CuF6
_chemical_formula_sum  Li5CuF6
_cell_volume  106.93294473813205
_cell_formula_units_Z  1
loop_
  _symmetry_equiv_pos_site_id
 _symmetry_equiv_pos_as_xyz
 1  'x, y, z'
loop_
 _atom_site_type_symbol
 _atom_site_label
 _atom_site_symmetry_multiplicity
 _atom_site_fract_x
 _atom_site_fract_y
 _atom_site_fract_z
 _atom_site_fract_occupancy
 Cu  Cu1  1  0.00000  0.00000  0.00000  1
 F  F1  1  0.08489  0.55798  0.25431  1
 F  F2  1  0.55798  0.08489  0.74569  1
 F  F3  1  0.26885  0.73115  0.72705  1
 F  F4  1  0.73115  0.26885  0.27295  1
 F  F5  1  0.44202  0.91511  0.25431  1
 F  F6  1  0.91511  0.44202  0.74569  1
 Li  Li1  1  0.16588  0.16588  0.50000  1
 Li  Li2  1  0.33306  0.33306  0.00000  1
 Li  Li3  1  0.50000  0.50000  0.50000  1
 Li  Li4  1  0.66694  0.66694  -0.00000  1
 Li  Li5  1  0.83412  0.83412  0.50000  1
