CIF file written using JARVIS-Tools package.
data_Sr2Fe2Se2OF2
_symmetry_space_group_name_H-M  'I4/mmm'
_cell_length_a       4.06651
_cell_length_b       4.06651
_cell_length_c       9.81789
_cell_angle_alpha    101.953
_cell_angle_beta     101.952
_cell_angle_gamma    90

_symmetry_Int_Tables_number  139
_chemical_formula_structural  Sr2Fe2Se2OF2
_chemical_formula_sum  Sr2Fe2Se2OF2
_cell_volume  155.23363472079572
_cell_formula_units_Z  1
loop_
  _symmetry_equiv_pos_site_id
 _symmetry_equiv_pos_as_xyz
 1  'x, y, z'
loop_
 _atom_site_type_symbol
 _atom_site_label
 _atom_site_symmetry_multiplicity
 _atom_site_fract_x
 _atom_site_fract_y
 _atom_site_fract_z
 _atom_site_fract_occupancy
 F  F1  1  0.75000  0.25000  0.50000  1
 F  F2  1  0.25000  0.75000  0.50000  1
 Fe  Fe1  1  1.00000  0.50000  1.00000  1
 Fe  Fe2  1  0.50000  0.00000  0.00000  1
 O  O1  1  0.50000  0.50000  -0.00000  1
 Se  Se1  1  0.90357  0.90358  0.80714  1
 Se  Se2  1  0.09643  0.09642  0.19286  1
 Sr  Sr1  1  0.67366  0.67365  0.34732  1
 Sr  Sr2  1  0.32634  0.32635  0.65268  1
