CIF file written using JARVIS-Tools package.
data_ZnSnP2
_symmetry_space_group_name_H-M  'I-42d'
_cell_length_a       5.70821
_cell_length_b       5.70821
_cell_length_c       7.00324
_cell_angle_alpha    114.05
_cell_angle_beta     114.05
_cell_angle_gamma    90

_symmetry_Int_Tables_number  122
_chemical_formula_structural  ZnSnP2
_chemical_formula_sum  Zn2Sn2P4
_cell_volume  186.4786128638924
_cell_formula_units_Z  2
loop_
  _symmetry_equiv_pos_site_id
 _symmetry_equiv_pos_as_xyz
 1  'x, y, z'
loop_
 _atom_site_type_symbol
 _atom_site_label
 _atom_site_symmetry_multiplicity
 _atom_site_fract_x
 _atom_site_fract_y
 _atom_site_fract_z
 _atom_site_fract_occupancy
 P  P1  1  0.35240  0.37500  0.25000  1
 P  P2  1  0.12500  0.64760  0.75000  1
 P  P3  1  0.62500  0.10240  0.75000  1
 P  P4  1  0.89760  0.87500  0.25000  1
 Sn  Sn1  1  0.75000  0.25000  0.50000  1
 Sn  Sn2  1  0.50000  0.50000  0.00000  1
 Zn  Zn1  1  0.25000  0.75000  0.50000  1
 Zn  Zn2  1  0.00000  0.00000  0.00000  1
