CIF file written using JARVIS-Tools package.
data_SmDyO3
_symmetry_space_group_name_H-M  'Pnma'
_cell_length_a       5.75599
_cell_length_b       6.03044
_cell_length_c       8.47163
_cell_angle_alpha    90
_cell_angle_beta     90
_cell_angle_gamma    90

_symmetry_Int_Tables_number  62
_chemical_formula_structural  SmDyO3
_chemical_formula_sum  Sm4Dy4O2
_cell_volume  294.0600438776037
_cell_formula_units_Z  4
loop_
  _symmetry_equiv_pos_site_id
 _symmetry_equiv_pos_as_xyz
 1  'x, y, z'
loop_
 _atom_site_type_symbol
 _atom_site_label
 _atom_site_symmetry_multiplicity
 _atom_site_fract_x
 _atom_site_fract_y
 _atom_site_fract_z
 _atom_site_fract_occupancy
 Dy  Dy1  1  0.50000  0.00000  0.00000  1
 Dy  Dy2  1  0.50000  0.00000  0.50000  1
 Dy  Dy3  1  0.00000  0.50000  0.00000  1
 Dy  Dy4  1  0.00000  0.50000  0.50000  1
 O  O1  1  0.31285  0.69062  0.57698  1
 O  O2  1  0.64490  0.07272  0.75000  1
 O  O3  1  0.81285  0.80938  0.42302  1
 O  O4  1  0.18715  0.19062  0.92302  1
 O  O5  1  0.68715  0.30938  0.42302  1
 O  O6  1  0.18715  0.19062  0.57698  1
 O  O7  1  0.14490  0.42728  0.25000  1
 O  O8  1  0.35510  0.92728  0.25000  1
 O  O9  1  0.31285  0.69062  0.92302  1
 O  O10  1  0.68715  0.30938  0.07698  1
 O  O11  1  0.81285  0.80938  0.07698  1
 O  O12  1  0.85510  0.57272  0.75000  1
 Sm  Sm1  1  0.01990  0.94471  0.75000  1
 Sm  Sm2  1  0.51990  0.55529  0.25000  1
 Sm  Sm3  1  0.48010  0.44471  0.75000  1
 Sm  Sm4  1  0.98010  0.05529  0.25000  1
