CIF file written using JARVIS-Tools package.
data_CaTi2S4
_symmetry_space_group_name_H-M  'P2/m'
_cell_length_a       3.55873
_cell_length_b       5.98031
_cell_length_c       6.85439
_cell_angle_alpha    72.7225
_cell_angle_beta     90
_cell_angle_gamma    90

_symmetry_Int_Tables_number  10
_chemical_formula_structural  CaTi2S4
_chemical_formula_sum  CaTi2S4
_cell_volume  139.29489333999302
_cell_formula_units_Z  1
loop_
  _symmetry_equiv_pos_site_id
 _symmetry_equiv_pos_as_xyz
 1  'x, y, z'
loop_
 _atom_site_type_symbol
 _atom_site_label
 _atom_site_symmetry_multiplicity
 _atom_site_fract_x
 _atom_site_fract_y
 _atom_site_fract_z
 _atom_site_fract_occupancy
 Ca  Ca1  1  0.00000  0.50000  0.50000  1
 S  S1  1  0.50000  0.76551  0.22102  1
 S  S2  1  0.00000  0.25730  0.21686  1
 S  S3  1  0.50000  0.23449  0.77898  1
 S  S4  1  0.00000  0.74270  0.78314  1
 Ti  Ti1  1  0.00000  0.00000  0.00000  1
 Ti  Ti2  1  0.50000  0.50000  -0.00000  1
