CIF file written using JARVIS-Tools package.
data_K2PdF4
_symmetry_space_group_name_H-M  'C2/m'
_cell_length_a       4.2844
_cell_length_b       5.60409
_cell_length_c       5.60409
_cell_angle_alpha    64.1535
_cell_angle_beta     89.2755
_cell_angle_gamma    89.2755

_symmetry_Int_Tables_number  12
_chemical_formula_structural  K2PdF4
_chemical_formula_sum  K2PdF4
_cell_volume  121.08119195433102
_cell_formula_units_Z  1
loop_
  _symmetry_equiv_pos_site_id
 _symmetry_equiv_pos_as_xyz
 1  'x, y, z'
loop_
 _atom_site_type_symbol
 _atom_site_label
 _atom_site_symmetry_multiplicity
 _atom_site_fract_x
 _atom_site_fract_y
 _atom_site_fract_z
 _atom_site_fract_occupancy
 F  F1  1  0.77858  0.86846  0.34805  1
 F  F2  1  0.22142  0.65195  0.13154  1
 F  F3  1  0.22142  0.13154  0.65195  1
 F  F4  1  0.77858  0.34805  0.86846  1
 K  K1  1  0.28041  0.65237  0.65237  1
 K  K2  1  0.71959  0.34763  0.34763  1
 Pd  Pd1  1  0.00000  0.00000  0.00000  1
