CIF file written using JARVIS-Tools package.
data_Li2Fe3SbO8
_symmetry_space_group_name_H-M  'P6_3mc'
_cell_length_a       5.70619
_cell_length_b       5.70595
_cell_length_c       9.58829
_cell_angle_alpha    90.0009
_cell_angle_beta     90.0002
_cell_angle_gamma    119.998

_symmetry_Int_Tables_number  186
_chemical_formula_structural  Li2Fe3SbO8
_chemical_formula_sum  Li4Fe6Sb2O6
_cell_volume  270.3670166887943
_cell_formula_units_Z  2
loop_
  _symmetry_equiv_pos_site_id
 _symmetry_equiv_pos_as_xyz
 1  'x, y, z'
loop_
 _atom_site_type_symbol
 _atom_site_label
 _atom_site_symmetry_multiplicity
 _atom_site_fract_x
 _atom_site_fract_y
 _atom_site_fract_z
 _atom_site_fract_occupancy
 Fe  Fe1  1  0.17381  0.82619  0.21564  1
 Fe  Fe2  1  0.65231  0.82619  0.21565  1
 Fe  Fe3  1  0.17381  0.34769  0.21565  1
 Fe  Fe4  1  0.82619  0.17383  0.71565  1
 Fe  Fe5  1  0.82619  0.65233  0.71565  1
 Fe  Fe6  1  0.34769  0.17383  0.71564  1
 Li  Li1  1  0.33334  0.66668  0.89922  1
 Li  Li2  1  0.00002  -0.00001  0.49225  1
 Li  Li3  1  -0.00003  0.00004  0.99225  1
 Li  Li4  1  0.66666  0.33335  0.39922  1
 O  O1  1  0.03069  0.51538  0.33677  1
 O  O2  1  0.15838  0.84163  0.60041  1
 O  O3  1  0.96931  0.48464  0.83678  1
 O  O4  1  0.33331  0.66668  0.10507  1
 O  O5  1  -0.00002  0.00002  0.30526  1
 O  O6  1  0.00004  0.00000  0.80527  1
 O  O7  1  0.15838  0.31672  0.60040  1
 O  O8  1  0.48464  0.51536  0.33676  1
 O  O9  1  0.84161  0.68330  0.10039  1
 O  O10  1  0.51537  0.48467  0.83676  1
 O  O11  1  0.51539  0.03071  0.83677  1
 O  O12  1  0.66668  0.33333  0.60507  1
 O  O13  1  0.48462  0.96931  0.33677  1
 O  O14  1  0.31670  0.15839  0.10039  1
 O  O15  1  0.68330  0.84164  0.60039  1
 O  O16  1  0.84160  0.15839  0.10041  1
 Sb  Sb1  1  0.66665  0.33335  0.99366  1
 Sb  Sb2  1  0.33334  0.66667  0.49366  1
