CIF file written using JARVIS-Tools package.
data_Er2Fe3Cu
_symmetry_space_group_name_H-M  'R-3m'
_cell_length_a       5.17978
_cell_length_b       5.17978
_cell_length_c       5.17978
_cell_angle_alpha    57.7574
_cell_angle_beta     57.7575
_cell_angle_gamma    57.7575

_symmetry_Int_Tables_number  166
_chemical_formula_structural  Er2Fe3Cu
_chemical_formula_sum  Er2Fe3Cu
_cell_volume  93.20809278730866
_cell_formula_units_Z  1
loop_
  _symmetry_equiv_pos_site_id
 _symmetry_equiv_pos_as_xyz
 1  'x, y, z'
loop_
 _atom_site_type_symbol
 _atom_site_label
 _atom_site_symmetry_multiplicity
 _atom_site_fract_x
 _atom_site_fract_y
 _atom_site_fract_z
 _atom_site_fract_occupancy
 Cu  Cu1  1  0.50000  0.50000  0.50000  1
 Er  Er1  1  0.12198  0.12198  0.12198  1
 Er  Er2  1  0.87802  0.87802  0.87802  1
 Fe  Fe1  1  0.50000  -0.00000  0.50000  1
 Fe  Fe2  1  0.00000  0.50000  0.50000  1
 Fe  Fe3  1  0.50000  0.50000  0.00000  1
