CIF file written using JARVIS-Tools package.
data_SbSI
_symmetry_space_group_name_H-M  'Pmmn'
_cell_length_a       3.79995
_cell_length_b       6.05632
_cell_length_c       17.2116
_cell_angle_alpha    90
_cell_angle_beta     90
_cell_angle_gamma    90

_symmetry_Int_Tables_number  59
_chemical_formula_structural  SbSI
_chemical_formula_sum  Sb4S4I4
_cell_volume  396.10270866558864
_cell_formula_units_Z  4
loop_
  _symmetry_equiv_pos_site_id
 _symmetry_equiv_pos_as_xyz
 1  'x, y, z'
loop_
 _atom_site_type_symbol
 _atom_site_label
 _atom_site_symmetry_multiplicity
 _atom_site_fract_x
 _atom_site_fract_y
 _atom_site_fract_z
 _atom_site_fract_occupancy
 I  I1  1  0.25001  0.50033  0.17493  1
 I  I2  1  0.75001  0.99967  0.82507  1
 I  I3  1  0.74999  0.00033  0.32507  1
 I  I4  1  0.24999  0.49967  0.67493  1
 S  S1  1  0.74976  0.00031  0.04668  1
 S  S2  1  0.24976  0.49969  0.95332  1
 S  S3  1  0.75024  0.99969  0.54668  1
 S  S4  1  0.25024  0.50031  0.45332  1
 Sb  Sb1  1  0.75025  0.50033  0.35821  1
 Sb  Sb2  1  0.24975  0.00033  0.14179  1
 Sb  Sb3  1  0.25025  -0.00033  0.64179  1
 Sb  Sb4  1  0.74975  0.49967  0.85821  1
