CIF file written using JARVIS-Tools package.
data_Cr2AgS4
_symmetry_space_group_name_H-M  'C2/m'
_cell_length_a       7.06033
_cell_length_b       7.06034
_cell_length_c       5.91852
_cell_angle_alpha    66.0469
_cell_angle_beta     66.0469
_cell_angle_gamma    28.4883

_symmetry_Int_Tables_number  12
_chemical_formula_structural  Cr2AgS4
_chemical_formula_sum  Cr2AgS4
_cell_volume  127.7827831098302
_cell_formula_units_Z  1
loop_
  _symmetry_equiv_pos_site_id
 _symmetry_equiv_pos_as_xyz
 1  'x, y, z'
loop_
 _atom_site_type_symbol
 _atom_site_label
 _atom_site_symmetry_multiplicity
 _atom_site_fract_x
 _atom_site_fract_y
 _atom_site_fract_z
 _atom_site_fract_occupancy
 Ag  Ag1  1  0.50000  0.50000  0.50000  1
 Cr  Cr1  1  0.75758  0.75758  0.22519  1
 Cr  Cr2  1  0.24242  0.24242  0.77481  1
 S  S1  1  0.36342  0.36342  0.97390  1
 S  S2  1  0.63658  0.63658  0.02610  1
 S  S3  1  0.84912  0.84912  0.48934  1
 S  S4  1  0.15088  0.15088  0.51066  1
