CIF file written using JARVIS-Tools package.
data_V3NiO6
_symmetry_space_group_name_H-M  'R3'
_cell_length_a       5.47247
_cell_length_b       5.47246
_cell_length_c       5.47247
_cell_angle_alpha    53.6995
_cell_angle_beta     53.6995
_cell_angle_gamma    53.6995

_symmetry_Int_Tables_number  146
_chemical_formula_structural  V3NiO6
_chemical_formula_sum  V3NiO6
_cell_volume  98.81405846010816
_cell_formula_units_Z  1
loop_
  _symmetry_equiv_pos_site_id
 _symmetry_equiv_pos_as_xyz
 1  'x, y, z'
loop_
 _atom_site_type_symbol
 _atom_site_label
 _atom_site_symmetry_multiplicity
 _atom_site_fract_x
 _atom_site_fract_y
 _atom_site_fract_z
 _atom_site_fract_occupancy
 Ni  Ni1  1  0.14580  0.14580  0.14580  1
 O  O1  1  0.93141  0.58196  0.24955  1
 O  O2  1  0.24955  0.93141  0.58196  1
 O  O3  1  0.58196  0.24955  0.93141  1
 O  O4  1  0.73023  0.06650  0.45175  1
 O  O5  1  0.45175  0.73023  0.06650  1
 O  O6  1  0.06650  0.45175  0.73023  1
 V  V1  1  0.64998  0.64998  0.64998  1
 V  V2  1  0.84584  0.84584  0.84584  1
 V  V3  1  0.34697  0.34697  0.34697  1
