CIF file written using JARVIS-Tools package.
data_LiCoPO4
_symmetry_space_group_name_H-M  'R-3'
_cell_length_a       5.01733
_cell_length_b       8.17195
_cell_length_c       5.01732
_cell_angle_alpha    107.878
_cell_angle_beta     60
_cell_angle_gamma    107.878

_symmetry_Int_Tables_number  148
_chemical_formula_structural  LiCoPO4
_chemical_formula_sum  Li2Co2P2O8
_cell_volume  166.5878026297617
_cell_formula_units_Z  2
loop_
  _symmetry_equiv_pos_site_id
 _symmetry_equiv_pos_as_xyz
 1  'x, y, z'
loop_
 _atom_site_type_symbol
 _atom_site_label
 _atom_site_symmetry_multiplicity
 _atom_site_fract_x
 _atom_site_fract_y
 _atom_site_fract_z
 _atom_site_fract_occupancy
 Co  Co1  1  0.01773  0.05320  0.01773  1
 Co  Co2  1  0.55777  0.67331  0.55777  1
 Li  Li1  1  0.15001  0.45003  0.15001  1
 Li  Li2  1  0.42552  0.27656  0.42552  1
 O  O1  1  0.14860  0.54071  0.56159  1
 O  O2  1  0.01392  0.18579  0.74496  1
 O  O3  1  0.42691  0.18579  0.01392  1
 O  O4  1  0.63965  0.91896  0.63965  1
 O  O5  1  0.83052  0.54071  0.14860  1
 O  O6  1  0.56159  0.54071  0.83052  1
 O  O7  1  0.74496  0.18579  0.42691  1
 O  O8  1  0.93585  0.80754  0.93585  1
 P  P1  1  0.86938  0.60813  0.86938  1
 P  P2  1  0.70612  0.11837  0.70612  1
