CIF file written using JARVIS-Tools package.
data_Th2PNO
_symmetry_space_group_name_H-M  'P3m1'
_cell_length_a       4.04021
_cell_length_b       4.0402
_cell_length_c       6.88475
_cell_angle_alpha    90
_cell_angle_beta     90
_cell_angle_gamma    120

_symmetry_Int_Tables_number  156
_chemical_formula_structural  Th2PNO
_chemical_formula_sum  Th2PNO
_cell_volume  97.32536134260715
_cell_formula_units_Z  1
loop_
  _symmetry_equiv_pos_site_id
 _symmetry_equiv_pos_as_xyz
 1  'x, y, z'
loop_
 _atom_site_type_symbol
 _atom_site_label
 _atom_site_symmetry_multiplicity
 _atom_site_fract_x
 _atom_site_fract_y
 _atom_site_fract_z
 _atom_site_fract_occupancy
 N  N1  1  0.33333  0.66667  0.62141  1
 O  O1  1  0.66667  0.33333  0.36885  1
 P  P1  1  0.00000  0.00000  0.00894  1
 Th  Th1  1  0.33333  0.66667  0.27695  1
 Th  Th2  1  0.66667  0.33333  0.72385  1
