CIF file written using JARVIS-Tools package.
data_In3GaN4
_symmetry_space_group_name_H-M  'P3m1'
_cell_length_a       3.48181
_cell_length_b       3.48182
_cell_length_c       11.3664
_cell_angle_alpha    90
_cell_angle_beta     90
_cell_angle_gamma    120

_symmetry_Int_Tables_number  156
_chemical_formula_structural  In3GaN4
_chemical_formula_sum  In3GaN4
_cell_volume  119.33450928948292
_cell_formula_units_Z  1
loop_
  _symmetry_equiv_pos_site_id
 _symmetry_equiv_pos_as_xyz
 1  'x, y, z'
loop_
 _atom_site_type_symbol
 _atom_site_label
 _atom_site_symmetry_multiplicity
 _atom_site_fract_x
 _atom_site_fract_y
 _atom_site_fract_z
 _atom_site_fract_occupancy
 Ga  Ga1  1  0.66667  0.33333  0.24657  1
 In  In1  1  0.66667  0.33333  0.74931  1
 In  In2  1  0.00000  0.00000  0.00851  1
 In  In3  1  0.00000  0.00000  0.48990  1
 N  N1  1  0.66667  0.33333  0.07511  1
 N  N2  1  0.66667  0.33333  0.55796  1
 N  N3  1  0.00000  0.00000  0.29630  1
 N  N4  1  0.00000  0.00000  0.81714  1
