CIF file written using JARVIS-Tools package.
data_UGeSe
_symmetry_space_group_name_H-M  'I4/mmm'
_cell_length_a       3.95789
_cell_length_b       3.95788
_cell_length_c       8.81451
_cell_angle_alpha    102.974
_cell_angle_beta     102.974
_cell_angle_gamma    89.9999

_symmetry_Int_Tables_number  139
_chemical_formula_structural  UGeSe
_chemical_formula_sum  U2Ge2Se2
_cell_volume  130.9336361098079
_cell_formula_units_Z  2
loop_
  _symmetry_equiv_pos_site_id
 _symmetry_equiv_pos_as_xyz
 1  'x, y, z'
loop_
 _atom_site_type_symbol
 _atom_site_label
 _atom_site_symmetry_multiplicity
 _atom_site_fract_x
 _atom_site_fract_y
 _atom_site_fract_z
 _atom_site_fract_occupancy
 Ge  Ge1  1  -0.00000  0.50000  -0.00000  1
 Ge  Ge2  1  0.50000  -0.00000  0.00000  1
 Se  Se1  1  0.31549  0.31549  0.63099  1
 Se  Se2  1  0.68451  0.68451  0.36901  1
 U  U1  1  0.86499  0.86499  0.72998  1
 U  U2  1  0.13501  0.13501  0.27002  1
