CIF file written using JARVIS-Tools package.
data_HoBiTe3
_symmetry_space_group_name_H-M  'R3m'
_cell_length_a       10.7536
_cell_length_b       10.7536
_cell_length_c       10.7536
_cell_angle_alpha    23.5042
_cell_angle_beta     23.5041
_cell_angle_gamma    23.5041

_symmetry_Int_Tables_number  160
_chemical_formula_structural  HoBiTe3
_chemical_formula_sum  HoBiTe3
_cell_volume  173.69286335998822
_cell_formula_units_Z  1
loop_
  _symmetry_equiv_pos_site_id
 _symmetry_equiv_pos_as_xyz
 1  'x, y, z'
loop_
 _atom_site_type_symbol
 _atom_site_label
 _atom_site_symmetry_multiplicity
 _atom_site_fract_x
 _atom_site_fract_y
 _atom_site_fract_z
 _atom_site_fract_occupancy
 Bi  Bi1  1  0.60059  0.60059  0.60059  1
 Ho  Ho1  1  0.39872  0.39872  0.39872  1
 Te  Te1  1  0.78340  0.78340  0.78340  1
 Te  Te2  1  0.21250  0.21250  0.21250  1
 Te  Te3  1  0.00479  0.00479  0.00479  1
