CIF file written using JARVIS-Tools package.
data_MgCdC2O6
_symmetry_space_group_name_H-M  'R-3'
_cell_length_a       5.88212
_cell_length_b       5.88212
_cell_length_c       5.88211
_cell_angle_alpha    48.5295
_cell_angle_beta     48.5295
_cell_angle_gamma    48.5295

_symmetry_Int_Tables_number  148
_chemical_formula_structural  MgCdC2O6
_chemical_formula_sum  MgCdC2O6
_cell_volume  104.80382254892442
_cell_formula_units_Z  1
loop_
  _symmetry_equiv_pos_site_id
 _symmetry_equiv_pos_as_xyz
 1  'x, y, z'
loop_
 _atom_site_type_symbol
 _atom_site_label
 _atom_site_symmetry_multiplicity
 _atom_site_fract_x
 _atom_site_fract_y
 _atom_site_fract_z
 _atom_site_fract_occupancy
 C  C1  1  0.24473  0.24473  0.24473  1
 C  C2  1  0.75527  0.75527  0.75527  1
 Cd  Cd1  1  0.00000  0.00000  0.00000  1
 Mg  Mg1  1  0.50000  0.50000  0.50000  1
 O  O1  1  0.96353  0.27502  0.49673  1
 O  O2  1  0.27502  0.49673  0.96353  1
 O  O3  1  0.49673  0.96353  0.27502  1
 O  O4  1  0.03647  0.72498  0.50327  1
 O  O5  1  0.72498  0.50327  0.03647  1
 O  O6  1  0.50327  0.03647  0.72498  1
