CIF file written using JARVIS-Tools package.
data_BaCd3Ga
_symmetry_space_group_name_H-M  'I4mm'
_cell_length_a       6.79115
_cell_length_b       6.79115
_cell_length_c       6.79115
_cell_angle_alpha    138.527
_cell_angle_beta     138.527
_cell_angle_gamma    60.0973

_symmetry_Int_Tables_number  107
_chemical_formula_structural  BaCd3Ga
_chemical_formula_sum  BaCd3Ga
_cell_volume  135.95432306012424
_cell_formula_units_Z  1
loop_
  _symmetry_equiv_pos_site_id
 _symmetry_equiv_pos_as_xyz
 1  'x, y, z'
loop_
 _atom_site_type_symbol
 _atom_site_label
 _atom_site_symmetry_multiplicity
 _atom_site_fract_x
 _atom_site_fract_y
 _atom_site_fract_z
 _atom_site_fract_occupancy
 Ba  Ba1  1  0.00347  0.00347  0.00000  1
 Cd  Cd1  1  0.74399  0.24399  0.50000  1
 Cd  Cd2  1  0.24399  0.74399  0.50000  1
 Cd  Cd3  1  0.38833  0.38833  -0.00000  1
 Ga  Ga1  1  0.62023  0.62023  0.00000  1
