CIF file written using JARVIS-Tools package.
data_SnRh
_symmetry_space_group_name_H-M  'P2_13'
_cell_length_a       5.21091
_cell_length_b       5.21091
_cell_length_c       5.21091
_cell_angle_alpha    90
_cell_angle_beta     90
_cell_angle_gamma    90

_symmetry_Int_Tables_number  198
_chemical_formula_structural  SnRh
_chemical_formula_sum  Sn4Rh4
_cell_volume  141.49465466657423
_cell_formula_units_Z  4
loop_
  _symmetry_equiv_pos_site_id
 _symmetry_equiv_pos_as_xyz
 1  'x, y, z'
loop_
 _atom_site_type_symbol
 _atom_site_label
 _atom_site_symmetry_multiplicity
 _atom_site_fract_x
 _atom_site_fract_y
 _atom_site_fract_z
 _atom_site_fract_occupancy
 Rh  Rh1  1  0.14339  0.14339  0.14339  1
 Rh  Rh2  1  0.35661  0.85661  0.64339  1
 Rh  Rh3  1  0.64339  0.35661  0.85661  1
 Rh  Rh4  1  0.85661  0.64339  0.35661  1
 Sn  Sn1  1  0.83928  0.83928  0.83928  1
 Sn  Sn2  1  0.66072  0.16072  0.33928  1
 Sn  Sn3  1  0.33928  0.66072  0.16072  1
 Sn  Sn4  1  0.16072  0.33928  0.66072  1
