CIF file written using JARVIS-Tools package.
data_Li2Ti2FeO6
_symmetry_space_group_name_H-M  'Cmce'
_cell_length_a       5.00093
_cell_length_b       5.00092
_cell_length_c       10.2415
_cell_angle_alpha    90
_cell_angle_beta     90
_cell_angle_gamma    120.715

_symmetry_Int_Tables_number  64
_chemical_formula_structural  Li2Ti2FeO6
_chemical_formula_sum  Li4Ti4Fe2O2
_cell_volume  220.20346281978522
_cell_formula_units_Z  2
loop_
  _symmetry_equiv_pos_site_id
 _symmetry_equiv_pos_as_xyz
 1  'x, y, z'
loop_
 _atom_site_type_symbol
 _atom_site_label
 _atom_site_symmetry_multiplicity
 _atom_site_fract_x
 _atom_site_fract_y
 _atom_site_fract_z
 _atom_site_fract_occupancy
 Fe  Fe1  1  0.00000  0.00000  0.00000  1
 Fe  Fe2  1  0.50000  0.50000  0.50000  1
 Li  Li1  1  0.15201  0.65201  0.75000  1
 Li  Li2  1  0.34799  0.84799  0.25000  1
 Li  Li3  1  0.65201  0.15201  0.75000  1
 Li  Li4  1  0.84799  0.34799  0.25000  1
 O  O1  1  0.83740  0.49362  0.60926  1
 O  O2  1  0.99362  0.33740  0.89074  1
 O  O3  1  0.16260  0.50638  0.39074  1
 O  O4  1  0.49362  0.83740  0.60926  1
 O  O5  1  0.00638  0.66260  0.10926  1
 O  O6  1  0.33507  0.33507  0.10560  1
 O  O7  1  0.66493  0.66493  0.89440  1
 O  O8  1  0.50638  0.16260  0.39074  1
 O  O9  1  0.83507  0.83507  0.39440  1
 O  O10  1  0.16493  0.16493  0.60560  1
 O  O11  1  0.33740  0.99362  0.89074  1
 O  O12  1  0.66260  0.00638  0.10926  1
 Ti  Ti1  1  0.83987  0.16013  0.50000  1
 Ti  Ti2  1  0.66013  0.33987  0.00000  1
 Ti  Ti3  1  0.33987  0.66013  0.00000  1
 Ti  Ti4  1  0.16013  0.83987  0.50000  1
