CIF file written using JARVIS-Tools package.
data_Ta3Mo3N4
_symmetry_space_group_name_H-M  'P4mm'
_cell_length_a       3.04975
_cell_length_b       3.04975
_cell_length_c       12.6636
_cell_angle_alpha    90
_cell_angle_beta     90
_cell_angle_gamma    90

_symmetry_Int_Tables_number  99
_chemical_formula_structural  Ta3Mo3N4
_chemical_formula_sum  Ta3Mo3N4
_cell_volume  117.7831052597091
_cell_formula_units_Z  1
loop_
  _symmetry_equiv_pos_site_id
 _symmetry_equiv_pos_as_xyz
 1  'x, y, z'
loop_
 _atom_site_type_symbol
 _atom_site_label
 _atom_site_symmetry_multiplicity
 _atom_site_fract_x
 _atom_site_fract_y
 _atom_site_fract_z
 _atom_site_fract_occupancy
 Mo  Mo1  1  0.00000  0.00000  0.00438  1
 Mo  Mo2  1  0.50000  0.50000  0.49946  1
 Mo  Mo3  1  0.50000  0.50000  0.14727  1
 N  N1  1  0.50000  0.50000  0.32300  1
 N  N2  1  0.00000  0.00000  0.82618  1
 N  N3  1  0.00000  0.00000  0.17330  1
 N  N4  1  0.50000  0.50000  0.67589  1
 Ta  Ta1  1  0.00000  0.00000  0.64592  1
 Ta  Ta2  1  0.00000  0.00000  0.35175  1
 Ta  Ta3  1  0.50000  0.50000  0.85285  1
