CIF file written using JARVIS-Tools package.
data_CeSi2RuRh
_symmetry_space_group_name_H-M  'I-4m2'
_cell_length_a       5.75864
_cell_length_b       5.75864
_cell_length_c       5.75864
_cell_angle_alpha    137.716
_cell_angle_beta     137.716
_cell_angle_gamma    61.3375

_symmetry_Int_Tables_number  119
_chemical_formula_structural  CeSi2RuRh
_chemical_formula_sum  CeSi2RuRh
_cell_volume  85.47132560972622
_cell_formula_units_Z  1
loop_
  _symmetry_equiv_pos_site_id
 _symmetry_equiv_pos_as_xyz
 1  'x, y, z'
loop_
 _atom_site_type_symbol
 _atom_site_label
 _atom_site_symmetry_multiplicity
 _atom_site_fract_x
 _atom_site_fract_y
 _atom_site_fract_z
 _atom_site_fract_occupancy
 Ce  Ce1  1  0.00000  0.00000  0.00000  1
 Rh  Rh1  1  0.25000  0.75000  0.50000  1
 Ru  Ru1  1  0.75000  0.25000  0.50000  1
 Si  Si1  1  0.62728  0.62728  0.00000  1
 Si  Si2  1  0.37272  0.37272  1.00000  1
