CIF file written using JARVIS-Tools package.
data_Li2VO2F2
_symmetry_space_group_name_H-M  'P2/c'
_cell_length_a       5.0374
_cell_length_b       5.74573
_cell_length_c       5.04897
_cell_angle_alpha    90
_cell_angle_beta     110.977
_cell_angle_gamma    90

_symmetry_Int_Tables_number  13
_chemical_formula_structural  Li2VO2F2
_chemical_formula_sum  Li4V2O4F4
_cell_volume  136.44968168418097
_cell_formula_units_Z  2
loop_
  _symmetry_equiv_pos_site_id
 _symmetry_equiv_pos_as_xyz
 1  'x, y, z'
loop_
 _atom_site_type_symbol
 _atom_site_label
 _atom_site_symmetry_multiplicity
 _atom_site_fract_x
 _atom_site_fract_y
 _atom_site_fract_z
 _atom_site_fract_occupancy
 F  F1  1  0.02317  0.64469  0.73293  1
 F  F2  1  0.52317  0.35531  0.73293  1
 F  F3  1  0.47683  0.64469  0.26707  1
 F  F4  1  0.97683  0.35531  0.26707  1
 Li  Li1  1  0.25000  0.14322  0.50000  1
 Li  Li2  1  0.25000  0.60469  0.50000  1
 Li  Li3  1  0.75000  0.39531  0.50000  1
 Li  Li4  1  0.75000  0.85678  0.50000  1
 O  O1  1  0.01070  0.89406  0.22984  1
 O  O2  1  0.48930  0.89406  0.77016  1
 O  O3  1  0.51070  0.10594  0.22984  1
 O  O4  1  0.98930  0.10594  0.77016  1
 V  V1  1  0.25000  0.90360  0.00000  1
 V  V2  1  0.75000  0.09640  -0.00000  1
