CIF file written using JARVIS-Tools package.
data_MgBi3
_symmetry_space_group_name_H-M  'P6_3/mmc'
_cell_length_a       7.02897
_cell_length_b       7.02897
_cell_length_c       5.59779
_cell_angle_alpha    90
_cell_angle_beta     90
_cell_angle_gamma    120

_symmetry_Int_Tables_number  194
_chemical_formula_structural  MgBi3
_chemical_formula_sum  Mg2Bi6
_cell_volume  239.51425596651305
_cell_formula_units_Z  2
loop_
  _symmetry_equiv_pos_site_id
 _symmetry_equiv_pos_as_xyz
 1  'x, y, z'
loop_
 _atom_site_type_symbol
 _atom_site_label
 _atom_site_symmetry_multiplicity
 _atom_site_fract_x
 _atom_site_fract_y
 _atom_site_fract_z
 _atom_site_fract_occupancy
 Bi  Bi1  1  0.17418  0.34836  0.25000  1
 Bi  Bi2  1  0.17418  0.82582  0.25000  1
 Bi  Bi3  1  0.65164  0.82582  0.25000  1
 Bi  Bi4  1  0.34836  0.17418  0.75000  1
 Bi  Bi5  1  0.82582  0.17418  0.75000  1
 Bi  Bi6  1  0.82582  0.65164  0.75000  1
 Mg  Mg1  1  0.66667  0.33333  0.25000  1
 Mg  Mg2  1  0.33333  0.66667  0.75000  1
