CIF file written using JARVIS-Tools package.
data_ZnFeF6
_symmetry_space_group_name_H-M  'R-3'
_cell_length_a       5.33905
_cell_length_b       5.33905
_cell_length_c       5.33905
_cell_angle_alpha    55.664
_cell_angle_beta     55.664
_cell_angle_gamma    55.664

_symmetry_Int_Tables_number  148
_chemical_formula_structural  ZnFeF6
_chemical_formula_sum  ZnFeF6
_cell_volume  96.78984483069837
_cell_formula_units_Z  1
loop_
  _symmetry_equiv_pos_site_id
 _symmetry_equiv_pos_as_xyz
 1  'x, y, z'
loop_
 _atom_site_type_symbol
 _atom_site_label
 _atom_site_symmetry_multiplicity
 _atom_site_fract_x
 _atom_site_fract_y
 _atom_site_fract_z
 _atom_site_fract_occupancy
 F  F1  1  0.37022  0.10579  0.76341  1
 F  F2  1  0.10579  0.76341  0.37022  1
 F  F3  1  0.23659  0.62978  0.89421  1
 F  F4  1  0.89421  0.23659  0.62978  1
 F  F5  1  0.62978  0.89421  0.23659  1
 F  F6  1  0.76341  0.37022  0.10579  1
 Fe  Fe1  1  0.00000  0.00000  0.00000  1
 Zn  Zn1  1  0.50000  0.50000  0.50000  1
