CIF file written using JARVIS-Tools package.
data_Rb2Mg
_symmetry_space_group_name_H-M  'C2/m'
_cell_length_a       9.68518
_cell_length_b       9.68518
_cell_length_c       8.91199
_cell_angle_alpha    75.025
_cell_angle_beta     75.025
_cell_angle_gamma    26.5734

_symmetry_Int_Tables_number  12
_chemical_formula_structural  Rb2Mg
_chemical_formula_sum  Rb4Mg2
_cell_volume  360.5448713164643
_cell_formula_units_Z  2
loop_
  _symmetry_equiv_pos_site_id
 _symmetry_equiv_pos_as_xyz
 1  'x, y, z'
loop_
 _atom_site_type_symbol
 _atom_site_label
 _atom_site_symmetry_multiplicity
 _atom_site_fract_x
 _atom_site_fract_y
 _atom_site_fract_z
 _atom_site_fract_occupancy
 Mg  Mg1  1  0.49709  0.49709  0.82201  1
 Mg  Mg2  1  0.50291  0.50291  0.17799  1
 Rb  Rb1  1  0.88005  0.88005  0.56524  1
 Rb  Rb2  1  0.11995  0.11995  0.43476  1
 Rb  Rb3  1  0.84112  0.84112  0.09870  1
 Rb  Rb4  1  0.15888  0.15888  0.90130  1
