CIF file written using JARVIS-Tools package.
data_ErScB2O6
_symmetry_space_group_name_H-M  'R-3'
_cell_length_a       5.9761
_cell_length_b       5.9761
_cell_length_c       5.9761
_cell_angle_alpha    48.2096
_cell_angle_beta     48.2096
_cell_angle_gamma    48.2096

_symmetry_Int_Tables_number  148
_chemical_formula_structural  ErScB2O6
_chemical_formula_sum  ErScB2O6
_cell_volume  108.7451296871278
_cell_formula_units_Z  1
loop_
  _symmetry_equiv_pos_site_id
 _symmetry_equiv_pos_as_xyz
 1  'x, y, z'
loop_
 _atom_site_type_symbol
 _atom_site_label
 _atom_site_symmetry_multiplicity
 _atom_site_fract_x
 _atom_site_fract_y
 _atom_site_fract_z
 _atom_site_fract_occupancy
 B  B1  1  0.24586  0.24586  0.24586  1
 B  B2  1  0.75414  0.75414  0.75414  1
 Er  Er1  1  0.00000  0.00000  0.00000  1
 O  O1  1  0.52262  0.95575  0.26273  1
 O  O2  1  0.26273  0.52262  0.95575  1
 O  O3  1  0.95575  0.26273  0.52262  1
 O  O4  1  0.73727  0.47738  0.04425  1
 O  O5  1  0.04425  0.73727  0.47738  1
 O  O6  1  0.47738  0.04425  0.73727  1
 Sc  Sc1  1  0.50000  0.50000  0.50000  1
