CIF file written using JARVIS-Tools package.
data_NaFeAs
_symmetry_space_group_name_H-M  'P4/nmm'
_cell_length_a       3.92089
_cell_length_b       3.92089
_cell_length_c       6.80634
_cell_angle_alpha    90
_cell_angle_beta     90
_cell_angle_gamma    90

_symmetry_Int_Tables_number  129
_chemical_formula_structural  NaFeAs
_chemical_formula_sum  Na2Fe2As2
_cell_volume  104.6364825589088
_cell_formula_units_Z  2
loop_
  _symmetry_equiv_pos_site_id
 _symmetry_equiv_pos_as_xyz
 1  'x, y, z'
loop_
 _atom_site_type_symbol
 _atom_site_label
 _atom_site_symmetry_multiplicity
 _atom_site_fract_x
 _atom_site_fract_y
 _atom_site_fract_z
 _atom_site_fract_occupancy
 As  As1  1  0.25000  0.25000  0.30997  1
 As  As2  1  0.75000  0.75000  0.69003  1
 Fe  Fe1  1  0.75000  0.25000  0.50000  1
 Fe  Fe2  1  0.25000  0.75000  0.50000  1
 Na  Na1  1  0.25000  0.25000  0.84865  1
 Na  Na2  1  0.75000  0.75000  0.15135  1
