CIF file written using JARVIS-Tools package.
data_PrIn2Ir
_symmetry_space_group_name_H-M  'Cmcm'
_cell_length_a       5.6973
_cell_length_b       5.69729
_cell_length_c       8.08068
_cell_angle_alpha    90
_cell_angle_beta     90
_cell_angle_gamma    134.613

_symmetry_Int_Tables_number  63
_chemical_formula_structural  PrIn2Ir
_chemical_formula_sum  Pr2In4Ir2
_cell_volume  186.71643805898597
_cell_formula_units_Z  2
loop_
  _symmetry_equiv_pos_site_id
 _symmetry_equiv_pos_as_xyz
 1  'x, y, z'
loop_
 _atom_site_type_symbol
 _atom_site_label
 _atom_site_symmetry_multiplicity
 _atom_site_fract_x
 _atom_site_fract_y
 _atom_site_fract_z
 _atom_site_fract_occupancy
 In  In1  1  0.85563  0.14437  0.05083  1
 In  In2  1  0.14437  0.85563  0.94917  1
 In  In3  1  0.14437  0.85563  0.55083  1
 In  In4  1  0.85563  0.14437  0.44917  1
 Ir  Ir1  1  0.28033  0.71967  0.25000  1
 Ir  Ir2  1  0.71967  0.28033  0.75000  1
 Pr  Pr1  1  0.56966  0.43034  0.25000  1
 Pr  Pr2  1  0.43034  0.56966  0.75000  1
