CIF file written using JARVIS-Tools package.
data_TlIn2GaTe4
_symmetry_space_group_name_H-M  'I222'
_cell_length_a       7.00525
_cell_length_b       7.00525
_cell_length_c       7.00524
_cell_angle_alpha    119.121
_cell_angle_beta     105.061
_cell_angle_gamma    104.685

_symmetry_Int_Tables_number  23
_chemical_formula_structural  TlIn2GaTe4
_chemical_formula_sum  TlIn2GaTe4
_cell_volume  258.92034299667
_cell_formula_units_Z  1
loop_
  _symmetry_equiv_pos_site_id
 _symmetry_equiv_pos_as_xyz
 1  'x, y, z'
loop_
 _atom_site_type_symbol
 _atom_site_label
 _atom_site_symmetry_multiplicity
 _atom_site_fract_x
 _atom_site_fract_y
 _atom_site_fract_z
 _atom_site_fract_occupancy
 Ga  Ga1  1  0.50000  -0.00000  0.50000  1
 In  In1  1  0.50000  0.50000  -0.00000  1
 In  In2  1  0.00000  0.00000  0.00000  1
 Te  Te1  1  0.85289  0.40907  0.90997  1
 Te  Te2  1  0.14711  0.05709  0.55618  1
 Te  Te3  1  0.49909  0.94291  0.09003  1
 Te  Te4  1  0.50091  0.59093  0.44382  1
 Tl  Tl1  1  -0.00000  0.50000  0.50000  1
