CIF file written using JARVIS-Tools package.
data_SrCaI4
_symmetry_space_group_name_H-M  'P2/m'
_cell_length_a       4.60002
_cell_length_b       6.96432
_cell_length_c       8.00858
_cell_angle_alpha    89.808
_cell_angle_beta     90
_cell_angle_gamma    90

_symmetry_Int_Tables_number  10
_chemical_formula_structural  SrCaI4
_chemical_formula_sum  SrCaI4
_cell_volume  256.56170199307155
_cell_formula_units_Z  1
loop_
  _symmetry_equiv_pos_site_id
 _symmetry_equiv_pos_as_xyz
 1  'x, y, z'
loop_
 _atom_site_type_symbol
 _atom_site_label
 _atom_site_symmetry_multiplicity
 _atom_site_fract_x
 _atom_site_fract_y
 _atom_site_fract_z
 _atom_site_fract_occupancy
 Ca  Ca1  1  0.50000  0.00000  0.50000  1
 I  I1  1  0.00000  0.25401  0.65497  1
 I  I2  1  0.50000  0.26314  0.17886  1
 I  I3  1  0.50000  0.73686  0.82114  1
 I  I4  1  0.00000  0.74599  0.34503  1
 Sr  Sr1  1  0.00000  0.00000  0.00000  1
