CIF file written using JARVIS-Tools package.
data_LiAgF4
_symmetry_space_group_name_H-M  'C2/m'
_cell_length_a       4.6369
_cell_length_b       4.63689
_cell_length_c       3.52563
_cell_angle_alpha    83.9845
_cell_angle_beta     83.9845
_cell_angle_gamma    87.1189

_symmetry_Int_Tables_number  12
_chemical_formula_structural  LiAgF4
_chemical_formula_sum  LiAgF4
_cell_volume  74.91230408994964
_cell_formula_units_Z  1
loop_
  _symmetry_equiv_pos_site_id
 _symmetry_equiv_pos_as_xyz
 1  'x, y, z'
loop_
 _atom_site_type_symbol
 _atom_site_label
 _atom_site_symmetry_multiplicity
 _atom_site_fract_x
 _atom_site_fract_y
 _atom_site_fract_z
 _atom_site_fract_occupancy
 Ag  Ag1  1  0.50000  0.50000  0.50000  1
 F  F1  1  0.71020  0.71020  0.05651  1
 F  F2  1  0.19507  0.80493  0.50000  1
 F  F3  1  0.80493  0.19507  0.50000  1
 F  F4  1  0.28980  0.28980  0.94349  1
 Li  Li1  1  0.00000  0.00000  0.00000  1
