CIF file written using JARVIS-Tools package.
data_MgNi
_symmetry_space_group_name_H-M  'P4/mmm'
_cell_length_a       3.05593
_cell_length_b       4.24331
_cell_length_c       4.24367
_cell_angle_alpha    90
_cell_angle_beta     90
_cell_angle_gamma    90

_symmetry_Int_Tables_number  123
_chemical_formula_structural  MgNi
_chemical_formula_sum  Mg2Ni2
_cell_volume  55.02868701465057
_cell_formula_units_Z  2
loop_
  _symmetry_equiv_pos_site_id
 _symmetry_equiv_pos_as_xyz
 1  'x, y, z'
loop_
 _atom_site_type_symbol
 _atom_site_label
 _atom_site_symmetry_multiplicity
 _atom_site_fract_x
 _atom_site_fract_y
 _atom_site_fract_z
 _atom_site_fract_occupancy
 Mg  Mg1  1  0.00000  0.25006  0.25000  1
 Mg  Mg2  1  0.00000  0.74994  0.75000  1
 Ni  Ni1  1  0.50000  0.24994  0.75000  1
 Ni  Ni2  1  0.50000  0.75006  0.25000  1
