CIF file written using JARVIS-Tools package.
data_Nb2Tc
_symmetry_space_group_name_H-M  'Fmmm'
_cell_length_a       7.15228
_cell_length_b       6.9539
_cell_length_c       2.83329
_cell_angle_alpha    82.3743
_cell_angle_beta     74.5073
_cell_angle_gamma    23.1186

_symmetry_Int_Tables_number  69
_chemical_formula_structural  Nb2Tc
_chemical_formula_sum  Nb2Tc
_cell_volume  50.88679217750557
_cell_formula_units_Z  1
loop_
  _symmetry_equiv_pos_site_id
 _symmetry_equiv_pos_as_xyz
 1  'x, y, z'
loop_
 _atom_site_type_symbol
 _atom_site_label
 _atom_site_symmetry_multiplicity
 _atom_site_fract_x
 _atom_site_fract_y
 _atom_site_fract_z
 _atom_site_fract_occupancy
 Nb  Nb1  1  0.33900  0.33900  0.66100  1
 Nb  Nb2  1  0.66100  0.66100  0.33900  1
 Tc  Tc1  1  0.00000  0.00000  0.00000  1
