CIF file written using JARVIS-Tools package.
data_Tm2MgNi2
_symmetry_space_group_name_H-M  'P4/mbm'
_cell_length_a       7.26687
_cell_length_b       7.26687
_cell_length_c       3.63134
_cell_angle_alpha    90
_cell_angle_beta     90
_cell_angle_gamma    90

_symmetry_Int_Tables_number  127
_chemical_formula_structural  Tm2MgNi2
_chemical_formula_sum  Tm4Mg2Ni4
_cell_volume  191.76163669718792
_cell_formula_units_Z  2
loop_
  _symmetry_equiv_pos_site_id
 _symmetry_equiv_pos_as_xyz
 1  'x, y, z'
loop_
 _atom_site_type_symbol
 _atom_site_label
 _atom_site_symmetry_multiplicity
 _atom_site_fract_x
 _atom_site_fract_y
 _atom_site_fract_z
 _atom_site_fract_occupancy
 Mg  Mg1  1  0.00000  0.00000  0.00000  1
 Mg  Mg2  1  0.50000  0.50000  0.00000  1
 Ni  Ni1  1  0.12513  0.62513  0.00000  1
 Ni  Ni2  1  0.87487  0.37487  0.00000  1
 Ni  Ni3  1  0.62513  0.87487  0.00000  1
 Ni  Ni4  1  0.37487  0.12513  0.00000  1
 Tm  Tm1  1  0.66908  0.16908  0.50000  1
 Tm  Tm2  1  0.33092  0.83092  0.50000  1
 Tm  Tm3  1  0.16908  0.33092  0.50000  1
 Tm  Tm4  1  0.83092  0.66908  0.50000  1
