CIF file written using JARVIS-Tools package.
data_DySi2Ag2
_symmetry_space_group_name_H-M  'I4/mmm'
_cell_length_a       6.12774
_cell_length_b       6.12774
_cell_length_c       6.12774
_cell_angle_alpha    140.331
_cell_angle_beta     140.331
_cell_angle_gamma    57.3517

_symmetry_Int_Tables_number  139
_chemical_formula_structural  DySi2Ag2
_chemical_formula_sum  DySi2Ag2
_cell_volume  92.96552512411503
_cell_formula_units_Z  1
loop_
  _symmetry_equiv_pos_site_id
 _symmetry_equiv_pos_as_xyz
 1  'x, y, z'
loop_
 _atom_site_type_symbol
 _atom_site_label
 _atom_site_symmetry_multiplicity
 _atom_site_fract_x
 _atom_site_fract_y
 _atom_site_fract_z
 _atom_site_fract_occupancy
 Ag  Ag1  1  0.75000  0.25000  0.50000  1
 Ag  Ag2  1  0.25000  0.75000  0.50000  1
 Dy  Dy1  1  0.00000  0.00000  0.00000  1
 Si  Si1  1  0.39328  0.39328  -0.00000  1
 Si  Si2  1  0.60672  0.60672  0.00000  1
