CIF file written using JARVIS-Tools package.
data_TaB2Mo3C2
_symmetry_space_group_name_H-M  'Amm2'
_cell_length_a       8.92211
_cell_length_b       8.92211
_cell_length_c       3.1015
_cell_angle_alpha    90
_cell_angle_beta     90
_cell_angle_gamma    159.765

_symmetry_Int_Tables_number  38
_chemical_formula_structural  TaB2Mo3C2
_chemical_formula_sum  TaB2Mo3C2
_cell_volume  85.39264514351358
_cell_formula_units_Z  1
loop_
  _symmetry_equiv_pos_site_id
 _symmetry_equiv_pos_as_xyz
 1  'x, y, z'
loop_
 _atom_site_type_symbol
 _atom_site_label
 _atom_site_symmetry_multiplicity
 _atom_site_fract_x
 _atom_site_fract_y
 _atom_site_fract_z
 _atom_site_fract_occupancy
 B  B1  1  0.47115  0.52885  0.50000  1
 B  B2  1  0.52862  0.47138  0.00000  1
 C  C1  1  0.19035  0.80965  0.50000  1
 C  C2  1  0.80778  0.19222  0.00000  1
 Mo  Mo1  1  0.68303  0.31697  0.00000  1
 Mo  Mo2  1  0.07223  0.92777  0.50000  1
 Mo  Mo3  1  0.93109  0.06891  0.00000  1
 Ta  Ta1  1  0.31574  0.68426  0.50000  1
