CIF file written using JARVIS-Tools package.
data_AgN3O4
_symmetry_space_group_name_H-M  'Pbca'
_cell_length_a       5.7379
_cell_length_b       9.48918
_cell_length_c       14.0863
_cell_angle_alpha    90
_cell_angle_beta     90
_cell_angle_gamma    90

_symmetry_Int_Tables_number  61
_chemical_formula_structural  AgN3O4
_chemical_formula_sum  Ag8N24O32
_cell_volume  766.9727196862622
_cell_formula_units_Z  8
loop_
  _symmetry_equiv_pos_site_id
 _symmetry_equiv_pos_as_xyz
 1  'x, y, z'
loop_
 _atom_site_type_symbol
 _atom_site_label
 _atom_site_symmetry_multiplicity
 _atom_site_fract_x
 _atom_site_fract_y
 _atom_site_fract_z
 _atom_site_fract_occupancy
 Ag  Ag1  1  0.07126  0.40957  0.63616  1
 Ag  Ag2  1  0.92874  0.90957  0.86384  1
 Ag  Ag3  1  0.57126  0.09043  0.36384  1
 Ag  Ag4  1  0.57126  0.40957  0.86384  1
 Ag  Ag5  1  0.07126  0.09043  0.13616  1
 Ag  Ag6  1  0.42874  0.59043  0.13616  1
 Ag  Ag7  1  0.92874  0.59043  0.36384  1
 Ag  Ag8  1  0.42874  0.90957  0.63616  1
 N  N1  1  0.42625  0.41115  0.30363  1
 N  N2  1  0.42625  0.08885  0.80363  1
 N  N3  1  0.07375  0.91115  0.30363  1
 N  N4  1  0.35097  0.35115  0.46051  1
 N  N5  1  0.91273  0.19190  0.62983  1
 N  N6  1  0.92625  0.08885  0.69637  1
 N  N7  1  0.41273  0.30810  0.37017  1
 N  N8  1  0.58727  0.80810  0.12983  1
 N  N9  1  0.35097  0.14885  0.96051  1
 N  N10  1  0.07375  0.58885  0.80363  1
 N  N11  1  0.85097  0.14885  0.53949  1
 N  N12  1  0.64903  0.85115  0.03949  1
 N  N13  1  0.91273  0.30810  0.12983  1
 N  N14  1  0.14903  0.64885  0.96051  1
 N  N15  1  0.14903  0.85115  0.46051  1
 N  N16  1  0.08727  0.69190  0.87017  1
 N  N17  1  0.64903  0.64885  0.53949  1
 N  N18  1  0.92625  0.41115  0.19637  1
 N  N19  1  0.57375  0.91115  0.19637  1
 N  N20  1  0.57375  0.58885  0.69637  1
 N  N21  1  0.41273  0.19190  0.87017  1
 N  N22  1  0.85097  0.35115  0.03949  1
 N  N23  1  0.58727  0.69190  0.62983  1
 N  N24  1  0.08727  0.80810  0.37017  1
 O  O1  1  0.04026  0.46166  0.82289  1
 O  O2  1  0.11190  0.76159  0.52291  1
 O  O3  1  0.95974  0.96166  0.67711  1
 O  O4  1  0.45974  0.53834  0.32289  1
 O  O5  1  0.74699  0.46498  0.02374  1
 O  O6  1  0.04026  0.03834  0.32289  1
 O  O7  1  0.11190  0.73841  0.02291  1
 O  O8  1  0.88810  0.23841  0.47709  1
 O  O9  1  0.08387  0.86733  0.21884  1
 O  O10  1  0.38810  0.23841  0.02291  1
 O  O11  1  0.54026  0.46166  0.67711  1
 O  O12  1  0.91613  0.13267  0.78116  1
 O  O13  1  0.58387  0.86733  0.28116  1
 O  O14  1  0.25301  0.53502  0.97626  1
 O  O15  1  0.24699  0.03502  0.97626  1
 O  O16  1  0.75301  0.53502  0.52374  1
 O  O17  1  0.88810  0.26159  0.97709  1
 O  O18  1  0.41613  0.13267  0.71884  1
 O  O19  1  0.75301  0.96498  0.02374  1
 O  O20  1  0.95974  0.53834  0.17711  1
 O  O21  1  0.45974  0.96166  0.82289  1
 O  O22  1  0.41613  0.36733  0.21884  1
 O  O23  1  0.61190  0.76159  0.97709  1
 O  O24  1  0.38810  0.26159  0.52291  1
 O  O25  1  0.61190  0.73841  0.47709  1
 O  O26  1  0.91613  0.36733  0.28116  1
 O  O27  1  0.54026  0.03834  0.17711  1
 O  O28  1  0.58387  0.63267  0.78116  1
 O  O29  1  0.74699  0.03502  0.52374  1
 O  O30  1  0.08387  0.63267  0.71884  1
 O  O31  1  0.24699  0.46498  0.47626  1
 O  O32  1  0.25301  0.96498  0.47626  1
