CIF file written using JARVIS-Tools package.
data_Na2Mn3Te4
_symmetry_space_group_name_H-M  'Cm'
_cell_length_a       8.86164
_cell_length_b       8.86165
_cell_length_c       7.78131
_cell_angle_alpha    64.2405
_cell_angle_beta     64.2405
_cell_angle_gamma    29.0291

_symmetry_Int_Tables_number  8
_chemical_formula_structural  Na2Mn3Te4
_chemical_formula_sum  Na2Mn3Te4
_cell_volume  264.9596092055364
_cell_formula_units_Z  1
loop_
  _symmetry_equiv_pos_site_id
 _symmetry_equiv_pos_as_xyz
 1  'x, y, z'
loop_
 _atom_site_type_symbol
 _atom_site_label
 _atom_site_symmetry_multiplicity
 _atom_site_fract_x
 _atom_site_fract_y
 _atom_site_fract_z
 _atom_site_fract_occupancy
 Mn  Mn1  1  0.57334  0.57334  0.77007  1
 Mn  Mn2  1  0.94019  0.94019  0.70903  1
 Mn  Mn3  1  0.44764  0.44764  0.23728  1
 Na  Na1  1  0.23738  0.23738  0.76727  1
 Na  Na2  1  0.74463  0.74463  0.24627  1
 Te  Te1  1  0.86954  0.86954  0.45800  1
 Te  Te2  1  0.38443  0.38443  0.95233  1
 Te  Te3  1  0.11754  0.11754  0.53686  1
 Te  Te4  1  0.62052  0.62052  0.05189  1
