CIF file written using JARVIS-Tools package.
data_Yb4Mg4Fe3H22
_symmetry_space_group_name_H-M  'P-43m'
_cell_length_a       6.57651
_cell_length_b       6.57651
_cell_length_c       6.57651
_cell_angle_alpha    90
_cell_angle_beta     90
_cell_angle_gamma    90

_symmetry_Int_Tables_number  215
_chemical_formula_structural  Yb4Mg4Fe3H22
_chemical_formula_sum  Yb4Mg4Fe3H22
_cell_volume  284.43724294831264
_cell_formula_units_Z  1
loop_
  _symmetry_equiv_pos_site_id
 _symmetry_equiv_pos_as_xyz
 1  'x, y, z'
loop_
 _atom_site_type_symbol
 _atom_site_label
 _atom_site_symmetry_multiplicity
 _atom_site_fract_x
 _atom_site_fract_y
 _atom_site_fract_z
 _atom_site_fract_occupancy
 Fe  Fe1  1  0.00000  0.50000  0.00000  1
 Fe  Fe2  1  0.00000  0.00000  0.50000  1
 Fe  Fe3  1  0.50000  0.00000  0.00000  1
 H  H1  1  0.24085  0.00000  0.50000  1
 H  H2  1  0.75915  0.50000  0.00000  1
 H  H3  1  0.00000  0.24085  0.50000  1
 H  H4  1  0.50000  0.24085  0.00000  1
 H  H5  1  0.00000  0.00000  0.26036  1
 H  H6  1  0.00000  0.00000  0.73964  1
 H  H7  1  0.37369  0.62631  0.62631  1
 H  H8  1  0.50000  0.00000  0.24085  1
 H  H9  1  0.00000  0.75915  0.50000  1
 H  H10  1  0.75915  0.00000  0.50000  1
 H  H11  1  0.50000  0.75915  0.00000  1
 H  H12  1  0.00000  0.50000  0.24085  1
 H  H13  1  0.00000  0.50000  0.75915  1
 H  H14  1  0.00000  0.73964  0.00000  1
 H  H15  1  0.37369  0.37369  0.37369  1
 H  H16  1  0.50000  0.00000  0.75915  1
 H  H17  1  0.00000  0.26036  0.00000  1
 H  H18  1  0.26036  0.00000  0.00000  1
 H  H19  1  0.62631  0.62631  0.37369  1
 H  H20  1  0.62631  0.37369  0.62631  1
 H  H21  1  0.24085  0.50000  0.00000  1
 H  H22  1  0.73964  0.00000  0.00000  1
 Mg  Mg1  1  0.21339  0.21339  0.21339  1
 Mg  Mg2  1  0.21339  0.78661  0.78661  1
 Mg  Mg3  1  0.78661  0.21339  0.78661  1
 Mg  Mg4  1  0.78661  0.78661  0.21339  1
 Yb  Yb1  1  0.70955  0.70955  0.70955  1
 Yb  Yb2  1  0.70955  0.29045  0.29045  1
 Yb  Yb3  1  0.29045  0.70955  0.29045  1
 Yb  Yb4  1  0.29045  0.29045  0.70955  1
