CIF file written using JARVIS-Tools package.
data_Li2Cu3Ge
_symmetry_space_group_name_H-M  'R-3m'
_cell_length_a       4.91896
_cell_length_b       4.91897
_cell_length_c       4.91896
_cell_angle_alpha    60.8928
_cell_angle_beta     60.8928
_cell_angle_gamma    60.8927

_symmetry_Int_Tables_number  166
_chemical_formula_structural  Li2Cu3Ge
_chemical_formula_sum  Li2Cu3Ge
_cell_volume  85.85377759542673
_cell_formula_units_Z  1
loop_
  _symmetry_equiv_pos_site_id
 _symmetry_equiv_pos_as_xyz
 1  'x, y, z'
loop_
 _atom_site_type_symbol
 _atom_site_label
 _atom_site_symmetry_multiplicity
 _atom_site_fract_x
 _atom_site_fract_y
 _atom_site_fract_z
 _atom_site_fract_occupancy
 Cu  Cu1  1  0.00000  0.50000  0.00000  1
 Cu  Cu2  1  0.50000  0.00000  -0.00000  1
 Cu  Cu3  1  0.00000  -0.00000  0.50000  1
 Ge  Ge1  1  0.00000  0.00000  0.00000  1
 Li  Li1  1  0.62731  0.62731  0.62731  1
 Li  Li2  1  0.37269  0.37269  0.37269  1
