CIF file written using JARVIS-Tools package.
data_SmErO3
_symmetry_space_group_name_H-M  'Pnma'
_cell_length_a       5.71667
_cell_length_b       5.99313
_cell_length_c       8.38022
_cell_angle_alpha    90
_cell_angle_beta     90
_cell_angle_gamma    90

_symmetry_Int_Tables_number  62
_chemical_formula_structural  SmErO3
_chemical_formula_sum  Sm4Er4O2
_cell_volume  287.11237653476377
_cell_formula_units_Z  4
loop_
  _symmetry_equiv_pos_site_id
 _symmetry_equiv_pos_as_xyz
 1  'x, y, z'
loop_
 _atom_site_type_symbol
 _atom_site_label
 _atom_site_symmetry_multiplicity
 _atom_site_fract_x
 _atom_site_fract_y
 _atom_site_fract_z
 _atom_site_fract_occupancy
 Er  Er1  1  0.50000  0.00000  0.00000  1
 Er  Er2  1  0.50000  0.00000  0.50000  1
 Er  Er3  1  0.00000  0.50000  0.00000  1
 Er  Er4  1  0.00000  0.50000  0.50000  1
 O  O1  1  0.31165  0.69179  0.57432  1
 O  O2  1  0.64036  0.06781  0.75000  1
 O  O3  1  0.81165  0.80821  0.42568  1
 O  O4  1  0.18835  0.19179  0.92568  1
 O  O5  1  0.68835  0.30821  0.42568  1
 O  O6  1  0.18835  0.19179  0.57432  1
 O  O7  1  0.14036  0.43219  0.25000  1
 O  O8  1  0.35964  0.93219  0.25000  1
 O  O9  1  0.31165  0.69179  0.92568  1
 O  O10  1  0.68835  0.30821  0.07432  1
 O  O11  1  0.81165  0.80821  0.07432  1
 O  O12  1  0.85964  0.56781  0.75000  1
 Sm  Sm1  1  0.01967  0.94359  0.75000  1
 Sm  Sm2  1  0.51967  0.55641  0.25000  1
 Sm  Sm3  1  0.48033  0.44359  0.75000  1
 Sm  Sm4  1  0.98033  0.05641  0.25000  1
