CIF file written using JARVIS-Tools package.
data_Al3SiPd4
_symmetry_space_group_name_H-M  'R3'
_cell_length_a       4.89477
_cell_length_b       4.89477
_cell_length_c       4.89478
_cell_angle_alpha    90.6376
_cell_angle_beta     90.6376
_cell_angle_gamma    90.6376

_symmetry_Int_Tables_number  146
_chemical_formula_structural  Al3SiPd4
_chemical_formula_sum  Al3SiPd4
_cell_volume  117.25116836779782
_cell_formula_units_Z  1
loop_
  _symmetry_equiv_pos_site_id
 _symmetry_equiv_pos_as_xyz
 1  'x, y, z'
loop_
 _atom_site_type_symbol
 _atom_site_label
 _atom_site_symmetry_multiplicity
 _atom_site_fract_x
 _atom_site_fract_y
 _atom_site_fract_z
 _atom_site_fract_occupancy
 Al  Al1  1  0.34137  0.15843  0.64997  1
 Al  Al2  1  0.15843  0.64997  0.34137  1
 Al  Al3  1  0.64997  0.34137  0.15843  1
 Pd  Pd1  1  0.14428  0.14428  0.14428  1
 Pd  Pd2  1  0.65562  0.85027  0.35632  1
 Pd  Pd3  1  0.85027  0.35632  0.65562  1
 Pd  Pd4  1  0.35632  0.65562  0.85027  1
 Si  Si1  1  0.84374  0.84374  0.84374  1
