CIF file written using JARVIS-Tools package.
data_Mg4SiGe
_symmetry_space_group_name_H-M  'R-3m'
_cell_length_a       7.81259
_cell_length_b       7.81259
_cell_length_c       7.81259
_cell_angle_alpha    33.5564
_cell_angle_beta     33.5564
_cell_angle_gamma    33.5564

_symmetry_Int_Tables_number  166
_chemical_formula_structural  Mg4SiGe
_chemical_formula_sum  Mg4SiGe
_cell_volume  129.77635880668691
_cell_formula_units_Z  1
loop_
  _symmetry_equiv_pos_site_id
 _symmetry_equiv_pos_as_xyz
 1  'x, y, z'
loop_
 _atom_site_type_symbol
 _atom_site_label
 _atom_site_symmetry_multiplicity
 _atom_site_fract_x
 _atom_site_fract_y
 _atom_site_fract_z
 _atom_site_fract_occupancy
 Ge  Ge1  1  0.50000  0.50000  0.50000  1
 Mg  Mg1  1  0.62524  0.62524  0.62524  1
 Mg  Mg2  1  0.12477  0.12477  0.12477  1
 Mg  Mg3  1  0.87523  0.87523  0.87523  1
 Mg  Mg4  1  0.37476  0.37476  0.37476  1
 Si  Si1  1  0.00000  0.00000  0.00000  1
