CIF file written using JARVIS-Tools package.
data_In2Te3
_symmetry_space_group_name_H-M  'P3m1'
_cell_length_a       4.50765
_cell_length_b       4.50765
_cell_length_c       10.8278
_cell_angle_alpha    90
_cell_angle_beta     90
_cell_angle_gamma    120

_symmetry_Int_Tables_number  156
_chemical_formula_structural  In2Te3
_chemical_formula_sum  In2Te3
_cell_volume  190.5346261757023
_cell_formula_units_Z  1
loop_
  _symmetry_equiv_pos_site_id
 _symmetry_equiv_pos_as_xyz
 1  'x, y, z'
loop_
 _atom_site_type_symbol
 _atom_site_label
 _atom_site_symmetry_multiplicity
 _atom_site_fract_x
 _atom_site_fract_y
 _atom_site_fract_z
 _atom_site_fract_occupancy
 In  In1  1  0.00000  0.00000  0.97175  1
 In  In2  1  0.66667  0.33333  0.38126  1
 Te  Te1  1  0.00000  0.00000  0.24978  1
 Te  Te2  1  0.66667  0.33333  0.63103  1
 Te  Te3  1  0.33333  0.66667  0.84950  1
