CIF file written using JARVIS-Tools package.
data_YbAgS2
_symmetry_space_group_name_H-M  'I4_1/amd'
_cell_length_a       5.52048
_cell_length_b       5.52048
_cell_length_c       6.6344
_cell_angle_alpha    114.585
_cell_angle_beta     114.585
_cell_angle_gamma    90

_symmetry_Int_Tables_number  141
_chemical_formula_structural  YbAgS2
_chemical_formula_sum  Yb2Ag2S4
_cell_volume  163.48564404544948
_cell_formula_units_Z  2
loop_
  _symmetry_equiv_pos_site_id
 _symmetry_equiv_pos_as_xyz
 1  'x, y, z'
loop_
 _atom_site_type_symbol
 _atom_site_label
 _atom_site_symmetry_multiplicity
 _atom_site_fract_x
 _atom_site_fract_y
 _atom_site_fract_z
 _atom_site_fract_occupancy
 Ag  Ag1  1  0.87500  0.12500  0.75000  1
 Ag  Ag2  1  0.12500  0.87500  0.25000  1
 S  S1  1  0.11601  0.36601  0.23202  1
 S  S2  1  0.36601  0.11601  0.73202  1
 S  S3  1  0.63399  0.88399  0.26798  1
 S  S4  1  0.88399  0.63399  0.76798  1
 Yb  Yb1  1  0.62500  0.37500  0.25000  1
 Yb  Yb2  1  0.37500  0.62500  0.75000  1
