CIF file written using JARVIS-Tools package.
data_RbP2Rh2
_symmetry_space_group_name_H-M  'I4/mmm'
_cell_length_a       7.36021
_cell_length_b       7.36021
_cell_length_c       7.36021
_cell_angle_alpha    148.94
_cell_angle_beta     148.94
_cell_angle_gamma    44.5001

_symmetry_Int_Tables_number  139
_chemical_formula_structural  RbP2Rh2
_chemical_formula_sum  RbP2Rh2
_cell_volume  105.8208194853449
_cell_formula_units_Z  1
loop_
  _symmetry_equiv_pos_site_id
 _symmetry_equiv_pos_as_xyz
 1  'x, y, z'
loop_
 _atom_site_type_symbol
 _atom_site_label
 _atom_site_symmetry_multiplicity
 _atom_site_fract_x
 _atom_site_fract_y
 _atom_site_fract_z
 _atom_site_fract_occupancy
 P  P1  1  0.34414  0.34414  0.00000  1
 P  P2  1  0.65586  0.65586  -0.00000  1
 Rb  Rb1  1  0.00000  0.00000  0.00000  1
 Rh  Rh1  1  0.75000  0.25000  0.50000  1
 Rh  Rh2  1  0.25000  0.75000  0.50000  1
