CIF file written using JARVIS-Tools package.
data_Th4AlGe
_symmetry_space_group_name_H-M  'I422'
_cell_length_a       6.11079
_cell_length_b       6.11079
_cell_length_c       6.11079
_cell_angle_alpha    104.118
_cell_angle_beta     104.118
_cell_angle_gamma    120.808

_symmetry_Int_Tables_number  97
_chemical_formula_structural  Th4AlGe
_chemical_formula_sum  Th4AlGe
_cell_volume  170.4173719346923
_cell_formula_units_Z  1
loop_
  _symmetry_equiv_pos_site_id
 _symmetry_equiv_pos_as_xyz
 1  'x, y, z'
loop_
 _atom_site_type_symbol
 _atom_site_label
 _atom_site_symmetry_multiplicity
 _atom_site_fract_x
 _atom_site_fract_y
 _atom_site_fract_z
 _atom_site_fract_occupancy
 Al  Al1  1  0.50000  0.50000  -0.00000  1
 Ge  Ge1  1  0.00000  0.00000  0.00000  1
 Th  Th1  1  0.41020  0.91020  0.82041  1
 Th  Th2  1  0.08980  0.58980  0.17959  1
 Th  Th3  1  0.58980  0.41020  0.50000  1
 Th  Th4  1  0.91020  0.08980  0.50000  1
