CIF file written using JARVIS-Tools package.
data_SrPb3S4
_symmetry_space_group_name_H-M  'R-3m'
_cell_length_a       14.0858
_cell_length_b       14.0858
_cell_length_c       14.0858
_cell_angle_alpha    17.3456
_cell_angle_beta     17.3456
_cell_angle_gamma    17.3456

_symmetry_Int_Tables_number  166
_chemical_formula_structural  SrPb3S4
_chemical_formula_sum  SrPb3S4
_cell_volume  216.77012522029435
_cell_formula_units_Z  1
loop_
  _symmetry_equiv_pos_site_id
 _symmetry_equiv_pos_as_xyz
 1  'x, y, z'
loop_
 _atom_site_type_symbol
 _atom_site_label
 _atom_site_symmetry_multiplicity
 _atom_site_fract_x
 _atom_site_fract_y
 _atom_site_fract_z
 _atom_site_fract_occupancy
 Pb  Pb1  1  0.24971  0.24971  0.24971  1
 Pb  Pb2  1  0.50000  0.50000  0.50000  1
 Pb  Pb3  1  0.75029  0.75029  0.75029  1
 S  S1  1  0.12517  0.12517  0.12517  1
 S  S2  1  0.37449  0.37449  0.37449  1
 S  S3  1  0.62551  0.62551  0.62551  1
 S  S4  1  0.87483  0.87483  0.87483  1
 Sr  Sr1  1  0.00000  0.00000  0.00000  1
