data_image0
_chemical_formula_structural       P8Zr14
_chemical_formula_sum              "P8 Zr14"
_cell_length_a       8.15474
_cell_length_b       8.15474
_cell_length_c       14.7938
_cell_angle_alpha    75.5184
_cell_angle_beta     104.482
_cell_angle_gamma    154.288

_space_group_name_H-M_alt    "P 1"
_space_group_IT_number       1

loop_
  _space_group_symop_operation_xyz
  'x, y, z'

loop_
  _atom_site_type_symbol
  _atom_site_label
  _atom_site_symmetry_multiplicity
  _atom_site_fract_x
  _atom_site_fract_y
  _atom_site_fract_z
  _atom_site_occupancy
  P   P1        1.0  0.37000  0.63000  0.34000  1.0000
  P   P2        1.0  0.63000  0.37000  0.66000  1.0000
  P   P3        1.0  0.06290  0.93700  0.85200  1.0000
  P   P4        1.0  0.93700  0.06290  0.14800  1.0000
  P   P5        1.0  0.37500  0.62500  0.60200  1.0000
  P   P6        1.0  0.62500  0.37500  0.39800  1.0000
  P   P7        1.0  0.17700  0.82300  0.11200  1.0000
  P   P8        1.0  0.82300  0.17700  0.88800  1.0000
  Zr  Zr1       1.0  0.00428  0.99600  0.66700  1.0000
  Zr  Zr2       1.0  0.99600  0.00428  0.33300  1.0000
  Zr  Zr3       1.0  0.34000  0.66000  0.03000  1.0000
  Zr  Zr4       1.0  0.66000  0.34000  0.97000  1.0000
  Zr  Zr5       1.0  0.20500  0.79500  0.79700  1.0000
  Zr  Zr6       1.0  0.79500  0.20500  0.20300  1.0000
  Zr  Zr7       1.0  0.19600  0.80400  0.31100  1.0000
  Zr  Zr8       1.0  0.80400  0.19600  0.68900  1.0000
  Zr  Zr9       1.0  0.43200  0.56800  0.83100  1.0000
  Zr  Zr10      1.0  0.56800  0.43200  0.16900  1.0000
  Zr  Zr11      1.0  0.50000  0.50000  0.50000  1.0000
  Zr  Zr12      1.0  0.00000  0.00000  0.00000  1.0000
  Zr  Zr13      1.0  0.17600  0.82400  0.54100  1.0000
  Zr  Zr14      1.0  0.82400  0.17600  0.45900  1.0000
