CIF file written using JARVIS-Tools package.
data_MgInS3
_symmetry_space_group_name_H-M  'C2/m'
_cell_length_a       6.7436
_cell_length_b       6.7436
_cell_length_c       6.45888
_cell_angle_alpha    75.8179
_cell_angle_beta     75.8179
_cell_angle_gamma    119.787

_symmetry_Int_Tables_number  12
_chemical_formula_structural  MgInS3
_chemical_formula_sum  Mg2In2S6
_cell_volume  222.43936254120987
_cell_formula_units_Z  2
loop_
  _symmetry_equiv_pos_site_id
 _symmetry_equiv_pos_as_xyz
 1  'x, y, z'
loop_
 _atom_site_type_symbol
 _atom_site_label
 _atom_site_symmetry_multiplicity
 _atom_site_fract_x
 _atom_site_fract_y
 _atom_site_fract_z
 _atom_site_fract_occupancy
 In  In1  1  0.83554  0.83554  0.34963  1
 In  In2  1  0.16446  0.16446  0.65037  1
 Mg  Mg1  1  0.67059  0.32941  -0.00000  1
 Mg  Mg2  1  0.32941  0.67059  0.00000  1
 S  S1  1  0.51460  0.87306  0.26290  1
 S  S2  1  0.48540  0.12694  0.73710  1
 S  S3  1  0.12694  0.48540  0.73710  1
 S  S4  1  0.87306  0.51460  0.26290  1
 S  S5  1  0.75106  0.75106  0.77492  1
 S  S6  1  0.24894  0.24894  0.22508  1
