CIF file written using JARVIS-Tools package.
data_K4BeAs2
_symmetry_space_group_name_H-M  'R-3m'
_cell_length_a       9.1995
_cell_length_b       9.19949
_cell_length_c       9.1995
_cell_angle_alpha    35.7234
_cell_angle_beta     35.7234
_cell_angle_gamma    35.7234

_symmetry_Int_Tables_number  166
_chemical_formula_structural  K4BeAs2
_chemical_formula_sum  K4BeAs2
_cell_volume  237.2814652429614
_cell_formula_units_Z  1
loop_
  _symmetry_equiv_pos_site_id
 _symmetry_equiv_pos_as_xyz
 1  'x, y, z'
loop_
 _atom_site_type_symbol
 _atom_site_label
 _atom_site_symmetry_multiplicity
 _atom_site_fract_x
 _atom_site_fract_y
 _atom_site_fract_z
 _atom_site_fract_occupancy
 As  As1  1  0.91944  0.91944  0.91944  1
 As  As2  1  0.08056  0.08056  0.08056  1
 Be  Be1  1  0.00000  0.00000  0.00000  1
 K  K1  1  0.62421  0.62421  0.62421  1
 K  K2  1  0.37579  0.37579  0.37579  1
 K  K3  1  0.20863  0.20863  0.20863  1
 K  K4  1  0.79137  0.79137  0.79137  1
