CIF file written using JARVIS-Tools package.
data_K3AuCl6
_symmetry_space_group_name_H-M  'Fm-3m'
_cell_length_a       7.58455
_cell_length_b       7.58454
_cell_length_c       7.58454
_cell_angle_alpha    60
_cell_angle_beta     60
_cell_angle_gamma    60

_symmetry_Int_Tables_number  225
_chemical_formula_structural  K3AuCl6
_chemical_formula_sum  K3AuCl6
_cell_volume  308.5126308041809
_cell_formula_units_Z  1
loop_
  _symmetry_equiv_pos_site_id
 _symmetry_equiv_pos_as_xyz
 1  'x, y, z'
loop_
 _atom_site_type_symbol
 _atom_site_label
 _atom_site_symmetry_multiplicity
 _atom_site_fract_x
 _atom_site_fract_y
 _atom_site_fract_z
 _atom_site_fract_occupancy
 Au  Au1  1  0.00000  0.00000  0.00000  1
 Cl  Cl1  1  0.76773  0.23227  0.23227  1
 Cl  Cl2  1  0.23227  0.23227  0.76773  1
 Cl  Cl3  1  0.23227  0.76773  0.76773  1
 Cl  Cl4  1  0.23227  0.76773  0.23227  1
 Cl  Cl5  1  0.76773  0.23227  0.76773  1
 Cl  Cl6  1  0.76773  0.76773  0.23227  1
 K  K1  1  0.75000  0.75000  0.75000  1
 K  K2  1  0.25000  0.25000  0.25000  1
 K  K3  1  0.50000  0.50000  0.50000  1
