CIF file written using JARVIS-Tools package.
data_NaBiS2
_symmetry_space_group_name_H-M  'R-3m'
_cell_length_a       7.1305
_cell_length_b       7.13049
_cell_length_c       7.13049
_cell_angle_alpha    33.0481
_cell_angle_beta     33.048
_cell_angle_gamma    33.0481

_symmetry_Int_Tables_number  166
_chemical_formula_structural  NaBiS2
_chemical_formula_sum  NaBiS2
_cell_volume  95.95766450270892
_cell_formula_units_Z  1
loop_
  _symmetry_equiv_pos_site_id
 _symmetry_equiv_pos_as_xyz
 1  'x, y, z'
loop_
 _atom_site_type_symbol
 _atom_site_label
 _atom_site_symmetry_multiplicity
 _atom_site_fract_x
 _atom_site_fract_y
 _atom_site_fract_z
 _atom_site_fract_occupancy
 Bi  Bi1  1  0.00000  0.00000  0.00000  1
 Na  Na1  1  0.50000  0.50000  0.50000  1
 S  S1  1  0.25238  0.25238  0.25238  1
 S  S2  1  0.74762  0.74762  0.74762  1
