CIF file written using JARVIS-Tools package.
data_Fe3Si4Ir
_symmetry_space_group_name_H-M  'R3'
_cell_length_a       4.57411
_cell_length_b       4.57411
_cell_length_c       4.57411
_cell_angle_alpha    89.9662
_cell_angle_beta     89.9663
_cell_angle_gamma    89.9663

_symmetry_Int_Tables_number  146
_chemical_formula_structural  Fe3Si4Ir
_chemical_formula_sum  Fe3Si4Ir
_cell_volume  95.70166326791461
_cell_formula_units_Z  1
loop_
  _symmetry_equiv_pos_site_id
 _symmetry_equiv_pos_as_xyz
 1  'x, y, z'
loop_
 _atom_site_type_symbol
 _atom_site_label
 _atom_site_symmetry_multiplicity
 _atom_site_fract_x
 _atom_site_fract_y
 _atom_site_fract_z
 _atom_site_fract_occupancy
 Fe  Fe1  1  0.13667  0.36736  0.63382  1
 Fe  Fe2  1  0.63382  0.13667  0.36736  1
 Fe  Fe3  1  0.36736  0.63382  0.13667  1
 Ir  Ir1  1  0.86898  0.86898  0.86898  1
 Si  Si1  1  0.17239  0.17239  0.17239  1
 Si  Si2  1  0.83324  0.64407  0.34348  1
 Si  Si3  1  0.34348  0.83324  0.64407  1
 Si  Si4  1  0.64407  0.34348  0.83324  1
