CIF file written using JARVIS-Tools package.
data_YbPr3
_symmetry_space_group_name_H-M  'P6_3/mmc'
_cell_length_a       7.4049
_cell_length_b       7.4049
_cell_length_c       5.94826
_cell_angle_alpha    90
_cell_angle_beta     90
_cell_angle_gamma    120

_symmetry_Int_Tables_number  194
_chemical_formula_structural  YbPr3
_chemical_formula_sum  Yb2Pr6
_cell_volume  282.4612270016603
_cell_formula_units_Z  2
loop_
  _symmetry_equiv_pos_site_id
 _symmetry_equiv_pos_as_xyz
 1  'x, y, z'
loop_
 _atom_site_type_symbol
 _atom_site_label
 _atom_site_symmetry_multiplicity
 _atom_site_fract_x
 _atom_site_fract_y
 _atom_site_fract_z
 _atom_site_fract_occupancy
 Pr  Pr1  1  0.16529  0.33058  0.25000  1
 Pr  Pr2  1  0.66942  0.83471  0.25000  1
 Pr  Pr3  1  0.16529  0.83471  0.25000  1
 Pr  Pr4  1  0.83471  0.66942  0.75000  1
 Pr  Pr5  1  0.33058  0.16529  0.75000  1
 Pr  Pr6  1  0.83471  0.16529  0.75000  1
 Yb  Yb1  1  0.33333  0.66667  0.75000  1
 Yb  Yb2  1  0.66667  0.33333  0.25000  1
