CIF file written using JARVIS-Tools package.
data_CoSi4Ni
_symmetry_space_group_name_H-M  'R-3m'
_cell_length_a       6.63436
_cell_length_b       6.63436
_cell_length_c       6.63435
_cell_angle_alpha    33.5096
_cell_angle_beta     33.5096
_cell_angle_gamma    33.5096

_symmetry_Int_Tables_number  166
_chemical_formula_structural  CoSi4Ni
_chemical_formula_sum  CoSi4Ni
_cell_volume  79.26893272305793
_cell_formula_units_Z  1
loop_
  _symmetry_equiv_pos_site_id
 _symmetry_equiv_pos_as_xyz
 1  'x, y, z'
loop_
 _atom_site_type_symbol
 _atom_site_label
 _atom_site_symmetry_multiplicity
 _atom_site_fract_x
 _atom_site_fract_y
 _atom_site_fract_z
 _atom_site_fract_occupancy
 Co  Co1  1  0.00000  0.00000  0.00000  1
 Ni  Ni1  1  0.50000  0.50000  0.50000  1
 Si  Si1  1  0.62691  0.62691  0.62691  1
 Si  Si2  1  0.12298  0.12298  0.12298  1
 Si  Si3  1  0.87702  0.87702  0.87702  1
 Si  Si4  1  0.37309  0.37309  0.37309  1
