CIF file written using JARVIS-Tools package.
data_HfWC2
_symmetry_space_group_name_H-M  'R-3m'
_cell_length_a       5.52167
_cell_length_b       5.52167
_cell_length_c       5.52166
_cell_angle_alpha    33.4501
_cell_angle_beta     33.4501
_cell_angle_gamma    33.4501

_symmetry_Int_Tables_number  166
_chemical_formula_structural  HfWC2
_chemical_formula_sum  HfWC2
_cell_volume  45.55247120615061
_cell_formula_units_Z  1
loop_
  _symmetry_equiv_pos_site_id
 _symmetry_equiv_pos_as_xyz
 1  'x, y, z'
loop_
 _atom_site_type_symbol
 _atom_site_label
 _atom_site_symmetry_multiplicity
 _atom_site_fract_x
 _atom_site_fract_y
 _atom_site_fract_z
 _atom_site_fract_occupancy
 C  C1  1  0.75396  0.75396  0.75396  1
 C  C2  1  0.24604  0.24604  0.24604  1
 Hf  Hf1  1  0.00000  0.00000  0.00000  1
 W  W1  1  0.50000  0.50000  0.50000  1
