CIF file written using JARVIS-Tools package.
data_CaVF6
_symmetry_space_group_name_H-M  'R-3'
_cell_length_a       5.71403
_cell_length_b       5.71404
_cell_length_c       5.71403
_cell_angle_alpha    54.3066
_cell_angle_beta     54.3066
_cell_angle_gamma    54.3066

_symmetry_Int_Tables_number  148
_chemical_formula_structural  CaVF6
_chemical_formula_sum  CaVF6
_cell_volume  114.39779620357966
_cell_formula_units_Z  1
loop_
  _symmetry_equiv_pos_site_id
 _symmetry_equiv_pos_as_xyz
 1  'x, y, z'
loop_
 _atom_site_type_symbol
 _atom_site_label
 _atom_site_symmetry_multiplicity
 _atom_site_fract_x
 _atom_site_fract_y
 _atom_site_fract_z
 _atom_site_fract_occupancy
 Ca  Ca1  1  0.50000  0.50000  0.50000  1
 F  F1  1  0.36227  0.08059  0.78131  1
 F  F2  1  0.08059  0.78131  0.36227  1
 F  F3  1  0.21869  0.63773  0.91941  1
 F  F4  1  0.91941  0.21869  0.63773  1
 F  F5  1  0.63773  0.91941  0.21869  1
 F  F6  1  0.78131  0.36227  0.08059  1
 V  V1  1  0.00000  0.00000  0.00000  1
