CIF file written using JARVIS-Tools package.
data_In2CuSe3Br
_symmetry_space_group_name_H-M  'P1'
_cell_length_a       5.75959
_cell_length_b       5.82294
_cell_length_c       7.097
_cell_angle_alpha    114.006
_cell_angle_beta     112.891
_cell_angle_gamma    90.669

_symmetry_Int_Tables_number  1
_chemical_formula_structural  In2CuSe3Br
_chemical_formula_sum  In2CuSe3Br
_cell_volume  196.17960777204738
_cell_formula_units_Z  1
loop_
  _symmetry_equiv_pos_site_id
 _symmetry_equiv_pos_as_xyz
 1  'x, y, z'
loop_
 _atom_site_type_symbol
 _atom_site_label
 _atom_site_symmetry_multiplicity
 _atom_site_fract_x
 _atom_site_fract_y
 _atom_site_fract_z
 _atom_site_fract_occupancy
 Br  Br1  1  0.11969  0.61877  0.74657  1
 Cu  Cu1  1  0.54998  0.45758  0.03073  1
 In  In1  1  0.25404  0.76021  0.46810  1
 In  In2  1  0.96498  0.02470  0.00905  1
 Se  Se1  1  0.82509  0.87735  0.25713  1
 Se  Se2  1  0.40580  0.35020  0.26356  1
 Se  Se3  1  0.63042  0.16120  0.72486  1
