CIF file written using JARVIS-Tools package.
data_Ce4Ni3Pt
_symmetry_space_group_name_H-M  'Pmm2'
_cell_length_a       3.73556
_cell_length_b       4.28659
_cell_length_c       10.6671
_cell_angle_alpha    90
_cell_angle_beta     90
_cell_angle_gamma    90

_symmetry_Int_Tables_number  25
_chemical_formula_structural  Ce4Ni3Pt
_chemical_formula_sum  Ce4Ni3Pt
_cell_volume  170.80978699891662
_cell_formula_units_Z  1
loop_
  _symmetry_equiv_pos_site_id
 _symmetry_equiv_pos_as_xyz
 1  'x, y, z'
loop_
 _atom_site_type_symbol
 _atom_site_label
 _atom_site_symmetry_multiplicity
 _atom_site_fract_x
 _atom_site_fract_y
 _atom_site_fract_z
 _atom_site_fract_occupancy
 Ce  Ce1  1  0.50000  0.50000  0.37391  1
 Ce  Ce2  1  0.00000  0.50000  0.85564  1
 Ce  Ce3  1  0.00000  0.00000  0.13943  1
 Ce  Ce4  1  0.50000  0.00000  0.63629  1
 Ni  Ni1  1  0.00000  0.50000  0.58447  1
 Ni  Ni2  1  0.00000  0.00000  0.41756  1
 Ni  Ni3  1  0.50000  0.00000  0.90483  1
 Pt  Pt1  1  0.50000  0.50000  0.08787  1
