CIF file written using JARVIS-Tools package.
data_BaGa2GeSe6
_symmetry_space_group_name_H-M  'P1'
_cell_length_a       6.53649
_cell_length_b       6.60122
_cell_length_c       6.65691
_cell_angle_alpha    99.3495
_cell_angle_beta     101.818
_cell_angle_gamma    99.1013

_symmetry_Int_Tables_number  1
_chemical_formula_structural  BaGa2GeSe6
_chemical_formula_sum  BaGa2GeSe6
_cell_volume  271.90916702114146
_cell_formula_units_Z  1
loop_
  _symmetry_equiv_pos_site_id
 _symmetry_equiv_pos_as_xyz
 1  'x, y, z'
loop_
 _atom_site_type_symbol
 _atom_site_label
 _atom_site_symmetry_multiplicity
 _atom_site_fract_x
 _atom_site_fract_y
 _atom_site_fract_z
 _atom_site_fract_occupancy
 Ba  Ba1  1  0.00406  0.00003  0.98727  1
 Ga  Ga1  1  0.81456  0.53446  0.40320  1
 Ga  Ga2  1  0.54723  0.39611  0.82086  1
 Ge  Ge1  1  0.39640  0.82341  0.54408  1
 Se  Se1  1  0.25364  0.13799  0.57342  1
 Se  Se2  1  0.13463  0.59110  0.26145  1
 Se  Se3  1  0.58284  0.25413  0.13630  1
 Se  Se4  1  0.73370  0.88554  0.45524  1
 Se  Se5  1  0.89546  0.45118  0.74761  1
 Se  Se6  1  0.45310  0.74167  0.88619  1
