CIF file written using JARVIS-Tools package.
data_DyCdAu
_symmetry_space_group_name_H-M  'P-62m'
_cell_length_a       7.7903
_cell_length_b       7.7903
_cell_length_c       3.87822
_cell_angle_alpha    90
_cell_angle_beta     90
_cell_angle_gamma    120

_symmetry_Int_Tables_number  189
_chemical_formula_structural  DyCdAu
_chemical_formula_sum  Dy3Cd3Au3
_cell_volume  203.83186443610526
_cell_formula_units_Z  3
loop_
  _symmetry_equiv_pos_site_id
 _symmetry_equiv_pos_as_xyz
 1  'x, y, z'
loop_
 _atom_site_type_symbol
 _atom_site_label
 _atom_site_symmetry_multiplicity
 _atom_site_fract_x
 _atom_site_fract_y
 _atom_site_fract_z
 _atom_site_fract_occupancy
 Au  Au1  1  0.33333  0.66667  0.50000  1
 Au  Au2  1  0.66667  0.33333  0.50000  1
 Au  Au3  1  0.00000  0.00000  0.00000  1
 Cd  Cd1  1  0.26470  -0.00000  0.50000  1
 Cd  Cd2  1  -0.00000  0.26470  0.50000  1
 Cd  Cd3  1  0.73530  0.73530  0.50000  1
 Dy  Dy1  1  0.59850  -0.00000  0.00000  1
 Dy  Dy2  1  -0.00000  0.59850  0.00000  1
 Dy  Dy3  1  0.40150  0.40150  0.00000  1
