CIF file written using JARVIS-Tools package.
data_AlInSb2
_symmetry_space_group_name_H-M  'P-4m2'
_cell_length_a       4.52971
_cell_length_b       4.52971
_cell_length_c       6.42007
_cell_angle_alpha    90
_cell_angle_beta     90
_cell_angle_gamma    90

_symmetry_Int_Tables_number  115
_chemical_formula_structural  AlInSb2
_chemical_formula_sum  AlInSb2
_cell_volume  131.72894521076563
_cell_formula_units_Z  1
loop_
  _symmetry_equiv_pos_site_id
 _symmetry_equiv_pos_as_xyz
 1  'x, y, z'
loop_
 _atom_site_type_symbol
 _atom_site_label
 _atom_site_symmetry_multiplicity
 _atom_site_fract_x
 _atom_site_fract_y
 _atom_site_fract_z
 _atom_site_fract_occupancy
 Al  Al1  1  0.00000  0.00000  0.00000  1
 In  In1  1  0.50000  0.50000  0.50000  1
 Sb  Sb1  1  0.00000  0.50000  0.23304  1
 Sb  Sb2  1  0.50000  0.00000  0.76696  1
