CIF file written using JARVIS-Tools package.
data_Mn3Sb
_symmetry_space_group_name_H-M  'P6_3/mmc'
_cell_length_a       5.43384
_cell_length_b       5.43384
_cell_length_c       4.29479
_cell_angle_alpha    90
_cell_angle_beta     90
_cell_angle_gamma    120

_symmetry_Int_Tables_number  194
_chemical_formula_structural  Mn3Sb
_chemical_formula_sum  Mn6Sb2
_cell_volume  109.82121303820485
_cell_formula_units_Z  2
loop_
  _symmetry_equiv_pos_site_id
 _symmetry_equiv_pos_as_xyz
 1  'x, y, z'
loop_
 _atom_site_type_symbol
 _atom_site_label
 _atom_site_symmetry_multiplicity
 _atom_site_fract_x
 _atom_site_fract_y
 _atom_site_fract_z
 _atom_site_fract_occupancy
 Mn  Mn1  1  0.15063  0.30126  0.25000  1
 Mn  Mn2  1  0.69874  0.84937  0.25000  1
 Mn  Mn3  1  0.15063  0.84937  0.25000  1
 Mn  Mn4  1  0.84937  0.69874  0.75000  1
 Mn  Mn5  1  0.30126  0.15063  0.75000  1
 Mn  Mn6  1  0.84937  0.15063  0.75000  1
 Sb  Sb1  1  0.33333  0.66667  0.75000  1
 Sb  Sb2  1  0.66667  0.33333  0.25000  1
