CIF file written using JARVIS-Tools package.
data_CeMgS3
_symmetry_space_group_name_H-M  'C2/m'
_cell_length_a       6.63263
_cell_length_b       6.63263
_cell_length_c       6.79474
_cell_angle_alpha    73.2275
_cell_angle_beta     73.2275
_cell_angle_gamma    109.109

_symmetry_Int_Tables_number  12
_chemical_formula_structural  CeMgS3
_chemical_formula_sum  Ce2Mg2S6
_cell_volume  244.99170157932502
_cell_formula_units_Z  2
loop_
  _symmetry_equiv_pos_site_id
 _symmetry_equiv_pos_as_xyz
 1  'x, y, z'
loop_
 _atom_site_type_symbol
 _atom_site_label
 _atom_site_symmetry_multiplicity
 _atom_site_fract_x
 _atom_site_fract_y
 _atom_site_fract_z
 _atom_site_fract_occupancy
 Ce  Ce1  1  0.80207  0.80207  0.25741  1
 Ce  Ce2  1  0.19793  0.19793  0.74259  1
 Mg  Mg1  1  0.32591  0.67409  0.00000  1
 Mg  Mg2  1  0.67409  0.32591  -0.00000  1
 S  S1  1  0.24369  0.93533  0.18625  1
 S  S2  1  0.75631  0.06467  0.81375  1
 S  S3  1  0.06467  0.75631  0.81375  1
 S  S4  1  0.93533  0.24369  0.18625  1
 S  S5  1  0.56123  0.56123  0.71349  1
 S  S6  1  0.43877  0.43877  0.28651  1
