CIF file written using JARVIS-Tools package.
data_TmBiTe3
_symmetry_space_group_name_H-M  'R3m'
_cell_length_a       10.7361
_cell_length_b       10.7361
_cell_length_c       10.7361
_cell_angle_alpha    23.4526
_cell_angle_beta     23.4526
_cell_angle_gamma    23.4526

_symmetry_Int_Tables_number  160
_chemical_formula_structural  TmBiTe3
_chemical_formula_sum  TmBiTe3
_cell_volume  172.12169216367974
_cell_formula_units_Z  1
loop_
  _symmetry_equiv_pos_site_id
 _symmetry_equiv_pos_as_xyz
 1  'x, y, z'
loop_
 _atom_site_type_symbol
 _atom_site_label
 _atom_site_symmetry_multiplicity
 _atom_site_fract_x
 _atom_site_fract_y
 _atom_site_fract_z
 _atom_site_fract_occupancy
 Bi  Bi1  1  0.60074  0.60074  0.60074  1
 Te  Te1  1  0.00541  0.00541  0.00541  1
 Te  Te2  1  0.21232  0.21232  0.21232  1
 Te  Te3  1  0.78283  0.78283  0.78283  1
 Tm  Tm1  1  0.39870  0.39870  0.39870  1
