CIF file written using JARVIS-Tools package.
data_BaAs2Pd2
_symmetry_space_group_name_H-M  'I4/mmm'
_cell_length_a       4.53194
_cell_length_b       4.53193
_cell_length_c       6.21792
_cell_angle_alpha    111.372
_cell_angle_beta     111.372
_cell_angle_gamma    89.9999

_symmetry_Int_Tables_number  139
_chemical_formula_structural  BaAs2Pd2
_chemical_formula_sum  BaAs2Pd2
_cell_volume  109.43989063032963
_cell_formula_units_Z  1
loop_
  _symmetry_equiv_pos_site_id
 _symmetry_equiv_pos_as_xyz
 1  'x, y, z'
loop_
 _atom_site_type_symbol
 _atom_site_label
 _atom_site_symmetry_multiplicity
 _atom_site_fract_x
 _atom_site_fract_y
 _atom_site_fract_z
 _atom_site_fract_occupancy
 As  As1  1  0.63164  0.63164  0.26329  1
 As  As2  1  0.36836  0.36836  0.73671  1
 Ba  Ba1  1  0.00000  0.00000  0.00000  1
 Pd  Pd1  1  0.75000  0.25000  0.50000  1
 Pd  Pd2  1  0.25000  0.75000  0.50000  1
