CIF file written using JARVIS-Tools package.
data_ThZr3
_symmetry_space_group_name_H-M  'P-6m2'
_cell_length_a       3.30881
_cell_length_b       3.3088
_cell_length_c       10.7938
_cell_angle_alpha    90
_cell_angle_beta     90
_cell_angle_gamma    120

_symmetry_Int_Tables_number  187
_chemical_formula_structural  ThZr3
_chemical_formula_sum  ThZr3
_cell_volume  102.34044371880043
_cell_formula_units_Z  1
loop_
  _symmetry_equiv_pos_site_id
 _symmetry_equiv_pos_as_xyz
 1  'x, y, z'
loop_
 _atom_site_type_symbol
 _atom_site_label
 _atom_site_symmetry_multiplicity
 _atom_site_fract_x
 _atom_site_fract_y
 _atom_site_fract_z
 _atom_site_fract_occupancy
 Th  Th1  1  0.33333  0.66667  0.00000  1
 Zr  Zr1  1  0.33333  0.66667  0.50000  1
 Zr  Zr2  1  0.00000  0.00000  0.26630  1
 Zr  Zr3  1  0.00000  0.00000  0.73370  1
