CIF file written using JARVIS-Tools package.
data_UF3
_symmetry_space_group_name_H-M  'P-3m1'
_cell_length_a       4.17198
_cell_length_b       4.17198
_cell_length_c       4.62357
_cell_angle_alpha    90
_cell_angle_beta     90
_cell_angle_gamma    120

_symmetry_Int_Tables_number  164
_chemical_formula_structural  UF3
_chemical_formula_sum  UF3
_cell_volume  69.69368380035633
_cell_formula_units_Z  1
loop_
  _symmetry_equiv_pos_site_id
 _symmetry_equiv_pos_as_xyz
 1  'x, y, z'
loop_
 _atom_site_type_symbol
 _atom_site_label
 _atom_site_symmetry_multiplicity
 _atom_site_fract_x
 _atom_site_fract_y
 _atom_site_fract_z
 _atom_site_fract_occupancy
 F  F1  1  0.66667  0.33333  0.38550  1
 F  F2  1  0.33333  0.66667  0.61450  1
 F  F3  1  0.00000  0.00000  0.00000  1
 U  U1  1  0.00000  0.00000  0.50000  1
