CIF file written using JARVIS-Tools package.
data_Tb3Pr
_symmetry_space_group_name_H-M  'P6_3/mmc'
_cell_length_a       7.21946
_cell_length_b       7.21945
_cell_length_c       5.73356
_cell_angle_alpha    90
_cell_angle_beta     90
_cell_angle_gamma    120

_symmetry_Int_Tables_number  194
_chemical_formula_structural  Tb3Pr
_chemical_formula_sum  Tb6Pr2
_cell_volume  258.79980146732026
_cell_formula_units_Z  2
loop_
  _symmetry_equiv_pos_site_id
 _symmetry_equiv_pos_as_xyz
 1  'x, y, z'
loop_
 _atom_site_type_symbol
 _atom_site_label
 _atom_site_symmetry_multiplicity
 _atom_site_fract_x
 _atom_site_fract_y
 _atom_site_fract_z
 _atom_site_fract_occupancy
 Pr  Pr1  1  0.33333  0.66667  0.75000  1
 Pr  Pr2  1  0.66667  0.33333  0.25000  1
 Tb  Tb1  1  0.16533  0.33066  0.25000  1
 Tb  Tb2  1  0.66934  0.83467  0.25000  1
 Tb  Tb3  1  0.16533  0.83467  0.25000  1
 Tb  Tb4  1  0.83467  0.66934  0.75000  1
 Tb  Tb5  1  0.33066  0.16533  0.75000  1
 Tb  Tb6  1  0.83467  0.16533  0.75000  1
