CIF file written using JARVIS-Tools package.
data_Cr2N
_symmetry_space_group_name_H-M  'P-31m'
_cell_length_a       4.77905
_cell_length_b       4.77905
_cell_length_c       4.40716
_cell_angle_alpha    90
_cell_angle_beta     90
_cell_angle_gamma    120

_symmetry_Int_Tables_number  162
_chemical_formula_structural  Cr2N
_chemical_formula_sum  Cr6N3
_cell_volume  87.17101513842361
_cell_formula_units_Z  3
loop_
  _symmetry_equiv_pos_site_id
 _symmetry_equiv_pos_as_xyz
 1  'x, y, z'
loop_
 _atom_site_type_symbol
 _atom_site_label
 _atom_site_symmetry_multiplicity
 _atom_site_fract_x
 _atom_site_fract_y
 _atom_site_fract_z
 _atom_site_fract_occupancy
 Cr  Cr1  1  0.32684  0.00000  0.25234  1
 Cr  Cr2  1  0.00000  0.32684  0.25234  1
 Cr  Cr3  1  0.67316  0.67316  0.25234  1
 Cr  Cr4  1  0.32684  0.32684  0.74766  1
 Cr  Cr5  1  0.67316  -0.00000  0.74766  1
 Cr  Cr6  1  -0.00000  0.67316  0.74766  1
 N  N1  1  0.00000  0.00000  0.00000  1
 N  N2  1  0.66667  0.33333  0.50000  1
 N  N3  1  0.33333  0.66667  0.50000  1
