CIF file written using JARVIS-Tools package.
data_MgFeF6
_symmetry_space_group_name_H-M  'R-3'
_cell_length_a       5.23736
_cell_length_b       5.23736
_cell_length_c       5.23737
_cell_angle_alpha    55.7857
_cell_angle_beta     55.7857
_cell_angle_gamma    55.7857

_symmetry_Int_Tables_number  148
_chemical_formula_structural  MgFeF6
_chemical_formula_sum  MgFeF6
_cell_volume  91.65615135104773
_cell_formula_units_Z  1
loop_
  _symmetry_equiv_pos_site_id
 _symmetry_equiv_pos_as_xyz
 1  'x, y, z'
loop_
 _atom_site_type_symbol
 _atom_site_label
 _atom_site_symmetry_multiplicity
 _atom_site_fract_x
 _atom_site_fract_y
 _atom_site_fract_z
 _atom_site_fract_occupancy
 F  F1  1  0.36841  0.10329  0.76635  1
 F  F2  1  0.10329  0.76635  0.36841  1
 F  F3  1  0.23365  0.63159  0.89671  1
 F  F4  1  0.89671  0.23365  0.63159  1
 F  F5  1  0.63159  0.89671  0.23365  1
 F  F6  1  0.76635  0.36841  0.10329  1
 Fe  Fe1  1  0.00000  0.00000  0.00000  1
 Mg  Mg1  1  0.50000  0.50000  0.50000  1
