CIF file written using JARVIS-Tools package.
data_SrLaCuO4
_symmetry_space_group_name_H-M  'I4mm'
_cell_length_a       6.86034
_cell_length_b       6.86033
_cell_length_c       6.86033
_cell_angle_alpha    147.4
_cell_angle_beta     147.4
_cell_angle_gamma    46.7718

_symmetry_Int_Tables_number  107
_chemical_formula_structural  SrLaCuO4
_chemical_formula_sum  SrLaCuO4
_cell_volume  93.37895562128709
_cell_formula_units_Z  1
loop_
  _symmetry_equiv_pos_site_id
 _symmetry_equiv_pos_as_xyz
 1  'x, y, z'
loop_
 _atom_site_type_symbol
 _atom_site_label
 _atom_site_symmetry_multiplicity
 _atom_site_fract_x
 _atom_site_fract_y
 _atom_site_fract_z
 _atom_site_fract_occupancy
 Cu  Cu1  1  0.00293  0.00293  -0.00000  1
 La  La1  1  0.36030  0.36030  -0.00000  1
 O  O1  1  0.99467  0.49467  0.50000  1
 O  O2  1  0.49467  0.99467  0.50000  1
 O  O3  1  0.83498  0.83498  0.00000  1
 O  O4  1  0.17291  0.17291  0.00000  1
 Sr  Sr1  1  0.63953  0.63953  0.00000  1
