CIF file written using JARVIS-Tools package.
data_CeGaCu4
_symmetry_space_group_name_H-M  'Cmmm'
_cell_length_a       5.13716
_cell_length_b       5.13716
_cell_length_c       4.18632
_cell_angle_alpha    90
_cell_angle_beta     90
_cell_angle_gamma    120.187

_symmetry_Int_Tables_number  65
_chemical_formula_structural  CeGaCu4
_chemical_formula_sum  CeGaCu4
_cell_volume  95.49657674314
_cell_formula_units_Z  1
loop_
  _symmetry_equiv_pos_site_id
 _symmetry_equiv_pos_as_xyz
 1  'x, y, z'
loop_
 _atom_site_type_symbol
 _atom_site_label
 _atom_site_symmetry_multiplicity
 _atom_site_fract_x
 _atom_site_fract_y
 _atom_site_fract_z
 _atom_site_fract_occupancy
 Ce  Ce1  1  0.50000  0.50000  0.00000  1
 Cu  Cu1  1  0.17115  0.82885  0.00000  1
 Cu  Cu2  1  0.82885  0.17115  0.00000  1
 Cu  Cu3  1  0.00000  0.50000  0.50000  1
 Cu  Cu4  1  0.50000  -0.00000  0.50000  1
 Ga  Ga1  1  0.00000  0.00000  0.50000  1
