CIF file written using JARVIS-Tools package.
data_MgAu2
_symmetry_space_group_name_H-M  'Cmcm'
_cell_length_a       6.8516
_cell_length_b       6.85161
_cell_length_c       4.29892
_cell_angle_alpha    90
_cell_angle_beta     90
_cell_angle_gamma    148.017

_symmetry_Int_Tables_number  63
_chemical_formula_structural  MgAu2
_chemical_formula_sum  Mg2Au4
_cell_volume  106.89240595282664
_cell_formula_units_Z  2
loop_
  _symmetry_equiv_pos_site_id
 _symmetry_equiv_pos_as_xyz
 1  'x, y, z'
loop_
 _atom_site_type_symbol
 _atom_site_label
 _atom_site_symmetry_multiplicity
 _atom_site_fract_x
 _atom_site_fract_y
 _atom_site_fract_z
 _atom_site_fract_occupancy
 Au  Au1  1  0.25771  0.74229  0.25000  1
 Au  Au2  1  0.92918  0.07082  0.25000  1
 Au  Au3  1  0.74229  0.25771  0.75000  1
 Au  Au4  1  0.07082  0.92918  0.75000  1
 Mg  Mg1  1  0.59552  0.40448  0.25000  1
 Mg  Mg2  1  0.40448  0.59552  0.75000  1
