CIF file written using JARVIS-Tools package.
data_PdS2Cl6
_symmetry_space_group_name_H-M  'P-1'
_cell_length_a       4.39515
_cell_length_b       6.63458
_cell_length_c       8.18754
_cell_angle_alpha    104.153
_cell_angle_beta     98.1274
_cell_angle_gamma    94.5297

_symmetry_Int_Tables_number  2
_chemical_formula_structural  PdS2Cl6
_chemical_formula_sum  PdS2Cl6
_cell_volume  227.5684264804037
_cell_formula_units_Z  1
loop_
  _symmetry_equiv_pos_site_id
 _symmetry_equiv_pos_as_xyz
 1  'x, y, z'
loop_
 _atom_site_type_symbol
 _atom_site_label
 _atom_site_symmetry_multiplicity
 _atom_site_fract_x
 _atom_site_fract_y
 _atom_site_fract_z
 _atom_site_fract_occupancy
 Cl  Cl1  1  0.73584  0.80461  0.55027  1
 Cl  Cl2  1  0.31379  0.14029  0.83793  1
 Cl  Cl3  1  0.68621  0.85971  0.16207  1
 Cl  Cl4  1  0.08430  0.50434  0.22031  1
 Cl  Cl5  1  0.91570  0.49566  0.77969  1
 Cl  Cl6  1  0.26416  0.19539  0.44973  1
 Pd  Pd1  1  0.00000  0.00000  0.00000  1
 S  S1  1  0.31661  0.24598  0.21870  1
 S  S2  1  0.68339  0.75402  0.78130  1
