CIF file written using JARVIS-Tools package.
data_YbHfO3
_symmetry_space_group_name_H-M  'Pnma'
_cell_length_a       5.49285
_cell_length_b       5.70826
_cell_length_c       7.9008
_cell_angle_alpha    90
_cell_angle_beta     90
_cell_angle_gamma    90

_symmetry_Int_Tables_number  62
_chemical_formula_structural  YbHfO3
_chemical_formula_sum  Yb4Hf4O2
_cell_volume  247.72636961832245
_cell_formula_units_Z  4
loop_
  _symmetry_equiv_pos_site_id
 _symmetry_equiv_pos_as_xyz
 1  'x, y, z'
loop_
 _atom_site_type_symbol
 _atom_site_label
 _atom_site_symmetry_multiplicity
 _atom_site_fract_x
 _atom_site_fract_y
 _atom_site_fract_z
 _atom_site_fract_occupancy
 Hf  Hf1  1  0.50000  0.00000  0.00000  1
 Hf  Hf2  1  0.50000  0.00000  0.50000  1
 Hf  Hf3  1  0.00000  0.50000  0.00000  1
 Hf  Hf4  1  0.00000  0.50000  0.50000  1
 O  O1  1  0.30403  0.69910  0.94072  1
 O  O2  1  0.61189  0.04196  0.75000  1
 O  O3  1  0.80403  0.80090  0.44072  1
 O  O4  1  0.19597  0.19910  0.94072  1
 O  O5  1  0.69597  0.30090  0.05928  1
 O  O6  1  0.19597  0.19910  0.55928  1
 O  O7  1  0.11189  0.45804  0.25000  1
 O  O8  1  0.38811  0.95804  0.25000  1
 O  O9  1  0.30403  0.69910  0.55928  1
 O  O10  1  0.69597  0.30090  0.44072  1
 O  O11  1  0.80403  0.80090  0.05928  1
 O  O12  1  0.88811  0.54196  0.75000  1
 Yb  Yb1  1  0.01639  0.94376  0.75000  1
 Yb  Yb2  1  0.51639  0.55624  0.25000  1
 Yb  Yb3  1  0.48361  0.44376  0.75000  1
 Yb  Yb4  1  0.98361  0.05624  0.25000  1
