CIF file written using JARVIS-Tools package.
data_CrFe3Sb4
_symmetry_space_group_name_H-M  'P-3m1'
_cell_length_a       4.00617
_cell_length_b       4.00616
_cell_length_c       10.4812
_cell_angle_alpha    90
_cell_angle_beta     90
_cell_angle_gamma    120

_symmetry_Int_Tables_number  164
_chemical_formula_structural  CrFe3Sb4
_chemical_formula_sum  CrFe3Sb4
_cell_volume  145.68047140615778
_cell_formula_units_Z  1
loop_
  _symmetry_equiv_pos_site_id
 _symmetry_equiv_pos_as_xyz
 1  'x, y, z'
loop_
 _atom_site_type_symbol
 _atom_site_label
 _atom_site_symmetry_multiplicity
 _atom_site_fract_x
 _atom_site_fract_y
 _atom_site_fract_z
 _atom_site_fract_occupancy
 Cr  Cr1  1  0.00000  0.00000  0.00000  1
 Fe  Fe1  1  0.00000  0.00000  0.50000  1
 Fe  Fe2  1  0.00000  0.00000  0.26062  1
 Fe  Fe3  1  0.00000  0.00000  0.73938  1
 Sb  Sb1  1  0.33333  0.66667  0.86118  1
 Sb  Sb2  1  0.33333  0.66667  0.37802  1
 Sb  Sb3  1  0.66667  0.33333  0.13882  1
 Sb  Sb4  1  0.66667  0.33333  0.62198  1
