CIF file written using JARVIS-Tools package.
data_Rb2YHgI6
_symmetry_space_group_name_H-M  'Fm-3m'
_cell_length_a       8.68979
_cell_length_b       8.68979
_cell_length_c       8.68979
_cell_angle_alpha    60
_cell_angle_beta     60
_cell_angle_gamma    59.9999

_symmetry_Int_Tables_number  225
_chemical_formula_structural  Rb2YHgI6
_chemical_formula_sum  Rb2YHgI6
_cell_volume  463.99440342869804
_cell_formula_units_Z  1
loop_
  _symmetry_equiv_pos_site_id
 _symmetry_equiv_pos_as_xyz
 1  'x, y, z'
loop_
 _atom_site_type_symbol
 _atom_site_label
 _atom_site_symmetry_multiplicity
 _atom_site_fract_x
 _atom_site_fract_y
 _atom_site_fract_z
 _atom_site_fract_occupancy
 Hg  Hg1  1  0.50000  0.50000  0.50000  1
 I  I1  1  0.75621  0.24379  0.24379  1
 I  I2  1  0.24379  0.24379  0.75621  1
 I  I3  1  0.24379  0.75621  0.75621  1
 I  I4  1  0.24379  0.75621  0.24379  1
 I  I5  1  0.75621  0.24379  0.75621  1
 I  I6  1  0.75621  0.75621  0.24379  1
 Rb  Rb1  1  0.75000  0.75000  0.75000  1
 Rb  Rb2  1  0.25000  0.25000  0.25000  1
 Y  Y1  1  0.00000  0.00000  0.00000  1
