CIF file written using JARVIS-Tools package.
data_Ta3B4W3
_symmetry_space_group_name_H-M  'Amm2'
_cell_length_a       6.14723
_cell_length_b       6.14724
_cell_length_c       3.22553
_cell_angle_alpha    90
_cell_angle_beta     90
_cell_angle_gamma    90.2481

_symmetry_Int_Tables_number  38
_chemical_formula_structural  Ta3B4W3
_chemical_formula_sum  Ta3B4W3
_cell_volume  121.88682299109568
_cell_formula_units_Z  1
loop_
  _symmetry_equiv_pos_site_id
 _symmetry_equiv_pos_as_xyz
 1  'x, y, z'
loop_
 _atom_site_type_symbol
 _atom_site_label
 _atom_site_symmetry_multiplicity
 _atom_site_fract_x
 _atom_site_fract_y
 _atom_site_fract_z
 _atom_site_fract_occupancy
 B  B1  1  0.39005  0.60995  0.00000  1
 B  B2  1  0.60965  0.39035  0.00000  1
 B  B3  1  0.11309  0.11173  0.00000  1
 B  B4  1  0.88827  0.88691  0.00000  1
 Ta  Ta1  1  0.49736  0.99913  0.00000  1
 Ta  Ta2  1  0.00087  0.50264  0.00000  1
 Ta  Ta3  1  0.82608  0.17392  0.50000  1
 W  W1  1  0.17618  0.82382  0.50000  1
 W  W2  1  0.67167  0.67321  0.50000  1
 W  W3  1  0.32679  0.32833  0.50000  1
