CIF file written using JARVIS-Tools package.
data_AlInAg2S4
_symmetry_space_group_name_H-M  'I-4'
_cell_length_a       6.83755
_cell_length_b       6.83755
_cell_length_c       6.83756
_cell_angle_alpha    129.63
_cell_angle_beta     129.63
_cell_angle_gamma    73.9991

_symmetry_Int_Tables_number  82
_chemical_formula_structural  AlInAg2S4
_chemical_formula_sum  AlInAg2S4
_cell_volume  184.92699240879904
_cell_formula_units_Z  1
loop_
  _symmetry_equiv_pos_site_id
 _symmetry_equiv_pos_as_xyz
 1  'x, y, z'
loop_
 _atom_site_type_symbol
 _atom_site_label
 _atom_site_symmetry_multiplicity
 _atom_site_fract_x
 _atom_site_fract_y
 _atom_site_fract_z
 _atom_site_fract_occupancy
 Ag  Ag1  1  0.75000  0.25000  0.50000  1
 Ag  Ag2  1  0.50000  0.50000  0.00000  1
 Al  Al1  1  0.25000  0.75000  0.50000  1
 In  In1  1  0.00000  0.00000  0.00000  1
 S  S1  1  0.13443  0.09127  0.49155  1
 S  S2  1  0.59972  0.64288  0.50845  1
 S  S3  1  0.35712  0.86557  0.95684  1
 S  S4  1  0.90873  0.40028  0.04316  1
