CIF file written using JARVIS-Tools package.
data_CaSi2
_symmetry_space_group_name_H-M  'R-3m'
_cell_length_a       5.71586
_cell_length_b       5.71587
_cell_length_c       5.71587
_cell_angle_alpha    39.4628
_cell_angle_beta     39.4627
_cell_angle_gamma    39.4627

_symmetry_Int_Tables_number  166
_chemical_formula_structural  CaSi2
_chemical_formula_sum  CaSi2
_cell_volume  67.90050875538847
_cell_formula_units_Z  1
loop_
  _symmetry_equiv_pos_site_id
 _symmetry_equiv_pos_as_xyz
 1  'x, y, z'
loop_
 _atom_site_type_symbol
 _atom_site_label
 _atom_site_symmetry_multiplicity
 _atom_site_fract_x
 _atom_site_fract_y
 _atom_site_fract_z
 _atom_site_fract_occupancy
 Ca  Ca1  1  0.00000  0.00000  0.00000  1
 Si  Si1  1  0.80187  0.80187  0.80187  1
 Si  Si2  1  0.19813  0.19813  0.19813  1
