CIF file written using JARVIS-Tools package.
data_Ho2CuO4
_symmetry_space_group_name_H-M  'Cmce'
_cell_length_a       5.46732
_cell_length_b       6.47035
_cell_length_c       5.4709
_cell_angle_alpha    115.009
_cell_angle_beta     90
_cell_angle_gamma    90

_symmetry_Int_Tables_number  64
_chemical_formula_structural  Ho2CuO4
_chemical_formula_sum  Ho4Cu2O8
_cell_volume  175.3896343079999
_cell_formula_units_Z  2
loop_
  _symmetry_equiv_pos_site_id
 _symmetry_equiv_pos_as_xyz
 1  'x, y, z'
loop_
 _atom_site_type_symbol
 _atom_site_label
 _atom_site_symmetry_multiplicity
 _atom_site_fract_x
 _atom_site_fract_y
 _atom_site_fract_z
 _atom_site_fract_occupancy
 Cu  Cu1  1  0.00000  0.00000  0.00000  1
 Cu  Cu2  1  0.50000  0.00000  0.50000  1
 Ho  Ho1  1  0.00000  0.30764  0.65382  1
 Ho  Ho2  1  0.00000  0.69236  0.34618  1
 Ho  Ho3  1  0.50000  0.69236  0.84618  1
 Ho  Ho4  1  0.50000  0.30764  0.15382  1
 O  O1  1  0.20292  0.00000  0.29780  1
 O  O2  1  0.25000  0.50000  0.99048  1
 O  O3  1  0.25000  0.50000  0.49048  1
 O  O4  1  0.29708  0.00000  0.79780  1
 O  O5  1  0.70292  0.00000  0.20220  1
 O  O6  1  0.75000  0.50000  0.50952  1
 O  O7  1  0.75000  0.50000  0.00952  1
 O  O8  1  0.79708  0.00000  0.70220  1
