CIF file written using JARVIS-Tools package.
data_HfZrCN
_symmetry_space_group_name_H-M  'R3m'
_cell_length_a       5.67321
_cell_length_b       5.67321
_cell_length_c       5.67321
_cell_angle_alpha    33.5143
_cell_angle_beta     33.5143
_cell_angle_gamma    33.5142

_symmetry_Int_Tables_number  160
_chemical_formula_structural  HfZrCN
_chemical_formula_sum  HfZrCN
_cell_volume  49.57984364672451
_cell_formula_units_Z  1
loop_
  _symmetry_equiv_pos_site_id
 _symmetry_equiv_pos_as_xyz
 1  'x, y, z'
loop_
 _atom_site_type_symbol
 _atom_site_label
 _atom_site_symmetry_multiplicity
 _atom_site_fract_x
 _atom_site_fract_y
 _atom_site_fract_z
 _atom_site_fract_occupancy
 C  C1  1  0.74820  0.74820  0.74820  1
 Hf  Hf1  1  0.00094  0.00094  0.00094  1
 N  N1  1  0.25194  0.25194  0.25194  1
 Zr  Zr1  1  0.49892  0.49892  0.49892  1
