CIF file written using JARVIS-Tools package.
data_SiSnN2
_symmetry_space_group_name_H-M  'Ima2'
_cell_length_a       4.9722
_cell_length_b       5.28833
_cell_length_c       5.28833
_cell_angle_alpha    62.8676
_cell_angle_beta     61.9586
_cell_angle_gamma    61.9585

_symmetry_Int_Tables_number  46
_chemical_formula_structural  SiSnN2
_chemical_formula_sum  Si2Sn2N4
_cell_volume  103.2745350937072
_cell_formula_units_Z  2
loop_
  _symmetry_equiv_pos_site_id
 _symmetry_equiv_pos_as_xyz
 1  'x, y, z'
loop_
 _atom_site_type_symbol
 _atom_site_label
 _atom_site_symmetry_multiplicity
 _atom_site_fract_x
 _atom_site_fract_y
 _atom_site_fract_z
 _atom_site_fract_occupancy
 N  N1  1  0.93504  0.90967  0.90967  1
 N  N2  1  0.25438  0.09033  0.09033  1
 N  N3  1  0.62734  0.50000  -0.00000  1
 N  N4  1  0.62734  0.00000  0.50000  1
 Si  Si1  1  0.62014  0.87947  0.87948  1
 Si  Si2  1  0.87909  0.12053  0.12052  1
 Sn  Sn1  1  0.17861  0.36972  0.36972  1
 Sn  Sn2  1  0.41805  0.63028  0.63028  1
