CIF file written using JARVIS-Tools package.
data_DyAg2
_symmetry_space_group_name_H-M  'I4/mmm'
_cell_length_a       3.72365
_cell_length_b       3.72365
_cell_length_c       5.28519
_cell_angle_alpha    110.626
_cell_angle_beta     110.626
_cell_angle_gamma    90

_symmetry_Int_Tables_number  139
_chemical_formula_structural  DyAg2
_chemical_formula_sum  DyAg2
_cell_volume  63.54075091245009
_cell_formula_units_Z  1
loop_
  _symmetry_equiv_pos_site_id
 _symmetry_equiv_pos_as_xyz
 1  'x, y, z'
loop_
 _atom_site_type_symbol
 _atom_site_label
 _atom_site_symmetry_multiplicity
 _atom_site_fract_x
 _atom_site_fract_y
 _atom_site_fract_z
 _atom_site_fract_occupancy
 Ag  Ag1  1  0.66900  0.66900  0.33800  1
 Ag  Ag2  1  0.33100  0.33100  0.66200  1
 Dy  Dy1  1  0.00000  0.00000  0.00000  1
