CIF file written using JARVIS-Tools package.
data_LaThPb6
_symmetry_space_group_name_H-M  'P4/mmm'
_cell_length_a       4.9344
_cell_length_b       4.9344
_cell_length_c       9.89128
_cell_angle_alpha    90
_cell_angle_beta     90
_cell_angle_gamma    90

_symmetry_Int_Tables_number  123
_chemical_formula_structural  LaThPb6
_chemical_formula_sum  LaThPb6
_cell_volume  240.83626800826445
_cell_formula_units_Z  1
loop_
  _symmetry_equiv_pos_site_id
 _symmetry_equiv_pos_as_xyz
 1  'x, y, z'
loop_
 _atom_site_type_symbol
 _atom_site_label
 _atom_site_symmetry_multiplicity
 _atom_site_fract_x
 _atom_site_fract_y
 _atom_site_fract_z
 _atom_site_fract_occupancy
 La  La1  1  0.00000  0.00000  0.00000  1
 Pb  Pb1  1  0.50000  0.50000  0.00000  1
 Pb  Pb2  1  0.50000  0.50000  0.50000  1
 Pb  Pb3  1  0.50000  0.00000  0.25195  1
 Pb  Pb4  1  0.50000  0.00000  0.74805  1
 Pb  Pb5  1  0.00000  0.50000  0.25195  1
 Pb  Pb6  1  0.00000  0.50000  0.74805  1
 Th  Th1  1  0.00000  0.00000  0.50000  1
