CIF file written using JARVIS-Tools package.
data_HCF
_symmetry_space_group_name_H-M  'P2_1/c'
_cell_length_a       4.74686
_cell_length_b       9.06872
_cell_length_c       4.64437
_cell_angle_alpha    90
_cell_angle_beta     91.4888
_cell_angle_gamma    90

_symmetry_Int_Tables_number  14
_chemical_formula_structural  HCF
_chemical_formula_sum  H8C8F8
_cell_volume  199.8630600092599
_cell_formula_units_Z  8
loop_
  _symmetry_equiv_pos_site_id
 _symmetry_equiv_pos_as_xyz
 1  'x, y, z'
loop_
 _atom_site_type_symbol
 _atom_site_label
 _atom_site_symmetry_multiplicity
 _atom_site_fract_x
 _atom_site_fract_y
 _atom_site_fract_z
 _atom_site_fract_occupancy
 C  C1  1  0.32619  0.81405  0.19009  1
 C  C2  1  0.67381  0.18595  0.80991  1
 C  C3  1  0.76846  0.31339  0.62529  1
 C  C4  1  0.67381  0.31405  0.30991  1
 C  C5  1  0.23154  0.81339  0.87471  1
 C  C6  1  0.76846  0.18661  0.12529  1
 C  C7  1  0.23154  0.68661  0.37471  1
 C  C8  1  0.32619  0.68595  0.69009  1
 F  F1  1  0.22477  0.94731  0.30235  1
 F  F2  1  0.62026  0.82861  0.21045  1
 F  F3  1  0.22477  0.55269  0.80235  1
 F  F4  1  0.62026  0.67139  0.71045  1
 F  F5  1  0.77523  0.05269  0.69765  1
 F  F6  1  0.37974  0.17139  0.78955  1
 F  F7  1  0.77523  0.44731  0.19765  1
 F  F8  1  0.37974  0.32861  0.28955  1
 H  H1  1  0.69204  0.41640  0.71952  1
 H  H2  1  -0.00009  0.31721  0.63573  1
 H  H3  1  0.30796  0.91640  0.78048  1
 H  H4  1  0.00009  0.81721  0.86427  1
 H  H5  1  0.30796  0.58360  0.28048  1
 H  H6  1  0.00009  0.68279  0.36427  1
 H  H7  1  0.69204  0.08360  0.21952  1
 H  H8  1  -0.00009  0.18279  0.13573  1
