CIF file written using JARVIS-Tools package.
data_H7BrO3
_symmetry_space_group_name_H-M  'Cc'
_cell_length_a       6.24725
_cell_length_b       6.43106
_cell_length_c       6.43106
_cell_angle_alpha    57.3134
_cell_angle_beta     91.7815
_cell_angle_gamma    91.7815

_symmetry_Int_Tables_number  9
_chemical_formula_structural  H7BrO3
_chemical_formula_sum  H4Br2O6
_cell_volume  217.3226589145541
_cell_formula_units_Z  2
loop_
  _symmetry_equiv_pos_site_id
 _symmetry_equiv_pos_as_xyz
 1  'x, y, z'
loop_
 _atom_site_type_symbol
 _atom_site_label
 _atom_site_symmetry_multiplicity
 _atom_site_fract_x
 _atom_site_fract_y
 _atom_site_fract_z
 _atom_site_fract_occupancy
 Br  Br1  1  -0.00155  0.07667  0.95313  1
 Br  Br2  1  0.49845  0.45313  0.57667  1
 H  H1  1  0.45473  0.02555  0.81039  1
 H  H2  1  0.24438  0.68986  0.54967  1
 H  H3  1  0.60436  0.82513  0.81171  1
 H  H4  1  0.95473  0.31039  0.52555  1
 H  H5  1  0.86728  0.56597  0.01001  1
 H  H6  1  0.75380  0.53757  0.79375  1
 H  H7  1  0.10436  0.31171  0.32513  1
 H  H8  1  0.03560  0.74496  0.67842  1
 H  H9  1  0.29620  0.84410  0.68532  1
 H  H10  1  0.74438  0.04967  0.18986  1
 H  H11  1  0.79620  0.18532  0.34410  1
 H  H12  1  0.36728  0.51001  0.06597  1
 H  H13  1  0.25380  0.29375  0.03757  1
 H  H14  1  0.53560  0.17842  0.24496  1
 O  O1  1  0.17672  0.81265  0.58034  1
 O  O2  1  0.67672  0.08034  0.31265  1
 O  O3  1  0.45588  0.85593  0.84122  1
 O  O4  1  0.95588  0.34122  0.35593  1
 O  O5  1  0.82977  0.65294  0.83177  1
 O  O6  1  0.32977  0.33177  0.15294  1
