CIF file written using JARVIS-Tools package.
data_H3C3O
_symmetry_space_group_name_H-M  'P-1'
_cell_length_a       4.53031
_cell_length_b       5.72941
_cell_length_c       10.1987
_cell_angle_alpha    94.3741
_cell_angle_beta     101.838
_cell_angle_gamma    110.125

_symmetry_Int_Tables_number  2
_chemical_formula_structural  H3C3O
_chemical_formula_sum  H2C2O4
_cell_volume  240.14479305176468
_cell_formula_units_Z  4
loop_
  _symmetry_equiv_pos_site_id
 _symmetry_equiv_pos_as_xyz
 1  'x, y, z'
loop_
 _atom_site_type_symbol
 _atom_site_label
 _atom_site_symmetry_multiplicity
 _atom_site_fract_x
 _atom_site_fract_y
 _atom_site_fract_z
 _atom_site_fract_occupancy
 C  C1  1  0.99614  0.36511  0.49827  1
 C  C2  1  0.26043  0.22851  0.05050  1
 C  C3  1  0.01000  0.21476  0.94174  1
 C  C4  1  0.74735  0.98692  0.89153  1
 C  C5  1  0.25265  0.01308  0.10847  1
 C  C6  1  0.73957  0.77149  0.94950  1
 C  C7  1  0.99000  0.78524  0.05826  1
 C  C8  1  0.48195  0.98367  0.77699  1
 C  C9  1  0.95369  0.73754  0.63361  1
 C  C10  1  0.04631  0.26246  0.36639  1
 C  C11  1  0.00386  0.63489  0.50173  1
 C  C12  1  0.51805  0.01633  0.22301  1
 H  H1  1  0.54002  0.59385  0.90696  1
 H  H2  1  0.45998  0.40615  0.09304  1
 H  H3  1  0.01237  0.37902  0.89420  1
 H  H4  1  0.98763  0.62098  0.10580  1
 H  H5  1  0.74272  0.60542  0.66029  1
 H  H6  1  0.81243  0.64381  0.41852  1
 H  H7  1  0.93398  0.92244  0.63063  1
 H  H8  1  0.06602  0.07756  0.36937  1
 H  H9  1  0.18757  0.35619  0.58148  1
 H  H10  1  0.23560  0.75992  0.48542  1
 H  H11  1  0.76440  0.24008  0.51458  1
 H  H12  1  0.25728  0.39458  0.33971  1
 O  O1  1  0.50568  0.83698  0.28345  1
 O  O2  1  0.22621  0.76241  0.74801  1
 O  O3  1  0.49432  0.16302  0.71655  1
 O  O4  1  0.77379  0.23759  0.25199  1
