CIF file written using JARVIS-Tools package.
data_RbCaH6N3
_symmetry_space_group_name_H-M  'C2/c'
_cell_length_a       6.85585
_cell_length_b       6.85585
_cell_length_c       6.61711
_cell_angle_alpha    79.704
_cell_angle_beta     100.296
_cell_angle_gamma    61.5416

_symmetry_Int_Tables_number  15
_chemical_formula_structural  RbCaH6N3
_chemical_formula_sum  Rb2Ca2H2N6
_cell_volume  256.2099124247338
_cell_formula_units_Z  2
loop_
  _symmetry_equiv_pos_site_id
 _symmetry_equiv_pos_as_xyz
 1  'x, y, z'
loop_
 _atom_site_type_symbol
 _atom_site_label
 _atom_site_symmetry_multiplicity
 _atom_site_fract_x
 _atom_site_fract_y
 _atom_site_fract_z
 _atom_site_fract_occupancy
 Ca  Ca1  1  -0.00000  -0.00000  0.50000  1
 Ca  Ca2  1  0.00000  0.00000  0.00000  1
 H  H1  1  0.79317  0.47517  0.19716  1
 H  H2  1  0.90190  0.66694  0.32825  1
 H  H3  1  0.66694  0.90190  0.17175  1
 H  H4  1  0.09810  0.33306  0.67175  1
 H  H5  1  0.33306  0.09810  0.82825  1
 H  H6  1  0.20683  0.52483  0.80284  1
 H  H7  1  0.52483  0.20683  0.69716  1
 H  H8  1  0.34717  0.63728  0.89626  1
 H  H9  1  0.63728  0.34717  0.60374  1
 H  H10  1  0.65283  0.36272  0.10374  1
 H  H11  1  0.36272  0.65283  0.39626  1
 H  H12  1  0.47517  0.79317  0.30284  1
 N  N1  1  0.83897  0.83897  0.25000  1
 N  N2  1  0.82065  0.32744  0.15730  1
 N  N3  1  0.16103  0.16103  0.75000  1
 N  N4  1  0.67256  0.17935  0.65730  1
 N  N5  1  0.32744  0.82065  0.34270  1
 N  N6  1  0.17935  0.67256  0.84270  1
 Rb  Rb1  1  0.28909  0.28909  0.25000  1
 Rb  Rb2  1  0.71091  0.71091  0.75000  1
