CIF file written using JARVIS-Tools package.
data_DyB3Mo
_symmetry_space_group_name_H-M  'P2_1/m'
_cell_length_a       3.16111
_cell_length_b       5.43509
_cell_length_c       6.88048
_cell_angle_alpha    77.995
_cell_angle_beta     90
_cell_angle_gamma    90

_symmetry_Int_Tables_number  11
_chemical_formula_structural  DyB3Mo
_chemical_formula_sum  Dy2B6Mo2
_cell_volume  115.62772287417454
_cell_formula_units_Z  2
loop_
  _symmetry_equiv_pos_site_id
 _symmetry_equiv_pos_as_xyz
 1  'x, y, z'
loop_
 _atom_site_type_symbol
 _atom_site_label
 _atom_site_symmetry_multiplicity
 _atom_site_fract_x
 _atom_site_fract_y
 _atom_site_fract_z
 _atom_site_fract_occupancy
 B  B1  1  0.25000  0.91982  0.52468  1
 B  B2  1  0.75000  0.08018  0.47532  1
 B  B3  1  0.25000  0.91252  0.00414  1
 B  B4  1  0.75000  0.08748  0.99586  1
 B  B5  1  0.25000  0.58365  0.00633  1
 B  B6  1  0.75000  0.41635  0.99367  1
 Dy  Dy1  1  0.25000  0.32631  0.70850  1
 Dy  Dy2  1  0.75000  0.67369  0.29150  1
 Mo  Mo1  1  0.25000  0.18843  0.22082  1
 Mo  Mo2  1  0.75000  0.81157  0.77918  1
