CIF file written using JARVIS-Tools package.
data_RbFe2Se3
_symmetry_space_group_name_H-M  'Cmcm'
_cell_length_a       5.3663
_cell_length_b       7.36288
_cell_length_c       7.36288
_cell_angle_alpha    101.776
_cell_angle_beta     90
_cell_angle_gamma    90

_symmetry_Int_Tables_number  63
_chemical_formula_structural  RbFe2Se3
_chemical_formula_sum  Rb2Fe4Se6
_cell_volume  284.7948422141598
_cell_formula_units_Z  2
loop_
  _symmetry_equiv_pos_site_id
 _symmetry_equiv_pos_as_xyz
 1  'x, y, z'
loop_
 _atom_site_type_symbol
 _atom_site_label
 _atom_site_symmetry_multiplicity
 _atom_site_fract_x
 _atom_site_fract_y
 _atom_site_fract_z
 _atom_site_fract_occupancy
 Fe  Fe1  1  0.00000  0.14061  0.14061  1
 Fe  Fe2  1  0.50000  0.85939  0.85939  1
 Fe  Fe3  1  0.00000  0.85939  0.85939  1
 Fe  Fe4  1  0.50000  0.14061  0.14061  1
 Rb  Rb1  1  0.25000  0.33004  0.66996  1
 Rb  Rb2  1  0.75000  0.66996  0.33004  1
 Se  Se1  1  0.75000  0.16864  0.39113  1
 Se  Se2  1  0.25000  0.83136  0.60887  1
 Se  Se3  1  0.75000  0.11879  0.88121  1
 Se  Se4  1  0.25000  0.88121  0.11879  1
 Se  Se5  1  0.75000  0.60887  0.83136  1
 Se  Se6  1  0.25000  0.39113  0.16864  1
