CIF file written using JARVIS-Tools package.
data_BaGeAu3
_symmetry_space_group_name_H-M  'I4mm'
_cell_length_a       6.1332
_cell_length_b       6.1332
_cell_length_c       6.1332
_cell_angle_alpha    133.275
_cell_angle_beta     133.275
_cell_angle_gamma    68.223

_symmetry_Int_Tables_number  107
_chemical_formula_structural  BaGeAu3
_chemical_formula_sum  BaGeAu3
_cell_volume  120.14859506869719
_cell_formula_units_Z  1
loop_
  _symmetry_equiv_pos_site_id
 _symmetry_equiv_pos_as_xyz
 1  'x, y, z'
loop_
 _atom_site_type_symbol
 _atom_site_label
 _atom_site_symmetry_multiplicity
 _atom_site_fract_x
 _atom_site_fract_y
 _atom_site_fract_z
 _atom_site_fract_occupancy
 Au  Au1  1  0.76367  0.26367  0.50000  1
 Au  Au2  1  0.26367  0.76367  0.50000  1
 Au  Au3  1  0.60934  0.60934  -0.00000  1
 Ba  Ba1  1  0.00544  0.00544  0.00000  1
 Ge  Ge1  1  0.35787  0.35787  -0.00000  1
