CIF file written using JARVIS-Tools package.
data_Ac3Eu
_symmetry_space_group_name_H-M  'P6_3/mmc'
_cell_length_a       7.82461
_cell_length_b       7.82461
_cell_length_c       6.2859
_cell_angle_alpha    90
_cell_angle_beta     90
_cell_angle_gamma    120

_symmetry_Int_Tables_number  194
_chemical_formula_structural  Ac3Eu
_chemical_formula_sum  Ac6Eu2
_cell_volume  333.29031926695603
_cell_formula_units_Z  2
loop_
  _symmetry_equiv_pos_site_id
 _symmetry_equiv_pos_as_xyz
 1  'x, y, z'
loop_
 _atom_site_type_symbol
 _atom_site_label
 _atom_site_symmetry_multiplicity
 _atom_site_fract_x
 _atom_site_fract_y
 _atom_site_fract_z
 _atom_site_fract_occupancy
 Ac  Ac1  1  0.16933  0.33865  0.25000  1
 Ac  Ac2  1  0.66135  0.83067  0.25000  1
 Ac  Ac3  1  0.16933  0.83067  0.25000  1
 Ac  Ac4  1  0.83067  0.66135  0.75000  1
 Ac  Ac5  1  0.33865  0.16933  0.75000  1
 Ac  Ac6  1  0.83067  0.16933  0.75000  1
 Eu  Eu1  1  0.33333  0.66667  0.75000  1
 Eu  Eu2  1  0.66667  0.33333  0.25000  1
