CIF file written using JARVIS-Tools package.
data_La4GaSi3
_symmetry_space_group_name_H-M  'Pmm2'
_cell_length_a       4.05144
_cell_length_b       4.5607
_cell_length_c       11.3587
_cell_angle_alpha    90
_cell_angle_beta     90
_cell_angle_gamma    90

_symmetry_Int_Tables_number  25
_chemical_formula_structural  La4GaSi3
_chemical_formula_sum  La4GaSi3
_cell_volume  209.87940165816656
_cell_formula_units_Z  1
loop_
  _symmetry_equiv_pos_site_id
 _symmetry_equiv_pos_as_xyz
 1  'x, y, z'
loop_
 _atom_site_type_symbol
 _atom_site_label
 _atom_site_symmetry_multiplicity
 _atom_site_fract_x
 _atom_site_fract_y
 _atom_site_fract_z
 _atom_site_fract_occupancy
 Ga  Ga1  1  0.00000  0.00000  0.06922  1
 La  La1  1  0.00000  0.00000  0.36042  1
 La  La2  1  0.00000  0.50000  0.85607  1
 La  La3  1  0.50000  0.50000  0.14295  1
 La  La4  1  0.50000  0.00000  0.64120  1
 Si  Si1  1  0.00000  0.50000  0.56921  1
 Si  Si2  1  0.50000  0.50000  0.43244  1
 Si  Si3  1  0.50000  0.00000  0.92850  1
