data_image0
_chemical_formula_structural       Ca2Ir2Sn4
_chemical_formula_sum              "Ca2 Ir2 Sn4"
_cell_length_a       4.34835
_cell_length_b       5.84687
_cell_length_c       7.67113
_cell_angle_alpha    90
_cell_angle_beta     90
_cell_angle_gamma    68.17

_space_group_name_H-M_alt    "P 1"
_space_group_IT_number       1

loop_
  _space_group_symop_operation_xyz
  'x, y, z'

loop_
  _atom_site_type_symbol
  _atom_site_label
  _atom_site_symmetry_multiplicity
  _atom_site_fract_x
  _atom_site_fract_y
  _atom_site_fract_z
  _atom_site_occupancy
  Ca  Ca1       1.0  0.93200  0.13600  0.25000  1.0000
  Ca  Ca2       1.0  0.06780  0.86400  0.75000  1.0000
  Ir  Ir1       1.0  0.21200  0.57600  0.25000  1.0000
  Ir  Ir2       1.0  0.78800  0.42400  0.75000  1.0000
  Sn  Sn1       1.0  0.64400  0.71200  0.04650  1.0000
  Sn  Sn2       1.0  0.64400  0.71200  0.45300  1.0000
  Sn  Sn3       1.0  0.35600  0.28800  0.54700  1.0000
  Sn  Sn4       1.0  0.35600  0.28800  0.95300  1.0000
