CIF file written using JARVIS-Tools package.
data_BaNiIO6
_symmetry_space_group_name_H-M  'P312'
_cell_length_a       5.16496
_cell_length_b       5.16495
_cell_length_c       5.80489
_cell_angle_alpha    90
_cell_angle_beta     90
_cell_angle_gamma    120

_symmetry_Int_Tables_number  149
_chemical_formula_structural  BaNiIO6
_chemical_formula_sum  BaNiIO6
_cell_volume  134.10893029177137
_cell_formula_units_Z  1
loop_
  _symmetry_equiv_pos_site_id
 _symmetry_equiv_pos_as_xyz
 1  'x, y, z'
loop_
 _atom_site_type_symbol
 _atom_site_label
 _atom_site_symmetry_multiplicity
 _atom_site_fract_x
 _atom_site_fract_y
 _atom_site_fract_z
 _atom_site_fract_occupancy
 Ba  Ba1  1  0.00000  0.00000  0.00000  1
 I  I1  1  0.66667  0.33333  0.50000  1
 Ni  Ni1  1  0.33333  0.66667  0.50000  1
 O  O1  1  0.38769  0.00635  0.68877  1
 O  O2  1  0.99365  0.38134  0.68877  1
 O  O3  1  0.61866  0.61231  0.68877  1
 O  O4  1  0.99365  0.61231  0.31123  1
 O  O5  1  0.61866  0.00635  0.31123  1
 O  O6  1  0.38769  0.38134  0.31123  1
