CIF file written using JARVIS-Tools package.
data_BSbO3
_symmetry_space_group_name_H-M  'P-1'
_cell_length_a       4.80948
_cell_length_b       6.41732
_cell_length_c       6.20914
_cell_angle_alpha    92.0767
_cell_angle_beta     80.5057
_cell_angle_gamma    45.4849

_symmetry_Int_Tables_number  2
_chemical_formula_structural  BSbO3
_chemical_formula_sum  B2Sb2O6
_cell_volume  131.5987188037468
_cell_formula_units_Z  2
loop_
  _symmetry_equiv_pos_site_id
 _symmetry_equiv_pos_as_xyz
 1  'x, y, z'
loop_
 _atom_site_type_symbol
 _atom_site_label
 _atom_site_symmetry_multiplicity
 _atom_site_fract_x
 _atom_site_fract_y
 _atom_site_fract_z
 _atom_site_fract_occupancy
 B  B1  1  0.26107  0.99500  0.71349  1
 B  B2  1  0.73893  0.00500  0.28651  1
 O  O1  1  0.39570  0.73572  0.59513  1
 O  O2  1  0.53625  0.00177  0.72449  1
 O  O3  1  0.85636  0.23740  0.82335  1
 O  O4  1  0.14364  0.76260  0.17665  1
 O  O5  1  0.46375  -0.00177  0.27551  1
 O  O6  1  0.60430  0.26428  0.40487  1
 Sb  Sb1  1  0.34473  0.41458  0.74603  1
 Sb  Sb2  1  0.65527  0.58542  0.25397  1
