CIF file written using JARVIS-Tools package.
data_K2VO2F3
_symmetry_space_group_name_H-M  'Pnma'
_cell_length_a       5.65932
_cell_length_b       7.30374
_cell_length_c       11.376
_cell_angle_alpha    90
_cell_angle_beta     90
_cell_angle_gamma    90

_symmetry_Int_Tables_number  62
_chemical_formula_structural  K2VO2F3
_chemical_formula_sum  K8V4O8F2
_cell_volume  470.22040916104635
_cell_formula_units_Z  4
loop_
  _symmetry_equiv_pos_site_id
 _symmetry_equiv_pos_as_xyz
 1  'x, y, z'
loop_
 _atom_site_type_symbol
 _atom_site_label
 _atom_site_symmetry_multiplicity
 _atom_site_fract_x
 _atom_site_fract_y
 _atom_site_fract_z
 _atom_site_fract_occupancy
 F  F1  1  0.75000  0.72447  0.09069  1
 F  F2  1  0.25000  0.53185  0.30504  1
 F  F3  1  0.00000  0.00000  0.00000  1
 F  F4  1  0.25000  0.77553  0.59069  1
 F  F5  1  0.75000  0.22447  0.40931  1
 F  F6  1  0.50000  0.50000  0.50000  1
 F  F7  1  0.25000  0.27553  0.90931  1
 F  F8  1  0.50000  0.00000  0.00000  1
 F  F9  1  0.75000  0.96815  0.80504  1
 F  F10  1  0.25000  0.03185  0.19496  1
 F  F11  1  0.75000  0.46815  0.69496  1
 F  F12  1  0.00000  0.50000  0.50000  1
 K  K1  1  0.75000  0.81263  0.58941  1
 K  K2  1  0.25000  0.18737  0.41059  1
 K  K3  1  0.75000  0.31263  0.91059  1
 K  K4  1  0.25000  0.68737  0.08941  1
 K  K5  1  0.75000  0.52667  0.28498  1
 K  K6  1  0.25000  0.47333  0.71502  1
 K  K7  1  0.75000  0.02667  0.21502  1
 K  K8  1  0.25000  0.97333  0.78498  1
 O  O1  1  0.51971  0.67282  0.88560  1
 O  O2  1  0.01971  0.32718  0.11440  1
 O  O3  1  0.01971  0.82718  0.38560  1
 O  O4  1  0.48029  0.82718  0.38560  1
 O  O5  1  0.98029  0.67282  0.88560  1
 O  O6  1  0.48029  0.32718  0.11440  1
 O  O7  1  0.51971  0.17282  0.61440  1
 O  O8  1  0.98029  0.17282  0.61440  1
 V  V1  1  0.25000  0.70347  0.42878  1
 V  V2  1  0.25000  0.20347  0.07122  1
 V  V3  1  0.75000  0.29653  0.57122  1
 V  V4  1  0.75000  0.79653  0.92878  1
