CIF file written using JARVIS-Tools package.
data_CeCr2B6
_symmetry_space_group_name_H-M  'Immm'
_cell_length_a       3.08244
_cell_length_b       5.50873
_cell_length_c       5.50873
_cell_angle_alpha    72.8588
_cell_angle_beta     73.7531
_cell_angle_gamma    73.7531

_symmetry_Int_Tables_number  71
_chemical_formula_structural  CeCr2B6
_chemical_formula_sum  CeCr2B6
_cell_volume  83.80699195872646
_cell_formula_units_Z  1
loop_
  _symmetry_equiv_pos_site_id
 _symmetry_equiv_pos_as_xyz
 1  'x, y, z'
loop_
 _atom_site_type_symbol
 _atom_site_label
 _atom_site_symmetry_multiplicity
 _atom_site_fract_x
 _atom_site_fract_y
 _atom_site_fract_z
 _atom_site_fract_occupancy
 B  B1  1  0.69640  0.54089  0.06632  1
 B  B2  1  0.30360  0.45911  0.93368  1
 B  B3  1  0.30360  0.93368  0.45911  1
 B  B4  1  0.50000  0.35806  0.64194  1
 B  B5  1  0.50000  0.64194  0.35806  1
 B  B6  1  0.69640  0.06632  0.54089  1
 Ce  Ce1  1  0.00000  0.00000  0.00000  1
 Cr  Cr1  1  0.84510  0.65490  0.65490  1
 Cr  Cr2  1  0.15490  0.34510  0.34510  1
