CIF file written using JARVIS-Tools package.
data_MnCoB
_symmetry_space_group_name_H-M  'Fmmm'
_cell_length_a       5.04172
_cell_length_b       4.17335
_cell_length_c       4.09021
_cell_angle_alpha    75.188
_cell_angle_beta     53.1546
_cell_angle_gamma    51.6573

_symmetry_Int_Tables_number  69
_chemical_formula_structural  MnCoB
_chemical_formula_sum  Mn2Co2B2
_cell_volume  53.08030822143146
_cell_formula_units_Z  2
loop_
  _symmetry_equiv_pos_site_id
 _symmetry_equiv_pos_as_xyz
 1  'x, y, z'
loop_
 _atom_site_type_symbol
 _atom_site_label
 _atom_site_symmetry_multiplicity
 _atom_site_fract_x
 _atom_site_fract_y
 _atom_site_fract_z
 _atom_site_fract_occupancy
 B  B1  1  0.75000  0.75000  0.75000  1
 B  B2  1  0.25000  0.25000  0.25000  1
 Co  Co1  1  0.16568  0.16568  0.83432  1
 Co  Co2  1  0.83432  0.83432  0.16568  1
 Mn  Mn1  1  0.33896  0.66104  0.33896  1
 Mn  Mn2  1  0.66104  0.33896  0.66104  1
