CIF file written using JARVIS-Tools package.
data_SrCaSi4
_symmetry_space_group_name_H-M  'P-3m1'
_cell_length_a       3.95724
_cell_length_b       3.95724
_cell_length_c       10.0508
_cell_angle_alpha    90
_cell_angle_beta     90
_cell_angle_gamma    120

_symmetry_Int_Tables_number  164
_chemical_formula_structural  SrCaSi4
_chemical_formula_sum  SrCaSi4
_cell_volume  136.30595533977788
_cell_formula_units_Z  1
loop_
  _symmetry_equiv_pos_site_id
 _symmetry_equiv_pos_as_xyz
 1  'x, y, z'
loop_
 _atom_site_type_symbol
 _atom_site_label
 _atom_site_symmetry_multiplicity
 _atom_site_fract_x
 _atom_site_fract_y
 _atom_site_fract_z
 _atom_site_fract_occupancy
 Ca  Ca1  1  0.00000  0.00000  0.00000  1
 Si  Si1  1  0.66667  0.33333  0.71656  1
 Si  Si2  1  0.66667  0.33333  0.19873  1
 Si  Si3  1  0.33333  0.66667  0.80127  1
 Si  Si4  1  0.33333  0.66667  0.28344  1
 Sr  Sr1  1  0.00000  0.00000  0.50000  1
