CIF file written using JARVIS-Tools package.
data_CeIrPt
_symmetry_space_group_name_H-M  'Imma'
_cell_length_a       5.43323
_cell_length_b       5.43322
_cell_length_c       5.43322
_cell_angle_alpha    120.719
_cell_angle_beta     119.448
_cell_angle_gamma    89.8593

_symmetry_Int_Tables_number  74
_chemical_formula_structural  CeIrPt
_chemical_formula_sum  Ce2Ir2Pt2
_cell_volume  113.25104108671037
_cell_formula_units_Z  2
loop_
  _symmetry_equiv_pos_site_id
 _symmetry_equiv_pos_as_xyz
 1  'x, y, z'
loop_
 _atom_site_type_symbol
 _atom_site_label
 _atom_site_symmetry_multiplicity
 _atom_site_fract_x
 _atom_site_fract_y
 _atom_site_fract_z
 _atom_site_fract_occupancy
 Ce  Ce1  1  0.12174  0.87174  0.25000  1
 Ce  Ce2  1  0.87826  0.12826  0.75000  1
 Ir  Ir1  1  -0.00000  0.50000  0.50000  1
 Ir  Ir2  1  0.50000  0.50000  -0.00000  1
 Pt  Pt1  1  0.50000  0.00000  0.00000  1
 Pt  Pt2  1  0.50000  0.50000  0.50000  1
