CIF file written using JARVIS-Tools package.
data_NaBC
_symmetry_space_group_name_H-M  'P6_3/mmc'
_cell_length_a       2.8134
_cell_length_b       2.8134
_cell_length_c       8.34405
_cell_angle_alpha    90
_cell_angle_beta     90
_cell_angle_gamma    120

_symmetry_Int_Tables_number  194
_chemical_formula_structural  NaBC
_chemical_formula_sum  Na2B2C2
_cell_volume  57.19663585742035
_cell_formula_units_Z  2
loop_
  _symmetry_equiv_pos_site_id
 _symmetry_equiv_pos_as_xyz
 1  'x, y, z'
loop_
 _atom_site_type_symbol
 _atom_site_label
 _atom_site_symmetry_multiplicity
 _atom_site_fract_x
 _atom_site_fract_y
 _atom_site_fract_z
 _atom_site_fract_occupancy
 B  B1  1  0.33333  0.66667  0.75000  1
 B  B2  1  0.66667  0.33333  0.25000  1
 C  C1  1  0.33333  0.66667  0.25000  1
 C  C2  1  0.66667  0.33333  0.75000  1
 Na  Na1  1  0.00000  0.00000  0.50000  1
 Na  Na2  1  0.00000  0.00000  0.00000  1
