CIF file written using JARVIS-Tools package.
data_CaZnAg
_symmetry_space_group_name_H-M  'C2/m'
_cell_length_a       5.83309
_cell_length_b       5.8331
_cell_length_c       7.29601
_cell_angle_alpha    51.6304
_cell_angle_beta     51.6303
_cell_angle_gamma    46.2223

_symmetry_Int_Tables_number  12
_chemical_formula_structural  CaZnAg
_chemical_formula_sum  Ca2Zn2Ag2
_cell_volume  132.26466184499307
_cell_formula_units_Z  2
loop_
  _symmetry_equiv_pos_site_id
 _symmetry_equiv_pos_as_xyz
 1  'x, y, z'
loop_
 _atom_site_type_symbol
 _atom_site_label
 _atom_site_symmetry_multiplicity
 _atom_site_fract_x
 _atom_site_fract_y
 _atom_site_fract_z
 _atom_site_fract_occupancy
 Ag  Ag1  1  0.82913  0.82913  0.72785  1
 Ag  Ag2  1  0.17087  0.17087  0.27215  1
 Ca  Ca1  1  0.45224  0.45224  0.30117  1
 Ca  Ca2  1  0.54776  0.54776  0.69883  1
 Zn  Zn1  1  0.15822  0.15822  0.89321  1
 Zn  Zn2  1  0.84178  0.84178  0.10679  1
