CIF file written using JARVIS-Tools package.
data_La2FeSn4
_symmetry_space_group_name_H-M  'Amm2'
_cell_length_a       8.9311
_cell_length_b       8.9311
_cell_length_c       4.63179
_cell_angle_alpha    90
_cell_angle_beta     90
_cell_angle_gamma    149.643

_symmetry_Int_Tables_number  38
_chemical_formula_structural  La2FeSn4
_chemical_formula_sum  La2FeSn4
_cell_volume  186.7141278776049
_cell_formula_units_Z  1
loop_
  _symmetry_equiv_pos_site_id
 _symmetry_equiv_pos_as_xyz
 1  'x, y, z'
loop_
 _atom_site_type_symbol
 _atom_site_label
 _atom_site_symmetry_multiplicity
 _atom_site_fract_x
 _atom_site_fract_y
 _atom_site_fract_z
 _atom_site_fract_occupancy
 Fe  Fe1  1  0.19710  0.80290  0.50000  1
 La  La1  1  0.39713  0.60287  0.50000  1
 La  La2  1  0.60320  0.39680  0.00000  1
 Sn  Sn1  1  0.75720  0.24280  0.50000  1
 Sn  Sn2  1  0.25567  0.74433  0.00000  1
 Sn  Sn3  1  0.05034  0.94966  0.50000  1
 Sn  Sn4  1  0.93605  0.06395  0.00000  1
