CIF file written using JARVIS-Tools package.
data_TiH10C6O4
_symmetry_space_group_name_H-M  'P1'
_cell_length_a       4.71535
_cell_length_b       6.19562
_cell_length_c       6.96027
_cell_angle_alpha    72.8449
_cell_angle_beta     81.9199
_cell_angle_gamma    80.4912

_symmetry_Int_Tables_number  1
_chemical_formula_structural  TiH10C6O4
_chemical_formula_sum  TiH0C6O4
_cell_volume  190.71300532821766
_cell_formula_units_Z  1
loop_
  _symmetry_equiv_pos_site_id
 _symmetry_equiv_pos_as_xyz
 1  'x, y, z'
loop_
 _atom_site_type_symbol
 _atom_site_label
 _atom_site_symmetry_multiplicity
 _atom_site_fract_x
 _atom_site_fract_y
 _atom_site_fract_z
 _atom_site_fract_occupancy
 C  C1  1  0.38593  0.35162  0.12799  1
 C  C2  1  0.49581  0.51654  0.93747  1
 C  C3  1  0.46554  0.09434  0.47533  1
 C  C4  1  0.05901  0.67881  0.44750  1
 C  C5  1  0.05509  0.01140  0.88676  1
 C  C6  1  0.59063  0.26481  0.29295  1
 H  H1  1  0.32585  0.20999  0.08356  1
 H  H2  1  0.06142  0.19222  0.80811  1
 H  H3  1  0.79919  0.18235  0.23978  1
 H  H4  1  0.28327  0.67730  0.37971  1
 H  H5  1  0.86057  0.99173  -0.00351  1
 H  H6  1  0.24853  0.94159  0.96760  1
 H  H7  1  0.00685  0.50250  0.51241  1
 H  H8  1  0.91246  0.77321  0.33231  1
 H  H9  1  0.64401  0.40397  0.34433  1
 H  H10  1  0.17995  0.43679  0.18254  1
 O  O1  1  0.63355  -0.00418  0.61897  1
 O  O2  1  0.33295  0.59192  0.79447  1
 O  O3  1  0.21402  0.05048  0.48567  1
 O  O4  1  0.74775  0.57570  0.92256  1
 Ti  Ti1  1  0.97067  0.80126  0.71079  1
