CIF file written using JARVIS-Tools package.
data_TlF
_symmetry_space_group_name_H-M  'Pbcm'
_cell_length_a       5.28089
_cell_length_b       5.41627
_cell_length_c       6.0983
_cell_angle_alpha    90
_cell_angle_beta     90
_cell_angle_gamma    90

_symmetry_Int_Tables_number  57
_chemical_formula_structural  TlF
_chemical_formula_sum  Tl4F4
_cell_volume  174.4280905813366
_cell_formula_units_Z  4
loop_
  _symmetry_equiv_pos_site_id
 _symmetry_equiv_pos_as_xyz
 1  'x, y, z'
loop_
 _atom_site_type_symbol
 _atom_site_label
 _atom_site_symmetry_multiplicity
 _atom_site_fract_x
 _atom_site_fract_y
 _atom_site_fract_z
 _atom_site_fract_occupancy
 F  F1  1  0.25000  0.04160  0.85028  1
 F  F2  1  0.75000  0.95840  0.14972  1
 F  F3  1  0.25000  0.54160  0.14972  1
 F  F4  1  0.75000  0.45840  0.85028  1
 Tl  Tl1  1  0.25000  0.00968  0.25690  1
 Tl  Tl2  1  0.75000  0.99032  0.74310  1
 Tl  Tl3  1  0.25000  0.50968  0.74310  1
 Tl  Tl4  1  0.75000  0.49032  0.25690  1
