CIF file written using JARVIS-Tools package.
data_Ba2Mn2As2O
_symmetry_space_group_name_H-M  'C2/m'
_cell_length_a       4.19021
_cell_length_b       6.3995
_cell_length_c       6.96342
_cell_angle_alpha    68.7591
_cell_angle_beta     72.5
_cell_angle_gamma    70.8735

_symmetry_Int_Tables_number  12
_chemical_formula_structural  Ba2Mn2As2O
_chemical_formula_sum  Ba2Mn2As2O
_cell_volume  160.8828605614985
_cell_formula_units_Z  1
loop_
  _symmetry_equiv_pos_site_id
 _symmetry_equiv_pos_as_xyz
 1  'x, y, z'
loop_
 _atom_site_type_symbol
 _atom_site_label
 _atom_site_symmetry_multiplicity
 _atom_site_fract_x
 _atom_site_fract_y
 _atom_site_fract_z
 _atom_site_fract_occupancy
 As  As1  1  0.31263  0.64101  0.73402  1
 As  As2  1  0.68666  0.36130  0.26599  1
 Ba  Ba1  1  0.94931  0.80804  0.29362  1
 Ba  Ba2  1  0.04999  0.19428  0.70639  1
 Mn  Mn1  1  0.69063  0.69674  0.92230  1
 Mn  Mn2  1  0.30867  0.30557  0.07771  1
 O  O1  1  0.49965  0.00116  0.00001  1
