CIF file written using JARVIS-Tools package.
data_Dy2PdPt
_symmetry_space_group_name_H-M  'Pmc2_1'
_cell_length_a       4.53378
_cell_length_b       5.54581
_cell_length_c       6.98933
_cell_angle_alpha    90
_cell_angle_beta     90
_cell_angle_gamma    90

_symmetry_Int_Tables_number  26
_chemical_formula_structural  Dy2PdPt
_chemical_formula_sum  Dy4Pd2Pt2
_cell_volume  175.73587031415127
_cell_formula_units_Z  2
loop_
  _symmetry_equiv_pos_site_id
 _symmetry_equiv_pos_as_xyz
 1  'x, y, z'
loop_
 _atom_site_type_symbol
 _atom_site_label
 _atom_site_symmetry_multiplicity
 _atom_site_fract_x
 _atom_site_fract_y
 _atom_site_fract_z
 _atom_site_fract_occupancy
 Dy  Dy1  1  0.00000  0.10230  0.68358  1
 Dy  Dy2  1  0.00000  0.89770  0.18358  1
 Dy  Dy3  1  0.50000  0.38983  0.31730  1
 Dy  Dy4  1  0.50000  0.61017  0.81730  1
 Pd  Pd1  1  0.00000  0.58770  0.54304  1
 Pd  Pd2  1  0.00000  0.41230  0.04304  1
 Pt  Pt1  1  0.50000  0.90334  0.45608  1
 Pt  Pt2  1  0.50000  0.09666  0.95608  1
