CIF file written using JARVIS-Tools package.
data_LiTa2O6
_symmetry_space_group_name_H-M  'R3'
_cell_length_a       5.54934
_cell_length_b       5.54933
_cell_length_c       5.54934
_cell_angle_alpha    56.2601
_cell_angle_beta     56.2602
_cell_angle_gamma    56.2601

_symmetry_Int_Tables_number  146
_chemical_formula_structural  LiTa2O6
_chemical_formula_sum  LiTa2O6
_cell_volume  110.38188974436785
_cell_formula_units_Z  1
loop_
  _symmetry_equiv_pos_site_id
 _symmetry_equiv_pos_as_xyz
 1  'x, y, z'
loop_
 _atom_site_type_symbol
 _atom_site_label
 _atom_site_symmetry_multiplicity
 _atom_site_fract_x
 _atom_site_fract_y
 _atom_site_fract_z
 _atom_site_fract_occupancy
 Li  Li1  1  0.21146  0.21146  0.21146  1
 O  O1  1  0.32981  0.17039  0.76217  1
 O  O2  1  0.76217  0.32981  0.17039  1
 O  O3  1  0.17039  0.76217  0.32981  1
 O  O4  1  0.25266  0.62310  0.87894  1
 O  O5  1  0.87894  0.25266  0.62310  1
 O  O6  1  0.62310  0.87894  0.25266  1
 Ta  Ta1  1  0.50212  0.50212  0.50212  1
 Ta  Ta2  1  0.99221  0.99221  0.99221  1
