CIF file written using JARVIS-Tools package.
data_Cr3Ru3C2
_symmetry_space_group_name_H-M  'P-3m1'
_cell_length_a       2.76966
_cell_length_b       2.76966
_cell_length_c       13.2106
_cell_angle_alpha    90
_cell_angle_beta     90
_cell_angle_gamma    120

_symmetry_Int_Tables_number  164
_chemical_formula_structural  Cr3Ru3C2
_chemical_formula_sum  Cr3Ru3C2
_cell_volume  87.76235024698218
_cell_formula_units_Z  1
loop_
  _symmetry_equiv_pos_site_id
 _symmetry_equiv_pos_as_xyz
 1  'x, y, z'
loop_
 _atom_site_type_symbol
 _atom_site_label
 _atom_site_symmetry_multiplicity
 _atom_site_fract_x
 _atom_site_fract_y
 _atom_site_fract_z
 _atom_site_fract_occupancy
 C  C1  1  0.33333  0.66667  0.09477  1
 C  C2  1  0.66667  0.33333  0.90523  1
 Cr  Cr1  1  0.66667  0.33333  0.17527  1
 Cr  Cr2  1  0.00000  0.00000  0.00000  1
 Cr  Cr3  1  0.33333  0.66667  0.82473  1
 Ru  Ru1  1  0.66667  0.33333  0.66505  1
 Ru  Ru2  1  0.00000  0.00000  0.50000  1
 Ru  Ru3  1  0.33333  0.66667  0.33495  1
