CIF file written using JARVIS-Tools package.
data_CaH2
_symmetry_space_group_name_H-M  'P6_3/mmc'
_cell_length_a       3.80374
_cell_length_b       3.80373
_cell_length_c       5.31029
_cell_angle_alpha    90
_cell_angle_beta     90
_cell_angle_gamma    120.013

_symmetry_Int_Tables_number  194
_chemical_formula_structural  CaH2
_chemical_formula_sum  Ca2H4
_cell_volume  66.52883167949027
_cell_formula_units_Z  2
loop_
  _symmetry_equiv_pos_site_id
 _symmetry_equiv_pos_as_xyz
 1  'x, y, z'
loop_
 _atom_site_type_symbol
 _atom_site_label
 _atom_site_symmetry_multiplicity
 _atom_site_fract_x
 _atom_site_fract_y
 _atom_site_fract_z
 _atom_site_fract_occupancy
 Ca  Ca1  1  0.16661  0.83339  0.25000  1
 Ca  Ca2  1  0.83339  0.16661  0.75000  1
 H  H1  1  0.83330  0.16670  0.25000  1
 H  H2  1  0.16670  0.83330  0.75000  1
 H  H3  1  0.50000  0.50000  0.00000  1
 H  H4  1  0.50000  0.50000  0.50000  1
