CIF file written using JARVIS-Tools package.
data_AuCl3
_symmetry_space_group_name_H-M  'P2_1/c'
_cell_length_a       6.45474
_cell_length_b       11.0118
_cell_length_c       6.46247
_cell_angle_alpha    90
_cell_angle_beta     113.799
_cell_angle_gamma    90

_symmetry_Int_Tables_number  14
_chemical_formula_structural  AuCl3
_chemical_formula_sum  Au4Cl2
_cell_volume  420.2836436041198
_cell_formula_units_Z  4
loop_
  _symmetry_equiv_pos_site_id
 _symmetry_equiv_pos_as_xyz
 1  'x, y, z'
loop_
 _atom_site_type_symbol
 _atom_site_label
 _atom_site_symmetry_multiplicity
 _atom_site_fract_x
 _atom_site_fract_y
 _atom_site_fract_z
 _atom_site_fract_occupancy
 Au  Au1  1  0.26126  0.58826  0.96069  1
 Au  Au2  1  0.23874  0.08826  0.03931  1
 Au  Au3  1  0.73874  0.41174  0.03931  1
 Au  Au4  1  0.76126  0.91174  0.96069  1
 Cl  Cl1  1  0.10514  0.65954  0.19830  1
 Cl  Cl2  1  0.39486  0.15954  0.80170  1
 Cl  Cl3  1  0.89486  0.34046  0.80170  1
 Cl  Cl4  1  0.60514  0.84046  0.19830  1
 Cl  Cl5  1  0.93892  0.99328  0.73349  1
 Cl  Cl6  1  0.56108  0.49328  0.26651  1
 Cl  Cl7  1  0.06108  0.00672  0.26651  1
 Cl  Cl8  1  0.43892  0.50672  0.73349  1
 Cl  Cl9  1  0.47603  0.82651  0.65760  1
 Cl  Cl10  1  0.02397  0.32651  0.34240  1
 Cl  Cl11  1  0.52397  0.17349  0.34240  1
 Cl  Cl12  1  -0.02397  0.67349  0.65760  1
