CIF file written using JARVIS-Tools package.
data_YAl3Ni2
_symmetry_space_group_name_H-M  'P6/mmm'
_cell_length_a       9.04944
_cell_length_b       9.04944
_cell_length_c       4.06746
_cell_angle_alpha    90
_cell_angle_beta     90
_cell_angle_gamma    120

_symmetry_Int_Tables_number  191
_chemical_formula_structural  YAl3Ni2
_chemical_formula_sum  Y3Al9Ni6
_cell_volume  288.4681528581369
_cell_formula_units_Z  3
loop_
  _symmetry_equiv_pos_site_id
 _symmetry_equiv_pos_as_xyz
 1  'x, y, z'
loop_
 _atom_site_type_symbol
 _atom_site_label
 _atom_site_symmetry_multiplicity
 _atom_site_fract_x
 _atom_site_fract_y
 _atom_site_fract_z
 _atom_site_fract_occupancy
 Al  Al1  1  0.50000  0.50000  0.00000  1
 Al  Al2  1  0.70455  0.70455  0.50000  1
 Al  Al3  1  0.29545  -0.00000  0.50000  1
 Al  Al4  1  0.00000  0.70455  0.50000  1
 Al  Al5  1  -0.00000  0.29545  0.50000  1
 Al  Al6  1  0.29545  0.29545  0.50000  1
 Al  Al7  1  0.50000  -0.00000  0.00000  1
 Al  Al8  1  0.70455  0.00000  0.50000  1
 Al  Al9  1  0.00000  0.50000  0.00000  1
 Ni  Ni1  1  0.18267  0.81733  0.00000  1
 Ni  Ni2  1  0.36534  0.18267  0.00000  1
 Ni  Ni3  1  0.81733  0.18267  0.00000  1
 Ni  Ni4  1  0.63466  0.81733  0.00000  1
 Ni  Ni5  1  0.18267  0.36534  0.00000  1
 Ni  Ni6  1  0.81733  0.63466  0.00000  1
 Y  Y1  1  0.00000  0.00000  0.00000  1
 Y  Y2  1  0.66667  0.33333  0.50000  1
 Y  Y3  1  0.33333  0.66667  0.50000  1
