CIF file written using JARVIS-Tools package.
data_ErNi2P2
_symmetry_space_group_name_H-M  'I4/mmm'
_cell_length_a       3.87177
_cell_length_b       3.87176
_cell_length_c       5.41939
_cell_angle_alpha    110.929
_cell_angle_beta     110.929
_cell_angle_gamma    90

_symmetry_Int_Tables_number  139
_chemical_formula_structural  ErNi2P2
_chemical_formula_sum  ErNi2P2
_cell_volume  70.11101031000466
_cell_formula_units_Z  1
loop_
  _symmetry_equiv_pos_site_id
 _symmetry_equiv_pos_as_xyz
 1  'x, y, z'
loop_
 _atom_site_type_symbol
 _atom_site_label
 _atom_site_symmetry_multiplicity
 _atom_site_fract_x
 _atom_site_fract_y
 _atom_site_fract_z
 _atom_site_fract_occupancy
 Er  Er1  1  0.00000  0.00000  0.00000  1
 Ni  Ni1  1  0.75000  0.25000  0.50000  1
 Ni  Ni2  1  0.25000  0.75000  0.50000  1
 P  P1  1  0.62246  0.62246  0.24492  1
 P  P2  1  0.37754  0.37754  0.75508  1
