CIF file written using JARVIS-Tools package.
data_SrNdAlO4
_symmetry_space_group_name_H-M  'I4mm'
_cell_length_a       6.76532
_cell_length_b       6.76532
_cell_length_c       6.76532
_cell_angle_alpha    147.766
_cell_angle_beta     147.766
_cell_angle_gamma    46.2304

_symmetry_Int_Tables_number  107
_chemical_formula_structural  SrNdAlO4
_chemical_formula_sum  SrNdAlO4
_cell_volume  87.78249754724413
_cell_formula_units_Z  1
loop_
  _symmetry_equiv_pos_site_id
 _symmetry_equiv_pos_as_xyz
 1  'x, y, z'
loop_
 _atom_site_type_symbol
 _atom_site_label
 _atom_site_symmetry_multiplicity
 _atom_site_fract_x
 _atom_site_fract_y
 _atom_site_fract_z
 _atom_site_fract_occupancy
 Al  Al1  1  0.00428  0.00428  0.00000  1
 Nd  Nd1  1  0.35945  0.35945  -0.00000  1
 O  O1  1  0.83893  0.83893  0.00000  1
 O  O2  1  0.16541  0.16541  -0.00000  1
 O  O3  1  0.99408  0.49408  0.50000  1
 O  O4  1  0.49408  0.99408  0.50000  1
 Sr  Sr1  1  0.64377  0.64377  -0.00000  1
