CIF file written using JARVIS-Tools package.
data_BaSr2N2
_symmetry_space_group_name_H-M  'P1'
_cell_length_a       4.27775
_cell_length_b       4.21426
_cell_length_c       7.46565
_cell_angle_alpha    89.3278
_cell_angle_beta     90.0175
_cell_angle_gamma    120.526

_symmetry_Int_Tables_number  1
_chemical_formula_structural  BaSr2N2
_chemical_formula_sum  BaSr2N2
_cell_volume  115.92347480160008
_cell_formula_units_Z  1
loop_
  _symmetry_equiv_pos_site_id
 _symmetry_equiv_pos_as_xyz
 1  'x, y, z'
loop_
 _atom_site_type_symbol
 _atom_site_label
 _atom_site_symmetry_multiplicity
 _atom_site_fract_x
 _atom_site_fract_y
 _atom_site_fract_z
 _atom_site_fract_occupancy
 Ba  Ba1  1  0.04678  -0.00102  0.50000  1
 N  N1  1  0.65438  0.34093  0.75421  1
 N  N2  1  0.31411  0.65975  0.24576  1
 Sr  Sr1  1  0.65967  0.33476  0.14851  1
 Sr  Sr2  1  0.32512  0.66558  0.85151  1
