CIF file written using JARVIS-Tools package.
data_Ho2SnAu2
_symmetry_space_group_name_H-M  'P4/mbm'
_cell_length_a       8.26923
_cell_length_b       8.26923
_cell_length_c       3.57183
_cell_angle_alpha    90
_cell_angle_beta     90
_cell_angle_gamma    90

_symmetry_Int_Tables_number  127
_chemical_formula_structural  Ho2SnAu2
_chemical_formula_sum  Ho4Sn2Au4
_cell_volume  244.24236369974142
_cell_formula_units_Z  2
loop_
  _symmetry_equiv_pos_site_id
 _symmetry_equiv_pos_as_xyz
 1  'x, y, z'
loop_
 _atom_site_type_symbol
 _atom_site_label
 _atom_site_symmetry_multiplicity
 _atom_site_fract_x
 _atom_site_fract_y
 _atom_site_fract_z
 _atom_site_fract_occupancy
 Au  Au1  1  0.63026  0.13026  0.00000  1
 Au  Au2  1  0.36974  0.86974  0.00000  1
 Au  Au3  1  0.13026  0.36974  0.00000  1
 Au  Au4  1  0.86974  0.63026  0.00000  1
 Ho  Ho1  1  0.83752  0.33752  0.50000  1
 Ho  Ho2  1  0.16248  0.66248  0.50000  1
 Ho  Ho3  1  0.33752  0.16248  0.50000  1
 Ho  Ho4  1  0.66248  0.83752  0.50000  1
 Sn  Sn1  1  0.00000  0.00000  0.50000  1
 Sn  Sn2  1  0.50000  0.50000  0.50000  1
