CIF file written using JARVIS-Tools package.
data_SrPd3
_symmetry_space_group_name_H-M  'P6_3/mmc'
_cell_length_a       6.20319
_cell_length_b       6.20319
_cell_length_c       4.70466
_cell_angle_alpha    90
_cell_angle_beta     90
_cell_angle_gamma    120

_symmetry_Int_Tables_number  194
_chemical_formula_structural  SrPd3
_chemical_formula_sum  Sr2Pd6
_cell_volume  156.77930126629826
_cell_formula_units_Z  2
loop_
  _symmetry_equiv_pos_site_id
 _symmetry_equiv_pos_as_xyz
 1  'x, y, z'
loop_
 _atom_site_type_symbol
 _atom_site_label
 _atom_site_symmetry_multiplicity
 _atom_site_fract_x
 _atom_site_fract_y
 _atom_site_fract_z
 _atom_site_fract_occupancy
 Pd  Pd1  1  0.15084  0.30167  0.25000  1
 Pd  Pd2  1  0.69833  0.84916  0.25000  1
 Pd  Pd3  1  0.15084  0.84916  0.25000  1
 Pd  Pd4  1  0.84916  0.69833  0.75000  1
 Pd  Pd5  1  0.30167  0.15084  0.75000  1
 Pd  Pd6  1  0.84916  0.15084  0.75000  1
 Sr  Sr1  1  0.33333  0.66667  0.75000  1
 Sr  Sr2  1  0.66667  0.33333  0.25000  1
