CIF file written using JARVIS-Tools package.
data_LaMgCu
_symmetry_space_group_name_H-M  'P-62m'
_cell_length_a       7.68513
_cell_length_b       7.68513
_cell_length_c       4.1392
_cell_angle_alpha    90
_cell_angle_beta     90
_cell_angle_gamma    120

_symmetry_Int_Tables_number  189
_chemical_formula_structural  LaMgCu
_chemical_formula_sum  La3Mg3Cu3
_cell_volume  211.71378336543805
_cell_formula_units_Z  3
loop_
  _symmetry_equiv_pos_site_id
 _symmetry_equiv_pos_as_xyz
 1  'x, y, z'
loop_
 _atom_site_type_symbol
 _atom_site_label
 _atom_site_symmetry_multiplicity
 _atom_site_fract_x
 _atom_site_fract_y
 _atom_site_fract_z
 _atom_site_fract_occupancy
 Cu  Cu1  1  0.33333  0.66667  0.50000  1
 Cu  Cu2  1  0.66667  0.33333  0.50000  1
 Cu  Cu3  1  0.00000  0.00000  0.00000  1
 La  La1  1  0.58234  -0.00000  0.00000  1
 La  La2  1  -0.00000  0.58234  0.00000  1
 La  La3  1  0.41766  0.41766  0.00000  1
 Mg  Mg1  1  0.23441  -0.00000  0.50000  1
 Mg  Mg2  1  -0.00000  0.23441  0.50000  1
 Mg  Mg3  1  0.76559  0.76559  0.50000  1
