CIF file written using JARVIS-Tools package.
data_Li2CoCuO4
_symmetry_space_group_name_H-M  'I-4m2'
_cell_length_a       5.07384
_cell_length_b       5.07385
_cell_length_c       5.07384
_cell_angle_alpha    133.683
_cell_angle_beta     133.682
_cell_angle_gamma    67.5844

_symmetry_Int_Tables_number  119
_chemical_formula_structural  Li2CoCuO4
_chemical_formula_sum  Li2CoCuO4
_cell_volume  67.15969466129951
_cell_formula_units_Z  1
loop_
  _symmetry_equiv_pos_site_id
 _symmetry_equiv_pos_as_xyz
 1  'x, y, z'
loop_
 _atom_site_type_symbol
 _atom_site_label
 _atom_site_symmetry_multiplicity
 _atom_site_fract_x
 _atom_site_fract_y
 _atom_site_fract_z
 _atom_site_fract_occupancy
 Co  Co1  1  0.00000  0.00000  0.00000  1
 Cu  Cu1  1  0.75000  0.25000  0.50000  1
 Li  Li1  1  0.25000  0.75000  0.50000  1
 Li  Li2  1  0.50000  0.50000  0.00000  1
 O  O1  1  0.51517  0.01517  0.50000  1
 O  O2  1  0.22549  0.22549  -0.00000  1
 O  O3  1  0.98483  0.48483  0.50000  1
 O  O4  1  0.77451  0.77451  0.00000  1
