CIF file written using JARVIS-Tools package.
data_CrSi
_symmetry_space_group_name_H-M  'P2_13'
_cell_length_a       4.60979
_cell_length_b       4.60979
_cell_length_c       4.60979
_cell_angle_alpha    90
_cell_angle_beta     90
_cell_angle_gamma    90

_symmetry_Int_Tables_number  198
_chemical_formula_structural  CrSi
_chemical_formula_sum  Cr4Si4
_cell_volume  97.95877741062505
_cell_formula_units_Z  4
loop_
  _symmetry_equiv_pos_site_id
 _symmetry_equiv_pos_as_xyz
 1  'x, y, z'
loop_
 _atom_site_type_symbol
 _atom_site_label
 _atom_site_symmetry_multiplicity
 _atom_site_fract_x
 _atom_site_fract_y
 _atom_site_fract_z
 _atom_site_fract_occupancy
 Cr  Cr1  1  0.86287  0.63713  0.36287  1
 Cr  Cr2  1  0.63713  0.36287  0.86287  1
 Cr  Cr3  1  0.36287  0.86287  0.63713  1
 Cr  Cr4  1  0.13713  0.13713  0.13713  1
 Si  Si1  1  0.15279  0.34721  0.65279  1
 Si  Si2  1  0.34721  0.65279  0.15279  1
 Si  Si3  1  0.65279  0.15279  0.34721  1
 Si  Si4  1  0.84721  0.84721  0.84721  1
