CIF file written using JARVIS-Tools package.
data_Fe3Co3Ge2
_symmetry_space_group_name_H-M  'R3m'
_cell_length_a       6.97727
_cell_length_b       6.97727
_cell_length_c       6.97726
_cell_angle_alpha    33.6522
_cell_angle_beta     33.6523
_cell_angle_gamma    33.6523

_symmetry_Int_Tables_number  160
_chemical_formula_structural  Fe3Co3Ge2
_chemical_formula_sum  Fe3Co3Ge2
_cell_volume  92.92330619999986
_cell_formula_units_Z  1
loop_
  _symmetry_equiv_pos_site_id
 _symmetry_equiv_pos_as_xyz
 1  'x, y, z'
loop_
 _atom_site_type_symbol
 _atom_site_label
 _atom_site_symmetry_multiplicity
 _atom_site_fract_x
 _atom_site_fract_y
 _atom_site_fract_z
 _atom_site_fract_occupancy
 Co  Co1  1  0.75506  0.75506  0.75506  1
 Co  Co2  1  0.24513  0.24513  0.24513  1
 Co  Co3  1  0.37253  0.37253  0.37253  1
 Fe  Fe1  1  0.87760  0.87760  0.87760  1
 Fe  Fe2  1  0.12305  0.12305  0.12305  1
 Fe  Fe3  1  0.62685  0.62685  0.62685  1
 Ge  Ge1  1  0.00085  0.00085  0.00085  1
 Ge  Ge2  1  0.49892  0.49892  0.49892  1
