CIF file written using JARVIS-Tools package.
data_U2Al3Ga
_symmetry_space_group_name_H-M  'R-3m'
_cell_length_a       5.32868
_cell_length_b       5.32869
_cell_length_c       5.32869
_cell_angle_alpha    63.2468
_cell_angle_beta     63.2468
_cell_angle_gamma    63.2468

_symmetry_Int_Tables_number  166
_chemical_formula_structural  U2Al3Ga
_chemical_formula_sum  U2Al3Ga
_cell_volume  114.68765240281463
_cell_formula_units_Z  1
loop_
  _symmetry_equiv_pos_site_id
 _symmetry_equiv_pos_as_xyz
 1  'x, y, z'
loop_
 _atom_site_type_symbol
 _atom_site_label
 _atom_site_symmetry_multiplicity
 _atom_site_fract_x
 _atom_site_fract_y
 _atom_site_fract_z
 _atom_site_fract_occupancy
 Al  Al1  1  0.50000  -0.00000  0.50000  1
 Al  Al2  1  -0.00000  0.50000  0.50000  1
 Al  Al3  1  0.50000  0.50000  0.00000  1
 Ga  Ga1  1  0.50000  0.50000  0.50000  1
 U  U1  1  0.10396  0.10396  0.10396  1
 U  U2  1  0.89604  0.89604  0.89604  1
