CIF file written using JARVIS-Tools package.
data_MnCl2
_symmetry_space_group_name_H-M  'R-3m'
_cell_length_a       6.17745
_cell_length_b       6.17745
_cell_length_c       6.17744
_cell_angle_alpha    34.6707
_cell_angle_beta     34.6707
_cell_angle_gamma    34.6708

_symmetry_Int_Tables_number  166
_chemical_formula_structural  MnCl2
_chemical_formula_sum  MnCl2
_cell_volume  68.07497211435518
_cell_formula_units_Z  1
loop_
  _symmetry_equiv_pos_site_id
 _symmetry_equiv_pos_as_xyz
 1  'x, y, z'
loop_
 _atom_site_type_symbol
 _atom_site_label
 _atom_site_symmetry_multiplicity
 _atom_site_fract_x
 _atom_site_fract_y
 _atom_site_fract_z
 _atom_site_fract_occupancy
 Cl  Cl1  1  0.74661  0.74661  0.74661  1
 Cl  Cl2  1  0.25339  0.25339  0.25339  1
 Mn  Mn1  1  0.00000  0.00000  0.00000  1
