CIF file written using JARVIS-Tools package.
data_InGaCuAgSe4
_symmetry_space_group_name_H-M  'I-4'
_cell_length_a       7.11318
_cell_length_b       7.11318
_cell_length_c       7.11318
_cell_angle_alpha    130.697
_cell_angle_beta     130.697
_cell_angle_gamma    72.2941

_symmetry_Int_Tables_number  82
_chemical_formula_structural  InGaCuAgSe4
_chemical_formula_sum  InGaCuAgSe4
_cell_volume  202.23896848321547
_cell_formula_units_Z  1
loop_
  _symmetry_equiv_pos_site_id
 _symmetry_equiv_pos_as_xyz
 1  'x, y, z'
loop_
 _atom_site_type_symbol
 _atom_site_label
 _atom_site_symmetry_multiplicity
 _atom_site_fract_x
 _atom_site_fract_y
 _atom_site_fract_z
 _atom_site_fract_occupancy
 Ag  Ag1  1  0.25000  0.75000  0.50000  1
 Cu  Cu1  1  0.00000  0.00000  0.00000  1
 Ga  Ga1  1  0.75000  0.25000  0.50000  1
 In  In1  1  0.50000  0.50000  0.00000  1
 Se  Se1  1  0.65433  0.62665  0.52997  1
 Se  Se2  1  0.09669  0.12437  0.47003  1
 Se  Se3  1  0.87563  0.34567  0.97232  1
 Se  Se4  1  0.37335  0.90331  0.02768  1
