CIF file written using JARVIS-Tools package.
data_Li3CrCo2O6
_symmetry_space_group_name_H-M  'C2/m'
_cell_length_a       2.82127
_cell_length_b       5.76603
_cell_length_c       6.4186
_cell_angle_alpha    103.367
_cell_angle_beta     102.695
_cell_angle_gamma    89.9996

_symmetry_Int_Tables_number  12
_chemical_formula_structural  Li3CrCo2O6
_chemical_formula_sum  Li3CrCo2O6
_cell_volume  98.96077421831443
_cell_formula_units_Z  1
loop_
  _symmetry_equiv_pos_site_id
 _symmetry_equiv_pos_as_xyz
 1  'x, y, z'
loop_
 _atom_site_type_symbol
 _atom_site_label
 _atom_site_symmetry_multiplicity
 _atom_site_fract_x
 _atom_site_fract_y
 _atom_site_fract_z
 _atom_site_fract_occupancy
 Co  Co1  1  0.99813  0.00015  0.00062  1
 Co  Co2  1  0.66479  0.33023  0.33396  1
 Cr  Cr1  1  0.33147  0.66519  0.66729  1
 Li  Li1  1  0.00162  0.49536  0.00776  1
 Li  Li2  1  0.33145  0.16520  0.66731  1
 Li  Li3  1  0.66131  0.83505  0.32685  1
 O  O1  1  0.49253  0.76461  0.98942  1
 O  O2  1  0.82644  0.42076  0.65722  1
 O  O3  1  0.15624  0.09769  0.31684  1
 O  O4  1  0.83650  0.90963  0.67736  1
 O  O5  1  0.17039  0.56578  0.34516  1
 O  O6  1  0.50668  0.23269  0.01774  1
