CIF file written using JARVIS-Tools package.
data_TiB2Mo
_symmetry_space_group_name_H-M  'Amm2'
_cell_length_a       4.52014
_cell_length_b       4.52014
_cell_length_c       3.08071
_cell_angle_alpha    90
_cell_angle_beta     90
_cell_angle_gamma    138.724

_symmetry_Int_Tables_number  38
_chemical_formula_structural  TiB2Mo
_chemical_formula_sum  TiB2Mo
_cell_volume  41.523527275293375
_cell_formula_units_Z  1
loop_
  _symmetry_equiv_pos_site_id
 _symmetry_equiv_pos_as_xyz
 1  'x, y, z'
loop_
 _atom_site_type_symbol
 _atom_site_label
 _atom_site_symmetry_multiplicity
 _atom_site_fract_x
 _atom_site_fract_y
 _atom_site_fract_z
 _atom_site_fract_occupancy
 B  B1  1  0.44188  0.55812  0.50000  1
 B  B2  1  0.55889  0.44111  0.00000  1
 Mo  Mo1  1  0.14675  0.85325  0.50000  1
 Ti  Ti1  1  0.85249  0.14751  0.00000  1
