CIF file written using JARVIS-Tools package.
data_CaNdCrO4
_symmetry_space_group_name_H-M  'I4mm'
_cell_length_a       6.60934
_cell_length_b       6.60935
_cell_length_c       6.60934
_cell_angle_alpha    146.397
_cell_angle_beta     146.397
_cell_angle_gamma    48.2581

_symmetry_Int_Tables_number  107
_chemical_formula_structural  CaNdCrO4
_chemical_formula_sum  CaNdCrO4
_cell_volume  88.06570685621227
_cell_formula_units_Z  1
loop_
  _symmetry_equiv_pos_site_id
 _symmetry_equiv_pos_as_xyz
 1  'x, y, z'
loop_
 _atom_site_type_symbol
 _atom_site_label
 _atom_site_symmetry_multiplicity
 _atom_site_fract_x
 _atom_site_fract_y
 _atom_site_fract_z
 _atom_site_fract_occupancy
 Ca  Ca1  1  0.64183  0.64183  -0.00000  1
 Cr  Cr1  1  0.00691  0.00691  0.00000  1
 Nd  Nd1  1  0.35968  0.35968  0.00000  1
 O  O1  1  0.99572  0.49572  0.50000  1
 O  O2  1  0.49572  0.99572  0.50000  1
 O  O3  1  0.83060  0.83060  0.00000  1
 O  O4  1  0.16954  0.16954  -0.00000  1
