CIF file written using JARVIS-Tools package.
data_TaSe2
_symmetry_space_group_name_H-M  'P6_3/mmc'
_cell_length_a       3.47267
_cell_length_b       3.47236
_cell_length_c       13.0913
_cell_angle_alpha    90
_cell_angle_beta     90
_cell_angle_gamma    120.003

_symmetry_Int_Tables_number  194
_chemical_formula_structural  TaSe2
_chemical_formula_sum  Ta2Se4
_cell_volume  136.70663107380787
_cell_formula_units_Z  2
loop_
  _symmetry_equiv_pos_site_id
 _symmetry_equiv_pos_as_xyz
 1  'x, y, z'
loop_
 _atom_site_type_symbol
 _atom_site_label
 _atom_site_symmetry_multiplicity
 _atom_site_fract_x
 _atom_site_fract_y
 _atom_site_fract_z
 _atom_site_fract_occupancy
 Se  Se1  1  0.33329  0.66657  0.87820  1
 Se  Se2  1  0.66671  0.33343  0.12180  1
 Se  Se3  1  0.66671  0.33343  0.37820  1
 Se  Se4  1  0.33329  0.66657  0.62180  1
 Ta  Ta1  1  0.33336  0.66672  0.25000  1
 Ta  Ta2  1  0.66664  0.33328  0.75000  1
