CIF file written using JARVIS-Tools package.
data_K2MnSO4F3
_symmetry_space_group_name_H-M  'P2_1/c'
_cell_length_a       7.21042
_cell_length_b       8.45103
_cell_length_c       10.7623
_cell_angle_alpha    90
_cell_angle_beta     90
_cell_angle_gamma    92.7904

_symmetry_Int_Tables_number  14
_chemical_formula_structural  K2MnSO4F3
_chemical_formula_sum  K8Mn4S4O6F2
_cell_volume  655.0281467934554
_cell_formula_units_Z  4
loop_
  _symmetry_equiv_pos_site_id
 _symmetry_equiv_pos_as_xyz
 1  'x, y, z'
loop_
 _atom_site_type_symbol
 _atom_site_label
 _atom_site_symmetry_multiplicity
 _atom_site_fract_x
 _atom_site_fract_y
 _atom_site_fract_z
 _atom_site_fract_occupancy
 F  F1  1  0.23793  0.61242  0.49776  1
 F  F2  1  0.97171  0.05307  0.16524  1
 F  F3  1  0.02829  0.44693  0.66524  1
 F  F4  1  0.76207  0.88758  -0.00224  1
 F  F5  1  0.23793  0.11242  0.00224  1
 F  F6  1  0.76207  0.38758  0.50224  1
 F  F7  1  0.47677  0.93710  0.16443  1
 F  F8  1  0.52323  0.06290  0.83557  1
 F  F9  1  0.47677  0.43710  0.33557  1
 F  F10  1  0.52323  0.56290  0.66443  1
 F  F11  1  0.97171  0.55307  0.33476  1
 F  F12  1  0.02829  0.94693  0.83476  1
 K  K1  1  0.81054  0.17269  0.69144  1
 K  K2  1  0.30204  0.82300  0.69164  1
 K  K3  1  0.69796  0.17700  0.30836  1
 K  K4  1  0.69796  0.67700  0.19164  1
 K  K5  1  0.18946  0.32731  0.19144  1
 K  K6  1  0.18946  0.82731  0.30856  1
 K  K7  1  0.30204  0.32300  0.80836  1
 K  K8  1  0.81054  0.67269  0.80856  1
 Mn  Mn1  1  0.50000  0.50000  0.50000  1
 Mn  Mn2  1  0.00000  0.00000  0.00000  1
 Mn  Mn3  1  0.50000  0.00000  0.00000  1
 Mn  Mn4  1  -0.00000  0.50000  0.50000  1
 O  O1  1  0.10839  0.27864  0.43572  1
 O  O2  1  0.39246  0.80039  0.93945  1
 O  O3  1  0.60754  0.69961  0.43945  1
 O  O4  1  0.89161  0.72136  0.56428  1
 O  O5  1  0.10839  0.77864  0.06428  1
 O  O6  1  0.60754  0.19961  0.06055  1
 O  O7  1  0.39246  0.30039  0.56055  1
 O  O8  1  0.34600  0.59010  0.09372  1
 O  O9  1  0.65400  0.90990  0.59372  1
 O  O10  1  0.65400  0.40990  0.90628  1
 O  O11  1  0.34600  0.09010  0.40628  1
 O  O12  1  0.16710  0.58991  0.89977  1
 O  O13  1  0.83290  0.91009  0.39977  1
 O  O14  1  0.83290  0.41009  0.10023  1
 O  O15  1  0.89161  0.22136  0.93572  1
 O  O16  1  0.16710  0.08991  0.60023  1
 S  S1  1  0.25037  0.18340  0.49848  1
 S  S2  1  0.74963  0.31660  0.99848  1
 S  S3  1  0.25037  0.68340  0.00152  1
 S  S4  1  0.74963  0.81660  0.50152  1
