CIF file written using JARVIS-Tools package.
data_Rb2GeF6
_symmetry_space_group_name_H-M  'P-3m1'
_cell_length_a       5.8549
_cell_length_b       5.8549
_cell_length_c       4.76194
_cell_angle_alpha    90
_cell_angle_beta     90
_cell_angle_gamma    120

_symmetry_Int_Tables_number  164
_chemical_formula_structural  Rb2GeF6
_chemical_formula_sum  Rb2GeF6
_cell_volume  141.3685315146001
_cell_formula_units_Z  1
loop_
  _symmetry_equiv_pos_site_id
 _symmetry_equiv_pos_as_xyz
 1  'x, y, z'
loop_
 _atom_site_type_symbol
 _atom_site_label
 _atom_site_symmetry_multiplicity
 _atom_site_fract_x
 _atom_site_fract_y
 _atom_site_fract_z
 _atom_site_fract_occupancy
 F  F1  1  0.84967  0.15033  0.78350  1
 F  F2  1  0.84967  0.69933  0.78350  1
 F  F3  1  0.30067  0.15033  0.78350  1
 F  F4  1  0.15033  0.84967  0.21650  1
 F  F5  1  0.15033  0.30067  0.21650  1
 F  F6  1  0.69933  0.84967  0.21650  1
 Ge  Ge1  1  0.00000  0.00000  0.00000  1
 Rb  Rb1  1  0.33333  0.66667  0.69958  1
 Rb  Rb2  1  0.66667  0.33333  0.30042  1
