CIF file written using JARVIS-Tools package.
data_SmPOs2C
_symmetry_space_group_name_H-M  'Cmcm'
_cell_length_a       5.89638
_cell_length_b       5.89638
_cell_length_c       7.12382
_cell_angle_alpha    90
_cell_angle_beta     90
_cell_angle_gamma    141.347

_symmetry_Int_Tables_number  63
_chemical_formula_structural  SmPOs2C
_chemical_formula_sum  Sm2P2Os4C2
_cell_volume  154.69960125962984
_cell_formula_units_Z  2
loop_
  _symmetry_equiv_pos_site_id
 _symmetry_equiv_pos_as_xyz
 1  'x, y, z'
loop_
 _atom_site_type_symbol
 _atom_site_label
 _atom_site_symmetry_multiplicity
 _atom_site_fract_x
 _atom_site_fract_y
 _atom_site_fract_z
 _atom_site_fract_occupancy
 C  C1  1  0.00000  0.00000  0.00000  1
 C  C2  1  0.00000  0.00000  0.50000  1
 Os  Os1  1  0.83341  0.16659  0.05277  1
 Os  Os2  1  0.16659  0.83341  0.94723  1
 Os  Os3  1  0.16659  0.83341  0.55277  1
 Os  Os4  1  0.83341  0.16659  0.44723  1
 P  P1  1  0.26980  0.73020  0.25000  1
 P  P2  1  0.73020  0.26980  0.75000  1
 Sm  Sm1  1  0.54495  0.45505  0.25000  1
 Sm  Sm2  1  0.45505  0.54495  0.75000  1
