CIF file written using JARVIS-Tools package.
data_Sc3V
_symmetry_space_group_name_H-M  'P6_3/mmc'
_cell_length_a       6.26181
_cell_length_b       6.26182
_cell_length_c       4.84451
_cell_angle_alpha    90
_cell_angle_beta     90
_cell_angle_gamma    120

_symmetry_Int_Tables_number  194
_chemical_formula_structural  Sc3V
_chemical_formula_sum  Sc6V2
_cell_volume  164.50540779064866
_cell_formula_units_Z  2
loop_
  _symmetry_equiv_pos_site_id
 _symmetry_equiv_pos_as_xyz
 1  'x, y, z'
loop_
 _atom_site_type_symbol
 _atom_site_label
 _atom_site_symmetry_multiplicity
 _atom_site_fract_x
 _atom_site_fract_y
 _atom_site_fract_z
 _atom_site_fract_occupancy
 Sc  Sc1  1  0.17237  0.34474  0.25000  1
 Sc  Sc2  1  0.65526  0.82763  0.25000  1
 Sc  Sc3  1  0.17237  0.82763  0.25000  1
 Sc  Sc4  1  0.82763  0.65526  0.75000  1
 Sc  Sc5  1  0.34474  0.17237  0.75000  1
 Sc  Sc6  1  0.82763  0.17237  0.75000  1
 V  V1  1  0.33333  0.66667  0.75000  1
 V  V2  1  0.66667  0.33333  0.25000  1
