CIF file written using JARVIS-Tools package.
data_CoSi
_symmetry_space_group_name_H-M  'P2_13'
_cell_length_a       4.45188
_cell_length_b       4.45188
_cell_length_c       4.45188
_cell_angle_alpha    90
_cell_angle_beta     90
_cell_angle_gamma    90

_symmetry_Int_Tables_number  198
_chemical_formula_structural  CoSi
_chemical_formula_sum  Co4Si4
_cell_volume  88.23305061890554
_cell_formula_units_Z  4
loop_
  _symmetry_equiv_pos_site_id
 _symmetry_equiv_pos_as_xyz
 1  'x, y, z'
loop_
 _atom_site_type_symbol
 _atom_site_label
 _atom_site_symmetry_multiplicity
 _atom_site_fract_x
 _atom_site_fract_y
 _atom_site_fract_z
 _atom_site_fract_occupancy
 Co  Co1  1  0.85555  0.64445  0.35555  1
 Co  Co2  1  0.64445  0.35555  0.85555  1
 Co  Co3  1  0.35555  0.85555  0.64445  1
 Co  Co4  1  0.14445  0.14445  0.14445  1
 Si  Si1  1  0.15761  0.34239  0.65761  1
 Si  Si2  1  0.34239  0.65761  0.15761  1
 Si  Si3  1  0.65761  0.15761  0.34239  1
 Si  Si4  1  0.84239  0.84239  0.84239  1
