CIF file written using JARVIS-Tools package.
data_ZrH6C5O4
_symmetry_space_group_name_H-M  'P1'
_cell_length_a       3.51773
_cell_length_b       4.11484
_cell_length_c       9.01628
_cell_angle_alpha    81.4216
_cell_angle_beta     83.4843
_cell_angle_gamma    67.755

_symmetry_Int_Tables_number  1
_chemical_formula_structural  ZrH6C5O4
_chemical_formula_sum  ZrH6C5O4
_cell_volume  119.21294092976886
_cell_formula_units_Z  1
loop_
  _symmetry_equiv_pos_site_id
 _symmetry_equiv_pos_as_xyz
 1  'x, y, z'
loop_
 _atom_site_type_symbol
 _atom_site_label
 _atom_site_symmetry_multiplicity
 _atom_site_fract_x
 _atom_site_fract_y
 _atom_site_fract_z
 _atom_site_fract_occupancy
 C  C1  1  0.49563  0.49448  0.48354  1
 C  C2  1  0.68613  0.46616  0.63125  1
 C  C3  1  0.43284  0.46635  0.06725  1
 C  C4  1  0.42910  0.61941  0.77271  1
 C  C5  1  0.60454  0.36891  0.91258  1
 H  H1  1  0.59182  0.10757  0.90887  1
 H  H2  1  0.93683  0.30858  0.91403  1
 H  H3  1  0.91374  0.58979  0.60298  1
 H  H4  1  0.86239  0.18303  0.66079  1
 H  H5  1  0.10421  0.66159  0.77052  1
 H  H6  1  0.43551  0.88276  0.77674  1
 O  O1  1  0.76694  0.57514  0.34887  1
 O  O2  1  0.50792  0.15550  0.46333  1
 O  O3  1  0.23391  0.77964  0.09318  1
 O  O4  1  0.51271  0.20891  0.17472  1
 Zr  Zr1  1  0.10799  0.97209  0.32808  1
