CIF file written using JARVIS-Tools package.
data_Sc3Sn
_symmetry_space_group_name_H-M  'P6_3/mmc'
_cell_length_a       6.34497
_cell_length_b       6.34497
_cell_length_c       5.15027
_cell_angle_alpha    90
_cell_angle_beta     90
_cell_angle_gamma    120

_symmetry_Int_Tables_number  194
_chemical_formula_structural  Sc3Sn
_chemical_formula_sum  Sc6Sn2
_cell_volume  179.5640612884573
_cell_formula_units_Z  2
loop_
  _symmetry_equiv_pos_site_id
 _symmetry_equiv_pos_as_xyz
 1  'x, y, z'
loop_
 _atom_site_type_symbol
 _atom_site_label
 _atom_site_symmetry_multiplicity
 _atom_site_fract_x
 _atom_site_fract_y
 _atom_site_fract_z
 _atom_site_fract_occupancy
 Sc  Sc1  1  0.16828  0.33656  0.25000  1
 Sc  Sc2  1  0.66344  0.83172  0.25000  1
 Sc  Sc3  1  0.16828  0.83172  0.25000  1
 Sc  Sc4  1  0.83172  0.66344  0.75000  1
 Sc  Sc5  1  0.33656  0.16828  0.75000  1
 Sc  Sc6  1  0.83172  0.16828  0.75000  1
 Sn  Sn1  1  0.33333  0.66667  0.75000  1
 Sn  Sn2  1  0.66667  0.33333  0.25000  1
