CIF file written using JARVIS-Tools package.
data_Tb3SmNi4
_symmetry_space_group_name_H-M  'Pmm2'
_cell_length_a       3.69857
_cell_length_b       4.2531
_cell_length_c       10.1625
_cell_angle_alpha    90
_cell_angle_beta     90
_cell_angle_gamma    90

_symmetry_Int_Tables_number  25
_chemical_formula_structural  Tb3SmNi4
_chemical_formula_sum  Tb3SmNi4
_cell_volume  159.8602664680871
_cell_formula_units_Z  1
loop_
  _symmetry_equiv_pos_site_id
 _symmetry_equiv_pos_as_xyz
 1  'x, y, z'
loop_
 _atom_site_type_symbol
 _atom_site_label
 _atom_site_symmetry_multiplicity
 _atom_site_fract_x
 _atom_site_fract_y
 _atom_site_fract_z
 _atom_site_fract_occupancy
 Ni  Ni1  1  0.50000  0.50000  0.07347  1
 Ni  Ni2  1  0.00000  0.50000  0.57944  1
 Ni  Ni3  1  0.00000  0.00000  0.42590  1
 Ni  Ni4  1  0.50000  0.00000  0.92336  1
 Sm  Sm1  1  0.50000  0.50000  0.36091  1
 Tb  Tb1  1  0.00000  0.50000  0.86055  1
 Tb  Tb2  1  0.00000  0.00000  0.13583  1
 Tb  Tb3  1  0.50000  0.00000  0.64053  1
