CIF file written using JARVIS-Tools package.
data_CrAgS2
_symmetry_space_group_name_H-M  'R3m'
_cell_length_a       7.10874
_cell_length_b       7.10874
_cell_length_c       7.10874
_cell_angle_alpha    28.6756
_cell_angle_beta     28.6756
_cell_angle_gamma    28.6756

_symmetry_Int_Tables_number  160
_chemical_formula_structural  CrAgS2
_chemical_formula_sum  CrAgS2
_cell_volume  73.12746084269763
_cell_formula_units_Z  1
loop_
  _symmetry_equiv_pos_site_id
 _symmetry_equiv_pos_as_xyz
 1  'x, y, z'
loop_
 _atom_site_type_symbol
 _atom_site_label
 _atom_site_symmetry_multiplicity
 _atom_site_fract_x
 _atom_site_fract_y
 _atom_site_fract_z
 _atom_site_fract_occupancy
 Ag  Ag1  1  0.15458  0.15458  0.15458  1
 Cr  Cr1  1  0.00062  0.00062  0.00062  1
 S  S1  1  0.73329  0.73329  0.73329  1
 S  S2  1  0.27291  0.27291  0.27291  1
