CIF file written using JARVIS-Tools package.
data_Ca2NCl
_symmetry_space_group_name_H-M  'R-3m'
_cell_length_a       6.89981
_cell_length_b       6.89981
_cell_length_c       6.89981
_cell_angle_alpha    30.6362
_cell_angle_beta     30.6363
_cell_angle_gamma    30.6363

_symmetry_Int_Tables_number  166
_chemical_formula_structural  Ca2NCl
_chemical_formula_sum  Ca2NCl
_cell_volume  75.62863503983104
_cell_formula_units_Z  1
loop_
  _symmetry_equiv_pos_site_id
 _symmetry_equiv_pos_as_xyz
 1  'x, y, z'
loop_
 _atom_site_type_symbol
 _atom_site_label
 _atom_site_symmetry_multiplicity
 _atom_site_fract_x
 _atom_site_fract_y
 _atom_site_fract_z
 _atom_site_fract_occupancy
 Ca  Ca1  1  0.77096  0.77096  0.77096  1
 Ca  Ca2  1  0.22904  0.22904  0.22904  1
 Cl  Cl1  1  0.00000  0.00000  0.00000  1
 N  N1  1  0.50000  0.50000  0.50000  1
