CIF file written using JARVIS-Tools package.
data_Ta2O5
_symmetry_space_group_name_H-M  'Cmmm'
_cell_length_a       3.89091
_cell_length_b       3.86368
_cell_length_c       6.84841
_cell_angle_alpha    73.6405
_cell_angle_beta     90
_cell_angle_gamma    90

_symmetry_Int_Tables_number  65
_chemical_formula_structural  Ta2O5
_chemical_formula_sum  Ta2O5
_cell_volume  98.78578495598299
_cell_formula_units_Z  1
loop_
  _symmetry_equiv_pos_site_id
 _symmetry_equiv_pos_as_xyz
 1  'x, y, z'
loop_
 _atom_site_type_symbol
 _atom_site_label
 _atom_site_symmetry_multiplicity
 _atom_site_fract_x
 _atom_site_fract_y
 _atom_site_fract_z
 _atom_site_fract_occupancy
 O  O1  1  0.50000  0.35023  0.79882  1
 O  O2  1  0.50000  0.64977  0.20118  1
 O  O3  1  0.00000  0.81467  0.87042  1
 O  O4  1  0.00000  0.18533  0.12958  1
 O  O5  1  0.00000  0.50000  0.50000  1
 Ta  Ta1  1  0.00000  0.35421  0.79142  1
 Ta  Ta2  1  0.00000  0.64579  0.20858  1
