CIF file written using JARVIS-Tools package.
data_LiV3O6
_symmetry_space_group_name_H-M  'C2/m'
_cell_length_a       4.99944
_cell_length_b       4.99944
_cell_length_c       5.13041
_cell_angle_alpha    81.2214
_cell_angle_beta     81.2213
_cell_angle_gamma    120.144

_symmetry_Int_Tables_number  12
_chemical_formula_structural  LiV3O6
_chemical_formula_sum  LiV3O6
_cell_volume  105.57424969431409
_cell_formula_units_Z  1
loop_
  _symmetry_equiv_pos_site_id
 _symmetry_equiv_pos_as_xyz
 1  'x, y, z'
loop_
 _atom_site_type_symbol
 _atom_site_label
 _atom_site_symmetry_multiplicity
 _atom_site_fract_x
 _atom_site_fract_y
 _atom_site_fract_z
 _atom_site_fract_occupancy
 Li  Li1  1  0.50000  0.50000  0.50000  1
 O  O1  1  0.27505  0.27505  0.20844  1
 O  O2  1  0.92507  0.59890  0.21613  1
 O  O3  1  0.59890  0.92507  0.21613  1
 O  O4  1  0.07493  0.40110  0.78387  1
 O  O5  1  0.72495  0.72495  0.79156  1
 O  O6  1  0.40110  0.07493  0.78387  1
 V  V1  1  0.32742  0.67258  -0.00000  1
 V  V2  1  0.00000  0.00000  0.00000  1
 V  V3  1  0.67258  0.32742  -0.00000  1
