CIF file written using JARVIS-Tools package.
data_Na4I2O
_symmetry_space_group_name_H-M  'I4/mmm'
_cell_length_a       4.6487
_cell_length_b       4.64871
_cell_length_c       8.60447
_cell_angle_alpha    105.672
_cell_angle_beta     105.672
_cell_angle_gamma    90

_symmetry_Int_Tables_number  139
_chemical_formula_structural  Na4I2O
_chemical_formula_sum  Na4I2O
_cell_volume  171.8427002220105
_cell_formula_units_Z  1
loop_
  _symmetry_equiv_pos_site_id
 _symmetry_equiv_pos_as_xyz
 1  'x, y, z'
loop_
 _atom_site_type_symbol
 _atom_site_label
 _atom_site_symmetry_multiplicity
 _atom_site_fract_x
 _atom_site_fract_y
 _atom_site_fract_z
 _atom_site_fract_occupancy
 I  I1  1  0.34702  0.34702  0.69405  1
 I  I2  1  0.65298  0.65298  0.30595  1
 Na  Na1  1  0.14351  0.14351  0.28702  1
 Na  Na2  1  -0.00000  0.50000  -0.00000  1
 Na  Na3  1  0.85649  0.85649  0.71298  1
 Na  Na4  1  0.50000  -0.00000  -0.00000  1
 O  O1  1  0.00000  0.00000  0.00000  1
