CIF file written using JARVIS-Tools package.
data_NaCo2BiO6
_symmetry_space_group_name_H-M  'R3'
_cell_length_a       5.25157
_cell_length_b       5.25157
_cell_length_c       5.25157
_cell_angle_alpha    60.7105
_cell_angle_beta     60.7105
_cell_angle_gamma    60.7105

_symmetry_Int_Tables_number  146
_chemical_formula_structural  NaCo2BiO6
_chemical_formula_sum  NaCo2BiO6
_cell_volume  104.05469986787645
_cell_formula_units_Z  1
loop_
  _symmetry_equiv_pos_site_id
 _symmetry_equiv_pos_as_xyz
 1  'x, y, z'
loop_
 _atom_site_type_symbol
 _atom_site_label
 _atom_site_symmetry_multiplicity
 _atom_site_fract_x
 _atom_site_fract_y
 _atom_site_fract_z
 _atom_site_fract_occupancy
 Bi  Bi1  1  0.77687  0.77687  0.77687  1
 Co  Co1  1  0.00913  0.00913  0.00913  1
 Co  Co2  1  0.51098  0.51098  0.51098  1
 Na  Na1  1  0.26818  0.26818  0.26818  1
 O  O1  1  0.17645  0.74595  0.33295  1
 O  O2  1  0.33295  0.17645  0.74595  1
 O  O3  1  0.74595  0.33295  0.17645  1
 O  O4  1  0.23457  0.67334  0.83738  1
 O  O5  1  0.67334  0.83738  0.23457  1
 O  O6  1  0.83738  0.23457  0.67334  1
