CIF file written using JARVIS-Tools package.
data_H2C4S
_symmetry_space_group_name_H-M  'P-1'
_cell_length_a       4.17678
_cell_length_b       6.75507
_cell_length_c       6.74007
_cell_angle_alpha    120.982
_cell_angle_beta     90.4879
_cell_angle_gamma    90.4044

_symmetry_Int_Tables_number  2
_chemical_formula_structural  H2C4S
_chemical_formula_sum  H4C8S2
_cell_volume  163.01488372341115
_cell_formula_units_Z  2
loop_
  _symmetry_equiv_pos_site_id
 _symmetry_equiv_pos_as_xyz
 1  'x, y, z'
loop_
 _atom_site_type_symbol
 _atom_site_label
 _atom_site_symmetry_multiplicity
 _atom_site_fract_x
 _atom_site_fract_y
 _atom_site_fract_z
 _atom_site_fract_occupancy
 C  C1  1  0.90174  0.27401  0.01588  1
 C  C2  1  0.08010  0.45479  0.19668  1
 C  C3  1  0.82940  0.31079  0.83572  1
 C  C4  1  0.32933  0.84170  0.30452  1
 C  C5  1  0.15221  0.63384  0.15877  1
 C  C6  1  0.65213  0.16473  0.62759  1
 C  C7  1  0.40138  0.02078  0.26666  1
 C  C8  1  0.57973  0.20155  0.44746  1
 H  H1  1  0.32462  0.01854  0.11035  1
 H  H2  1  0.15678  0.45708  0.35302  1
 H  H3  1  0.82513  0.11847  0.01437  1
 H  H4  1  0.65629  0.35711  0.44901  1
 S  S1  1  0.49087  0.90103  0.56924  1
 S  S2  1  0.99074  0.57446  0.89402  1
