CIF file written using JARVIS-Tools package.
data_SrFeO2F
_symmetry_space_group_name_H-M  'Fmmm'
_cell_length_a       5.39931
_cell_length_b       5.39931
_cell_length_c       5.6893
_cell_angle_alpha    60.975
_cell_angle_beta     60.975
_cell_angle_gamma    88.7095

_symmetry_Int_Tables_number  69
_chemical_formula_structural  SrFeO2F
_chemical_formula_sum  Sr2Fe2O4F2
_cell_volume  121.79814511747452
_cell_formula_units_Z  2
loop_
  _symmetry_equiv_pos_site_id
 _symmetry_equiv_pos_as_xyz
 1  'x, y, z'
loop_
 _atom_site_type_symbol
 _atom_site_label
 _atom_site_symmetry_multiplicity
 _atom_site_fract_x
 _atom_site_fract_y
 _atom_site_fract_z
 _atom_site_fract_occupancy
 F  F1  1  0.79503  0.20497  0.50000  1
 F  F2  1  0.20497  0.79503  0.50000  1
 Fe  Fe1  1  0.50000  -0.00000  0.00000  1
 Fe  Fe2  1  0.00000  0.50000  0.00000  1
 O  O1  1  0.71080  0.71080  0.07825  1
 O  O2  1  0.28920  0.28920  0.92175  1
 O  O3  1  0.24991  0.75009  -0.00000  1
 O  O4  1  0.75009  0.24991  0.00000  1
 Sr  Sr1  1  0.25869  0.25869  0.50008  1
 Sr  Sr2  1  0.74131  0.74131  0.49992  1
