CIF file written using JARVIS-Tools package.
data_Co6O7F5
_symmetry_space_group_name_H-M  'C2'
_cell_length_a       7.0613
_cell_length_b       5.32167
_cell_length_c       5.32167
_cell_angle_alpha    69.4604
_cell_angle_beta     71.1743
_cell_angle_gamma    71.1743

_symmetry_Int_Tables_number  5
_chemical_formula_structural  Co6O7F5
_chemical_formula_sum  Co6O7F5
_cell_volume  172.22588002688627
_cell_formula_units_Z  1
loop_
  _symmetry_equiv_pos_site_id
 _symmetry_equiv_pos_as_xyz
 1  'x, y, z'
loop_
 _atom_site_type_symbol
 _atom_site_label
 _atom_site_symmetry_multiplicity
 _atom_site_fract_x
 _atom_site_fract_y
 _atom_site_fract_z
 _atom_site_fract_occupancy
 Co  Co1  1  0.84201  0.67858  0.69055  1
 Co  Co2  1  0.31692  0.66028  0.66674  1
 Co  Co3  1  0.68308  0.33326  0.33972  1
 Co  Co4  1  0.15799  0.30945  0.32142  1
 Co  Co5  1  0.50000  0.99733  0.00267  1
 Co  Co6  1  -0.00000  0.02378  0.97622  1
 F  F1  1  0.30792  0.89584  0.90677  1
 F  F2  1  0.63088  0.57974  0.57926  1
 F  F3  1  0.69208  0.09323  0.10416  1
 F  F4  1  0.00000  0.70246  0.29754  1
 F  F5  1  0.36912  0.42074  0.42026  1
 O  O1  1  0.66982  0.03353  0.64490  1
 O  O2  1  0.33018  0.35510  0.96647  1
 O  O3  1  0.03456  0.77822  0.77345  1
 O  O4  1  0.67066  0.63489  0.03855  1
 O  O5  1  -0.00000  0.31556  0.68444  1
 O  O6  1  0.96544  0.22655  0.22178  1
 O  O7  1  0.32934  0.96145  0.36511  1
