CIF file written using JARVIS-Tools package.
data_Sm2ZnSb4
_symmetry_space_group_name_H-M  'P-4m2'
_cell_length_a       4.3674
_cell_length_b       4.3674
_cell_length_c       10.0192
_cell_angle_alpha    90
_cell_angle_beta     90
_cell_angle_gamma    90

_symmetry_Int_Tables_number  115
_chemical_formula_structural  Sm2ZnSb4
_chemical_formula_sum  Sm2ZnSb4
_cell_volume  191.10710109405122
_cell_formula_units_Z  1
loop_
  _symmetry_equiv_pos_site_id
 _symmetry_equiv_pos_as_xyz
 1  'x, y, z'
loop_
 _atom_site_type_symbol
 _atom_site_label
 _atom_site_symmetry_multiplicity
 _atom_site_fract_x
 _atom_site_fract_y
 _atom_site_fract_z
 _atom_site_fract_occupancy
 Sb  Sb1  1  0.50000  0.50000  0.00000  1
 Sb  Sb2  1  0.00000  0.00000  0.00000  1
 Sb  Sb3  1  0.50000  0.00000  0.34348  1
 Sb  Sb4  1  0.00000  0.50000  0.65652  1
 Sm  Sm1  1  0.50000  0.00000  0.75096  1
 Sm  Sm2  1  0.00000  0.50000  0.24904  1
 Zn  Zn1  1  0.50000  0.50000  0.50000  1
