CIF file written using JARVIS-Tools package.
data_K2PtBr6
_symmetry_space_group_name_H-M  'Immm'
_cell_length_a       8.38617
_cell_length_b       8.38618
_cell_length_c       8.38617
_cell_angle_alpha    135.686
_cell_angle_beta     130.6
_cell_angle_gamma    68.5123

_symmetry_Int_Tables_number  71
_chemical_formula_structural  K2PtBr6
_chemical_formula_sum  K2PtBr6
_cell_volume  307.2945693027536
_cell_formula_units_Z  1
loop_
  _symmetry_equiv_pos_site_id
 _symmetry_equiv_pos_as_xyz
 1  'x, y, z'
loop_
 _atom_site_type_symbol
 _atom_site_label
 _atom_site_symmetry_multiplicity
 _atom_site_fract_x
 _atom_site_fract_y
 _atom_site_fract_z
 _atom_site_fract_occupancy
 Br  Br1  1  0.79882  0.50000  0.29882  1
 Br  Br2  1  0.37586  0.12741  0.24845  1
 Br  Br3  1  0.12104  0.87259  0.24845  1
 Br  Br4  1  0.20118  0.50000  0.70118  1
 Br  Br5  1  0.87896  0.12741  0.75155  1
 Br  Br6  1  0.62414  0.87259  0.75155  1
 K  K1  1  0.67591  0.67591  -0.00000  1
 K  K2  1  0.32409  0.32409  0.00000  1
 Pt  Pt1  1  0.00000  0.00000  0.00000  1
