CIF file written using JARVIS-Tools package.
data_H4C9S3O
_symmetry_space_group_name_H-M  'P1'
_cell_length_a       3.79813
_cell_length_b       5.943
_cell_length_c       9.70988
_cell_angle_alpha    89.9703
_cell_angle_beta     89.9366
_cell_angle_gamma    86.4507

_symmetry_Int_Tables_number  1
_chemical_formula_structural  H4C9S3O
_chemical_formula_sum  H4C9S3O
_cell_volume  218.75400648825067
_cell_formula_units_Z  1
loop_
  _symmetry_equiv_pos_site_id
 _symmetry_equiv_pos_as_xyz
 1  'x, y, z'
loop_
 _atom_site_type_symbol
 _atom_site_label
 _atom_site_symmetry_multiplicity
 _atom_site_fract_x
 _atom_site_fract_y
 _atom_site_fract_z
 _atom_site_fract_occupancy
 C  C1  1  0.09945  0.55146  0.06121  1
 C  C2  1  0.06003  0.35603  0.26440  1
 C  C3  1  0.16498  0.34554  0.74743  1
 C  C4  1  0.16618  0.34573  0.12478  1
 C  C5  1  0.80562  0.66279  0.43609  1
 C  C6  1  0.09919  0.55146  0.81082  1
 C  C7  1  0.91175  0.56570  0.30495  1
 C  C8  1  0.91145  0.56566  0.56723  1
 C  C9  1  0.05880  0.35582  0.60790  1
 H  H1  1  0.09285  0.21108  0.33200  1
 H  H2  1  0.09070  0.21069  0.54046  1
 H  H3  1  0.30053  0.19903  0.07665  1
 H  H4  1  0.29865  0.19869  0.79563  1
 O  O1  1  0.21295  0.62652  0.93592  1
 S  S1  1  0.89460  0.75391  0.16607  1
 S  S2  1  0.89505  0.75404  0.70592  1
 S  S3  1  0.59271  0.91978  0.43608  1
