CIF file written using JARVIS-Tools package.
data_H7C8SN
_symmetry_space_group_name_H-M  'P1'
_cell_length_a       6.25405
_cell_length_b       6.73927
_cell_length_c       9.50699
_cell_angle_alpha    91.9551
_cell_angle_beta     93.2521
_cell_angle_gamma    115.51

_symmetry_Int_Tables_number  1
_chemical_formula_structural  H7C8SN
_chemical_formula_sum  H4C6S2N2
_cell_volume  360.28784938494454
_cell_formula_units_Z  2
loop_
  _symmetry_equiv_pos_site_id
 _symmetry_equiv_pos_as_xyz
 1  'x, y, z'
loop_
 _atom_site_type_symbol
 _atom_site_label
 _atom_site_symmetry_multiplicity
 _atom_site_fract_x
 _atom_site_fract_y
 _atom_site_fract_z
 _atom_site_fract_occupancy
 C  C1  1  0.01115  0.84297  0.78466  1
 C  C2  1  0.23779  0.89705  0.36974  1
 C  C3  1  0.47948  0.77990  0.02457  1
 C  C4  1  0.47948  0.77990  0.52457  1
 C  C5  1  0.29255  0.73048  0.42263  1
 C  C6  1  0.61958  -0.00135  0.07665  1
 C  C7  1  0.61958  -0.00135  0.57665  1
 C  C8  1  0.23779  0.89705  0.86974  1
 C  C9  1  0.29255  0.73048  0.92263  1
 C  C10  1  0.79292  0.05648  0.20569  1
 C  C11  1  0.57327  0.16600  0.01951  1
 C  C12  1  0.57327  0.16600  0.51951  1
 C  C13  1  0.38483  0.11642  0.91786  1
 C  C14  1  0.38483  0.11641  0.41786  1
 C  C15  1  0.79291  0.05648  0.70569  1
 C  C16  1  0.01114  0.84297  0.28466  1
 H  H1  1  0.68084  0.33707  0.05747  1
 H  H2  1  0.17973  0.56005  0.88558  1
 H  H3  1  0.15645  0.13165  0.68960  1
 H  H4  1  0.15645  0.13165  0.18960  1
 H  H5  1  0.34690  0.25059  0.38168  1
 H  H6  1  0.51624  0.64928  0.56799  1
 H  H7  1  0.17973  0.56005  0.38558  1
 H  H8  1  0.51625  0.64928  0.06799  1
 H  H9  1  0.86459  0.23486  0.73186  1
 H  H10  1  0.86459  0.23486  0.23186  1
 H  H11  1  0.69214  -0.02810  0.79362  1
 H  H12  1  0.69214  -0.02810  0.29362  1
 H  H13  1  0.68084  0.33707  0.55747  1
 H  H14  1  0.34690  0.25059  0.88168  1
 N  N1  1  -0.00118  0.00369  0.20668  1
 N  N2  1  -0.00118  0.00369  0.70668  1
 S  S1  1  0.77402  0.60631  0.80225  1
 S  S2  1  0.77402  0.60631  0.30225  1
