CIF file written using JARVIS-Tools package.
data_SrSnP
_symmetry_space_group_name_H-M  'P4/nmm'
_cell_length_a       4.38877
_cell_length_b       4.38877
_cell_length_c       8.99024
_cell_angle_alpha    90
_cell_angle_beta     90
_cell_angle_gamma    90

_symmetry_Int_Tables_number  129
_chemical_formula_structural  SrSnP
_chemical_formula_sum  Sr2Sn2P2
_cell_volume  173.16362541101714
_cell_formula_units_Z  2
loop_
  _symmetry_equiv_pos_site_id
 _symmetry_equiv_pos_as_xyz
 1  'x, y, z'
loop_
 _atom_site_type_symbol
 _atom_site_label
 _atom_site_symmetry_multiplicity
 _atom_site_fract_x
 _atom_site_fract_y
 _atom_site_fract_z
 _atom_site_fract_occupancy
 P  P1  1  0.50000  0.00000  0.32838  1
 P  P2  1  0.00000  0.50000  0.67162  1
 Sn  Sn1  1  0.00000  0.50000  0.94847  1
 Sn  Sn2  1  0.50000  0.00000  0.05153  1
 Sr  Sr1  1  0.50000  0.00000  0.66723  1
 Sr  Sr2  1  0.00000  0.50000  0.33277  1
