CIF file written using JARVIS-Tools package.
data_BaHgPb
_symmetry_space_group_name_H-M  'C2/m'
_cell_length_a       6.67637
_cell_length_b       6.67637
_cell_length_c       8.51858
_cell_angle_alpha    50.9286
_cell_angle_beta     50.9286
_cell_angle_gamma    47.1903

_symmetry_Int_Tables_number  12
_chemical_formula_structural  BaHgPb
_chemical_formula_sum  Ba2Hg2Pb2
_cell_volume  202.20861398751444
_cell_formula_units_Z  2
loop_
  _symmetry_equiv_pos_site_id
 _symmetry_equiv_pos_as_xyz
 1  'x, y, z'
loop_
 _atom_site_type_symbol
 _atom_site_label
 _atom_site_symmetry_multiplicity
 _atom_site_fract_x
 _atom_site_fract_y
 _atom_site_fract_z
 _atom_site_fract_occupancy
 Ba  Ba1  1  0.45785  0.45785  0.29878  1
 Ba  Ba2  1  0.54215  0.54215  0.70122  1
 Hg  Hg1  1  0.83689  0.83689  0.70155  1
 Hg  Hg2  1  0.16311  0.16311  0.29845  1
 Pb  Pb1  1  0.16209  0.16209  0.90976  1
 Pb  Pb2  1  0.83791  0.83791  0.09024  1
