CIF file written using JARVIS-Tools package.
data_CdTe
_symmetry_space_group_name_H-M  'P6_3mc'
_cell_length_a       4.64402
_cell_length_b       4.64402
_cell_length_c       7.64048
_cell_angle_alpha    90
_cell_angle_beta     90
_cell_angle_gamma    59.9944

_symmetry_Int_Tables_number  186
_chemical_formula_structural  CdTe
_chemical_formula_sum  Cd2Te2
_cell_volume  142.6970284532207
_cell_formula_units_Z  2
loop_
  _symmetry_equiv_pos_site_id
 _symmetry_equiv_pos_as_xyz
 1  'x, y, z'
loop_
 _atom_site_type_symbol
 _atom_site_label
 _atom_site_symmetry_multiplicity
 _atom_site_fract_x
 _atom_site_fract_y
 _atom_site_fract_z
 _atom_site_fract_occupancy
 Cd  Cd1  1  0.83340  0.83340  -0.00070  1
 Cd  Cd2  1  0.16660  0.16660  0.49930  1
 Te  Te1  1  0.16673  0.16673  0.12570  1
 Te  Te2  1  0.83327  0.83327  0.62570  1
