CIF file written using JARVIS-Tools package.
data_CdSnAs2
_symmetry_space_group_name_H-M  'R-3m'
_cell_length_a       7.05918
_cell_length_b       7.05919
_cell_length_c       7.05918
_cell_angle_alpha    33.3052
_cell_angle_beta     33.3051
_cell_angle_gamma    33.3052

_symmetry_Int_Tables_number  166
_chemical_formula_structural  CdSnAs2
_chemical_formula_sum  CdSnAs2
_cell_volume  94.43368814134529
_cell_formula_units_Z  1
loop_
  _symmetry_equiv_pos_site_id
 _symmetry_equiv_pos_as_xyz
 1  'x, y, z'
loop_
 _atom_site_type_symbol
 _atom_site_label
 _atom_site_symmetry_multiplicity
 _atom_site_fract_x
 _atom_site_fract_y
 _atom_site_fract_z
 _atom_site_fract_occupancy
 As  As1  1  0.25005  0.25005  0.25005  1
 As  As2  1  0.74995  0.74995  0.74995  1
 Cd  Cd1  1  0.50000  0.50000  0.50000  1
 Sn  Sn1  1  0.00000  0.00000  0.00000  1
