CIF file written using JARVIS-Tools package.
data_CrAgP2Se6
_symmetry_space_group_name_H-M  'C2'
_cell_length_a       6.37374
_cell_length_b       6.37374
_cell_length_c       7.03226
_cell_angle_alpha    81.7086
_cell_angle_beta     81.7086
_cell_angle_gamma    120.027

_symmetry_Int_Tables_number  5
_chemical_formula_structural  CrAgP2Se6
_chemical_formula_sum  CrAgP2Se6
_cell_volume  236.82046226809857
_cell_formula_units_Z  1
loop_
  _symmetry_equiv_pos_site_id
 _symmetry_equiv_pos_as_xyz
 1  'x, y, z'
loop_
 _atom_site_type_symbol
 _atom_site_label
 _atom_site_symmetry_multiplicity
 _atom_site_fract_x
 _atom_site_fract_y
 _atom_site_fract_z
 _atom_site_fract_occupancy
 Ag  Ag1  1  0.66761  0.33239  0.00000  1
 Cr  Cr1  1  0.33268  0.66732  -0.00000  1
 P  P1  1  0.05284  0.05236  0.83436  1
 P  P2  1  0.94764  0.94716  0.16564  1
 Se  Se1  1  0.11891  0.43714  0.74886  1
 Se  Se2  1  0.39744  0.04032  0.74463  1
 Se  Se3  1  0.95968  0.60256  0.25537  1
 Se  Se4  1  0.56286  0.88109  0.25114  1
 Se  Se5  1  0.72183  0.76149  0.74860  1
 Se  Se6  1  0.23851  0.27817  0.25140  1
