CIF file written using JARVIS-Tools package.
data_TiH22C12O4
_symmetry_space_group_name_H-M  'P1'
_cell_length_a       4.80071
_cell_length_b       7.85428
_cell_length_c       9.80122
_cell_angle_alpha    70.4876
_cell_angle_beta     84.8815
_cell_angle_gamma    73.1521

_symmetry_Int_Tables_number  1
_chemical_formula_structural  TiH22C12O4
_chemical_formula_sum  TiH22C2O4
_cell_volume  333.377681557892
_cell_formula_units_Z  1
loop_
  _symmetry_equiv_pos_site_id
 _symmetry_equiv_pos_as_xyz
 1  'x, y, z'
loop_
 _atom_site_type_symbol
 _atom_site_label
 _atom_site_symmetry_multiplicity
 _atom_site_fract_x
 _atom_site_fract_y
 _atom_site_fract_z
 _atom_site_fract_occupancy
 C  C1  1  0.49231  0.46075  0.52519  1
 C  C2  1  0.48047  0.03332  0.21245  1
 C  C3  1  0.72590  0.42316  0.29595  1
 C  C4  1  0.34675  0.59513  0.61017  1
 C  C5  1  0.85906  0.26017  0.94715  1
 C  C6  1  0.54820  0.56290  0.36547  1
 C  C7  1  0.88877  0.84764  0.64000  1
 C  C8  1  0.06197  0.73804  0.54195  1
 C  C9  1  0.87555  0.05197  0.79416  1
 C  C10  1  0.04286  0.97135  0.67895  1
 C  C11  1  0.02712  0.17221  0.83829  1
 C  C12  1  0.34966  0.60221  0.01138  1
 H  H1  1  0.92574  0.66236  0.51494  1
 H  H2  1  0.06812  0.08623  0.58021  1
 H  H3  1  0.67936  0.93756  0.58684  1
 H  H4  1  0.10534  0.83802  0.43846  1
 H  H5  1  0.83486  0.74720  0.74126  1
 H  H6  1  0.65401  0.13485  0.75539  1
 H  H7  1  0.50105  0.66890  0.62211  1
 H  H8  1  0.39213  0.96461  0.15215  1
 H  H9  1  0.39805  0.00021  0.32451  1
 H  H10  1  0.57118  0.61759  -0.00467  1
 H  H11  1  0.21814  0.69619  0.06989  1
 H  H12  1  0.30496  0.51033  0.72086  1
 H  H13  1  0.71911  0.98615  0.21436  1
 H  H14  1  0.35798  0.36697  0.52815  1
 H  H15  1  0.70169  0.37073  0.57697  1
 H  H16  1  0.66217  0.66838  0.35643  1
 H  H17  1  0.24728  0.63891  0.90582  1
 H  H18  1  0.26404  0.88981  0.71995  1
 H  H19  1  0.33980  0.63325  0.30696  1
 H  H20  1  0.85072  0.93546  0.89097  1
 H  H21  1  0.24483  0.09020  0.88446  1
 H  H22  1  0.06407  0.28801  0.74349  1
 O  O1  1  0.00011  0.32544  0.01666  1
 O  O2  1  0.60768  0.31588  0.26482  1
 O  O3  1  0.59582  0.26805  0.96801  1
 O  O4  1  -0.00093  0.41016  0.27548  1
 Ti  Ti1  1  0.29234  0.33128  0.13273  1
