CIF file written using JARVIS-Tools package.
data_TbNiGe
_symmetry_space_group_name_H-M  'C2/m'
_cell_length_a       5.50663
_cell_length_b       5.50664
_cell_length_c       6.9109
_cell_angle_alpha    51.842
_cell_angle_beta     51.842
_cell_angle_gamma    44.0004

_symmetry_Int_Tables_number  12
_chemical_formula_structural  TbNiGe
_chemical_formula_sum  Tb2Ni2Ge2
_cell_volume  108.54459170161127
_cell_formula_units_Z  2
loop_
  _symmetry_equiv_pos_site_id
 _symmetry_equiv_pos_as_xyz
 1  'x, y, z'
loop_
 _atom_site_type_symbol
 _atom_site_label
 _atom_site_symmetry_multiplicity
 _atom_site_fract_x
 _atom_site_fract_y
 _atom_site_fract_z
 _atom_site_fract_occupancy
 Ge  Ge1  1  0.83006  0.83006  0.60123  1
 Ge  Ge2  1  0.16994  0.16994  0.39877  1
 Ni  Ni1  1  0.16780  0.16780  0.78220  1
 Ni  Ni2  1  0.83220  0.83220  0.21780  1
 Tb  Tb1  1  0.44818  0.44818  0.81240  1
 Tb  Tb2  1  0.55182  0.55182  0.18760  1
