CIF file written using JARVIS-Tools package.
data_Ca3Mn2O7
_symmetry_space_group_name_H-M  'I4/mmm'
_cell_length_a       3.74481
_cell_length_b       3.74481
_cell_length_c       9.98348
_cell_angle_alpha    100.81
_cell_angle_beta     100.81
_cell_angle_gamma    89.9999

_symmetry_Int_Tables_number  139
_chemical_formula_structural  Ca3Mn2O7
_chemical_formula_sum  Ca3Mn2O7
_cell_volume  134.98981772564082
_cell_formula_units_Z  1
loop_
  _symmetry_equiv_pos_site_id
 _symmetry_equiv_pos_as_xyz
 1  'x, y, z'
loop_
 _atom_site_type_symbol
 _atom_site_label
 _atom_site_symmetry_multiplicity
 _atom_site_fract_x
 _atom_site_fract_y
 _atom_site_fract_z
 _atom_site_fract_occupancy
 Ca  Ca1  1  0.50000  0.50000  1.00000  1
 Ca  Ca2  1  0.31637  0.31637  0.63275  1
 Ca  Ca3  1  0.68363  0.68363  0.36725  1
 Mn  Mn1  1  0.09994  0.09995  0.19989  1
 Mn  Mn2  1  0.90005  0.90006  0.80011  1
 O  O1  1  0.90241  0.40241  0.80481  1
 O  O2  1  0.40241  0.90241  0.80481  1
 O  O3  1  0.09759  0.59759  0.19519  1
 O  O4  1  0.59759  0.09759  0.19519  1
 O  O5  1  0.80219  0.80219  0.60437  1
 O  O6  1  0.00000  0.00000  0.00000  1
 O  O7  1  0.19781  0.19781  0.39563  1
