CIF file written using JARVIS-Tools package.
data_RbLiBr2
_symmetry_space_group_name_H-M  'Cmcm'
_cell_length_a       4.33422
_cell_length_b       7.54252
_cell_length_c       7.8578
_cell_angle_alpha    90
_cell_angle_beta     106.009
_cell_angle_gamma    90

_symmetry_Int_Tables_number  63
_chemical_formula_structural  RbLiBr2
_chemical_formula_sum  Rb2Li2Br4
_cell_volume  246.9166733962585
_cell_formula_units_Z  2
loop_
  _symmetry_equiv_pos_site_id
 _symmetry_equiv_pos_as_xyz
 1  'x, y, z'
loop_
 _atom_site_type_symbol
 _atom_site_label
 _atom_site_symmetry_multiplicity
 _atom_site_fract_x
 _atom_site_fract_y
 _atom_site_fract_z
 _atom_site_fract_occupancy
 Br  Br1  1  0.30441  0.75000  0.60883  1
 Br  Br2  1  0.69559  0.25000  0.39117  1
 Br  Br3  1  0.00000  0.00000  0.00000  1
 Br  Br4  1  0.00000  0.50000  0.00000  1
 Li  Li1  1  0.89228  0.75000  0.78456  1
 Li  Li2  1  0.10772  0.25000  0.21544  1
 Rb  Rb1  1  0.62727  0.75000  0.25454  1
 Rb  Rb2  1  0.37273  0.25000  0.74546  1
