CIF file written using JARVIS-Tools package.
data_BaCd3
_symmetry_space_group_name_H-M  'P6_3/mmc'
_cell_length_a       7.46041
_cell_length_b       7.4604
_cell_length_c       5.14323
_cell_angle_alpha    90
_cell_angle_beta     90
_cell_angle_gamma    119.931

_symmetry_Int_Tables_number  194
_chemical_formula_structural  BaCd3
_chemical_formula_sum  Ba2Cd6
_cell_volume  248.0806870985012
_cell_formula_units_Z  2
loop_
  _symmetry_equiv_pos_site_id
 _symmetry_equiv_pos_as_xyz
 1  'x, y, z'
loop_
 _atom_site_type_symbol
 _atom_site_label
 _atom_site_symmetry_multiplicity
 _atom_site_fract_x
 _atom_site_fract_y
 _atom_site_fract_z
 _atom_site_fract_occupancy
 Ba  Ba1  1  0.33348  0.66652  0.25000  1
 Ba  Ba2  1  0.66652  0.33348  0.75000  1
 Cd  Cd1  1  0.14202  0.28432  0.75000  1
 Cd  Cd2  1  0.71568  0.85798  0.75000  1
 Cd  Cd3  1  0.14218  0.85782  0.75000  1
 Cd  Cd4  1  0.85798  0.71568  0.25000  1
 Cd  Cd5  1  0.28432  0.14202  0.25000  1
 Cd  Cd6  1  0.85782  0.14218  0.25000  1
