CIF file written using JARVIS-Tools package.
data_TmAsO4
_symmetry_space_group_name_H-M  'I4_1/amd'
_cell_length_a       5.8747
_cell_length_b       5.8747
_cell_length_c       5.8747
_cell_angle_alpha    106.775
_cell_angle_beta     106.779
_cell_angle_gamma    115.006

_symmetry_Int_Tables_number  141
_chemical_formula_structural  TmAsO4
_chemical_formula_sum  Tm2As2O8
_cell_volume  154.97280680682837
_cell_formula_units_Z  2
loop_
  _symmetry_equiv_pos_site_id
 _symmetry_equiv_pos_as_xyz
 1  'x, y, z'
loop_
 _atom_site_type_symbol
 _atom_site_label
 _atom_site_symmetry_multiplicity
 _atom_site_fract_x
 _atom_site_fract_y
 _atom_site_fract_z
 _atom_site_fract_occupancy
 As  As1  1  0.62501  0.37501  0.25000  1
 As  As2  1  0.37499  0.62499  0.75000  1
 O  O1  1  0.80465  0.37096  0.06631  1
 O  O2  1  0.26167  0.19536  0.06631  1
 O  O3  1  0.62905  0.19536  0.43369  1
 O  O4  1  0.80465  0.73834  0.43369  1
 O  O5  1  0.19535  0.26166  0.56631  1
 O  O6  1  0.37095  0.80464  0.56631  1
 O  O7  1  0.73833  0.80464  0.93369  1
 O  O8  1  0.19535  0.62904  0.93369  1
 Tm  Tm1  1  0.87499  0.12499  0.75000  1
 Tm  Tm2  1  0.12501  0.87501  0.25000  1
