CIF file written using JARVIS-Tools package.
data_H4C2SN2
_symmetry_space_group_name_H-M  'Pm'
_cell_length_a       5.13262
_cell_length_b       6.15214
_cell_length_c       6.15217
_cell_angle_alpha    100.831
_cell_angle_beta     101.026
_cell_angle_gamma    101.014

_symmetry_Int_Tables_number  6
_chemical_formula_structural  H4C2SN2
_chemical_formula_sum  H8C4S2N4
_cell_volume  182.01614071300344
_cell_formula_units_Z  2
loop_
  _symmetry_equiv_pos_site_id
 _symmetry_equiv_pos_as_xyz
 1  'x, y, z'
loop_
 _atom_site_type_symbol
 _atom_site_label
 _atom_site_symmetry_multiplicity
 _atom_site_fract_x
 _atom_site_fract_y
 _atom_site_fract_z
 _atom_site_fract_occupancy
 C  C1  1  0.92718  0.08345  0.47809  1
 C  C2  1  0.97389  0.77543  0.67006  1
 C  C3  1  0.97360  0.27543  0.17005  1
 C  C4  1  0.92718  0.58347  0.97807  1
 H  H1  1  0.28269  0.26956  0.44644  1
 H  H2  1  0.28276  0.76966  0.94664  1
 H  H3  1  0.03710  0.15289  0.04754  1
 H  H4  1  0.28269  0.55175  0.16421  1
 H  H5  1  0.75133  0.73820  0.63279  1
 H  H6  1  0.75106  0.23841  0.13301  1
 H  H7  1  0.03776  0.65303  0.54768  1
 H  H8  1  0.28277  0.05195  0.66431  1
 N  N1  1  0.07464  0.00483  0.64312  1
 N  N2  1  0.07463  0.74848  0.89948  1
 N  N3  1  0.07456  0.50477  0.14307  1
 N  N4  1  0.07455  0.24843  0.39942  1
 S  S1  1  0.58497  0.48562  0.88010  1
 S  S2  1  0.58497  0.98552  0.38019  1
