CIF file written using JARVIS-Tools package.
data_Ni3C
_symmetry_space_group_name_H-M  'R-3c'
_cell_length_a       5.07834
_cell_length_b       5.07834
_cell_length_c       5.07834
_cell_angle_alpha    53.8934
_cell_angle_beta     53.8934
_cell_angle_gamma    53.8935

_symmetry_Int_Tables_number  167
_chemical_formula_structural  Ni3C
_chemical_formula_sum  Ni6C2
_cell_volume  79.39414029467329
_cell_formula_units_Z  2
loop_
  _symmetry_equiv_pos_site_id
 _symmetry_equiv_pos_as_xyz
 1  'x, y, z'
loop_
 _atom_site_type_symbol
 _atom_site_label
 _atom_site_symmetry_multiplicity
 _atom_site_fract_x
 _atom_site_fract_y
 _atom_site_fract_z
 _atom_site_fract_occupancy
 C  C1  1  0.50000  0.50000  0.50000  1
 C  C2  1  0.00000  0.00000  0.00000  1
 Ni  Ni1  1  0.92240  0.25000  0.57760  1
 Ni  Ni2  1  0.42240  0.07760  0.75000  1
 Ni  Ni3  1  0.75000  0.42240  0.07760  1
 Ni  Ni4  1  0.07760  0.75000  0.42240  1
 Ni  Ni5  1  0.25000  0.57760  0.92240  1
 Ni  Ni6  1  0.57760  0.92240  0.25000  1
