CIF file written using JARVIS-Tools package.
data_H10C18S3
_symmetry_space_group_name_H-M  'P1'
_cell_length_a       3.87658
_cell_length_b       6.05476
_cell_length_c       14.6119
_cell_angle_alpha    88.6457
_cell_angle_beta     85.2906
_cell_angle_gamma    71.3155

_symmetry_Int_Tables_number  1
_chemical_formula_structural  H10C18S3
_chemical_formula_sum  H0C8S3
_cell_volume  323.79274289556764
_cell_formula_units_Z  1
loop_
  _symmetry_equiv_pos_site_id
 _symmetry_equiv_pos_as_xyz
 1  'x, y, z'
loop_
 _atom_site_type_symbol
 _atom_site_label
 _atom_site_symmetry_multiplicity
 _atom_site_fract_x
 _atom_site_fract_y
 _atom_site_fract_z
 _atom_site_fract_occupancy
 C  C1  1  0.56454  0.52035  0.45737  1
 C  C2  1  0.91244  0.45213  0.30101  1
 C  C3  1  0.19628  0.82674  0.57976  1
 C  C4  1  0.28684  0.67534  0.08234  1
 C  C5  1  0.03448  0.82674  0.67025  1
 C  C6  1  0.09652  0.67534  0.16745  1
 C  C7  1  0.37015  0.60477  0.54400  1
 C  C8  1  0.88618  0.25026  0.34373  1
 C  C9  1  0.69198  0.28792  0.43008  1
 C  C10  1  0.30884  0.25613  0.16671  1
 C  C11  1  0.49542  0.25612  0.08229  1
 C  C12  1  0.97456  0.52040  0.79215  1
 C  C13  1  0.69513  0.45219  0.94839  1
 C  C14  1  0.08057  0.28804  0.81902  1
 C  C15  1  0.92416  0.25039  0.90530  1
 C  C16  1  0.49175  0.46577  0.03706  1
 C  C17  1  0.10208  0.46577  0.21235  1
 C  C18  1  0.08410  0.60478  0.70566  1
 H  H1  1  0.27855  0.84237  0.05069  1
 H  H2  1  0.32484  0.08875  0.19862  1
 H  H3  1  0.18534  0.98563  0.54162  1
 H  H4  1  0.27081  0.14839  0.77680  1
 H  H5  1  0.97844  0.07745  0.93525  1
 H  H6  1  0.93703  0.84235  0.19939  1
 H  H7  1  0.64185  0.14823  0.47202  1
 H  H8  1  0.64736  0.08873  0.05006  1
 H  H9  1  0.00570  0.07727  0.31348  1
 H  H10  1  0.88558  0.98563  0.70865  1
 S  S1  1  0.33193  0.39670  0.62467  1
 S  S2  1  0.68017  0.69192  0.87830  1
 S  S3  1  0.68663  0.69191  0.37153  1
