CIF file written using JARVIS-Tools package.
data_Cu3As
_symmetry_space_group_name_H-M  'Pmmn'
_cell_length_a       4.28275
_cell_length_b       4.71558
_cell_length_c       5.28713
_cell_angle_alpha    90
_cell_angle_beta     90
_cell_angle_gamma    90

_symmetry_Int_Tables_number  59
_chemical_formula_structural  Cu3As
_chemical_formula_sum  Cu6As2
_cell_volume  106.77711474393924
_cell_formula_units_Z  2
loop_
  _symmetry_equiv_pos_site_id
 _symmetry_equiv_pos_as_xyz
 1  'x, y, z'
loop_
 _atom_site_type_symbol
 _atom_site_label
 _atom_site_symmetry_multiplicity
 _atom_site_fract_x
 _atom_site_fract_y
 _atom_site_fract_z
 _atom_site_fract_occupancy
 As  As1  1  0.00000  0.99761  0.00000  1
 As  As2  1  0.50000  0.33539  0.50000  1
 Cu  Cu1  1  0.00000  0.99556  0.50000  1
 Cu  Cu2  1  0.50000  0.33744  0.00000  1
 Cu  Cu3  1  0.00000  0.51385  0.25183  1
 Cu  Cu4  1  0.00000  0.51385  0.74817  1
 Cu  Cu5  1  0.50000  0.81915  0.24817  1
 Cu  Cu6  1  0.50000  0.81915  0.75183  1
