CIF file written using JARVIS-Tools package.
data_FeCo2Se4
_symmetry_space_group_name_H-M  'Cm'
_cell_length_a       6.25187
_cell_length_b       6.25187
_cell_length_c       6.09973
_cell_angle_alpha    63.1931
_cell_angle_beta     63.1931
_cell_angle_gamma    32.8802

_symmetry_Int_Tables_number  8
_chemical_formula_structural  FeCo2Se4
_chemical_formula_sum  FeCo2Se4
_cell_volume  114.23009635250985
_cell_formula_units_Z  1
loop_
  _symmetry_equiv_pos_site_id
 _symmetry_equiv_pos_as_xyz
 1  'x, y, z'
loop_
 _atom_site_type_symbol
 _atom_site_label
 _atom_site_symmetry_multiplicity
 _atom_site_fract_x
 _atom_site_fract_y
 _atom_site_fract_z
 _atom_site_fract_occupancy
 Co  Co1  1  0.99664  0.99664  0.00201  1
 Co  Co2  1  0.26398  0.26398  0.70556  1
 Fe  Fe1  1  0.74012  0.74012  0.29224  1
 Se  Se1  1  0.11554  0.11554  0.55119  1
 Se  Se2  1  0.88518  0.88518  0.45225  1
 Se  Se3  1  0.36448  0.36448  0.97590  1
 Se  Se4  1  0.63405  0.63405  0.02084  1
