CIF file written using JARVIS-Tools package.
data_Pr2CdRh2
_symmetry_space_group_name_H-M  'P4/mbm'
_cell_length_a       7.6735
_cell_length_b       7.6735
_cell_length_c       3.93255
_cell_angle_alpha    90
_cell_angle_beta     90
_cell_angle_gamma    90

_symmetry_Int_Tables_number  127
_chemical_formula_structural  Pr2CdRh2
_chemical_formula_sum  Pr4Cd2Rh4
_cell_volume  231.55841613784042
_cell_formula_units_Z  2
loop_
  _symmetry_equiv_pos_site_id
 _symmetry_equiv_pos_as_xyz
 1  'x, y, z'
loop_
 _atom_site_type_symbol
 _atom_site_label
 _atom_site_symmetry_multiplicity
 _atom_site_fract_x
 _atom_site_fract_y
 _atom_site_fract_z
 _atom_site_fract_occupancy
 Cd  Cd1  1  0.00000  0.00000  0.00000  1
 Cd  Cd2  1  0.50000  0.50000  0.00000  1
 Pr  Pr1  1  0.66892  0.16892  0.50000  1
 Pr  Pr2  1  0.33108  0.83108  0.50000  1
 Pr  Pr3  1  0.16892  0.33108  0.50000  1
 Pr  Pr4  1  0.83108  0.66892  0.50000  1
 Rh  Rh1  1  0.13295  0.63295  0.00000  1
 Rh  Rh2  1  0.86705  0.36705  0.00000  1
 Rh  Rh3  1  0.63295  0.86705  0.00000  1
 Rh  Rh4  1  0.36705  0.13295  0.00000  1
