CIF file written using JARVIS-Tools package.
data_MgAl2Sb2
_symmetry_space_group_name_H-M  'P-3m1'
_cell_length_a       4.7467
_cell_length_b       4.74671
_cell_length_c       6.64325
_cell_angle_alpha    90
_cell_angle_beta     90
_cell_angle_gamma    120

_symmetry_Int_Tables_number  164
_chemical_formula_structural  MgAl2Sb2
_chemical_formula_sum  MgAl2Sb2
_cell_volume  129.62698633402422
_cell_formula_units_Z  1
loop_
  _symmetry_equiv_pos_site_id
 _symmetry_equiv_pos_as_xyz
 1  'x, y, z'
loop_
 _atom_site_type_symbol
 _atom_site_label
 _atom_site_symmetry_multiplicity
 _atom_site_fract_x
 _atom_site_fract_y
 _atom_site_fract_z
 _atom_site_fract_occupancy
 Al  Al1  1  0.66667  0.33333  0.34570  1
 Al  Al2  1  0.33333  0.66667  0.65430  1
 Mg  Mg1  1  0.00000  0.00000  0.00000  1
 Sb  Sb1  1  0.66667  0.33333  0.77093  1
 Sb  Sb2  1  0.33333  0.66667  0.22907  1
