CIF file written using JARVIS-Tools package.
data_H5C5SNO
_symmetry_space_group_name_H-M  'P1'
_cell_length_a       5.84417
_cell_length_b       6.7901
_cell_length_c       7.72795
_cell_angle_alpha    68.8265
_cell_angle_beta     67.4745
_cell_angle_gamma    81.6925

_symmetry_Int_Tables_number  1
_chemical_formula_structural  H5C5SNO
_chemical_formula_sum  H0C0S2N2O2
_cell_volume  264.13867826233275
_cell_formula_units_Z  2
loop_
  _symmetry_equiv_pos_site_id
 _symmetry_equiv_pos_as_xyz
 1  'x, y, z'
loop_
 _atom_site_type_symbol
 _atom_site_label
 _atom_site_symmetry_multiplicity
 _atom_site_fract_x
 _atom_site_fract_y
 _atom_site_fract_z
 _atom_site_fract_occupancy
 C  C1  1  0.42276  0.98990  0.52033  1
 C  C2  1  0.15601  0.71162  0.21871  1
 C  C3  1  0.37400  0.80652  0.08011  1
 C  C4  1  0.37400  0.30652  0.58011  1
 C  C5  1  0.53008  0.18044  0.46641  1
 C  C6  1  0.53008  0.68044  0.96641  1
 C  C7  1  0.15601  0.21162  0.71871  1
 C  C8  1  0.42276  0.48990  0.02032  1
 C  C9  1  0.94914  0.29287  0.86186  1
 C  C10  1  0.94914  0.79287  0.36186  1
 H  H1  1  0.88062  0.17140  0.01033  1
 H  H2  1  0.72498  0.25749  0.72368  1
 H  H3  1  0.01315  0.92933  0.37537  1
 H  H4  1  0.01315  0.42933  0.87537  1
 H  H5  1  0.42055  0.46479  0.56029  1
 H  H6  1  0.42055  0.96479  0.06029  1
 H  H7  1  0.70785  0.22888  0.34828  1
 H  H8  1  0.70785  0.72888  0.84828  1
 H  H9  1  0.88062  0.67140  0.51033  1
 H  H10  1  0.72499  0.75749  0.22368  1
 N  N1  1  0.74066  0.36389  0.78526  1
 N  N2  1  0.74066  0.86388  0.28526  1
 O  O1  1  0.50289  0.32118  0.95700  1
 O  O2  1  0.50289  0.82118  0.45701  1
 S  S1  1  0.13502  0.46125  0.20941  1
 S  S2  1  0.13502  0.96125  0.70941  1
