CIF file written using JARVIS-Tools package.
data_ZrH8C6O4
_symmetry_space_group_name_H-M  'P1'
_cell_length_a       3.76918
_cell_length_b       4.66229
_cell_length_c       9.4301
_cell_angle_alpha    78.505
_cell_angle_beta     86.4562
_cell_angle_gamma    74.4996

_symmetry_Int_Tables_number  1
_chemical_formula_structural  ZrH8C6O4
_chemical_formula_sum  ZrH8C6O4
_cell_volume  156.4785992234625
_cell_formula_units_Z  1
loop_
  _symmetry_equiv_pos_site_id
 _symmetry_equiv_pos_as_xyz
 1  'x, y, z'
loop_
 _atom_site_type_symbol
 _atom_site_label
 _atom_site_symmetry_multiplicity
 _atom_site_fract_x
 _atom_site_fract_y
 _atom_site_fract_z
 _atom_site_fract_occupancy
 C  C1  1  0.53988  0.39024  0.92257  1
 C  C2  1  0.57139  0.69090  0.82931  1
 C  C3  1  0.56185  0.69670  0.66607  1
 C  C4  1  0.88302  0.45126  0.45461  1
 C  C5  1  0.80344  0.41415  0.61696  1
 C  C6  1  0.41763  0.39224  0.07815  1
 H  H1  1  0.79382  0.20765  0.92255  1
 H  H2  1  0.32967  0.31107  0.87629  1
 H  H3  1  0.82405  0.74031  0.85809  1
 H  H4  1  0.34216  0.87242  0.85785  1
 H  H5  1  0.07069  0.33556  0.67229  1
 H  H6  1  0.66899  0.22901  0.64913  1
 H  H7  1  0.27717  0.72825  0.63401  1
 H  H8  1  0.64146  0.89619  0.60569  1
 O  O1  1  -0.03084  0.16926  0.41379  1
 O  O2  1  0.52137  0.14220  0.16942  1
 O  O3  1  0.59176  0.65640  0.36639  1
 O  O4  1  0.19541  0.62923  0.11079  1
 Zr  Zr1  1  0.04018  0.84502  0.30394  1
