CIF file written using JARVIS-Tools package.
data_H8C9O
_symmetry_space_group_name_H-M  'P1'
_cell_length_a       4.51822
_cell_length_b       6.60144
_cell_length_c       10.8865
_cell_angle_alpha    97.7106
_cell_angle_beta     101.666
_cell_angle_gamma    91.3856

_symmetry_Int_Tables_number  1
_chemical_formula_structural  H8C9O
_chemical_formula_sum  H6C8O2
_cell_volume  314.68589171366114
_cell_formula_units_Z  2
loop_
  _symmetry_equiv_pos_site_id
 _symmetry_equiv_pos_as_xyz
 1  'x, y, z'
loop_
 _atom_site_type_symbol
 _atom_site_label
 _atom_site_symmetry_multiplicity
 _atom_site_fract_x
 _atom_site_fract_y
 _atom_site_fract_z
 _atom_site_fract_occupancy
 C  C1  1  0.60631  0.00498  0.27497  1
 C  C2  1  0.83645  0.90233  0.34117  1
 C  C3  1  0.83645  0.40233  0.84116  1
 C  C4  1  0.40104  0.94211  0.66346  1
 C  C5  1  0.40104  0.44211  0.16346  1
 C  C6  1  0.52815  0.19768  0.32676  1
 C  C7  1  0.99895  0.98974  0.46153  1
 C  C8  1  0.27950  0.80780  0.75297  1
 C  C9  1  0.69109  0.28654  0.44629  1
 C  C10  1  0.69109  0.78654  0.94629  1
 C  C11  1  0.92255  0.18349  0.51292  1
 C  C12  1  0.92255  0.68349  0.01292  1
 C  C13  1  0.24393  0.87221  0.52698  1
 C  C14  1  0.24393  0.37221  0.02698  1
 C  C15  1  0.27950  0.30779  0.25297  1
 C  C16  1  0.99895  0.48974  0.96153  1
 C  C17  1  0.52815  0.69768  0.82676  1
 C  C18  1  0.60631  0.50498  0.77497  1
 H  H1  1  0.89442  0.25125  0.80251  1
 H  H2  1  0.17243  0.90690  0.81853  1
 H  H3  1  0.48326  0.93708  0.18111  1
 H  H4  1  0.48326  0.43709  0.68111  1
 H  H5  1  0.04440  0.25651  0.60554  1
 H  H6  1  0.63458  0.43761  0.48625  1
 H  H7  1  0.63458  0.93761  0.98625  1
 H  H8  1  0.64295  0.91983  0.66844  1
 H  H9  1  0.64295  0.41983  0.16844  1
 H  H10  1  0.17243  0.40690  0.31853  1
 H  H11  1  0.10666  0.69398  0.69611  1
 H  H12  1  0.10666  0.19397  0.19611  1
 H  H13  1  0.37597  0.10367  0.69562  1
 H  H14  1  0.37597  0.60367  0.19562  1
 H  H15  1  0.89442  0.75125  0.30251  1
 H  H16  1  0.04440  0.75651  0.10554  1
 O  O1  1  0.31576  0.20946  0.97227  1
 O  O2  1  0.31575  0.70946  0.47227  1
