CIF file written using JARVIS-Tools package.
data_Hf2AlSi
_symmetry_space_group_name_H-M  'Amm2'
_cell_length_a       5.39159
_cell_length_b       5.39159
_cell_length_c       3.82998
_cell_angle_alpha    90
_cell_angle_beta     90
_cell_angle_gamma    139.029

_symmetry_Int_Tables_number  38
_chemical_formula_structural  Hf2AlSi
_chemical_formula_sum  Hf2AlSi
_cell_volume  72.99905948005
_cell_formula_units_Z  1
loop_
  _symmetry_equiv_pos_site_id
 _symmetry_equiv_pos_as_xyz
 1  'x, y, z'
loop_
 _atom_site_type_symbol
 _atom_site_label
 _atom_site_symmetry_multiplicity
 _atom_site_fract_x
 _atom_site_fract_y
 _atom_site_fract_z
 _atom_site_fract_occupancy
 Al  Al1  1  0.57877  0.42123  0.50000  1
 Hf  Hf1  1  0.85264  0.14736  0.50000  1
 Hf  Hf2  1  0.14795  0.85205  0.00000  1
 Si  Si1  1  0.42064  0.57936  0.00000  1
