CIF file written using JARVIS-Tools package.
data_Er3S3OF
_symmetry_space_group_name_H-M  'I-4m2'
_cell_length_a       10.7526
_cell_length_b       10.7526
_cell_length_c       10.7526
_cell_angle_alpha    159.948
_cell_angle_beta     159.948
_cell_angle_gamma    28.5067

_symmetry_Int_Tables_number  119
_chemical_formula_structural  Er3S3OF
_chemical_formula_sum  Er3S3OF
_cell_volume  146.08411234066648
_cell_formula_units_Z  1
loop_
  _symmetry_equiv_pos_site_id
 _symmetry_equiv_pos_as_xyz
 1  'x, y, z'
loop_
 _atom_site_type_symbol
 _atom_site_label
 _atom_site_symmetry_multiplicity
 _atom_site_fract_x
 _atom_site_fract_y
 _atom_site_fract_z
 _atom_site_fract_occupancy
 Er  Er1  1  0.00000  0.00000  0.00000  1
 Er  Er2  1  0.68633  0.68633  0.00000  1
 Er  Er3  1  0.31367  0.31367  0.00000  1
 F  F1  1  0.75000  0.25000  0.50000  1
 O  O1  1  0.25000  0.75000  0.50000  1
 S  S1  1  0.50000  0.50000  -0.00000  1
 S  S2  1  0.87122  0.87122  -0.00000  1
 S  S3  1  0.12878  0.12878  0.00000  1
