CIF file written using JARVIS-Tools package.
data_Nb5Te4
_symmetry_space_group_name_H-M  'I4/m'
_cell_length_a       3.75485
_cell_length_b       7.58763
_cell_length_c       7.58763
_cell_angle_alpha    86.49
_cell_angle_beta     75.6744
_cell_angle_gamma    75.6744

_symmetry_Int_Tables_number  87
_chemical_formula_structural  Nb5Te4
_chemical_formula_sum  Nb5Te4
_cell_volume  202.94021107269498
_cell_formula_units_Z  1
loop_
  _symmetry_equiv_pos_site_id
 _symmetry_equiv_pos_as_xyz
 1  'x, y, z'
loop_
 _atom_site_type_symbol
 _atom_site_label
 _atom_site_symmetry_multiplicity
 _atom_site_fract_x
 _atom_site_fract_y
 _atom_site_fract_z
 _atom_site_fract_occupancy
 Nb  Nb1  1  0.00000  0.00000  0.00000  1
 Nb  Nb2  1  0.31581  0.06597  0.30240  1
 Nb  Nb3  1  0.61821  0.69760  0.06597  1
 Nb  Nb4  1  0.38179  0.30240  0.93403  1
 Nb  Nb5  1  0.68419  0.93403  0.69760  1
 Te  Te1  1  0.06110  0.22558  0.65221  1
 Te  Te2  1  0.71331  0.34779  0.22558  1
 Te  Te3  1  0.28669  0.65221  0.77442  1
 Te  Te4  1  0.93890  0.77442  0.34779  1
