CIF file written using JARVIS-Tools package.
data_H2CO
_symmetry_space_group_name_H-M  'C2'
_cell_length_a       3.82587
_cell_length_b       4.56893
_cell_length_c       6.72864
_cell_angle_alpha    90.6377
_cell_angle_beta     91.5675
_cell_angle_gamma    91.1494

_symmetry_Int_Tables_number  5
_chemical_formula_structural  H2CO
_chemical_formula_sum  H8C4O4
_cell_volume  117.54183153159224
_cell_formula_units_Z  4
loop_
  _symmetry_equiv_pos_site_id
 _symmetry_equiv_pos_as_xyz
 1  'x, y, z'
loop_
 _atom_site_type_symbol
 _atom_site_label
 _atom_site_symmetry_multiplicity
 _atom_site_fract_x
 _atom_site_fract_y
 _atom_site_fract_z
 _atom_site_fract_occupancy
 C  C1  1  0.68640  0.09259  0.81853  1
 C  C2  1  0.68641  0.59259  0.81853  1
 C  C3  1  0.18640  0.09258  0.31853  1
 C  C4  1  0.18640  0.59258  0.31853  1
 H  H1  1  0.39924  0.08780  0.83123  1
 H  H2  1  0.39924  0.58780  0.83123  1
 H  H3  1  0.81112  0.09730  0.96849  1
 H  H4  1  0.81113  0.59730  0.96849  1
 H  H5  1  0.89924  0.08779  0.33123  1
 H  H6  1  0.89924  0.58779  0.33123  1
 H  H7  1  0.31112  0.09729  0.46849  1
 H  H8  1  0.31112  0.59729  0.46849  1
 O  O1  1  0.79469  0.84263  0.71011  1
 O  O2  1  0.29470  0.84262  0.21011  1
 O  O3  1  0.79469  0.34263  0.71011  1
 O  O4  1  0.29470  0.34262  0.21011  1
