CIF file written using JARVIS-Tools package.
data_LiBi3Cl2O4
_symmetry_space_group_name_H-M  'Cmcm'
_cell_length_a       5.49275
_cell_length_b       6.69251
_cell_length_c       10.9439
_cell_angle_alpha    90
_cell_angle_beta     90
_cell_angle_gamma    114.228

_symmetry_Int_Tables_number  63
_chemical_formula_structural  LiBi3Cl2O4
_chemical_formula_sum  Li2Bi6Cl4O8
_cell_volume  366.8649181122098
_cell_formula_units_Z  2
loop_
  _symmetry_equiv_pos_site_id
 _symmetry_equiv_pos_as_xyz
 1  'x, y, z'
loop_
 _atom_site_type_symbol
 _atom_site_label
 _atom_site_symmetry_multiplicity
 _atom_site_fract_x
 _atom_site_fract_y
 _atom_site_fract_z
 _atom_site_fract_occupancy
 Bi  Bi1  1  0.65513  0.31027  0.26025  1
 Bi  Bi2  1  0.14044  0.28087  -0.00000  1
 Bi  Bi3  1  0.85956  0.71913  0.50000  1
 Bi  Bi4  1  0.34487  0.68973  0.23975  1
 Bi  Bi5  1  0.65513  0.31027  0.73975  1
 Bi  Bi6  1  0.34487  0.68973  0.76025  1
 Cl  Cl1  1  0.00000  0.00000  0.25000  1
 Cl  Cl2  1  0.50324  0.00648  0.00000  1
 Cl  Cl3  1  0.00000  0.00000  0.75000  1
 Cl  Cl4  1  0.49676  0.99352  0.50000  1
 Li  Li1  1  0.78376  0.56752  0.00000  1
 Li  Li2  1  0.21624  0.43248  0.50000  1
 O  O1  1  0.48745  0.47992  0.12569  1
 O  O2  1  0.51255  0.52008  0.37431  1
 O  O3  1  0.99247  0.47992  0.12569  1
 O  O4  1  0.00753  0.52008  0.37431  1
 O  O5  1  0.51255  0.52008  0.62569  1
 O  O6  1  0.48745  0.47992  0.87431  1
 O  O7  1  0.00753  0.52008  0.62569  1
 O  O8  1  0.99247  0.47992  0.87431  1
