CIF file written using JARVIS-Tools package.
data_LiO8
_symmetry_space_group_name_H-M  'Cm'
_cell_length_a       4.97349
_cell_length_b       4.98434
_cell_length_c       4.98434
_cell_angle_alpha    73.668
_cell_angle_beta     60.7394
_cell_angle_gamma    60.7392

_symmetry_Int_Tables_number  8
_chemical_formula_structural  LiO8
_chemical_formula_sum  LiO8
_cell_volume  93.89465161569058
_cell_formula_units_Z  1
loop_
  _symmetry_equiv_pos_site_id
 _symmetry_equiv_pos_as_xyz
 1  'x, y, z'
loop_
 _atom_site_type_symbol
 _atom_site_label
 _atom_site_symmetry_multiplicity
 _atom_site_fract_x
 _atom_site_fract_y
 _atom_site_fract_z
 _atom_site_fract_occupancy
 Li  Li1  1  0.49284  0.80507  0.80507  1
 O  O1  1  0.83739  0.33871  0.81633  1
 O  O2  1  0.15531  0.23037  0.68727  1
 O  O3  1  0.15531  0.68727  0.23037  1
 O  O4  1  0.83739  0.81633  0.33871  1
 O  O5  1  0.83388  0.26833  0.26833  1
 O  O6  1  0.15865  0.73619  0.73619  1
 O  O7  1  0.14800  0.15650  0.15650  1
 O  O8  1  0.83956  0.86596  0.86596  1
