CIF file written using JARVIS-Tools package.
data_NdMnSi2
_symmetry_space_group_name_H-M  'Cmcm'
_cell_length_a       4.00104
_cell_length_b       4.08837
_cell_length_c       9.05088
_cell_angle_alpha    103.053
_cell_angle_beta     90
_cell_angle_gamma    90

_symmetry_Int_Tables_number  63
_chemical_formula_structural  NdMnSi2
_chemical_formula_sum  Nd2Mn2Si4
_cell_volume  144.22654012315493
_cell_formula_units_Z  2
loop_
  _symmetry_equiv_pos_site_id
 _symmetry_equiv_pos_as_xyz
 1  'x, y, z'
loop_
 _atom_site_type_symbol
 _atom_site_label
 _atom_site_symmetry_multiplicity
 _atom_site_fract_x
 _atom_site_fract_y
 _atom_site_fract_z
 _atom_site_fract_occupancy
 Mn  Mn1  1  0.75000  0.75013  0.50027  1
 Mn  Mn2  1  0.25000  0.24987  0.49973  1
 Nd  Nd1  1  0.25000  0.89807  0.79614  1
 Nd  Nd2  1  0.75000  0.10193  0.20386  1
 Si  Si1  1  0.25000  0.67931  0.35863  1
 Si  Si2  1  0.75000  0.32069  0.64137  1
 Si  Si3  1  0.75000  0.46311  0.92623  1
 Si  Si4  1  0.25000  0.53689  0.07377  1
