CIF file written using JARVIS-Tools package.
data_Sr2PtN2
_symmetry_space_group_name_H-M  'I4/mmm'
_cell_length_a       3.84982
_cell_length_b       3.84981
_cell_length_c       6.96835
_cell_angle_alpha    106.038
_cell_angle_beta     106.038
_cell_angle_gamma    89.9901

_symmetry_Int_Tables_number  139
_chemical_formula_structural  Sr2PtN2
_chemical_formula_sum  Sr2PtN2
_cell_volume  95.07018253898867
_cell_formula_units_Z  1
loop_
  _symmetry_equiv_pos_site_id
 _symmetry_equiv_pos_as_xyz
 1  'x, y, z'
loop_
 _atom_site_type_symbol
 _atom_site_label
 _atom_site_symmetry_multiplicity
 _atom_site_fract_x
 _atom_site_fract_y
 _atom_site_fract_z
 _atom_site_fract_occupancy
 N  N1  1  0.65004  0.15004  0.80008  1
 N  N2  1  0.34996  0.84996  0.19992  1
 Pt  Pt1  1  0.50000  -0.00000  0.50000  1
 Sr  Sr1  1  0.14925  0.64925  0.79850  1
 Sr  Sr2  1  0.85075  0.35075  0.20150  1
