CIF file written using JARVIS-Tools package.
data_H16PbC10O4
_symmetry_space_group_name_H-M  'P1'
_cell_length_a       3.88666
_cell_length_b       4.40466
_cell_length_c       15.0967
_cell_angle_alpha    84.4166
_cell_angle_beta     86.3248
_cell_angle_gamma    80.2789

_symmetry_Int_Tables_number  1
_chemical_formula_structural  H16PbC10O4
_chemical_formula_sum  H6PbC0O4
_cell_volume  253.22735931210786
_cell_formula_units_Z  1
loop_
  _symmetry_equiv_pos_site_id
 _symmetry_equiv_pos_as_xyz
 1  'x, y, z'
loop_
 _atom_site_type_symbol
 _atom_site_label
 _atom_site_symmetry_multiplicity
 _atom_site_fract_x
 _atom_site_fract_y
 _atom_site_fract_z
 _atom_site_fract_occupancy
 C  C1  1  0.59423  0.46391  0.37860  1
 C  C2  1  0.04384  0.50345  0.69566  1
 C  C3  1  0.16173  0.67591  0.61074  1
 C  C4  1  0.44069  0.66090  0.45420  1
 C  C5  1  0.34171  0.47071  0.53953  1
 C  C6  1  0.69931  0.65474  0.29403  1
 C  C7  1  0.83562  0.45769  0.21722  1
 C  C8  1  0.94876  0.64422  0.13266  1
 C  C9  1  0.05870  0.43769  0.05677  1
 C  C10  1  0.19526  0.59410  0.97066  1
 H  H1  1  0.93207  0.83269  0.58489  1
 H  H2  1  0.33809  0.82479  0.63093  1
 H  H3  1  0.47223  0.82638  0.27257  1
 H  H4  1  0.20708  0.82085  0.43113  1
 H  H5  1  0.73162  0.82613  0.11154  1
 H  H6  1  0.57622  0.32301  0.56642  1
 H  H7  1  0.26990  0.24773  0.07716  1
 H  H8  1  0.84376  0.32167  0.04140  1
 H  H9  1  0.05794  0.28118  0.23913  1
 H  H10  1  0.89908  0.78984  0.30917  1
 H  H11  1  0.82425  0.29893  0.40161  1
 H  H12  1  0.63184  0.32744  0.20152  1
 H  H13  1  0.62750  0.80921  0.46907  1
 H  H14  1  0.16835  0.31197  0.52360  1
 H  H15  1  0.16520  0.76195  0.14624  1
 H  H16  1  0.40288  0.32150  0.36254  1
 O  O1  1  0.21240  0.23459  0.72101  1
 O  O2  1  0.15247  0.47903  0.89680  1
 O  O3  1  0.77125  0.62487  0.73946  1
 O  O4  1  0.35209  0.82154  0.97266  1
 Pb  Pb1  1  0.67641  0.12918  0.83526  1
