CIF file written using JARVIS-Tools package.
data_Sr2Zn5Si3
_symmetry_space_group_name_H-M  'P4mm'
_cell_length_a       4.28182
_cell_length_b       4.28182
_cell_length_c       10.6599
_cell_angle_alpha    90
_cell_angle_beta     90
_cell_angle_gamma    90

_symmetry_Int_Tables_number  99
_chemical_formula_structural  Sr2Zn5Si3
_chemical_formula_sum  Sr2Zn5Si3
_cell_volume  195.43928522396408
_cell_formula_units_Z  1
loop_
  _symmetry_equiv_pos_site_id
 _symmetry_equiv_pos_as_xyz
 1  'x, y, z'
loop_
 _atom_site_type_symbol
 _atom_site_label
 _atom_site_symmetry_multiplicity
 _atom_site_fract_x
 _atom_site_fract_y
 _atom_site_fract_z
 _atom_site_fract_occupancy
 Si  Si1  1  0.00000  0.00000  0.61461  1
 Si  Si2  1  0.00000  0.00000  0.38756  1
 Si  Si3  1  0.50000  0.50000  0.88170  1
 Sr  Sr1  1  0.00000  0.00000  0.99594  1
 Sr  Sr2  1  0.50000  0.50000  0.50352  1
 Zn  Zn1  1  0.00000  0.50000  0.25246  1
 Zn  Zn2  1  0.50000  0.00000  0.74823  1
 Zn  Zn3  1  0.50000  0.00000  0.25246  1
 Zn  Zn4  1  0.00000  0.50000  0.74823  1
 Zn  Zn5  1  0.50000  0.50000  0.11528  1
