CIF file written using JARVIS-Tools package.
data_Li8TiS6
_symmetry_space_group_name_H-M  'R-3'
_cell_length_a       6.65476
_cell_length_b       7.19029
_cell_length_c       6.65476
_cell_angle_alpha    117.565
_cell_angle_beta     60
_cell_angle_gamma    117.565

_symmetry_Int_Tables_number  148
_chemical_formula_structural  Li8TiS6
_chemical_formula_sum  Li8TiS6
_cell_volume  233.09524246446713
_cell_formula_units_Z  1
loop_
  _symmetry_equiv_pos_site_id
 _symmetry_equiv_pos_as_xyz
 1  'x, y, z'
loop_
 _atom_site_type_symbol
 _atom_site_label
 _atom_site_symmetry_multiplicity
 _atom_site_fract_x
 _atom_site_fract_y
 _atom_site_fract_z
 _atom_site_fract_occupancy
 Li  Li1  1  0.10732  0.35994  0.47953  1
 Li  Li2  1  0.52047  0.64006  0.22691  1
 Li  Li3  1  0.22691  0.64006  0.89268  1
 Li  Li4  1  0.33727  0.01181  0.33727  1
 Li  Li5  1  0.66273  0.98819  0.66273  1
 Li  Li6  1  0.77309  0.35994  0.10732  1
 Li  Li7  1  0.47953  0.35994  0.77309  1
 Li  Li8  1  0.89268  0.64006  0.52047  1
 S  S1  1  0.23665  0.76856  0.61769  1
 S  S2  1  0.38231  0.23144  0.08577  1
 S  S3  1  0.08577  0.23144  0.76335  1
 S  S4  1  0.91423  0.76856  0.23665  1
 S  S5  1  0.61769  0.76856  0.91423  1
 S  S6  1  0.76335  0.23144  0.38231  1
 Ti  Ti1  1  0.00000  0.00000  0.00000  1
