CIF file written using JARVIS-Tools package.
data_Pb2ClO2
_symmetry_space_group_name_H-M  'I4/mmm'
_cell_length_a       3.99151
_cell_length_b       3.99148
_cell_length_c       6.87136
_cell_angle_alpha    106.877
_cell_angle_beta     106.885
_cell_angle_gamma    89.9999

_symmetry_Int_Tables_number  139
_chemical_formula_structural  Pb2ClO2
_chemical_formula_sum  Pb2ClO2
_cell_volume  99.81817728007576
_cell_formula_units_Z  1
loop_
  _symmetry_equiv_pos_site_id
 _symmetry_equiv_pos_as_xyz
 1  'x, y, z'
loop_
 _atom_site_type_symbol
 _atom_site_label
 _atom_site_symmetry_multiplicity
 _atom_site_fract_x
 _atom_site_fract_y
 _atom_site_fract_z
 _atom_site_fract_occupancy
 Cl  Cl1  1  0.50000  0.50000  -0.00000  1
 O  O1  1  0.75000  0.24999  0.50000  1
 O  O2  1  0.25000  0.75001  0.50000  1
 Pb  Pb1  1  0.84757  0.84751  0.69514  1
 Pb  Pb2  1  0.15243  0.15249  0.30486  1
