CIF file written using JARVIS-Tools package.
data_Ce2SeF4
_symmetry_space_group_name_H-M  'R-3m'
_cell_length_a       8.02629
_cell_length_b       8.02629
_cell_length_c       8.02629
_cell_angle_alpha    29.9291
_cell_angle_beta     29.929
_cell_angle_gamma    29.929

_symmetry_Int_Tables_number  166
_chemical_formula_structural  Ce2SeF4
_chemical_formula_sum  Ce2SeF4
_cell_volume  113.99865676229282
_cell_formula_units_Z  1
loop_
  _symmetry_equiv_pos_site_id
 _symmetry_equiv_pos_as_xyz
 1  'x, y, z'
loop_
 _atom_site_type_symbol
 _atom_site_label
 _atom_site_symmetry_multiplicity
 _atom_site_fract_x
 _atom_site_fract_y
 _atom_site_fract_z
 _atom_site_fract_occupancy
 Ce  Ce1  1  0.75638  0.75638  0.75638  1
 Ce  Ce2  1  0.24362  0.24362  0.24362  1
 F  F1  1  0.86073  0.86073  0.86073  1
 F  F2  1  0.13927  0.13927  0.13927  1
 F  F3  1  0.56830  0.56830  0.56830  1
 F  F4  1  0.43170  0.43170  0.43170  1
 Se  Se1  1  0.00000  0.00000  0.00000  1
