CIF file written using JARVIS-Tools package.
data_CdPb3Se4
_symmetry_space_group_name_H-M  'R-3m'
_cell_length_a       14.2327
_cell_length_b       14.2327
_cell_length_c       14.2327
_cell_angle_alpha    17.3623
_cell_angle_beta     17.3623
_cell_angle_gamma    17.3623

_symmetry_Int_Tables_number  166
_chemical_formula_structural  CdPb3Se4
_chemical_formula_sum  CdPb3Se4
_cell_volume  224.0484105015456
_cell_formula_units_Z  1
loop_
  _symmetry_equiv_pos_site_id
 _symmetry_equiv_pos_as_xyz
 1  'x, y, z'
loop_
 _atom_site_type_symbol
 _atom_site_label
 _atom_site_symmetry_multiplicity
 _atom_site_fract_x
 _atom_site_fract_y
 _atom_site_fract_z
 _atom_site_fract_occupancy
 Cd  Cd1  1  0.00000  0.00000  0.00000  1
 Pb  Pb1  1  0.25327  0.25327  0.25327  1
 Pb  Pb2  1  0.50000  0.50000  0.50000  1
 Pb  Pb3  1  0.74673  0.74673  0.74673  1
 Se  Se1  1  0.12329  0.12329  0.12329  1
 Se  Se2  1  0.36940  0.36940  0.36940  1
 Se  Se3  1  0.63060  0.63060  0.63060  1
 Se  Se4  1  0.87671  0.87671  0.87671  1
