CIF file written using JARVIS-Tools package.
data_H6C7N2O
_symmetry_space_group_name_H-M  'C2/c'
_cell_length_a       4.68977
_cell_length_b       7.17013
_cell_length_c       8.8053
_cell_angle_alpha    96.1872
_cell_angle_beta     89.9987
_cell_angle_gamma    109.093

_symmetry_Int_Tables_number  15
_chemical_formula_structural  H6C7N2O
_chemical_formula_sum  H2C4N4O2
_cell_volume  277.97439651005027
_cell_formula_units_Z  2
loop_
  _symmetry_equiv_pos_site_id
 _symmetry_equiv_pos_as_xyz
 1  'x, y, z'
loop_
 _atom_site_type_symbol
 _atom_site_label
 _atom_site_symmetry_multiplicity
 _atom_site_fract_x
 _atom_site_fract_y
 _atom_site_fract_z
 _atom_site_fract_occupancy
 C  C1  1  0.34961  0.68259  0.83815  1
 C  C2  1  0.30022  0.26180  0.71426  1
 C  C3  1  0.89759  0.10339  0.46204  1
 C  C4  1  0.92613  0.28930  0.53800  1
 C  C5  1  0.07254  0.99461  0.51157  1
 C  C6  1  0.84818  0.68259  0.33815  1
 C  C7  1  0.27168  0.07589  0.63829  1
 C  C8  1  0.12528  0.37058  0.66472  1
 C  C9  1  0.72103  0.10340  0.96205  1
 C  C10  1  0.43726  0.99460  0.01157  1
 C  C11  1  0.76051  0.37059  0.16472  1
 C  C12  1  0.31937  0.07587  0.13828  1
 C  C13  1  0.87841  0.28932  0.03801  1
 C  C14  1  0.47675  0.26179  0.21425  1
 H  H1  1  0.41108  0.99322  0.67576  1
 H  H2  1  0.02427  0.78528  0.93501  1
 H  H3  1  0.17350  0.57991  0.24127  1
 H  H4  1  0.27620  0.78530  0.43503  1
 H  H5  1  0.78674  0.37197  0.50054  1
 H  H6  1  0.74226  0.04513  0.36346  1
 H  H7  1  0.10049  0.37200  0.00056  1
 H  H8  1  0.09728  0.99319  0.17574  1
 H  H9  1  0.92160  0.57989  0.74125  1
 H  H10  1  0.45556  0.32006  0.81284  1
 H  H11  1  0.81812  0.04514  0.86348  1
 H  H12  1  0.37966  0.32005  0.31282  1
 N  N1  1  0.94461  0.55228  0.24303  1
 N  N2  1  0.07494  0.81292  0.43326  1
 N  N3  1  0.12286  0.55226  0.74303  1
 N  N4  1  0.25317  0.81291  0.93326  1
 O  O1  1  0.58079  0.68257  0.33816  1
 O  O2  1  0.61699  0.68260  0.83816  1
