CIF file written using JARVIS-Tools package.
data_Mn6O5F7
_symmetry_space_group_name_H-M  'Pm'
_cell_length_a       4.67545
_cell_length_b       9.34178
_cell_length_c       4.69114
_cell_angle_alpha    90
_cell_angle_beta     94.1279
_cell_angle_gamma    90

_symmetry_Int_Tables_number  6
_chemical_formula_structural  Mn6O5F7
_chemical_formula_sum  Mn6O5F7
_cell_volume  204.36383414969598
_cell_formula_units_Z  1
loop_
  _symmetry_equiv_pos_site_id
 _symmetry_equiv_pos_as_xyz
 1  'x, y, z'
loop_
 _atom_site_type_symbol
 _atom_site_label
 _atom_site_symmetry_multiplicity
 _atom_site_fract_x
 _atom_site_fract_y
 _atom_site_fract_z
 _atom_site_fract_occupancy
 F  F1  1  0.18262  0.17632  0.81509  1
 F  F2  1  0.18262  0.82368  0.81509  1
 F  F3  1  0.70995  0.32883  0.70519  1
 F  F4  1  0.70995  0.67117  0.70519  1
 F  F5  1  0.79587  0.16611  0.19742  1
 F  F6  1  0.79587  0.83389  0.19742  1
 F  F7  1  0.22640  0.50000  0.78277  1
 Mn  Mn1  1  0.98060  0.00000  0.99218  1
 Mn  Mn2  1  0.51107  0.50000  0.45510  1
 Mn  Mn3  1  0.47932  0.84257  0.49121  1
 Mn  Mn4  1  0.47932  0.15743  0.49121  1
 Mn  Mn5  1  0.01279  0.34054  0.02816  1
 Mn  Mn6  1  0.01279  0.65946  0.02816  1
 O  O1  1  0.67643  0.00000  0.69316  1
 O  O2  1  0.27943  0.00000  0.29681  1
 O  O3  1  0.82917  0.50000  0.19332  1
 O  O4  1  0.31791  0.32750  0.30626  1
 O  O5  1  0.31791  0.67250  0.30626  1
