CIF file written using JARVIS-Tools package.
data_CdH10C7O4
_symmetry_space_group_name_H-M  'P1'
_cell_length_a       4.13137
_cell_length_b       4.25003
_cell_length_c       10.8909
_cell_angle_alpha    79.8768
_cell_angle_beta     83.6214
_cell_angle_gamma    74.0077

_symmetry_Int_Tables_number  1
_chemical_formula_structural  CdH10C7O4
_chemical_formula_sum  CdH0C7O4
_cell_volume  180.56672241940694
_cell_formula_units_Z  1
loop_
  _symmetry_equiv_pos_site_id
 _symmetry_equiv_pos_as_xyz
 1  'x, y, z'
loop_
 _atom_site_type_symbol
 _atom_site_label
 _atom_site_symmetry_multiplicity
 _atom_site_fract_x
 _atom_site_fract_y
 _atom_site_fract_z
 _atom_site_fract_occupancy
 C  C1  1  0.20187  0.67250  0.00225  1
 C  C2  1  0.14735  0.93765  0.88823  1
 C  C3  1  0.04968  0.81012  0.77642  1
 C  C4  1  0.34765  0.64293  0.69358  1
 C  C5  1  0.24830  0.51669  0.58328  1
 C  C6  1  0.13343  0.78309  0.46995  1
 C  C7  1  0.34763  0.72755  0.34830  1
 Cd  Cd1  1  0.75900  0.20679  0.17311  1
 H  H1  1  0.12822  0.03259  0.48581  1
 H  H2  1  0.46595  0.32886  0.55052  1
 H  H3  1  0.37918  0.01899  0.86390  1
 H  H4  1  0.94375  0.14862  0.91200  1
 H  H5  1  0.50242  0.81624  0.65733  1
 H  H6  1  0.50897  0.43474  0.75228  1
 H  H7  1  0.89272  0.63908  0.81204  1
 H  H8  1  0.88702  0.02151  0.71935  1
 H  H9  1  0.04889  0.39075  0.61619  1
 H  H10  1  0.87369  0.80026  0.44955  1
 O  O1  1  0.57418  0.45873  0.34442  1
 O  O2  1  0.97424  0.69356  0.09386  1
 O  O3  1  0.29160  0.96474  0.25473  1
 O  O4  1  0.46469  0.43150  0.00093  1
