CIF file written using JARVIS-Tools package.
data_CaH2C3O4
_symmetry_space_group_name_H-M  'P1'
_cell_length_a       4.2252
_cell_length_b       6.28418
_cell_length_c       7.57002
_cell_angle_alpha    91.7008
_cell_angle_beta     91.2286
_cell_angle_gamma    90.4634

_symmetry_Int_Tables_number  1
_chemical_formula_structural  CaH2C3O4
_chemical_formula_sum  Ca2H4C6O8
_cell_volume  200.85653094899592
_cell_formula_units_Z  2
loop_
  _symmetry_equiv_pos_site_id
 _symmetry_equiv_pos_as_xyz
 1  'x, y, z'
loop_
 _atom_site_type_symbol
 _atom_site_label
 _atom_site_symmetry_multiplicity
 _atom_site_fract_x
 _atom_site_fract_y
 _atom_site_fract_z
 _atom_site_fract_occupancy
 C  C1  1  0.56539  0.49263  0.30259  1
 C  C2  1  0.56784  0.89321  0.70206  1
 C  C3  1  0.56539  0.49264  0.80259  1
 C  C4  1  0.56784  0.89321  0.20206  1
 C  C5  1  0.39534  0.69245  0.75020  1
 C  C6  1  0.39534  0.69245  0.25020  1
 Ca  Ca1  1  0.94573  0.19467  0.50505  1
 Ca  Ca2  1  0.94573  0.19467  0.00505  1
 H  H1  1  0.23631  0.64577  0.63946  1
 H  H2  1  0.23568  0.73899  0.35625  1
 H  H3  1  0.23569  0.73899  0.85625  1
 H  H4  1  0.23631  0.64577  0.13945  1
 O  O1  1  0.83322  0.94798  0.27461  1
 O  O2  1  0.43170  0.37393  0.91327  1
 O  O3  1  0.82824  0.43858  0.73473  1
 O  O4  1  0.82824  0.43858  0.23473  1
 O  O5  1  0.43300  0.01193  0.58976  1
 O  O6  1  0.43300  0.01193  0.08976  1
 O  O7  1  0.83322  0.94798  0.77461  1
 O  O8  1  0.43170  0.37393  0.41327  1
