CIF file written using JARVIS-Tools package.
data_NaMgN
_symmetry_space_group_name_H-M  'P6_3mc'
_cell_length_a       3.53913
_cell_length_b       3.53914
_cell_length_c       8.73683
_cell_angle_alpha    90
_cell_angle_beta     90
_cell_angle_gamma    120

_symmetry_Int_Tables_number  186
_chemical_formula_structural  NaMgN
_chemical_formula_sum  Na2Mg2N2
_cell_volume  94.77151020906535
_cell_formula_units_Z  2
loop_
  _symmetry_equiv_pos_site_id
 _symmetry_equiv_pos_as_xyz
 1  'x, y, z'
loop_
 _atom_site_type_symbol
 _atom_site_label
 _atom_site_symmetry_multiplicity
 _atom_site_fract_x
 _atom_site_fract_y
 _atom_site_fract_z
 _atom_site_fract_occupancy
 Mg  Mg1  1  -0.00000  -0.00000  0.52930  1
 Mg  Mg2  1  0.00000  0.00000  0.02930  1
 N  N1  1  0.33333  0.66667  0.56041  1
 N  N2  1  0.66667  0.33333  0.06041  1
 Na  Na1  1  0.66667  0.33333  0.75493  1
 Na  Na2  1  0.33333  0.66667  0.25493  1
