CIF file written using JARVIS-Tools package.
data_CaMnS2
_symmetry_space_group_name_H-M  'R-3m'
_cell_length_a       6.12113
_cell_length_b       6.12113
_cell_length_c       6.12114
_cell_angle_alpha    34.9814
_cell_angle_beta     34.9813
_cell_angle_gamma    34.9814

_symmetry_Int_Tables_number  166
_chemical_formula_structural  CaMnS2
_chemical_formula_sum  CaMnS2
_cell_volume  67.3060941515152
_cell_formula_units_Z  1
loop_
  _symmetry_equiv_pos_site_id
 _symmetry_equiv_pos_as_xyz
 1  'x, y, z'
loop_
 _atom_site_type_symbol
 _atom_site_label
 _atom_site_symmetry_multiplicity
 _atom_site_fract_x
 _atom_site_fract_y
 _atom_site_fract_z
 _atom_site_fract_occupancy
 Ca  Ca1  1  0.00000  0.00000  0.00000  1
 Mn  Mn1  1  0.50000  0.50000  0.50000  1
 S  S1  1  0.23166  0.23166  0.23166  1
 S  S2  1  0.76834  0.76834  0.76834  1
