CIF file written using JARVIS-Tools package.
data_Te2AuCl
_symmetry_space_group_name_H-M  'Cmcm'
_cell_length_a       4.0919
_cell_length_b       6.4448
_cell_length_c       8.78609
_cell_angle_alpha    90
_cell_angle_beta     90
_cell_angle_gamma    108.509

_symmetry_Int_Tables_number  63
_chemical_formula_structural  Te2AuCl
_chemical_formula_sum  Te4Au2Cl2
_cell_volume  219.7169434900746
_cell_formula_units_Z  2
loop_
  _symmetry_equiv_pos_site_id
 _symmetry_equiv_pos_as_xyz
 1  'x, y, z'
loop_
 _atom_site_type_symbol
 _atom_site_label
 _atom_site_symmetry_multiplicity
 _atom_site_fract_x
 _atom_site_fract_y
 _atom_site_fract_z
 _atom_site_fract_occupancy
 Au  Au1  1  0.91010  0.82021  0.25000  1
 Au  Au2  1  0.08990  0.17979  0.75000  1
 Cl  Cl1  1  0.16515  0.33031  0.25000  1
 Cl  Cl2  1  0.83485  0.66969  0.75000  1
 Te  Te1  1  0.61026  0.22052  0.95194  1
 Te  Te2  1  0.38974  0.77948  0.04806  1
 Te  Te3  1  0.38974  0.77948  0.45194  1
 Te  Te4  1  0.61026  0.22052  0.54806  1
