CIF file written using JARVIS-Tools package.
data_UGeAu
_symmetry_space_group_name_H-M  'Immm'
_cell_length_a       5.7876
_cell_length_b       5.78759
_cell_length_c       5.88068
_cell_angle_alpha    59.4913
_cell_angle_beta     59.4912
_cell_angle_gamma    46.7217

_symmetry_Int_Tables_number  71
_chemical_formula_structural  UGeAu
_chemical_formula_sum  U2Ge2Au2
_cell_volume  119.48508192611257
_cell_formula_units_Z  2
loop_
  _symmetry_equiv_pos_site_id
 _symmetry_equiv_pos_as_xyz
 1  'x, y, z'
loop_
 _atom_site_type_symbol
 _atom_site_label
 _atom_site_symmetry_multiplicity
 _atom_site_fract_x
 _atom_site_fract_y
 _atom_site_fract_z
 _atom_site_fract_occupancy
 Au  Au1  1  0.84180  0.84180  0.65795  1
 Au  Au2  1  0.15820  0.15820  0.34205  1
 Ge  Ge1  1  0.18465  0.18465  0.81530  1
 Ge  Ge2  1  0.81535  0.81535  0.18470  1
 U  U1  1  0.49985  0.49985  0.77881  1
 U  U2  1  0.50015  0.50015  0.22119  1
