CIF file written using JARVIS-Tools package.
data_CdHgO2
_symmetry_space_group_name_H-M  'C2/m'
_cell_length_a       3.52423
_cell_length_b       3.52423
_cell_length_c       6.55586
_cell_angle_alpha    103.866
_cell_angle_beta     103.866
_cell_angle_gamma    59.8745

_symmetry_Int_Tables_number  12
_chemical_formula_structural  CdHgO2
_chemical_formula_sum  CdHgO2
_cell_volume  67.68033352278934
_cell_formula_units_Z  1
loop_
  _symmetry_equiv_pos_site_id
 _symmetry_equiv_pos_as_xyz
 1  'x, y, z'
loop_
 _atom_site_type_symbol
 _atom_site_label
 _atom_site_symmetry_multiplicity
 _atom_site_fract_x
 _atom_site_fract_y
 _atom_site_fract_z
 _atom_site_fract_occupancy
 Cd  Cd1  1  0.00000  0.00000  0.00000  1
 Hg  Hg1  1  0.50000  0.50000  0.50000  1
 O  O1  1  0.61271  0.61271  0.81796  1
 O  O2  1  0.38729  0.38729  0.18204  1
