CIF file written using JARVIS-Tools package.
data_SrMg2Sb2
_symmetry_space_group_name_H-M  'P-3m1'
_cell_length_a       4.7264
_cell_length_b       4.7264
_cell_length_c       7.83409
_cell_angle_alpha    90
_cell_angle_beta     90
_cell_angle_gamma    120

_symmetry_Int_Tables_number  164
_chemical_formula_structural  SrMg2Sb2
_chemical_formula_sum  SrMg2Sb2
_cell_volume  151.5579453387595
_cell_formula_units_Z  1
loop_
  _symmetry_equiv_pos_site_id
 _symmetry_equiv_pos_as_xyz
 1  'x, y, z'
loop_
 _atom_site_type_symbol
 _atom_site_label
 _atom_site_symmetry_multiplicity
 _atom_site_fract_x
 _atom_site_fract_y
 _atom_site_fract_z
 _atom_site_fract_occupancy
 Mg  Mg1  1  0.66667  0.33333  0.37168  1
 Mg  Mg2  1  0.33333  0.66667  0.62832  1
 Sb  Sb1  1  0.33333  0.66667  0.25552  1
 Sb  Sb2  1  0.66667  0.33333  0.74448  1
 Sr  Sr1  1  0.00000  0.00000  0.00000  1
