CIF file written using JARVIS-Tools package.
data_Ti3Te
_symmetry_space_group_name_H-M  'P6_3/mmc'
_cell_length_a       5.80662
_cell_length_b       5.80662
_cell_length_c       4.85367
_cell_angle_alpha    90
_cell_angle_beta     90
_cell_angle_gamma    120

_symmetry_Int_Tables_number  194
_chemical_formula_structural  Ti3Te
_chemical_formula_sum  Ti6Te2
_cell_volume  141.7251313011699
_cell_formula_units_Z  2
loop_
  _symmetry_equiv_pos_site_id
 _symmetry_equiv_pos_as_xyz
 1  'x, y, z'
loop_
 _atom_site_type_symbol
 _atom_site_label
 _atom_site_symmetry_multiplicity
 _atom_site_fract_x
 _atom_site_fract_y
 _atom_site_fract_z
 _atom_site_fract_occupancy
 Te  Te1  1  0.33333  0.66667  0.75000  1
 Te  Te2  1  0.66667  0.33333  0.25000  1
 Ti  Ti1  1  0.15976  0.31952  0.25000  1
 Ti  Ti2  1  0.68048  0.84024  0.25000  1
 Ti  Ti3  1  0.15976  0.84024  0.25000  1
 Ti  Ti4  1  0.84024  0.68048  0.75000  1
 Ti  Ti5  1  0.31952  0.15976  0.75000  1
 Ti  Ti6  1  0.84024  0.15976  0.75000  1
