CIF file written using JARVIS-Tools package.
data_Hf4AlSi
_symmetry_space_group_name_H-M  'I422'
_cell_length_a       5.3986
_cell_length_b       5.39859
_cell_length_c       5.39859
_cell_angle_alpha    103.597
_cell_angle_beta     103.597
_cell_angle_gamma    121.993

_symmetry_Int_Tables_number  97
_chemical_formula_structural  Hf4AlSi
_chemical_formula_sum  Hf4AlSi
_cell_volume  116.7079383472054
_cell_formula_units_Z  1
loop_
  _symmetry_equiv_pos_site_id
 _symmetry_equiv_pos_as_xyz
 1  'x, y, z'
loop_
 _atom_site_type_symbol
 _atom_site_label
 _atom_site_symmetry_multiplicity
 _atom_site_fract_x
 _atom_site_fract_y
 _atom_site_fract_z
 _atom_site_fract_occupancy
 Al  Al1  1  0.50000  0.50000  -0.00000  1
 Hf  Hf1  1  0.40372  0.90372  0.80743  1
 Hf  Hf2  1  0.09628  0.59628  0.19257  1
 Hf  Hf3  1  0.59628  0.40372  0.50000  1
 Hf  Hf4  1  0.90372  0.09628  0.50000  1
 Si  Si1  1  0.00000  0.00000  0.00000  1
