CIF file written using JARVIS-Tools package.
data_SrCeN2
_symmetry_space_group_name_H-M  'I4_1/amd'
_cell_length_a       6.32005
_cell_length_b       6.32005
_cell_length_c       6.32005
_cell_angle_alpha    131.681
_cell_angle_beta     131.681
_cell_angle_gamma    70.7335

_symmetry_Int_Tables_number  141
_chemical_formula_structural  SrCeN2
_chemical_formula_sum  Sr2Ce2N4
_cell_volume  137.93232859804164
_cell_formula_units_Z  2
loop_
  _symmetry_equiv_pos_site_id
 _symmetry_equiv_pos_as_xyz
 1  'x, y, z'
loop_
 _atom_site_type_symbol
 _atom_site_label
 _atom_site_symmetry_multiplicity
 _atom_site_fract_x
 _atom_site_fract_y
 _atom_site_fract_z
 _atom_site_fract_occupancy
 Ce  Ce1  1  0.25000  0.75000  0.50000  1
 Ce  Ce2  1  0.50000  0.50000  0.00000  1
 N  N1  1  0.72198  0.72198  0.00000  1
 N  N2  1  0.47198  0.97198  0.50000  1
 N  N3  1  0.27802  0.27802  1.00000  1
 N  N4  1  0.02802  0.52802  0.50000  1
 Sr  Sr1  1  0.00000  0.00000  0.00000  1
 Sr  Sr2  1  0.75000  0.25000  0.50000  1
