CIF file written using JARVIS-Tools package.
data_Sm2Ga3Cu
_symmetry_space_group_name_H-M  'P3m1'
_cell_length_a       4.39063
_cell_length_b       4.39062
_cell_length_c       7.50215
_cell_angle_alpha    90
_cell_angle_beta     90
_cell_angle_gamma    120

_symmetry_Int_Tables_number  156
_chemical_formula_structural  Sm2Ga3Cu
_chemical_formula_sum  Sm2Ga3Cu
_cell_volume  125.24759130617598
_cell_formula_units_Z  1
loop_
  _symmetry_equiv_pos_site_id
 _symmetry_equiv_pos_as_xyz
 1  'x, y, z'
loop_
 _atom_site_type_symbol
 _atom_site_label
 _atom_site_symmetry_multiplicity
 _atom_site_fract_x
 _atom_site_fract_y
 _atom_site_fract_z
 _atom_site_fract_occupancy
 Cu  Cu1  1  0.66667  0.33333  0.52344  1
 Ga  Ga1  1  0.33333  0.66667  0.48317  1
 Ga  Ga2  1  0.33333  0.66667  0.04158  1
 Ga  Ga3  1  0.66667  0.33333  0.95598  1
 Sm  Sm1  1  0.00000  0.00000  0.73322  1
 Sm  Sm2  1  0.00000  0.00000  0.26260  1
