CIF file written using JARVIS-Tools package.
data_NbCo3O8
_symmetry_space_group_name_H-M  'P6_3mc'
_cell_length_a       5.66931
_cell_length_b       5.66962
_cell_length_c       9.16917
_cell_angle_alpha    89.9994
_cell_angle_beta     90.0003
_cell_angle_gamma    120.002

_symmetry_Int_Tables_number  186
_chemical_formula_structural  NbCo3O8
_chemical_formula_sum  Nb2Co6O6
_cell_volume  255.23277964410676
_cell_formula_units_Z  2
loop_
  _symmetry_equiv_pos_site_id
 _symmetry_equiv_pos_as_xyz
 1  'x, y, z'
loop_
 _atom_site_type_symbol
 _atom_site_label
 _atom_site_symmetry_multiplicity
 _atom_site_fract_x
 _atom_site_fract_y
 _atom_site_fract_z
 _atom_site_fract_occupancy
 Co  Co1  1  0.16816  0.83188  0.21523  1
 Co  Co2  1  0.16816  0.33630  0.21523  1
 Co  Co3  1  0.66375  0.83188  0.21523  1
 Co  Co4  1  0.33625  0.16813  0.71523  1
 Co  Co5  1  0.83184  0.66373  0.71523  1
 Co  Co6  1  0.83184  0.16814  0.71523  1
 Nb  Nb1  1  0.33331  0.66666  0.49752  1
 Nb  Nb2  1  0.66669  0.33335  0.99752  1
 O  O1  1  0.16197  0.83804  0.60159  1
 O  O2  1  0.03370  0.51686  0.32933  1
 O  O3  1  0.33335  0.66669  0.11131  1
 O  O4  1  0.96630  0.48316  0.82933  1
 O  O5  1  -0.00003  -0.00000  0.81056  1
 O  O6  1  0.16197  0.32394  0.60160  1
 O  O7  1  0.00003  0.00003  0.31056  1
 O  O8  1  0.51682  0.48313  0.82933  1
 O  O9  1  0.32394  0.16198  0.10160  1
 O  O10  1  0.67606  0.83804  0.60160  1
 O  O11  1  0.48318  0.96631  0.32933  1
 O  O12  1  0.51683  0.03371  0.82934  1
 O  O13  1  0.66665  0.33334  0.61131  1
 O  O14  1  0.83803  0.67608  0.10159  1
 O  O15  1  0.48317  0.51688  0.32934  1
 O  O16  1  0.83803  0.16197  0.10160  1
