CIF file written using JARVIS-Tools package.
data_LiZr2S4
_symmetry_space_group_name_H-M  'P2/m'
_cell_length_a       3.63446
_cell_length_b       6.27996
_cell_length_c       6.50363
_cell_angle_alpha    71.5953
_cell_angle_beta     90
_cell_angle_gamma    90

_symmetry_Int_Tables_number  10
_chemical_formula_structural  LiZr2S4
_chemical_formula_sum  LiZr2S4
_cell_volume  140.8480953627467
_cell_formula_units_Z  1
loop_
  _symmetry_equiv_pos_site_id
 _symmetry_equiv_pos_as_xyz
 1  'x, y, z'
loop_
 _atom_site_type_symbol
 _atom_site_label
 _atom_site_symmetry_multiplicity
 _atom_site_fract_x
 _atom_site_fract_y
 _atom_site_fract_z
 _atom_site_fract_occupancy
 Li  Li1  1  0.00000  0.50000  0.50000  1
 S  S1  1  0.50000  0.75241  0.24938  1
 S  S2  1  0.00000  0.25234  0.24530  1
 S  S3  1  0.50000  0.24759  0.75062  1
 S  S4  1  0.00000  0.74766  0.75470  1
 Zr  Zr1  1  0.00000  0.00000  0.00000  1
 Zr  Zr2  1  0.50000  0.50000  -0.00000  1
