CIF file written using JARVIS-Tools package.
data_ZnH6C5O4
_symmetry_space_group_name_H-M  'P1'
_cell_length_a       4.47318
_cell_length_b       4.87572
_cell_length_c       7.69749
_cell_angle_alpha    82.8564
_cell_angle_beta     71.1158
_cell_angle_gamma    66.8744

_symmetry_Int_Tables_number  1
_chemical_formula_structural  ZnH6C5O4
_chemical_formula_sum  ZnH6C5O4
_cell_volume  146.08102094217247
_cell_formula_units_Z  1
loop_
  _symmetry_equiv_pos_site_id
 _symmetry_equiv_pos_as_xyz
 1  'x, y, z'
loop_
 _atom_site_type_symbol
 _atom_site_label
 _atom_site_symmetry_multiplicity
 _atom_site_fract_x
 _atom_site_fract_y
 _atom_site_fract_z
 _atom_site_fract_occupancy
 C  C1  1  0.56205  0.25721  0.48303  1
 C  C2  1  0.26025  0.47951  0.61720  1
 C  C3  1  0.05851  0.34076  0.77772  1
 C  C4  1  0.78029  0.58797  0.90898  1
 C  C5  1  0.52910  0.49267  0.06205  1
 H  H1  1  0.35022  0.62763  0.66453  1
 H  H2  1  0.08835  0.61686  0.53717  1
 H  H3  1  0.22730  0.18208  0.85205  1
 H  H4  1  0.88998  0.70162  0.97143  1
 H  H5  1  0.94644  0.21712  0.72590  1
 H  H6  1  0.62950  0.76422  0.83217  1
 O  O1  1  0.83060  0.31844  0.41919  1
 O  O2  1  0.54421  0.02240  0.43743  1
 O  O3  1  0.53132  0.23176  0.05413  1
 O  O4  1  0.31545  0.67121  0.19369  1
 Zn  Zn1  1  0.27335  0.05665  0.26862  1
