CIF file written using JARVIS-Tools package.
data_HoBO3
_symmetry_space_group_name_H-M  'R-3c'
_cell_length_a       6.19905
_cell_length_b       6.19905
_cell_length_c       6.19904
_cell_angle_alpha    47.4688
_cell_angle_beta     47.4688
_cell_angle_gamma    47.4688

_symmetry_Int_Tables_number  167
_chemical_formula_structural  HoBO3
_chemical_formula_sum  Ho2B2O6
_cell_volume  118.37179844030985
_cell_formula_units_Z  2
loop_
  _symmetry_equiv_pos_site_id
 _symmetry_equiv_pos_as_xyz
 1  'x, y, z'
loop_
 _atom_site_type_symbol
 _atom_site_label
 _atom_site_symmetry_multiplicity
 _atom_site_fract_x
 _atom_site_fract_y
 _atom_site_fract_z
 _atom_site_fract_occupancy
 B  B1  1  0.25000  0.25000  0.25000  1
 B  B2  1  0.75000  0.75000  0.75000  1
 Ho  Ho1  1  0.00000  0.00000  0.00000  1
 Ho  Ho2  1  0.50000  0.50000  0.50000  1
 O  O1  1  0.25000  0.97227  0.52773  1
 O  O2  1  0.02773  0.47227  0.75000  1
 O  O3  1  0.47227  0.75000  0.02773  1
 O  O4  1  0.52773  0.25000  0.97227  1
 O  O5  1  0.97227  0.52773  0.25000  1
 O  O6  1  0.75000  0.02773  0.47227  1
