CIF file written using JARVIS-Tools package.
data_Ti4O3
_symmetry_space_group_name_H-M  'I4/mmm'
_cell_length_a       5.12612
_cell_length_b       5.12612
_cell_length_c       5.12613
_cell_angle_alpha    130.796
_cell_angle_beta     130.796
_cell_angle_gamma    72.1377

_symmetry_Int_Tables_number  139
_chemical_formula_structural  Ti4O3
_chemical_formula_sum  Ti4O3
_cell_volume  75.48245426005997
_cell_formula_units_Z  1
loop_
  _symmetry_equiv_pos_site_id
 _symmetry_equiv_pos_as_xyz
 1  'x, y, z'
loop_
 _atom_site_type_symbol
 _atom_site_label
 _atom_site_symmetry_multiplicity
 _atom_site_fract_x
 _atom_site_fract_y
 _atom_site_fract_z
 _atom_site_fract_occupancy
 O  O1  1  0.75000  0.25000  0.50000  1
 O  O2  1  0.00000  0.00000  0.00000  1
 O  O3  1  0.25000  0.75000  0.50000  1
 Ti  Ti1  1  -0.00000  0.50000  0.50000  1
 Ti  Ti2  1  0.26628  0.26628  -0.00000  1
 Ti  Ti3  1  0.50000  -0.00000  0.50000  1
 Ti  Ti4  1  0.73372  0.73372  0.00000  1
