CIF file written using JARVIS-Tools package.
data_Cr3B4
_symmetry_space_group_name_H-M  'Immm'
_cell_length_a       2.93954
_cell_length_b       2.93194
_cell_length_c       6.83008
_cell_angle_alpha    102.394
_cell_angle_beta     102.427
_cell_angle_gamma    90.0001

_symmetry_Int_Tables_number  71
_chemical_formula_structural  Cr3B4
_chemical_formula_sum  Cr3B4
_cell_volume  56.08050633809274
_cell_formula_units_Z  1
loop_
  _symmetry_equiv_pos_site_id
 _symmetry_equiv_pos_as_xyz
 1  'x, y, z'
loop_
 _atom_site_type_symbol
 _atom_site_label
 _atom_site_symmetry_multiplicity
 _atom_site_fract_x
 _atom_site_fract_y
 _atom_site_fract_z
 _atom_site_fract_occupancy
 B  B1  1  0.93357  0.43357  0.86714  1
 B  B2  1  0.06643  0.56643  0.13286  1
 B  B3  1  0.36043  0.36046  0.72086  1
 B  B4  1  0.63957  0.63954  0.27914  1
 Cr  Cr1  1  0.18620  0.18616  0.37240  1
 Cr  Cr2  1  0.81380  0.81384  0.62760  1
 Cr  Cr3  1  0.50000  0.00000  -0.00000  1
