CIF file written using JARVIS-Tools package.
data_NaZn3
_symmetry_space_group_name_H-M  'P6_3/mmc'
_cell_length_a       6.18808
_cell_length_b       6.18808
_cell_length_c       4.45219
_cell_angle_alpha    90
_cell_angle_beta     90
_cell_angle_gamma    120

_symmetry_Int_Tables_number  194
_chemical_formula_structural  NaZn3
_chemical_formula_sum  Na2Zn6
_cell_volume  147.64398341717012
_cell_formula_units_Z  2
loop_
  _symmetry_equiv_pos_site_id
 _symmetry_equiv_pos_as_xyz
 1  'x, y, z'
loop_
 _atom_site_type_symbol
 _atom_site_label
 _atom_site_symmetry_multiplicity
 _atom_site_fract_x
 _atom_site_fract_y
 _atom_site_fract_z
 _atom_site_fract_occupancy
 Na  Na1  1  0.33333  0.66667  0.75000  1
 Na  Na2  1  0.66667  0.33333  0.25000  1
 Zn  Zn1  1  0.84825  0.15175  0.75000  1
 Zn  Zn2  1  0.15175  0.84825  0.25000  1
 Zn  Zn3  1  0.15175  0.30349  0.25000  1
 Zn  Zn4  1  0.30349  0.15175  0.75000  1
 Zn  Zn5  1  0.69651  0.84825  0.25000  1
 Zn  Zn6  1  0.84825  0.69651  0.75000  1
