CIF file written using JARVIS-Tools package.
data_CrNi3Sb4
_symmetry_space_group_name_H-M  'P-3m1'
_cell_length_a       4.00235
_cell_length_b       4.00234
_cell_length_c       10.6462
_cell_angle_alpha    90
_cell_angle_beta     90
_cell_angle_gamma    120

_symmetry_Int_Tables_number  164
_chemical_formula_structural  CrNi3Sb4
_chemical_formula_sum  CrNi3Sb4
_cell_volume  147.69143260283667
_cell_formula_units_Z  1
loop_
  _symmetry_equiv_pos_site_id
 _symmetry_equiv_pos_as_xyz
 1  'x, y, z'
loop_
 _atom_site_type_symbol
 _atom_site_label
 _atom_site_symmetry_multiplicity
 _atom_site_fract_x
 _atom_site_fract_y
 _atom_site_fract_z
 _atom_site_fract_occupancy
 Cr  Cr1  1  0.00000  0.00000  0.50000  1
 Ni  Ni1  1  0.00000  0.00000  0.00000  1
 Ni  Ni2  1  0.00000  0.00000  0.75397  1
 Ni  Ni3  1  0.00000  0.00000  0.24603  1
 Sb  Sb1  1  0.66667  0.33333  0.36221  1
 Sb  Sb2  1  0.66667  0.33333  0.87926  1
 Sb  Sb3  1  0.33333  0.66667  0.63779  1
 Sb  Sb4  1  0.33333  0.66667  0.12074  1
