CIF file written using JARVIS-Tools package.
data_H6C10S
_symmetry_space_group_name_H-M  'Pm'
_cell_length_a       3.69415
_cell_length_b       5.75661
_cell_length_c       8.23992
_cell_angle_alpha    89.995
_cell_angle_beta     89.978
_cell_angle_gamma    90.338

_symmetry_Int_Tables_number  6
_chemical_formula_structural  H6C10S
_chemical_formula_sum  H6C0S
_cell_volume  175.22548938121443
_cell_formula_units_Z  1
loop_
  _symmetry_equiv_pos_site_id
 _symmetry_equiv_pos_as_xyz
 1  'x, y, z'
loop_
 _atom_site_type_symbol
 _atom_site_label
 _atom_site_symmetry_multiplicity
 _atom_site_fract_x
 _atom_site_fract_y
 _atom_site_fract_z
 _atom_site_fract_occupancy
 C  C1  1  0.55946  0.51782  0.07808  1
 C  C2  1  0.38946  0.27851  0.83582  1
 C  C3  1  0.38944  0.27852  0.66527  1
 C  C4  1  0.44712  0.71398  0.33525  1
 C  C5  1  0.51352  0.48398  0.59790  1
 C  C6  1  0.51354  0.48397  0.90312  1
 C  C7  1  0.44712  0.71398  0.16576  1
 C  C8  1  0.55945  0.51783  0.42293  1
 C  C9  1  0.69681  0.32843  0.16661  1
 C  C10  1  0.69681  0.32843  0.33437  1
 H  H1  1  0.33508  0.86298  0.10113  1
 H  H2  1  0.80340  0.17881  0.10103  1
 H  H3  1  0.80341  0.17882  0.39994  1
 H  H4  1  0.29412  0.13283  0.90903  1
 H  H5  1  0.29408  0.13284  0.59212  1
 H  H6  1  0.33506  0.86298  0.39989  1
 S  S1  1  0.62716  0.67915  0.75048  1
