CIF file written using JARVIS-Tools package.
data_CaB2C6
_symmetry_space_group_name_H-M  'Fmm2'
_cell_length_a       6.31045
_cell_length_b       5.20086
_cell_length_c       5.10675
_cell_angle_alpha    75.4933
_cell_angle_beta     52.9291
_cell_angle_gamma    51.5777

_symmetry_Int_Tables_number  42
_chemical_formula_structural  CaB2C6
_chemical_formula_sum  CaB2C6
_cell_volume  102.68348148290038
_cell_formula_units_Z  1
loop_
  _symmetry_equiv_pos_site_id
 _symmetry_equiv_pos_as_xyz
 1  'x, y, z'
loop_
 _atom_site_type_symbol
 _atom_site_label
 _atom_site_symmetry_multiplicity
 _atom_site_fract_x
 _atom_site_fract_y
 _atom_site_fract_z
 _atom_site_fract_occupancy
 B  B1  1  0.09234  0.57582  0.42418  1
 B  B2  1  0.57582  0.09234  0.90766  1
 C  C1  1  0.08248  0.08248  0.41752  1
 C  C2  1  0.58248  0.58248  0.91752  1
 C  C3  1  0.92164  0.92164  0.57836  1
 C  C4  1  0.42164  0.42164  0.07836  1
 C  C5  1  0.91448  0.41146  0.58854  1
 C  C6  1  0.41146  0.91448  0.08552  1
 Ca  Ca1  1  -0.00229  -0.00229  0.00229  1
