CIF file written using JARVIS-Tools package.
data_CaHo2Te4
_symmetry_space_group_name_H-M  'P2/m'
_cell_length_a       4.37022
_cell_length_b       7.47545
_cell_length_c       7.65606
_cell_angle_alpha    71.928
_cell_angle_beta     90
_cell_angle_gamma    90

_symmetry_Int_Tables_number  10
_chemical_formula_structural  CaHo2Te4
_chemical_formula_sum  CaHo2Te4
_cell_volume  237.7795335370465
_cell_formula_units_Z  1
loop_
  _symmetry_equiv_pos_site_id
 _symmetry_equiv_pos_as_xyz
 1  'x, y, z'
loop_
 _atom_site_type_symbol
 _atom_site_label
 _atom_site_symmetry_multiplicity
 _atom_site_fract_x
 _atom_site_fract_y
 _atom_site_fract_z
 _atom_site_fract_occupancy
 Ca  Ca1  1  0.00000  0.50000  0.50000  1
 Ho  Ho1  1  0.00000  0.00000  0.00000  1
 Ho  Ho2  1  0.50000  0.50000  0.00000  1
 Te  Te1  1  0.50000  0.76058  0.24652  1
 Te  Te2  1  0.00000  0.25228  0.24055  1
 Te  Te3  1  0.50000  0.23942  0.75348  1
 Te  Te4  1  0.00000  0.74772  0.75945  1
