CIF file written using JARVIS-Tools package.
data_YUO4
_symmetry_space_group_name_H-M  'I4_1/amd'
_cell_length_a       6.54437
_cell_length_b       5.35538
_cell_length_c       5.35538
_cell_angle_alpha    90
_cell_angle_beta     65.848
_cell_angle_gamma    65.848

_symmetry_Int_Tables_number  141
_chemical_formula_structural  YUO4
_chemical_formula_sum  Y2U2O8
_cell_volume  153.07915763272234
_cell_formula_units_Z  2
loop_
  _symmetry_equiv_pos_site_id
 _symmetry_equiv_pos_as_xyz
 1  'x, y, z'
loop_
 _atom_site_type_symbol
 _atom_site_label
 _atom_site_symmetry_multiplicity
 _atom_site_fract_x
 _atom_site_fract_y
 _atom_site_fract_z
 _atom_site_fract_occupancy
 O  O1  1  0.75000  0.37500  0.38624  1
 O  O2  1  0.75000  0.87500  0.86376  1
 O  O3  1  0.75000  0.87500  0.38624  1
 O  O4  1  0.75000  0.37500  0.86376  1
 O  O5  1  0.25000  0.13624  0.62500  1
 O  O6  1  0.25000  0.61376  0.12500  1
 O  O7  1  0.25000  0.61376  0.62500  1
 O  O8  1  0.25000  0.13624  0.12500  1
 U  U1  1  0.50000  0.25000  0.75000  1
 U  U2  1  0.00000  0.50000  0.50000  1
 Y  Y1  1  0.50000  0.75000  0.25000  1
 Y  Y2  1  0.00000  0.00000  0.00000  1
