CIF file written using JARVIS-Tools package.
data_H3CNO2
_symmetry_space_group_name_H-M  'P1'
_cell_length_a       4.12897
_cell_length_b       4.57785
_cell_length_c       6.07016
_cell_angle_alpha    90.73
_cell_angle_beta     88.2948
_cell_angle_gamma    96.8653

_symmetry_Int_Tables_number  1
_chemical_formula_structural  H3CNO2
_chemical_formula_sum  H6C2N2O4
_cell_volume  113.8590509782885
_cell_formula_units_Z  2
loop_
  _symmetry_equiv_pos_site_id
 _symmetry_equiv_pos_as_xyz
 1  'x, y, z'
loop_
 _atom_site_type_symbol
 _atom_site_label
 _atom_site_symmetry_multiplicity
 _atom_site_fract_x
 _atom_site_fract_y
 _atom_site_fract_z
 _atom_site_fract_occupancy
 C  C1  1  0.18836  0.10567  0.22581  1
 C  C2  1  0.68837  0.60566  0.72583  1
 H  H1  1  0.38352  0.96516  0.24288  1
 H  H2  1  0.88353  0.46516  0.74291  1
 H  H3  1  0.21802  0.15775  0.65766  1
 H  H4  1  0.71801  0.65777  0.15768  1
 H  H5  1  0.06970  0.07850  0.06616  1
 H  H6  1  0.56972  0.57847  0.56618  1
 N  N1  1  0.09924  0.96101  0.59922  1
 N  N2  1  0.59924  0.46103  0.09924  1
 O  O1  1  0.94761  0.05656  0.38923  1
 O  O2  1  0.44762  0.55658  0.88924  1
 O  O3  1  0.83457  0.91270  0.74734  1
 O  O4  1  0.33456  0.41270  0.24735  1
