CIF file written using JARVIS-Tools package.
data_USb3
_symmetry_space_group_name_H-M  'P6_3/mmc'
_cell_length_a       6.4399
_cell_length_b       6.4399
_cell_length_c       5.85446
_cell_angle_alpha    90
_cell_angle_beta     90
_cell_angle_gamma    120

_symmetry_Int_Tables_number  194
_chemical_formula_structural  USb3
_chemical_formula_sum  U2Sb6
_cell_volume  210.26914837823065
_cell_formula_units_Z  2
loop_
  _symmetry_equiv_pos_site_id
 _symmetry_equiv_pos_as_xyz
 1  'x, y, z'
loop_
 _atom_site_type_symbol
 _atom_site_label
 _atom_site_symmetry_multiplicity
 _atom_site_fract_x
 _atom_site_fract_y
 _atom_site_fract_z
 _atom_site_fract_occupancy
 Sb  Sb1  1  0.17333  0.34665  0.25000  1
 Sb  Sb2  1  0.65335  0.82667  0.25000  1
 Sb  Sb3  1  0.17333  0.82667  0.25000  1
 Sb  Sb4  1  0.82667  0.65335  0.75000  1
 Sb  Sb5  1  0.34665  0.17333  0.75000  1
 Sb  Sb6  1  0.82667  0.17333  0.75000  1
 U  U1  1  0.33333  0.66667  0.75000  1
 U  U2  1  0.66667  0.33333  0.25000  1
