CIF file written using JARVIS-Tools package.
data_SmCo2Ge2
_symmetry_space_group_name_H-M  'I4/mmm'
_cell_length_a       4.00223
_cell_length_b       4.00223
_cell_length_c       5.82379
_cell_angle_alpha    110.097
_cell_angle_beta     110.097
_cell_angle_gamma    89.9999

_symmetry_Int_Tables_number  139
_chemical_formula_structural  SmCo2Ge2
_chemical_formula_sum  SmCo2Ge2
_cell_volume  81.53010382674182
_cell_formula_units_Z  1
loop_
  _symmetry_equiv_pos_site_id
 _symmetry_equiv_pos_as_xyz
 1  'x, y, z'
loop_
 _atom_site_type_symbol
 _atom_site_label
 _atom_site_symmetry_multiplicity
 _atom_site_fract_x
 _atom_site_fract_y
 _atom_site_fract_z
 _atom_site_fract_occupancy
 Co  Co1  1  0.25000  0.75000  0.50000  1
 Co  Co2  1  0.75000  0.25000  0.50000  1
 Ge  Ge1  1  0.63054  0.63054  0.26108  1
 Ge  Ge2  1  0.36946  0.36946  0.73892  1
 Sm  Sm1  1  0.00000  0.00000  0.00000  1
