CIF file written using JARVIS-Tools package.
data_NdRhC2
_symmetry_space_group_name_H-M  'Amm2'
_cell_length_a       3.71685
_cell_length_b       4.06846
_cell_length_c       4.06845
_cell_angle_alpha    109.164
_cell_angle_beta     90
_cell_angle_gamma    90

_symmetry_Int_Tables_number  38
_chemical_formula_structural  NdRhC2
_chemical_formula_sum  NdRhC2
_cell_volume  58.11291219768795
_cell_formula_units_Z  1
loop_
  _symmetry_equiv_pos_site_id
 _symmetry_equiv_pos_as_xyz
 1  'x, y, z'
loop_
 _atom_site_type_symbol
 _atom_site_label
 _atom_site_symmetry_multiplicity
 _atom_site_fract_x
 _atom_site_fract_y
 _atom_site_fract_z
 _atom_site_fract_occupancy
 C  C1  1  0.50000  0.48130  0.80349  1
 C  C2  1  0.50000  0.19651  0.51870  1
 Nd  Nd1  1  0.00000  0.02506  0.97494  1
 Rh  Rh1  1  0.50000  0.64912  0.35088  1
