CIF file written using JARVIS-Tools package.
data_LiCrS2
_symmetry_space_group_name_H-M  'P-3m1'
_cell_length_a       3.49654
_cell_length_b       3.49654
_cell_length_c       5.93251
_cell_angle_alpha    90
_cell_angle_beta     90
_cell_angle_gamma    120

_symmetry_Int_Tables_number  164
_chemical_formula_structural  LiCrS2
_chemical_formula_sum  LiCrS2
_cell_volume  62.81234196614231
_cell_formula_units_Z  1
loop_
  _symmetry_equiv_pos_site_id
 _symmetry_equiv_pos_as_xyz
 1  'x, y, z'
loop_
 _atom_site_type_symbol
 _atom_site_label
 _atom_site_symmetry_multiplicity
 _atom_site_fract_x
 _atom_site_fract_y
 _atom_site_fract_z
 _atom_site_fract_occupancy
 Cr  Cr1  1  0.00000  0.00000  0.00000  1
 Li  Li1  1  0.00000  0.00000  0.50000  1
 S  S1  1  0.66667  0.33333  0.22475  1
 S  S2  1  0.33333  0.66667  0.77525  1
