CIF file written using JARVIS-Tools package.
data_GeP
_symmetry_space_group_name_H-M  'I4mm'
_cell_length_a       3.59408
_cell_length_b       3.59408
_cell_length_c       3.84487
_cell_angle_alpha    117.865
_cell_angle_beta     117.865
_cell_angle_gamma    90

_symmetry_Int_Tables_number  107
_chemical_formula_structural  GeP
_chemical_formula_sum  GeP
_cell_volume  37.26909565168865
_cell_formula_units_Z  1
loop_
  _symmetry_equiv_pos_site_id
 _symmetry_equiv_pos_as_xyz
 1  'x, y, z'
loop_
 _atom_site_type_symbol
 _atom_site_label
 _atom_site_symmetry_multiplicity
 _atom_site_fract_x
 _atom_site_fract_y
 _atom_site_fract_z
 _atom_site_fract_occupancy
 Ge  Ge1  1  0.00391  0.00391  0.00783  1
 P  P1  1  0.42309  0.42309  0.84617  1
