CIF file written using JARVIS-Tools package.
data_Dy2SbO2
_symmetry_space_group_name_H-M  'I4/mmm'
_cell_length_a       7.15446
_cell_length_b       7.15446
_cell_length_c       7.15446
_cell_angle_alpha    148.825
_cell_angle_beta     148.825
_cell_angle_gamma    44.6696

_symmetry_Int_Tables_number  139
_chemical_formula_structural  Dy2SbO2
_chemical_formula_sum  Dy2SbO2
_cell_volume  97.83628696185815
_cell_formula_units_Z  1
loop_
  _symmetry_equiv_pos_site_id
 _symmetry_equiv_pos_as_xyz
 1  'x, y, z'
loop_
 _atom_site_type_symbol
 _atom_site_label
 _atom_site_symmetry_multiplicity
 _atom_site_fract_x
 _atom_site_fract_y
 _atom_site_fract_z
 _atom_site_fract_occupancy
 Dy  Dy1  1  0.33512  0.33512  -0.00000  1
 Dy  Dy2  1  0.66488  0.66488  0.00000  1
 O  O1  1  0.75000  0.25000  0.50000  1
 O  O2  1  0.25000  0.75000  0.50000  1
 Sb  Sb1  1  0.00000  0.00000  0.00000  1
