CIF file written using JARVIS-Tools package.
data_NaH3SO5
_symmetry_space_group_name_H-M  'Cc'
_cell_length_a       5.49125
_cell_length_b       5.49125
_cell_length_c       8.16327
_cell_angle_alpha    69.0528
_cell_angle_beta     110.947
_cell_angle_gamma    90.2644

_symmetry_Int_Tables_number  9
_chemical_formula_structural  NaH3SO5
_chemical_formula_sum  Na2H6S2O0
_cell_volume  212.54007417366506
_cell_formula_units_Z  2
loop_
  _symmetry_equiv_pos_site_id
 _symmetry_equiv_pos_as_xyz
 1  'x, y, z'
loop_
 _atom_site_type_symbol
 _atom_site_label
 _atom_site_symmetry_multiplicity
 _atom_site_fract_x
 _atom_site_fract_y
 _atom_site_fract_z
 _atom_site_fract_occupancy
 H  H1  1  0.30309  0.59728  0.78034  1
 H  H2  1  0.40272  0.69691  0.28034  1
 H  H3  1  0.49572  0.52887  0.69513  1
 H  H4  1  0.47113  0.50428  0.19513  1
 H  H5  1  0.82291  0.59154  0.00218  1
 H  H6  1  0.40846  0.17709  0.50218  1
 Na  Na1  1  0.94842  0.49646  0.49177  1
 Na  Na2  1  0.50354  0.05158  0.99177  1
 O  O1  1  0.14697  0.87089  0.81386  1
 O  O2  1  0.21050  0.22225  0.42204  1
 O  O3  1  0.77775  0.78950  0.92204  1
 O  O4  1  0.85869  0.28201  0.12901  1
 O  O5  1  0.71799  0.14131  0.62901  1
 O  O6  1  0.53786  0.64500  0.24077  1
 O  O7  1  0.77537  0.68705  0.65310  1
 O  O8  1  0.35500  0.46214  0.74077  1
 O  O9  1  0.12911  0.85303  0.31386  1
 O  O10  1  0.31295  0.22463  0.15310  1
 S  S1  1  0.12604  0.13742  0.24479  1
 S  S2  1  0.86258  0.87396  0.74479  1
