CIF file written using JARVIS-Tools package.
data_AlInAg2Se4
_symmetry_space_group_name_H-M  'I-4'
_cell_length_a       7.18863
_cell_length_b       7.18863
_cell_length_c       7.18863
_cell_angle_alpha    129.898
_cell_angle_beta     129.898
_cell_angle_gamma    73.5703

_symmetry_Int_Tables_number  82
_chemical_formula_structural  AlInAg2Se4
_chemical_formula_sum  AlInAg2Se4
_cell_volume  213.36622466284302
_cell_formula_units_Z  1
loop_
  _symmetry_equiv_pos_site_id
 _symmetry_equiv_pos_as_xyz
 1  'x, y, z'
loop_
 _atom_site_type_symbol
 _atom_site_label
 _atom_site_symmetry_multiplicity
 _atom_site_fract_x
 _atom_site_fract_y
 _atom_site_fract_z
 _atom_site_fract_occupancy
 Ag  Ag1  1  0.75000  0.25000  0.50000  1
 Ag  Ag2  1  0.50000  0.50000  -0.00000  1
 Al  Al1  1  0.25000  0.75000  0.50000  1
 In  In1  1  0.00000  0.00000  0.00000  1
 Se  Se1  1  0.60183  0.63671  0.50316  1
 Se  Se2  1  0.13354  0.09867  0.49684  1
 Se  Se3  1  0.90133  0.39817  0.03487  1
 Se  Se4  1  0.36329  0.86646  0.96513  1
