CIF file written using JARVIS-Tools package.
data_LiVO3
_symmetry_space_group_name_H-M  'C2/m'
_cell_length_a       5.1028
_cell_length_b       5.1028
_cell_length_c       4.88779
_cell_angle_alpha    83.9663
_cell_angle_beta     83.9664
_cell_angle_gamma    124.586

_symmetry_Int_Tables_number  12
_chemical_formula_structural  LiVO3
_chemical_formula_sum  Li2V2O6
_cell_volume  102.06691506689545
_cell_formula_units_Z  2
loop_
  _symmetry_equiv_pos_site_id
 _symmetry_equiv_pos_as_xyz
 1  'x, y, z'
loop_
 _atom_site_type_symbol
 _atom_site_label
 _atom_site_symmetry_multiplicity
 _atom_site_fract_x
 _atom_site_fract_y
 _atom_site_fract_z
 _atom_site_fract_occupancy
 Li  Li1  1  0.15137  0.84863  0.00000  1
 Li  Li2  1  0.84863  0.15137  0.00000  1
 O  O1  1  0.70567  0.70567  0.28996  1
 O  O2  1  0.29433  0.29433  0.71004  1
 O  O3  1  0.45857  0.05725  0.26955  1
 O  O4  1  0.94275  0.54143  0.73045  1
 O  O5  1  0.54143  0.94275  0.73045  1
 O  O6  1  0.05725  0.45857  0.26955  1
 V  V1  1  0.34519  0.65481  0.50000  1
 V  V2  1  0.65481  0.34519  0.50000  1
