CIF file written using JARVIS-Tools package.
data_LiCuO2
_symmetry_space_group_name_H-M  'C2/m'
_cell_length_a       2.73564
_cell_length_b       3.17476
_cell_length_c       5.01479
_cell_angle_alpha    81.8895
_cell_angle_beta     74.1716
_cell_angle_gamma    64.4789

_symmetry_Int_Tables_number  12
_chemical_formula_structural  LiCuO2
_chemical_formula_sum  LiCuO2
_cell_volume  37.79966647965794
_cell_formula_units_Z  1
loop_
  _symmetry_equiv_pos_site_id
 _symmetry_equiv_pos_as_xyz
 1  'x, y, z'
loop_
 _atom_site_type_symbol
 _atom_site_label
 _atom_site_symmetry_multiplicity
 _atom_site_fract_x
 _atom_site_fract_y
 _atom_site_fract_z
 _atom_site_fract_occupancy
 Cu  Cu1  1  0.00000  0.00000  0.00000  1
 Li  Li1  1  -0.00000  0.50000  0.50000  1
 O  O1  1  0.57914  0.09609  0.74563  1
 O  O2  1  0.42086  0.90391  0.25437  1
