CIF file written using JARVIS-Tools package.
data_H4C3SO
_symmetry_space_group_name_H-M  'P1'
_cell_length_a       4.82347
_cell_length_b       5.73056
_cell_length_c       7.00251
_cell_angle_alpha    74.3286
_cell_angle_beta     75.0549
_cell_angle_gamma    78.2062

_symmetry_Int_Tables_number  1
_chemical_formula_structural  H4C3SO
_chemical_formula_sum  H8C6S2O2
_cell_volume  178.1603507082028
_cell_formula_units_Z  2
loop_
  _symmetry_equiv_pos_site_id
 _symmetry_equiv_pos_as_xyz
 1  'x, y, z'
loop_
 _atom_site_type_symbol
 _atom_site_label
 _atom_site_symmetry_multiplicity
 _atom_site_fract_x
 _atom_site_fract_y
 _atom_site_fract_z
 _atom_site_fract_occupancy
 C  C1  1  0.86293  0.13235  0.76810  1
 C  C2  1  0.56159  0.77791  0.29023  1
 C  C3  1  0.35960  0.13703  0.74666  1
 C  C4  1  0.56171  0.27793  0.79022  1
 C  C5  1  0.35948  0.63702  0.24667  1
 C  C6  1  0.86281  0.63234  0.26811  1
 H  H1  1  0.43076  0.60909  0.09136  1
 H  H2  1  0.35478  0.95667  0.85077  1
 H  H3  1  0.57063  0.96150  0.18940  1
 H  H4  1  0.35467  0.45665  0.35078  1
 H  H5  1  0.43090  0.10910  0.59135  1
 H  H6  1  0.48780  0.30553  0.94642  1
 H  H7  1  0.57076  0.46152  0.68939  1
 H  H8  1  0.48768  0.80551  0.44643  1
 O  O1  1  0.06264  0.26570  0.76825  1
 O  O2  1  0.06251  0.76567  0.26828  1
 S  S1  1  0.93551  0.34416  0.24911  1
 S  S2  1  0.93562  0.84416  0.74914  1
