CIF file written using JARVIS-Tools package.
data_Na2CeF6
_symmetry_space_group_name_H-M  'P321'
_cell_length_a       5.9557
_cell_length_b       5.9557
_cell_length_c       3.71319
_cell_angle_alpha    90
_cell_angle_beta     90
_cell_angle_gamma    120

_symmetry_Int_Tables_number  150
_chemical_formula_structural  Na2CeF6
_chemical_formula_sum  Na2CeF6
_cell_volume  114.06240459254596
_cell_formula_units_Z  1
loop_
  _symmetry_equiv_pos_site_id
 _symmetry_equiv_pos_as_xyz
 1  'x, y, z'
loop_
 _atom_site_type_symbol
 _atom_site_label
 _atom_site_symmetry_multiplicity
 _atom_site_fract_x
 _atom_site_fract_y
 _atom_site_fract_z
 _atom_site_fract_occupancy
 Ce  Ce1  1  0.00000  0.00000  0.00000  1
 F  F1  1  0.25167  1.00000  0.50000  1
 F  F2  1  1.00000  0.25167  0.50000  1
 F  F3  1  0.74833  0.74833  0.50000  1
 F  F4  1  0.62733  1.00000  0.00000  1
 F  F5  1  1.00000  0.62733  0.00000  1
 F  F6  1  0.37267  0.37267  0.00000  1
 Na  Na1  1  0.33333  0.66667  0.45518  1
 Na  Na2  1  0.66667  0.33333  0.54482  1
