CIF file written using JARVIS-Tools package.
data_CaH4C4O4
_symmetry_space_group_name_H-M  'P-1'
_cell_length_a       5.15945
_cell_length_b       6.66141
_cell_length_c       8.33861
_cell_angle_alpha    110.421
_cell_angle_beta     98.1537
_cell_angle_gamma    104.331

_symmetry_Int_Tables_number  2
_chemical_formula_structural  CaH4C4O4
_chemical_formula_sum  Ca2H8C8O8
_cell_volume  251.8715582297162
_cell_formula_units_Z  2
loop_
  _symmetry_equiv_pos_site_id
 _symmetry_equiv_pos_as_xyz
 1  'x, y, z'
loop_
 _atom_site_type_symbol
 _atom_site_label
 _atom_site_symmetry_multiplicity
 _atom_site_fract_x
 _atom_site_fract_y
 _atom_site_fract_z
 _atom_site_fract_occupancy
 C  C1  1  0.25036  0.56191  0.28257  1
 C  C2  1  0.09116  0.23942  0.97588  1
 C  C3  1  0.96661  0.18573  0.45742  1
 C  C4  1  0.46661  0.68573  0.45742  1
 C  C5  1  0.59116  0.73942  0.97588  1
 C  C6  1  0.75036  0.06191  0.28257  1
 C  C7  1  0.80742  0.86324  0.15073  1
 C  C8  1  0.30742  0.36324  0.15073  1
 Ca  Ca1  1  0.52887  0.21256  0.71665  1
 Ca  Ca2  1  0.02887  0.71256  0.71665  1
 H  H1  1  0.01188  0.91347  0.12502  1
 H  H2  1  0.74146  0.18799  0.22595  1
 H  H3  1  0.24146  0.68799  0.22595  1
 H  H4  1  0.54591  0.01168  0.30828  1
 H  H5  1  0.51188  0.41347  0.12502  1
 H  H6  1  0.81633  0.73716  0.20735  1
 H  H7  1  0.31633  0.23716  0.20735  1
 H  H8  1  0.04591  0.51168  0.30828  1
 O  O1  1  0.16248  0.11189  0.84454  1
 O  O2  1  0.89526  0.31322  0.58876  1
 O  O3  1  0.20562  0.16913  0.46905  1
 O  O4  1  0.70562  0.66913  0.46905  1
 O  O5  1  0.35218  0.75607  0.96426  1
 O  O6  1  0.85218  0.25606  0.96426  1
 O  O7  1  0.66248  0.61189  0.84454  1
 O  O8  1  0.39526  0.81322  0.58876  1
