CIF file written using JARVIS-Tools package.
data_SbPb3
_symmetry_space_group_name_H-M  'P6_3/mmc'
_cell_length_a       6.96992
_cell_length_b       6.96992
_cell_length_c       5.85751
_cell_angle_alpha    90
_cell_angle_beta     90
_cell_angle_gamma    120

_symmetry_Int_Tables_number  194
_chemical_formula_structural  SbPb3
_chemical_formula_sum  Sb2Pb6
_cell_volume  246.4336292610963
_cell_formula_units_Z  2
loop_
  _symmetry_equiv_pos_site_id
 _symmetry_equiv_pos_as_xyz
 1  'x, y, z'
loop_
 _atom_site_type_symbol
 _atom_site_label
 _atom_site_symmetry_multiplicity
 _atom_site_fract_x
 _atom_site_fract_y
 _atom_site_fract_z
 _atom_site_fract_occupancy
 Pb  Pb1  1  0.16859  0.33719  0.25000  1
 Pb  Pb2  1  0.66281  0.83141  0.25000  1
 Pb  Pb3  1  0.16859  0.83141  0.25000  1
 Pb  Pb4  1  0.83141  0.66281  0.75000  1
 Pb  Pb5  1  0.33719  0.16859  0.75000  1
 Pb  Pb6  1  0.83141  0.16859  0.75000  1
 Sb  Sb1  1  0.33333  0.66667  0.75000  1
 Sb  Sb2  1  0.66667  0.33333  0.25000  1
