CIF file written using JARVIS-Tools package.
data_K4NaCl5
_symmetry_space_group_name_H-M  'Immm'
_cell_length_a       11.5235
_cell_length_b       11.5235
_cell_length_c       11.5235
_cell_angle_alpha    158.438
_cell_angle_beta     148.921
_cell_angle_gamma    38.1421

_symmetry_Int_Tables_number  71
_chemical_formula_structural  K4NaCl5
_chemical_formula_sum  K4NaCl5
_cell_volume  289.8893950562725
_cell_formula_units_Z  1
loop_
  _symmetry_equiv_pos_site_id
 _symmetry_equiv_pos_as_xyz
 1  'x, y, z'
loop_
 _atom_site_type_symbol
 _atom_site_label
 _atom_site_symmetry_multiplicity
 _atom_site_fract_x
 _atom_site_fract_y
 _atom_site_fract_z
 _atom_site_fract_occupancy
 Cl  Cl1  1  0.29777  0.79777  0.50000  1
 Cl  Cl2  1  0.91094  0.41094  0.50000  1
 Cl  Cl3  1  0.50000  0.00000  0.50000  1
 Cl  Cl4  1  0.08906  0.58906  0.50000  1
 Cl  Cl5  1  0.70223  0.20223  0.50000  1
 K  K1  1  0.59896  0.59896  -0.00000  1
 K  K2  1  0.19467  0.19467  0.00000  1
 K  K3  1  0.80533  0.80533  -0.00000  1
 K  K4  1  0.40104  0.40104  0.00000  1
 Na  Na1  1  0.00000  0.00000  0.00000  1
