CIF file written using JARVIS-Tools package.
data_NbIr3
_symmetry_space_group_name_H-M  'P6_3/mmc'
_cell_length_a       5.60081
_cell_length_b       5.60082
_cell_length_c       4.49457
_cell_angle_alpha    90
_cell_angle_beta     90
_cell_angle_gamma    120

_symmetry_Int_Tables_number  194
_chemical_formula_structural  NbIr3
_chemical_formula_sum  Nb2Ir6
_cell_volume  122.10163096320132
_cell_formula_units_Z  2
loop_
  _symmetry_equiv_pos_site_id
 _symmetry_equiv_pos_as_xyz
 1  'x, y, z'
loop_
 _atom_site_type_symbol
 _atom_site_label
 _atom_site_symmetry_multiplicity
 _atom_site_fract_x
 _atom_site_fract_y
 _atom_site_fract_z
 _atom_site_fract_occupancy
 Ir  Ir1  1  0.16406  0.32812  0.25000  1
 Ir  Ir2  1  0.67188  0.83594  0.25000  1
 Ir  Ir3  1  0.16406  0.83594  0.25000  1
 Ir  Ir4  1  0.83594  0.67188  0.75000  1
 Ir  Ir5  1  0.32812  0.16406  0.75000  1
 Ir  Ir6  1  0.83594  0.16406  0.75000  1
 Nb  Nb1  1  0.33333  0.66667  0.75000  1
 Nb  Nb2  1  0.66667  0.33333  0.25000  1
