CIF file written using JARVIS-Tools package.
data_AgBrO3
_symmetry_space_group_name_H-M  'R3m'
_cell_length_a       4.32184
_cell_length_b       4.32184
_cell_length_c       4.32184
_cell_angle_alpha    81.8326
_cell_angle_beta     81.8326
_cell_angle_gamma    81.8326

_symmetry_Int_Tables_number  160
_chemical_formula_structural  AgBrO3
_chemical_formula_sum  AgBrO3
_cell_volume  78.48074928419626
_cell_formula_units_Z  1
loop_
  _symmetry_equiv_pos_site_id
 _symmetry_equiv_pos_as_xyz
 1  'x, y, z'
loop_
 _atom_site_type_symbol
 _atom_site_label
 _atom_site_symmetry_multiplicity
 _atom_site_fract_x
 _atom_site_fract_y
 _atom_site_fract_z
 _atom_site_fract_occupancy
 Ag  Ag1  1  0.95835  0.95835  0.95835  1
 Br  Br1  1  0.49417  0.49417  0.49417  1
 O  O1  1  0.56795  0.09634  0.56795  1
 O  O2  1  0.09634  0.56795  0.56795  1
 O  O3  1  0.56795  0.56795  0.09634  1
