CIF file written using JARVIS-Tools package.
data_Sr5ZnCd4
_symmetry_space_group_name_H-M  'P4/mmm'
_cell_length_a       3.98659
_cell_length_b       3.98659
_cell_length_c       20.0057
_cell_angle_alpha    90
_cell_angle_beta     90
_cell_angle_gamma    90

_symmetry_Int_Tables_number  123
_chemical_formula_structural  Sr5ZnCd4
_chemical_formula_sum  Sr5ZnCd4
_cell_volume  317.94719631674644
_cell_formula_units_Z  1
loop_
  _symmetry_equiv_pos_site_id
 _symmetry_equiv_pos_as_xyz
 1  'x, y, z'
loop_
 _atom_site_type_symbol
 _atom_site_label
 _atom_site_symmetry_multiplicity
 _atom_site_fract_x
 _atom_site_fract_y
 _atom_site_fract_z
 _atom_site_fract_occupancy
 Cd  Cd1  1  0.00000  0.00000  0.19654  1
 Cd  Cd2  1  0.00000  0.00000  0.39870  1
 Cd  Cd3  1  0.00000  0.00000  0.60130  1
 Cd  Cd4  1  0.00000  0.00000  0.80346  1
 Sr  Sr1  1  0.50000  0.50000  0.09474  1
 Sr  Sr2  1  0.50000  0.50000  0.29756  1
 Sr  Sr3  1  0.50000  0.50000  0.50000  1
 Sr  Sr4  1  0.50000  0.50000  0.70244  1
 Sr  Sr5  1  0.50000  0.50000  0.90526  1
 Zn  Zn1  1  0.00000  0.00000  0.00000  1
