CIF file written using JARVIS-Tools package.
data_MgReO4
_symmetry_space_group_name_H-M  'Cmmm'
_cell_length_a       4.66351
_cell_length_b       4.66351
_cell_length_c       3.08977
_cell_angle_alpha    90
_cell_angle_beta     90
_cell_angle_gamma    91.7471

_symmetry_Int_Tables_number  65
_chemical_formula_structural  MgReO4
_chemical_formula_sum  MgReO4
_cell_volume  67.1661108262463
_cell_formula_units_Z  1
loop_
  _symmetry_equiv_pos_site_id
 _symmetry_equiv_pos_as_xyz
 1  'x, y, z'
loop_
 _atom_site_type_symbol
 _atom_site_label
 _atom_site_symmetry_multiplicity
 _atom_site_fract_x
 _atom_site_fract_y
 _atom_site_fract_z
 _atom_site_fract_occupancy
 Mg  Mg1  1  0.00000  0.00000  0.00000  1
 O  O1  1  0.21568  0.21568  0.50000  1
 O  O2  1  0.68981  0.31019  0.00000  1
 O  O3  1  0.31019  0.68981  0.00000  1
 O  O4  1  0.78432  0.78432  0.50000  1
 Re  Re1  1  0.50000  0.50000  0.50000  1
