CIF file written using JARVIS-Tools package.
data_LiCoN
_symmetry_space_group_name_H-M  'Amm2'
_cell_length_a       3.12022
_cell_length_b       3.14524
_cell_length_c       4.01638
_cell_angle_alpha    90
_cell_angle_beta     90
_cell_angle_gamma    119.737

_symmetry_Int_Tables_number  38
_chemical_formula_structural  LiCoN
_chemical_formula_sum  LiCoN
_cell_volume  34.22535407010788
_cell_formula_units_Z  1
loop_
  _symmetry_equiv_pos_site_id
 _symmetry_equiv_pos_as_xyz
 1  'x, y, z'
loop_
 _atom_site_type_symbol
 _atom_site_label
 _atom_site_symmetry_multiplicity
 _atom_site_fract_x
 _atom_site_fract_y
 _atom_site_fract_z
 _atom_site_fract_occupancy
 Co  Co1  1  0.99913  0.99826  0.50000  1
 Li  Li1  1  0.66816  0.33633  0.00000  1
 N  N1  1  0.66610  0.33221  0.50000  1
