CIF file written using JARVIS-Tools package.
data_ZnMoN2
_symmetry_space_group_name_H-M  'P6_3mc'
_cell_length_a       2.933
_cell_length_b       2.93301
_cell_length_c       11.532
_cell_angle_alpha    90
_cell_angle_beta     90
_cell_angle_gamma    120

_symmetry_Int_Tables_number  186
_chemical_formula_structural  ZnMoN2
_chemical_formula_sum  Zn2Mo2N4
_cell_volume  85.9132687275318
_cell_formula_units_Z  2
loop_
  _symmetry_equiv_pos_site_id
 _symmetry_equiv_pos_as_xyz
 1  'x, y, z'
loop_
 _atom_site_type_symbol
 _atom_site_label
 _atom_site_symmetry_multiplicity
 _atom_site_fract_x
 _atom_site_fract_y
 _atom_site_fract_z
 _atom_site_fract_occupancy
 Mo  Mo1  1  0.66667  0.33333  0.10772  1
 Mo  Mo2  1  0.00000  0.00000  0.60772  1
 N  N1  1  0.00000  0.00000  0.00221  1
 N  N2  1  0.00000  0.00000  0.22336  1
 N  N3  1  0.66667  0.33333  0.50221  1
 N  N4  1  0.66667  0.33333  0.72336  1
 Zn  Zn1  1  0.66667  0.33333  0.33770  1
 Zn  Zn2  1  0.00000  0.00000  0.83770  1
