CIF file written using JARVIS-Tools package.
data_CeZrO4
_symmetry_space_group_name_H-M  'R-3m'
_cell_length_a       6.4044
_cell_length_b       6.4044
_cell_length_c       6.4044
_cell_angle_alpha    34.1607
_cell_angle_beta     34.1607
_cell_angle_gamma    34.1607

_symmetry_Int_Tables_number  166
_chemical_formula_structural  CeZrO4
_chemical_formula_sum  CeZrO4
_cell_volume  73.84750683120794
_cell_formula_units_Z  1
loop_
  _symmetry_equiv_pos_site_id
 _symmetry_equiv_pos_as_xyz
 1  'x, y, z'
loop_
 _atom_site_type_symbol
 _atom_site_label
 _atom_site_symmetry_multiplicity
 _atom_site_fract_x
 _atom_site_fract_y
 _atom_site_fract_z
 _atom_site_fract_occupancy
 Ce  Ce1  1  0.50000  0.50000  0.50000  1
 O  O1  1  0.36986  0.36986  0.36986  1
 O  O2  1  0.87949  0.87949  0.87949  1
 O  O3  1  0.63014  0.63014  0.63014  1
 O  O4  1  0.12051  0.12051  0.12051  1
 Zr  Zr1  1  0.00000  0.00000  0.00000  1
