CIF file written using JARVIS-Tools package.
data_H3C5SNO2
_symmetry_space_group_name_H-M  'P1'
_cell_length_a       3.79553
_cell_length_b       7.8999
_cell_length_c       9.36781
_cell_angle_alpha    106.702
_cell_angle_beta     86.9865
_cell_angle_gamma    105.823

_symmetry_Int_Tables_number  1
_chemical_formula_structural  H3C5SNO2
_chemical_formula_sum  H6C0S2N2O4
_cell_volume  258.7412050375525
_cell_formula_units_Z  2
loop_
  _symmetry_equiv_pos_site_id
 _symmetry_equiv_pos_as_xyz
 1  'x, y, z'
loop_
 _atom_site_type_symbol
 _atom_site_label
 _atom_site_symmetry_multiplicity
 _atom_site_fract_x
 _atom_site_fract_y
 _atom_site_fract_z
 _atom_site_fract_occupancy
 C  C1  1  0.00890  0.48779  0.85718  1
 C  C2  1  0.42700  0.25706  0.33591  1
 C  C3  1  0.17511  0.09844  0.26250  1
 C  C4  1  0.17565  0.59838  0.76244  1
 C  C5  1  0.00891  0.98772  0.35722  1
 C  C6  1  0.42736  0.75704  0.83590  1
 C  C7  1  0.78043  0.36927  0.14025  1
 C  C8  1  0.78099  0.86914  0.64025  1
 C  C9  1  0.13995  0.56811  0.00115  1
 C  C10  1  0.14054  0.06792  0.50113  1
 H  H1  1  0.79311  0.86096  0.32185  1
 H  H2  1  0.73874  0.02446  0.85343  1
 H  H3  1  0.11150  0.56265  0.64445  1
 H  H4  1  0.11041  0.06283  0.14458  1
 H  H5  1  0.79314  0.36101  0.82176  1
 H  H6  1  0.73770  0.52458  0.35340  1
 N  N1  1  0.65464  0.89525  0.78122  1
 N  N2  1  0.65385  0.39534  0.28119  1
 O  O1  1  0.02966  0.53204  0.13476  1
 O  O2  1  0.69645  0.72942  0.53517  1
 O  O3  1  0.03085  0.03173  0.63475  1
 O  O4  1  0.69655  0.22950  0.03520  1
 S  S1  1  0.46907  0.27512  0.52396  1
 S  S2  1  0.46855  0.77530  0.02404  1
