CIF file written using JARVIS-Tools package.
data_Li2FeCo3O8
_symmetry_space_group_name_H-M  'C2/m'
_cell_length_a       5.6111
_cell_length_b       5.66631
_cell_length_c       5.74535
_cell_angle_alpha    119.546
_cell_angle_beta     90.6637
_cell_angle_gamma    59.674

_symmetry_Int_Tables_number  12
_chemical_formula_structural  Li2FeCo3O8
_chemical_formula_sum  Li2FeCo3O8
_cell_volume  130.13463210556773
_cell_formula_units_Z  1
loop_
  _symmetry_equiv_pos_site_id
 _symmetry_equiv_pos_as_xyz
 1  'x, y, z'
loop_
 _atom_site_type_symbol
 _atom_site_label
 _atom_site_symmetry_multiplicity
 _atom_site_fract_x
 _atom_site_fract_y
 _atom_site_fract_z
 _atom_site_fract_occupancy
 Co  Co1  1  0.00000  0.50000  0.00000  1
 Co  Co2  1  0.50000  0.00000  0.00000  1
 Co  Co3  1  0.50000  0.50000  0.00000  1
 Fe  Fe1  1  0.00000  0.00000  0.00000  1
 Li  Li1  1  0.50000  0.00000  0.50000  1
 Li  Li2  1  0.50000  0.50000  0.50000  1
 O  O1  1  0.23717  0.02395  0.78802  1
 O  O2  1  0.27117  0.46592  0.20302  1
 O  O3  1  0.23717  0.52690  0.78802  1
 O  O4  1  0.73339  0.03025  0.79390  1
 O  O5  1  0.26661  0.96975  0.20610  1
 O  O6  1  0.76283  0.47310  0.21198  1
 O  O7  1  0.72883  0.53408  0.79698  1
 O  O8  1  0.76283  0.97605  0.21198  1
