CIF file written using JARVIS-Tools package.
data_Si2SeN2
_symmetry_space_group_name_H-M  'Cmc2_1'
_cell_length_a       6.09892
_cell_length_b       5.61089
_cell_length_c       4.91585
_cell_angle_alpha    90
_cell_angle_beta     90
_cell_angle_gamma    117.386

_symmetry_Int_Tables_number  36
_chemical_formula_structural  Si2SeN2
_chemical_formula_sum  Si4Se2N4
_cell_volume  149.36865549535204
_cell_formula_units_Z  2
loop_
  _symmetry_equiv_pos_site_id
 _symmetry_equiv_pos_as_xyz
 1  'x, y, z'
loop_
 _atom_site_type_symbol
 _atom_site_label
 _atom_site_symmetry_multiplicity
 _atom_site_fract_x
 _atom_site_fract_y
 _atom_site_fract_z
 _atom_site_fract_occupancy
 N  N1  1  0.55537  0.15006  0.25539  1
 N  N2  1  0.44463  0.59469  0.25539  1
 N  N3  1  0.44463  0.84994  0.75539  1
 N  N4  1  0.55537  0.40531  0.75539  1
 Se  Se1  1  -0.00000  0.78200  0.26351  1
 Se  Se2  1  0.00000  0.21800  0.76351  1
 Si  Si1  1  0.62467  0.16604  0.90965  1
 Si  Si2  1  0.37533  0.54137  0.90965  1
 Si  Si3  1  0.37533  0.83396  0.40965  1
 Si  Si4  1  0.62467  0.45863  0.40965  1
