CIF file written using JARVIS-Tools package.
data_HfH2C3O4
_symmetry_space_group_name_H-M  'P1'
_cell_length_a       4.39292
_cell_length_b       4.5214
_cell_length_c       5.83207
_cell_angle_alpha    85.4795
_cell_angle_beta     77.9656
_cell_angle_gamma    70.1871

_symmetry_Int_Tables_number  1
_chemical_formula_structural  HfH2C3O4
_chemical_formula_sum  HfH2C3O4
_cell_volume  106.58106413458084
_cell_formula_units_Z  1
loop_
  _symmetry_equiv_pos_site_id
 _symmetry_equiv_pos_as_xyz
 1  'x, y, z'
loop_
 _atom_site_type_symbol
 _atom_site_label
 _atom_site_symmetry_multiplicity
 _atom_site_fract_x
 _atom_site_fract_y
 _atom_site_fract_z
 _atom_site_fract_occupancy
 C  C1  1  0.05384  0.47125  0.35225  1
 C  C2  1  0.02581  0.59195  0.09805  1
 C  C3  1  0.05548  0.35532  0.92147  1
 H  H1  1  0.22437  0.69310  0.03595  1
 H  H2  1  0.78382  0.77471  0.10622  1
 Hf  Hf1  1  0.71543  0.18264  0.55412  1
 O  O1  1  -0.01779  0.75782  0.48093  1
 O  O2  1  0.38795  0.29467  0.35797  1
 O  O3  1  0.33175  0.14463  0.84109  1
 O  O4  1  0.79533  0.37227  0.84929  1
