CIF file written using JARVIS-Tools package.
data_ScTlF6
_symmetry_space_group_name_H-M  'R-3'
_cell_length_a       5.82848
_cell_length_b       5.82849
_cell_length_c       5.82848
_cell_angle_alpha    53.5772
_cell_angle_beta     53.5772
_cell_angle_gamma    53.5772

_symmetry_Int_Tables_number  148
_chemical_formula_structural  ScTlF6
_chemical_formula_sum  ScTlF6
_cell_volume  118.97147469785381
_cell_formula_units_Z  1
loop_
  _symmetry_equiv_pos_site_id
 _symmetry_equiv_pos_as_xyz
 1  'x, y, z'
loop_
 _atom_site_type_symbol
 _atom_site_label
 _atom_site_symmetry_multiplicity
 _atom_site_fract_x
 _atom_site_fract_y
 _atom_site_fract_z
 _atom_site_fract_occupancy
 F  F1  1  0.58962  0.88843  0.26145  1
 F  F2  1  0.26145  0.58962  0.88843  1
 F  F3  1  0.88843  0.26145  0.58962  1
 F  F4  1  0.73855  0.41038  0.11157  1
 F  F5  1  0.11157  0.73855  0.41038  1
 F  F6  1  0.41038  0.11157  0.73855  1
 Sc  Sc1  1  0.50000  0.50000  0.50000  1
 Tl  Tl1  1  0.00000  0.00000  0.00000  1
