CIF file written using JARVIS-Tools package.
data_Sr3Sc
_symmetry_space_group_name_H-M  'I4/mmm'
_cell_length_a       6.68771
_cell_length_b       6.68771
_cell_length_c       6.68772
_cell_angle_alpha    129.859
_cell_angle_beta     129.859
_cell_angle_gamma    73.6329

_symmetry_Int_Tables_number  139
_chemical_formula_structural  Sr3Sc
_chemical_formula_sum  Sr3Sc
_cell_volume  171.97973516381458
_cell_formula_units_Z  1
loop_
  _symmetry_equiv_pos_site_id
 _symmetry_equiv_pos_as_xyz
 1  'x, y, z'
loop_
 _atom_site_type_symbol
 _atom_site_label
 _atom_site_symmetry_multiplicity
 _atom_site_fract_x
 _atom_site_fract_y
 _atom_site_fract_z
 _atom_site_fract_occupancy
 Sc  Sc1  1  0.00000  0.00000  0.00000  1
 Sr  Sr1  1  0.75000  0.25000  0.50000  1
 Sr  Sr2  1  0.25000  0.75000  0.50000  1
 Sr  Sr3  1  0.50000  0.50000  0.00000  1
