CIF file written using JARVIS-Tools package.
data_InGaAg2Se4
_symmetry_space_group_name_H-M  'I-4'
_cell_length_a       7.22257
_cell_length_b       7.22257
_cell_length_c       7.22256
_cell_angle_alpha    130.111
_cell_angle_beta     130.111
_cell_angle_gamma    73.2295

_symmetry_Int_Tables_number  82
_chemical_formula_structural  InGaAg2Se4
_chemical_formula_sum  InGaAg2Se4
_cell_volume  215.15892656208484
_cell_formula_units_Z  1
loop_
  _symmetry_equiv_pos_site_id
 _symmetry_equiv_pos_as_xyz
 1  'x, y, z'
loop_
 _atom_site_type_symbol
 _atom_site_label
 _atom_site_symmetry_multiplicity
 _atom_site_fract_x
 _atom_site_fract_y
 _atom_site_fract_z
 _atom_site_fract_occupancy
 Ag  Ag1  1  0.25000  0.75000  0.50000  1
 Ag  Ag2  1  0.00000  0.00000  0.00000  1
 Ga  Ga1  1  0.75000  0.25000  0.50000  1
 In  In1  1  0.50000  0.50000  -0.00000  1
 Se  Se1  1  0.10481  0.13448  0.50152  1
 Se  Se2  1  0.63295  0.60329  0.49848  1
 Se  Se3  1  0.39671  0.89519  0.02966  1
 Se  Se4  1  0.86552  0.36705  0.97034  1
