CIF file written using JARVIS-Tools package.
data_Hf3SnO8
_symmetry_space_group_name_H-M  'P2'
_cell_length_a       4.89559
_cell_length_b       5.75712
_cell_length_c       5.23872
_cell_angle_alpha    90
_cell_angle_beta     90.3861
_cell_angle_gamma    90

_symmetry_Int_Tables_number  3
_chemical_formula_structural  Hf3SnO8
_chemical_formula_sum  Hf3SnO8
_cell_volume  147.64704015517128
_cell_formula_units_Z  1
loop_
  _symmetry_equiv_pos_site_id
 _symmetry_equiv_pos_as_xyz
 1  'x, y, z'
loop_
 _atom_site_type_symbol
 _atom_site_label
 _atom_site_symmetry_multiplicity
 _atom_site_fract_x
 _atom_site_fract_y
 _atom_site_fract_z
 _atom_site_fract_occupancy
 Hf  Hf1  1  0.00000  0.18157  0.00000  1
 Hf  Hf2  1  0.50000  0.67966  0.00000  1
 Hf  Hf3  1  0.50000  0.32364  0.50000  1
 O  O1  1  0.22643  0.89262  0.17228  1
 O  O2  1  0.22797  0.10509  0.67590  1
 O  O3  1  0.27821  0.39262  0.17103  1
 O  O4  1  0.27051  0.60338  0.67227  1
 O  O5  1  0.72949  0.60338  0.32773  1
 O  O6  1  0.72179  0.39262  0.82897  1
 O  O7  1  0.77357  0.89262  0.82772  1
 O  O8  1  0.77203  0.10509  0.32410  1
 Sn  Sn1  1  0.00000  0.82772  0.50000  1
