CIF file written using JARVIS-Tools package.
data_SnSbO4
_symmetry_space_group_name_H-M  'Cmmm'
_cell_length_a       4.87339
_cell_length_b       4.87339
_cell_length_c       3.34044
_cell_angle_alpha    90
_cell_angle_beta     90
_cell_angle_gamma    90.2665

_symmetry_Int_Tables_number  65
_chemical_formula_structural  SnSbO4
_chemical_formula_sum  SnSbO4
_cell_volume  79.33440246006347
_cell_formula_units_Z  1
loop_
  _symmetry_equiv_pos_site_id
 _symmetry_equiv_pos_as_xyz
 1  'x, y, z'
loop_
 _atom_site_type_symbol
 _atom_site_label
 _atom_site_symmetry_multiplicity
 _atom_site_fract_x
 _atom_site_fract_y
 _atom_site_fract_z
 _atom_site_fract_occupancy
 O  O1  1  0.19320  0.19320  0.50000  1
 O  O2  1  0.80680  0.80680  0.50000  1
 O  O3  1  0.69072  0.30928  0.00000  1
 O  O4  1  0.30928  0.69072  0.00000  1
 Sb  Sb1  1  0.00000  0.00000  0.00000  1
 Sn  Sn1  1  0.50000  0.50000  0.50000  1
