CIF file written using JARVIS-Tools package.
data_CaPdF6
_symmetry_space_group_name_H-M  'R-3'
_cell_length_a       5.74708
_cell_length_b       5.74708
_cell_length_c       5.74708
_cell_angle_alpha    53.2142
_cell_angle_beta     53.2143
_cell_angle_gamma    53.2142

_symmetry_Int_Tables_number  148
_chemical_formula_structural  CaPdF6
_chemical_formula_sum  CaPdF6
_cell_volume  112.8898277963957
_cell_formula_units_Z  1
loop_
  _symmetry_equiv_pos_site_id
 _symmetry_equiv_pos_as_xyz
 1  'x, y, z'
loop_
 _atom_site_type_symbol
 _atom_site_label
 _atom_site_symmetry_multiplicity
 _atom_site_fract_x
 _atom_site_fract_y
 _atom_site_fract_z
 _atom_site_fract_occupancy
 Ca  Ca1  1  0.50000  0.50000  0.50000  1
 F  F1  1  0.38962  0.05917  0.78242  1
 F  F2  1  0.05917  0.78242  0.38962  1
 F  F3  1  0.21758  0.61038  0.94083  1
 F  F4  1  0.94083  0.21758  0.61038  1
 F  F5  1  0.61038  0.94083  0.21758  1
 F  F6  1  0.78242  0.38962  0.05917  1
 Pd  Pd1  1  0.00000  0.00000  0.00000  1
