CIF file written using JARVIS-Tools package.
data_Bi3Te5Pb
_symmetry_space_group_name_H-M  'P3m1'
_cell_length_a       4.62162
_cell_length_b       4.62162
_cell_length_c       17.2768
_cell_angle_alpha    90
_cell_angle_beta     90
_cell_angle_gamma    120

_symmetry_Int_Tables_number  156
_chemical_formula_structural  Bi3Te5Pb
_chemical_formula_sum  Bi3Te5Pb
_cell_volume  319.5828478135674
_cell_formula_units_Z  1
loop_
  _symmetry_equiv_pos_site_id
 _symmetry_equiv_pos_as_xyz
 1  'x, y, z'
loop_
 _atom_site_type_symbol
 _atom_site_label
 _atom_site_symmetry_multiplicity
 _atom_site_fract_x
 _atom_site_fract_y
 _atom_site_fract_z
 _atom_site_fract_occupancy
 Bi  Bi1  1  0.66667  0.33333  0.00065  1
 Bi  Bi2  1  0.00000  0.00000  0.77823  1
 Bi  Bi3  1  0.33333  0.66667  0.21966  1
 Pb  Pb1  1  0.00000  0.00000  0.45083  1
 Te  Te1  1  0.00000  0.00000  0.10684  1
 Te  Te2  1  0.33333  0.66667  0.90075  1
 Te  Te3  1  0.33333  0.66667  0.54207  1
 Te  Te4  1  0.66667  0.33333  0.31363  1
 Te  Te5  1  0.66667  0.33333  0.68734  1
