CIF file written using JARVIS-Tools package.
data_In2CuAgSe4
_symmetry_space_group_name_H-M  'I-4'
_cell_length_a       7.34753
_cell_length_b       7.34754
_cell_length_c       7.34754
_cell_angle_alpha    131.897
_cell_angle_beta     131.897
_cell_angle_gamma    70.3921

_symmetry_Int_Tables_number  82
_chemical_formula_structural  In2CuAgSe4
_chemical_formula_sum  In2CuAgSe4
_cell_volume  215.37105746760182
_cell_formula_units_Z  1
loop_
  _symmetry_equiv_pos_site_id
 _symmetry_equiv_pos_as_xyz
 1  'x, y, z'
loop_
 _atom_site_type_symbol
 _atom_site_label
 _atom_site_symmetry_multiplicity
 _atom_site_fract_x
 _atom_site_fract_y
 _atom_site_fract_z
 _atom_site_fract_occupancy
 Ag  Ag1  1  0.25000  0.75000  0.50000  1
 Cu  Cu1  1  0.00000  0.00000  0.00000  1
 In  In1  1  0.75000  0.25000  0.50000  1
 In  In2  1  0.50000  0.50000  -0.00000  1
 Se  Se1  1  0.11627  0.11679  0.46947  1
 Se  Se2  1  0.64733  0.64680  0.53053  1
 Se  Se3  1  0.35320  0.88373  0.00053  1
 Se  Se4  1  0.88321  0.35267  0.99947  1
