CIF file written using JARVIS-Tools package.
data_BaSb2Pd2
_symmetry_space_group_name_H-M  'I4/mmm'
_cell_length_a       4.77762
_cell_length_b       4.77763
_cell_length_c       6.52722
_cell_angle_alpha    111.468
_cell_angle_beta     111.468
_cell_angle_gamma    90.0001

_symmetry_Int_Tables_number  139
_chemical_formula_structural  BaSb2Pd2
_chemical_formula_sum  BaSb2Pd2
_cell_volume  127.48048381876703
_cell_formula_units_Z  1
loop_
  _symmetry_equiv_pos_site_id
 _symmetry_equiv_pos_as_xyz
 1  'x, y, z'
loop_
 _atom_site_type_symbol
 _atom_site_label
 _atom_site_symmetry_multiplicity
 _atom_site_fract_x
 _atom_site_fract_y
 _atom_site_fract_z
 _atom_site_fract_occupancy
 Ba  Ba1  1  0.00000  0.00000  0.00000  1
 Pd  Pd1  1  0.75000  0.25000  0.50000  1
 Pd  Pd2  1  0.25000  0.75000  0.50000  1
 Sb  Sb1  1  0.63586  0.63586  0.27171  1
 Sb  Sb2  1  0.36414  0.36414  0.72829  1
