CIF file written using JARVIS-Tools package.
data_LaYMg6
_symmetry_space_group_name_H-M  'R-3m'
_cell_length_a       9.02926
_cell_length_b       9.02926
_cell_length_c       9.02926
_cell_angle_alpha    33.4843
_cell_angle_beta     33.4843
_cell_angle_gamma    33.4843

_symmetry_Int_Tables_number  166
_chemical_formula_structural  LaYMg6
_chemical_formula_sum  LaYMg6
_cell_volume  199.55654467021677
_cell_formula_units_Z  1
loop_
  _symmetry_equiv_pos_site_id
 _symmetry_equiv_pos_as_xyz
 1  'x, y, z'
loop_
 _atom_site_type_symbol
 _atom_site_label
 _atom_site_symmetry_multiplicity
 _atom_site_fract_x
 _atom_site_fract_y
 _atom_site_fract_z
 _atom_site_fract_occupancy
 La  La1  1  0.00000  0.00000  0.00000  1
 Mg  Mg1  1  0.62243  0.62243  0.62243  1
 Mg  Mg2  1  0.12724  0.12724  0.12724  1
 Mg  Mg3  1  0.87276  0.87276  0.87276  1
 Mg  Mg4  1  0.37757  0.37757  0.37757  1
 Mg  Mg5  1  0.24905  0.24905  0.24905  1
 Mg  Mg6  1  0.75095  0.75095  0.75095  1
 Y  Y1  1  0.50000  0.50000  0.50000  1
