CIF file written using JARVIS-Tools package.
data_MnNi3O4
_symmetry_space_group_name_H-M  'Cmmm'
_cell_length_a       5.57212
_cell_length_b       5.57212
_cell_length_c       2.85865
_cell_angle_alpha    90
_cell_angle_beta     90
_cell_angle_gamma    118.398

_symmetry_Int_Tables_number  65
_chemical_formula_structural  MnNi3O4
_chemical_formula_sum  MnNi3O4
_cell_volume  78.07646095453558
_cell_formula_units_Z  1
loop_
  _symmetry_equiv_pos_site_id
 _symmetry_equiv_pos_as_xyz
 1  'x, y, z'
loop_
 _atom_site_type_symbol
 _atom_site_label
 _atom_site_symmetry_multiplicity
 _atom_site_fract_x
 _atom_site_fract_y
 _atom_site_fract_z
 _atom_site_fract_occupancy
 Mn  Mn1  1  0.50000  0.50000  0.00000  1
 Ni  Ni1  1  -0.00000  0.50000  0.50000  1
 Ni  Ni2  1  0.50000  0.00000  0.50000  1
 Ni  Ni3  1  0.00000  0.00000  0.00000  1
 O  O1  1  0.21108  0.78892  0.00000  1
 O  O2  1  0.72866  0.72866  0.50000  1
 O  O3  1  0.27134  0.27134  0.50000  1
 O  O4  1  0.78892  0.21108  0.00000  1
