CIF file written using JARVIS-Tools package.
data_NaSbS2
_symmetry_space_group_name_H-M  'C2/c'
_cell_length_a       5.80107
_cell_length_b       5.80107
_cell_length_c       6.90063
_cell_angle_alpha    113.354
_cell_angle_beta     113.354
_cell_angle_gamma    90.45

_symmetry_Int_Tables_number  15
_chemical_formula_structural  NaSbS2
_chemical_formula_sum  Na2Sb2S4
_cell_volume  191.9453950812175
_cell_formula_units_Z  2
loop_
  _symmetry_equiv_pos_site_id
 _symmetry_equiv_pos_as_xyz
 1  'x, y, z'
loop_
 _atom_site_type_symbol
 _atom_site_label
 _atom_site_symmetry_multiplicity
 _atom_site_fract_x
 _atom_site_fract_y
 _atom_site_fract_z
 _atom_site_fract_occupancy
 Na  Na1  1  0.63239  0.36761  0.75000  1
 Na  Na2  1  0.36761  0.63239  0.25000  1
 S  S1  1  0.67827  0.86907  0.75937  1
 S  S2  1  0.13093  0.32173  0.74063  1
 S  S3  1  0.32173  0.13093  0.24063  1
 S  S4  1  0.86907  0.67827  0.25937  1
 Sb  Sb1  1  0.89671  0.10329  0.25000  1
 Sb  Sb2  1  0.10329  0.89671  0.75000  1
