CIF file written using JARVIS-Tools package.
data_NClO3
_symmetry_space_group_name_H-M  'Cm'
_cell_length_a       5.09301
_cell_length_b       5.09301
_cell_length_c       3.74929
_cell_angle_alpha    73.619
_cell_angle_beta     73.619
_cell_angle_gamma    98.0544

_symmetry_Int_Tables_number  8
_chemical_formula_structural  NClO3
_chemical_formula_sum  NClO3
_cell_volume  86.93063907697534
_cell_formula_units_Z  1
loop_
  _symmetry_equiv_pos_site_id
 _symmetry_equiv_pos_as_xyz
 1  'x, y, z'
loop_
 _atom_site_type_symbol
 _atom_site_label
 _atom_site_symmetry_multiplicity
 _atom_site_fract_x
 _atom_site_fract_y
 _atom_site_fract_z
 _atom_site_fract_occupancy
 Cl  Cl1  1  0.10393  0.10393  0.87416  1
 N  N1  1  0.54634  0.54634  0.45624  1
 O  O1  1  0.34859  0.34859  0.90176  1
 O  O2  1  0.46182  0.74932  0.33142  1
 O  O3  1  0.74932  0.46182  0.33142  1
