CIF file written using JARVIS-Tools package.
data_TaTiC2
_symmetry_space_group_name_H-M  'R-3m'
_cell_length_a       5.39968
_cell_length_b       5.39967
_cell_length_c       5.39968
_cell_angle_alpha    33.6631
_cell_angle_beta     33.6632
_cell_angle_gamma    33.6632

_symmetry_Int_Tables_number  166
_chemical_formula_structural  TaTiC2
_chemical_formula_sum  TaTiC2
_cell_volume  43.094859236122076
_cell_formula_units_Z  1
loop_
  _symmetry_equiv_pos_site_id
 _symmetry_equiv_pos_as_xyz
 1  'x, y, z'
loop_
 _atom_site_type_symbol
 _atom_site_label
 _atom_site_symmetry_multiplicity
 _atom_site_fract_x
 _atom_site_fract_y
 _atom_site_fract_z
 _atom_site_fract_occupancy
 C  C1  1  0.75123  0.75123  0.75123  1
 C  C2  1  0.24877  0.24877  0.24877  1
 Ta  Ta1  1  0.00000  0.00000  0.00000  1
 Ti  Ti1  1  0.50000  0.50000  0.50000  1
