CIF file written using JARVIS-Tools package.
data_Rb2PtS2
_symmetry_space_group_name_H-M  'Immm'
_cell_length_a       3.67785
_cell_length_b       6.38674
_cell_length_c       6.38673
_cell_angle_alpha    69.335
_cell_angle_beta     73.266
_cell_angle_gamma    73.266

_symmetry_Int_Tables_number  71
_chemical_formula_structural  Rb2PtS2
_chemical_formula_sum  Rb2PtS2
_cell_volume  131.4861594823582
_cell_formula_units_Z  1
loop_
  _symmetry_equiv_pos_site_id
 _symmetry_equiv_pos_as_xyz
 1  'x, y, z'
loop_
 _atom_site_type_symbol
 _atom_site_label
 _atom_site_symmetry_multiplicity
 _atom_site_fract_x
 _atom_site_fract_y
 _atom_site_fract_z
 _atom_site_fract_occupancy
 Pt  Pt1  1  0.00000  0.00000  0.00000  1
 Rb  Rb1  1  0.80768  0.69232  0.69232  1
 Rb  Rb2  1  0.19232  0.30768  0.30768  1
 S  S1  1  0.50000  0.78825  0.21175  1
 S  S2  1  0.50000  0.21175  0.78825  1
