CIF file written using JARVIS-Tools package.
data_CaH10C7O4
_symmetry_space_group_name_H-M  'P2'
_cell_length_a       4.2525
_cell_length_b       7.66244
_cell_length_c       11.2218
_cell_angle_alpha    99.8658
_cell_angle_beta     90.0066
_cell_angle_gamma    90.0167

_symmetry_Int_Tables_number  3
_chemical_formula_structural  CaH10C7O4
_chemical_formula_sum  Ca2H20C4O8
_cell_volume  360.2509752032934
_cell_formula_units_Z  2
loop_
  _symmetry_equiv_pos_site_id
 _symmetry_equiv_pos_as_xyz
 1  'x, y, z'
loop_
 _atom_site_type_symbol
 _atom_site_label
 _atom_site_symmetry_multiplicity
 _atom_site_fract_x
 _atom_site_fract_y
 _atom_site_fract_z
 _atom_site_fract_occupancy
 C  C1  1  0.53592  0.70558  0.52315  1
 C  C2  1  0.53587  0.82751  0.09768  1
 C  C3  1  0.31756  0.24010  0.42151  1
 C  C4  1  0.38553  0.17997  0.64117  1
 C  C5  1  0.38553  0.67997  0.64117  1
 C  C6  1  0.38553  0.35304  0.97964  1
 C  C7  1  0.38553  0.85304  0.97963  1
 C  C8  1  0.53593  0.20558  0.52315  1
 C  C9  1  0.53587  0.32751  0.09768  1
 C  C10  1  0.31756  0.74010  0.42151  1
 C  C11  1  0.50916  0.26651  0.31041  1
 C  C12  1  0.50916  0.76651  0.31041  1
 C  C13  1  0.31758  0.29237  0.19917  1
 C  C14  1  0.31758  0.79237  0.19917  1
 Ca  Ca1  1  0.00819  0.51646  0.81039  1
 Ca  Ca2  1  0.00819  0.01646  0.81039  1
 H  H1  1  0.17258  0.67448  0.16746  1
 H  H2  1  0.17258  0.17448  0.16746  1
 H  H3  1  0.15245  0.40336  0.22366  1
 H  H4  1  0.69900  0.21578  0.07346  1
 H  H5  1  0.15335  0.12862  0.39690  1
 H  H6  1  0.17162  0.85758  0.45311  1
 H  H7  1  0.17162  0.35758  0.45311  1
 H  H8  1  0.69834  0.81771  0.54737  1
 H  H9  1  0.15245  0.90336  0.22366  1
 H  H10  1  0.68704  0.09037  0.49274  1
 H  H11  1  0.68704  0.59037  0.49274  1
 H  H12  1  0.66729  0.65220  0.28495  1
 H  H13  1  0.69834  0.31771  0.54737  1
 H  H14  1  0.15335  0.62862  0.39690  1
 H  H15  1  0.66627  0.38130  0.33598  1
 H  H16  1  0.66627  0.88130  0.33598  1
 H  H17  1  0.69901  0.71578  0.07346  1
 H  H18  1  0.68629  0.94303  0.12826  1
 H  H19  1  0.68629  0.44303  0.12826  1
 H  H20  1  0.66729  0.15220  0.28495  1
 O  O1  1  0.12182  0.77882  0.94698  1
 O  O2  1  0.52330  0.08274  0.70664  1
 O  O3  1  0.12185  0.25413  0.67379  1
 O  O4  1  0.12185  0.75413  0.67379  1
 O  O5  1  0.52336  0.45030  0.91418  1
 O  O6  1  0.52336  0.95030  0.91418  1
 O  O7  1  0.12182  0.27882  0.94698  1
 O  O8  1  0.52330  0.58274  0.70664  1
