CIF file written using JARVIS-Tools package.
data_Ce2Mg
_symmetry_space_group_name_H-M  'I4/mmm'
_cell_length_a       8.06828
_cell_length_b       8.06828
_cell_length_c       8.06828
_cell_angle_alpha    157.643
_cell_angle_beta     157.643
_cell_angle_gamma    31.8248

_symmetry_Int_Tables_number  139
_chemical_formula_structural  Ce2Mg
_chemical_formula_sum  Ce2Mg
_cell_volume  75.93383604730177
_cell_formula_units_Z  1
loop_
  _symmetry_equiv_pos_site_id
 _symmetry_equiv_pos_as_xyz
 1  'x, y, z'
loop_
 _atom_site_type_symbol
 _atom_site_label
 _atom_site_symmetry_multiplicity
 _atom_site_fract_x
 _atom_site_fract_y
 _atom_site_fract_z
 _atom_site_fract_occupancy
 Ce  Ce1  1  0.66853  0.66853  -0.00000  1
 Ce  Ce2  1  0.33147  0.33147  0.00000  1
 Mg  Mg1  1  0.00000  0.00000  0.00000  1
