CIF file written using JARVIS-Tools package.
data_InO2
_symmetry_space_group_name_H-M  'Pnnm'
_cell_length_a       3.3805
_cell_length_b       4.33639
_cell_length_c       5.243
_cell_angle_alpha    90
_cell_angle_beta     90
_cell_angle_gamma    90

_symmetry_Int_Tables_number  58
_chemical_formula_structural  InO2
_chemical_formula_sum  In2O4
_cell_volume  76.85788836749765
_cell_formula_units_Z  2
loop_
  _symmetry_equiv_pos_site_id
 _symmetry_equiv_pos_as_xyz
 1  'x, y, z'
loop_
 _atom_site_type_symbol
 _atom_site_label
 _atom_site_symmetry_multiplicity
 _atom_site_fract_x
 _atom_site_fract_y
 _atom_site_fract_z
 _atom_site_fract_occupancy
 In  In1  1  0.50000  0.50000  0.00000  1
 In  In2  1  0.00000  0.00000  0.50000  1
 O  O1  1  0.50000  0.28774  0.37578  1
 O  O2  1  0.00000  0.21226  0.87578  1
 O  O3  1  0.50000  0.71226  0.62422  1
 O  O4  1  0.00000  0.78774  0.12422  1
