CIF file written using JARVIS-Tools package.
data_HoAgTe2
_symmetry_space_group_name_H-M  'P3m1'
_cell_length_a       4.45841
_cell_length_b       4.4584
_cell_length_c       7.35527
_cell_angle_alpha    90
_cell_angle_beta     90
_cell_angle_gamma    120

_symmetry_Int_Tables_number  156
_chemical_formula_structural  HoAgTe2
_chemical_formula_sum  HoAgTe2
_cell_volume  126.61612515705139
_cell_formula_units_Z  1
loop_
  _symmetry_equiv_pos_site_id
 _symmetry_equiv_pos_as_xyz
 1  'x, y, z'
loop_
 _atom_site_type_symbol
 _atom_site_label
 _atom_site_symmetry_multiplicity
 _atom_site_fract_x
 _atom_site_fract_y
 _atom_site_fract_z
 _atom_site_fract_occupancy
 Ag  Ag1  1  0.00000  0.00000  0.39061  1
 Ho  Ho1  1  0.66667  0.33333  0.98545  1
 Te  Te1  1  0.00000  0.00000  0.76498  1
 Te  Te2  1  0.33333  0.66667  0.22897  1
