CIF file written using JARVIS-Tools package.
data_BaGa2GeS6
_symmetry_space_group_name_H-M  'P1'
_cell_length_a       6.23948
_cell_length_b       6.28306
_cell_length_c       6.35678
_cell_angle_alpha    99.5333
_cell_angle_beta     101.773
_cell_angle_gamma    99.3645

_symmetry_Int_Tables_number  1
_chemical_formula_structural  BaGa2GeS6
_chemical_formula_sum  BaGa2GeS6
_cell_volume  235.5564769080608
_cell_formula_units_Z  1
loop_
  _symmetry_equiv_pos_site_id
 _symmetry_equiv_pos_as_xyz
 1  'x, y, z'
loop_
 _atom_site_type_symbol
 _atom_site_label
 _atom_site_symmetry_multiplicity
 _atom_site_fract_x
 _atom_site_fract_y
 _atom_site_fract_z
 _atom_site_fract_occupancy
 Ba  Ba1  1  0.05163  0.05347  0.06652  1
 Ga  Ga1  1  0.51565  0.66594  0.24253  1
 Ga  Ga2  1  0.24892  0.53013  0.65842  1
 Ge  Ge1  1  0.66558  0.24117  0.52052  1
 S  S1  1  0.92862  0.47138  0.79382  1
 S  S2  1  0.80134  0.92915  0.48853  1
 S  S3  1  0.48016  0.80213  0.92888  1
 S  S4  1  0.33513  0.18383  0.60931  1
 S  S5  1  0.61397  0.32555  0.18704  1
 S  S6  1  0.17384  0.61208  0.31927  1
