CIF file written using JARVIS-Tools package.
data_Ti3S2
_symmetry_space_group_name_H-M  'R32'
_cell_length_a       4.51676
_cell_length_b       4.51676
_cell_length_c       4.51676
_cell_angle_alpha    73.9938
_cell_angle_beta     73.9939
_cell_angle_gamma    73.9938

_symmetry_Int_Tables_number  155
_chemical_formula_structural  Ti3S2
_chemical_formula_sum  Ti3S2
_cell_volume  83.12812480586643
_cell_formula_units_Z  1
loop_
  _symmetry_equiv_pos_site_id
 _symmetry_equiv_pos_as_xyz
 1  'x, y, z'
loop_
 _atom_site_type_symbol
 _atom_site_label
 _atom_site_symmetry_multiplicity
 _atom_site_fract_x
 _atom_site_fract_y
 _atom_site_fract_z
 _atom_site_fract_occupancy
 S  S1  1  0.83230  0.83230  0.83230  1
 S  S2  1  0.16770  0.16770  0.16770  1
 Ti  Ti1  1  -0.00000  0.33703  0.66297  1
 Ti  Ti2  1  0.33703  0.66297  0.00000  1
 Ti  Ti3  1  0.66297  0.00000  0.33703  1
