CIF file written using JARVIS-Tools package.
data_BiPd6Pb
_symmetry_space_group_name_H-M  'P4/mmm'
_cell_length_a       4.12577
_cell_length_b       4.12577
_cell_length_c       8.23148
_cell_angle_alpha    90
_cell_angle_beta     90
_cell_angle_gamma    90

_symmetry_Int_Tables_number  123
_chemical_formula_structural  BiPd6Pb
_chemical_formula_sum  BiPd6Pb
_cell_volume  140.1160401464112
_cell_formula_units_Z  1
loop_
  _symmetry_equiv_pos_site_id
 _symmetry_equiv_pos_as_xyz
 1  'x, y, z'
loop_
 _atom_site_type_symbol
 _atom_site_label
 _atom_site_symmetry_multiplicity
 _atom_site_fract_x
 _atom_site_fract_y
 _atom_site_fract_z
 _atom_site_fract_occupancy
 Bi  Bi1  1  0.00000  0.00000  0.00000  1
 Pb  Pb1  1  0.00000  0.00000  0.50000  1
 Pd  Pd1  1  0.50000  0.50000  0.00000  1
 Pd  Pd2  1  0.50000  0.50000  0.50000  1
 Pd  Pd3  1  0.50000  0.00000  0.25174  1
 Pd  Pd4  1  0.50000  0.00000  0.74826  1
 Pd  Pd5  1  0.00000  0.50000  0.25174  1
 Pd  Pd6  1  0.00000  0.50000  0.74826  1
