CIF file written using JARVIS-Tools package.
data_CdGeN2
_symmetry_space_group_name_H-M  'I-42d'
_cell_length_a       5.61682
_cell_length_b       4.95195
_cell_length_c       8.78357
_cell_angle_alpha    90
_cell_angle_beta     141.435
_cell_angle_gamma    116.156

_symmetry_Int_Tables_number  122
_chemical_formula_structural  CdGeN2
_chemical_formula_sum  Cd2Ge2N4
_cell_volume  107.69477615482933
_cell_formula_units_Z  2
loop_
  _symmetry_equiv_pos_site_id
 _symmetry_equiv_pos_as_xyz
 1  'x, y, z'
loop_
 _atom_site_type_symbol
 _atom_site_label
 _atom_site_symmetry_multiplicity
 _atom_site_fract_x
 _atom_site_fract_y
 _atom_site_fract_z
 _atom_site_fract_occupancy
 Cd  Cd1  1  -0.00000  0.50000  0.75000  1
 Cd  Cd2  1  0.00000  0.00000  0.50000  1
 Ge  Ge1  1  -0.00000  0.50000  0.25000  1
 Ge  Ge2  1  0.00000  0.00000  0.00000  1
 N  N1  1  0.50000  0.06656  0.12500  1
 N  N2  1  0.50000  0.93344  0.62500  1
 N  N3  1  0.36687  0.43344  0.30844  1
 N  N4  1  0.63313  0.56656  0.94156  1
