CIF file written using JARVIS-Tools package.
data_ZnH8C6O4
_symmetry_space_group_name_H-M  'P1'
_cell_length_a       3.59214
_cell_length_b       4.54428
_cell_length_c       9.80038
_cell_angle_alpha    87.8301
_cell_angle_beta     89.6058
_cell_angle_gamma    69.7924

_symmetry_Int_Tables_number  1
_chemical_formula_structural  ZnH8C6O4
_chemical_formula_sum  ZnH8C6O4
_cell_volume  150.02039904788313
_cell_formula_units_Z  1
loop_
  _symmetry_equiv_pos_site_id
 _symmetry_equiv_pos_as_xyz
 1  'x, y, z'
loop_
 _atom_site_type_symbol
 _atom_site_label
 _atom_site_symmetry_multiplicity
 _atom_site_fract_x
 _atom_site_fract_y
 _atom_site_fract_z
 _atom_site_fract_occupancy
 C  C1  1  0.31003  0.25085  0.02363  1
 C  C2  1  0.42577  0.12043  0.88330  1
 C  C3  1  0.44446  0.35577  0.77052  1
 C  C4  1  0.71483  0.30318  0.38142  1
 C  C5  1  0.60087  0.43389  0.52181  1
 C  C6  1  0.58214  0.19874  0.63467  1
 H  H1  1  0.81495  0.54723  0.54797  1
 H  H2  1  0.31835  0.62968  0.50967  1
 H  H3  1  0.87440  0.01420  0.64853  1
 H  H4  1  0.64420  0.47686  0.80248  1
 H  H5  1  0.70860  0.92504  0.89558  1
 H  H6  1  0.21249  0.00654  0.85686  1
 H  H7  1  0.38234  0.07764  0.60274  1
 H  H8  1  0.15214  0.54024  0.75666  1
 O  O1  1  0.63766  0.49565  0.27775  1
 O  O2  1  0.38607  0.05823  0.12725  1
 O  O3  1  0.88656  0.00748  0.37414  1
 O  O4  1  0.13710  0.54643  0.03089  1
 Zn  Zn1  1  0.00738  0.77694  0.20244  1
