CIF file written using JARVIS-Tools package.
data_BiO
_symmetry_space_group_name_H-M  'R3m'
_cell_length_a       3.80983
_cell_length_b       3.80983
_cell_length_c       3.80983
_cell_angle_alpha    64.4016
_cell_angle_beta     64.4017
_cell_angle_gamma    64.4016

_symmetry_Int_Tables_number  160
_chemical_formula_structural  BiO
_chemical_formula_sum  BiO
_cell_volume  42.88027306747418
_cell_formula_units_Z  1
loop_
  _symmetry_equiv_pos_site_id
 _symmetry_equiv_pos_as_xyz
 1  'x, y, z'
loop_
 _atom_site_type_symbol
 _atom_site_label
 _atom_site_symmetry_multiplicity
 _atom_site_fract_x
 _atom_site_fract_y
 _atom_site_fract_z
 _atom_site_fract_occupancy
 Bi  Bi1  1  0.00145  0.00145  0.00145  1
 O  O1  1  0.27355  0.27355  0.27355  1
