CIF file written using JARVIS-Tools package.
data_H8C15S2O
_symmetry_space_group_name_H-M  'C2'
_cell_length_a       3.81464
_cell_length_b       11.4138
_cell_length_c       13.3846
_cell_angle_alpha    64.7656
_cell_angle_beta     91.9832
_cell_angle_gamma    89.9948

_symmetry_Int_Tables_number  5
_chemical_formula_structural  H8C15S2O
_chemical_formula_sum  H6C30S4O2
_cell_volume  526.760149300887
_cell_formula_units_Z  2
loop_
  _symmetry_equiv_pos_site_id
 _symmetry_equiv_pos_as_xyz
 1  'x, y, z'
loop_
 _atom_site_type_symbol
 _atom_site_label
 _atom_site_symmetry_multiplicity
 _atom_site_fract_x
 _atom_site_fract_y
 _atom_site_fract_z
 _atom_site_fract_occupancy
 C  C1  1  0.07370  0.11138  0.48996  1
 C  C2  1  0.24575  0.05977  0.59315  1
 C  C3  1  0.74792  0.55996  0.59280  1
 C  C4  1  0.53168  0.21976  0.14004  1
 C  C5  1  0.33682  0.92721  0.64758  1
 C  C6  1  0.83657  0.42721  0.64762  1
 C  C7  1  0.57587  0.61154  0.48962  1
 C  C8  1  0.48479  0.53340  0.43518  1
 C  C9  1  0.24695  0.84921  0.59265  1
 C  C10  1  0.74430  0.34900  0.59308  1
 C  C11  1  0.07727  0.90069  0.48969  1
 C  C12  1  0.57462  0.40046  0.49013  1
 C  C13  1  0.41097  0.33319  0.04136  1
 C  C14  1  0.79016  0.81841  0.94270  1
 C  C15  1  0.51609  0.86962  0.75561  1
 C  C16  1  0.30991  0.21567  0.91342  1
 C  C17  1  0.81042  0.71570  0.91336  1
 C  C18  1  0.16964  0.51212  0.27346  1
 C  C19  1  0.67036  0.01216  0.27337  1
 C  C20  1  0.03168  0.71973  0.14004  1
 C  C21  1  0.65200  0.74420  0.80929  1
 C  C22  1  0.15127  0.24415  0.80938  1
 C  C23  1  0.51182  0.08772  0.16932  1
 C  C24  1  0.29016  0.31844  0.94269  1
 C  C25  1  0.30558  0.58384  0.32715  1
 C  C26  1  0.80584  0.08389  0.32711  1
 C  C27  1  0.01583  0.36963  0.75565  1
 C  C28  1  0.01131  0.58769  0.16938  1
 C  C29  1  0.91096  0.83316  0.04137  1
 C  C30  1  0.98504  0.03344  0.43515  1
 H  H1  1  0.50820  0.71456  0.45065  1
 H  H2  1  0.94361  0.62406  0.96286  1
 H  H3  1  0.81777  0.62418  0.63142  1
 H  H4  1  0.01650  0.83706  0.44995  1
 H  H5  1  0.51171  0.33663  0.45074  1
 H  H6  1  0.30984  0.74599  0.63203  1
 H  H7  1  0.68414  0.90718  0.30811  1
 H  H8  1  0.18303  0.40713  0.30825  1
 H  H9  1  0.80504  0.24563  0.63283  1
 H  H10  1  0.44284  0.12399  0.96293  1
 H  H11  1  0.37888  0.04557  0.11980  1
 H  H12  1  0.87811  0.54557  0.11987  1
 H  H13  1  0.63852  0.67400  0.77451  1
 H  H14  1  0.13738  0.17391  0.77465  1
 H  H15  1  0.00386  0.21422  0.45134  1
 H  H16  1  0.31344  0.12383  0.63211  1
 O  O1  1  0.91103  0.94334  0.04136  1
 O  O2  1  0.41104  0.44337  0.04136  1
 S  S1  1  0.08742  0.45294  0.83659  1
 S  S2  1  0.58710  0.95287  0.83663  1
 S  S3  1  0.23472  0.74812  0.24611  1
 S  S4  1  0.73442  0.24815  0.24615  1
