CIF file written using JARVIS-Tools package.
data_HC2F3
_symmetry_space_group_name_H-M  'Pm'
_cell_length_a       4.70471
_cell_length_b       2.60395
_cell_length_c       8.96949
_cell_angle_alpha    90
_cell_angle_beta     99.8676
_cell_angle_gamma    90

_symmetry_Int_Tables_number  6
_chemical_formula_structural  HC2F3
_chemical_formula_sum  H2C4F6
_cell_volume  108.25810728601141
_cell_formula_units_Z  2
loop_
  _symmetry_equiv_pos_site_id
 _symmetry_equiv_pos_as_xyz
 1  'x, y, z'
loop_
 _atom_site_type_symbol
 _atom_site_label
 _atom_site_symmetry_multiplicity
 _atom_site_fract_x
 _atom_site_fract_y
 _atom_site_fract_z
 _atom_site_fract_occupancy
 C  C1  1  0.98026  0.50000  0.00955  1
 C  C2  1  0.14627  0.00000  0.98567  1
 C  C3  1  0.40450  0.00000  0.46488  1
 C  C4  1  0.48692  0.50000  0.55624  1
 F  F1  1  0.92092  0.50000  0.15420  1
 F  F2  1  0.71835  0.50000  0.91244  1
 F  F3  1  0.19462  0.00000  0.83643  1
 F  F4  1  0.11089  0.00000  0.41971  1
 F  F5  1  0.52856  0.00000  0.33544  1
 F  F6  1  0.78355  0.50000  0.60779  1
 H  H1  1  0.35426  0.00000  0.06348  1
 H  H2  1  0.37489  0.50000  0.65414  1
