CIF file written using JARVIS-Tools package.
data_PrMn2Si2
_symmetry_space_group_name_H-M  'I4/mmm'
_cell_length_a       3.99261
_cell_length_b       3.99261
_cell_length_c       5.99185
_cell_angle_alpha    109.461
_cell_angle_beta     109.461
_cell_angle_gamma    89.9999

_symmetry_Int_Tables_number  139
_chemical_formula_structural  PrMn2Si2
_chemical_formula_sum  PrMn2Si2
_cell_volume  84.24869026466725
_cell_formula_units_Z  1
loop_
  _symmetry_equiv_pos_site_id
 _symmetry_equiv_pos_as_xyz
 1  'x, y, z'
loop_
 _atom_site_type_symbol
 _atom_site_label
 _atom_site_symmetry_multiplicity
 _atom_site_fract_x
 _atom_site_fract_y
 _atom_site_fract_z
 _atom_site_fract_occupancy
 Mn  Mn1  1  0.25000  0.75000  0.50000  1
 Mn  Mn2  1  0.75000  0.25000  0.50000  1
 Pr  Pr1  1  0.00000  0.00000  0.00000  1
 Si  Si1  1  0.62719  0.62719  0.25437  1
 Si  Si2  1  0.37281  0.37281  0.74563  1
