CIF file written using JARVIS-Tools package.
data_ScSi2Ni2
_symmetry_space_group_name_H-M  'I4/mmm'
_cell_length_a       3.82985
_cell_length_b       3.82985
_cell_length_c       5.51394
_cell_angle_alpha    110.322
_cell_angle_beta     110.322
_cell_angle_gamma    90

_symmetry_Int_Tables_number  139
_chemical_formula_structural  ScSi2Ni2
_chemical_formula_sum  ScSi2Ni2
_cell_volume  70.45039529398092
_cell_formula_units_Z  1
loop_
  _symmetry_equiv_pos_site_id
 _symmetry_equiv_pos_as_xyz
 1  'x, y, z'
loop_
 _atom_site_type_symbol
 _atom_site_label
 _atom_site_symmetry_multiplicity
 _atom_site_fract_x
 _atom_site_fract_y
 _atom_site_fract_z
 _atom_site_fract_occupancy
 Ni  Ni1  1  0.75000  0.25000  0.50000  1
 Ni  Ni2  1  0.25000  0.75000  0.50000  1
 Sc  Sc1  1  0.00000  0.00000  0.00000  1
 Si  Si1  1  0.62120  0.62120  0.24241  1
 Si  Si2  1  0.37880  0.37880  0.75759  1
