CIF file written using JARVIS-Tools package.
data_H8PbC6O4
_symmetry_space_group_name_H-M  'P-1'
_cell_length_a       4.31028
_cell_length_b       7.97436
_cell_length_c       10.7885
_cell_angle_alpha    77.1207
_cell_angle_beta     84.6096
_cell_angle_gamma    76.9444

_symmetry_Int_Tables_number  2
_chemical_formula_structural  H8PbC6O4
_chemical_formula_sum  H6Pb2C2O8
_cell_volume  351.774654891848
_cell_formula_units_Z  2
loop_
  _symmetry_equiv_pos_site_id
 _symmetry_equiv_pos_as_xyz
 1  'x, y, z'
loop_
 _atom_site_type_symbol
 _atom_site_label
 _atom_site_symmetry_multiplicity
 _atom_site_fract_x
 _atom_site_fract_y
 _atom_site_fract_z
 _atom_site_fract_occupancy
 C  C1  1  0.67450  0.24247  0.68176  1
 C  C2  1  0.70354  0.22514  0.44883  1
 C  C3  1  0.72283  0.21432  0.21470  1
 C  C4  1  0.51623  0.72136  0.33564  1
 C  C5  1  0.51626  0.22075  0.33577  1
 C  C6  1  0.70351  0.72493  0.44891  1
 C  C7  1  0.72427  0.71264  0.21515  1
 C  C8  1  0.67432  0.74187  0.68191  1
 C  C9  1  0.48703  0.73832  0.56863  1
 C  C10  1  0.48721  0.23811  0.56869  1
 C  C11  1  0.46633  0.75047  0.80241  1
 C  C12  1  0.46792  0.24883  0.80283  1
 H  H1  1  0.82162  0.33792  0.42384  1
 H  H2  1  0.31900  0.33585  0.31801  1
 H  H3  1  0.32112  0.83753  0.31720  1
 H  H4  1  0.41155  0.10316  0.35713  1
 H  H5  1  0.87177  0.12737  0.69950  1
 H  H6  1  0.86950  0.62572  0.70031  1
 H  H7  1  0.77918  0.36006  0.66042  1
 H  H8  1  0.40861  0.60479  0.35710  1
 H  H9  1  0.29670  0.85775  0.55003  1
 H  H10  1  0.36911  0.12533  0.59367  1
 H  H11  1  0.36758  0.62604  0.59340  1
 H  H12  1  0.78186  0.85847  0.66047  1
 H  H13  1  0.82295  0.83720  0.42414  1
 H  H14  1  0.89495  0.10621  0.46744  1
 H  H15  1  0.89384  0.60550  0.46752  1
 H  H16  1  0.29582  0.35705  0.55009  1
 O  O1  1  0.21075  0.36421  0.80134  1
 O  O2  1  0.55072  0.63615  0.90536  1
 O  O3  1  0.97917  0.59544  0.21780  1
 O  O4  1  0.98006  0.09896  0.21623  1
 O  O5  1  0.63998  0.82690  0.11216  1
 O  O6  1  0.63507  0.32904  0.11228  1
 O  O7  1  0.21137  0.86762  0.79983  1
 O  O8  1  0.55563  0.13399  0.90520  1
 Pb  Pb1  1  0.09765  0.98138  0.00852  1
 Pb  Pb2  1  0.09302  0.48186  0.00903  1
