CIF file written using JARVIS-Tools package.
data_ScTlSe2
_symmetry_space_group_name_H-M  'R-3m'
_cell_length_a       8.02963
_cell_length_b       8.02963
_cell_length_c       8.02962
_cell_angle_alpha    28.5204
_cell_angle_beta     28.5204
_cell_angle_gamma    28.5204

_symmetry_Int_Tables_number  166
_chemical_formula_structural  ScTlSe2
_chemical_formula_sum  ScTlSe2
_cell_volume  104.32210153141745
_cell_formula_units_Z  1
loop_
  _symmetry_equiv_pos_site_id
 _symmetry_equiv_pos_as_xyz
 1  'x, y, z'
loop_
 _atom_site_type_symbol
 _atom_site_label
 _atom_site_symmetry_multiplicity
 _atom_site_fract_x
 _atom_site_fract_y
 _atom_site_fract_z
 _atom_site_fract_occupancy
 Sc  Sc1  1  0.00000  0.00000  0.00000  1
 Se  Se1  1  0.73163  0.73163  0.73163  1
 Se  Se2  1  0.26837  0.26837  0.26837  1
 Tl  Tl1  1  0.50000  0.50000  0.50000  1
