data_image0
_chemical_formula_structural       Ca10Ga4N8
_chemical_formula_sum              "Ca10 Ga4 N8"
_cell_length_a       6.04286
_cell_length_b       6.04286
_cell_length_c       14.162
_cell_angle_alpha    90
_cell_angle_beta     90
_cell_angle_gamma    47.105

_space_group_name_H-M_alt    "P 1"
_space_group_IT_number       1

loop_
  _space_group_symop_operation_xyz
  'x, y, z'

loop_
  _atom_site_type_symbol
  _atom_site_label
  _atom_site_symmetry_multiplicity
  _atom_site_fract_x
  _atom_site_fract_y
  _atom_site_fract_z
  _atom_site_occupancy
  Ca  Ca1       1.0  0.38500  0.38500  0.32700  1.0000
  Ca  Ca2       1.0  0.11500  0.11500  0.82700  1.0000
  Ca  Ca3       1.0  0.61500  0.61500  0.67300  1.0000
  Ca  Ca4       1.0  0.88500  0.88500  0.17300  1.0000
  Ca  Ca5       1.0  0.72800  0.72800  0.41900  1.0000
  Ca  Ca6       1.0  0.77200  0.77200  0.91900  1.0000
  Ca  Ca7       1.0  0.27200  0.27200  0.58100  1.0000
  Ca  Ca8       1.0  0.22800  0.22800  0.08090  1.0000
  Ca  Ca9       1.0  0.50000  0.50000  0.00000  1.0000
  Ca  Ca10      1.0  0.00000  0.00000  0.50000  1.0000
  Ga  Ga1       1.0  0.59500  0.59500  0.19400  1.0000
  Ga  Ga2       1.0  0.90500  0.90500  0.69400  1.0000
  Ga  Ga3       1.0  0.40500  0.40500  0.80600  1.0000
  Ga  Ga4       1.0  0.09450  0.09450  0.30600  1.0000
  N   N1        1.0  0.19500  0.19500  0.42000  1.0000
  N   N2        1.0  0.30500  0.30500  0.92000  1.0000
  N   N3        1.0  0.80500  0.80500  0.58000  1.0000
  N   N4        1.0  0.69500  0.69500  0.07960  1.0000
  N   N5        1.0  0.42000  0.42000  0.15700  1.0000
  N   N6        1.0  0.08030  0.08030  0.65700  1.0000
  N   N7        1.0  0.58000  0.58000  0.84300  1.0000
  N   N8        1.0  0.92000  0.92000  0.34300  1.0000
