CIF file written using JARVIS-Tools package.
data_LaYMn2Si2
_symmetry_space_group_name_H-M  'P4mm'
_cell_length_a       3.98112
_cell_length_b       3.98112
_cell_length_c       7.36895
_cell_angle_alpha    90
_cell_angle_beta     90
_cell_angle_gamma    90

_symmetry_Int_Tables_number  99
_chemical_formula_structural  LaYMn2Si2
_chemical_formula_sum  LaYMn2Si2
_cell_volume  116.79306186365316
_cell_formula_units_Z  1
loop_
  _symmetry_equiv_pos_site_id
 _symmetry_equiv_pos_as_xyz
 1  'x, y, z'
loop_
 _atom_site_type_symbol
 _atom_site_label
 _atom_site_symmetry_multiplicity
 _atom_site_fract_x
 _atom_site_fract_y
 _atom_site_fract_z
 _atom_site_fract_occupancy
 La  La1  1  0.50000  0.50000  0.33941  1
 Mn  Mn1  1  0.50000  0.00000  0.99385  1
 Mn  Mn2  1  0.00000  0.50000  0.99385  1
 Si  Si1  1  0.50000  0.50000  0.80638  1
 Si  Si2  1  0.00000  0.00000  0.17709  1
 Y  Y1  1  0.00000  0.00000  0.68943  1
