CIF file written using JARVIS-Tools package.
data_CdH10C7O4
_symmetry_space_group_name_H-M  'P1'
_cell_length_a       3.81391
_cell_length_b       4.68133
_cell_length_c       11.7249
_cell_angle_alpha    91.1595
_cell_angle_beta     95.8491
_cell_angle_gamma    117.841

_symmetry_Int_Tables_number  1
_chemical_formula_structural  CdH10C7O4
_chemical_formula_sum  CdH0C7O4
_cell_volume  183.59563038286552
_cell_formula_units_Z  1
loop_
  _symmetry_equiv_pos_site_id
 _symmetry_equiv_pos_as_xyz
 1  'x, y, z'
loop_
 _atom_site_type_symbol
 _atom_site_label
 _atom_site_symmetry_multiplicity
 _atom_site_fract_x
 _atom_site_fract_y
 _atom_site_fract_z
 _atom_site_fract_occupancy
 C  C1  1  0.35542  0.55113  0.02683  1
 C  C2  1  0.31493  0.68683  0.91289  1
 C  C3  1  0.23058  0.46373  0.80551  1
 C  C4  1  0.21070  0.62846  0.69532  1
 C  C5  1  0.12724  0.41268  0.58559  1
 C  C6  1  0.10577  0.58232  0.47710  1
 C  C7  1  0.03432  0.38455  0.36529  1
 Cd  Cd1  1  0.18433  0.00536  0.19581  1
 H  H1  1  0.38878  0.80650  0.47463  1
 H  H2  1  0.35721  0.33422  0.58415  1
 H  H3  1  0.58900  0.91792  0.91238  1
 H  H4  1  0.07867  0.75829  0.91565  1
 H  H5  1  0.98080  0.70831  0.69606  1
 H  H6  1  0.49504  0.85205  0.69447  1
 H  H7  1  0.46124  0.38509  0.80552  1
 H  H8  1  0.94739  0.24080  0.80715  1
 H  H9  1  0.84294  0.18919  0.58588  1
 H  H10  1  0.87802  0.66266  0.47594  1
 O  O1  1  0.11978  0.15117  0.36942  1
 O  O2  1  0.25182  0.25308  0.02877  1
 O  O3  1  -0.10025  0.45397  0.27132  1
 O  O4  1  0.49983  0.75002  0.11818  1
