CIF file written using JARVIS-Tools package.
data_USb2
_symmetry_space_group_name_H-M  'P4/nmm'
_cell_length_a       4.31802
_cell_length_b       4.31802
_cell_length_c       8.76061
_cell_angle_alpha    90
_cell_angle_beta     90
_cell_angle_gamma    90

_symmetry_Int_Tables_number  129
_chemical_formula_structural  USb2
_chemical_formula_sum  U2Sb4
_cell_volume  163.34458720238263
_cell_formula_units_Z  2
loop_
  _symmetry_equiv_pos_site_id
 _symmetry_equiv_pos_as_xyz
 1  'x, y, z'
loop_
 _atom_site_type_symbol
 _atom_site_label
 _atom_site_symmetry_multiplicity
 _atom_site_fract_x
 _atom_site_fract_y
 _atom_site_fract_z
 _atom_site_fract_occupancy
 Sb  Sb1  1  0.00000  0.00000  0.00000  1
 Sb  Sb2  1  0.50000  0.50000  0.00000  1
 Sb  Sb3  1  0.50000  0.00000  0.64000  1
 Sb  Sb4  1  0.00000  0.50000  0.36000  1
 U  U1  1  0.50000  0.00000  0.27960  1
 U  U2  1  0.00000  0.50000  0.72040  1
