CIF file written using JARVIS-Tools package.
data_Li2MnCr2O6
_symmetry_space_group_name_H-M  'Cmce'
_cell_length_a       4.98311
_cell_length_b       4.98311
_cell_length_c       9.98297
_cell_angle_alpha    90
_cell_angle_beta     90
_cell_angle_gamma    119.608

_symmetry_Int_Tables_number  64
_chemical_formula_structural  Li2MnCr2O6
_chemical_formula_sum  Li4Mn2Cr4O2
_cell_volume  215.52268135455375
_cell_formula_units_Z  2
loop_
  _symmetry_equiv_pos_site_id
 _symmetry_equiv_pos_as_xyz
 1  'x, y, z'
loop_
 _atom_site_type_symbol
 _atom_site_label
 _atom_site_symmetry_multiplicity
 _atom_site_fract_x
 _atom_site_fract_y
 _atom_site_fract_z
 _atom_site_fract_occupancy
 Cr  Cr1  1  0.16323  0.83677  0.50000  1
 Cr  Cr2  1  0.33677  0.66323  0.00000  1
 Cr  Cr3  1  0.66323  0.33677  0.00000  1
 Cr  Cr4  1  0.83677  0.16323  0.50000  1
 Li  Li1  1  0.14680  0.64680  0.75000  1
 Li  Li2  1  0.35320  0.85320  0.25000  1
 Li  Li3  1  0.64680  0.14680  0.75000  1
 Li  Li4  1  0.85320  0.35320  0.25000  1
 Mn  Mn1  1  0.00000  0.00000  0.00000  1
 Mn  Mn2  1  0.50000  0.50000  0.50000  1
 O  O1  1  0.82886  0.49518  0.60670  1
 O  O2  1  0.99518  0.32886  0.89330  1
 O  O3  1  0.17114  0.50482  0.39330  1
 O  O4  1  0.49518  0.82886  0.60670  1
 O  O5  1  0.00482  0.67114  0.10670  1
 O  O6  1  0.50482  0.17114  0.39330  1
 O  O7  1  0.67680  0.67680  0.89822  1
 O  O8  1  0.32886  0.99518  0.89330  1
 O  O9  1  0.82320  0.82320  0.39822  1
 O  O10  1  0.17680  0.17680  0.60178  1
 O  O11  1  0.32320  0.32320  0.10178  1
 O  O12  1  0.67114  0.00482  0.10670  1
