CIF file written using JARVIS-Tools package.
data_CNCl
_symmetry_space_group_name_H-M  'Pmmn'
_cell_length_a       3.76198
_cell_length_b       5.67052
_cell_length_c       5.43556
_cell_angle_alpha    90
_cell_angle_beta     90
_cell_angle_gamma    90

_symmetry_Int_Tables_number  59
_chemical_formula_structural  CNCl
_chemical_formula_sum  C2N2Cl2
_cell_volume  115.95343289328078
_cell_formula_units_Z  2
loop_
  _symmetry_equiv_pos_site_id
 _symmetry_equiv_pos_as_xyz
 1  'x, y, z'
loop_
 _atom_site_type_symbol
 _atom_site_label
 _atom_site_symmetry_multiplicity
 _atom_site_fract_x
 _atom_site_fract_y
 _atom_site_fract_z
 _atom_site_fract_occupancy
 C  C1  1  0.50000  0.43222  0.50000  1
 C  C2  1  0.00000  0.56778  0.00000  1
 Cl  Cl1  1  0.50000  0.14784  0.50000  1
 Cl  Cl2  1  0.00000  0.85216  0.00000  1
 N  N1  1  0.00000  0.36191  0.00000  1
 N  N2  1  0.50000  0.63809  0.50000  1
