CIF file written using JARVIS-Tools package.
data_In2CuTe3Cl
_symmetry_space_group_name_H-M  'P1'
_cell_length_a       5.96084
_cell_length_b       6.37904
_cell_length_c       7.52933
_cell_angle_alpha    115.76
_cell_angle_beta     112.002
_cell_angle_gamma    90.7172

_symmetry_Int_Tables_number  1
_chemical_formula_structural  In2CuTe3Cl
_chemical_formula_sum  In2CuTe3Cl
_cell_volume  233.73769356156993
_cell_formula_units_Z  1
loop_
  _symmetry_equiv_pos_site_id
 _symmetry_equiv_pos_as_xyz
 1  'x, y, z'
loop_
 _atom_site_type_symbol
 _atom_site_label
 _atom_site_symmetry_multiplicity
 _atom_site_fract_x
 _atom_site_fract_y
 _atom_site_fract_z
 _atom_site_fract_occupancy
 Cl  Cl1  1  0.88049  0.33735  0.26170  1
 Cu  Cu1  1  0.43862  0.55321  0.95350  1
 In  In1  1  0.02939  -0.00396  0.00642  1
 In  In2  1  0.76051  0.24352  0.52932  1
 Te  Te1  1  0.58147  0.65258  0.71728  1
 Te  Te2  1  0.19397  0.12718  0.75562  1
 Te  Te3  1  0.36555  0.84013  0.27616  1
