CIF file written using JARVIS-Tools package.
data_RbPbF3
_symmetry_space_group_name_H-M  'R3c'
_cell_length_a       9.41465
_cell_length_b       6.51068
_cell_length_c       6.80242
_cell_angle_alpha    58.5113
_cell_angle_beta     43.74
_cell_angle_gamma    46.256

_symmetry_Int_Tables_number  161
_chemical_formula_structural  RbPbF3
_chemical_formula_sum  Rb2Pb2F6
_cell_volume  208.04750202344204
_cell_formula_units_Z  2
loop_
  _symmetry_equiv_pos_site_id
 _symmetry_equiv_pos_as_xyz
 1  'x, y, z'
loop_
 _atom_site_type_symbol
 _atom_site_label
 _atom_site_symmetry_multiplicity
 _atom_site_fract_x
 _atom_site_fract_y
 _atom_site_fract_z
 _atom_site_fract_occupancy
 F  F1  1  0.18117  0.42600  0.01586  1
 F  F2  1  0.83535  0.77179  0.54360  1
 F  F3  1  0.33539  0.77165  0.01606  1
 F  F4  1  0.68122  0.42603  0.19781  1
 F  F5  1  0.65321  0.95373  0.19826  1
 F  F6  1  0.15323  0.95372  0.54368  1
 Pb  Pb1  1  0.98817  0.91359  0.05606  1
 Pb  Pb2  1  0.48815  0.91360  0.05612  1
 Rb  Rb1  1  0.24297  0.42350  0.54635  1
 Rb  Rb2  1  0.74299  0.42348  0.54627  1
