CIF file written using JARVIS-Tools package.
data_SmAlCu4
_symmetry_space_group_name_H-M  'P-6m2'
_cell_length_a       5.25184
_cell_length_b       5.25184
_cell_length_c       4.02307
_cell_angle_alpha    90
_cell_angle_beta     90
_cell_angle_gamma    120

_symmetry_Int_Tables_number  187
_chemical_formula_structural  SmAlCu4
_chemical_formula_sum  SmAlCu4
_cell_volume  96.09732664584112
_cell_formula_units_Z  1
loop_
  _symmetry_equiv_pos_site_id
 _symmetry_equiv_pos_as_xyz
 1  'x, y, z'
loop_
 _atom_site_type_symbol
 _atom_site_label
 _atom_site_symmetry_multiplicity
 _atom_site_fract_x
 _atom_site_fract_y
 _atom_site_fract_z
 _atom_site_fract_occupancy
 Al  Al1  1  0.00000  0.00000  0.00000  1
 Cu  Cu1  1  0.33333  0.66667  0.00000  1
 Cu  Cu2  1  0.66495  0.83248  0.50000  1
 Cu  Cu3  1  0.16752  0.83248  0.50000  1
 Cu  Cu4  1  0.16752  0.33505  0.50000  1
 Sm  Sm1  1  0.66667  0.33333  0.00000  1
