CIF file written using JARVIS-Tools package.
data_HfTiSe4
_symmetry_space_group_name_H-M  'P2/m'
_cell_length_a       3.66236
_cell_length_b       6.34474
_cell_length_c       6.12754
_cell_angle_alpha    90.0398
_cell_angle_beta     90
_cell_angle_gamma    90

_symmetry_Int_Tables_number  10
_chemical_formula_structural  HfTiSe4
_chemical_formula_sum  HfTiSe4
_cell_volume  142.38399092367982
_cell_formula_units_Z  1
loop_
  _symmetry_equiv_pos_site_id
 _symmetry_equiv_pos_as_xyz
 1  'x, y, z'
loop_
 _atom_site_type_symbol
 _atom_site_label
 _atom_site_symmetry_multiplicity
 _atom_site_fract_x
 _atom_site_fract_y
 _atom_site_fract_z
 _atom_site_fract_occupancy
 Hf  Hf1  1  0.50000  0.50000  -0.00000  1
 Se  Se1  1  0.00000  0.67547  0.74303  1
 Se  Se2  1  0.50000  0.15752  0.75020  1
 Se  Se3  1  0.50000  0.84248  0.24980  1
 Se  Se4  1  0.00000  0.32453  0.25697  1
 Ti  Ti1  1  0.00000  0.00000  0.00000  1
