CIF file written using JARVIS-Tools package.
data_CaOsN2
_symmetry_space_group_name_H-M  'R-3m'
_cell_length_a       5.43696
_cell_length_b       5.43695
_cell_length_c       5.43695
_cell_angle_alpha    34.8904
_cell_angle_beta     34.8904
_cell_angle_gamma    34.8904

_symmetry_Int_Tables_number  166
_chemical_formula_structural  CaOsN2
_chemical_formula_sum  CaOsN2
_cell_volume  46.94459934278543
_cell_formula_units_Z  1
loop_
  _symmetry_equiv_pos_site_id
 _symmetry_equiv_pos_as_xyz
 1  'x, y, z'
loop_
 _atom_site_type_symbol
 _atom_site_label
 _atom_site_symmetry_multiplicity
 _atom_site_fract_x
 _atom_site_fract_y
 _atom_site_fract_z
 _atom_site_fract_occupancy
 Ca  Ca1  1  0.00000  0.00000  0.00000  1
 N  N1  1  0.76774  0.76774  0.76774  1
 N  N2  1  0.23226  0.23226  0.23226  1
 Os  Os1  1  0.50000  0.50000  0.50000  1
