CIF file written using JARVIS-Tools package.
data_Li3TiNi3O8
_symmetry_space_group_name_H-M  'C2/m'
_cell_length_a       5.83304
_cell_length_b       5.71342
_cell_length_c       5.88607
_cell_angle_alpha    60.9657
_cell_angle_beta     58.7635
_cell_angle_gamma    60.6761

_symmetry_Int_Tables_number  12
_chemical_formula_structural  Li3TiNi3O8
_chemical_formula_sum  Li3TiNi3O8
_cell_volume  139.012796227587
_cell_formula_units_Z  1
loop_
  _symmetry_equiv_pos_site_id
 _symmetry_equiv_pos_as_xyz
 1  'x, y, z'
loop_
 _atom_site_type_symbol
 _atom_site_label
 _atom_site_symmetry_multiplicity
 _atom_site_fract_x
 _atom_site_fract_y
 _atom_site_fract_z
 _atom_site_fract_occupancy
 Li  Li1  1  0.50000  0.50000  0.50000  1
 Li  Li2  1  -0.00000  0.50000  0.50000  1
 Li  Li3  1  -0.00000  0.00000  0.50000  1
 Ni  Ni1  1  0.50000  0.50000  -0.00000  1
 Ni  Ni2  1  0.00000  0.50000  -0.00000  1
 Ni  Ni3  1  0.50000  0.00000  -0.00000  1
 O  O1  1  0.77295  0.74048  0.22947  1
 O  O2  1  0.25015  0.76247  0.22491  1
 O  O3  1  0.77295  0.25710  0.22947  1
 O  O4  1  0.24924  0.27490  0.20097  1
 O  O5  1  0.75076  0.72510  0.79903  1
 O  O6  1  0.22705  0.74290  0.77053  1
 O  O7  1  0.74985  0.23753  0.77509  1
 O  O8  1  0.22705  0.25952  0.77053  1
 Ti  Ti1  1  0.00000  0.00000  0.00000  1
