CIF file written using JARVIS-Tools package.
data_Rb2WO2F4
_symmetry_space_group_name_H-M  'C2/m'
_cell_length_a       6.0617
_cell_length_b       6.06169
_cell_length_c       4.79232
_cell_angle_alpha    88.8265
_cell_angle_beta     88.8265
_cell_angle_gamma    58.2128

_symmetry_Int_Tables_number  12
_chemical_formula_structural  Rb2WO2F4
_chemical_formula_sum  Rb2WO2F4
_cell_volume  149.6372328038677
_cell_formula_units_Z  1
loop_
  _symmetry_equiv_pos_site_id
 _symmetry_equiv_pos_as_xyz
 1  'x, y, z'
loop_
 _atom_site_type_symbol
 _atom_site_label
 _atom_site_symmetry_multiplicity
 _atom_site_fract_x
 _atom_site_fract_y
 _atom_site_fract_z
 _atom_site_fract_occupancy
 F  F1  1  0.69311  0.16951  0.76599  1
 F  F2  1  0.16951  0.69311  0.76599  1
 F  F3  1  0.30689  0.83049  0.23401  1
 F  F4  1  0.83049  0.30689  0.23401  1
 O  O1  1  0.14837  0.14837  0.79575  1
 O  O2  1  0.85163  0.85163  0.20425  1
 Rb  Rb1  1  0.32358  0.32358  0.30384  1
 Rb  Rb2  1  0.67642  0.67642  0.69616  1
 W  W1  1  0.00000  0.00000  0.00000  1
