CIF file written using JARVIS-Tools package.
data_BaTl2
_symmetry_space_group_name_H-M  'P6_3/mmc'
_cell_length_a       5.33346
_cell_length_b       5.33346
_cell_length_c       8.52073
_cell_angle_alpha    90
_cell_angle_beta     90
_cell_angle_gamma    120

_symmetry_Int_Tables_number  194
_chemical_formula_structural  BaTl2
_chemical_formula_sum  Ba2Tl4
_cell_volume  209.90638333807735
_cell_formula_units_Z  2
loop_
  _symmetry_equiv_pos_site_id
 _symmetry_equiv_pos_as_xyz
 1  'x, y, z'
loop_
 _atom_site_type_symbol
 _atom_site_label
 _atom_site_symmetry_multiplicity
 _atom_site_fract_x
 _atom_site_fract_y
 _atom_site_fract_z
 _atom_site_fract_occupancy
 Ba  Ba1  1  0.00000  0.00000  0.25000  1
 Ba  Ba2  1  0.00000  0.00000  0.75000  1
 Tl  Tl1  1  0.33333  0.66667  0.45488  1
 Tl  Tl2  1  0.66667  0.33333  0.95488  1
 Tl  Tl3  1  0.66667  0.33333  0.54512  1
 Tl  Tl4  1  0.33333  0.66667  0.04512  1
