CIF file written using JARVIS-Tools package.
data_H2C3
_symmetry_space_group_name_H-M  'P-1'
_cell_length_a       3.71453
_cell_length_b       7.10506
_cell_length_c       7.09392
_cell_angle_alpha    104.504
_cell_angle_beta     97.9341
_cell_angle_gamma    97.9789

_symmetry_Int_Tables_number  2
_chemical_formula_structural  H2C3
_chemical_formula_sum  H8C2
_cell_volume  176.56238837452617
_cell_formula_units_Z  4
loop_
  _symmetry_equiv_pos_site_id
 _symmetry_equiv_pos_as_xyz
 1  'x, y, z'
loop_
 _atom_site_type_symbol
 _atom_site_label
 _atom_site_symmetry_multiplicity
 _atom_site_fract_x
 _atom_site_fract_y
 _atom_site_fract_z
 _atom_site_fract_occupancy
 C  C1  1  0.05196  0.49640  0.78273  1
 C  C2  1  0.87121  0.30847  0.00331  1
 C  C3  1  0.21313  0.65676  0.94371  1
 C  C4  1  0.03237  0.46883  0.16429  1
 C  C5  1  0.71362  0.95323  0.64792  1
 C  C6  1  0.55252  0.79225  0.48755  1
 C  C7  1  0.37743  0.81750  0.30925  1
 C  C8  1  0.20695  0.64687  0.13863  1
 C  C9  1  0.70691  0.14773  0.63776  1
 C  C10  1  0.53182  0.17298  0.45946  1
 C  C11  1  0.37072  0.01200  0.29909  1
 C  C12  1  0.87739  0.31836  0.80839  1
 H  H1  1  0.51144  0.32123  0.44775  1
 H  H2  1  0.35760  0.78974  0.91775  1
 H  H3  1  0.57289  0.64401  0.49927  1
 H  H4  1  0.72675  0.17549  0.02925  1
 H  H5  1  0.85851  0.92760  0.78108  1
 H  H6  1  0.01241  0.45730  0.31287  1
 H  H7  1  0.22583  0.03764  0.16594  1
 H  H8  1  0.07193  0.50795  0.63416  1
