CIF file written using JARVIS-Tools package.
data_SrBr2
_symmetry_space_group_name_H-M  'P4_2/mnm'
_cell_length_a       7.07046
_cell_length_b       7.07046
_cell_length_c       4.65333
_cell_angle_alpha    90
_cell_angle_beta     90
_cell_angle_gamma    90

_symmetry_Int_Tables_number  136
_chemical_formula_structural  SrBr2
_chemical_formula_sum  Sr2Br4
_cell_volume  232.6264373244627
_cell_formula_units_Z  2
loop_
  _symmetry_equiv_pos_site_id
 _symmetry_equiv_pos_as_xyz
 1  'x, y, z'
loop_
 _atom_site_type_symbol
 _atom_site_label
 _atom_site_symmetry_multiplicity
 _atom_site_fract_x
 _atom_site_fract_y
 _atom_site_fract_z
 _atom_site_fract_occupancy
 Br  Br1  1  0.30310  0.30310  0.00000  1
 Br  Br2  1  0.69690  0.69690  0.00000  1
 Br  Br3  1  0.19690  0.80310  0.50000  1
 Br  Br4  1  0.80310  0.19690  0.50000  1
 Sr  Sr1  1  0.00000  0.00000  0.00000  1
 Sr  Sr2  1  0.50000  0.50000  0.50000  1
