CIF file written using JARVIS-Tools package.
data_TaB4W3
_symmetry_space_group_name_H-M  'Pmm2'
_cell_length_a       3.11432
_cell_length_b       3.22776
_cell_length_c       8.56437
_cell_angle_alpha    90
_cell_angle_beta     90
_cell_angle_gamma    90

_symmetry_Int_Tables_number  25
_chemical_formula_structural  TaB4W3
_chemical_formula_sum  TaB4W3
_cell_volume  86.09131792391621
_cell_formula_units_Z  1
loop_
  _symmetry_equiv_pos_site_id
 _symmetry_equiv_pos_as_xyz
 1  'x, y, z'
loop_
 _atom_site_type_symbol
 _atom_site_label
 _atom_site_symmetry_multiplicity
 _atom_site_fract_x
 _atom_site_fract_y
 _atom_site_fract_z
 _atom_site_fract_occupancy
 B  B1  1  0.00000  0.00000  0.44095  1
 B  B2  1  0.00000  0.50000  0.93925  1
 B  B3  1  0.50000  0.50000  0.05547  1
 B  B4  1  0.50000  0.00000  0.56242  1
 Ta  Ta1  1  0.00000  0.00000  0.14609  1
 W  W1  1  0.00000  0.50000  0.64636  1
 W  W2  1  0.50000  0.50000  0.35774  1
 W  W3  1  0.50000  0.00000  0.85171  1
