CIF file written using JARVIS-Tools package.
data_In3Co
_symmetry_space_group_name_H-M  'Cmmm'
_cell_length_a       6.67188
_cell_length_b       6.67188
_cell_length_c       3.85471
_cell_angle_alpha    90
_cell_angle_beta     90
_cell_angle_gamma    89.4152

_symmetry_Int_Tables_number  65
_chemical_formula_structural  In3Co
_chemical_formula_sum  In6Co2
_cell_volume  171.57996208639622
_cell_formula_units_Z  2
loop_
  _symmetry_equiv_pos_site_id
 _symmetry_equiv_pos_as_xyz
 1  'x, y, z'
loop_
 _atom_site_type_symbol
 _atom_site_label
 _atom_site_symmetry_multiplicity
 _atom_site_fract_x
 _atom_site_fract_y
 _atom_site_fract_z
 _atom_site_fract_occupancy
 Co  Co1  1  0.35915  0.64085  0.00000  1
 Co  Co2  1  0.64085  0.35915  0.00000  1
 In  In1  1  -0.00000  0.50000  0.00000  1
 In  In2  1  0.50000  0.00000  0.00000  1
 In  In3  1  0.84575  0.15425  0.50000  1
 In  In4  1  0.15425  0.84575  0.50000  1
 In  In5  1  0.34242  0.34242  0.50000  1
 In  In6  1  0.65758  0.65758  0.50000  1
