CIF file written using JARVIS-Tools package.
data_Mg5Pd
_symmetry_space_group_name_H-M  'P-62m'
_cell_length_a       5.30875
_cell_length_b       5.30876
_cell_length_c       4.8147
_cell_angle_alpha    90
_cell_angle_beta     90
_cell_angle_gamma    120

_symmetry_Int_Tables_number  189
_chemical_formula_structural  Mg5Pd
_chemical_formula_sum  Mg5Pd
_cell_volume  117.51282926820002
_cell_formula_units_Z  1
loop_
  _symmetry_equiv_pos_site_id
 _symmetry_equiv_pos_as_xyz
 1  'x, y, z'
loop_
 _atom_site_type_symbol
 _atom_site_label
 _atom_site_symmetry_multiplicity
 _atom_site_fract_x
 _atom_site_fract_y
 _atom_site_fract_z
 _atom_site_fract_occupancy
 Mg  Mg1  1  0.31450  -0.00000  0.50000  1
 Mg  Mg2  1  0.68550  0.68550  0.50000  1
 Mg  Mg3  1  -0.00000  0.31450  0.50000  1
 Mg  Mg4  1  0.33333  0.66667  0.00000  1
 Mg  Mg5  1  0.66667  0.33333  0.00000  1
 Pd  Pd1  1  0.00000  0.00000  0.00000  1
