CIF file written using JARVIS-Tools package.
data_Fe4Se3N2
_symmetry_space_group_name_H-M  'C2/m'
_cell_length_a       6.47765
_cell_length_b       3.28993
_cell_length_c       8.71899
_cell_angle_alpha    90
_cell_angle_beta     48.3034
_cell_angle_gamma    75.289

_symmetry_Int_Tables_number  12
_chemical_formula_structural  Fe4Se3N2
_chemical_formula_sum  Fe4Se3N2
_cell_volume  130.47018930082618
_cell_formula_units_Z  1
loop_
  _symmetry_equiv_pos_site_id
 _symmetry_equiv_pos_as_xyz
 1  'x, y, z'
loop_
 _atom_site_type_symbol
 _atom_site_label
 _atom_site_symmetry_multiplicity
 _atom_site_fract_x
 _atom_site_fract_y
 _atom_site_fract_z
 _atom_site_fract_occupancy
 Fe  Fe1  1  0.39079  0.80460  0.63542  1
 Fe  Fe2  1  0.60921  0.19540  0.36458  1
 Fe  Fe3  1  0.55207  0.72396  0.15172  1
 Fe  Fe4  1  0.44793  0.27604  0.84828  1
 N  N1  1  0.43454  0.78273  0.40686  1
 N  N2  1  0.56546  0.21727  0.59314  1
 Se  Se1  1  0.00000  0.00000  0.00000  1
 Se  Se2  1  0.77013  0.61494  0.78582  1
 Se  Se3  1  0.22987  0.38506  0.21418  1
