CIF file written using JARVIS-Tools package.
data_ScAlN2
_symmetry_space_group_name_H-M  'I4_1/amd'
_cell_length_a       4.38741
_cell_length_b       4.3872
_cell_length_c       5.2234
_cell_angle_alpha    114.832
_cell_angle_beta     114.833
_cell_angle_gamma    90

_symmetry_Int_Tables_number  141
_chemical_formula_structural  ScAlN2
_chemical_formula_sum  Sc2Al2N4
_cell_volume  80.88856108877796
_cell_formula_units_Z  2
loop_
  _symmetry_equiv_pos_site_id
 _symmetry_equiv_pos_as_xyz
 1  'x, y, z'
loop_
 _atom_site_type_symbol
 _atom_site_label
 _atom_site_symmetry_multiplicity
 _atom_site_fract_x
 _atom_site_fract_y
 _atom_site_fract_z
 _atom_site_fract_occupancy
 Al  Al1  1  0.12500  0.37500  0.75000  1
 Al  Al2  1  0.87500  0.62500  0.25000  1
 N  N1  1  0.36273  0.61273  0.22546  1
 N  N2  1  0.63727  0.38727  0.77454  1
 N  N3  1  0.88727  0.13727  0.27454  1
 N  N4  1  0.11273  0.86273  0.72546  1
 Sc  Sc1  1  0.62500  0.87500  0.75000  1
 Sc  Sc2  1  0.37500  0.12500  0.25000  1
