CIF file written using JARVIS-Tools package.
data_H6C9SO
_symmetry_space_group_name_H-M  'P1'
_cell_length_a       4.15951
_cell_length_b       5.92134
_cell_length_c       7.54358
_cell_angle_alpha    87.2792
_cell_angle_beta     74.168
_cell_angle_gamma    74.4972

_symmetry_Int_Tables_number  1
_chemical_formula_structural  H6C9SO
_chemical_formula_sum  H6C9SO
_cell_volume  172.18067496628098
_cell_formula_units_Z  1
loop_
  _symmetry_equiv_pos_site_id
 _symmetry_equiv_pos_as_xyz
 1  'x, y, z'
loop_
 _atom_site_type_symbol
 _atom_site_label
 _atom_site_symmetry_multiplicity
 _atom_site_fract_x
 _atom_site_fract_y
 _atom_site_fract_z
 _atom_site_fract_occupancy
 C  C1  1  0.36748  0.30487  0.70636  1
 C  C2  1  0.11771  0.51732  0.76692  1
 C  C3  1  0.82735  0.53001  0.94081  1
 C  C4  1  0.91637  0.46722  0.26237  1
 C  C5  1  0.39349  0.70750  0.49797  1
 C  C6  1  0.13646  0.71790  0.66247  1
 C  C7  1  0.88211  0.63317  0.10751  1
 C  C8  1  0.62915  0.29384  0.54401  1
 C  C9  1  0.64440  0.49456  0.43790  1
 H  H1  1  0.35138  0.14826  0.78704  1
 H  H2  1  0.81983  0.12934  0.49243  1
 H  H3  1  0.94270  0.88256  0.71020  1
 H  H4  1  0.39987  0.86403  0.41684  1
 H  H5  1  0.58726  0.64569  0.91801  1
 H  H6  1  0.78323  0.35620  0.97293  1
 O  O1  1  0.18402  0.30289  0.22660  1
 S  S1  1  0.94383  0.89095  0.12273  1
