CIF file written using JARVIS-Tools package.
data_Sc2CrN3
_symmetry_space_group_name_H-M  'Immm'
_cell_length_a       6.3422
_cell_length_b       3.06294
_cell_length_c       11.7751
_cell_angle_alpha    90
_cell_angle_beta     21.8268
_cell_angle_gamma    76.0264

_symmetry_Int_Tables_number  71
_chemical_formula_structural  Sc2CrN3
_chemical_formula_sum  Sc2CrN3
_cell_volume  64.6681955287563
_cell_formula_units_Z  1
loop_
  _symmetry_equiv_pos_site_id
 _symmetry_equiv_pos_as_xyz
 1  'x, y, z'
loop_
 _atom_site_type_symbol
 _atom_site_label
 _atom_site_symmetry_multiplicity
 _atom_site_fract_x
 _atom_site_fract_y
 _atom_site_fract_z
 _atom_site_fract_occupancy
 Cr  Cr1  1  0.00000  0.00000  0.00000  1
 N  N1  1  -0.00000  0.50000  0.50000  1
 N  N2  1  0.00000  -0.00000  0.83439  1
 N  N3  1  -0.00000  0.00000  0.16561  1
 Sc  Sc1  1  0.00000  -0.00000  0.65292  1
 Sc  Sc2  1  -0.00000  0.00000  0.34708  1
