CIF file written using JARVIS-Tools package.
data_SrCu2As2
_symmetry_space_group_name_H-M  'I4/mmm'
_cell_length_a       4.20681
_cell_length_b       4.20681
_cell_length_c       6.24012
_cell_angle_alpha    109.699
_cell_angle_beta     109.699
_cell_angle_gamma    90

_symmetry_Int_Tables_number  139
_chemical_formula_structural  SrCu2As2
_chemical_formula_sum  SrCu2As2
_cell_volume  97.07807243350442
_cell_formula_units_Z  1
loop_
  _symmetry_equiv_pos_site_id
 _symmetry_equiv_pos_as_xyz
 1  'x, y, z'
loop_
 _atom_site_type_symbol
 _atom_site_label
 _atom_site_symmetry_multiplicity
 _atom_site_fract_x
 _atom_site_fract_y
 _atom_site_fract_z
 _atom_site_fract_occupancy
 As  As1  1  0.62794  0.62794  0.25588  1
 As  As2  1  0.37206  0.37206  0.74412  1
 Cu  Cu1  1  0.75000  0.25000  0.50000  1
 Cu  Cu2  1  0.25000  0.75000  0.50000  1
 Sr  Sr1  1  0.00000  0.00000  0.00000  1
