CIF file written using JARVIS-Tools package.
data_PrSiOs2C
_symmetry_space_group_name_H-M  'Cmcm'
_cell_length_a       5.93607
_cell_length_b       5.93607
_cell_length_c       7.22057
_cell_angle_alpha    90
_cell_angle_beta     90
_cell_angle_gamma    140.596

_symmetry_Int_Tables_number  63
_chemical_formula_structural  PrSiOs2C
_chemical_formula_sum  Pr2Si2Os4C2
_cell_volume  161.510428068718
_cell_formula_units_Z  2
loop_
  _symmetry_equiv_pos_site_id
 _symmetry_equiv_pos_as_xyz
 1  'x, y, z'
loop_
 _atom_site_type_symbol
 _atom_site_label
 _atom_site_symmetry_multiplicity
 _atom_site_fract_x
 _atom_site_fract_y
 _atom_site_fract_z
 _atom_site_fract_occupancy
 C  C1  1  0.00000  0.00000  0.00000  1
 C  C2  1  0.00000  0.00000  0.50000  1
 Os  Os1  1  0.83392  0.16608  0.05923  1
 Os  Os2  1  0.16608  0.83392  0.94077  1
 Os  Os3  1  0.16608  0.83392  0.55923  1
 Os  Os4  1  0.83392  0.16608  0.44077  1
 Pr  Pr1  1  0.54971  0.45029  0.25000  1
 Pr  Pr2  1  0.45029  0.54971  0.75000  1
 Si  Si1  1  0.27084  0.72916  0.25000  1
 Si  Si2  1  0.72916  0.27084  0.75000  1
