CIF file written using JARVIS-Tools package.
data_Tb5Mg
_symmetry_space_group_name_H-M  'Amm2'
_cell_length_a       9.17887
_cell_length_b       9.17887
_cell_length_c       5.58934
_cell_angle_alpha    90
_cell_angle_beta     90
_cell_angle_gamma    157.616

_symmetry_Int_Tables_number  38
_chemical_formula_structural  Tb5Mg
_chemical_formula_sum  Tb5Mg
_cell_volume  179.3290271082968
_cell_formula_units_Z  1
loop_
  _symmetry_equiv_pos_site_id
 _symmetry_equiv_pos_as_xyz
 1  'x, y, z'
loop_
 _atom_site_type_symbol
 _atom_site_label
 _atom_site_symmetry_multiplicity
 _atom_site_fract_x
 _atom_site_fract_y
 _atom_site_fract_z
 _atom_site_fract_occupancy
 Mg  Mg1  1  0.22082  0.77918  0.50000  1
 Tb  Tb1  1  0.00273  0.99727  0.00000  1
 Tb  Tb2  1  0.67174  0.32826  0.00000  1
 Tb  Tb3  1  0.33317  0.66683  0.00000  1
 Tb  Tb4  1  0.55384  0.44616  0.50000  1
 Tb  Tb5  1  0.88437  0.11563  0.50000  1
