CIF file written using JARVIS-Tools package.
data_SmDyNi2
_symmetry_space_group_name_H-M  'Amm2'
_cell_length_a       5.4312
_cell_length_b       5.4312
_cell_length_c       4.26287
_cell_angle_alpha    90
_cell_angle_beta     90
_cell_angle_gamma    140.037

_symmetry_Int_Tables_number  38
_chemical_formula_structural  SmDyNi2
_chemical_formula_sum  SmDyNi2
_cell_volume  80.76509294697738
_cell_formula_units_Z  1
loop_
  _symmetry_equiv_pos_site_id
 _symmetry_equiv_pos_as_xyz
 1  'x, y, z'
loop_
 _atom_site_type_symbol
 _atom_site_label
 _atom_site_symmetry_multiplicity
 _atom_site_fract_x
 _atom_site_fract_y
 _atom_site_fract_z
 _atom_site_fract_occupancy
 Dy  Dy1  1  0.86282  0.13718  0.50000  1
 Ni  Ni1  1  0.57428  0.42572  0.50000  1
 Ni  Ni2  1  0.42293  0.57707  0.00000  1
 Sm  Sm1  1  0.13997  0.86003  0.00000  1
