CIF file written using JARVIS-Tools package.
data_HfH6C5O4
_symmetry_space_group_name_H-M  'P1'
_cell_length_a       3.49425
_cell_length_b       4.08038
_cell_length_c       8.99597
_cell_angle_alpha    81.593
_cell_angle_beta     83.2603
_cell_angle_gamma    67.6908

_symmetry_Int_Tables_number  1
_chemical_formula_structural  HfH6C5O4
_chemical_formula_sum  HfH6C5O4
_cell_volume  117.11901622604937
_cell_formula_units_Z  1
loop_
  _symmetry_equiv_pos_site_id
 _symmetry_equiv_pos_as_xyz
 1  'x, y, z'
loop_
 _atom_site_type_symbol
 _atom_site_label
 _atom_site_symmetry_multiplicity
 _atom_site_fract_x
 _atom_site_fract_y
 _atom_site_fract_z
 _atom_site_fract_occupancy
 C  C1  1  0.45594  0.49078  0.48329  1
 C  C2  1  0.65257  0.45554  0.63085  1
 C  C3  1  0.39838  0.45846  0.06868  1
 C  C4  1  0.39379  0.61277  0.77307  1
 C  C5  1  0.57112  0.36090  0.91299  1
 H  H1  1  0.55911  0.09798  0.90912  1
 H  H2  1  0.90448  0.30162  0.91391  1
 H  H3  1  0.88385  0.57683  0.60292  1
 H  H4  1  0.82475  0.17000  0.65969  1
 H  H5  1  0.06742  0.65532  0.77170  1
 H  H6  1  0.40122  0.87737  0.77661  1
 Hf  Hf1  1  0.07378  0.96484  0.32872  1
 O  O1  1  0.74313  0.56621  0.34539  1
 O  O2  1  0.47883  0.14339  0.46110  1
 O  O3  1  0.19952  0.77439  0.09613  1
 O  O4  1  0.47918  0.19773  0.17562  1
