CIF file written using JARVIS-Tools package.
data_H7C6SN
_symmetry_space_group_name_H-M  'P1'
_cell_length_a       4.53194
_cell_length_b       7.15585
_cell_length_c       9.62012
_cell_angle_alpha    94.9303
_cell_angle_beta     101.251
_cell_angle_gamma    108.784

_symmetry_Int_Tables_number  1
_chemical_formula_structural  H7C6SN
_chemical_formula_sum  H4C2S2N2
_cell_volume  285.9449667521706
_cell_formula_units_Z  2
loop_
  _symmetry_equiv_pos_site_id
 _symmetry_equiv_pos_as_xyz
 1  'x, y, z'
loop_
 _atom_site_type_symbol
 _atom_site_label
 _atom_site_symmetry_multiplicity
 _atom_site_fract_x
 _atom_site_fract_y
 _atom_site_fract_z
 _atom_site_fract_occupancy
 C  C1  1  0.58566  0.53713  0.96600  1
 C  C2  1  0.92365  0.70044  0.79936  1
 C  C3  1  0.66524  0.53511  0.73216  1
 C  C4  1  0.47064  0.94070  0.32573  1
 C  C5  1  0.47064  0.44070  0.82573  1
 C  C6  1  0.92365  0.20044  0.29936  1
 C  C7  1  0.66524  0.03511  0.23216  1
 C  C8  1  0.58566  0.03713  0.46600  1
 C  C9  1  0.18987  0.84847  0.75366  1
 C  C10  1  0.18987  0.34848  0.25366  1
 C  C11  1  0.20090  0.83001  0.59536  1
 C  C12  1  0.20091  0.33001  0.09536  1
 H  H1  1  0.61090  0.98160  0.11743  1
 H  H2  1  0.22792  0.68767  0.55865  1
 H  H3  1  0.18534  -0.00047  0.78563  1
 H  H4  1  0.18534  0.49953  0.28562  1
 H  H5  1  0.24697  0.81468  0.28953  1
 H  H6  1  0.24697  0.31468  0.78952  1
 H  H7  1  0.53920  0.61782  0.16510  1
 H  H8  1  0.61090  0.48160  0.61743  1
 H  H9  1  0.53920  0.11782  0.66510  1
 H  H10  1  0.42195  0.84706  0.81491  1
 H  H11  1  0.42195  0.34705  0.31491  1
 H  H12  1  0.98086  0.83781  0.52628  1
 H  H13  1  0.98086  0.33781  0.02628  1
 H  H14  1  0.22792  0.18767  0.05865  1
 N  N1  1  0.48778  0.99537  0.59001  1
 N  N2  1  0.48778  0.49537  0.09001  1
 S  S1  1  0.93354  0.24305  0.48211  1
 S  S2  1  0.93354  0.74305  0.98211  1
