CIF file written using JARVIS-Tools package.
data_Tb3NbO7
_symmetry_space_group_name_H-M  'C222_1'
_cell_length_a       6.51401
_cell_length_b       6.51401
_cell_length_c       7.50976
_cell_angle_alpha    90
_cell_angle_beta     90
_cell_angle_gamma    108.791

_symmetry_Int_Tables_number  20
_chemical_formula_structural  Tb3NbO7
_chemical_formula_sum  Tb6Nb2O4
_cell_volume  301.67146344654407
_cell_formula_units_Z  2
loop_
  _symmetry_equiv_pos_site_id
 _symmetry_equiv_pos_as_xyz
 1  'x, y, z'
loop_
 _atom_site_type_symbol
 _atom_site_label
 _atom_site_symmetry_multiplicity
 _atom_site_fract_x
 _atom_site_fract_y
 _atom_site_fract_z
 _atom_site_fract_occupancy
 Nb  Nb1  1  0.00202  0.00202  0.25000  1
 Nb  Nb2  1  0.99798  0.99798  0.75000  1
 O  O1  1  0.62941  0.37059  0.00000  1
 O  O2  1  0.07162  0.92838  0.00000  1
 O  O3  1  0.36143  0.63857  0.00000  1
 O  O4  1  0.63857  0.36143  0.50000  1
 O  O5  1  0.69176  0.94822  0.79650  1
 O  O6  1  0.37059  0.62941  0.50000  1
 O  O7  1  0.05178  0.30824  0.20350  1
 O  O8  1  0.08412  0.33067  0.77297  1
 O  O9  1  0.33067  0.08412  0.72703  1
 O  O10  1  0.92838  0.07162  0.50000  1
 O  O11  1  0.66933  0.91588  0.22703  1
 O  O12  1  0.94822  0.69176  0.70350  1
 O  O13  1  0.30824  0.05178  0.29650  1
 O  O14  1  0.91588  0.66933  0.27297  1
 Tb  Tb1  1  0.46305  0.00055  0.01010  1
 Tb  Tb2  1  0.99945  0.53695  0.98990  1
 Tb  Tb3  1  0.53438  0.53438  0.25000  1
 Tb  Tb4  1  0.46562  0.46562  0.75000  1
 Tb  Tb5  1  0.53695  0.99945  0.51010  1
 Tb  Tb6  1  0.00055  0.46305  0.48990  1
