CIF file written using JARVIS-Tools package.
data_Sr2PdN2
_symmetry_space_group_name_H-M  'I4/mmm'
_cell_length_a       3.81982
_cell_length_b       3.81981
_cell_length_c       7.03592
_cell_angle_alpha    105.751
_cell_angle_beta     105.751
_cell_angle_gamma    89.9999

_symmetry_Int_Tables_number  139
_chemical_formula_structural  Sr2PdN2
_chemical_formula_sum  Sr2PdN2
_cell_volume  94.7948639439862
_cell_formula_units_Z  1
loop_
  _symmetry_equiv_pos_site_id
 _symmetry_equiv_pos_as_xyz
 1  'x, y, z'
loop_
 _atom_site_type_symbol
 _atom_site_label
 _atom_site_symmetry_multiplicity
 _atom_site_fract_x
 _atom_site_fract_y
 _atom_site_fract_z
 _atom_site_fract_occupancy
 N  N1  1  0.64883  0.14883  0.79765  1
 N  N2  1  0.35117  0.85117  0.20235  1
 Pd  Pd1  1  0.50000  -0.00000  0.50000  1
 Sr  Sr1  1  0.14999  0.64999  0.79998  1
 Sr  Sr2  1  0.85001  0.35001  0.20002  1
