CIF file written using JARVIS-Tools package.
data_ZrNbCN
_symmetry_space_group_name_H-M  'R3m'
_cell_length_a       5.60557
_cell_length_b       5.60557
_cell_length_c       5.60557
_cell_angle_alpha    33.4337
_cell_angle_beta     33.4337
_cell_angle_gamma    33.4337

_symmetry_Int_Tables_number  160
_chemical_formula_structural  ZrNbCN
_chemical_formula_sum  ZrNbCN
_cell_volume  47.61796286525792
_cell_formula_units_Z  1
loop_
  _symmetry_equiv_pos_site_id
 _symmetry_equiv_pos_as_xyz
 1  'x, y, z'
loop_
 _atom_site_type_symbol
 _atom_site_label
 _atom_site_symmetry_multiplicity
 _atom_site_fract_x
 _atom_site_fract_y
 _atom_site_fract_z
 _atom_site_fract_occupancy
 C  C1  1  0.00229  0.00229  0.00229  1
 N  N1  1  0.49878  0.49878  0.49878  1
 Nb  Nb1  1  0.74718  0.74718  0.74718  1
 Zr  Zr1  1  0.25176  0.25176  0.25176  1
