CIF file written using JARVIS-Tools package.
data_LaNdCuO4
_symmetry_space_group_name_H-M  'I4mm'
_cell_length_a       6.82224
_cell_length_b       6.82224
_cell_length_c       6.82224
_cell_angle_alpha    146.012
_cell_angle_beta     146.012
_cell_angle_gamma    48.8293

_symmetry_Int_Tables_number  107
_chemical_formula_structural  LaNdCuO4
_chemical_formula_sum  LaNdCuO4
_cell_volume  98.79506186813482
_cell_formula_units_Z  1
loop_
  _symmetry_equiv_pos_site_id
 _symmetry_equiv_pos_as_xyz
 1  'x, y, z'
loop_
 _atom_site_type_symbol
 _atom_site_label
 _atom_site_symmetry_multiplicity
 _atom_site_fract_x
 _atom_site_fract_y
 _atom_site_fract_z
 _atom_site_fract_occupancy
 Cu  Cu1  1  0.00285  0.00285  0.00000  1
 La  La1  1  0.35034  0.35034  -0.00000  1
 Nd  Nd1  1  0.64786  0.64786  0.00000  1
 O  O1  1  0.74744  0.24744  0.50000  1
 O  O2  1  0.24744  0.74744  0.50000  1
 O  O3  1  0.00203  0.50203  0.50000  1
 O  O4  1  0.50203  0.00203  0.50000  1
