CIF file written using JARVIS-Tools package.
data_SnPb4Se5
_symmetry_space_group_name_H-M  'R-3m'
_cell_length_a       18.0085
_cell_length_b       18.0085
_cell_length_c       18.0085
_cell_angle_alpha    13.9229
_cell_angle_beta     13.9229
_cell_angle_gamma    13.9229

_symmetry_Int_Tables_number  166
_chemical_formula_structural  SnPb4Se5
_chemical_formula_sum  SnPb4Se5
_cell_volume  294.26995375732645
_cell_formula_units_Z  1
loop_
  _symmetry_equiv_pos_site_id
 _symmetry_equiv_pos_as_xyz
 1  'x, y, z'
loop_
 _atom_site_type_symbol
 _atom_site_label
 _atom_site_symmetry_multiplicity
 _atom_site_fract_x
 _atom_site_fract_y
 _atom_site_fract_z
 _atom_site_fract_occupancy
 Pb  Pb1  1  0.60089  0.60089  0.60089  1
 Pb  Pb2  1  0.20029  0.20029  0.20029  1
 Pb  Pb3  1  0.79971  0.79971  0.79971  1
 Pb  Pb4  1  0.39911  0.39911  0.39911  1
 Se  Se1  1  0.69862  0.69862  0.69862  1
 Se  Se2  1  0.50000  0.50000  0.50000  1
 Se  Se3  1  0.09939  0.09939  0.09939  1
 Se  Se4  1  0.30138  0.30138  0.30138  1
 Se  Se5  1  0.90061  0.90061  0.90061  1
 Sn  Sn1  1  0.00000  0.00000  0.00000  1
