CIF file written using JARVIS-Tools package.
data_Sn2IF2
_symmetry_space_group_name_H-M  'Cmcm'
_cell_length_a       5.89259
_cell_length_b       5.89259
_cell_length_c       9.96919
_cell_angle_alpha    90
_cell_angle_beta     90
_cell_angle_gamma    136.753

_symmetry_Int_Tables_number  63
_chemical_formula_structural  Sn2IF2
_chemical_formula_sum  Sn4I2F4
_cell_volume  237.16678983605036
_cell_formula_units_Z  2
loop_
  _symmetry_equiv_pos_site_id
 _symmetry_equiv_pos_as_xyz
 1  'x, y, z'
loop_
 _atom_site_type_symbol
 _atom_site_label
 _atom_site_symmetry_multiplicity
 _atom_site_fract_x
 _atom_site_fract_y
 _atom_site_fract_z
 _atom_site_fract_occupancy
 F  F1  1  0.21376  0.78624  0.06549  1
 F  F2  1  0.78624  0.21376  0.56549  1
 F  F3  1  0.21376  0.78624  0.43451  1
 F  F4  1  0.78624  0.21376  0.93451  1
 I  I1  1  0.93313  0.06687  0.25000  1
 I  I2  1  0.06687  0.93313  0.75000  1
 Sn  Sn1  1  0.62583  0.37417  0.09000  1
 Sn  Sn2  1  0.37417  0.62583  0.59000  1
 Sn  Sn3  1  0.62583  0.37417  0.41000  1
 Sn  Sn4  1  0.37417  0.62583  0.91000  1
