CIF file written using JARVIS-Tools package.
data_H7BrO3
_symmetry_space_group_name_H-M  'Cc'
_cell_length_a       6.10803
_cell_length_b       6.58989
_cell_length_c       6.58989
_cell_angle_alpha    52.4767
_cell_angle_beta     90.0813
_cell_angle_gamma    90.0813

_symmetry_Int_Tables_number  9
_chemical_formula_structural  H7BrO3
_chemical_formula_sum  H4Br2O6
_cell_volume  210.3716985064251
_cell_formula_units_Z  2
loop_
  _symmetry_equiv_pos_site_id
 _symmetry_equiv_pos_as_xyz
 1  'x, y, z'
loop_
 _atom_site_type_symbol
 _atom_site_label
 _atom_site_symmetry_multiplicity
 _atom_site_fract_x
 _atom_site_fract_y
 _atom_site_fract_z
 _atom_site_fract_occupancy
 Br  Br1  1  0.00356  -0.00097  0.00255  1
 Br  Br2  1  0.50356  0.50255  0.49903  1
 H  H1  1  0.48940  0.77467  0.04795  1
 H  H2  1  0.27663  0.70142  0.58040  1
 H  H3  1  0.51201  0.05163  0.77632  1
 H  H4  1  0.98940  0.54795  0.27467  1
 H  H5  1  0.73124  0.73531  0.81574  1
 H  H6  1  0.75412  0.57505  0.70990  1
 H  H7  1  0.01201  0.27632  0.55163  1
 H  H8  1  0.03472  0.72221  0.71068  1
 H  H9  1  0.30333  0.81721  0.73917  1
 H  H10  1  0.77663  0.08040  0.20142  1
 H  H11  1  0.80333  0.23917  0.31721  1
 H  H12  1  0.25412  0.20990  0.07505  1
 H  H13  1  0.23124  0.31574  0.23531  1
 H  H14  1  0.53472  0.21068  0.22221  1
 O  O1  1  0.19824  0.80392  0.62547  1
 O  O2  1  0.69824  0.12547  0.30392  1
 O  O3  1  0.50139  0.86531  0.86045  1
 O  O4  1  0.00139  0.36045  0.36531  1
 O  O5  1  0.83428  0.62276  0.80712  1
 O  O6  1  0.33428  0.30712  0.12276  1
