CIF file written using JARVIS-Tools package.
data_AlH16C10ClO4
_symmetry_space_group_name_H-M  'P1'
_cell_length_a       4.6751
_cell_length_b       6.76795
_cell_length_c       10.0896
_cell_angle_alpha    72.822
_cell_angle_beta     79.8863
_cell_angle_gamma    87.6821

_symmetry_Int_Tables_number  1
_chemical_formula_structural  AlH16C10ClO4
_chemical_formula_sum  AlH6C0ClO4
_cell_volume  300.2418734725896
_cell_formula_units_Z  1
loop_
  _symmetry_equiv_pos_site_id
 _symmetry_equiv_pos_as_xyz
 1  'x, y, z'
loop_
 _atom_site_type_symbol
 _atom_site_label
 _atom_site_symmetry_multiplicity
 _atom_site_fract_x
 _atom_site_fract_y
 _atom_site_fract_z
 _atom_site_fract_occupancy
 Al  Al1  1  0.15965  0.72505  0.96804  1
 C  C1  1  0.22318  0.42506  0.66553  1
 C  C2  1  0.67358  0.97739  0.94730  1
 C  C3  1  0.32468  0.56516  0.74038  1
 C  C4  1  0.36136  0.18575  0.51212  1
 C  C5  1  0.47011  0.33139  0.58360  1
 C  C6  1  0.39000  0.01347  0.24134  1
 C  C7  1  0.52000  0.92135  0.37556  1
 C  C8  1  0.61250  0.07741  0.44356  1
 C  C9  1  0.59273  0.16850  0.12366  1
 C  C10  1  0.55259  0.17242  0.97305  1
 Cl  Cl1  1  0.01588  0.56079  0.18312  1
 H  H1  1  0.71029  0.82827  0.35035  1
 H  H2  1  0.55771  0.32642  0.13213  1
 H  H3  1  0.82216  0.13383  0.13305  1
 H  H4  1  0.07828  0.51815  0.59535  1
 H  H5  1  0.32232  0.18727  0.96248  1
 H  H6  1  0.74019  0.99470  0.52496  1
 H  H7  1  0.75933  0.19576  0.36499  1
 H  H8  1  0.36047  0.81161  0.45326  1
 H  H9  1  0.21276  0.06730  0.59074  1
 H  H10  1  0.18215  0.08935  0.26533  1
 H  H11  1  0.33542  0.88291  0.20543  1
 H  H12  1  0.67856  0.30409  0.89629  1
 H  H13  1  0.08303  0.30258  0.74332  1
 H  H14  1  0.61473  0.24465  0.65624  1
 H  H15  1  0.60630  0.45584  0.50467  1
 H  H16  1  0.23050  0.27413  0.43346  1
 O  O1  1  0.95153  0.95994  0.92809  1
 O  O2  1  0.51789  0.82374  0.95330  1
 O  O3  1  0.55618  0.66123  0.70173  1
 O  O4  1  0.13734  0.57493  0.85583  1
