CIF file written using JARVIS-Tools package.
data_SrZnF4
_symmetry_space_group_name_H-M  'I4_1/a'
_cell_length_a       5.49195
_cell_length_b       5.49196
_cell_length_c       7.03895
_cell_angle_alpha    112.962
_cell_angle_beta     112.962
_cell_angle_gamma    90

_symmetry_Int_Tables_number  88
_chemical_formula_structural  SrZnF4
_chemical_formula_sum  Sr2Zn2F8
_cell_volume  177.07209711579188
_cell_formula_units_Z  2
loop_
  _symmetry_equiv_pos_site_id
 _symmetry_equiv_pos_as_xyz
 1  'x, y, z'
loop_
 _atom_site_type_symbol
 _atom_site_label
 _atom_site_symmetry_multiplicity
 _atom_site_fract_x
 _atom_site_fract_y
 _atom_site_fract_z
 _atom_site_fract_occupancy
 F  F1  1  0.29601  0.45352  0.07986  1
 F  F2  1  0.62634  0.79601  0.57986  1
 F  F3  1  0.95352  0.28386  0.57986  1
 F  F4  1  0.78386  0.12634  0.07986  1
 F  F5  1  0.21614  0.87366  0.92014  1
 F  F6  1  0.04648  0.71614  0.42014  1
 F  F7  1  0.37366  0.20399  0.42014  1
 F  F8  1  0.70399  0.54648  0.92014  1
 Sr  Sr1  1  0.37500  0.12500  0.75000  1
 Sr  Sr2  1  0.62500  0.87500  0.25000  1
 Zn  Zn1  1  0.87500  0.62500  0.75000  1
 Zn  Zn2  1  0.12500  0.37500  0.25000  1
