CIF file written using JARVIS-Tools package.
data_Bi4Te3S3
_symmetry_space_group_name_H-M  'R3m'
_cell_length_a       19.9426
_cell_length_b       19.9426
_cell_length_c       19.9426
_cell_angle_alpha    12.2001
_cell_angle_beta     12.2001
_cell_angle_gamma    12.2001

_symmetry_Int_Tables_number  160
_chemical_formula_structural  Bi4Te3S3
_chemical_formula_sum  Bi4Te3S3
_cell_volume  307.909405420256
_cell_formula_units_Z  1
loop_
  _symmetry_equiv_pos_site_id
 _symmetry_equiv_pos_as_xyz
 1  'x, y, z'
loop_
 _atom_site_type_symbol
 _atom_site_label
 _atom_site_symmetry_multiplicity
 _atom_site_fract_x
 _atom_site_fract_y
 _atom_site_fract_z
 _atom_site_fract_occupancy
 Bi  Bi1  1  0.80093  0.80093  0.80093  1
 Bi  Bi2  1  0.30725  0.30725  0.30725  1
 Bi  Bi3  1  0.70054  0.70054  0.70054  1
 Bi  Bi4  1  0.19400  0.19400  0.19400  1
 S  S1  1  0.00409  0.00409  0.00409  1
 S  S2  1  0.49800  0.49800  0.49800  1
 S  S3  1  0.39015  0.39015  0.39015  1
 Te  Te1  1  0.89162  0.89162  0.89162  1
 Te  Te2  1  0.10368  0.10368  0.10368  1
 Te  Te3  1  0.60975  0.60975  0.60975  1
