CIF file written using JARVIS-Tools package.
data_ErSi2Ir2
_symmetry_space_group_name_H-M  'I4/mmm'
_cell_length_a       4.08709
_cell_length_b       4.08708
_cell_length_c       5.73309
_cell_angle_alpha    110.882
_cell_angle_beta     110.882
_cell_angle_gamma    90

_symmetry_Int_Tables_number  139
_chemical_formula_structural  ErSi2Ir2
_chemical_formula_sum  ErSi2Ir2
_cell_volume  82.7090770201725
_cell_formula_units_Z  1
loop_
  _symmetry_equiv_pos_site_id
 _symmetry_equiv_pos_as_xyz
 1  'x, y, z'
loop_
 _atom_site_type_symbol
 _atom_site_label
 _atom_site_symmetry_multiplicity
 _atom_site_fract_x
 _atom_site_fract_y
 _atom_site_fract_z
 _atom_site_fract_occupancy
 Er  Er1  1  0.00000  0.00000  0.00000  1
 Ir  Ir1  1  0.25000  0.75000  0.50000  1
 Ir  Ir2  1  0.75000  0.25000  0.50000  1
 Si  Si1  1  0.62043  0.62043  0.24085  1
 Si  Si2  1  0.37957  0.37957  0.75915  1
