CIF file written using JARVIS-Tools package.
data_H5C7NO2
_symmetry_space_group_name_H-M  'P1'
_cell_length_a       3.55555
_cell_length_b       8.18698
_cell_length_c       10.2865
_cell_angle_alpha    68.9443
_cell_angle_beta     86.3418
_cell_angle_gamma    90.5953

_symmetry_Int_Tables_number  1
_chemical_formula_structural  H5C7NO2
_chemical_formula_sum  H0C4N2O4
_cell_volume  278.69077391254154
_cell_formula_units_Z  2
loop_
  _symmetry_equiv_pos_site_id
 _symmetry_equiv_pos_as_xyz
 1  'x, y, z'
loop_
 _atom_site_type_symbol
 _atom_site_label
 _atom_site_symmetry_multiplicity
 _atom_site_fract_x
 _atom_site_fract_y
 _atom_site_fract_z
 _atom_site_fract_occupancy
 C  C1  1  0.81785  0.81888  0.52804  1
 C  C2  1  0.02743  0.79615  0.30817  1
 C  C3  1  0.13853  0.06795  0.34702  1
 C  C4  1  0.13853  0.56795  0.84702  1
 C  C5  1  0.17182  0.96842  0.26067  1
 C  C6  1  0.17182  0.46842  0.76067  1
 C  C7  1  0.96550  0.49035  0.98102  1
 C  C8  1  0.96549  0.99035  0.48102  1
 C  C9  1  0.02743  0.29615  0.80817  1
 C  C10  1  0.06992  0.71162  0.09360  1
 C  C11  1  0.06991  0.21163  0.59360  1
 C  C12  1  0.84657  0.22250  0.94256  1
 C  C13  1  0.84658  0.72250  0.44256  1
 C  C14  1  0.81785  0.31888  0.02804  1
 H  H1  1  0.68304  0.76391  0.63307  1
 H  H2  1  0.30782  0.02577  0.15608  1
 H  H3  1  0.68305  0.26391  0.13307  1
 H  H4  1  0.95938  0.05627  0.79319  1
 H  H5  1  0.95940  0.55627  0.29319  1
 H  H6  1  0.73001  0.58881  0.47824  1
 H  H7  1  0.30782  0.52577  0.65608  1
 H  H8  1  0.24861  0.20251  0.31071  1
 H  H9  1  0.24862  0.70251  0.81072  1
 H  H10  1  0.73001  0.08881  0.97824  1
 N  N1  1  0.04521  0.18154  0.73339  1
 N  N2  1  0.04523  0.68154  0.23339  1
 O  O1  1  0.19935  0.34106  0.49628  1
 O  O2  1  0.90579  0.06329  0.58367  1
 O  O3  1  0.90581  0.56329  0.08367  1
 O  O4  1  0.19935  0.84105  0.99628  1
