CIF file written using JARVIS-Tools package.
data_Co3ReB4
_symmetry_space_group_name_H-M  'Pm'
_cell_length_a       3.03395
_cell_length_b       4.10486
_cell_length_c       5.46534
_cell_angle_alpha    88.6704
_cell_angle_beta     90
_cell_angle_gamma    90

_symmetry_Int_Tables_number  6
_chemical_formula_structural  Co3ReB4
_chemical_formula_sum  Co3ReB4
_cell_volume  68.04682037428528
_cell_formula_units_Z  1
loop_
  _symmetry_equiv_pos_site_id
 _symmetry_equiv_pos_as_xyz
 1  'x, y, z'
loop_
 _atom_site_type_symbol
 _atom_site_label
 _atom_site_symmetry_multiplicity
 _atom_site_fract_x
 _atom_site_fract_y
 _atom_site_fract_z
 _atom_site_fract_occupancy
 B  B1  1  0.00000  0.12717  0.48102  1
 B  B2  1  0.00000  0.36771  0.95612  1
 B  B3  1  0.50000  0.90144  0.54738  1
 B  B4  1  0.50000  0.60586  0.01500  1
 Co  Co1  1  0.00000  0.87205  0.82722  1
 Co  Co2  1  0.50000  0.37447  0.68150  1
 Co  Co3  1  0.50000  0.12363  0.17097  1
 Re  Re1  1  0.00000  0.62767  0.32079  1
