CIF file written using JARVIS-Tools package.
data_HfUTa2C4
_symmetry_space_group_name_H-M  'R3m'
_cell_length_a       11.0976
_cell_length_b       11.0976
_cell_length_c       11.0976
_cell_angle_alpha    16.7563
_cell_angle_beta     16.7563
_cell_angle_gamma    16.7564

_symmetry_Int_Tables_number  160
_chemical_formula_structural  HfUTa2C4
_chemical_formula_sum  HfUTa2C4
_cell_volume  99.08334185085684
_cell_formula_units_Z  1
loop_
  _symmetry_equiv_pos_site_id
 _symmetry_equiv_pos_as_xyz
 1  'x, y, z'
loop_
 _atom_site_type_symbol
 _atom_site_label
 _atom_site_symmetry_multiplicity
 _atom_site_fract_x
 _atom_site_fract_y
 _atom_site_fract_z
 _atom_site_fract_occupancy
 C  C1  1  0.87685  0.87685  0.87685  1
 C  C2  1  0.62035  0.62035  0.62035  1
 C  C3  1  0.37025  0.37025  0.37025  1
 C  C4  1  0.13299  0.13299  0.13299  1
 Hf  Hf1  1  0.99566  0.99566  0.99566  1
 Ta  Ta1  1  0.50399  0.50399  0.50399  1
 Ta  Ta2  1  0.24903  0.24903  0.24903  1
 U  U1  1  0.75088  0.75088  0.75088  1
