CIF file written using JARVIS-Tools package.
data_Ti3Te2Se2
_symmetry_space_group_name_H-M  'C2/m'
_cell_length_a       7.13436
_cell_length_b       7.13436
_cell_length_c       6.78449
_cell_angle_alpha    63.9186
_cell_angle_beta     63.9186
_cell_angle_gamma    30.3372

_symmetry_Int_Tables_number  12
_chemical_formula_structural  Ti3Te2Se2
_chemical_formula_sum  Ti3Te2Se2
_cell_volume  155.2725241289239
_cell_formula_units_Z  1
loop_
  _symmetry_equiv_pos_site_id
 _symmetry_equiv_pos_as_xyz
 1  'x, y, z'
loop_
 _atom_site_type_symbol
 _atom_site_label
 _atom_site_symmetry_multiplicity
 _atom_site_fract_x
 _atom_site_fract_y
 _atom_site_fract_z
 _atom_site_fract_occupancy
 Se  Se1  1  0.11403  0.11403  0.21573  1
 Se  Se2  1  0.88597  0.88597  0.78427  1
 Te  Te1  1  0.36755  0.36755  0.31591  1
 Te  Te2  1  0.63245  0.63245  0.68409  1
 Ti  Ti1  1  0.25272  0.25272  0.80980  1
 Ti  Ti2  1  0.74728  0.74728  0.19020  1
 Ti  Ti3  1  0.00000  0.00000  0.00000  1
