CIF file written using JARVIS-Tools package.
data_Hf2Ge
_symmetry_space_group_name_H-M  'I4/mcm'
_cell_length_a       5.30866
_cell_length_b       5.3688
_cell_length_c       5.3688
_cell_angle_alpha    75.8519
_cell_angle_beta     60.3699
_cell_angle_gamma    60.3699

_symmetry_Int_Tables_number  140
_chemical_formula_structural  Hf2Ge
_chemical_formula_sum  Hf4Ge2
_cell_volume  115.61505922650976
_cell_formula_units_Z  2
loop_
  _symmetry_equiv_pos_site_id
 _symmetry_equiv_pos_as_xyz
 1  'x, y, z'
loop_
 _atom_site_type_symbol
 _atom_site_label
 _atom_site_symmetry_multiplicity
 _atom_site_fract_x
 _atom_site_fract_y
 _atom_site_fract_z
 _atom_site_fract_occupancy
 Ge  Ge1  1  0.75000  0.00000  0.00000  1
 Ge  Ge2  1  0.25000  0.00000  0.00000  1
 Hf  Hf1  1  0.65496  0.19007  0.50000  1
 Hf  Hf2  1  0.84504  0.50000  0.80993  1
 Hf  Hf3  1  0.34504  0.80993  0.50000  1
 Hf  Hf4  1  0.15496  0.50000  0.19007  1
