CIF file written using JARVIS-Tools package.
data_Th2Si3Os
_symmetry_space_group_name_H-M  'Imm2'
_cell_length_a       7.81333
_cell_length_b       7.81332
_cell_length_c       7.81332
_cell_angle_alpha    149.528
_cell_angle_beta     148.425
_cell_angle_gamma    44.4523

_symmetry_Int_Tables_number  44
_chemical_formula_structural  Th2Si3Os
_chemical_formula_sum  Th2Si3Os
_cell_volume  126.28009886181837
_cell_formula_units_Z  1
loop_
  _symmetry_equiv_pos_site_id
 _symmetry_equiv_pos_as_xyz
 1  'x, y, z'
loop_
 _atom_site_type_symbol
 _atom_site_label
 _atom_site_symmetry_multiplicity
 _atom_site_fract_x
 _atom_site_fract_y
 _atom_site_fract_z
 _atom_site_fract_occupancy
 Os  Os1  1  0.16540  0.66540  0.50000  1
 Si  Si1  1  0.58392  0.58392  0.00000  1
 Si  Si2  1  0.33011  0.83011  0.50000  1
 Si  Si3  1  0.41787  0.41787  -0.00000  1
 Th  Th1  1  0.74959  0.24959  0.50000  1
 Th  Th2  1  0.00310  0.00310  -0.00000  1
