CIF file written using JARVIS-Tools package.
data_H12C18O
_symmetry_space_group_name_H-M  'Pm'
_cell_length_a       3.69184
_cell_length_b       5.82938
_cell_length_c       13.5611
_cell_angle_alpha    89.9323
_cell_angle_beta     89.9885
_cell_angle_gamma    79.1663

_symmetry_Int_Tables_number  6
_chemical_formula_structural  H12C18O
_chemical_formula_sum  H2C8O
_cell_volume  286.64900932817267
_cell_formula_units_Z  1
loop_
  _symmetry_equiv_pos_site_id
 _symmetry_equiv_pos_as_xyz
 1  'x, y, z'
loop_
 _atom_site_type_symbol
 _atom_site_label
 _atom_site_symmetry_multiplicity
 _atom_site_fract_x
 _atom_site_fract_y
 _atom_site_fract_z
 _atom_site_fract_occupancy
 C  C1  1  0.27446  0.32369  0.48071  1
 C  C2  1  0.38632  0.50466  0.42699  1
 C  C3  1  0.74629  0.24764  0.88065  1
 C  C4  1  0.62708  0.26774  0.28048  1
 C  C5  1  0.45790  0.48437  0.31989  1
 C  C6  1  0.38626  0.50468  0.63665  1
 C  C7  1  0.69750  0.44451  0.94111  1
 C  C8  1  0.51552  0.66011  0.90511  1
 C  C9  1  0.69752  0.44453  0.12255  1
 C  C10  1  0.45781  0.48437  0.74377  1
 C  C11  1  0.47068  0.69399  0.58304  1
 C  C12  1  0.39745  0.67815  0.25627  1
 C  C13  1  0.27444  0.32371  0.58313  1
 C  C14  1  0.47071  0.69397  0.48040  1
 C  C15  1  0.51570  0.66015  0.15836  1
 C  C16  1  0.39724  0.67813  0.80721  1
 C  C17  1  0.74623  0.24764  0.18319  1
 C  C18  1  0.62709  0.26775  0.78336  1
 H  H1  1  0.68126  0.11412  0.73561  1
 H  H2  1  0.89105  0.08120  0.15370  1
 H  H3  1  0.18496  0.18071  0.44138  1
 H  H4  1  0.47542  0.81502  0.95196  1
 H  H5  1  0.25984  0.84812  0.28422  1
 H  H6  1  0.89124  0.08121  0.91028  1
 H  H7  1  0.25949  0.84808  0.77911  1
 H  H8  1  0.47569  0.81509  0.11138  1
 H  H9  1  0.57126  0.83355  0.44134  1
 H  H10  1  0.68125  0.11410  0.32838  1
 H  H11  1  0.18492  0.18074  0.62261  1
 H  H12  1  0.57120  0.83359  0.62194  1
 O  O1  1  0.87353  0.41535  0.03183  1
