CIF file written using JARVIS-Tools package.
data_Te2W
_symmetry_space_group_name_H-M  'P6_3/mmc'
_cell_length_a       3.56994
_cell_length_b       3.57002
_cell_length_c       14.4827
_cell_angle_alpha    90.0014
_cell_angle_beta     90
_cell_angle_gamma    119.999

_symmetry_Int_Tables_number  194
_chemical_formula_structural  Te2W
_chemical_formula_sum  Te4W2
_cell_volume  159.8510059555782
_cell_formula_units_Z  2
loop_
  _symmetry_equiv_pos_site_id
 _symmetry_equiv_pos_as_xyz
 1  'x, y, z'
loop_
 _atom_site_type_symbol
 _atom_site_label
 _atom_site_symmetry_multiplicity
 _atom_site_fract_x
 _atom_site_fract_y
 _atom_site_fract_z
 _atom_site_fract_occupancy
 Te  Te1  1  0.33350  0.66701  0.67637  1
 Te  Te2  1  0.66650  0.33299  0.92550  1
 Te  Te3  1  0.66651  0.33303  0.17656  1
 Te  Te4  1  0.33349  0.66697  0.42531  1
 W  W1  1  0.33317  0.66635  0.05103  1
 W  W2  1  0.66683  0.33365  0.55084  1
