CIF file written using JARVIS-Tools package.
data_Te2W
_symmetry_space_group_name_H-M  'P-6m2'
_cell_length_a       3.56981
_cell_length_b       3.56968
_cell_length_c       22.1188
_cell_angle_alpha    90
_cell_angle_beta     90
_cell_angle_gamma    120.001

_symmetry_Int_Tables_number  187
_chemical_formula_structural  Te2W
_chemical_formula_sum  Te6W3
_cell_volume  244.0969407126842
_cell_formula_units_Z  3
loop_
  _symmetry_equiv_pos_site_id
 _symmetry_equiv_pos_as_xyz
 1  'x, y, z'
loop_
 _atom_site_type_symbol
 _atom_site_label
 _atom_site_symmetry_multiplicity
 _atom_site_fract_x
 _atom_site_fract_y
 _atom_site_fract_z
 _atom_site_fract_occupancy
 Te  Te1  1  0.33311  0.66622  0.42917  1
 Te  Te2  1  0.66679  0.33358  -0.05832  1
 Te  Te3  1  0.66675  0.33349  0.58792  1
 Te  Te4  1  0.66675  0.33349  0.10605  1
 Te  Te5  1  0.66679  0.33358  0.75229  1
 Te  Te6  1  0.33311  0.66622  0.26480  1
 W  W1  1  0.33343  0.66686  0.02385  1
 W  W2  1  0.33343  0.66686  0.67012  1
 W  W3  1  0.66645  0.33289  0.34698  1
