CIF file written using JARVIS-Tools package.
data_BeH2O2
_symmetry_space_group_name_H-M  'P2_12_12_1'
_cell_length_a       4.48747
_cell_length_b       4.62818
_cell_length_c       7.01442
_cell_angle_alpha    90
_cell_angle_beta     90
_cell_angle_gamma    90

_symmetry_Int_Tables_number  19
_chemical_formula_structural  BeH2O2
_chemical_formula_sum  Be4H8O8
_cell_volume  145.681454368655
_cell_formula_units_Z  4
loop_
  _symmetry_equiv_pos_site_id
 _symmetry_equiv_pos_as_xyz
 1  'x, y, z'
loop_
 _atom_site_type_symbol
 _atom_site_label
 _atom_site_symmetry_multiplicity
 _atom_site_fract_x
 _atom_site_fract_y
 _atom_site_fract_z
 _atom_site_fract_occupancy
 Be  Be1  1  0.96066  0.19634  0.87338  1
 Be  Be2  1  0.53934  0.80366  0.37338  1
 Be  Be3  1  0.46066  0.30366  0.12662  1
 Be  Be4  1  0.03934  0.69634  0.62662  1
 H  H1  1  0.27213  0.10078  0.57502  1
 H  H2  1  0.72787  0.60078  0.92498  1
 H  H3  1  0.22787  0.89922  0.07502  1
 H  H4  1  0.77213  0.39922  0.42498  1
 H  H5  1  0.63595  0.91796  0.71420  1
 H  H6  1  0.13595  0.58204  0.28580  1
 H  H7  1  0.36405  0.41796  0.78580  1
 H  H8  1  0.86405  0.08204  0.21420  1
 O  O1  1  0.66310  0.09842  0.27263  1
 O  O2  1  0.33690  0.59842  0.22737  1
 O  O3  1  0.82139  0.60536  0.44735  1
 O  O4  1  0.67861  0.39464  0.94735  1
 O  O5  1  0.32139  0.89464  0.55265  1
 O  O6  1  0.17861  0.10536  0.05265  1
 O  O7  1  0.83690  0.90158  0.77263  1
 O  O8  1  0.16310  0.40158  0.72737  1
