CIF file written using JARVIS-Tools package.
data_ScTaN
_symmetry_space_group_name_H-M  'P-3m1'
_cell_length_a       3.08169
_cell_length_b       3.08169
_cell_length_c       10.3044
_cell_angle_alpha    90
_cell_angle_beta     90
_cell_angle_gamma    120

_symmetry_Int_Tables_number  164
_chemical_formula_structural  ScTaN
_chemical_formula_sum  Sc2Ta2N2
_cell_volume  84.74847849043057
_cell_formula_units_Z  2
loop_
  _symmetry_equiv_pos_site_id
 _symmetry_equiv_pos_as_xyz
 1  'x, y, z'
loop_
 _atom_site_type_symbol
 _atom_site_label
 _atom_site_symmetry_multiplicity
 _atom_site_fract_x
 _atom_site_fract_y
 _atom_site_fract_z
 _atom_site_fract_occupancy
 N  N1  1  0.66667  0.33333  0.37026  1
 N  N2  1  0.33333  0.66667  0.62974  1
 Sc  Sc1  1  0.00000  0.00000  0.50000  1
 Sc  Sc2  1  0.00000  0.00000  0.00000  1
 Ta  Ta1  1  0.66667  0.33333  0.75564  1
 Ta  Ta2  1  0.33333  0.66667  0.24436  1
