CIF file written using JARVIS-Tools package.
data_Sb2AsS2
_symmetry_space_group_name_H-M  'C2/m'
_cell_length_a       5.8264
_cell_length_b       5.82641
_cell_length_c       12.6005
_cell_angle_alpha    66.9587
_cell_angle_beta     66.9587
_cell_angle_gamma    40.2067

_symmetry_Int_Tables_number  12
_chemical_formula_structural  Sb2AsS2
_chemical_formula_sum  Sb4As2S4
_cell_volume  251.006298139755
_cell_formula_units_Z  2
loop_
  _symmetry_equiv_pos_site_id
 _symmetry_equiv_pos_as_xyz
 1  'x, y, z'
loop_
 _atom_site_type_symbol
 _atom_site_label
 _atom_site_symmetry_multiplicity
 _atom_site_fract_x
 _atom_site_fract_y
 _atom_site_fract_z
 _atom_site_fract_occupancy
 As  As1  1  0.11775  0.11775  0.48943  1
 As  As2  1  0.88225  0.88225  0.51057  1
 S  S1  1  0.67374  0.67374  0.92399  1
 S  S2  1  0.32626  0.32626  0.07601  1
 S  S3  1  0.53074  0.53074  0.26501  1
 S  S4  1  0.46926  0.46926  0.73499  1
 Sb  Sb1  1  0.27770  0.27770  0.67110  1
 Sb  Sb2  1  0.72230  0.72230  0.32890  1
 Sb  Sb3  1  0.91083  0.91083  0.89784  1
 Sb  Sb4  1  0.08917  0.08917  0.10216  1
