CIF file written using JARVIS-Tools package.
data_Nd2MnFe3Ge4
_symmetry_space_group_name_H-M  'P-4m2'
_cell_length_a       4.06119
_cell_length_b       4.06119
_cell_length_c       10.3891
_cell_angle_alpha    90
_cell_angle_beta     90
_cell_angle_gamma    90

_symmetry_Int_Tables_number  115
_chemical_formula_structural  Nd2MnFe3Ge4
_chemical_formula_sum  Nd2MnFe3Ge4
_cell_volume  171.35088179674193
_cell_formula_units_Z  1
loop_
  _symmetry_equiv_pos_site_id
 _symmetry_equiv_pos_as_xyz
 1  'x, y, z'
loop_
 _atom_site_type_symbol
 _atom_site_label
 _atom_site_symmetry_multiplicity
 _atom_site_fract_x
 _atom_site_fract_y
 _atom_site_fract_z
 _atom_site_fract_occupancy
 Fe  Fe1  1  0.50000  0.00000  0.75000  1
 Fe  Fe2  1  0.50000  0.00000  0.25000  1
 Fe  Fe3  1  0.00000  0.50000  0.75000  1
 Ge  Ge1  1  0.50000  0.50000  0.12511  1
 Ge  Ge2  1  0.00000  0.00000  0.63762  1
 Ge  Ge3  1  0.00000  0.00000  0.37489  1
 Ge  Ge4  1  0.50000  0.50000  0.86238  1
 Mn  Mn1  1  0.00000  0.50000  0.25000  1
 Nd  Nd1  1  0.00000  0.00000  0.99330  1
 Nd  Nd2  1  0.50000  0.50000  0.50670  1
