CIF file written using JARVIS-Tools package.
data_AlCrGe
_symmetry_space_group_name_H-M  'F222'
_cell_length_a       5.95303
_cell_length_b       4.91586
_cell_length_c       4.7637
_cell_angle_alpha    75.8871
_cell_angle_beta     53.2114
_cell_angle_gamma    50.9014

_symmetry_Int_Tables_number  22
_chemical_formula_structural  AlCrGe
_chemical_formula_sum  Al2Cr2Ge2
_cell_volume  84.60953843627301
_cell_formula_units_Z  2
loop_
  _symmetry_equiv_pos_site_id
 _symmetry_equiv_pos_as_xyz
 1  'x, y, z'
loop_
 _atom_site_type_symbol
 _atom_site_label
 _atom_site_symmetry_multiplicity
 _atom_site_fract_x
 _atom_site_fract_y
 _atom_site_fract_z
 _atom_site_fract_occupancy
 Al  Al1  1  0.07707  0.42293  0.07707  1
 Al  Al2  1  0.42293  0.07707  0.42293  1
 Cr  Cr1  1  0.75000  0.75000  0.75000  1
 Cr  Cr2  1  0.00000  0.00000  0.00000  1
 Ge  Ge1  1  0.66999  0.33001  0.66999  1
 Ge  Ge2  1  0.33001  0.66999  0.33001  1
