CIF file written using JARVIS-Tools package.
data_LiFeF4
_symmetry_space_group_name_H-M  'P2/c'
_cell_length_a       4.88152
_cell_length_b       4.84284
_cell_length_c       5.59626
_cell_angle_alpha    90
_cell_angle_beta     90.6111
_cell_angle_gamma    90

_symmetry_Int_Tables_number  13
_chemical_formula_structural  LiFeF4
_chemical_formula_sum  Li2Fe2F8
_cell_volume  132.29054511390845
_cell_formula_units_Z  2
loop_
  _symmetry_equiv_pos_site_id
 _symmetry_equiv_pos_as_xyz
 1  'x, y, z'
loop_
 _atom_site_type_symbol
 _atom_site_label
 _atom_site_symmetry_multiplicity
 _atom_site_fract_x
 _atom_site_fract_y
 _atom_site_fract_z
 _atom_site_fract_occupancy
 F  F1  1  0.24143  -0.00009  0.10397  1
 F  F2  1  0.24143  0.50218  0.39570  1
 F  F3  1  0.24143  0.00009  0.60397  1
 F  F4  1  0.24143  0.49782  0.89570  1
 F  F5  1  0.75857  0.50218  0.10430  1
 F  F6  1  0.75857  -0.00009  0.39603  1
 F  F7  1  0.75857  0.49782  0.60430  1
 F  F8  1  0.75857  0.00009  0.89603  1
 Fe  Fe1  1  -0.00000  0.75272  0.25000  1
 Fe  Fe2  1  -0.00000  0.24728  0.75000  1
 Li  Li1  1  0.50000  0.25337  0.25000  1
 Li  Li2  1  0.50000  0.74663  0.75000  1
