CIF file written using JARVIS-Tools package.
data_ZnCo3
_symmetry_space_group_name_H-M  'I4/mmm'
_cell_length_a       4.36086
_cell_length_b       4.36086
_cell_length_c       4.36085
_cell_angle_alpha    131.519
_cell_angle_beta     131.519
_cell_angle_gamma    70.9897

_symmetry_Int_Tables_number  139
_chemical_formula_structural  ZnCo3
_chemical_formula_sum  ZnCo3
_cell_volume  45.525823925220685
_cell_formula_units_Z  1
loop_
  _symmetry_equiv_pos_site_id
 _symmetry_equiv_pos_as_xyz
 1  'x, y, z'
loop_
 _atom_site_type_symbol
 _atom_site_label
 _atom_site_symmetry_multiplicity
 _atom_site_fract_x
 _atom_site_fract_y
 _atom_site_fract_z
 _atom_site_fract_occupancy
 Co  Co1  1  0.75000  0.25000  0.50000  1
 Co  Co2  1  0.25000  0.75000  0.50000  1
 Co  Co3  1  0.50000  0.50000  0.00000  1
 Zn  Zn1  1  0.00000  0.00000  0.00000  1
