CIF file written using JARVIS-Tools package.
data_H3C4O
_symmetry_space_group_name_H-M  'P1'
_cell_length_a       3.77405
_cell_length_b       5.70065
_cell_length_c       7.32511
_cell_angle_alpha    68.8269
_cell_angle_beta     84.1617
_cell_angle_gamma    79.1202

_symmetry_Int_Tables_number  1
_chemical_formula_structural  H3C4O
_chemical_formula_sum  H6C8O2
_cell_volume  144.2192546576804
_cell_formula_units_Z  2
loop_
  _symmetry_equiv_pos_site_id
 _symmetry_equiv_pos_as_xyz
 1  'x, y, z'
loop_
 _atom_site_type_symbol
 _atom_site_label
 _atom_site_symmetry_multiplicity
 _atom_site_fract_x
 _atom_site_fract_y
 _atom_site_fract_z
 _atom_site_fract_occupancy
 C  C1  1  0.78054  0.58639  0.98136  1
 C  C2  1  0.13091  0.20880  0.19962  1
 C  C3  1  0.85186  0.01226  0.73553  1
 C  C4  1  0.92938  0.16655  0.54511  1
 C  C5  1  0.95525  0.74740  0.79573  1
 C  C6  1  0.11644  0.05792  0.41196  1
 C  C7  1  0.16300  0.64091  0.66589  1
 C  C8  1  0.24304  0.79422  0.47544  1
 H  H1  1  0.24430  0.43485  0.71310  1
 H  H2  1  0.67962  0.43494  0.95343  1
 H  H3  1  0.55608  0.70686  0.02807  1
 H  H4  1  0.83187  0.37051  0.49568  1
 H  H5  1  0.69194  0.09400  0.83676  1
 H  H6  1  0.38560  0.71129  0.37039  1
 O  O1  1  -0.00588  0.46083  0.15928  1
 O  O2  1  0.23068  0.11729  0.07099  1
