CIF file written using JARVIS-Tools package.
data_P2Pd
_symmetry_space_group_name_H-M  'C2/c'
_cell_length_a       4.55267
_cell_length_b       4.55267
_cell_length_c       5.85513
_cell_angle_alpha    106.693
_cell_angle_beta     111.745
_cell_angle_gamma    98.8649

_symmetry_Int_Tables_number  15
_chemical_formula_structural  P2Pd
_chemical_formula_sum  P4Pd2
_cell_volume  103.23909897123394
_cell_formula_units_Z  2
loop_
  _symmetry_equiv_pos_site_id
 _symmetry_equiv_pos_as_xyz
 1  'x, y, z'
loop_
 _atom_site_type_symbol
 _atom_site_label
 _atom_site_symmetry_multiplicity
 _atom_site_fract_x
 _atom_site_fract_y
 _atom_site_fract_z
 _atom_site_fract_occupancy
 P  P1  1  0.02326  0.06418  0.33456  1
 P  P2  1  0.22962  0.68870  0.16544  1
 P  P3  1  0.77038  0.31130  0.83456  1
 P  P4  1  0.97674  0.93582  0.66544  1
 Pd  Pd1  1  0.50000  0.50000  0.50000  1
 Pd  Pd2  1  0.50000  -0.00000  -0.00000  1
