CIF file written using JARVIS-Tools package.
data_MoPt2
_symmetry_space_group_name_H-M  'Immm'
_cell_length_a       2.78342
_cell_length_b       3.97722
_cell_length_c       4.83953
_cell_angle_alpha    114.262
_cell_angle_beta     106.713
_cell_angle_gamma    90

_symmetry_Int_Tables_number  71
_chemical_formula_structural  MoPt2
_chemical_formula_sum  MoPt2
_cell_volume  46.34944558254941
_cell_formula_units_Z  1
loop_
  _symmetry_equiv_pos_site_id
 _symmetry_equiv_pos_as_xyz
 1  'x, y, z'
loop_
 _atom_site_type_symbol
 _atom_site_label
 _atom_site_symmetry_multiplicity
 _atom_site_fract_x
 _atom_site_fract_y
 _atom_site_fract_z
 _atom_site_fract_occupancy
 Mo  Mo1  1  0.00000  0.00000  0.00000  1
 Pt  Pt1  1  0.66309  0.66309  0.32619  1
 Pt  Pt2  1  0.33691  0.33691  0.67381  1
