CIF file written using JARVIS-Tools package.
data_H8C13O2
_symmetry_space_group_name_H-M  'P1'
_cell_length_a       3.72304
_cell_length_b       8.61245
_cell_length_c       14.2125
_cell_angle_alpha    98.2471
_cell_angle_beta     95.3164
_cell_angle_gamma    97.6604

_symmetry_Int_Tables_number  1
_chemical_formula_structural  H8C13O2
_chemical_formula_sum  H6C26O4
_cell_volume  444.06577802525914
_cell_formula_units_Z  2
loop_
  _symmetry_equiv_pos_site_id
 _symmetry_equiv_pos_as_xyz
 1  'x, y, z'
loop_
 _atom_site_type_symbol
 _atom_site_label
 _atom_site_symmetry_multiplicity
 _atom_site_fract_x
 _atom_site_fract_y
 _atom_site_fract_z
 _atom_site_fract_occupancy
 C  C1  1  0.15027  0.75646  0.56686  1
 C  C2  1  0.22061  0.38553  0.83206  1
 C  C3  1  0.32323  0.23355  0.82621  1
 C  C4  1  0.72061  0.38553  0.33206  1
 C  C5  1  0.71720  0.47849  0.42027  1
 C  C6  1  0.21721  0.47849  0.92027  1
 C  C7  1  0.27712  0.91383  0.60431  1
 C  C8  1  0.77713  0.91383  0.10431  1
 C  C9  1  0.82323  0.23355  0.32621  1
 C  C10  1  0.65028  0.75646  0.06686  1
 C  C11  1  0.95950  0.66003  0.62299  1
 C  C12  1  0.42557  0.17654  0.91075  1
 C  C13  1  0.83204  0.42116  0.50355  1
 C  C14  1  0.33205  0.42116  0.00355  1
 C  C15  1  0.21909  0.97925  0.69720  1
 C  C16  1  0.71909  0.97925  0.19720  1
 C  C17  1  0.92557  0.17654  0.41075  1
 C  C18  1  0.90052  0.72225  0.71616  1
 C  C19  1  0.40052  0.72225  0.21616  1
 C  C20  1  0.93533  0.27086  0.49931  1
 C  C21  1  0.43533  0.27086  -0.00069  1
 C  C22  1  0.02690  0.88045  0.75236  1
 C  C23  1  0.52691  0.88045  0.25236  1
 C  C24  1  0.45951  0.66003  0.12299  1
 C  C25  1  0.35555  0.15008  0.72879  1
 C  C26  1  0.85555  0.15008  0.22879  1
 H  H1  1  0.93036  0.99028  0.06243  1
 H  H2  1  0.01540  0.06065  0.40783  1
 H  H3  1  0.63590  0.42754  0.26595  1
 H  H4  1  0.20197  0.70796  0.49534  1
 H  H5  1  0.70198  0.70796  0.99534  1
 H  H6  1  0.02813  0.23161  0.56534  1
 H  H7  1  0.52814  0.23161  0.06534  1
 H  H8  1  0.46979  0.92865  0.32363  1
 H  H9  1  0.96979  0.92865  0.82363  1
 H  H10  1  0.51540  0.06064  0.90783  1
 H  H11  1  0.74581  0.64481  0.75722  1
 H  H12  1  0.24582  0.64481  0.25722  1
 H  H13  1  0.62581  0.59389  0.42410  1
 H  H14  1  0.12581  0.59389  0.92410  1
 H  H15  1  0.43035  0.99028  0.56243  1
 H  H16  1  0.13590  0.42754  0.76595  1
 O  O1  1  0.82555  0.50271  0.59517  1
 O  O2  1  0.49761  0.23039  0.67227  1
 O  O3  1  0.32556  0.50271  0.09517  1
 O  O4  1  -0.00239  0.23039  0.17227  1
