CIF file written using JARVIS-Tools package.
data_Sn3Sb
_symmetry_space_group_name_H-M  'C222'
_cell_length_a       4.53521
_cell_length_b       4.53521
_cell_length_c       8.54654
_cell_angle_alpha    90
_cell_angle_beta     90
_cell_angle_gamma    138.748

_symmetry_Int_Tables_number  21
_chemical_formula_structural  Sn3Sb
_chemical_formula_sum  Sn3Sb
_cell_volume  115.90810290859174
_cell_formula_units_Z  1
loop_
  _symmetry_equiv_pos_site_id
 _symmetry_equiv_pos_as_xyz
 1  'x, y, z'
loop_
 _atom_site_type_symbol
 _atom_site_label
 _atom_site_symmetry_multiplicity
 _atom_site_fract_x
 _atom_site_fract_y
 _atom_site_fract_z
 _atom_site_fract_occupancy
 Sb  Sb1  1  0.50000  0.50000  0.00000  1
 Sn  Sn1  1  0.00000  0.00000  0.50000  1
 Sn  Sn2  1  0.00000  0.50000  0.74830  1
 Sn  Sn3  1  0.50000  0.00000  0.25170  1
