CIF file written using JARVIS-Tools package.
data_K5Sb4
_symmetry_space_group_name_H-M  'C2/m'
_cell_length_a       5.47103
_cell_length_b       6.72576
_cell_length_c       11.0141
_cell_angle_alpha    75.0517
_cell_angle_beta     75.6192
_cell_angle_gamma    66.0009

_symmetry_Int_Tables_number  12
_chemical_formula_structural  K5Sb4
_chemical_formula_sum  K5Sb4
_cell_volume  352.96216755669053
_cell_formula_units_Z  1
loop_
  _symmetry_equiv_pos_site_id
 _symmetry_equiv_pos_as_xyz
 1  'x, y, z'
loop_
 _atom_site_type_symbol
 _atom_site_label
 _atom_site_symmetry_multiplicity
 _atom_site_fract_x
 _atom_site_fract_y
 _atom_site_fract_z
 _atom_site_fract_occupancy
 K  K1  1  0.90106  0.80648  0.39140  1
 K  K2  1  0.09894  0.19352  0.60860  1
 K  K3  1  0.24717  0.33978  0.16588  1
 K  K4  1  0.75283  0.66022  0.83412  1
 K  K5  1  0.00000  0.00000  0.00000  1
 Sb  Sb1  1  0.54620  0.73388  0.17371  1
 Sb  Sb2  1  0.45380  0.26612  0.82629  1
 Sb  Sb3  1  0.60904  0.39122  0.39070  1
 Sb  Sb4  1  0.39096  0.60878  0.60930  1
