CIF file written using JARVIS-Tools package.
data_ZrMo2
_symmetry_space_group_name_H-M  'Fmmm'
_cell_length_a       7.24171
_cell_length_b       7.02378
_cell_length_c       2.88583
_cell_angle_alpha    82.6032
_cell_angle_beta     74.1193
_cell_angle_gamma    23.2775

_symmetry_Int_Tables_number  69
_chemical_formula_structural  ZrMo2
_chemical_formula_sum  ZrMo2
_cell_volume  52.81048548671186
_cell_formula_units_Z  1
loop_
  _symmetry_equiv_pos_site_id
 _symmetry_equiv_pos_as_xyz
 1  'x, y, z'
loop_
 _atom_site_type_symbol
 _atom_site_label
 _atom_site_symmetry_multiplicity
 _atom_site_fract_x
 _atom_site_fract_y
 _atom_site_fract_z
 _atom_site_fract_occupancy
 Mo  Mo1  1  0.32474  0.32474  0.67526  1
 Mo  Mo2  1  0.67526  0.67526  0.32474  1
 Zr  Zr1  1  0.00000  0.00000  0.00000  1
