CIF file written using JARVIS-Tools package.
data_Eu3Mg
_symmetry_space_group_name_H-M  'Pmm2'
_cell_length_a       3.62677
_cell_length_b       5.62657
_cell_length_c       5.8553
_cell_angle_alpha    90
_cell_angle_beta     90
_cell_angle_gamma    90

_symmetry_Int_Tables_number  25
_chemical_formula_structural  Eu3Mg
_chemical_formula_sum  Eu3Mg
_cell_volume  119.48465982543733
_cell_formula_units_Z  1
loop_
  _symmetry_equiv_pos_site_id
 _symmetry_equiv_pos_as_xyz
 1  'x, y, z'
loop_
 _atom_site_type_symbol
 _atom_site_label
 _atom_site_symmetry_multiplicity
 _atom_site_fract_x
 _atom_site_fract_y
 _atom_site_fract_z
 _atom_site_fract_occupancy
 Eu  Eu1  1  0.00000  0.00000  0.98306  1
 Eu  Eu2  1  0.50000  0.00000  0.47303  1
 Eu  Eu3  1  0.50000  0.50000  0.85925  1
 Mg  Mg1  1  0.00000  0.50000  0.35133  1
