CIF file written using JARVIS-Tools package.
data_Bi4Au
_symmetry_space_group_name_H-M  'Fd-3m'
_cell_length_a       7.82573
_cell_length_b       7.82573
_cell_length_c       7.82573
_cell_angle_alpha    60
_cell_angle_beta     60
_cell_angle_gamma    60

_symmetry_Int_Tables_number  227
_chemical_formula_structural  Bi4Au
_chemical_formula_sum  Bi8Au2
_cell_volume  338.8906820033031
_cell_formula_units_Z  2
loop_
  _symmetry_equiv_pos_site_id
 _symmetry_equiv_pos_as_xyz
 1  'x, y, z'
loop_
 _atom_site_type_symbol
 _atom_site_label
 _atom_site_symmetry_multiplicity
 _atom_site_fract_x
 _atom_site_fract_y
 _atom_site_fract_z
 _atom_site_fract_occupancy
 Au  Au1  1  0.00000  0.00000  0.00000  1
 Au  Au2  1  0.25000  0.25000  0.25000  1
 Bi  Bi1  1  0.39815  0.39815  0.39815  1
 Bi  Bi2  1  0.39815  0.39815  0.80555  1
 Bi  Bi3  1  0.39815  0.80555  0.39815  1
 Bi  Bi4  1  0.85185  0.85185  0.44445  1
 Bi  Bi5  1  0.85185  0.85185  0.85185  1
 Bi  Bi6  1  0.80555  0.39815  0.39815  1
 Bi  Bi7  1  0.85185  0.44445  0.85185  1
 Bi  Bi8  1  0.44445  0.85185  0.85185  1
