CIF file written using JARVIS-Tools package.
data_Ag8S
_symmetry_space_group_name_H-M  'Immm'
_cell_length_a       6.06311
_cell_length_b       6.18568
_cell_length_c       6.18567
_cell_angle_alpha    73.1891
_cell_angle_beta     60.6533
_cell_angle_gamma    60.6533

_symmetry_Int_Tables_number  71
_chemical_formula_structural  Ag8S
_chemical_formula_sum  Ag8S
_cell_volume  175.90136737954367
_cell_formula_units_Z  1
loop_
  _symmetry_equiv_pos_site_id
 _symmetry_equiv_pos_as_xyz
 1  'x, y, z'
loop_
 _atom_site_type_symbol
 _atom_site_label
 _atom_site_symmetry_multiplicity
 _atom_site_fract_x
 _atom_site_fract_y
 _atom_site_fract_z
 _atom_site_fract_occupancy
 Ag  Ag1  1  0.61109  0.59150  0.18633  1
 Ag  Ag2  1  0.11114  0.21254  0.56519  1
 Ag  Ag3  1  0.11114  0.56519  0.21254  1
 Ag  Ag4  1  0.07709  0.65215  0.65215  1
 Ag  Ag5  1  0.61861  0.65215  0.65215  1
 Ag  Ag6  1  0.14516  0.12562  0.12562  1
 Ag  Ag7  1  0.60362  0.12562  0.12562  1
 Ag  Ag8  1  0.61109  0.18633  0.59150  1
 S  S1  1  0.11109  0.88891  0.88891  1
