CIF file written using JARVIS-Tools package.
data_HC2S2NO
_symmetry_space_group_name_H-M  'P1'
_cell_length_a       3.66873
_cell_length_b       4.20744
_cell_length_c       13.1826
_cell_angle_alpha    91.9425
_cell_angle_beta     89.8112
_cell_angle_gamma    96.0476

_symmetry_Int_Tables_number  1
_chemical_formula_structural  HC2S2NO
_chemical_formula_sum  H2C4S4N2O2
_cell_volume  202.23666699696204
_cell_formula_units_Z  2
loop_
  _symmetry_equiv_pos_site_id
 _symmetry_equiv_pos_as_xyz
 1  'x, y, z'
loop_
 _atom_site_type_symbol
 _atom_site_label
 _atom_site_symmetry_multiplicity
 _atom_site_fract_x
 _atom_site_fract_y
 _atom_site_fract_z
 _atom_site_fract_occupancy
 C  C1  1  0.83607  0.67045  0.20787  1
 C  C2  1  0.33607  0.67045  0.70787  1
 C  C3  1  0.33130  0.17937  0.80828  1
 C  C4  1  0.83130  0.17937  0.30828  1
 H  H1  1  0.78270  0.21019  0.15581  1
 H  H2  1  0.28270  0.21019  0.65581  1
 N  N1  1  0.76656  0.34521  0.22314  1
 N  N2  1  0.26656  0.34521  0.72314  1
 O  O1  1  0.73735  0.84378  0.29051  1
 O  O2  1  0.23736  0.84378  0.79051  1
 S  S1  1  0.48093  0.30387  0.91900  1
 S  S2  1  -0.01907  0.30387  0.41900  1
 S  S3  1  0.00192  0.79510  0.09809  1
 S  S4  1  0.50193  0.79510  0.59809  1
