CIF file written using JARVIS-Tools package.
data_KCrF6
_symmetry_space_group_name_H-M  'R-3'
_cell_length_a       4.81218
_cell_length_b       4.81218
_cell_length_c       4.81218
_cell_angle_alpha    97.7921
_cell_angle_beta     97.792
_cell_angle_gamma    97.7921

_symmetry_Int_Tables_number  148
_chemical_formula_structural  KCrF6
_chemical_formula_sum  KCrF6
_cell_volume  108.03387126196097
_cell_formula_units_Z  1
loop_
  _symmetry_equiv_pos_site_id
 _symmetry_equiv_pos_as_xyz
 1  'x, y, z'
loop_
 _atom_site_type_symbol
 _atom_site_label
 _atom_site_symmetry_multiplicity
 _atom_site_fract_x
 _atom_site_fract_y
 _atom_site_fract_z
 _atom_site_fract_occupancy
 Cr  Cr1  1  0.50000  0.50000  0.50000  1
 F  F1  1  0.80687  0.42247  0.71196  1
 F  F2  1  0.42247  0.71196  0.80687  1
 F  F3  1  0.28804  0.19313  0.57753  1
 F  F4  1  0.57753  0.28804  0.19313  1
 F  F5  1  0.19313  0.57753  0.28804  1
 F  F6  1  0.71196  0.80687  0.42247  1
 K  K1  1  0.00000  0.00000  0.00000  1
