CIF file written using JARVIS-Tools package.
data_ZnCu2SiSe4
_symmetry_space_group_name_H-M  'I-4'
_cell_length_a       6.79955
_cell_length_b       6.79955
_cell_length_c       6.79955
_cell_angle_alpha    131.252
_cell_angle_beta     131.252
_cell_angle_gamma    71.4123

_symmetry_Int_Tables_number  82
_chemical_formula_structural  ZnCu2SiSe4
_chemical_formula_sum  ZnCu2SiSe4
_cell_volume  173.90460511969707
_cell_formula_units_Z  1
loop_
  _symmetry_equiv_pos_site_id
 _symmetry_equiv_pos_as_xyz
 1  'x, y, z'
loop_
 _atom_site_type_symbol
 _atom_site_label
 _atom_site_symmetry_multiplicity
 _atom_site_fract_x
 _atom_site_fract_y
 _atom_site_fract_z
 _atom_site_fract_occupancy
 Cu  Cu1  1  0.00000  0.00000  0.00000  1
 Cu  Cu2  1  0.25000  0.75000  0.50000  1
 Se  Se1  1  0.14196  0.13401  0.51788  1
 Se  Se2  1  0.61613  0.62408  0.48212  1
 Se  Se3  1  0.86599  0.38387  0.00795  1
 Se  Se4  1  0.37592  0.85804  0.99205  1
 Si  Si1  1  0.50000  0.50000  0.00000  1
 Zn  Zn1  1  0.75000  0.25000  0.50000  1
