CIF file written using JARVIS-Tools package.
data_NaTaN2
_symmetry_space_group_name_H-M  'R-3m'
_cell_length_a       5.9363
_cell_length_b       5.9363
_cell_length_c       5.9363
_cell_angle_alpha    30.6597
_cell_angle_beta     30.6597
_cell_angle_gamma    30.6597

_symmetry_Int_Tables_number  166
_chemical_formula_structural  NaTaN2
_chemical_formula_sum  NaTaN2
_cell_volume  48.23218543200889
_cell_formula_units_Z  1
loop_
  _symmetry_equiv_pos_site_id
 _symmetry_equiv_pos_as_xyz
 1  'x, y, z'
loop_
 _atom_site_type_symbol
 _atom_site_label
 _atom_site_symmetry_multiplicity
 _atom_site_fract_x
 _atom_site_fract_y
 _atom_site_fract_z
 _atom_site_fract_occupancy
 N  N1  1  0.73147  0.73147  0.73147  1
 N  N2  1  0.26853  0.26853  0.26853  1
 Na  Na1  1  0.50000  0.50000  0.50000  1
 Ta  Ta1  1  0.00000  0.00000  0.00000  1
