CIF file written using JARVIS-Tools package.
data_ZnH8C6O4
_symmetry_space_group_name_H-M  'P1'
_cell_length_a       4.07136
_cell_length_b       4.5394
_cell_length_c       9.92029
_cell_angle_alpha    83.5345
_cell_angle_beta     82.4214
_cell_angle_gamma    63.9447

_symmetry_Int_Tables_number  1
_chemical_formula_structural  ZnH8C6O4
_chemical_formula_sum  ZnH8C6O4
_cell_volume  162.9623706172949
_cell_formula_units_Z  1
loop_
  _symmetry_equiv_pos_site_id
 _symmetry_equiv_pos_as_xyz
 1  'x, y, z'
loop_
 _atom_site_type_symbol
 _atom_site_label
 _atom_site_symmetry_multiplicity
 _atom_site_fract_x
 _atom_site_fract_y
 _atom_site_fract_z
 _atom_site_fract_occupancy
 C  C1  1  0.80647  0.59000  0.03661  1
 C  C2  1  0.65885  0.74389  0.90107  1
 C  C3  1  0.88420  0.54559  0.77945  1
 C  C4  1  0.10177  0.61819  0.40946  1
 C  C5  1  0.98562  0.50483  0.52805  1
 C  C6  1  0.74475  0.71228  0.64154  1
 H  H1  1  0.58832  0.22546  0.36252  1
 H  H2  1  0.08022  0.24020  0.54339  1
 H  H3  1  0.45785  0.74857  0.64138  1
 H  H4  1  0.88572  0.30095  0.79118  1
 H  H5  1  0.37211  0.77760  0.90818  1
 H  H6  1  0.63924  -0.00548  0.89038  1
 H  H7  1  0.73642  0.95971  0.62790  1
 H  H8  1  0.17317  0.50015  0.77882  1
 O  O1  1  0.00164  0.92969  0.36535  1
 O  O2  1  0.72443  0.75635  0.14142  1
 O  O3  1  0.36422  0.39034  0.31661  1
 O  O4  1  0.02709  0.28440  0.04177  1
 Zn  Zn1  1  0.24323  0.08591  0.21318  1
