CIF file written using JARVIS-Tools package.
data_AgBiPbS3
_symmetry_space_group_name_H-M  'Imm2'
_cell_length_a       7.0497
_cell_length_b       7.04971
_cell_length_c       7.04971
_cell_angle_alpha    146.308
_cell_angle_beta     131.641
_cell_angle_gamma    60.2319

_symmetry_Int_Tables_number  44
_chemical_formula_structural  AgBiPbS3
_chemical_formula_sum  AgBiPbS3
_cell_volume  143.89692465808335
_cell_formula_units_Z  1
loop_
  _symmetry_equiv_pos_site_id
 _symmetry_equiv_pos_as_xyz
 1  'x, y, z'
loop_
 _atom_site_type_symbol
 _atom_site_label
 _atom_site_symmetry_multiplicity
 _atom_site_fract_x
 _atom_site_fract_y
 _atom_site_fract_z
 _atom_site_fract_occupancy
 Ag  Ag1  1  0.00532  0.00532  -0.00000  1
 Bi  Bi1  1  0.33175  0.33175  0.00000  1
 Pb  Pb1  1  0.66885  0.66885  -0.00000  1
 S  S1  1  0.84215  0.34215  0.50000  1
 S  S2  1  0.48854  0.98854  0.50000  1
 S  S3  1  0.16338  0.66338  0.50000  1
