CIF file written using JARVIS-Tools package.
data_H2C4S
_symmetry_space_group_name_H-M  'Pnma'
_cell_length_a       7.4511
_cell_length_b       5.60324
_cell_length_c       7.7924
_cell_angle_alpha    90
_cell_angle_beta     90
_cell_angle_gamma    90

_symmetry_Int_Tables_number  62
_chemical_formula_structural  H2C4S
_chemical_formula_sum  H8C6S4
_cell_volume  325.33474048946283
_cell_formula_units_Z  4
loop_
  _symmetry_equiv_pos_site_id
 _symmetry_equiv_pos_as_xyz
 1  'x, y, z'
loop_
 _atom_site_type_symbol
 _atom_site_label
 _atom_site_symmetry_multiplicity
 _atom_site_fract_x
 _atom_site_fract_y
 _atom_site_fract_z
 _atom_site_fract_occupancy
 C  C1  1  0.08722  0.26630  0.15818  1
 C  C2  1  0.91278  0.73370  0.83883  1
 C  C3  1  0.51251  0.02934  0.40986  1
 C  C4  1  0.48749  0.97066  0.90986  1
 C  C5  1  0.01251  0.47066  0.40986  1
 C  C6  1  0.98749  0.52934  0.90986  1
 C  C7  1  0.58722  0.23370  0.33883  1
 C  C8  1  0.08722  0.26630  0.33883  1
 C  C9  1  0.98749  0.52934  0.58715  1
 C  C10  1  0.01251  0.47066  0.08715  1
 C  C11  1  0.48749  0.97066  0.58715  1
 C  C12  1  0.51251  0.02934  0.08715  1
 C  C13  1  0.91278  0.73370  0.65818  1
 C  C14  1  0.41278  0.76630  0.83883  1
 C  C15  1  0.41278  0.76630  0.65818  1
 C  C16  1  0.58722  0.23370  0.15818  1
 H  H1  1  0.63939  0.37958  0.08061  1
 H  H2  1  0.86061  0.87959  0.91638  1
 H  H3  1  0.13939  0.12041  0.41638  1
 H  H4  1  0.36061  0.62041  0.91638  1
 H  H5  1  0.63939  0.37959  0.41638  1
 H  H6  1  0.86061  0.87958  0.58061  1
 H  H7  1  0.13939  0.12042  0.08061  1
 H  H8  1  0.36061  0.62042  0.58061  1
 S  S1  1  0.94216  0.66590  0.24850  1
 S  S2  1  0.44216  0.83410  0.24850  1
 S  S3  1  0.55784  0.16590  0.74850  1
 S  S4  1  0.05784  0.33410  0.74850  1
