CIF file written using JARVIS-Tools package.
data_CdH12C8O4
_symmetry_space_group_name_H-M  'P1'
_cell_length_a       4.03893
_cell_length_b       4.26025
_cell_length_c       12.0926
_cell_angle_alpha    90.3317
_cell_angle_beta     96.4039
_cell_angle_gamma    104.259

_symmetry_Int_Tables_number  1
_chemical_formula_structural  CdH12C8O4
_chemical_formula_sum  CdH2C8O4
_cell_volume  200.288037470196
_cell_formula_units_Z  1
loop_
  _symmetry_equiv_pos_site_id
 _symmetry_equiv_pos_as_xyz
 1  'x, y, z'
loop_
 _atom_site_type_symbol
 _atom_site_label
 _atom_site_symmetry_multiplicity
 _atom_site_fract_x
 _atom_site_fract_y
 _atom_site_fract_z
 _atom_site_fract_occupancy
 C  C1  1  0.06925  0.21932  0.62576  1
 C  C2  1  0.88742  0.17555  0.33757  1
 C  C3  1  0.68284  0.10742  0.43609  1
 C  C4  1  0.86869  0.96831  0.53605  1
 C  C5  1  0.21022  0.06167  0.72798  1
 C  C6  1  0.36633  0.29701  0.82692  1
 C  C7  1  0.48999  0.11930  0.92783  1
 C  C8  1  0.59837  0.33966  0.03098  1
 Cd  Cd1  1  0.24314  0.74226  0.18435  1
 H  H1  1  0.62157  0.33148  0.46168  1
 H  H2  1  0.27956  0.39202  0.59119  1
 H  H3  1  0.58260  0.48859  0.80388  1
 H  H4  1  0.17249  0.41884  0.85050  1
 H  H5  1  0.03441  0.82401  0.50646  1
 H  H6  1  0.89682  0.36285  0.65171  1
 H  H7  1  0.40161  0.93565  0.70508  1
 H  H8  1  0.99874  0.87107  0.75495  1
 H  H9  1  0.71066  0.02771  0.90986  1
 H  H10  1  0.28199  0.91188  0.94444  1
 H  H11  1  0.66935  0.79564  0.57529  1
 H  H12  1  0.44203  0.92878  0.40872  1
 O  O1  1  0.81778  0.95687  0.25757  1
 O  O2  1  0.41870  0.28270  0.11364  1
 O  O3  1  0.12164  0.43488  0.33812  1
 O  O4  1  0.85700  0.58043  0.03015  1
