CIF file written using JARVIS-Tools package.
data_Te2Mo3WSe6
_symmetry_space_group_name_H-M  'P3m1'
_cell_length_a       3.38732
_cell_length_b       3.38732
_cell_length_c       36.2056
_cell_angle_alpha    90.0088
_cell_angle_beta     90
_cell_angle_gamma    120

_symmetry_Int_Tables_number  156
_chemical_formula_structural  Te2Mo3WSe6
_chemical_formula_sum  Te2Mo3WSe6
_cell_volume  359.76447330042373
_cell_formula_units_Z  1
loop_
  _symmetry_equiv_pos_site_id
 _symmetry_equiv_pos_as_xyz
 1  'x, y, z'
loop_
 _atom_site_type_symbol
 _atom_site_label
 _atom_site_symmetry_multiplicity
 _atom_site_fract_x
 _atom_site_fract_y
 _atom_site_fract_z
 _atom_site_fract_occupancy
 Mo  Mo1  1  0.33298  0.66596  0.09725  1
 Mo  Mo2  1  0.66663  0.33326  0.27753  1
 Mo  Mo3  1  0.66692  0.33384  0.65958  1
 Se  Se1  1  0.33335  0.66670  0.32322  1
 Se  Se2  1  0.33364  0.66728  0.70519  1
 Se  Se3  1  0.66627  0.33253  0.05163  1
 Se  Se4  1  0.66637  0.33273  0.14292  1
 Se  Se5  1  0.33324  0.66648  0.23186  1
 Se  Se6  1  0.33353  0.66707  0.61388  1
 Te  Te1  1  0.66676  0.33352  0.41628  1
 Te  Te2  1  0.66684  0.33368  0.52085  1
 W  W1  1  0.33347  0.66694  0.46857  1
