CIF file written using JARVIS-Tools package.
data_AlH18C10ClO5
_symmetry_space_group_name_H-M  'P1'
_cell_length_a       5.26105
_cell_length_b       7.01306
_cell_length_c       9.12222
_cell_angle_alpha    106.814
_cell_angle_beta     87.9035
_cell_angle_gamma    96.9027

_symmetry_Int_Tables_number  1
_chemical_formula_structural  AlH18C10ClO5
_chemical_formula_sum  AlH8C0ClO5
_cell_volume  319.8495372789315
_cell_formula_units_Z  1
loop_
  _symmetry_equiv_pos_site_id
 _symmetry_equiv_pos_as_xyz
 1  'x, y, z'
loop_
 _atom_site_type_symbol
 _atom_site_label
 _atom_site_symmetry_multiplicity
 _atom_site_fract_x
 _atom_site_fract_y
 _atom_site_fract_z
 _atom_site_fract_occupancy
 Al  Al1  1  0.53785  0.62701  0.92467  1
 C  C1  1  0.65304  0.04903  0.65666  1
 C  C2  1  0.81713  0.93048  0.97379  1
 C  C3  1  0.52438  0.23763  0.70872  1
 C  C4  1  0.82828  0.78882  0.43400  1
 C  C5  1  0.63559  0.94273  0.48443  1
 C  C6  1  0.86945  0.32457  0.26834  1
 C  C7  1  0.94537  0.44341  0.43270  1
 C  C8  1  0.77679  0.61157  0.50192  1
 C  C9  1  0.05963  0.17874  0.18862  1
 C  C10  1  0.01832  0.10377  0.01211  1
 Cl  Cl1  1  0.37057  0.60167  0.13562  1
 H  H1  1  0.85640  0.43004  0.20042  1
 H  H2  1  0.25599  0.25509  0.20698  1
 H  H3  1  0.19730  0.05803  0.95431  1
 H  H4  1  0.05300  0.05025  0.23641  1
 H  H5  1  0.57278  0.54950  0.48542  1
 H  H6  1  0.02342  0.86515  0.46607  1
 H  H7  1  0.82590  0.73277  0.30807  1
 H  H8  1  0.26987  0.46564  0.71263  1
 H  H9  1  0.43976  0.86919  0.45411  1
 H  H10  1  0.95749  0.22605  0.97311  1
 H  H11  1  0.85481  0.08694  0.69353  1
 H  H12  1  0.67110  0.05469  0.42054  1
 H  H13  1  0.67499  0.24421  0.26716  1
 H  H14  1  0.12909  0.66806  0.82693  1
 H  H15  1  0.14764  0.50923  0.43403  1
 H  H16  1  0.93819  0.34034  0.50458  1
 H  H17  1  0.80780  0.66652  0.62698  1
 H  H18  1  0.56046  0.94829  0.72129  1
 O  O1  1  0.63182  0.37880  0.82394  1
 O  O2  1  0.32499  0.25603  0.64427  1
 O  O3  1  0.87850  0.74578  0.92090  1
 O  O4  1  0.57887  0.93769  -0.00649  1
 O  O5  1  0.29479  0.61663  0.78259  1
