CIF file written using JARVIS-Tools package.
data_Ba2CoWO6
_symmetry_space_group_name_H-M  'Fm-3m'
_cell_length_a       5.75381
_cell_length_b       5.75312
_cell_length_c       5.75314
_cell_angle_alpha    90.0138
_cell_angle_beta     59.9958
_cell_angle_gamma    120.004

_symmetry_Int_Tables_number  225
_chemical_formula_structural  Ba2CoWO6
_chemical_formula_sum  Ba2CoWO6
_cell_volume  134.66286433256775
_cell_formula_units_Z  1
loop_
  _symmetry_equiv_pos_site_id
 _symmetry_equiv_pos_as_xyz
 1  'x, y, z'
loop_
 _atom_site_type_symbol
 _atom_site_label
 _atom_site_symmetry_multiplicity
 _atom_site_fract_x
 _atom_site_fract_y
 _atom_site_fract_z
 _atom_site_fract_occupancy
 Ba  Ba1  1  0.50000  0.75001  0.74999  1
 Ba  Ba2  1  0.50000  0.24999  0.25001  1
 Co  Co1  1  0.00000  0.00000  0.00000  1
 O  O1  1  -0.00000  0.25948  0.74051  1
 O  O2  1  -0.00003  0.25942  0.25945  1
 O  O3  1  0.48104  0.74051  0.25947  1
 O  O4  1  0.51896  0.25949  0.74053  1
 O  O5  1  0.00003  0.74058  0.74054  1
 O  O6  1  0.00000  0.74052  0.25949  1
 W  W1  1  -0.00000  0.50000  0.50000  1
