CIF file written using JARVIS-Tools package.
data_KFeN
_symmetry_space_group_name_H-M  'R3m'
_cell_length_a       3.08044
_cell_length_b       3.08045
_cell_length_c       5.71522
_cell_angle_alpha    90.0132
_cell_angle_beta     105.621
_cell_angle_gamma    119.999

_symmetry_Int_Tables_number  160
_chemical_formula_structural  KFeN
_chemical_formula_sum  KFeN
_cell_volume  44.63715301593201
_cell_formula_units_Z  1
loop_
  _symmetry_equiv_pos_site_id
 _symmetry_equiv_pos_as_xyz
 1  'x, y, z'
loop_
 _atom_site_type_symbol
 _atom_site_label
 _atom_site_symmetry_multiplicity
 _atom_site_fract_x
 _atom_site_fract_y
 _atom_site_fract_z
 _atom_site_fract_occupancy
 Fe  Fe1  1  0.73346  0.19712  0.43058  1
 K  K1  1  0.72117  0.69128  0.91246  1
 N  N1  1  0.11637  0.88860  0.50496  1
