CIF file written using JARVIS-Tools package.
data_PuIn
_symmetry_space_group_name_H-M  'R-3m'
_cell_length_a       3.31435
_cell_length_b       3.31435
_cell_length_c       5.85569
_cell_angle_alpha    73.6373
_cell_angle_beta     73.6373
_cell_angle_gamma    60.1295

_symmetry_Int_Tables_number  166
_chemical_formula_structural  PuIn
_chemical_formula_sum  PuIn
_cell_volume  52.74131566554441
_cell_formula_units_Z  1
loop_
  _symmetry_equiv_pos_site_id
 _symmetry_equiv_pos_as_xyz
 1  'x, y, z'
loop_
 _atom_site_type_symbol
 _atom_site_label
 _atom_site_symmetry_multiplicity
 _atom_site_fract_x
 _atom_site_fract_y
 _atom_site_fract_z
 _atom_site_fract_occupancy
 In  In1  1  0.00000  0.00000  0.00000  1
 Pu  Pu1  1  0.50000  0.50000  0.50000  1
