CIF file written using JARVIS-Tools package.
data_PdSe2
_symmetry_space_group_name_H-M  'Pbca'
_cell_length_a       5.87516
_cell_length_b       5.98287
_cell_length_c       7.53785
_cell_angle_alpha    90
_cell_angle_beta     90
_cell_angle_gamma    90

_symmetry_Int_Tables_number  61
_chemical_formula_structural  PdSe2
_chemical_formula_sum  Pd4Se8
_cell_volume  264.9578423968907
_cell_formula_units_Z  4
loop_
  _symmetry_equiv_pos_site_id
 _symmetry_equiv_pos_as_xyz
 1  'x, y, z'
loop_
 _atom_site_type_symbol
 _atom_site_label
 _atom_site_symmetry_multiplicity
 _atom_site_fract_x
 _atom_site_fract_y
 _atom_site_fract_z
 _atom_site_fract_occupancy
 Pd  Pd1  1  0.50000  0.00000  0.50000  1
 Pd  Pd2  1  0.00000  0.50000  0.50000  1
 Pd  Pd3  1  0.50000  0.50000  0.00000  1
 Pd  Pd4  1  0.00000  0.00000  0.00000  1
 Se  Se1  1  0.61234  0.11849  0.09689  1
 Se  Se2  1  0.11234  0.38151  0.90311  1
 Se  Se3  1  0.38766  0.61849  0.40311  1
 Se  Se4  1  0.88766  0.88151  0.59689  1
 Se  Se5  1  0.11234  0.11849  0.40311  1
 Se  Se6  1  0.61234  0.38151  0.59689  1
 Se  Se7  1  0.88766  0.61849  0.09689  1
 Se  Se8  1  0.38766  0.88151  0.90311  1
