CIF file written using JARVIS-Tools package.
data_NaBi3I2O4
_symmetry_space_group_name_H-M  'Amm2'
_cell_length_a       7.25316
_cell_length_b       7.25316
_cell_length_c       5.70359
_cell_angle_alpha    90
_cell_angle_beta     90
_cell_angle_gamma    133.592

_symmetry_Int_Tables_number  38
_chemical_formula_structural  NaBi3I2O4
_chemical_formula_sum  NaBi3I2O4
_cell_volume  217.32042564919996
_cell_formula_units_Z  1
loop_
  _symmetry_equiv_pos_site_id
 _symmetry_equiv_pos_as_xyz
 1  'x, y, z'
loop_
 _atom_site_type_symbol
 _atom_site_label
 _atom_site_symmetry_multiplicity
 _atom_site_fract_x
 _atom_site_fract_y
 _atom_site_fract_z
 _atom_site_fract_occupancy
 Bi  Bi1  1  0.83434  0.16566  0.00000  1
 Bi  Bi2  1  0.16805  0.83195  0.00000  1
 Bi  Bi3  1  0.66684  0.33316  0.50000  1
 I  I1  1  0.49574  0.50426  0.00000  1
 I  I2  1  0.00485  0.99515  0.50000  1
 Na  Na1  1  0.33593  0.66407  0.50000  1
 O  O1  1  0.50699  0.00986  0.75754  1
 O  O2  1  0.99014  0.49301  0.24246  1
 O  O3  1  0.99014  0.49301  0.75754  1
 O  O4  1  0.50699  0.00986  0.24246  1
