CIF file written using JARVIS-Tools package.
data_ScF3
_symmetry_space_group_name_H-M  'C2'
_cell_length_a       3.7959
_cell_length_b       3.7959
_cell_length_c       3.92842
_cell_angle_alpha    75.866
_cell_angle_beta     75.866
_cell_angle_gamma    89.919

_symmetry_Int_Tables_number  5
_chemical_formula_structural  ScF3
_chemical_formula_sum  ScF3
_cell_volume  53.12671366399833
_cell_formula_units_Z  1
loop_
  _symmetry_equiv_pos_site_id
 _symmetry_equiv_pos_as_xyz
 1  'x, y, z'
loop_
 _atom_site_type_symbol
 _atom_site_label
 _atom_site_symmetry_multiplicity
 _atom_site_fract_x
 _atom_site_fract_y
 _atom_site_fract_z
 _atom_site_fract_occupancy
 F  F1  1  0.86669  0.47602  0.15835  1
 F  F2  1  0.52398  0.13331  0.84165  1
 F  F3  1  0.11748  0.88252  0.50000  1
 Sc  Sc1  1  0.99184  0.00816  0.00000  1
