CIF file written using JARVIS-Tools package.
data_FeO
_symmetry_space_group_name_H-M  'Fm-3m'
_cell_length_a       3.03308
_cell_length_b       5.25686
_cell_length_c       5.25634
_cell_angle_alpha    109.484
_cell_angle_beta     89.9881
_cell_angle_gamma    89.9747

_symmetry_Int_Tables_number  225
_chemical_formula_structural  FeO
_chemical_formula_sum  Fe4O4
_cell_volume  79.01056414515367
_cell_formula_units_Z  4
loop_
  _symmetry_equiv_pos_site_id
 _symmetry_equiv_pos_as_xyz
 1  'x, y, z'
loop_
 _atom_site_type_symbol
 _atom_site_label
 _atom_site_symmetry_multiplicity
 _atom_site_fract_x
 _atom_site_fract_y
 _atom_site_fract_z
 _atom_site_fract_occupancy
 Fe  Fe1  1  0.50000  -0.00000  0.50000  1
 Fe  Fe2  1  0.50000  0.50000  0.00000  1
 Fe  Fe3  1  -0.00000  0.00000  -0.00000  1
 Fe  Fe4  1  -0.00000  0.50000  0.50000  1
 O  O1  1  0.00001  0.24999  0.75003  1
 O  O2  1  0.50001  0.24999  0.25003  1
 O  O3  1  -0.00001  0.75001  0.24997  1
 O  O4  1  0.49999  0.75000  0.74997  1
