CIF file written using JARVIS-Tools package.
data_H8PbC6O4
_symmetry_space_group_name_H-M  'P-1'
_cell_length_a       4.31026
_cell_length_b       7.9765
_cell_length_c       10.7875
_cell_angle_alpha    77.111
_cell_angle_beta     84.6153
_cell_angle_gamma    76.9589

_symmetry_Int_Tables_number  2
_chemical_formula_structural  H8PbC6O4
_chemical_formula_sum  H6Pb2C2O8
_cell_volume  351.8435117509612
_cell_formula_units_Z  2
loop_
  _symmetry_equiv_pos_site_id
 _symmetry_equiv_pos_as_xyz
 1  'x, y, z'
loop_
 _atom_site_type_symbol
 _atom_site_label
 _atom_site_symmetry_multiplicity
 _atom_site_fract_x
 _atom_site_fract_y
 _atom_site_fract_z
 _atom_site_fract_occupancy
 C  C1  1  0.67054  0.23939  0.68117  1
 C  C2  1  0.69967  0.22235  0.44817  1
 C  C3  1  0.72052  0.20989  0.21445  1
 C  C4  1  0.51219  0.71806  0.33507  1
 C  C5  1  0.51234  0.21881  0.33488  1
 C  C6  1  0.69953  0.72262  0.44809  1
 C  C7  1  0.71853  0.71203  0.21390  1
 C  C8  1  0.67065  0.74014  0.68099  1
 C  C9  1  0.48330  0.73559  0.56797  1
 C  C10  1  0.48322  0.23585  0.56788  1
 C  C11  1  0.46434  0.74613  0.80216  1
 C  C12  1  0.46237  0.24828  0.80160  1
 H  H1  1  0.81937  0.33451  0.42338  1
 H  H2  1  0.31747  0.33505  0.31635  1
 H  H3  1  0.31461  0.83293  0.31740  1
 H  H4  1  0.40445  0.10235  0.35640  1
 H  H5  1  0.86545  0.12317  0.69969  1
 H  H6  1  0.86826  0.62527  0.69865  1
 H  H7  1  0.77838  0.35587  0.65966  1
 H  H8  1  0.40799  0.60031  0.35645  1
 H  H9  1  0.29182  0.85442  0.54934  1
 H  H10  1  0.36354  0.12368  0.59268  1
 H  H11  1  0.36533  0.62278  0.59305  1
 H  H12  1  0.77483  0.85789  0.65962  1
 H  H13  1  0.81751  0.83543  0.42300  1
 H  H14  1  0.88978  0.10288  0.46682  1
 H  H15  1  0.89102  0.60379  0.46672  1
 H  H16  1  0.29308  0.35531  0.54923  1
 O  O1  1  0.20788  0.36571  0.79886  1
 O  O2  1  0.55256  0.63126  0.90447  1
 O  O3  1  0.97599  0.59696  0.21526  1
 O  O4  1  0.97500  0.09245  0.21722  1
 O  O5  1  0.63035  0.82688  0.11159  1
 O  O6  1  0.63675  0.32417  0.11141  1
 O  O7  1  0.20685  0.86117  0.80083  1
 O  O8  1  0.54615  0.13396  0.90463  1
 Pb  Pb1  1  0.08853  0.97936  0.00836  1
 Pb  Pb2  1  0.09434  0.47883  0.00770  1
