CIF file written using JARVIS-Tools package.
data_Mg2PdN2
_symmetry_space_group_name_H-M  'I4/mmm'
_cell_length_a       3.0425
_cell_length_b       4.30256
_cell_length_c       6.73865
_cell_angle_alpha    90
_cell_angle_beta     103.043
_cell_angle_gamma    134.998

_symmetry_Int_Tables_number  139
_chemical_formula_structural  Mg2PdN2
_chemical_formula_sum  Mg2PdN2
_cell_volume  59.11595981541342
_cell_formula_units_Z  1
loop_
  _symmetry_equiv_pos_site_id
 _symmetry_equiv_pos_as_xyz
 1  'x, y, z'
loop_
 _atom_site_type_symbol
 _atom_site_label
 _atom_site_symmetry_multiplicity
 _atom_site_fract_x
 _atom_site_fract_y
 _atom_site_fract_z
 _atom_site_fract_occupancy
 Mg  Mg1  1  0.66201  0.33100  0.16217  1
 Mg  Mg2  1  0.33799  0.66900  0.83783  1
 N  N1  1  0.31358  0.15679  0.81340  1
 N  N2  1  0.68642  0.84321  0.18660  1
 Pd  Pd1  1  0.00000  -0.00000  0.50000  1
