CIF file written using JARVIS-Tools package.
data_Hg2TeS
_symmetry_space_group_name_H-M  'R3m'
_cell_length_a       7.76711
_cell_length_b       7.76711
_cell_length_c       7.76711
_cell_angle_alpha    33.3783
_cell_angle_beta     33.3783
_cell_angle_gamma    33.3783

_symmetry_Int_Tables_number  160
_chemical_formula_structural  Hg2TeS
_chemical_formula_sum  Hg2TeS
_cell_volume  126.29278197117651
_cell_formula_units_Z  1
loop_
  _symmetry_equiv_pos_site_id
 _symmetry_equiv_pos_as_xyz
 1  'x, y, z'
loop_
 _atom_site_type_symbol
 _atom_site_label
 _atom_site_symmetry_multiplicity
 _atom_site_fract_x
 _atom_site_fract_y
 _atom_site_fract_z
 _atom_site_fract_occupancy
 Hg  Hg1  1  0.99116  0.99116  0.99116  1
 Hg  Hg2  1  0.50753  0.50753  0.50753  1
 S  S1  1  0.87410  0.87410  0.87410  1
 Te  Te1  1  0.37721  0.37721  0.37721  1
