CIF file written using JARVIS-Tools package.
data_Pr4CoI5
_symmetry_space_group_name_H-M  'C2/m'
_cell_length_a       10.0115
_cell_length_b       10.0115
_cell_length_c       9.06681
_cell_angle_alpha    76.6605
_cell_angle_beta     76.6605
_cell_angle_gamma    24.0356

_symmetry_Int_Tables_number  12
_chemical_formula_structural  Pr4CoI5
_chemical_formula_sum  Pr4CoI5
_cell_volume  359.69552589057537
_cell_formula_units_Z  1
loop_
  _symmetry_equiv_pos_site_id
 _symmetry_equiv_pos_as_xyz
 1  'x, y, z'
loop_
 _atom_site_type_symbol
 _atom_site_label
 _atom_site_symmetry_multiplicity
 _atom_site_fract_x
 _atom_site_fract_y
 _atom_site_fract_z
 _atom_site_fract_occupancy
 Co  Co1  1  0.00001  0.00001  0.00000  1
 I  I1  1  0.67331  0.67331  0.18195  1
 I  I2  1  0.32670  0.32670  0.81805  1
 I  I3  1  0.66958  0.66958  0.64401  1
 I  I4  1  0.33044  0.33044  0.35599  1
 I  I5  1  0.00001  0.00001  0.50000  1
 Pr  Pr1  1  0.85385  0.85385  0.07764  1
 Pr  Pr2  1  0.14617  0.14617  0.92236  1
 Pr  Pr3  1  0.49975  0.49975  0.20566  1
 Pr  Pr4  1  0.50026  0.50026  0.79434  1
