CIF file written using JARVIS-Tools package.
data_YbU2S3O2
_symmetry_space_group_name_H-M  'I4/mmm'
_cell_length_a       10.6501
_cell_length_b       10.6501
_cell_length_c       10.65
_cell_angle_alpha    159.474
_cell_angle_beta     159.474
_cell_angle_gamma    29.1882

_symmetry_Int_Tables_number  139
_chemical_formula_structural  YbU2S3O2
_chemical_formula_sum  YbU2S3O2
_cell_volume  148.4361374152579
_cell_formula_units_Z  1
loop_
  _symmetry_equiv_pos_site_id
 _symmetry_equiv_pos_as_xyz
 1  'x, y, z'
loop_
 _atom_site_type_symbol
 _atom_site_label
 _atom_site_symmetry_multiplicity
 _atom_site_fract_x
 _atom_site_fract_y
 _atom_site_fract_z
 _atom_site_fract_occupancy
 O  O1  1  0.75000  0.25000  0.50000  1
 O  O2  1  0.25000  0.75000  0.50000  1
 S  S1  1  0.13249  0.13249  0.00000  1
 S  S2  1  0.86751  0.86751  -0.00000  1
 S  S3  1  0.50000  0.50000  0.00000  1
 U  U1  1  0.31624  0.31624  -0.00000  1
 U  U2  1  0.68376  0.68376  0.00000  1
 Yb  Yb1  1  0.00000  0.00000  0.00000  1
