CIF file written using JARVIS-Tools package.
data_Li2FeO2F
_symmetry_space_group_name_H-M  'C2/c'
_cell_length_a       5.10965
_cell_length_b       5.10965
_cell_length_c       9.72108
_cell_angle_alpha    85.4073
_cell_angle_beta     94.5927
_cell_angle_gamma    60.5274

_symmetry_Int_Tables_number  15
_chemical_formula_structural  Li2FeO2F
_chemical_formula_sum  Li8Fe4O8F4
_cell_volume  218.15208046302703
_cell_formula_units_Z  4
loop_
  _symmetry_equiv_pos_site_id
 _symmetry_equiv_pos_as_xyz
 1  'x, y, z'
loop_
 _atom_site_type_symbol
 _atom_site_label
 _atom_site_symmetry_multiplicity
 _atom_site_fract_x
 _atom_site_fract_y
 _atom_site_fract_z
 _atom_site_fract_occupancy
 F  F1  1  0.70989  0.46210  0.12657  1
 F  F2  1  0.29011  0.53790  0.87343  1
 F  F3  1  0.53790  0.29011  0.62657  1
 F  F4  1  0.46210  0.70989  0.37343  1
 Fe  Fe1  1  0.12146  0.68996  0.50067  1
 Fe  Fe2  1  0.68996  0.12146  0.99933  1
 Fe  Fe3  1  0.87854  0.31004  0.49933  1
 Fe  Fe4  1  0.31004  0.87854  0.00067  1
 Li  Li1  1  0.76858  0.76858  0.25000  1
 Li  Li2  1  0.40957  0.40957  0.25000  1
 Li  Li3  1  0.09545  0.09545  0.25000  1
 Li  Li4  1  -0.00000  0.50000  -0.00000  1
 Li  Li5  1  0.90455  0.90455  0.75000  1
 Li  Li6  1  0.23142  0.23142  0.75000  1
 Li  Li7  1  0.50000  0.00000  0.50000  1
 Li  Li8  1  0.59043  0.59043  0.75000  1
 O  O1  1  0.19840  0.94593  0.61762  1
 O  O2  1  0.60636  0.87439  0.88120  1
 O  O3  1  0.05407  0.80160  0.11762  1
 O  O4  1  0.12561  0.39364  0.38120  1
 O  O5  1  0.87439  0.60636  0.61880  1
 O  O6  1  0.94593  0.19840  0.88238  1
 O  O7  1  0.39364  0.12561  0.11880  1
 O  O8  1  0.80160  0.05407  0.38238  1
