CIF file written using JARVIS-Tools package.
data_Nd3SbO7
_symmetry_space_group_name_H-M  'Cmcm'
_cell_length_a       6.67121
_cell_length_b       6.67121
_cell_length_c       7.71003
_cell_angle_alpha    90
_cell_angle_beta     90
_cell_angle_gamma    110.764

_symmetry_Int_Tables_number  63
_chemical_formula_structural  Nd3SbO7
_chemical_formula_sum  Nd6Sb2O4
_cell_volume  320.8479880309756
_cell_formula_units_Z  2
loop_
  _symmetry_equiv_pos_site_id
 _symmetry_equiv_pos_as_xyz
 1  'x, y, z'
loop_
 _atom_site_type_symbol
 _atom_site_label
 _atom_site_symmetry_multiplicity
 _atom_site_fract_x
 _atom_site_fract_y
 _atom_site_fract_z
 _atom_site_fract_occupancy
 Nd  Nd1  1  0.06662  0.52019  0.25000  1
 Nd  Nd2  1  0.47981  0.93338  0.75000  1
 Nd  Nd3  1  0.00000  0.00000  0.00000  1
 Nd  Nd4  1  0.00000  0.00000  0.50000  1
 Nd  Nd5  1  0.52019  0.06662  0.25000  1
 Nd  Nd6  1  0.93338  0.47981  0.75000  1
 O  O1  1  0.11064  0.84717  0.75000  1
 O  O2  1  0.15283  0.88936  0.25000  1
 O  O3  1  0.84717  0.11064  0.75000  1
 O  O4  1  0.56054  0.81373  0.03516  1
 O  O5  1  0.56054  0.81373  0.46484  1
 O  O6  1  0.18627  0.43946  0.53516  1
 O  O7  1  0.58377  0.58377  0.75000  1
 O  O8  1  0.81373  0.56054  0.03516  1
 O  O9  1  0.43946  0.18627  0.96484  1
 O  O10  1  0.18627  0.43946  0.96484  1
 O  O11  1  0.43946  0.18627  0.53516  1
 O  O12  1  0.81373  0.56054  0.46484  1
 O  O13  1  0.41623  0.41623  0.25000  1
 O  O14  1  0.88936  0.15283  0.25000  1
 Sb  Sb1  1  0.50000  0.50000  0.50000  1
 Sb  Sb2  1  0.50000  0.50000  0.00000  1
