CIF file written using JARVIS-Tools package.
data_SnBi
_symmetry_space_group_name_H-M  'I-4m2'
_cell_length_a       4.68644
_cell_length_b       4.68644
_cell_length_c       4.68644
_cell_angle_alpha    97.0853
_cell_angle_beta     97.0852
_cell_angle_gamma    138.878

_symmetry_Int_Tables_number  119
_chemical_formula_structural  SnBi
_chemical_formula_sum  SnBi
_cell_volume  63.37949003263761
_cell_formula_units_Z  1
loop_
  _symmetry_equiv_pos_site_id
 _symmetry_equiv_pos_as_xyz
 1  'x, y, z'
loop_
 _atom_site_type_symbol
 _atom_site_label
 _atom_site_symmetry_multiplicity
 _atom_site_fract_x
 _atom_site_fract_y
 _atom_site_fract_z
 _atom_site_fract_occupancy
 Bi  Bi1  1  0.75000  0.25000  0.50000  1
 Sn  Sn1  1  0.00000  0.00000  0.00000  1
