CIF file written using JARVIS-Tools package.
data_ZnH4C4O4
_symmetry_space_group_name_H-M  'P-1'
_cell_length_a       3.48792
_cell_length_b       4.50786
_cell_length_c       7.59931
_cell_angle_alpha    81.7004
_cell_angle_beta     80.1885
_cell_angle_gamma    70.1719

_symmetry_Int_Tables_number  2
_chemical_formula_structural  ZnH4C4O4
_chemical_formula_sum  ZnH4C4O4
_cell_volume  110.2727467148708
_cell_formula_units_Z  1
loop_
  _symmetry_equiv_pos_site_id
 _symmetry_equiv_pos_as_xyz
 1  'x, y, z'
loop_
 _atom_site_type_symbol
 _atom_site_label
 _atom_site_symmetry_multiplicity
 _atom_site_fract_x
 _atom_site_fract_y
 _atom_site_fract_z
 _atom_site_fract_occupancy
 C  C1  1  0.70379  0.32427  0.48688  1
 C  C2  1  0.89218  0.20852  0.30407  1
 C  C3  1  0.76463  0.45077  0.14544  1
 C  C4  1  0.95295  0.33500  0.96262  1
 H  H1  1  0.22637  0.12497  0.30297  1
 H  H2  1  0.82215  0.99083  0.29884  1
 H  H3  1  0.83470  0.66844  0.15066  1
 H  H4  1  0.43043  0.53434  0.14655  1
 O  O1  1  0.74244  0.11804  0.62410  1
 O  O2  1  0.51770  0.61859  0.49592  1
 O  O3  1  0.91423  0.54120  0.82540  1
 O  O4  1  0.13903  0.04068  0.95360  1
 Zn  Zn1  1  0.32825  0.82971  0.72475  1
