CIF file written using JARVIS-Tools package.
data_TmMgAg
_symmetry_space_group_name_H-M  'P-62m'
_cell_length_a       7.55266
_cell_length_b       7.55266
_cell_length_c       4.10047
_cell_angle_alpha    90
_cell_angle_beta     90
_cell_angle_gamma    120

_symmetry_Int_Tables_number  189
_chemical_formula_structural  TmMgAg
_chemical_formula_sum  Tm3Mg3Ag3
_cell_volume  202.5646981623743
_cell_formula_units_Z  3
loop_
  _symmetry_equiv_pos_site_id
 _symmetry_equiv_pos_as_xyz
 1  'x, y, z'
loop_
 _atom_site_type_symbol
 _atom_site_label
 _atom_site_symmetry_multiplicity
 _atom_site_fract_x
 _atom_site_fract_y
 _atom_site_fract_z
 _atom_site_fract_occupancy
 Ag  Ag1  1  0.33333  0.66667  0.50000  1
 Ag  Ag2  1  0.66667  0.33333  0.50000  1
 Ag  Ag3  1  0.00000  0.00000  0.00000  1
 Mg  Mg1  1  0.24765  0.00000  0.50000  1
 Mg  Mg2  1  -0.00000  0.24765  0.50000  1
 Mg  Mg3  1  0.75235  0.75235  0.50000  1
 Tm  Tm1  1  0.58703  0.00000  0.00000  1
 Tm  Tm2  1  -0.00000  0.58703  0.00000  1
 Tm  Tm3  1  0.41297  0.41297  0.00000  1
