CIF file written using JARVIS-Tools package.
data_BaGa2SiSe6
_symmetry_space_group_name_H-M  'P1'
_cell_length_a       6.46622
_cell_length_b       6.58215
_cell_length_c       6.70372
_cell_angle_alpha    98.9116
_cell_angle_beta     103.739
_cell_angle_gamma    97.9834

_symmetry_Int_Tables_number  1
_chemical_formula_structural  BaGa2SiSe6
_chemical_formula_sum  BaGa2SiSe6
_cell_volume  269.18391870731375
_cell_formula_units_Z  1
loop_
  _symmetry_equiv_pos_site_id
 _symmetry_equiv_pos_as_xyz
 1  'x, y, z'
loop_
 _atom_site_type_symbol
 _atom_site_label
 _atom_site_symmetry_multiplicity
 _atom_site_fract_x
 _atom_site_fract_y
 _atom_site_fract_z
 _atom_site_fract_occupancy
 Ba  Ba1  1  0.99409  0.97987  0.96479  1
 Ga  Ga1  1  0.52990  0.37630  0.79807  1
 Ga  Ga2  1  0.79450  0.51685  0.38863  1
 Se  Se1  1  0.69698  0.86500  0.43873  1
 Se  Se2  1  0.43268  0.72578  0.85754  1
 Se  Se3  1  0.88310  0.43229  0.73453  1
 Se  Se4  1  0.12189  0.58013  0.25888  1
 Se  Se5  1  0.23521  0.11307  0.54645  1
 Se  Se6  1  0.56810  0.23496  0.11541  1
 Si  Si1  1  0.37587  0.80815  0.52928  1
