CIF file written using JARVIS-Tools package.
data_LaCo5H4
_symmetry_space_group_name_H-M  'Cmmm'
_cell_length_a       5.21712
_cell_length_b       5.21711
_cell_length_c       4.02954
_cell_angle_alpha    90
_cell_angle_beta     90
_cell_angle_gamma    117.349

_symmetry_Int_Tables_number  65
_chemical_formula_structural  LaCo5H4
_chemical_formula_sum  LaCo5H4
_cell_volume  97.41782735601294
_cell_formula_units_Z  1
loop_
  _symmetry_equiv_pos_site_id
 _symmetry_equiv_pos_as_xyz
 1  'x, y, z'
loop_
 _atom_site_type_symbol
 _atom_site_label
 _atom_site_symmetry_multiplicity
 _atom_site_fract_x
 _atom_site_fract_y
 _atom_site_fract_z
 _atom_site_fract_occupancy
 Co  Co1  1  0.86542  0.13458  0.50000  1
 Co  Co2  1  0.13458  0.86542  0.50000  1
 Co  Co3  1  -0.00000  0.50000  0.00000  1
 Co  Co4  1  0.50000  -0.00000  0.00000  1
 Co  Co5  1  0.00000  0.00000  0.00000  1
 H  H1  1  0.64671  0.35329  0.00000  1
 H  H2  1  0.35329  0.64671  0.00000  1
 H  H3  1  -0.00000  0.50000  0.50000  1
 H  H4  1  0.50000  -0.00000  0.50000  1
 La  La1  1  0.50000  0.50000  0.50000  1
