CIF file written using JARVIS-Tools package.
data_Ho2TeS2
_symmetry_space_group_name_H-M  'Immm'
_cell_length_a       7.46252
_cell_length_b       7.46251
_cell_length_c       7.46251
_cell_angle_alpha    147.681
_cell_angle_beta     138.081
_cell_angle_gamma    53.9015

_symmetry_Int_Tables_number  71
_chemical_formula_structural  Ho2TeS2
_chemical_formula_sum  Ho2TeS2
_cell_volume  147.51748495073613
_cell_formula_units_Z  1
loop_
  _symmetry_equiv_pos_site_id
 _symmetry_equiv_pos_as_xyz
 1  'x, y, z'
loop_
 _atom_site_type_symbol
 _atom_site_label
 _atom_site_symmetry_multiplicity
 _atom_site_fract_x
 _atom_site_fract_y
 _atom_site_fract_z
 _atom_site_fract_occupancy
 Ho  Ho1  1  0.83239  0.33239  0.50000  1
 Ho  Ho2  1  0.16761  0.66761  0.50000  1
 S  S1  1  0.70006  0.70006  0.00000  1
 S  S2  1  0.29994  0.29994  0.00000  1
 Te  Te1  1  0.00000  0.00000  0.00000  1
