CIF file written using JARVIS-Tools package.
data_GeTe2Pb
_symmetry_space_group_name_H-M  'P4/mmm'
_cell_length_a       4.47326
_cell_length_b       4.47326
_cell_length_c       6.32332
_cell_angle_alpha    90
_cell_angle_beta     90
_cell_angle_gamma    90

_symmetry_Int_Tables_number  123
_chemical_formula_structural  GeTe2Pb
_chemical_formula_sum  GeTe2Pb
_cell_volume  126.52981712391369
_cell_formula_units_Z  1
loop_
  _symmetry_equiv_pos_site_id
 _symmetry_equiv_pos_as_xyz
 1  'x, y, z'
loop_
 _atom_site_type_symbol
 _atom_site_label
 _atom_site_symmetry_multiplicity
 _atom_site_fract_x
 _atom_site_fract_y
 _atom_site_fract_z
 _atom_site_fract_occupancy
 Ge  Ge1  1  0.00000  0.00000  0.00000  1
 Pb  Pb1  1  0.50000  0.50000  0.50000  1
 Te  Te1  1  0.00000  0.00000  0.50000  1
 Te  Te2  1  0.50000  0.50000  0.00000  1
