CIF file written using JARVIS-Tools package.
data_Si2NiPd
_symmetry_space_group_name_H-M  'Pmc2_1'
_cell_length_a       3.41209
_cell_length_b       5.4575
_cell_length_c       5.94583
_cell_angle_alpha    90
_cell_angle_beta     90
_cell_angle_gamma    90

_symmetry_Int_Tables_number  26
_chemical_formula_structural  Si2NiPd
_chemical_formula_sum  Si4Ni2Pd2
_cell_volume  110.72025460607368
_cell_formula_units_Z  2
loop_
  _symmetry_equiv_pos_site_id
 _symmetry_equiv_pos_as_xyz
 1  'x, y, z'
loop_
 _atom_site_type_symbol
 _atom_site_label
 _atom_site_symmetry_multiplicity
 _atom_site_fract_x
 _atom_site_fract_y
 _atom_site_fract_z
 _atom_site_fract_occupancy
 Ni  Ni1  1  0.50000  0.49458  0.05327  1
 Ni  Ni2  1  0.50000  0.99458  0.94673  1
 Pd  Pd1  1  0.00000  0.50109  0.43407  1
 Pd  Pd2  1  0.00000  0.00109  0.56593  1
 Si  Si1  1  0.50000  0.32177  0.69260  1
 Si  Si2  1  0.50000  0.82177  0.30740  1
 Si  Si3  1  0.00000  0.68255  0.84882  1
 Si  Si4  1  0.00000  0.18255  0.15118  1
