CIF file written using JARVIS-Tools package.
data_H2C4S
_symmetry_space_group_name_H-M  'P1'
_cell_length_a       6.67011
_cell_length_b       7.89622
_cell_length_c       9.52831
_cell_angle_alpha    92.2831
_cell_angle_beta     99.7315
_cell_angle_gamma    89.0485

_symmetry_Int_Tables_number  1
_chemical_formula_structural  H2C4S
_chemical_formula_sum  H2C24S6
_cell_volume  494.20489099272424
_cell_formula_units_Z  6
loop_
  _symmetry_equiv_pos_site_id
 _symmetry_equiv_pos_as_xyz
 1  'x, y, z'
loop_
 _atom_site_type_symbol
 _atom_site_label
 _atom_site_symmetry_multiplicity
 _atom_site_fract_x
 _atom_site_fract_y
 _atom_site_fract_z
 _atom_site_fract_occupancy
 C  C1  1  0.53820  0.24770  0.32010  1
 C  C2  1  0.80060  0.05595  0.25554  1
 C  C3  1  0.26113  0.11831  0.61706  1
 C  C4  1  0.03820  0.24770  0.82010  1
 C  C5  1  0.68349  0.12079  0.35601  1
 C  C6  1  0.18349  0.12079  0.85601  1
 C  C7  1  0.85685  0.45207  0.64305  1
 C  C8  1  0.47706  0.94230  0.79539  1
 C  C9  1  0.97706  0.94230  0.29539  1
 C  C10  1  0.50477  0.31315  0.18316  1
 C  C11  1  0.00478  0.31315  0.68315  1
 C  C12  1  0.11599  0.24322  0.58090  1
 C  C13  1  0.16400  0.74683  0.47584  1
 C  C14  1  0.66400  0.74683  0.97584  1
 C  C15  1  0.61599  0.24322  0.08090  1
 C  C16  1  0.63265  0.61703  0.06340  1
 C  C17  1  0.92752  0.58022  0.55971  1
 C  C18  1  0.13265  0.61703  0.56340  1
 C  C19  1  0.98414  0.81601  0.40262  1
 C  C20  1  0.48414  0.81601  0.90262  1
 C  C21  1  0.76113  0.11831  0.11706  1
 C  C22  1  0.42752  0.58022  0.05971  1
 C  C23  1  0.35685  0.45207  0.14305  1
 C  C24  1  0.30060  0.05595  0.75554  1
 H  H1  1  0.21215  0.07890  0.96522  1
 H  H2  1  0.75517  0.55203  0.13027  1
 H  H3  1  0.95473  0.30200  0.90029  1
 H  H4  1  0.84875  0.06849  0.03794  1
 H  H5  1  0.58805  0.28772  0.97240  1
 H  H6  1  0.08806  0.28772  0.47240  1
 H  H7  1  0.34875  0.06849  0.53794  1
 H  H8  1  0.25517  0.55203  0.63027  1
 H  H9  1  0.81290  0.79060  0.96276  1
 H  H10  1  0.31290  0.79061  0.46276  1
 H  H11  1  0.71215  0.07891  0.46522  1
 H  H12  1  0.45473  0.30200  0.40029  1
 S  S1  1  0.68306  0.96399  0.72061  1
 S  S2  1  0.63074  0.45714  0.69326  1
 S  S3  1  0.77301  0.71536  0.44763  1
 S  S4  1  0.27301  0.71536  0.94763  1
 S  S5  1  0.18306  0.96399  0.22061  1
 S  S6  1  0.13074  0.45714  0.19326  1
