CIF file written using JARVIS-Tools package.
data_TbSm3
_symmetry_space_group_name_H-M  'P6_3/mmc'
_cell_length_a       7.20918
_cell_length_b       7.20918
_cell_length_c       5.76231
_cell_angle_alpha    90
_cell_angle_beta     90
_cell_angle_gamma    120

_symmetry_Int_Tables_number  194
_chemical_formula_structural  TbSm3
_chemical_formula_sum  Tb2Sm6
_cell_volume  259.3575618742373
_cell_formula_units_Z  2
loop_
  _symmetry_equiv_pos_site_id
 _symmetry_equiv_pos_as_xyz
 1  'x, y, z'
loop_
 _atom_site_type_symbol
 _atom_site_label
 _atom_site_symmetry_multiplicity
 _atom_site_fract_x
 _atom_site_fract_y
 _atom_site_fract_z
 _atom_site_fract_occupancy
 Sm  Sm1  1  0.16694  0.33387  0.25000  1
 Sm  Sm2  1  0.66613  0.83306  0.25000  1
 Sm  Sm3  1  0.16694  0.83306  0.25000  1
 Sm  Sm4  1  0.83306  0.66613  0.75000  1
 Sm  Sm5  1  0.33387  0.16694  0.75000  1
 Sm  Sm6  1  0.83306  0.16694  0.75000  1
 Tb  Tb1  1  0.33333  0.66667  0.75000  1
 Tb  Tb2  1  0.66667  0.33333  0.25000  1
