CIF file written using JARVIS-Tools package.
data_Al6C3N2
_symmetry_space_group_name_H-M  'Pm'
_cell_length_a       3.47923
_cell_length_b       4.18959
_cell_length_c       9.21832
_cell_angle_alpha    102.187
_cell_angle_beta     89.9982
_cell_angle_gamma    89.9946

_symmetry_Int_Tables_number  6
_chemical_formula_structural  Al6C3N2
_chemical_formula_sum  Al6C3N2
_cell_volume  131.34297865391213
_cell_formula_units_Z  1
loop_
  _symmetry_equiv_pos_site_id
 _symmetry_equiv_pos_as_xyz
 1  'x, y, z'
loop_
 _atom_site_type_symbol
 _atom_site_label
 _atom_site_symmetry_multiplicity
 _atom_site_fract_x
 _atom_site_fract_y
 _atom_site_fract_z
 _atom_site_fract_occupancy
 Al  Al1  1  0.13824  0.72437  0.74921  1
 Al  Al2  1  0.13875  0.92273  0.39430  1
 Al  Al3  1  0.63826  0.48891  0.51382  1
 Al  Al4  1  0.13807  0.37350  0.14361  1
 Al  Al5  1  0.63820  0.24125  0.83450  1
 Al  Al6  1  0.63812  0.83924  0.06379  1
 C  C1  1  0.13810  0.89860  0.18321  1
 C  C2  1  0.13829  0.29734  0.57701  1
 C  C3  1  0.63823  0.73705  0.83727  1
 N  N1  1  0.63809  0.33489  0.05212  1
 N  N2  1  0.13823  0.16880  0.71597  1
