CIF file written using JARVIS-Tools package.
data_Pr2Y
_symmetry_space_group_name_H-M  'R-3m'
_cell_length_a       9.16906
_cell_length_b       9.16906
_cell_length_c       9.16906
_cell_angle_alpha    22.9485
_cell_angle_beta     22.9485
_cell_angle_gamma    22.9485

_symmetry_Int_Tables_number  166
_chemical_formula_structural  Pr2Y
_chemical_formula_sum  Pr2Y
_cell_volume  102.84492421957485
_cell_formula_units_Z  1
loop_
  _symmetry_equiv_pos_site_id
 _symmetry_equiv_pos_as_xyz
 1  'x, y, z'
loop_
 _atom_site_type_symbol
 _atom_site_label
 _atom_site_symmetry_multiplicity
 _atom_site_fract_x
 _atom_site_fract_y
 _atom_site_fract_z
 _atom_site_fract_occupancy
 Pr  Pr1  1  0.77560  0.77560  0.77560  1
 Pr  Pr2  1  0.22440  0.22440  0.22440  1
 Y  Y1  1  0.00000  0.00000  0.00000  1
