CIF file written using JARVIS-Tools package.
data_NaFeN
_symmetry_space_group_name_H-M  'P6_3mc'
_cell_length_a       3.00908
_cell_length_b       3.00907
_cell_length_c       9.70642
_cell_angle_alpha    90
_cell_angle_beta     90
_cell_angle_gamma    120

_symmetry_Int_Tables_number  186
_chemical_formula_structural  NaFeN
_chemical_formula_sum  Na2Fe2N2
_cell_volume  76.11231630231691
_cell_formula_units_Z  2
loop_
  _symmetry_equiv_pos_site_id
 _symmetry_equiv_pos_as_xyz
 1  'x, y, z'
loop_
 _atom_site_type_symbol
 _atom_site_label
 _atom_site_symmetry_multiplicity
 _atom_site_fract_x
 _atom_site_fract_y
 _atom_site_fract_z
 _atom_site_fract_occupancy
 Fe  Fe1  1  -0.00000  -0.00000  0.51790  1
 Fe  Fe2  1  0.00000  0.00000  0.01790  1
 N  N1  1  0.33333  0.66666  0.56506  1
 N  N2  1  0.66667  0.33334  0.06506  1
 Na  Na1  1  0.66667  0.33333  0.76168  1
 Na  Na2  1  0.33333  0.66667  0.26168  1
