CIF file written using JARVIS-Tools package.
data_DySi
_symmetry_space_group_name_H-M  'Cmcm'
_cell_length_a       3.84356
_cell_length_b       4.28186
_cell_length_c       5.68904
_cell_angle_alpha    112.106
_cell_angle_beta     90
_cell_angle_gamma    90

_symmetry_Int_Tables_number  63
_chemical_formula_structural  DySi
_chemical_formula_sum  Dy2Si2
_cell_volume  86.74515384765891
_cell_formula_units_Z  2
loop_
  _symmetry_equiv_pos_site_id
 _symmetry_equiv_pos_as_xyz
 1  'x, y, z'
loop_
 _atom_site_type_symbol
 _atom_site_label
 _atom_site_symmetry_multiplicity
 _atom_site_fract_x
 _atom_site_fract_y
 _atom_site_fract_z
 _atom_site_fract_occupancy
 Dy  Dy1  1  0.25000  0.85952  0.71903  1
 Dy  Dy2  1  0.75000  0.14048  0.28097  1
 Si  Si1  1  0.25000  0.57760  0.15519  1
 Si  Si2  1  0.75000  0.42240  0.84481  1
