CIF file written using JARVIS-Tools package.
data_H3C7NO
_symmetry_space_group_name_H-M  'P2_1'
_cell_length_a       3.62616
_cell_length_b       5.43265
_cell_length_c       11.6532
_cell_angle_alpha    89.9348
_cell_angle_beta     89.8705
_cell_angle_gamma    86.6071

_symmetry_Int_Tables_number  4
_chemical_formula_structural  H3C7NO
_chemical_formula_sum  H6C4N2O2
_cell_volume  229.16009276538207
_cell_formula_units_Z  2
loop_
  _symmetry_equiv_pos_site_id
 _symmetry_equiv_pos_as_xyz
 1  'x, y, z'
loop_
 _atom_site_type_symbol
 _atom_site_label
 _atom_site_symmetry_multiplicity
 _atom_site_fract_x
 _atom_site_fract_y
 _atom_site_fract_z
 _atom_site_fract_occupancy
 C  C1  1  0.23490  0.77426  0.41242  1
 C  C2  1  0.83998  0.26705  0.72107  1
 C  C3  1  0.69577  0.44561  0.79611  1
 C  C4  1  0.73753  0.39131  0.91244  1
 C  C5  1  0.91494  0.16601  0.94979  1
 C  C6  1  0.05649  0.98827  0.87141  1
 C  C7  1  0.91596  0.17729  0.37140  1
 C  C8  1  0.95461  0.12292  0.25530  1
 C  C9  1  0.95340  0.11861  0.07170  1
 C  C10  1  0.13258  0.89856  0.22106  1
 C  C11  1  0.27677  0.71998  0.29608  1
 C  C12  1  0.01794  0.04267  0.75530  1
 C  C13  1  0.05749  0.99955  0.44978  1
 C  C14  1  0.01911  0.04698  0.57170  1
 H  H1  1  0.55852  0.61540  0.76418  1
 H  H2  1  0.78179  0.34958  0.40097  1
 H  H3  1  0.41408  0.55021  0.26415  1
 H  H4  1  0.33895  0.64353  0.47742  1
 H  H5  1  0.19064  0.81599  0.90097  1
 H  H6  1  0.63340  0.52201  0.97744  1
 N  N1  1  0.12952  0.90852  0.65810  1
 N  N2  1  0.84305  0.25708  0.15812  1
 O  O1  1  0.83826  0.27200  0.60303  1
 O  O2  1  0.13430  0.89359  0.10302  1
