CIF file written using JARVIS-Tools package.
data_NbGe2
_symmetry_space_group_name_H-M  'P6_222'
_cell_length_a       5.03237
_cell_length_b       5.03237
_cell_length_c       6.84451
_cell_angle_alpha    90
_cell_angle_beta     90
_cell_angle_gamma    120

_symmetry_Int_Tables_number  180
_chemical_formula_structural  NbGe2
_chemical_formula_sum  Nb3Ge6
_cell_volume  150.11270104579623
_cell_formula_units_Z  3
loop_
  _symmetry_equiv_pos_site_id
 _symmetry_equiv_pos_as_xyz
 1  'x, y, z'
loop_
 _atom_site_type_symbol
 _atom_site_label
 _atom_site_symmetry_multiplicity
 _atom_site_fract_x
 _atom_site_fract_y
 _atom_site_fract_z
 _atom_site_fract_occupancy
 Ge  Ge1  1  0.83531  0.67062  0.50000  1
 Ge  Ge2  1  0.16469  0.83531  0.83333  1
 Ge  Ge3  1  0.67062  0.83531  0.16667  1
 Ge  Ge4  1  0.16469  0.32938  0.50000  1
 Ge  Ge5  1  0.83531  0.16469  0.83333  1
 Ge  Ge6  1  0.32938  0.16469  0.16667  1
 Nb  Nb1  1  -0.00000  0.50000  0.16667  1
 Nb  Nb2  1  0.50000  0.50000  0.83333  1
 Nb  Nb3  1  0.50000  -0.00000  0.50000  1
