CIF file written using JARVIS-Tools package.
data_Li2MnNi2O6
_symmetry_space_group_name_H-M  'Cmce'
_cell_length_a       4.92788
_cell_length_b       4.92788
_cell_length_c       9.76035
_cell_angle_alpha    90
_cell_angle_beta     90
_cell_angle_gamma    118.401

_symmetry_Int_Tables_number  64
_chemical_formula_structural  Li2MnNi2O6
_chemical_formula_sum  Li4Mn2Ni4O2
_cell_volume  208.49153360874465
_cell_formula_units_Z  2
loop_
  _symmetry_equiv_pos_site_id
 _symmetry_equiv_pos_as_xyz
 1  'x, y, z'
loop_
 _atom_site_type_symbol
 _atom_site_label
 _atom_site_symmetry_multiplicity
 _atom_site_fract_x
 _atom_site_fract_y
 _atom_site_fract_z
 _atom_site_fract_occupancy
 Li  Li1  1  0.13826  0.63826  0.75000  1
 Li  Li2  1  0.36174  0.86174  0.25000  1
 Li  Li3  1  0.63826  0.13826  0.75000  1
 Li  Li4  1  0.86174  0.36174  0.25000  1
 Mn  Mn1  1  0.00000  0.00000  0.00000  1
 Mn  Mn2  1  0.50000  0.50000  0.50000  1
 Ni  Ni1  1  0.16374  0.83626  0.50000  1
 Ni  Ni2  1  0.33626  0.66374  0.00000  1
 Ni  Ni3  1  0.66374  0.33626  0.00000  1
 Ni  Ni4  1  0.83626  0.16374  0.50000  1
 O  O1  1  0.81853  0.48133  0.60621  1
 O  O2  1  0.98133  0.31853  0.89379  1
 O  O3  1  0.18147  0.51867  0.39379  1
 O  O4  1  0.48133  0.81853  0.60621  1
 O  O5  1  0.01867  0.68147  0.10621  1
 O  O6  1  0.51867  0.18147  0.39379  1
 O  O7  1  0.67487  0.67487  0.90124  1
 O  O8  1  0.31853  0.98133  0.89379  1
 O  O9  1  0.82513  0.82513  0.40124  1
 O  O10  1  0.17487  0.17487  0.59876  1
 O  O11  1  0.32513  0.32513  0.09876  1
 O  O12  1  0.68147  0.01867  0.10621  1
