CIF file written using JARVIS-Tools package.
data_Te4As2I2O
_symmetry_space_group_name_H-M  'P1'
_cell_length_a       6.57567
_cell_length_b       6.94889
_cell_length_c       8.02229
_cell_angle_alpha    71.4908
_cell_angle_beta     72.9104
_cell_angle_gamma    61.5681

_symmetry_Int_Tables_number  1
_chemical_formula_structural  Te4As2I2O
_chemical_formula_sum  Te4As2I2O
_cell_volume  301.16827723804687
_cell_formula_units_Z  1
loop_
  _symmetry_equiv_pos_site_id
 _symmetry_equiv_pos_as_xyz
 1  'x, y, z'
loop_
 _atom_site_type_symbol
 _atom_site_label
 _atom_site_symmetry_multiplicity
 _atom_site_fract_x
 _atom_site_fract_y
 _atom_site_fract_z
 _atom_site_fract_occupancy
 As  As1  1  0.32178  0.40919  0.95365  1
 As  As2  1  0.69417  0.71721  0.94482  1
 I  I1  1  0.72834  0.87712  0.28920  1
 I  I2  1  0.40702  0.50844  0.35955  1
 O  O1  1  0.02020  0.13750  0.42421  1
 Te  Te1  1  0.88887  0.21733  0.22545  1
 Te  Te2  1  0.06870  0.76258  0.72640  1
 Te  Te3  1  0.31860  0.08504  0.83527  1
 Te  Te4  1  0.71321  0.44648  0.75873  1
