CIF file written using JARVIS-Tools package.
data_Co3O2F4
_symmetry_space_group_name_H-M  'C2'
_cell_length_a       7.45213
_cell_length_b       5.46952
_cell_length_c       5.46952
_cell_angle_alpha    69.3889
_cell_angle_beta     68.6965
_cell_angle_gamma    68.6965

_symmetry_Int_Tables_number  5
_chemical_formula_structural  Co3O2F4
_chemical_formula_sum  Co6O4F8
_cell_volume  187.18891028208887
_cell_formula_units_Z  2
loop_
  _symmetry_equiv_pos_site_id
 _symmetry_equiv_pos_as_xyz
 1  'x, y, z'
loop_
 _atom_site_type_symbol
 _atom_site_label
 _atom_site_symmetry_multiplicity
 _atom_site_fract_x
 _atom_site_fract_y
 _atom_site_fract_z
 _atom_site_fract_occupancy
 Co  Co1  1  0.84117  0.64919  0.66983  1
 Co  Co2  1  0.33507  0.69276  0.64569  1
 Co  Co3  1  0.66493  0.35431  0.30724  1
 Co  Co4  1  0.15883  0.33017  0.35081  1
 Co  Co5  1  0.50000  0.98860  0.01140  1
 Co  Co6  1  -0.00000  0.99002  0.00998  1
 F  F1  1  0.96588  0.22831  0.23403  1
 F  F2  1  0.31158  0.90464  0.90816  1
 F  F3  1  0.63349  0.56340  0.56813  1
 F  F4  1  0.66874  0.03214  0.62589  1
 F  F5  1  0.33126  0.37411  0.96786  1
 F  F6  1  0.68842  0.09184  0.09536  1
 F  F7  1  0.36651  0.43187  0.43660  1
 F  F8  1  0.03412  0.76597  0.77169  1
 O  O1  1  0.66719  0.64249  0.01995  1
 O  O2  1  0.00000  0.29284  0.70716  1
 O  O3  1  -0.00000  0.68726  0.31274  1
 O  O4  1  0.33281  0.98005  0.35751  1
