CIF file written using JARVIS-Tools package.
data_HfH6C5O4
_symmetry_space_group_name_H-M  'P1'
_cell_length_a       4.01444
_cell_length_b       4.68063
_cell_length_c       8.40204
_cell_angle_alpha    94.1952
_cell_angle_beta     96.8961
_cell_angle_gamma    115.435

_symmetry_Int_Tables_number  1
_chemical_formula_structural  HfH6C5O4
_chemical_formula_sum  HfH6C5O4
_cell_volume  140.16462849095194
_cell_formula_units_Z  1
loop_
  _symmetry_equiv_pos_site_id
 _symmetry_equiv_pos_as_xyz
 1  'x, y, z'
loop_
 _atom_site_type_symbol
 _atom_site_label
 _atom_site_symmetry_multiplicity
 _atom_site_fract_x
 _atom_site_fract_y
 _atom_site_fract_z
 _atom_site_fract_occupancy
 C  C1  1  0.04168  0.60443  0.48615  1
 C  C2  1  0.86980  0.53061  0.63820  1
 C  C3  1  0.26874  0.57133  0.09286  1
 C  C4  1  0.06720  0.44008  0.78210  1
 C  C5  1  0.12274  0.66100  0.93723  1
 H  H1  1  0.44165  0.11407  0.01994  1
 H  H2  1  0.84641  0.64198  0.95412  1
 H  H3  1  0.59659  0.32382  0.59489  1
 H  H4  1  0.81687  0.73396  0.67834  1
 H  H5  1  0.33918  0.46078  0.76207  1
 H  H6  1  0.89867  0.19373  0.80045  1
 Hf  Hf1  1  0.02711  0.20135  0.28859  1
 O  O1  1  0.54897  0.25868  0.27375  1
 O  O2  1  0.06410  0.86813  0.44308  1
 O  O3  1  0.35900  0.98090  0.91317  1
 O  O4  1  0.60144  0.77186  0.15231  1
