CIF file written using JARVIS-Tools package.
data_SrLaFe2O6
_symmetry_space_group_name_H-M  'R32'
_cell_length_a       5.42503
_cell_length_b       5.42505
_cell_length_c       5.42572
_cell_angle_alpha    60.2388
_cell_angle_beta     60.2389
_cell_angle_gamma    60.2419

_symmetry_Int_Tables_number  155
_chemical_formula_structural  SrLaFe2O6
_chemical_formula_sum  SrLaFe2O6
_cell_volume  113.5272218323557
_cell_formula_units_Z  1
loop_
  _symmetry_equiv_pos_site_id
 _symmetry_equiv_pos_as_xyz
 1  'x, y, z'
loop_
 _atom_site_type_symbol
 _atom_site_label
 _atom_site_symmetry_multiplicity
 _atom_site_fract_x
 _atom_site_fract_y
 _atom_site_fract_z
 _atom_site_fract_occupancy
 Fe  Fe1  1  0.50011  0.50011  0.50011  1
 Fe  Fe2  1  -0.00011  -0.00011  -0.00011  1
 La  La1  1  0.75000  0.75000  0.75000  1
 O  O1  1  0.72707  0.77293  0.25000  1
 O  O2  1  0.77303  0.24987  0.72698  1
 O  O3  1  0.25013  0.72697  0.77302  1
 O  O4  1  0.21857  0.75010  0.28143  1
 O  O5  1  0.74990  0.28143  0.21857  1
 O  O6  1  0.28132  0.21868  0.75000  1
 Sr  Sr1  1  0.25000  0.25000  0.25000  1
