CIF file written using JARVIS-Tools package.
data_Ce2AlFe3
_symmetry_space_group_name_H-M  'R-3m'
_cell_length_a       5.24498
_cell_length_b       5.24497
_cell_length_c       5.13313
_cell_angle_alpha    90
_cell_angle_beta     59.2766
_cell_angle_gamma    120

_symmetry_Int_Tables_number  166
_chemical_formula_structural  Ce2AlFe3
_chemical_formula_sum  Ce2AlFe3
_cell_volume  98.7454229058691
_cell_formula_units_Z  1
loop_
  _symmetry_equiv_pos_site_id
 _symmetry_equiv_pos_as_xyz
 1  'x, y, z'
loop_
 _atom_site_type_symbol
 _atom_site_label
 _atom_site_symmetry_multiplicity
 _atom_site_fract_x
 _atom_site_fract_y
 _atom_site_fract_z
 _atom_site_fract_occupancy
 Al  Al1  1  0.75000  0.37500  0.87500  1
 Ce  Ce1  1  0.51706  0.75853  0.72440  1
 Ce  Ce2  1  0.98294  0.99147  0.02560  1
 Fe  Fe1  1  0.25000  0.37500  0.37500  1
 Fe  Fe2  1  0.25000  0.87500  0.37500  1
 Fe  Fe3  1  0.75000  0.37500  0.37500  1
