CIF file written using JARVIS-Tools package.
data_FeSi4P4
_symmetry_space_group_name_H-M  'P1'
_cell_length_a       4.91695
_cell_length_b       5.59299
_cell_length_c       6.11487
_cell_angle_alpha    85.3399
_cell_angle_beta     111.588
_cell_angle_gamma    109.601

_symmetry_Int_Tables_number  1
_chemical_formula_structural  FeSi4P4
_chemical_formula_sum  FeSi4P4
_cell_volume  147.1328859789441
_cell_formula_units_Z  1
loop_
  _symmetry_equiv_pos_site_id
 _symmetry_equiv_pos_as_xyz
 1  'x, y, z'
loop_
 _atom_site_type_symbol
 _atom_site_label
 _atom_site_symmetry_multiplicity
 _atom_site_fract_x
 _atom_site_fract_y
 _atom_site_fract_z
 _atom_site_fract_occupancy
 Fe  Fe1  1  0.99951  0.00078  0.00023  1
 P  P1  1  0.15631  0.98845  0.69105  1
 P  P2  1  0.63499  0.60037  0.88263  1
 P  P3  1  0.76292  0.35841  0.43537  1
 P  P4  1  0.32862  0.78104  0.23078  1
 Si  Si1  1  0.68069  0.22248  0.78355  1
 Si  Si2  1  0.23887  0.66116  0.56906  1
 Si  Si3  1  0.34443  0.40034  0.11404  1
 Si  Si4  1  0.84685  0.02867  0.30248  1
