CIF file written using JARVIS-Tools package.
data_HoNiGe
_symmetry_space_group_name_H-M  'C2/m'
_cell_length_a       5.4626
_cell_length_b       5.4626
_cell_length_c       6.82766
_cell_angle_alpha    51.9471
_cell_angle_beta     51.9471
_cell_angle_gamma    44.0689

_symmetry_Int_Tables_number  12
_chemical_formula_structural  HoNiGe
_chemical_formula_sum  Ho2Ni2Ge2
_cell_volume  105.8360997095795
_cell_formula_units_Z  2
loop_
  _symmetry_equiv_pos_site_id
 _symmetry_equiv_pos_as_xyz
 1  'x, y, z'
loop_
 _atom_site_type_symbol
 _atom_site_label
 _atom_site_symmetry_multiplicity
 _atom_site_fract_x
 _atom_site_fract_y
 _atom_site_fract_z
 _atom_site_fract_occupancy
 Ge  Ge1  1  0.83015  0.83015  0.60185  1
 Ge  Ge2  1  0.16985  0.16985  0.39815  1
 Ho  Ho1  1  0.44802  0.44802  0.81239  1
 Ho  Ho2  1  0.55198  0.55198  0.18761  1
 Ni  Ni1  1  0.16746  0.16746  0.78300  1
 Ni  Ni2  1  0.83254  0.83254  0.21700  1
