CIF file written using JARVIS-Tools package.
data_H7C8SN
_symmetry_space_group_name_H-M  'P1'
_cell_length_a       5.74136
_cell_length_b       6.601
_cell_length_c       10.4898
_cell_angle_alpha    91.8026
_cell_angle_beta     88.645
_cell_angle_gamma    59.0792

_symmetry_Int_Tables_number  1
_chemical_formula_structural  H7C8SN
_chemical_formula_sum  H4C6S2N2
_cell_volume  340.5148197897453
_cell_formula_units_Z  2
loop_
  _symmetry_equiv_pos_site_id
 _symmetry_equiv_pos_as_xyz
 1  'x, y, z'
loop_
 _atom_site_type_symbol
 _atom_site_label
 _atom_site_symmetry_multiplicity
 _atom_site_fract_x
 _atom_site_fract_y
 _atom_site_fract_z
 _atom_site_fract_occupancy
 C  C1  1  0.71047  0.41807  0.11221  1
 C  C2  1  0.93257  0.61186  0.43414  1
 C  C3  1  0.16990  0.95207  0.77113  1
 C  C4  1  0.66990  0.95207  0.27113  1
 C  C5  1  0.80333  0.48216  0.45169  1
 C  C6  1  0.38249  0.31509  0.04521  1
 C  C7  1  0.88249  0.31509  0.54522  1
 C  C8  1  0.43257  0.61186  0.93414  1
 C  C9  1  0.30333  0.48216  0.95169  1
 C  C10  1  0.59689  0.27562  0.12208  1
 C  C11  1  0.42448  0.73506  0.81426  1
 C  C12  1  0.92448  0.73506  0.31426  1
 C  C13  1  0.62776  0.58517  0.02033  1
 C  C14  1  0.12775  0.58517  0.52033  1
 C  C15  1  0.09688  0.27562  0.62208  1
 C  C16  1  0.21047  0.41807  0.61222  1
 H  H1  1  0.72771  0.68704  0.01009  1
 H  H2  1  0.29265  0.20510  0.05152  1
 H  H3  1  0.44242  0.02811  0.70042  1
 H  H4  1  0.94242  0.02811  0.20042  1
 H  H5  1  0.37632  0.38477  0.67307  1
 H  H6  1  0.64971  0.50064  0.38629  1
 H  H7  1  0.79265  0.20510  0.55152  1
 H  H8  1  0.14971  0.50064  0.88629  1
 H  H9  1  0.08627  0.77757  0.31939  1
 H  H10  1  0.58627  0.77757  0.81939  1
 H  H11  1  -0.00647  0.60316  0.23313  1
 H  H12  1  0.49353  0.60316  0.73313  1
 H  H13  1  0.22771  0.68704  0.51009  1
 H  H14  1  0.87632  0.38477  0.17307  1
 N  N1  1  0.74131  0.07917  0.19874  1
 N  N2  1  0.24132  0.07916  0.69874  1
 S  S1  1  0.35454  0.01725  0.30561  1
 S  S2  1  0.85454  0.01725  0.80561  1
