CIF file written using JARVIS-Tools package.
data_Ba2IBrF2
_symmetry_space_group_name_H-M  'P4mm'
_cell_length_a       4.58738
_cell_length_b       4.58738
_cell_length_c       7.8904
_cell_angle_alpha    90
_cell_angle_beta     90
_cell_angle_gamma    90

_symmetry_Int_Tables_number  99
_chemical_formula_structural  Ba2IBrF2
_chemical_formula_sum  Ba2IBrF2
_cell_volume  166.04617527140888
_cell_formula_units_Z  1
loop_
  _symmetry_equiv_pos_site_id
 _symmetry_equiv_pos_as_xyz
 1  'x, y, z'
loop_
 _atom_site_type_symbol
 _atom_site_label
 _atom_site_symmetry_multiplicity
 _atom_site_fract_x
 _atom_site_fract_y
 _atom_site_fract_z
 _atom_site_fract_occupancy
 Ba  Ba1  1  0.50000  0.50000  0.82844  1
 Ba  Ba2  1  0.00000  0.00000  0.18746  1
 Br  Br1  1  0.50000  0.50000  0.33615  1
 F  F1  1  0.50000  0.00000  0.00367  1
 F  F2  1  0.00000  0.50000  0.00367  1
 I  I1  1  0.00000  0.00000  0.64061  1
