CIF file written using JARVIS-Tools package.
data_SrInAu5
_symmetry_space_group_name_H-M  'I-4m2'
_cell_length_a       5.88385
_cell_length_b       5.88386
_cell_length_c       5.88385
_cell_angle_alpha    102.731
_cell_angle_beta     102.731
_cell_angle_gamma    124.004

_symmetry_Int_Tables_number  119
_chemical_formula_structural  SrInAu5
_chemical_formula_sum  SrInAu5
_cell_volume  149.10212457795646
_cell_formula_units_Z  1
loop_
  _symmetry_equiv_pos_site_id
 _symmetry_equiv_pos_as_xyz
 1  'x, y, z'
loop_
 _atom_site_type_symbol
 _atom_site_label
 _atom_site_symmetry_multiplicity
 _atom_site_fract_x
 _atom_site_fract_y
 _atom_site_fract_z
 _atom_site_fract_occupancy
 Au  Au1  1  0.30656  0.69344  0.00000  1
 Au  Au2  1  0.69344  0.30656  0.00000  1
 Au  Au3  1  0.69344  0.69344  0.38688  1
 Au  Au4  1  0.30656  0.30656  0.61312  1
 Au  Au5  1  0.25000  0.75000  0.50000  1
 In  In1  1  0.75000  0.25000  0.50000  1
 Sr  Sr1  1  0.00000  0.00000  0.00000  1
