CIF file written using JARVIS-Tools package.
data_Br2Cl3
_symmetry_space_group_name_H-M  'R-3m'
_cell_length_a       5.68405
_cell_length_b       5.68405
_cell_length_c       5.68405
_cell_angle_alpha    98.7887
_cell_angle_beta     98.7887
_cell_angle_gamma    98.7888

_symmetry_Int_Tables_number  166
_chemical_formula_structural  Br2Cl3
_chemical_formula_sum  Br2Cl3
_cell_volume  176.4144495786052
_cell_formula_units_Z  1
loop_
  _symmetry_equiv_pos_site_id
 _symmetry_equiv_pos_as_xyz
 1  'x, y, z'
loop_
 _atom_site_type_symbol
 _atom_site_label
 _atom_site_symmetry_multiplicity
 _atom_site_fract_x
 _atom_site_fract_y
 _atom_site_fract_z
 _atom_site_fract_occupancy
 Br  Br1  1  0.78159  0.78159  0.78159  1
 Br  Br2  1  0.21841  0.21841  0.21841  1
 Cl  Cl1  1  0.00000  -0.00000  0.50000  1
 Cl  Cl2  1  0.50000  -0.00000  -0.00000  1
 Cl  Cl3  1  -0.00000  0.50000  -0.00000  1
