CIF file written using JARVIS-Tools package.
data_Ba4IrO6
_symmetry_space_group_name_H-M  'R-3c'
_cell_length_a       7.32064
_cell_length_b       7.32064
_cell_length_c       7.32064
_cell_angle_alpha    89.5871
_cell_angle_beta     89.5871
_cell_angle_gamma    89.5871

_symmetry_Int_Tables_number  167
_chemical_formula_structural  Ba4IrO6
_chemical_formula_sum  Ba8Ir2O2
_cell_volume  392.295838074369
_cell_formula_units_Z  2
loop_
  _symmetry_equiv_pos_site_id
 _symmetry_equiv_pos_as_xyz
 1  'x, y, z'
loop_
 _atom_site_type_symbol
 _atom_site_label
 _atom_site_symmetry_multiplicity
 _atom_site_fract_x
 _atom_site_fract_y
 _atom_site_fract_z
 _atom_site_fract_occupancy
 Ba  Ba1  1  0.11659  0.75000  0.38341  1
 Ba  Ba2  1  0.25000  0.61659  0.88341  1
 Ba  Ba3  1  0.61659  0.88341  0.25000  1
 Ba  Ba4  1  0.75000  0.75000  0.75000  1
 Ba  Ba5  1  0.25000  0.25000  0.25000  1
 Ba  Ba6  1  0.38341  0.11659  0.75000  1
 Ba  Ba7  1  0.75000  0.38341  0.11659  1
 Ba  Ba8  1  0.88341  0.25000  0.61659  1
 Ir  Ir1  1  0.00000  0.00000  0.00000  1
 Ir  Ir2  1  0.50000  0.50000  0.50000  1
 O  O1  1  0.72877  0.06134  0.92729  1
 O  O2  1  0.27123  0.93866  0.07271  1
 O  O3  1  0.43866  0.77123  0.57271  1
 O  O4  1  0.22877  0.42729  0.56134  1
 O  O5  1  0.06134  0.92729  0.72877  1
 O  O6  1  0.56134  0.22877  0.42729  1
 O  O7  1  0.57271  0.43866  0.77123  1
 O  O8  1  0.77123  0.57271  0.43866  1
 O  O9  1  0.92729  0.72877  0.06134  1
 O  O10  1  0.07271  0.27123  0.93866  1
 O  O11  1  0.42729  0.56134  0.22877  1
 O  O12  1  0.93866  0.07271  0.27123  1
