CIF file written using JARVIS-Tools package.
data_Ca2Ga7Ag
_symmetry_space_group_name_H-M  'P-4m2'
_cell_length_a       4.30557
_cell_length_b       4.30557
_cell_length_c       10.9932
_cell_angle_alpha    90
_cell_angle_beta     90
_cell_angle_gamma    90

_symmetry_Int_Tables_number  115
_chemical_formula_structural  Ca2Ga7Ag
_chemical_formula_sum  Ca2Ga7Ag
_cell_volume  203.79141481600638
_cell_formula_units_Z  1
loop_
  _symmetry_equiv_pos_site_id
 _symmetry_equiv_pos_as_xyz
 1  'x, y, z'
loop_
 _atom_site_type_symbol
 _atom_site_label
 _atom_site_symmetry_multiplicity
 _atom_site_fract_x
 _atom_site_fract_y
 _atom_site_fract_z
 _atom_site_fract_occupancy
 Ag  Ag1  1  0.50000  0.50000  0.00000  1
 Ca  Ca1  1  0.50000  0.00000  0.75254  1
 Ca  Ca2  1  0.00000  0.50000  0.24746  1
 Ga  Ga1  1  0.00000  0.50000  0.86231  1
 Ga  Ga2  1  0.50000  0.00000  0.36261  1
 Ga  Ga3  1  0.50000  0.00000  0.13769  1
 Ga  Ga4  1  0.00000  0.50000  0.63739  1
 Ga  Ga5  1  0.00000  0.00000  0.50000  1
 Ga  Ga6  1  0.00000  0.00000  0.00000  1
 Ga  Ga7  1  0.50000  0.50000  0.50000  1
