CIF file written using JARVIS-Tools package.
data_LiHF2
_symmetry_space_group_name_H-M  'C2/m'
_cell_length_a       2.95896
_cell_length_b       2.95896
_cell_length_c       5.3719
_cell_angle_alpha    60.1117
_cell_angle_beta     60.1117
_cell_angle_gamma    60.3717

_symmetry_Int_Tables_number  12
_chemical_formula_structural  LiHF2
_chemical_formula_sum  LiHF2
_cell_volume  33.40649103865925
_cell_formula_units_Z  1
loop_
  _symmetry_equiv_pos_site_id
 _symmetry_equiv_pos_as_xyz
 1  'x, y, z'
loop_
 _atom_site_type_symbol
 _atom_site_label
 _atom_site_symmetry_multiplicity
 _atom_site_fract_x
 _atom_site_fract_y
 _atom_site_fract_z
 _atom_site_fract_occupancy
 F  F1  1  0.81252  0.81252  0.75886  1
 F  F2  1  0.18748  0.18748  0.24114  1
 H  H1  1  -0.00000  0.00000  0.50000  1
 Li  Li1  1  0.00000  0.00000  0.00000  1
