CIF file written using JARVIS-Tools package.
data_CaCrN2
_symmetry_space_group_name_H-M  'P4/nmm'
_cell_length_a       3.67574
_cell_length_b       3.67574
_cell_length_c       7.33576
_cell_angle_alpha    90
_cell_angle_beta     90
_cell_angle_gamma    90

_symmetry_Int_Tables_number  129
_chemical_formula_structural  CaCrN2
_chemical_formula_sum  Ca2Cr2N4
_cell_volume  99.11384358025298
_cell_formula_units_Z  2
loop_
  _symmetry_equiv_pos_site_id
 _symmetry_equiv_pos_as_xyz
 1  'x, y, z'
loop_
 _atom_site_type_symbol
 _atom_site_label
 _atom_site_symmetry_multiplicity
 _atom_site_fract_x
 _atom_site_fract_y
 _atom_site_fract_z
 _atom_site_fract_occupancy
 Ca  Ca1  1  0.75000  0.75000  0.16006  1
 Ca  Ca2  1  0.25000  0.25000  0.83994  1
 Cr  Cr1  1  0.75000  0.75000  0.59389  1
 Cr  Cr2  1  0.25000  0.25000  0.40611  1
 N  N1  1  0.75000  0.25000  0.50000  1
 N  N2  1  0.25000  0.75000  0.50000  1
 N  N3  1  0.75000  0.75000  0.83518  1
 N  N4  1  0.25000  0.25000  0.16482  1
