CIF file written using JARVIS-Tools package.
data_K4CdAs2
_symmetry_space_group_name_H-M  'R-3m'
_cell_length_a       9.87409
_cell_length_b       9.87409
_cell_length_c       9.87408
_cell_angle_alpha    33.8308
_cell_angle_beta     33.8308
_cell_angle_gamma    33.8308

_symmetry_Int_Tables_number  166
_chemical_formula_structural  K4CdAs2
_chemical_formula_sum  K4CdAs2
_cell_volume  265.91220815421093
_cell_formula_units_Z  1
loop_
  _symmetry_equiv_pos_site_id
 _symmetry_equiv_pos_as_xyz
 1  'x, y, z'
loop_
 _atom_site_type_symbol
 _atom_site_label
 _atom_site_symmetry_multiplicity
 _atom_site_fract_x
 _atom_site_fract_y
 _atom_site_fract_z
 _atom_site_fract_occupancy
 As  As1  1  0.90994  0.90994  0.90994  1
 As  As2  1  0.09006  0.09006  0.09006  1
 Cd  Cd1  1  0.00000  0.00000  0.00000  1
 K  K1  1  0.20796  0.20796  0.20796  1
 K  K2  1  0.79204  0.79204  0.79204  1
 K  K3  1  0.39077  0.39077  0.39077  1
 K  K4  1  0.60923  0.60923  0.60923  1
