CIF file written using JARVIS-Tools package.
data_ZnH4C4O4
_symmetry_space_group_name_H-M  'P1'
_cell_length_a       3.98445
_cell_length_b       4.39888
_cell_length_c       7.21739
_cell_angle_alpha    83.5706
_cell_angle_beta     87.0888
_cell_angle_gamma    71.1667

_symmetry_Int_Tables_number  1
_chemical_formula_structural  ZnH4C4O4
_chemical_formula_sum  ZnH4C4O4
_cell_volume  118.95981426833778
_cell_formula_units_Z  1
loop_
  _symmetry_equiv_pos_site_id
 _symmetry_equiv_pos_as_xyz
 1  'x, y, z'
loop_
 _atom_site_type_symbol
 _atom_site_label
 _atom_site_symmetry_multiplicity
 _atom_site_fract_x
 _atom_site_fract_y
 _atom_site_fract_z
 _atom_site_fract_occupancy
 C  C1  1  0.46428  0.63499  0.51972  1
 C  C2  1  0.23473  0.66518  0.69462  1
 C  C3  1  0.43359  0.70761  0.86286  1
 C  C4  1  0.20673  0.72312  0.03869  1
 H  H1  1  0.99360  0.87324  0.67028  1
 H  H2  1  0.16281  0.44279  0.72324  1
 H  H3  1  0.50107  0.93254  0.83781  1
 H  H4  1  0.67573  0.49959  0.88531  1
 O  O1  1  0.41993  0.86841  0.39413  1
 O  O2  1  0.70748  0.36184  0.50903  1
 O  O3  1  0.26620  0.46531  0.14907  1
 O  O4  1  0.97023  -0.00943  0.06534  1
 Zn  Zn1  1  0.97717  0.21496  0.28659  1
