CIF file written using JARVIS-Tools package.
data_Li5Ni5Sn2O12
_symmetry_space_group_name_H-M  'C2'
_cell_length_a       5.20305
_cell_length_b       5.20305
_cell_length_c       9.90486
_cell_angle_alpha    84.7058
_cell_angle_beta     95.2942
_cell_angle_gamma    59.7368

_symmetry_Int_Tables_number  5
_chemical_formula_structural  Li5Ni5Sn2O12
_chemical_formula_sum  Li5Ni5Sn2O2
_cell_volume  227.58930492914016
_cell_formula_units_Z  1
loop_
  _symmetry_equiv_pos_site_id
 _symmetry_equiv_pos_as_xyz
 1  'x, y, z'
loop_
 _atom_site_type_symbol
 _atom_site_label
 _atom_site_symmetry_multiplicity
 _atom_site_fract_x
 _atom_site_fract_y
 _atom_site_fract_z
 _atom_site_fract_occupancy
 Li  Li1  1  0.18667  0.68022  0.50336  1
 Li  Li2  1  0.32212  0.81729  0.99205  1
 Li  Li3  1  0.68022  0.18667  0.99664  1
 Li  Li4  1  0.81729  0.32212  0.50795  1
 Li  Li5  1  0.90692  0.90692  0.75000  1
 Ni  Ni1  1  0.08781  0.08781  0.25000  1
 Ni  Ni2  1  0.99772  0.50650  0.99548  1
 Ni  Ni3  1  0.50650  0.99772  0.50452  1
 Ni  Ni4  1  0.41911  0.41911  0.25000  1
 Ni  Ni5  1  0.57965  0.57965  0.75000  1
 O  O1  1  0.61586  0.85444  0.86967  1
 O  O2  1  0.72183  0.46183  0.12881  1
 O  O3  1  0.46183  0.72183  0.37119  1
 O  O4  1  0.52947  0.29157  0.62757  1
 O  O5  1  0.29157  0.52947  0.87243  1
 O  O6  1  0.37062  0.13829  0.13200  1
 O  O7  1  0.04284  0.78676  0.12706  1
 O  O8  1  0.22663  0.95538  0.62427  1
 O  O9  1  0.95538  0.22663  0.87573  1
 O  O10  1  0.78676  0.04284  0.37294  1
 O  O11  1  0.85444  0.61586  0.63033  1
 O  O12  1  0.13829  0.37062  0.36800  1
 Sn  Sn1  1  0.75364  0.75364  0.25000  1
 Sn  Sn2  1  0.24682  0.24682  0.75000  1
