CIF file written using JARVIS-Tools package.
data_Hg2IBr3
_symmetry_space_group_name_H-M  'Cm'
_cell_length_a       4.22659
_cell_length_b       4.22659
_cell_length_c       12.7204
_cell_angle_alpha    89.7932
_cell_angle_beta     89.7932
_cell_angle_gamma    64.629

_symmetry_Int_Tables_number  8
_chemical_formula_structural  Hg2IBr3
_chemical_formula_sum  Hg2IBr3
_cell_volume  205.3191192174198
_cell_formula_units_Z  1
loop_
  _symmetry_equiv_pos_site_id
 _symmetry_equiv_pos_as_xyz
 1  'x, y, z'
loop_
 _atom_site_type_symbol
 _atom_site_label
 _atom_site_symmetry_multiplicity
 _atom_site_fract_x
 _atom_site_fract_y
 _atom_site_fract_z
 _atom_site_fract_occupancy
 Br  Br1  1  0.43118  0.43118  0.79958  1
 Br  Br2  1  0.11058  0.11058  0.57553  1
 Br  Br3  1  0.89005  0.89005  0.05946  1
 Hg  Hg1  1  0.84059  0.84059  0.44419  1
 Hg  Hg2  1  0.15805  0.15805  0.92778  1
 I  I1  1  0.56956  0.56956  0.29650  1
