CIF file written using JARVIS-Tools package.
data_PrTl2InTe4
_symmetry_space_group_name_H-M  'I-42m'
_cell_length_a       7.0808
_cell_length_b       7.0808
_cell_length_c       7.0808
_cell_angle_alpha    107.318
_cell_angle_beta     107.318
_cell_angle_gamma    113.868

_symmetry_Int_Tables_number  121
_chemical_formula_structural  PrTl2InTe4
_chemical_formula_sum  PrTl2InTe4
_cell_volume  272.0741873668523
_cell_formula_units_Z  1
loop_
  _symmetry_equiv_pos_site_id
 _symmetry_equiv_pos_as_xyz
 1  'x, y, z'
loop_
 _atom_site_type_symbol
 _atom_site_label
 _atom_site_symmetry_multiplicity
 _atom_site_fract_x
 _atom_site_fract_y
 _atom_site_fract_z
 _atom_site_fract_occupancy
 In  In1  1  0.00000  0.00000  0.00000  1
 Pr  Pr1  1  0.50000  0.50000  0.00000  1
 Te  Te1  1  0.58339  0.97006  0.00000  1
 Te  Te2  1  0.97006  0.58339  0.00000  1
 Te  Te3  1  0.02994  0.02994  0.61333  1
 Te  Te4  1  0.41661  0.41661  0.38667  1
 Tl  Tl1  1  0.50000  -0.00000  0.50000  1
 Tl  Tl2  1  -0.00000  0.50000  0.50000  1
