CIF file written using JARVIS-Tools package.
data_B6P
_symmetry_space_group_name_H-M  'R-3m'
_cell_length_a       5.25144
_cell_length_b       5.25144
_cell_length_c       5.25144
_cell_angle_alpha    69.6398
_cell_angle_beta     69.6399
_cell_angle_gamma    69.6398

_symmetry_Int_Tables_number  166
_chemical_formula_structural  B6P
_chemical_formula_sum  B2P2
_cell_volume  122.97790967933085
_cell_formula_units_Z  2
loop_
  _symmetry_equiv_pos_site_id
 _symmetry_equiv_pos_as_xyz
 1  'x, y, z'
loop_
 _atom_site_type_symbol
 _atom_site_label
 _atom_site_symmetry_multiplicity
 _atom_site_fract_x
 _atom_site_fract_y
 _atom_site_fract_z
 _atom_site_fract_occupancy
 B  B1  1  0.18380  0.71780  0.18380  1
 B  B2  1  0.18380  0.18380  0.71780  1
 B  B3  1  0.71780  0.18380  0.18380  1
 B  B4  1  0.28220  0.81620  0.81620  1
 B  B5  1  0.81620  0.28220  0.81620  1
 B  B6  1  0.81620  0.81620  0.28220  1
 B  B7  1  0.01277  0.32675  0.01277  1
 B  B8  1  0.01277  0.01277  0.32675  1
 B  B9  1  0.32675  0.01277  0.01277  1
 B  B10  1  0.67325  0.98723  0.98723  1
 B  B11  1  0.98723  0.67325  0.98723  1
 B  B12  1  0.98723  0.98723  0.67325  1
 P  P1  1  0.40467  0.40467  0.40467  1
 P  P2  1  0.59533  0.59533  0.59533  1
