CIF file written using JARVIS-Tools package.
data_ZnH10C7O4
_symmetry_space_group_name_H-M  'P1'
_cell_length_a       3.937
_cell_length_b       4.7389
_cell_length_c       10.7863
_cell_angle_alpha    88.6414
_cell_angle_beta     99.734
_cell_angle_gamma    111.781

_symmetry_Int_Tables_number  1
_chemical_formula_structural  ZnH10C7O4
_chemical_formula_sum  ZnH0C7O4
_cell_volume  184.0168905361949
_cell_formula_units_Z  1
loop_
  _symmetry_equiv_pos_site_id
 _symmetry_equiv_pos_as_xyz
 1  'x, y, z'
loop_
 _atom_site_type_symbol
 _atom_site_label
 _atom_site_symmetry_multiplicity
 _atom_site_fract_x
 _atom_site_fract_y
 _atom_site_fract_z
 _atom_site_fract_occupancy
 C  C1  1  0.60543  0.57694  0.03476  1
 C  C2  1  0.66758  0.46125  0.80763  1
 C  C3  1  0.77996  0.61721  0.68685  1
 C  C4  1  0.73393  0.39625  0.57867  1
 C  C5  1  0.86951  0.56264  0.46241  1
 C  C6  1  0.82704  0.35204  0.35305  1
 C  C7  1  0.72776  0.69595  0.91183  1
 H  H1  1  0.16060  0.71916  0.48420  1
 H  H2  1  0.88982  0.24888  0.61002  1
 H  H3  1  0.57336  0.84455  0.87962  1
 H  H4  1  0.61481  0.75809  0.65640  1
 H  H5  1  0.07199  0.77716  0.70750  1
 H  H6  1  0.83318  0.32195  0.83943  1
 H  H7  1  0.37472  0.30538  0.78892  1
 H  H8  1  0.44059  0.24435  0.55300  1
 H  H9  1  0.01987  0.85115  0.93248  1
 H  H10  1  0.70436  0.70081  0.42666  1
 O  O1  1  0.08193  0.43114  0.28629  1
 O  O2  1  0.37386  0.30259  0.03498  1
 O  O3  1  0.53799  0.10605  0.33033  1
 O  O4  1  0.71781  0.75311  0.13292  1
 Zn  Zn1  1  0.15605  0.12179  0.18633  1
