CIF file written using JARVIS-Tools package.
data_Pb2SeS
_symmetry_space_group_name_H-M  'R-3m'
_cell_length_a       7.45588
_cell_length_b       7.45588
_cell_length_c       7.45587
_cell_angle_alpha    33.5538
_cell_angle_beta     33.5538
_cell_angle_gamma    33.5538

_symmetry_Int_Tables_number  166
_chemical_formula_structural  Pb2SeS
_chemical_formula_sum  Pb2SeS
_cell_volume  112.78378773021659
_cell_formula_units_Z  1
loop_
  _symmetry_equiv_pos_site_id
 _symmetry_equiv_pos_as_xyz
 1  'x, y, z'
loop_
 _atom_site_type_symbol
 _atom_site_label
 _atom_site_symmetry_multiplicity
 _atom_site_fract_x
 _atom_site_fract_y
 _atom_site_fract_z
 _atom_site_fract_occupancy
 Pb  Pb1  1  0.24686  0.24686  0.24686  1
 Pb  Pb2  1  0.75314  0.75314  0.75314  1
 S  S1  1  0.50000  0.50000  0.50000  1
 Se  Se1  1  0.00000  0.00000  0.00000  1
