CIF file written using JARVIS-Tools package.
data_Cr7Se8
_symmetry_space_group_name_H-M  'C2/m'
_cell_length_a       7.4311
_cell_length_b       7.07924
_cell_length_c       8.74368
_cell_angle_alpha    54.8082
_cell_angle_beta     51.1263
_cell_angle_gamma    75.2577

_symmetry_Int_Tables_number  12
_chemical_formula_structural  Cr7Se8
_chemical_formula_sum  Cr7Se8
_cell_volume  288.46672861504067
_cell_formula_units_Z  1
loop_
  _symmetry_equiv_pos_site_id
 _symmetry_equiv_pos_as_xyz
 1  'x, y, z'
loop_
 _atom_site_type_symbol
 _atom_site_label
 _atom_site_symmetry_multiplicity
 _atom_site_fract_x
 _atom_site_fract_y
 _atom_site_fract_z
 _atom_site_fract_occupancy
 Cr  Cr1  1  0.50000  0.50000  0.50000  1
 Cr  Cr2  1  0.50000  0.00000  -0.00000  1
 Cr  Cr3  1  -0.00000  0.50000  0.50000  1
 Cr  Cr4  1  0.76912  0.76912  0.73088  1
 Cr  Cr5  1  0.23088  0.23088  0.26912  1
 Cr  Cr6  1  0.76564  0.23436  0.24255  1
 Cr  Cr7  1  0.23436  0.76564  0.75745  1
 Se  Se1  1  0.95160  0.04840  0.71553  1
 Se  Se2  1  0.04840  0.95160  0.28447  1
 Se  Se3  1  0.46377  0.53623  0.20362  1
 Se  Se4  1  0.53623  0.46377  0.79638  1
 Se  Se5  1  0.47028  0.04235  0.69856  1
 Se  Se6  1  0.04235  0.47028  0.78880  1
 Se  Se7  1  0.95765  0.52972  0.21120  1
 Se  Se8  1  0.52972  0.95765  0.30144  1
