CIF file written using JARVIS-Tools package.
data_VOF3
_symmetry_space_group_name_H-M  'C2'
_cell_length_a       6.94056
_cell_length_b       6.94056
_cell_length_c       4.54501
_cell_angle_alpha    70.0055
_cell_angle_beta     70.0055
_cell_angle_gamma    38.7581

_symmetry_Int_Tables_number  5
_chemical_formula_structural  VOF3
_chemical_formula_sum  V2O2F6
_cell_volume  127.74274397765151
_cell_formula_units_Z  2
loop_
  _symmetry_equiv_pos_site_id
 _symmetry_equiv_pos_as_xyz
 1  'x, y, z'
loop_
 _atom_site_type_symbol
 _atom_site_label
 _atom_site_symmetry_multiplicity
 _atom_site_fract_x
 _atom_site_fract_y
 _atom_site_fract_z
 _atom_site_fract_occupancy
 F  F1  1  0.63232  0.55076  0.72456  1
 F  F2  1  0.63293  0.77707  0.07865  1
 F  F3  1  0.85303  0.98311  0.86197  1
 F  F4  1  0.44924  0.36768  0.27544  1
 F  F5  1  0.22293  0.36707  0.92135  1
 F  F6  1  0.01689  0.14697  0.13803  1
 O  O1  1  0.83808  0.76795  0.47240  1
 O  O2  1  0.23205  0.16192  0.52760  1
 V  V1  1  0.96845  0.39236  0.80151  1
 V  V2  1  0.60764  0.03155  0.19849  1
