CIF file written using JARVIS-Tools package.
data_H4C8SO2
_symmetry_space_group_name_H-M  'P1'
_cell_length_a       3.83445
_cell_length_b       8.94727
_cell_length_c       10.2664
_cell_angle_alpha    101.18
_cell_angle_beta     102.001
_cell_angle_gamma    99.2684

_symmetry_Int_Tables_number  1
_chemical_formula_structural  H4C8SO2
_chemical_formula_sum  H8C6S2O4
_cell_volume  330.4557898439677
_cell_formula_units_Z  2
loop_
  _symmetry_equiv_pos_site_id
 _symmetry_equiv_pos_as_xyz
 1  'x, y, z'
loop_
 _atom_site_type_symbol
 _atom_site_label
 _atom_site_symmetry_multiplicity
 _atom_site_fract_x
 _atom_site_fract_y
 _atom_site_fract_z
 _atom_site_fract_occupancy
 C  C1  1  0.89063  0.14542  0.40925  1
 C  C2  1  0.10196  0.92495  0.54786  1
 C  C3  1  0.63799  0.25064  0.20134  1
 C  C4  1  0.13799  0.75064  0.70134  1
 C  C5  1  0.51847  0.55807  0.12066  1
 C  C6  1  0.01847  0.05807  0.62066  1
 C  C7  1  0.41951  0.66880  0.05138  1
 C  C8  1  0.91951  0.16880  0.55138  1
 C  C9  1  0.86936  0.27659  0.34472  1
 C  C10  1  0.36936  0.77659  0.84472  1
 C  C11  1  0.93093  0.00135  0.33597  1
 C  C12  1  0.43093  0.50135  0.83597  1
 C  C13  1  0.04622  0.89221  0.40596  1
 C  C14  1  0.54622  0.39221  0.90596  1
 C  C15  1  0.60196  0.42495  0.04786  1
 C  C16  1  0.39063  0.64542  0.90925  1
 H  H1  1  0.60766  0.28557  0.85289  1
 H  H2  1  0.90071  0.98066  0.22579  1
 H  H3  1  0.40071  0.48066  0.72579  1
 H  H4  1  0.04812  0.07544  0.73074  1
 H  H5  1  0.54812  0.57544  0.23074  1
 H  H6  1  0.86864  0.27691  0.60637  1
 H  H7  1  0.36864  0.77692  0.10637  1
 H  H8  1  0.10766  0.78557  0.35289  1
 O  O1  1  0.33334  0.16861  0.16228  1
 O  O2  1  0.79220  0.33596  0.12274  1
 O  O3  1  0.29220  0.83596  0.62274  1
 O  O4  1  0.83334  0.66861  0.66228  1
 S  S1  1  0.55285  0.95808  0.92715  1
 S  S2  1  0.05285  0.45808  0.42715  1
