CIF file written using JARVIS-Tools package.
data_CaZn2P2
_symmetry_space_group_name_H-M  'P-3m1'
_cell_length_a       4.0475
_cell_length_b       4.0475
_cell_length_c       6.82194
_cell_angle_alpha    90
_cell_angle_beta     90
_cell_angle_gamma    120

_symmetry_Int_Tables_number  164
_chemical_formula_structural  CaZn2P2
_chemical_formula_sum  CaZn2P2
_cell_volume  96.78610448604003
_cell_formula_units_Z  1
loop_
  _symmetry_equiv_pos_site_id
 _symmetry_equiv_pos_as_xyz
 1  'x, y, z'
loop_
 _atom_site_type_symbol
 _atom_site_label
 _atom_site_symmetry_multiplicity
 _atom_site_fract_x
 _atom_site_fract_y
 _atom_site_fract_z
 _atom_site_fract_occupancy
 Ca  Ca1  1  0.00000  0.00000  0.00000  1
 P  P1  1  0.66667  0.33333  0.74027  1
 P  P2  1  0.33333  0.66667  0.25973  1
 Zn  Zn1  1  0.33333  0.66667  0.63515  1
 Zn  Zn2  1  0.66667  0.33333  0.36485  1
