CIF file written using JARVIS-Tools package.
data_SbTePd2
_symmetry_space_group_name_H-M  'P-6m2'
_cell_length_a       4.18595
_cell_length_b       4.18595
_cell_length_c       5.73674
_cell_angle_alpha    90
_cell_angle_beta     90
_cell_angle_gamma    120

_symmetry_Int_Tables_number  187
_chemical_formula_structural  SbTePd2
_chemical_formula_sum  SbTePd2
_cell_volume  87.05324172975699
_cell_formula_units_Z  1
loop_
  _symmetry_equiv_pos_site_id
 _symmetry_equiv_pos_as_xyz
 1  'x, y, z'
loop_
 _atom_site_type_symbol
 _atom_site_label
 _atom_site_symmetry_multiplicity
 _atom_site_fract_x
 _atom_site_fract_y
 _atom_site_fract_z
 _atom_site_fract_occupancy
 Pd  Pd1  1  0.66667  0.33333  0.25564  1
 Pd  Pd2  1  0.66667  0.33333  0.74436  1
 Sb  Sb1  1  0.33333  0.66667  0.50000  1
 Te  Te1  1  0.00000  0.00000  0.00000  1
