CIF file written using JARVIS-Tools package.
data_BaInGa
_symmetry_space_group_name_H-M  'C2/m'
_cell_length_a       6.42629
_cell_length_b       6.42629
_cell_length_c       8.36591
_cell_angle_alpha    49.7436
_cell_angle_beta     49.7436
_cell_angle_gamma    46.8217

_symmetry_Int_Tables_number  12
_chemical_formula_structural  BaInGa
_chemical_formula_sum  Ba2In2Ga2
_cell_volume  178.88348752037868
_cell_formula_units_Z  2
loop_
  _symmetry_equiv_pos_site_id
 _symmetry_equiv_pos_as_xyz
 1  'x, y, z'
loop_
 _atom_site_type_symbol
 _atom_site_label
 _atom_site_symmetry_multiplicity
 _atom_site_fract_x
 _atom_site_fract_y
 _atom_site_fract_z
 _atom_site_fract_occupancy
 Ba  Ba1  1  0.75003  0.75003  0.69526  1
 Ba  Ba2  1  0.24997  0.24997  0.30474  1
 Ga  Ga1  1  0.06392  0.06392  0.08793  1
 Ga  Ga2  1  0.93608  0.93608  0.91207  1
 In  In1  1  0.57582  0.57582  0.25570  1
 In  In2  1  0.42418  0.42418  0.74430  1
