CIF file written using JARVIS-Tools package.
data_RbInI3
_symmetry_space_group_name_H-M  'Pm-3m'
_cell_length_a       8.59671
_cell_length_b       8.59672
_cell_length_c       8.59671
_cell_angle_alpha    60
_cell_angle_beta     60
_cell_angle_gamma    60

_symmetry_Int_Tables_number  221
_chemical_formula_structural  RbInI3
_chemical_formula_sum  Rb2In2I6
_cell_volume  449.24414916555014
_cell_formula_units_Z  2
loop_
  _symmetry_equiv_pos_site_id
 _symmetry_equiv_pos_as_xyz
 1  'x, y, z'
loop_
 _atom_site_type_symbol
 _atom_site_label
 _atom_site_symmetry_multiplicity
 _atom_site_fract_x
 _atom_site_fract_y
 _atom_site_fract_z
 _atom_site_fract_occupancy
 I  I1  1  0.75004  0.24996  0.24996  1
 I  I2  1  0.24996  0.24996  0.75004  1
 I  I3  1  0.24996  0.75004  0.75004  1
 I  I4  1  0.24996  0.75004  0.24996  1
 I  I5  1  0.75004  0.24996  0.75004  1
 I  I6  1  0.75004  0.75004  0.24996  1
 In  In1  1  0.50000  0.50000  0.50000  1
 In  In2  1  0.00000  0.00000  0.00000  1
 Rb  Rb1  1  0.75000  0.75000  0.75000  1
 Rb  Rb2  1  0.25000  0.25000  0.25000  1
