CIF file written using JARVIS-Tools package.
data_CaTm2O4
_symmetry_space_group_name_H-M  'Cmcm'
_cell_length_a       3.25891
_cell_length_b       5.65863
_cell_length_c       10.8007
_cell_angle_alpha    90
_cell_angle_beta     90
_cell_angle_gamma    106.736

_symmetry_Int_Tables_number  63
_chemical_formula_structural  CaTm2O4
_chemical_formula_sum  Ca2Tm4O8
_cell_volume  190.7393597476307
_cell_formula_units_Z  2
loop_
  _symmetry_equiv_pos_site_id
 _symmetry_equiv_pos_as_xyz
 1  'x, y, z'
loop_
 _atom_site_type_symbol
 _atom_site_label
 _atom_site_symmetry_multiplicity
 _atom_site_fract_x
 _atom_site_fract_y
 _atom_site_fract_z
 _atom_site_fract_occupancy
 Ca  Ca1  1  0.11298  0.22596  0.25000  1
 Ca  Ca2  1  0.88702  0.77404  0.75000  1
 O  O1  1  0.00000  0.00000  0.00000  1
 O  O2  1  0.00000  0.00000  0.50000  1
 O  O3  1  0.46354  0.92707  0.25000  1
 O  O4  1  0.26679  0.53357  0.61271  1
 O  O5  1  0.26679  0.53357  0.88729  1
 O  O6  1  0.53646  0.07293  0.75000  1
 O  O7  1  0.73321  0.46643  0.38729  1
 O  O8  1  0.73321  0.46643  0.11271  1
 Tm  Tm1  1  0.36762  0.73525  0.42601  1
 Tm  Tm2  1  0.36762  0.73525  0.07399  1
 Tm  Tm3  1  0.63238  0.26475  0.57399  1
 Tm  Tm4  1  0.63238  0.26475  0.92601  1
