CIF file written using JARVIS-Tools package.
data_Mn3FeAs4
_symmetry_space_group_name_H-M  'Pm'
_cell_length_a       3.47484
_cell_length_b       5.44575
_cell_length_c       6.02565
_cell_angle_alpha    89.8446
_cell_angle_beta     90
_cell_angle_gamma    90

_symmetry_Int_Tables_number  6
_chemical_formula_structural  Mn3FeAs4
_chemical_formula_sum  Mn3FeAs4
_cell_volume  114.02386820166572
_cell_formula_units_Z  1
loop_
  _symmetry_equiv_pos_site_id
 _symmetry_equiv_pos_as_xyz
 1  'x, y, z'
loop_
 _atom_site_type_symbol
 _atom_site_label
 _atom_site_symmetry_multiplicity
 _atom_site_fract_x
 _atom_site_fract_y
 _atom_site_fract_z
 _atom_site_fract_occupancy
 As  As1  1  0.00000  0.69993  0.07869  1
 As  As2  1  0.00000  0.19963  0.42133  1
 As  As3  1  0.50000  0.30552  0.91171  1
 As  As4  1  0.50000  0.78933  0.59069  1
 Fe  Fe1  1  0.00000  0.50216  0.69649  1
 Mn  Mn1  1  0.00000  0.00698  0.80455  1
 Mn  Mn2  1  0.50000  0.49760  0.30167  1
 Mn  Mn3  1  0.50000  0.99885  0.19487  1
