CIF file written using JARVIS-Tools package.
data_Nb3N5
_symmetry_space_group_name_H-M  'Cmcm'
_cell_length_a       3.9135
_cell_length_b       5.57282
_cell_length_c       10.4263
_cell_angle_alpha    90
_cell_angle_beta     90
_cell_angle_gamma    110.556

_symmetry_Int_Tables_number  63
_chemical_formula_structural  Nb3N5
_chemical_formula_sum  Nb6N0
_cell_volume  212.91213710979534
_cell_formula_units_Z  2
loop_
  _symmetry_equiv_pos_site_id
 _symmetry_equiv_pos_as_xyz
 1  'x, y, z'
loop_
 _atom_site_type_symbol
 _atom_site_label
 _atom_site_symmetry_multiplicity
 _atom_site_fract_x
 _atom_site_fract_y
 _atom_site_fract_z
 _atom_site_fract_occupancy
 N  N1  1  0.30885  0.61769  0.42600  1
 N  N2  1  0.04709  0.09418  0.12024  1
 N  N3  1  0.04709  0.09418  0.37976  1
 N  N4  1  0.30885  0.61769  0.07400  1
 N  N5  1  0.23504  0.47007  0.75000  1
 N  N6  1  0.95291  0.90582  0.87976  1
 N  N7  1  0.69115  0.38231  0.57400  1
 N  N8  1  0.69115  0.38231  0.92600  1
 N  N9  1  0.76496  0.52993  0.25000  1
 N  N10  1  0.95291  0.90582  0.62024  1
 Nb  Nb1  1  0.13077  0.26153  0.94035  1
 Nb  Nb2  1  0.13077  0.26153  0.55965  1
 Nb  Nb3  1  0.20208  0.40415  0.25000  1
 Nb  Nb4  1  0.79792  0.59585  0.75000  1
 Nb  Nb5  1  0.86923  0.73847  0.05965  1
 Nb  Nb6  1  0.86923  0.73847  0.44035  1
