CIF file written using JARVIS-Tools package.
data_Li2Mn2CrO6
_symmetry_space_group_name_H-M  'Cmce'
_cell_length_a       4.93666
_cell_length_b       4.93666
_cell_length_c       9.99306
_cell_angle_alpha    90
_cell_angle_beta     90
_cell_angle_gamma    119.797

_symmetry_Int_Tables_number  64
_chemical_formula_structural  Li2Mn2CrO6
_chemical_formula_sum  Li4Mn4Cr2O2
_cell_volume  211.3386337624824
_cell_formula_units_Z  2
loop_
  _symmetry_equiv_pos_site_id
 _symmetry_equiv_pos_as_xyz
 1  'x, y, z'
loop_
 _atom_site_type_symbol
 _atom_site_label
 _atom_site_symmetry_multiplicity
 _atom_site_fract_x
 _atom_site_fract_y
 _atom_site_fract_z
 _atom_site_fract_occupancy
 Cr  Cr1  1  0.00000  0.00000  0.00000  1
 Cr  Cr2  1  0.50000  0.50000  0.50000  1
 Li  Li1  1  0.15992  0.65992  0.75000  1
 Li  Li2  1  0.34008  0.84008  0.25000  1
 Li  Li3  1  0.65992  0.15992  0.75000  1
 Li  Li4  1  0.84008  0.34008  0.25000  1
 Mn  Mn1  1  0.16294  0.83706  0.50000  1
 Mn  Mn2  1  0.33706  0.66294  0.00000  1
 Mn  Mn3  1  0.66294  0.33706  0.00000  1
 Mn  Mn4  1  0.83706  0.16294  0.50000  1
 O  O1  1  0.83981  0.49536  0.60692  1
 O  O2  1  0.99536  0.33981  0.89308  1
 O  O3  1  0.16019  0.50464  0.39308  1
 O  O4  1  0.49536  0.83981  0.60692  1
 O  O5  1  0.00464  0.66019  0.10692  1
 O  O6  1  0.50464  0.16019  0.39308  1
 O  O7  1  0.66172  0.66172  0.89700  1
 O  O8  1  0.33981  0.99536  0.89308  1
 O  O9  1  0.83828  0.83828  0.39700  1
 O  O10  1  0.16172  0.16172  0.60300  1
 O  O11  1  0.33828  0.33828  0.10300  1
 O  O12  1  0.66019  0.00464  0.10692  1
