CIF file written using JARVIS-Tools package.
data_H6C10SO2
_symmetry_space_group_name_H-M  'P1'
_cell_length_a       5.93423
_cell_length_b       7.34678
_cell_length_c       9.80621
_cell_angle_alpha    98.9743
_cell_angle_beta     103.214
_cell_angle_gamma    97.4549

_symmetry_Int_Tables_number  1
_chemical_formula_structural  H6C10SO2
_chemical_formula_sum  H2C20S2O4
_cell_volume  404.98283777749896
_cell_formula_units_Z  2
loop_
  _symmetry_equiv_pos_site_id
 _symmetry_equiv_pos_as_xyz
 1  'x, y, z'
loop_
 _atom_site_type_symbol
 _atom_site_label
 _atom_site_symmetry_multiplicity
 _atom_site_fract_x
 _atom_site_fract_y
 _atom_site_fract_z
 _atom_site_fract_occupancy
 C  C1  1  0.21236  0.37089  0.93052  1
 C  C2  1  0.71235  0.37089  0.43052  1
 C  C3  1  0.37261  0.12373  0.81335  1
 C  C4  1  0.87261  0.12373  0.31335  1
 C  C5  1  0.40134  0.27891  0.92153  1
 C  C6  1  0.90134  0.27891  0.42153  1
 C  C7  1  0.49268  0.30672  0.33519  1
 C  C8  1  0.99268  0.30672  0.83519  1
 C  C9  1  0.76856  0.79312  0.10442  1
 C  C10  1  0.96434  0.15252  0.72615  1
 C  C11  1  0.26856  0.79312  0.60442  1
 C  C12  1  0.57726  0.60624  0.57325  1
 C  C13  1  0.07726  0.60624  0.07325  1
 C  C14  1  0.46930  0.55951  0.67508  1
 C  C15  1  0.96930  0.55951  0.17508  1
 C  C16  1  0.29276  0.66786  0.69379  1
 C  C17  1  0.79276  0.66786  0.19379  1
 C  C18  1  0.46434  0.15252  0.22615  1
 C  C19  1  0.15496  0.06416  0.71435  1
 C  C20  1  0.65496  0.06416  0.21435  1
 H  H1  1  0.01895  0.05036  0.30709  1
 H  H2  1  0.51294  0.44948  0.73330  1
 H  H3  1  0.06996  0.33025  0.49891  1
 H  H4  1  0.29621  0.10182  0.14836  1
 H  H5  1  0.34618  0.37865  0.34399  1
 H  H6  1  0.84618  0.37865  0.84399  1
 H  H7  1  0.79621  0.10182  0.64836  1
 H  H8  1  0.01294  0.44948  0.23330  1
 H  H9  1  0.18653  0.65410  0.76938  1
 H  H10  1  0.68653  0.65410  0.26938  1
 H  H11  1  0.51895  0.05036  0.80709  1
 H  H12  1  0.56996  0.33025  -0.00109  1
 O  O1  1  0.11636  0.91873  0.59599  1
 O  O2  1  0.26029  0.53207  0.03653  1
 O  O3  1  0.61636  0.91873  0.09599  1
 O  O4  1  0.76029  0.53207  0.53653  1
 S  S1  1  0.96377  0.78539  0.99523  1
 S  S2  1  0.46377  0.78539  0.49523  1
