CIF file written using JARVIS-Tools package.
data_LuAl2Ge2
_symmetry_space_group_name_H-M  'P-3m1'
_cell_length_a       4.27116
_cell_length_b       4.27116
_cell_length_c       6.45505
_cell_angle_alpha    90
_cell_angle_beta     90
_cell_angle_gamma    120

_symmetry_Int_Tables_number  164
_chemical_formula_structural  LuAl2Ge2
_chemical_formula_sum  LuAl2Ge2
_cell_volume  101.98138281737862
_cell_formula_units_Z  1
loop_
  _symmetry_equiv_pos_site_id
 _symmetry_equiv_pos_as_xyz
 1  'x, y, z'
loop_
 _atom_site_type_symbol
 _atom_site_label
 _atom_site_symmetry_multiplicity
 _atom_site_fract_x
 _atom_site_fract_y
 _atom_site_fract_z
 _atom_site_fract_occupancy
 Al  Al1  1  0.66667  0.33333  0.64971  1
 Al  Al2  1  0.33333  0.66667  0.35029  1
 Ge  Ge1  1  0.66667  0.33333  0.25041  1
 Ge  Ge2  1  0.33333  0.66667  0.74959  1
 Lu  Lu1  1  0.00000  0.00000  0.00000  1
