CIF file written using JARVIS-Tools package.
data_BaFe2N2
_symmetry_space_group_name_H-M  'P-3m1'
_cell_length_a       3.34659
_cell_length_b       3.34657
_cell_length_c       6.7394
_cell_angle_alpha    89.9998
_cell_angle_beta     90.0003
_cell_angle_gamma    120

_symmetry_Int_Tables_number  164
_chemical_formula_structural  BaFe2N2
_chemical_formula_sum  BaFe2N2
_cell_volume  65.3663746689654
_cell_formula_units_Z  1
loop_
  _symmetry_equiv_pos_site_id
 _symmetry_equiv_pos_as_xyz
 1  'x, y, z'
loop_
 _atom_site_type_symbol
 _atom_site_label
 _atom_site_symmetry_multiplicity
 _atom_site_fract_x
 _atom_site_fract_y
 _atom_site_fract_z
 _atom_site_fract_occupancy
 Ba  Ba1  1  0.00000  -0.00001  0.50000  1
 Fe  Fe1  1  0.66666  0.33332  0.10540  1
 Fe  Fe2  1  0.33334  0.66666  0.89460  1
 N  N1  1  0.66667  0.33333  0.82682  1
 N  N2  1  0.33333  0.66666  0.17318  1
