CIF file written using JARVIS-Tools package.
data_ZnH4C4O4
_symmetry_space_group_name_H-M  'P1'
_cell_length_a       3.97888
_cell_length_b       4.35936
_cell_length_c       7.23622
_cell_angle_alpha    83.5998
_cell_angle_beta     86.9115
_cell_angle_gamma    71.5899

_symmetry_Int_Tables_number  1
_chemical_formula_structural  ZnH4C4O4
_chemical_formula_sum  ZnH4C4O4
_cell_volume  118.32573647017841
_cell_formula_units_Z  1
loop_
  _symmetry_equiv_pos_site_id
 _symmetry_equiv_pos_as_xyz
 1  'x, y, z'
loop_
 _atom_site_type_symbol
 _atom_site_label
 _atom_site_symmetry_multiplicity
 _atom_site_fract_x
 _atom_site_fract_y
 _atom_site_fract_z
 _atom_site_fract_occupancy
 C  C1  1  0.46470  0.33639  0.52097  1
 C  C2  1  0.23827  0.34974  0.69700  1
 C  C3  1  0.43900  0.39125  0.86456  1
 C  C4  1  0.21012  0.42126  0.03986  1
 H  H1  1  -0.00206  0.55825  0.67582  1
 H  H2  1  0.17005  0.12340  0.72143  1
 H  H3  1  0.51272  0.61451  0.83629  1
 H  H4  1  0.67774  0.18216  0.88790  1
 O  O1  1  0.40205  0.59597  0.41029  1
 O  O2  1  0.70455  0.06925  0.49471  1
 O  O3  1  0.25567  0.18774  0.16637  1
 O  O4  1  0.96569  0.69538  0.04977  1
 Zn  Zn1  1  0.70093  0.84313  0.27323  1
