CIF file written using JARVIS-Tools package.
data_MnHg2S3
_symmetry_space_group_name_H-M  'P3m1'
_cell_length_a       4.13358
_cell_length_b       4.13358
_cell_length_c       10.0952
_cell_angle_alpha    90
_cell_angle_beta     90
_cell_angle_gamma    120

_symmetry_Int_Tables_number  156
_chemical_formula_structural  MnHg2S3
_chemical_formula_sum  MnHg2S3
_cell_volume  149.3820803428883
_cell_formula_units_Z  1
loop_
  _symmetry_equiv_pos_site_id
 _symmetry_equiv_pos_as_xyz
 1  'x, y, z'
loop_
 _atom_site_type_symbol
 _atom_site_label
 _atom_site_symmetry_multiplicity
 _atom_site_fract_x
 _atom_site_fract_y
 _atom_site_fract_z
 _atom_site_fract_occupancy
 Hg  Hg1  1  0.00000  0.00000  0.99562  1
 Hg  Hg2  1  0.66667  0.33333  0.34517  1
 Mn  Mn1  1  0.33333  0.66667  0.66234  1
 S  S1  1  0.00000  0.00000  0.24867  1
 S  S2  1  0.66667  0.33333  0.60057  1
 S  S3  1  0.33333  0.66667  0.89764  1
