CIF file written using JARVIS-Tools package.
data_PdAu3
_symmetry_space_group_name_H-M  'P6_3/mmc'
_cell_length_a       5.7695
_cell_length_b       5.76951
_cell_length_c       4.7965
_cell_angle_alpha    90
_cell_angle_beta     90
_cell_angle_gamma    120

_symmetry_Int_Tables_number  194
_chemical_formula_structural  PdAu3
_chemical_formula_sum  Pd2Au6
_cell_volume  138.2711994407131
_cell_formula_units_Z  2
loop_
  _symmetry_equiv_pos_site_id
 _symmetry_equiv_pos_as_xyz
 1  'x, y, z'
loop_
 _atom_site_type_symbol
 _atom_site_label
 _atom_site_symmetry_multiplicity
 _atom_site_fract_x
 _atom_site_fract_y
 _atom_site_fract_z
 _atom_site_fract_occupancy
 Au  Au1  1  0.83204  0.16796  0.75000  1
 Au  Au2  1  0.33592  0.16796  0.75000  1
 Au  Au3  1  0.83204  0.66408  0.75000  1
 Au  Au4  1  0.16796  0.83204  0.25000  1
 Au  Au5  1  0.66408  0.83204  0.25000  1
 Au  Au6  1  0.16796  0.33592  0.25000  1
 Pd  Pd1  1  0.66667  0.33333  0.25000  1
 Pd  Pd2  1  0.33333  0.66667  0.75000  1
