CIF file written using JARVIS-Tools package.
data_TePb3
_symmetry_space_group_name_H-M  'P6_3/mmc'
_cell_length_a       6.94438
_cell_length_b       6.94438
_cell_length_c       6.05511
_cell_angle_alpha    90
_cell_angle_beta     90
_cell_angle_gamma    120

_symmetry_Int_Tables_number  194
_chemical_formula_structural  TePb3
_chemical_formula_sum  Te2Pb6
_cell_volume  252.8833309837401
_cell_formula_units_Z  2
loop_
  _symmetry_equiv_pos_site_id
 _symmetry_equiv_pos_as_xyz
 1  'x, y, z'
loop_
 _atom_site_type_symbol
 _atom_site_label
 _atom_site_symmetry_multiplicity
 _atom_site_fract_x
 _atom_site_fract_y
 _atom_site_fract_z
 _atom_site_fract_occupancy
 Pb  Pb1  1  0.16654  0.33308  0.25000  1
 Pb  Pb2  1  0.66692  0.83346  0.25000  1
 Pb  Pb3  1  0.16654  0.83346  0.25000  1
 Pb  Pb4  1  0.83346  0.66692  0.75000  1
 Pb  Pb5  1  0.33308  0.16654  0.75000  1
 Pb  Pb6  1  0.83346  0.16654  0.75000  1
 Te  Te1  1  0.33333  0.66667  0.75000  1
 Te  Te2  1  0.66667  0.33333  0.25000  1
