CIF file written using JARVIS-Tools package.
data_Na4TeSe
_symmetry_space_group_name_H-M  'P4/mmm'
_cell_length_a       4.96472
_cell_length_b       4.96472
_cell_length_c       7.06885
_cell_angle_alpha    90
_cell_angle_beta     90
_cell_angle_gamma    90

_symmetry_Int_Tables_number  123
_chemical_formula_structural  Na4TeSe
_chemical_formula_sum  Na4TeSe
_cell_volume  174.23623914309144
_cell_formula_units_Z  1
loop_
  _symmetry_equiv_pos_site_id
 _symmetry_equiv_pos_as_xyz
 1  'x, y, z'
loop_
 _atom_site_type_symbol
 _atom_site_label
 _atom_site_symmetry_multiplicity
 _atom_site_fract_x
 _atom_site_fract_y
 _atom_site_fract_z
 _atom_site_fract_occupancy
 Na  Na1  1  0.50000  0.00000  0.76290  1
 Na  Na2  1  0.00000  0.50000  0.23710  1
 Na  Na3  1  0.50000  0.00000  0.23710  1
 Na  Na4  1  0.00000  0.50000  0.76290  1
 Se  Se1  1  0.00000  0.00000  0.00000  1
 Te  Te1  1  0.50000  0.50000  0.50000  1
