CIF file written using JARVIS-Tools package.
data_Hf3ScSi4
_symmetry_space_group_name_H-M  'Pm'
_cell_length_a       3.74795
_cell_length_b       5.27682
_cell_length_c       7.02084
_cell_angle_alpha    89.7302
_cell_angle_beta     90
_cell_angle_gamma    90

_symmetry_Int_Tables_number  6
_chemical_formula_structural  Hf3ScSi4
_chemical_formula_sum  Hf3ScSi4
_cell_volume  138.8512394712621
_cell_formula_units_Z  1
loop_
  _symmetry_equiv_pos_site_id
 _symmetry_equiv_pos_as_xyz
 1  'x, y, z'
loop_
 _atom_site_type_symbol
 _atom_site_label
 _atom_site_symmetry_multiplicity
 _atom_site_fract_x
 _atom_site_fract_y
 _atom_site_fract_z
 _atom_site_fract_occupancy
 Hf  Hf1  1  0.00000  0.87793  0.82282  1
 Hf  Hf2  1  0.50000  0.37402  0.67916  1
 Hf  Hf3  1  0.50000  0.12386  0.17468  1
 Sc  Sc1  1  0.00000  0.62507  0.32405  1
 Si  Si1  1  0.00000  0.14246  0.45697  1
 Si  Si2  1  0.00000  0.35924  0.95625  1
 Si  Si3  1  0.50000  0.85683  0.54232  1
 Si  Si4  1  0.50000  0.64059  0.04375  1
