CIF file written using JARVIS-Tools package.
data_TbAlPd
_symmetry_space_group_name_H-M  'P-62m'
_cell_length_a       7.16664
_cell_length_b       7.16664
_cell_length_c       4.06345
_cell_angle_alpha    90
_cell_angle_beta     90
_cell_angle_gamma    120

_symmetry_Int_Tables_number  189
_chemical_formula_structural  TbAlPd
_chemical_formula_sum  Tb3Al3Pd3
_cell_volume  180.740562222947
_cell_formula_units_Z  3
loop_
  _symmetry_equiv_pos_site_id
 _symmetry_equiv_pos_as_xyz
 1  'x, y, z'
loop_
 _atom_site_type_symbol
 _atom_site_label
 _atom_site_symmetry_multiplicity
 _atom_site_fract_x
 _atom_site_fract_y
 _atom_site_fract_z
 _atom_site_fract_occupancy
 Al  Al1  1  0.76202  -0.00000  0.00000  1
 Al  Al2  1  0.23798  0.23798  0.00000  1
 Al  Al3  1  -0.00000  0.76202  0.00000  1
 Pd  Pd1  1  0.33333  0.66667  0.00000  1
 Pd  Pd2  1  0.66667  0.33333  0.00000  1
 Pd  Pd3  1  0.00000  0.00000  0.50000  1
 Tb  Tb1  1  -0.00000  0.41635  0.50000  1
 Tb  Tb2  1  0.41635  -0.00000  0.50000  1
 Tb  Tb3  1  0.58365  0.58365  0.50000  1
