CIF file written using JARVIS-Tools package.
data_SrCa2N2
_symmetry_space_group_name_H-M  'Pmmn'
_cell_length_a       3.41511
_cell_length_b       3.73348
_cell_length_c       14.3791
_cell_angle_alpha    90
_cell_angle_beta     90
_cell_angle_gamma    90

_symmetry_Int_Tables_number  59
_chemical_formula_structural  SrCa2N2
_chemical_formula_sum  Sr2Ca4N4
_cell_volume  183.3372491911454
_cell_formula_units_Z  2
loop_
  _symmetry_equiv_pos_site_id
 _symmetry_equiv_pos_as_xyz
 1  'x, y, z'
loop_
 _atom_site_type_symbol
 _atom_site_label
 _atom_site_symmetry_multiplicity
 _atom_site_fract_x
 _atom_site_fract_y
 _atom_site_fract_z
 _atom_site_fract_occupancy
 Ca  Ca1  1  0.24227  0.25000  0.93108  1
 Ca  Ca2  1  0.24227  0.25000  0.56892  1
 Ca  Ca3  1  0.75773  0.75000  0.06892  1
 Ca  Ca4  1  0.75773  0.75000  0.43108  1
 N  N1  1  0.21441  0.25000  0.39745  1
 N  N2  1  0.21441  0.25000  0.10255  1
 N  N3  1  0.78559  0.75000  0.60255  1
 N  N4  1  0.78559  0.75000  0.89745  1
 Sr  Sr1  1  0.60696  0.25000  0.25000  1
 Sr  Sr2  1  0.39304  0.75000  0.75000  1
