CIF file written using JARVIS-Tools package.
data_Li2MnF4
_symmetry_space_group_name_H-M  'C2/c'
_cell_length_a       5.83372
_cell_length_b       5.83372
_cell_length_c       5.34765
_cell_angle_alpha    86.6572
_cell_angle_beta     93.3428
_cell_angle_gamma    121.675

_symmetry_Int_Tables_number  15
_chemical_formula_structural  Li2MnF4
_chemical_formula_sum  Li4Mn2F8
_cell_volume  154.53729374162302
_cell_formula_units_Z  2
loop_
  _symmetry_equiv_pos_site_id
 _symmetry_equiv_pos_as_xyz
 1  'x, y, z'
loop_
 _atom_site_type_symbol
 _atom_site_label
 _atom_site_symmetry_multiplicity
 _atom_site_fract_x
 _atom_site_fract_y
 _atom_site_fract_z
 _atom_site_fract_occupancy
 F  F1  1  0.72122  0.01916  0.88492  1
 F  F2  1  0.98084  0.27878  0.38492  1
 F  F3  1  0.26826  0.50098  0.90952  1
 F  F4  1  0.49902  0.73174  0.40952  1
 F  F5  1  0.50098  0.26826  0.59048  1
 F  F6  1  0.73174  0.49902  0.09048  1
 F  F7  1  0.01916  0.72122  0.61508  1
 F  F8  1  0.27878  0.98084  0.11508  1
 Li  Li1  1  0.35070  0.94411  0.78369  1
 Li  Li2  1  0.05589  0.64930  0.28369  1
 Li  Li3  1  0.94411  0.35070  0.71631  1
 Li  Li4  1  0.64930  0.05589  0.21631  1
 Mn  Mn1  1  0.66367  0.66367  0.75000  1
 Mn  Mn2  1  0.33633  0.33633  0.25000  1
