CIF file written using JARVIS-Tools package.
data_HCO
_symmetry_space_group_name_H-M  'Pnma'
_cell_length_a       7.05513
_cell_length_b       5.80973
_cell_length_c       5.12984
_cell_angle_alpha    90
_cell_angle_beta     90
_cell_angle_gamma    90

_symmetry_Int_Tables_number  62
_chemical_formula_structural  HCO
_chemical_formula_sum  H8C8O8
_cell_volume  210.2638882086266
_cell_formula_units_Z  8
loop_
  _symmetry_equiv_pos_site_id
 _symmetry_equiv_pos_as_xyz
 1  'x, y, z'
loop_
 _atom_site_type_symbol
 _atom_site_label
 _atom_site_symmetry_multiplicity
 _atom_site_fract_x
 _atom_site_fract_y
 _atom_site_fract_z
 _atom_site_fract_occupancy
 C  C1  1  0.18862  0.25000  0.64967  1
 C  C2  1  0.81138  0.75000  0.35033  1
 C  C3  1  0.47575  0.75000  0.33800  1
 C  C4  1  0.68862  0.25000  0.85033  1
 C  C5  1  0.02425  0.25000  0.83800  1
 C  C6  1  0.52425  0.25000  0.66200  1
 C  C7  1  0.31138  0.75000  0.14967  1
 C  C8  1  0.97575  0.75000  0.16200  1
 H  H1  1  0.81787  0.90342  0.47447  1
 H  H2  1  0.81787  0.59658  0.47447  1
 H  H3  1  0.31787  0.90342  0.02553  1
 H  H4  1  0.18213  0.09658  0.52553  1
 H  H5  1  0.31787  0.59658  0.02553  1
 H  H6  1  0.18213  0.40342  0.52553  1
 H  H7  1  0.68213  0.09658  0.97447  1
 H  H8  1  0.68213  0.40342  0.97447  1
 O  O1  1  0.13889  0.75000  0.30153  1
 O  O2  1  0.63889  0.75000  0.19847  1
 O  O3  1  0.46730  0.75000  0.57518  1
 O  O4  1  0.86111  0.25000  0.69847  1
 O  O5  1  0.03270  0.25000  0.07518  1
 O  O6  1  0.36111  0.25000  0.80153  1
 O  O7  1  0.53270  0.25000  0.42482  1
 O  O8  1  0.96730  0.75000  0.92482  1
