CIF file written using JARVIS-Tools package.
data_Fe3NiP4
_symmetry_space_group_name_H-M  'Pm'
_cell_length_a       3.27137
_cell_length_b       5.06744
_cell_length_c       5.6644
_cell_angle_alpha    89.6758
_cell_angle_beta     90
_cell_angle_gamma    90

_symmetry_Int_Tables_number  6
_chemical_formula_structural  Fe3NiP4
_chemical_formula_sum  Fe3NiP4
_cell_volume  93.89961621403803
_cell_formula_units_Z  1
loop_
  _symmetry_equiv_pos_site_id
 _symmetry_equiv_pos_as_xyz
 1  'x, y, z'
loop_
 _atom_site_type_symbol
 _atom_site_label
 _atom_site_symmetry_multiplicity
 _atom_site_fract_x
 _atom_site_fract_y
 _atom_site_fract_z
 _atom_site_fract_occupancy
 Fe  Fe1  1  0.50000  0.99773  0.20070  1
 Fe  Fe2  1  0.00000  0.50016  0.70527  1
 Fe  Fe3  1  0.00000  0.99890  0.79871  1
 Ni  Ni1  1  0.50000  0.49930  0.30108  1
 P  P1  1  0.50000  0.70407  0.91114  1
 P  P2  1  0.50000  0.18860  0.58303  1
 P  P3  1  0.00000  0.29501  0.07490  1
 P  P4  1  0.00000  0.81624  0.42516  1
