CIF file written using JARVIS-Tools package.
data_ZrTaCr4
_symmetry_space_group_name_H-M  'F-43m'
_cell_length_a       4.95577
_cell_length_b       4.95576
_cell_length_c       4.95576
_cell_angle_alpha    60
_cell_angle_beta     60
_cell_angle_gamma    60

_symmetry_Int_Tables_number  216
_chemical_formula_structural  ZrTaCr4
_chemical_formula_sum  ZrTaCr4
_cell_volume  86.06308170475475
_cell_formula_units_Z  1
loop_
  _symmetry_equiv_pos_site_id
 _symmetry_equiv_pos_as_xyz
 1  'x, y, z'
loop_
 _atom_site_type_symbol
 _atom_site_label
 _atom_site_symmetry_multiplicity
 _atom_site_fract_x
 _atom_site_fract_y
 _atom_site_fract_z
 _atom_site_fract_occupancy
 Cr  Cr1  1  0.62470  0.62470  0.12589  1
 Cr  Cr2  1  0.62470  0.12589  0.62470  1
 Cr  Cr3  1  0.12589  0.62470  0.62470  1
 Cr  Cr4  1  0.62470  0.62470  0.62470  1
 Ta  Ta1  1  0.25000  0.25000  0.25000  1
 Zr  Zr1  1  0.00000  0.00000  0.00000  1
