CIF file written using JARVIS-Tools package.
data_ZrTiPb2O6
_symmetry_space_group_name_H-M  'Cm'
_cell_length_a       4.17406
_cell_length_b       4.17086
_cell_length_c       8.00863
_cell_angle_alpha    89.9442
_cell_angle_beta     89.9426
_cell_angle_gamma    88.4848

_symmetry_Int_Tables_number  8
_chemical_formula_structural  ZrTiPb2O6
_chemical_formula_sum  ZrTiPb2O6
_cell_volume  139.3767048702782
_cell_formula_units_Z  1
loop_
  _symmetry_equiv_pos_site_id
 _symmetry_equiv_pos_as_xyz
 1  'x, y, z'
loop_
 _atom_site_type_symbol
 _atom_site_label
 _atom_site_symmetry_multiplicity
 _atom_site_fract_x
 _atom_site_fract_y
 _atom_site_fract_z
 _atom_site_fract_occupancy
 O  O1  1  0.04817  0.58526  0.27207  1
 O  O2  1  0.06805  0.57751  0.77121  1
 O  O3  1  0.57543  0.58542  0.00822  1
 O  O4  1  0.57512  0.58525  0.53317  1
 O  O5  1  0.57537  0.05862  0.27198  1
 O  O6  1  0.56741  0.07812  0.77121  1
 Pb  Pb1  1  0.97966  0.99120  0.00818  1
 Pb  Pb2  1  0.97968  0.99093  0.52761  1
 Ti  Ti1  1  0.50688  0.51768  0.77006  1
 Zr  Zr1  1  0.53163  0.54260  0.26999  1
