CIF file written using JARVIS-Tools package.
data_Tm5Mg
_symmetry_space_group_name_H-M  'Amm2'
_cell_length_a       9.12691
_cell_length_b       9.1269
_cell_length_c       5.46347
_cell_angle_alpha    90
_cell_angle_beta     90
_cell_angle_gamma    158.014

_symmetry_Int_Tables_number  38
_chemical_formula_structural  Tm5Mg
_chemical_formula_sum  Tm5Mg
_cell_volume  170.38465401329333
_cell_formula_units_Z  1
loop_
  _symmetry_equiv_pos_site_id
 _symmetry_equiv_pos_as_xyz
 1  'x, y, z'
loop_
 _atom_site_type_symbol
 _atom_site_label
 _atom_site_symmetry_multiplicity
 _atom_site_fract_x
 _atom_site_fract_y
 _atom_site_fract_z
 _atom_site_fract_occupancy
 Mg  Mg1  1  0.22250  0.77750  0.50000  1
 Tm  Tm1  1  0.00088  0.99912  0.00000  1
 Tm  Tm2  1  0.66985  0.33015  0.00000  1
 Tm  Tm3  1  0.33304  0.66696  0.00000  1
 Tm  Tm4  1  0.55316  0.44684  0.50000  1
 Tm  Tm5  1  0.88723  0.11277  0.50000  1
