CIF file written using JARVIS-Tools package.
data_TaCl4
_symmetry_space_group_name_H-M  'C2/m'
_cell_length_a       6.80125
_cell_length_b       6.80047
_cell_length_c       7.00881
_cell_angle_alpha    72.8506
_cell_angle_beta     60.9749
_cell_angle_gamma    59.9962

_symmetry_Int_Tables_number  12
_chemical_formula_structural  TaCl4
_chemical_formula_sum  Ta2Cl8
_cell_volume  244.88585557830154
_cell_formula_units_Z  2
loop_
  _symmetry_equiv_pos_site_id
 _symmetry_equiv_pos_as_xyz
 1  'x, y, z'
loop_
 _atom_site_type_symbol
 _atom_site_label
 _atom_site_symmetry_multiplicity
 _atom_site_fract_x
 _atom_site_fract_y
 _atom_site_fract_z
 _atom_site_fract_occupancy
 Cl  Cl1  1  0.22519  0.75192  0.30889  1
 Cl  Cl2  1  0.28600  0.24808  0.69111  1
 Cl  Cl3  1  0.81076  0.22045  0.15804  1
 Cl  Cl4  1  0.18924  0.77955  0.84196  1
 Cl  Cl5  1  0.71806  0.74545  0.81842  1
 Cl  Cl6  1  0.28194  0.25455  0.18158  1
 Cl  Cl7  1  0.71400  0.75192  0.30889  1
 Cl  Cl8  1  0.77481  0.24808  0.69111  1
 Ta  Ta1  1  0.28079  -0.00000  -0.00000  1
 Ta  Ta2  1  0.71921  0.00000  0.00000  1
