CIF file written using JARVIS-Tools package.
data_Mo2N
_symmetry_space_group_name_H-M  'I4_1/amd'
_cell_length_a       4.2655
_cell_length_b       4.26549
_cell_length_c       5.01665
_cell_angle_alpha    115.159
_cell_angle_beta     115.159
_cell_angle_gamma    90.0001

_symmetry_Int_Tables_number  141
_chemical_formula_structural  Mo2N
_chemical_formula_sum  Mo4N2
_cell_volume  72.93592783930472
_cell_formula_units_Z  2
loop_
  _symmetry_equiv_pos_site_id
 _symmetry_equiv_pos_as_xyz
 1  'x, y, z'
loop_
 _atom_site_type_symbol
 _atom_site_label
 _atom_site_symmetry_multiplicity
 _atom_site_fract_x
 _atom_site_fract_y
 _atom_site_fract_z
 _atom_site_fract_occupancy
 Mo  Mo1  1  0.36252  0.11252  0.72505  1
 Mo  Mo2  1  0.11252  0.36252  0.22505  1
 Mo  Mo3  1  0.88748  0.63748  0.77495  1
 Mo  Mo4  1  0.63748  0.88748  0.27495  1
 N  N1  1  0.62500  0.37500  0.25000  1
 N  N2  1  0.37500  0.62500  0.75000  1
