CIF file written using JARVIS-Tools package.
data_H6C7SN2
_symmetry_space_group_name_H-M  'P1'
_cell_length_a       5.43814
_cell_length_b       7.28907
_cell_length_c       7.79398
_cell_angle_alpha    93.5143
_cell_angle_beta     91.1672
_cell_angle_gamma    91.9391

_symmetry_Int_Tables_number  1
_chemical_formula_structural  H6C7SN2
_chemical_formula_sum  H2C4S2N4
_cell_volume  308.11008095119706
_cell_formula_units_Z  2
loop_
  _symmetry_equiv_pos_site_id
 _symmetry_equiv_pos_as_xyz
 1  'x, y, z'
loop_
 _atom_site_type_symbol
 _atom_site_label
 _atom_site_symmetry_multiplicity
 _atom_site_fract_x
 _atom_site_fract_y
 _atom_site_fract_z
 _atom_site_fract_occupancy
 C  C1  1  0.70537  0.61974  0.26912  1
 C  C2  1  0.88120  0.19139  0.51453  1
 C  C3  1  0.58607  0.12976  0.92384  1
 C  C4  1  0.68326  0.11848  0.60415  1
 C  C5  1  0.47265  0.04803  0.51338  1
 C  C6  1  0.66858  0.10741  0.24502  1
 C  C7  1  0.87428  0.18562  0.33655  1
 C  C8  1  0.46592  0.04250  0.33367  1
 C  C9  1  0.81647  0.64239  0.95188  1
 C  C10  1  0.50707  0.53863  0.53003  1
 C  C11  1  0.50280  0.54525  0.35425  1
 C  C12  1  0.90938  0.69082  0.36667  1
 C  C13  1  0.71454  0.60489  0.62890  1
 C  C14  1  0.91443  0.68285  0.54573  1
 H  H1  1  0.90908  0.08061  0.80978  1
 H  H2  1  0.34295  0.48972  0.27920  1
 H  H3  1  0.32059  0.98834  0.58224  1
 H  H4  1  0.30949  0.97794  0.26125  1
 H  H5  1  0.86309  0.00451  0.04134  1
 H  H6  1  0.03042  0.23738  0.26594  1
 H  H7  1  0.49682  0.56685  0.05568  1
 H  H8  1  0.54019  0.49585  0.82634  1
 H  H9  1  0.35036  0.47852  0.59416  1
 H  H10  1  0.04255  0.24874  0.58675  1
 H  H11  1  0.06573  0.75050  0.30320  1
 H  H12  1  0.07553  0.73482  0.62026  1
 N  N1  1  0.72740  0.10227  0.78202  1
 N  N2  1  0.69444  0.57666  0.80468  1
 N  N3  1  0.70085  0.07026  0.06526  1
 N  N4  1  0.67164  0.61425  0.08977  1
 S  S1  1  0.31254  0.23533  0.92522  1
 S  S2  1  0.09888  0.74807  0.96114  1
