CIF file written using JARVIS-Tools package.
data_Ta2SnO7
_symmetry_space_group_name_H-M  'C2/c'
_cell_length_a       4.95612
_cell_length_b       5.18924
_cell_length_c       8.67146
_cell_angle_alpha    83.5897
_cell_angle_beta     106.605
_cell_angle_gamma    90

_symmetry_Int_Tables_number  15
_chemical_formula_structural  Ta2SnO7
_chemical_formula_sum  Ta4Sn2O4
_cell_volume  212.26142050733884
_cell_formula_units_Z  2
loop_
  _symmetry_equiv_pos_site_id
 _symmetry_equiv_pos_as_xyz
 1  'x, y, z'
loop_
 _atom_site_type_symbol
 _atom_site_label
 _atom_site_symmetry_multiplicity
 _atom_site_fract_x
 _atom_site_fract_y
 _atom_site_fract_z
 _atom_site_fract_occupancy
 O  O1  1  0.06714  0.47215  0.16169  1
 O  O2  1  0.13109  0.33514  0.44811  1
 O  O3  1  0.31702  0.83514  0.44811  1
 O  O4  1  0.86891  0.66486  0.55189  1
 O  O5  1  0.30895  0.00320  0.71722  1
 O  O6  1  0.59173  0.49680  0.28278  1
 O  O7  1  0.37723  0.25000  0.00000  1
 O  O8  1  0.62277  0.75000  -0.00000  1
 O  O9  1  0.68298  0.16486  0.55189  1
 O  O10  1  0.09454  0.97215  0.16169  1
 O  O11  1  0.90546  0.02785  0.83831  1
 O  O12  1  0.40827  0.50320  0.71722  1
 O  O13  1  0.69105  0.99680  0.28278  1
 O  O14  1  0.93286  0.52785  0.83831  1
 Sn  Sn1  1  0.23004  0.75000  -0.00000  1
 Sn  Sn2  1  0.76996  0.25000  0.00000  1
 Ta  Ta1  1  0.93454  0.69644  0.32451  1
 Ta  Ta2  1  0.38996  0.19644  0.32451  1
 Ta  Ta3  1  0.06546  0.30356  0.67549  1
 Ta  Ta4  1  0.61004  0.80356  0.67549  1
