CIF file written using JARVIS-Tools package.
data_PuU4N5
_symmetry_space_group_name_H-M  'I4/mmm'
_cell_length_a       3.43497
_cell_length_b       12.3834
_cell_length_c       3.43497
_cell_angle_alpha    97.9721
_cell_angle_beta     90
_cell_angle_gamma    97.9721

_symmetry_Int_Tables_number  139
_chemical_formula_structural  PuU4N5
_chemical_formula_sum  PuU4N5
_cell_volume  143.27424434066575
_cell_formula_units_Z  1
loop_
  _symmetry_equiv_pos_site_id
 _symmetry_equiv_pos_as_xyz
 1  'x, y, z'
loop_
 _atom_site_type_symbol
 _atom_site_label
 _atom_site_symmetry_multiplicity
 _atom_site_fract_x
 _atom_site_fract_y
 _atom_site_fract_z
 _atom_site_fract_occupancy
 N  N1  1  0.40038  0.80076  0.40038  1
 N  N2  1  0.19945  0.39890  0.19945  1
 N  N3  1  0.79962  0.59924  0.79962  1
 N  N4  1  0.00055  0.00110  0.00055  1
 N  N5  1  0.60000  0.20000  0.60000  1
 Pu  Pu1  1  0.10000  0.20000  0.10000  1
 U  U1  1  0.69869  0.39738  0.69869  1
 U  U2  1  0.29969  0.59938  0.29969  1
 U  U3  1  0.90031  0.80062  0.90031  1
 U  U4  1  0.50131  0.00262  0.50131  1
