CIF file written using JARVIS-Tools package.
data_H5C9S2NO
_symmetry_space_group_name_H-M  'P1'
_cell_length_a       4.70568
_cell_length_b       8.09821
_cell_length_c       10.593
_cell_angle_alpha    104.713
_cell_angle_beta     97.0567
_cell_angle_gamma    95.0061

_symmetry_Int_Tables_number  1
_chemical_formula_structural  H5C9S2NO
_chemical_formula_sum  H0C8S4N2O2
_cell_volume  384.5173196383936
_cell_formula_units_Z  2
loop_
  _symmetry_equiv_pos_site_id
 _symmetry_equiv_pos_as_xyz
 1  'x, y, z'
loop_
 _atom_site_type_symbol
 _atom_site_label
 _atom_site_symmetry_multiplicity
 _atom_site_fract_x
 _atom_site_fract_y
 _atom_site_fract_z
 _atom_site_fract_occupancy
 C  C1  1  0.81959  0.06325  0.79248  1
 C  C2  1  0.94045  0.81281  0.16716  1
 C  C3  1  0.67925  0.31461  0.41382  1
 C  C4  1  0.17922  0.31478  0.91377  1
 C  C5  1  0.81853  0.44491  0.53073  1
 C  C6  1  0.31941  0.44448  0.03084  1
 C  C7  1  0.32137  0.06212  0.29275  1
 C  C8  1  0.18940  0.26595  0.77904  1
 C  C9  1  0.69077  0.26500  0.27922  1
 C  C10  1  0.94565  0.77230  0.03168  1
 C  C11  1  0.44520  0.77243  0.53146  1
 C  C12  1  0.98403  0.12333  0.70922  1
 C  C13  1  0.48634  0.12188  0.20952  1
 C  C14  1  0.73083  0.63456  0.96118  1
 C  C15  1  0.23109  0.63422  0.46107  1
 C  C16  1  0.06015  0.57424  0.54196  1
 C  C17  1  0.43845  0.81399  0.66684  1
 C  C18  1  0.56095  0.57387  0.04213  1
 H  H1  1  0.60221  0.83444  0.48537  1
 H  H2  1  0.20867  0.57827  0.35440  1
 H  H3  1  0.95686  0.06868  0.60273  1
 H  H4  1  0.46072  0.06629  0.10318  1
 H  H5  1  0.70714  0.57943  0.85438  1
 H  H6  1  0.54880  0.91525  0.86161  1
 H  H7  1  0.34120  0.33044  0.73145  1
 H  H8  1  0.84303  0.32922  0.23166  1
 H  H9  1  0.10191  0.83481  0.98555  1
 H  H10  1  0.05406  0.91223  0.36202  1
 N  N1  1  0.60234  0.93034  0.77417  1
 N  N2  1  0.10547  0.92847  0.27454  1
 O  O1  1  0.72074  0.44369  0.63726  1
 O  O2  1  0.22253  0.44256  0.13746  1
 S  S1  1  0.16632  0.68781  0.70639  1
 S  S2  1  0.66889  0.68626  0.20671  1
 S  S3  1  0.41390  0.18280  0.45505  1
 S  S4  1  0.91431  0.18271  0.95503  1
