CIF file written using JARVIS-Tools package.
data_H7BrO3
_symmetry_space_group_name_H-M  'P1'
_cell_length_a       6.08472
_cell_length_b       6.18413
_cell_length_c       6.83995
_cell_angle_alpha    89.2276
_cell_angle_beta     57.3253
_cell_angle_gamma    89.5034

_symmetry_Int_Tables_number  1
_chemical_formula_structural  H7BrO3
_chemical_formula_sum  H4Br2O6
_cell_volume  216.62805630816965
_cell_formula_units_Z  2
loop_
  _symmetry_equiv_pos_site_id
 _symmetry_equiv_pos_as_xyz
 1  'x, y, z'
loop_
 _atom_site_type_symbol
 _atom_site_label
 _atom_site_symmetry_multiplicity
 _atom_site_fract_x
 _atom_site_fract_y
 _atom_site_fract_z
 _atom_site_fract_occupancy
 Br  Br1  1  0.99492  -0.00095  -0.00070  1
 Br  Br2  1  0.52807  0.50642  -0.01981  1
 H  H1  1  0.80644  0.46444  0.17257  1
 H  H2  1  0.71682  0.02560  0.55820  1
 H  H3  1  0.07325  0.50459  0.15885  1
 H  H4  1  0.28352  0.87794  0.36310  1
 H  H5  1  0.53305  0.74826  0.71166  1
 H  H6  1  0.72125  0.72305  0.43640  1
 H  H7  1  0.57325  -0.01675  0.16571  1
 H  H8  1  0.69404  0.25421  0.71457  1
 H  H9  1  0.82807  0.28466  0.43408  1
 H  H10  1  0.11206  0.77860  0.70747  1
 H  H11  1  0.21732  0.22718  0.69783  1
 H  H12  1  0.25699  0.44151  0.54411  1
 H  H13  1  0.34930  0.14369  0.38338  1
 H  H14  1  0.93289  0.65827  0.64864  1
 O  O1  1  0.80281  0.17776  0.56118  1
 O  O2  1  0.11855  0.69551  0.57905  1
 O  O3  1  0.88101  0.48864  0.26786  1
 O  O4  1  0.37853  0.01102  0.26679  1
 O  O5  1  0.60624  0.82718  0.56160  1
 O  O6  1  0.32948  0.29480  0.54054  1
