CIF file written using JARVIS-Tools package.
data_In2HgSe4
_symmetry_space_group_name_H-M  'I-4'
_cell_length_a       5.92663
_cell_length_b       5.92663
_cell_length_c       7.19943
_cell_angle_alpha    114.306
_cell_angle_beta     114.306
_cell_angle_gamma    90

_symmetry_Int_Tables_number  82
_chemical_formula_structural  In2HgSe4
_chemical_formula_sum  In2HgSe4
_cell_volume  205.62116369658398
_cell_formula_units_Z  1
loop_
  _symmetry_equiv_pos_site_id
 _symmetry_equiv_pos_as_xyz
 1  'x, y, z'
loop_
 _atom_site_type_symbol
 _atom_site_label
 _atom_site_symmetry_multiplicity
 _atom_site_fract_x
 _atom_site_fract_y
 _atom_site_fract_z
 _atom_site_fract_occupancy
 Hg  Hg1  1  0.00000  0.00000  0.00000  1
 In  In1  1  0.25000  0.75000  0.50000  1
 In  In2  1  0.50000  0.50000  0.00000  1
 Se  Se1  1  0.85895  0.90982  0.28039  1
 Se  Se2  1  0.62943  0.14105  0.71961  1
 Se  Se3  1  0.09018  0.57856  0.71961  1
 Se  Se4  1  0.42144  0.37057  0.28039  1
