CIF file written using JARVIS-Tools package.
data_Tb2CoGe2
_symmetry_space_group_name_H-M  'C2/m'
_cell_length_a       5.63819
_cell_length_b       5.63819
_cell_length_c       10.2317
_cell_angle_alpha    64.6258
_cell_angle_beta     64.6258
_cell_angle_gamma    43.5583

_symmetry_Int_Tables_number  12
_chemical_formula_structural  Tb2CoGe2
_chemical_formula_sum  Tb4Co2Ge4
_cell_volume  198.84079535026066
_cell_formula_units_Z  2
loop_
  _symmetry_equiv_pos_site_id
 _symmetry_equiv_pos_as_xyz
 1  'x, y, z'
loop_
 _atom_site_type_symbol
 _atom_site_label
 _atom_site_symmetry_multiplicity
 _atom_site_fract_x
 _atom_site_fract_y
 _atom_site_fract_z
 _atom_site_fract_occupancy
 Co  Co1  1  0.27479  0.27479  0.34278  1
 Co  Co2  1  0.72521  0.72521  0.65722  1
 Ge  Ge1  1  0.51502  0.51502  0.12199  1
 Ge  Ge2  1  0.48498  0.48498  0.87801  1
 Ge  Ge3  1  0.65956  0.65956  0.43925  1
 Ge  Ge4  1  0.34044  0.34044  0.56075  1
 Tb  Tb1  1  0.81081  0.81081  0.11602  1
 Tb  Tb2  1  0.18919  0.18919  0.88398  1
 Tb  Tb3  1  0.99451  0.99451  0.33311  1
 Tb  Tb4  1  0.00549  0.00549  0.66689  1
