CIF file written using JARVIS-Tools package.
data_GeAsW
_symmetry_space_group_name_H-M  'C2/m'
_cell_length_a       4.95787
_cell_length_b       4.95787
_cell_length_c       7.72496
_cell_angle_alpha    61.6725
_cell_angle_beta     61.6724
_cell_angle_gamma    39.2453

_symmetry_Int_Tables_number  12
_chemical_formula_structural  GeAsW
_chemical_formula_sum  Ge2As2W2
_cell_volume  103.77117595002858
_cell_formula_units_Z  2
loop_
  _symmetry_equiv_pos_site_id
 _symmetry_equiv_pos_as_xyz
 1  'x, y, z'
loop_
 _atom_site_type_symbol
 _atom_site_label
 _atom_site_symmetry_multiplicity
 _atom_site_fract_x
 _atom_site_fract_y
 _atom_site_fract_z
 _atom_site_fract_occupancy
 As  As1  1  0.85617  0.85617  0.53492  1
 As  As2  1  0.14383  0.14383  0.46508  1
 Ge  Ge1  1  0.39658  0.39658  0.89606  1
 Ge  Ge2  1  0.60342  0.60342  0.10394  1
 W  W1  1  0.15443  0.15443  0.80020  1
 W  W2  1  0.84557  0.84557  0.19980  1
