CIF file written using JARVIS-Tools package.
data_MgHg2
_symmetry_space_group_name_H-M  'Cmcm'
_cell_length_a       7.51918
_cell_length_b       7.51918
_cell_length_c       5.21698
_cell_angle_alpha    90
_cell_angle_beta     90
_cell_angle_gamma    152.435

_symmetry_Int_Tables_number  63
_chemical_formula_structural  MgHg2
_chemical_formula_sum  Mg2Hg4
_cell_volume  136.49335984711303
_cell_formula_units_Z  2
loop_
  _symmetry_equiv_pos_site_id
 _symmetry_equiv_pos_as_xyz
 1  'x, y, z'
loop_
 _atom_site_type_symbol
 _atom_site_label
 _atom_site_symmetry_multiplicity
 _atom_site_fract_x
 _atom_site_fract_y
 _atom_site_fract_z
 _atom_site_fract_occupancy
 Hg  Hg1  1  0.26312  0.73688  0.25000  1
 Hg  Hg2  1  0.93923  0.06077  0.25000  1
 Hg  Hg3  1  0.73688  0.26312  0.75000  1
 Hg  Hg4  1  0.06077  0.93923  0.75000  1
 Mg  Mg1  1  0.60243  0.39757  0.25000  1
 Mg  Mg2  1  0.39757  0.60243  0.75000  1
