CIF file written using JARVIS-Tools package.
data_ErBrO
_symmetry_space_group_name_H-M  'P4/nmm'
_cell_length_a       3.79826
_cell_length_b       3.79826
_cell_length_c       8.29568
_cell_angle_alpha    90
_cell_angle_beta     90
_cell_angle_gamma    90

_symmetry_Int_Tables_number  129
_chemical_formula_structural  ErBrO
_chemical_formula_sum  Er2Br2O2
_cell_volume  119.68015187982942
_cell_formula_units_Z  2
loop_
  _symmetry_equiv_pos_site_id
 _symmetry_equiv_pos_as_xyz
 1  'x, y, z'
loop_
 _atom_site_type_symbol
 _atom_site_label
 _atom_site_symmetry_multiplicity
 _atom_site_fract_x
 _atom_site_fract_y
 _atom_site_fract_z
 _atom_site_fract_occupancy
 Br  Br1  1  0.00000  0.50000  0.66747  1
 Br  Br2  1  0.50000  0.00000  0.33253  1
 Er  Er1  1  0.00000  0.50000  0.13563  1
 Er  Er2  1  0.50000  0.00000  0.86437  1
 O  O1  1  0.00000  0.00000  0.00000  1
 O  O2  1  0.50000  0.50000  0.00000  1
