CIF file written using JARVIS-Tools package.
data_BaTiF6
_symmetry_space_group_name_H-M  'R-3m'
_cell_length_a       4.93397
_cell_length_b       4.93398
_cell_length_c       4.93397
_cell_angle_alpha    97.9402
_cell_angle_beta     97.9402
_cell_angle_gamma    97.9403

_symmetry_Int_Tables_number  166
_chemical_formula_structural  BaTiF6
_chemical_formula_sum  BaTiF6
_cell_volume  116.29765564568558
_cell_formula_units_Z  1
loop_
  _symmetry_equiv_pos_site_id
 _symmetry_equiv_pos_as_xyz
 1  'x, y, z'
loop_
 _atom_site_type_symbol
 _atom_site_label
 _atom_site_symmetry_multiplicity
 _atom_site_fract_x
 _atom_site_fract_y
 _atom_site_fract_z
 _atom_site_fract_occupancy
 Ba  Ba1  1  0.00000  0.00000  0.00000  1
 F  F1  1  0.42299  0.77363  0.77363  1
 F  F2  1  0.77363  0.77363  0.42299  1
 F  F3  1  0.57701  0.22637  0.22637  1
 F  F4  1  0.22637  0.57701  0.22637  1
 F  F5  1  0.22637  0.22637  0.57701  1
 F  F6  1  0.77363  0.42299  0.77363  1
 Ti  Ti1  1  0.50000  0.50000  0.50000  1
