CIF file written using JARVIS-Tools package.
data_SmHo3
_symmetry_space_group_name_H-M  'P6_3/mmc'
_cell_length_a       7.14497
_cell_length_b       7.14496
_cell_length_c       5.61608
_cell_angle_alpha    90
_cell_angle_beta     90
_cell_angle_gamma    120

_symmetry_Int_Tables_number  194
_chemical_formula_structural  SmHo3
_chemical_formula_sum  Sm2Ho6
_cell_volume  248.2929762467902
_cell_formula_units_Z  2
loop_
  _symmetry_equiv_pos_site_id
 _symmetry_equiv_pos_as_xyz
 1  'x, y, z'
loop_
 _atom_site_type_symbol
 _atom_site_label
 _atom_site_symmetry_multiplicity
 _atom_site_fract_x
 _atom_site_fract_y
 _atom_site_fract_z
 _atom_site_fract_occupancy
 Ho  Ho1  1  0.16582  0.33163  0.25000  1
 Ho  Ho2  1  0.66837  0.83418  0.25000  1
 Ho  Ho3  1  0.16582  0.83418  0.25000  1
 Ho  Ho4  1  0.83418  0.66837  0.75000  1
 Ho  Ho5  1  0.33163  0.16582  0.75000  1
 Ho  Ho6  1  0.83418  0.16582  0.75000  1
 Sm  Sm1  1  0.33333  0.66667  0.75000  1
 Sm  Sm2  1  0.66667  0.33333  0.25000  1
