CIF file written using JARVIS-Tools package.
data_BaSnF6
_symmetry_space_group_name_H-M  'R-3'
_cell_length_a       4.95785
_cell_length_b       4.95786
_cell_length_c       4.95785
_cell_angle_alpha    97.2124
_cell_angle_beta     97.2125
_cell_angle_gamma    97.2125

_symmetry_Int_Tables_number  148
_chemical_formula_structural  BaSnF6
_chemical_formula_sum  BaSnF6
_cell_volume  118.70204311907733
_cell_formula_units_Z  1
loop_
  _symmetry_equiv_pos_site_id
 _symmetry_equiv_pos_as_xyz
 1  'x, y, z'
loop_
 _atom_site_type_symbol
 _atom_site_label
 _atom_site_symmetry_multiplicity
 _atom_site_fract_x
 _atom_site_fract_y
 _atom_site_fract_z
 _atom_site_fract_occupancy
 Ba  Ba1  1  0.00000  0.00000  0.00000  1
 F  F1  1  0.43245  0.84013  0.73043  1
 F  F2  1  0.84013  0.73043  0.43245  1
 F  F3  1  0.26957  0.56755  0.15987  1
 F  F4  1  0.15987  0.26957  0.56755  1
 F  F5  1  0.56755  0.15987  0.26957  1
 F  F6  1  0.73043  0.43245  0.84013  1
 Sn  Sn1  1  0.50000  0.50000  0.50000  1
