CIF file written using JARVIS-Tools package.
data_CrO2
_symmetry_space_group_name_H-M  'Cm'
_cell_length_a       2.89778
_cell_length_b       2.89741
_cell_length_c       9.43161
_cell_angle_alpha    72.6879
_cell_angle_beta     90.0561
_cell_angle_gamma    120.011

_symmetry_Int_Tables_number  8
_chemical_formula_structural  CrO2
_chemical_formula_sum  Cr2O4
_cell_volume  64.40891476051351
_cell_formula_units_Z  2
loop_
  _symmetry_equiv_pos_site_id
 _symmetry_equiv_pos_as_xyz
 1  'x, y, z'
loop_
 _atom_site_type_symbol
 _atom_site_label
 _atom_site_symmetry_multiplicity
 _atom_site_fract_x
 _atom_site_fract_y
 _atom_site_fract_z
 _atom_site_fract_occupancy
 Cr  Cr1  1  0.99744  -0.00149  0.50210  1
 Cr  Cr2  1  0.99812  0.00097  0.00205  1
 O  O1  1  0.73278  0.46985  0.39523  1
 O  O2  1  0.59617  0.19643  0.10880  1
 O  O3  1  0.26212  0.52722  0.60897  1
 O  O4  1  0.40005  0.80546  0.89531  1
