CIF file written using JARVIS-Tools package.
data_ZnSnAs2
_symmetry_space_group_name_H-M  'R3m'
_cell_length_a       7.27506
_cell_length_b       7.27506
_cell_length_c       7.27506
_cell_angle_alpha    33.5904
_cell_angle_beta     33.5904
_cell_angle_gamma    33.5904

_symmetry_Int_Tables_number  160
_chemical_formula_structural  ZnSnAs2
_chemical_formula_sum  ZnSnAs2
_cell_volume  104.98393052959487
_cell_formula_units_Z  1
loop_
  _symmetry_equiv_pos_site_id
 _symmetry_equiv_pos_as_xyz
 1  'x, y, z'
loop_
 _atom_site_type_symbol
 _atom_site_label
 _atom_site_symmetry_multiplicity
 _atom_site_fract_x
 _atom_site_fract_y
 _atom_site_fract_z
 _atom_site_fract_occupancy
 As  As1  1  0.98956  0.98956  0.98956  1
 As  As2  1  0.50822  0.50822  0.50822  1
 Sn  Sn1  1  0.11685  0.11685  0.11685  1
 Zn  Zn1  1  0.63537  0.63537  0.63537  1
