CIF file written using JARVIS-Tools package.
data_K2MnF4
_symmetry_space_group_name_H-M  'I4/mmm'
_cell_length_a       7.25529
_cell_length_b       7.25529
_cell_length_c       7.25529
_cell_angle_alpha    146.583
_cell_angle_beta     146.583
_cell_angle_gamma    47.9823

_symmetry_Int_Tables_number  139
_chemical_formula_structural  K2MnF4
_chemical_formula_sum  K2MnF4
_cell_volume  115.36649112107739
_cell_formula_units_Z  1
loop_
  _symmetry_equiv_pos_site_id
 _symmetry_equiv_pos_as_xyz
 1  'x, y, z'
loop_
 _atom_site_type_symbol
 _atom_site_label
 _atom_site_symmetry_multiplicity
 _atom_site_fract_x
 _atom_site_fract_y
 _atom_site_fract_z
 _atom_site_fract_occupancy
 F  F1  1  0.16005  0.16005  0.00000  1
 F  F2  1  0.83995  0.83995  -0.00000  1
 F  F3  1  0.50000  -0.00000  0.50000  1
 F  F4  1  0.00000  0.50000  0.50000  1
 K  K1  1  0.35428  0.35428  -0.00000  1
 K  K2  1  0.64572  0.64572  0.00000  1
 Mn  Mn1  1  0.00000  0.00000  0.00000  1
