CIF file written using JARVIS-Tools package.
data_H9C8N
_symmetry_space_group_name_H-M  'P1'
_cell_length_a       5.36543
_cell_length_b       7.16527
_cell_length_c       8.9415
_cell_angle_alpha    105.605
_cell_angle_beta     103.636
_cell_angle_gamma    98.6383

_symmetry_Int_Tables_number  1
_chemical_formula_structural  H9C8N
_chemical_formula_sum  H8C6N2
_cell_volume  313.26032150111655
_cell_formula_units_Z  2
loop_
  _symmetry_equiv_pos_site_id
 _symmetry_equiv_pos_as_xyz
 1  'x, y, z'
loop_
 _atom_site_type_symbol
 _atom_site_label
 _atom_site_symmetry_multiplicity
 _atom_site_fract_x
 _atom_site_fract_y
 _atom_site_fract_z
 _atom_site_fract_occupancy
 C  C1  1  0.26090  0.26966  0.44858  1
 C  C2  1  0.77498  0.33510  0.81359  1
 C  C3  1  0.77498  0.33508  0.31357  1
 C  C4  1  0.97327  0.75431  0.70819  1
 C  C5  1  0.97335  0.75432  0.20822  1
 C  C6  1  0.10018  0.13262  0.80201  1
 C  C7  1  0.10022  0.13263  0.30202  1
 C  C8  1  0.85669  0.17147  0.23473  1
 C  C9  1  0.85666  0.17149  0.73473  1
 C  C10  1  0.26089  0.26964  0.94856  1
 C  C11  1  0.18438  0.43794  0.02878  1
 C  C12  1  0.18436  0.43795  0.52878  1
 C  C13  1  0.17432  0.94390  0.72148  1
 C  C14  1  0.17438  0.94392  0.22151  1
 C  C15  1  0.93439  0.46982  0.96472  1
 C  C16  1  0.93437  0.46981  0.46470  1
 H  H1  1  0.58270  0.35971  0.26142  1
 H  H2  1  0.37408  0.94381  0.28983  1
 H  H3  1  0.58271  0.35975  0.76145  1
 H  H4  1  0.72784  0.06961  0.11819  1
 H  H5  1  0.31432  0.53875  0.64487  1
 H  H6  1  0.31436  0.53873  0.14487  1
 H  H7  1  0.45255  0.24477  0.00185  1
 H  H8  1  0.45257  0.24480  0.50188  1
 H  H9  1  0.82083  0.79996  0.26356  1
 H  H10  1  0.82074  0.79996  0.76351  1
 H  H11  1  0.37401  0.94378  0.78978  1
 H  H12  1  0.72779  0.06964  0.61820  1
 H  H13  1  0.64120  0.60778  0.00519  1
 H  H14  1  0.64115  0.60774  0.50515  1
 H  H15  1  0.18056  0.93768  0.59782  1
 H  H16  1  0.18065  0.93768  0.09785  1
 H  H17  1  0.07134  0.66813  0.27911  1
 H  H18  1  0.07125  0.66814  0.77910  1
 N  N1  1  0.83990  0.62625  0.04248  1
 N  N2  1  0.83985  0.62623  0.54245  1
