CIF file written using JARVIS-Tools package.
data_ZnH4C4O4
_symmetry_space_group_name_H-M  'P-1'
_cell_length_a       3.4868
_cell_length_b       4.50587
_cell_length_c       7.59508
_cell_angle_alpha    81.7674
_cell_angle_beta     99.6585
_cell_angle_gamma    109.75

_symmetry_Int_Tables_number  2
_chemical_formula_structural  ZnH4C4O4
_chemical_formula_sum  ZnH4C4O4
_cell_volume  110.23343251266135
_cell_formula_units_Z  1
loop_
  _symmetry_equiv_pos_site_id
 _symmetry_equiv_pos_as_xyz
 1  'x, y, z'
loop_
 _atom_site_type_symbol
 _atom_site_label
 _atom_site_symmetry_multiplicity
 _atom_site_fract_x
 _atom_site_fract_y
 _atom_site_fract_z
 _atom_site_fract_occupancy
 C  C1  1  0.98704  0.66570  0.50619  1
 C  C2  1  0.17564  0.78129  0.68894  1
 C  C3  1  0.04838  0.53912  0.84768  1
 C  C4  1  0.23687  0.65474  0.03043  1
 H  H1  1  0.50965  0.86468  0.68963  1
 H  H2  1  0.10561  -0.00095  0.69446  1
 H  H3  1  0.11847  0.32138  0.84218  1
 H  H4  1  0.71436  0.45570  0.84697  1
 O  O1  1  0.02608  0.87198  0.36900  1
 O  O2  1  0.80029  0.37157  0.49717  1
 O  O3  1  0.19771  0.44847  0.16763  1
 O  O4  1  0.42360  0.94887  0.03944  1
 Zn  Zn1  1  0.61170  0.16026  0.26830  1
