CIF file written using JARVIS-Tools package.
data_K2NaMoO3F3
_symmetry_space_group_name_H-M  'Fmm2'
_cell_length_a       6.0111
_cell_length_b       5.93045
_cell_length_c       5.88732
_cell_angle_alpha    61.1466
_cell_angle_beta     59.7807
_cell_angle_gamma    59.0729

_symmetry_Int_Tables_number  42
_chemical_formula_structural  K2NaMoO3F3
_chemical_formula_sum  K2NaMoO3F3
_cell_volume  148.30270435219379
_cell_formula_units_Z  1
loop_
  _symmetry_equiv_pos_site_id
 _symmetry_equiv_pos_as_xyz
 1  'x, y, z'
loop_
 _atom_site_type_symbol
 _atom_site_label
 _atom_site_symmetry_multiplicity
 _atom_site_fract_x
 _atom_site_fract_y
 _atom_site_fract_z
 _atom_site_fract_occupancy
 F  F1  1  0.24017  0.76601  0.23399  1
 F  F2  1  0.76274  0.76274  0.23726  1
 F  F3  1  0.76601  0.24017  0.75983  1
 K  K1  1  0.76061  0.76061  0.73939  1
 K  K2  1  0.26061  0.26061  0.23939  1
 Mo  Mo1  1  0.02129  0.02129  0.97871  1
 Na  Na1  1  0.50325  0.50325  0.49675  1
 O  O1  1  0.19614  0.76324  0.80386  1
 O  O2  1  0.22594  0.22594  0.77406  1
 O  O3  1  0.76324  0.19614  0.23676  1
