CIF file written using JARVIS-Tools package.
data_CdH12C8O4
_symmetry_space_group_name_H-M  'P-1'
_cell_length_a       4.05603
_cell_length_b       4.10224
_cell_length_c       12.5768
_cell_angle_alpha    88.7774
_cell_angle_beta     96.2299
_cell_angle_gamma    103.348

_symmetry_Int_Tables_number  2
_chemical_formula_structural  CdH12C8O4
_chemical_formula_sum  CdH2C8O4
_cell_volume  202.4056690119745
_cell_formula_units_Z  1
loop_
  _symmetry_equiv_pos_site_id
 _symmetry_equiv_pos_as_xyz
 1  'x, y, z'
loop_
 _atom_site_type_symbol
 _atom_site_label
 _atom_site_symmetry_multiplicity
 _atom_site_fract_x
 _atom_site_fract_y
 _atom_site_fract_z
 _atom_site_fract_occupancy
 C  C1  1  0.04105  0.23041  0.62817  1
 C  C2  1  0.69932  0.00482  0.33082  1
 C  C3  1  0.80486  0.21157  0.43227  1
 C  C4  1  0.91808  0.01065  0.52838  1
 C  C5  1  0.15933  0.04111  0.72563  1
 C  C6  1  0.28230  0.26088  0.82542  1
 C  C7  1  0.39540  0.05992  0.92154  1
 C  C8  1  0.50099  0.26664  0.02299  1
 Cd  Cd1  1  0.10015  0.63572  0.17691  1
 H  H1  1  0.01289  0.42501  0.41739  1
 H  H2  1  0.25183  0.43971  0.60987  1
 H  H3  1  0.49548  0.46913  0.80875  1
 H  H4  1  0.07627  0.37390  0.84593  1
 H  H5  1  0.12412  0.89769  0.50786  1
 H  H6  1  0.83518  0.34568  0.64790  1
 H  H7  1  0.36519  0.92584  0.70590  1
 H  H8  1  0.94855  0.83182  0.74392  1
 H  H9  1  0.61478  0.96289  0.90417  1
 H  H10  1  0.18730  0.84653  0.93641  1
 H  H11  1  0.70494  0.80235  0.54506  1
 H  H12  1  0.58543  0.30851  0.44965  1
 O  O1  1  0.87406  0.07743  0.25112  1
 O  O2  1  0.32628  0.19402  0.10270  1
 O  O3  1  0.43958  0.75909  0.32957  1
 O  O4  1  0.76074  0.51236  0.02424  1
