CIF file written using JARVIS-Tools package.
data_MgSi2
_symmetry_space_group_name_H-M  'C2/m'
_cell_length_a       4.65014
_cell_length_b       5.31014
_cell_length_c       5.37716
_cell_angle_alpha    75.2311
_cell_angle_beta     64.3602
_cell_angle_gamma    64.0373

_symmetry_Int_Tables_number  12
_chemical_formula_structural  MgSi2
_chemical_formula_sum  Mg2Si4
_cell_volume  107.27077335694396
_cell_formula_units_Z  2
loop_
  _symmetry_equiv_pos_site_id
 _symmetry_equiv_pos_as_xyz
 1  'x, y, z'
loop_
 _atom_site_type_symbol
 _atom_site_label
 _atom_site_symmetry_multiplicity
 _atom_site_fract_x
 _atom_site_fract_y
 _atom_site_fract_z
 _atom_site_fract_occupancy
 Mg  Mg1  1  0.26968  0.15834  0.30217  1
 Mg  Mg2  1  0.73032  0.84166  0.69783  1
 Si  Si1  1  0.94852  0.23473  0.86810  1
 Si  Si2  1  0.59043  0.56838  0.25083  1
 Si  Si3  1  0.05148  0.76527  0.13190  1
 Si  Si4  1  0.40957  0.43162  0.74917  1
