CIF file written using JARVIS-Tools package.
data_MgPb
_symmetry_space_group_name_H-M  'C2/m'
_cell_length_a       5.99974
_cell_length_b       5.99973
_cell_length_c       5.41869
_cell_angle_alpha    75.1841
_cell_angle_beta     75.184
_cell_angle_gamma    33.984

_symmetry_Int_Tables_number  12
_chemical_formula_structural  MgPb
_chemical_formula_sum  Mg2Pb2
_cell_volume  105.05871052092317
_cell_formula_units_Z  2
loop_
  _symmetry_equiv_pos_site_id
 _symmetry_equiv_pos_as_xyz
 1  'x, y, z'
loop_
 _atom_site_type_symbol
 _atom_site_label
 _atom_site_symmetry_multiplicity
 _atom_site_fract_x
 _atom_site_fract_y
 _atom_site_fract_z
 _atom_site_fract_occupancy
 Mg  Mg1  1  0.13004  0.13004  0.68594  1
 Mg  Mg2  1  0.86996  0.86996  0.31406  1
 Pb  Pb1  1  0.38217  0.38217  0.79967  1
 Pb  Pb2  1  0.61783  0.61783  0.20033  1
