CIF file written using JARVIS-Tools package.
data_H6C7N2O
_symmetry_space_group_name_H-M  'P-1'
_cell_length_a       4.61925
_cell_length_b       6.30807
_cell_length_c       9.50777
_cell_angle_alpha    85.4025
_cell_angle_beta     89.877
_cell_angle_gamma    87.9188

_symmetry_Int_Tables_number  2
_chemical_formula_structural  H6C7N2O
_chemical_formula_sum  H2C4N4O2
_cell_volume  275.9692383765603
_cell_formula_units_Z  2
loop_
  _symmetry_equiv_pos_site_id
 _symmetry_equiv_pos_as_xyz
 1  'x, y, z'
loop_
 _atom_site_type_symbol
 _atom_site_label
 _atom_site_symmetry_multiplicity
 _atom_site_fract_x
 _atom_site_fract_y
 _atom_site_fract_z
 _atom_site_fract_occupancy
 C  C1  1  0.67777  0.72640  0.20792  1
 C  C2  1  0.85543  0.00925  0.94812  1
 C  C3  1  0.58564  0.41436  0.94527  1
 C  C4  1  0.49060  0.24780  0.03650  1
 C  C5  1  0.81790  0.37924  0.85404  1
 C  C6  1  0.76326  0.69720  0.68546  1
 C  C7  1  0.95046  0.17581  0.85688  1
 C  C8  1  0.62315  0.04437  0.03935  1
 C  C9  1  0.86428  0.28130  0.32336  1
 C  C10  1  0.63022  0.40344  0.37108  1
 C  C11  1  0.81085  0.02016  0.52230  1
 C  C12  1  0.48771  0.33131  0.49489  1
 C  C13  1  0.95337  0.09229  0.39849  1
 C  C14  1  0.57680  0.14230  0.57001  1
 H  H1  1  0.12840  0.14699  0.78501  1
 H  H2  1  0.29918  0.61564  0.29412  1
 H  H3  1  0.14186  0.80794  0.59925  1
 H  H4  1  0.14930  0.54654  0.74831  1
 H  H5  1  0.31267  0.27663  0.10838  1
 H  H6  1  0.48265  0.57196  0.94659  1
 H  H7  1  0.13679  -0.00100  0.36137  1
 H  H8  1  0.30430  0.42460  0.53201  1
 H  H9  1  0.29175  0.87708  0.14507  1
 H  H10  1  0.95841  0.85165  0.94680  1
 H  H11  1  0.97171  0.33371  0.22586  1
 H  H12  1  0.46937  0.08989  0.66751  1
 N  N1  1  0.92100  0.83335  0.59863  1
 N  N2  1  0.92909  0.54357  0.76187  1
 N  N3  1  0.51196  0.88003  0.13151  1
 N  N4  1  0.52004  0.59024  0.29474  1
 O  O1  1  0.49237  0.70955  0.69377  1
 O  O2  1  0.94866  0.71405  0.19961  1
