CIF file written using JARVIS-Tools package.
data_CoTe2
_symmetry_space_group_name_H-M  'Pnnm'
_cell_length_a       3.91842
_cell_length_b       5.37602
_cell_length_c       6.32555
_cell_angle_alpha    90
_cell_angle_beta     90
_cell_angle_gamma    90

_symmetry_Int_Tables_number  58
_chemical_formula_structural  CoTe2
_chemical_formula_sum  Co2Te4
_cell_volume  133.25083699157742
_cell_formula_units_Z  2
loop_
  _symmetry_equiv_pos_site_id
 _symmetry_equiv_pos_as_xyz
 1  'x, y, z'
loop_
 _atom_site_type_symbol
 _atom_site_label
 _atom_site_symmetry_multiplicity
 _atom_site_fract_x
 _atom_site_fract_y
 _atom_site_fract_z
 _atom_site_fract_occupancy
 Co  Co1  1  0.00000  0.00000  0.00000  1
 Co  Co2  1  0.50000  0.50000  0.50000  1
 Te  Te1  1  0.00000  0.22811  0.36105  1
 Te  Te2  1  0.00000  0.77189  0.63895  1
 Te  Te3  1  0.50000  0.72811  0.13895  1
 Te  Te4  1  0.50000  0.27189  0.86105  1
