CIF file written using JARVIS-Tools package.
data_Te4MoW3Se2S2
_symmetry_space_group_name_H-M  'P3m1'
_cell_length_a       3.40843
_cell_length_b       3.40844
_cell_length_c       38.6479
_cell_angle_alpha    89.9997
_cell_angle_beta     90
_cell_angle_gamma    120

_symmetry_Int_Tables_number  156
_chemical_formula_structural  Te4MoW3Se2S2
_chemical_formula_sum  Te4MoW3Se2S2
_cell_volume  388.83721512237304
_cell_formula_units_Z  1
loop_
  _symmetry_equiv_pos_site_id
 _symmetry_equiv_pos_as_xyz
 1  'x, y, z'
loop_
 _atom_site_type_symbol
 _atom_site_label
 _atom_site_symmetry_multiplicity
 _atom_site_fract_x
 _atom_site_fract_y
 _atom_site_fract_z
 _atom_site_fract_occupancy
 Mo  Mo1  1  0.66669  0.33338  0.28180  1
 S  S1  1  0.33336  0.66672  0.32074  1
 S  S2  1  0.33336  0.66673  0.24288  1
 Se  Se1  1  0.66665  0.33330  0.05127  1
 Se  Se2  1  0.66665  0.33329  0.13680  1
 Te  Te1  1  0.33335  0.66671  0.70630  1
 Te  Te2  1  0.66664  0.33328  0.42063  1
 Te  Te3  1  0.66663  0.33327  0.51818  1
 Te  Te4  1  0.33336  0.66672  0.60902  1
 W  W1  1  0.33331  0.66663  0.09392  1
 W  W2  1  0.33330  0.66660  0.46952  1
 W  W3  1  0.66669  0.33338  0.65769  1
