CIF file written using JARVIS-Tools package.
data_KSrI3
_symmetry_space_group_name_H-M  'Cmcm'
_cell_length_a       7.98162
_cell_length_b       7.98162
_cell_length_c       11.9433
_cell_angle_alpha    90
_cell_angle_beta     90
_cell_angle_gamma    145.747

_symmetry_Int_Tables_number  63
_chemical_formula_structural  KSrI3
_chemical_formula_sum  K2Sr2I6
_cell_volume  428.25367557753276
_cell_formula_units_Z  2
loop_
  _symmetry_equiv_pos_site_id
 _symmetry_equiv_pos_as_xyz
 1  'x, y, z'
loop_
 _atom_site_type_symbol
 _atom_site_label
 _atom_site_symmetry_multiplicity
 _atom_site_fract_x
 _atom_site_fract_y
 _atom_site_fract_z
 _atom_site_fract_occupancy
 I  I1  1  0.64174  0.35826  0.06333  1
 I  I2  1  0.35826  0.64174  0.93667  1
 I  I3  1  0.35826  0.64174  0.56333  1
 I  I4  1  0.64174  0.35826  0.43667  1
 I  I5  1  0.91772  0.08228  0.25000  1
 I  I6  1  0.08228  0.91772  0.75000  1
 K  K1  1  0.24887  0.75113  0.25000  1
 K  K2  1  0.75113  0.24887  0.75000  1
 Sr  Sr1  1  0.00000  0.00000  0.00000  1
 Sr  Sr2  1  0.00000  0.00000  0.50000  1
