CIF file written using JARVIS-Tools package.
data_BeCrO4
_symmetry_space_group_name_H-M  'C2/m'
_cell_length_a       7.11431
_cell_length_b       7.11431
_cell_length_c       5.70495
_cell_angle_alpha    77.8302
_cell_angle_beta     102.17
_cell_angle_gamma    98.5823

_symmetry_Int_Tables_number  12
_chemical_formula_structural  BeCrO4
_chemical_formula_sum  Be4Cr4O6
_cell_volume  274.25097297754075
_cell_formula_units_Z  4
loop_
  _symmetry_equiv_pos_site_id
 _symmetry_equiv_pos_as_xyz
 1  'x, y, z'
loop_
 _atom_site_type_symbol
 _atom_site_label
 _atom_site_symmetry_multiplicity
 _atom_site_fract_x
 _atom_site_fract_y
 _atom_site_fract_z
 _atom_site_fract_occupancy
 Be  Be1  1  0.11570  0.88430  0.79211  1
 Be  Be2  1  0.24626  0.24626  0.50000  1
 Be  Be3  1  0.75374  0.75374  0.50000  1
 Be  Be4  1  0.88430  0.11570  0.20789  1
 Cr  Cr1  1  0.28069  0.71931  0.38302  1
 Cr  Cr2  1  0.23779  0.23779  -0.00000  1
 Cr  Cr3  1  0.76221  0.76221  -0.00000  1
 Cr  Cr4  1  0.71931  0.28069  0.61698  1
 O  O1  1  0.19156  0.80844  0.57782  1
 O  O2  1  0.18677  0.81323  0.09279  1
 O  O3  1  0.21609  0.46153  0.90519  1
 O  O4  1  0.81323  0.18677  0.90721  1
 O  O5  1  0.51794  0.77237  0.43271  1
 O  O6  1  0.22763  0.48206  0.43271  1
 O  O7  1  0.53847  0.78391  0.90519  1
 O  O8  1  0.48206  0.22763  0.56729  1
 O  O9  1  0.12397  0.16588  0.25758  1
 O  O10  1  0.83412  0.87603  0.25758  1
 O  O11  1  0.87603  0.83412  0.74242  1
 O  O12  1  0.77237  0.51794  0.56729  1
 O  O13  1  0.46153  0.21609  0.09481  1
 O  O14  1  0.78391  0.53847  0.09481  1
 O  O15  1  0.16588  0.12397  0.74242  1
 O  O16  1  0.80844  0.19156  0.42218  1
