CIF file written using JARVIS-Tools package.
data_ZnP2
_symmetry_space_group_name_H-M  'P4_12_12'
_cell_length_a       5.10572
_cell_length_b       5.10572
_cell_length_c       18.6308
_cell_angle_alpha    90
_cell_angle_beta     90
_cell_angle_gamma    90

_symmetry_Int_Tables_number  92
_chemical_formula_structural  ZnP2
_chemical_formula_sum  Zn8P6
_cell_volume  485.6756451031029
_cell_formula_units_Z  8
loop_
  _symmetry_equiv_pos_site_id
 _symmetry_equiv_pos_as_xyz
 1  'x, y, z'
loop_
 _atom_site_type_symbol
 _atom_site_label
 _atom_site_symmetry_multiplicity
 _atom_site_fract_x
 _atom_site_fract_y
 _atom_site_fract_z
 _atom_site_fract_occupancy
 P  P1  1  0.48156  0.50795  0.87602  1
 P  P2  1  0.81896  0.30270  0.05915  1
 P  P3  1  0.19730  0.31896  0.30915  1
 P  P4  1  0.80270  0.68104  0.80915  1
 P  P5  1  0.98156  0.99205  0.87398  1
 P  P6  1  0.68104  0.80270  0.19085  1
 P  P7  1  0.18104  0.69730  0.55915  1
 P  P8  1  0.31896  0.19730  0.69085  1
 P  P9  1  0.69730  0.18104  0.44085  1
 P  P10  1  0.99205  0.98156  0.12602  1
 P  P11  1  0.51844  0.49205  0.37602  1
 P  P12  1  0.01844  0.00795  0.37398  1
 P  P13  1  0.49205  0.51844  0.62398  1
 P  P14  1  0.50795  0.48156  0.12398  1
 P  P15  1  0.00795  0.01844  0.62602  1
 P  P16  1  0.30270  0.81896  0.94085  1
 Zn  Zn1  1  0.36338  0.84674  0.44962  1
 Zn  Zn2  1  0.63662  0.15326  0.94962  1
 Zn  Zn3  1  0.84674  0.36338  0.55038  1
 Zn  Zn4  1  0.34674  0.13662  0.19962  1
 Zn  Zn5  1  0.65326  0.86338  0.69962  1
 Zn  Zn6  1  0.13662  0.34674  0.80038  1
 Zn  Zn7  1  0.86338  0.65326  0.30038  1
 Zn  Zn8  1  0.15326  0.63662  0.05038  1
