CIF file written using JARVIS-Tools package.
data_Zr3Sn4Sb2
_symmetry_space_group_name_H-M  'C2'
_cell_length_a       5.6041
_cell_length_b       5.6041
_cell_length_c       7.67803
_cell_angle_alpha    89.7903
_cell_angle_beta     89.7903
_cell_angle_gamma    120.117

_symmetry_Int_Tables_number  5
_chemical_formula_structural  Zr3Sn4Sb2
_chemical_formula_sum  Zr3Sn4Sb2
_cell_volume  208.57673052495022
_cell_formula_units_Z  1
loop_
  _symmetry_equiv_pos_site_id
 _symmetry_equiv_pos_as_xyz
 1  'x, y, z'
loop_
 _atom_site_type_symbol
 _atom_site_label
 _atom_site_symmetry_multiplicity
 _atom_site_fract_x
 _atom_site_fract_y
 _atom_site_fract_z
 _atom_site_fract_occupancy
 Sb  Sb1  1  0.83452  0.67207  0.16733  1
 Sb  Sb2  1  0.32793  0.16548  0.83267  1
 Sn  Sn1  1  0.83551  0.16449  0.50000  1
 Sn  Sn2  1  0.16981  0.34302  0.16970  1
 Sn  Sn3  1  0.65698  0.83019  0.83030  1
 Sn  Sn4  1  0.17485  0.82515  0.50000  1
 Zr  Zr1  1  0.50484  0.01007  0.16265  1
 Zr  Zr2  1  0.98993  0.49516  0.83735  1
 Zr  Zr3  1  0.50562  0.49438  0.50000  1
