CIF file written using JARVIS-Tools package.
data_Na2TiN2
_symmetry_space_group_name_H-M  'P-3m1'
_cell_length_a       3.13109
_cell_length_b       3.13112
_cell_length_c       8.77312
_cell_angle_alpha    89.9985
_cell_angle_beta     90.0041
_cell_angle_gamma    120

_symmetry_Int_Tables_number  164
_chemical_formula_structural  Na2TiN2
_chemical_formula_sum  Na2TiN2
_cell_volume  74.48735693645781
_cell_formula_units_Z  1
loop_
  _symmetry_equiv_pos_site_id
 _symmetry_equiv_pos_as_xyz
 1  'x, y, z'
loop_
 _atom_site_type_symbol
 _atom_site_label
 _atom_site_symmetry_multiplicity
 _atom_site_fract_x
 _atom_site_fract_y
 _atom_site_fract_z
 _atom_site_fract_occupancy
 N  N1  1  0.66664  0.33333  0.87709  1
 N  N2  1  0.33336  0.66667  0.12291  1
 Na  Na1  1  0.66668  0.33333  0.29420  1
 Na  Na2  1  0.33332  0.66667  0.70580  1
 Ti  Ti1  1  0.00000  0.00000  0.00000  1
