CIF file written using JARVIS-Tools package.
data_Al4Ni3Pt
_symmetry_space_group_name_H-M  'P4/mmm'
_cell_length_a       2.92148
_cell_length_b       2.92148
_cell_length_c       11.8825
_cell_angle_alpha    90
_cell_angle_beta     90
_cell_angle_gamma    90

_symmetry_Int_Tables_number  123
_chemical_formula_structural  Al4Ni3Pt
_chemical_formula_sum  Al4Ni3Pt
_cell_volume  101.41730761090982
_cell_formula_units_Z  1
loop_
  _symmetry_equiv_pos_site_id
 _symmetry_equiv_pos_as_xyz
 1  'x, y, z'
loop_
 _atom_site_type_symbol
 _atom_site_label
 _atom_site_symmetry_multiplicity
 _atom_site_fract_x
 _atom_site_fract_y
 _atom_site_fract_z
 _atom_site_fract_occupancy
 Al  Al1  1  0.00000  0.00000  0.85793  1
 Al  Al2  1  0.00000  0.00000  0.14207  1
 Al  Al3  1  0.00000  0.00000  0.38029  1
 Al  Al4  1  0.00000  0.00000  0.61971  1
 Ni  Ni1  1  0.50000  0.50000  0.26096  1
 Ni  Ni2  1  0.50000  0.50000  0.50000  1
 Ni  Ni3  1  0.50000  0.50000  0.73904  1
 Pt  Pt1  1  0.50000  0.50000  0.00000  1
