CIF file written using JARVIS-Tools package.
data_ZnIn2GeAs4
_symmetry_space_group_name_H-M  'I4/mmm'
_cell_length_a       6.85496
_cell_length_b       6.85496
_cell_length_c       6.85496
_cell_angle_alpha    131.84
_cell_angle_beta     131.84
_cell_angle_gamma    70.4816

_symmetry_Int_Tables_number  139
_chemical_formula_structural  ZnIn2GeAs4
_chemical_formula_sum  ZnIn2GeAs4
_cell_volume  175.18555675779183
_cell_formula_units_Z  1
loop_
  _symmetry_equiv_pos_site_id
 _symmetry_equiv_pos_as_xyz
 1  'x, y, z'
loop_
 _atom_site_type_symbol
 _atom_site_label
 _atom_site_symmetry_multiplicity
 _atom_site_fract_x
 _atom_site_fract_y
 _atom_site_fract_z
 _atom_site_fract_occupancy
 As  As1  1  0.50000  -0.00000  0.50000  1
 As  As2  1  0.74799  0.74799  -0.00000  1
 As  As3  1  -0.00000  0.50000  0.50000  1
 As  As4  1  0.25201  0.25201  0.00000  1
 Ge  Ge1  1  0.50000  0.50000  -0.00000  1
 In  In1  1  0.25000  0.75000  0.50000  1
 In  In2  1  0.75000  0.25000  0.50000  1
 Zn  Zn1  1  0.00000  0.00000  0.00000  1
