CIF file written using JARVIS-Tools package.
data_ZnH4C4O4
_symmetry_space_group_name_H-M  'C2'
_cell_length_a       5.061
_cell_length_b       4.84818
_cell_length_c       6.5578
_cell_angle_alpha    69.4275
_cell_angle_beta     89.9962
_cell_angle_gamma    58.5429

_symmetry_Int_Tables_number  5
_chemical_formula_structural  ZnH4C4O4
_chemical_formula_sum  ZnH4C4O4
_cell_volume  125.07408254530492
_cell_formula_units_Z  1
loop_
  _symmetry_equiv_pos_site_id
 _symmetry_equiv_pos_as_xyz
 1  'x, y, z'
loop_
 _atom_site_type_symbol
 _atom_site_label
 _atom_site_symmetry_multiplicity
 _atom_site_fract_x
 _atom_site_fract_y
 _atom_site_fract_z
 _atom_site_fract_occupancy
 C  C1  1  0.33711  0.12083  0.53385  1
 C  C2  1  0.14414  0.04947  0.69578  1
 C  C3  1  0.33367  0.67042  0.87560  1
 C  C4  1  0.59787  0.59919  0.03753  1
 H  H1  1  0.05084  0.24419  0.76921  1
 H  H2  1  0.93556  0.10161  0.59574  1
 H  H3  1  0.43520  0.47571  0.80217  1
 H  H4  1  0.17726  0.61813  0.97562  1
 O  O1  1  0.24754  0.43641  0.40351  1
 O  O2  1  0.59409  0.85020  0.53385  1
 O  O3  1  0.82393  0.28365  0.16782  1
 O  O4  1  0.58406  0.86989  0.03761  1
 Zn  Zn1  1  0.81108  0.86000  0.28568  1
