CIF file written using JARVIS-Tools package.
data_Ce3Th
_symmetry_space_group_name_H-M  'I4/mmm'
_cell_length_a       5.91827
_cell_length_b       5.91827
_cell_length_c       5.91828
_cell_angle_alpha    131.69
_cell_angle_beta     131.69
_cell_angle_gamma    70.7184

_symmetry_Int_Tables_number  139
_chemical_formula_structural  Ce3Th
_chemical_formula_sum  Ce3Th
_cell_volume  113.23191940112578
_cell_formula_units_Z  1
loop_
  _symmetry_equiv_pos_site_id
 _symmetry_equiv_pos_as_xyz
 1  'x, y, z'
loop_
 _atom_site_type_symbol
 _atom_site_label
 _atom_site_symmetry_multiplicity
 _atom_site_fract_x
 _atom_site_fract_y
 _atom_site_fract_z
 _atom_site_fract_occupancy
 Ce  Ce1  1  0.75000  0.25000  0.50000  1
 Ce  Ce2  1  0.25000  0.75000  0.50000  1
 Ce  Ce3  1  0.50000  0.50000  0.00000  1
 Th  Th1  1  0.00000  0.00000  0.00000  1
