CIF file written using JARVIS-Tools package.
data_CrO2
_symmetry_space_group_name_H-M  'R-3m'
_cell_length_a       4.74769
_cell_length_b       4.7477
_cell_length_c       4.7477
_cell_angle_alpha    35.5634
_cell_angle_beta     35.5633
_cell_angle_gamma    35.5633

_symmetry_Int_Tables_number  166
_chemical_formula_structural  CrO2
_chemical_formula_sum  CrO2
_cell_volume  32.35310649692059
_cell_formula_units_Z  1
loop_
  _symmetry_equiv_pos_site_id
 _symmetry_equiv_pos_as_xyz
 1  'x, y, z'
loop_
 _atom_site_type_symbol
 _atom_site_label
 _atom_site_symmetry_multiplicity
 _atom_site_fract_x
 _atom_site_fract_y
 _atom_site_fract_z
 _atom_site_fract_occupancy
 Cr  Cr1  1  0.50000  0.50000  0.50000  1
 O  O1  1  0.76248  0.76248  0.76248  1
 O  O2  1  0.23752  0.23752  0.23752  1
