CIF file written using JARVIS-Tools package.
data_Si3P3Ir
_symmetry_space_group_name_H-M  'P1'
_cell_length_a       4.94304
_cell_length_b       4.96282
_cell_length_c       5.53966
_cell_angle_alpha    108.787
_cell_angle_beta     108.057
_cell_angle_gamma    95.2158

_symmetry_Int_Tables_number  1
_chemical_formula_structural  Si3P3Ir
_chemical_formula_sum  Si3P3Ir
_cell_volume  119.54160841931663
_cell_formula_units_Z  1
loop_
  _symmetry_equiv_pos_site_id
 _symmetry_equiv_pos_as_xyz
 1  'x, y, z'
loop_
 _atom_site_type_symbol
 _atom_site_label
 _atom_site_symmetry_multiplicity
 _atom_site_fract_x
 _atom_site_fract_y
 _atom_site_fract_z
 _atom_site_fract_occupancy
 Ir  Ir1  1  0.99838  0.99812  0.50075  1
 P  P1  1  0.16012  0.70779  0.15489  1
 P  P2  1  0.84565  0.29363  0.85035  1
 P  P3  1  0.70547  0.16103  0.14888  1
 Si  Si1  1  0.41295  0.40171  0.63759  1
 Si  Si2  1  0.59437  0.59073  0.36618  1
 Si  Si3  1  0.28885  0.84119  0.84135  1
