CIF file written using JARVIS-Tools package.
data_VO
_symmetry_space_group_name_H-M  'R-3m'
_cell_length_a       3.26943
_cell_length_b       4.99401
_cell_length_c       4.62969
_cell_angle_alpha    98.851
_cell_angle_beta     76.3469
_cell_angle_gamma    102.517

_symmetry_Int_Tables_number  166
_chemical_formula_structural  VO
_chemical_formula_sum  V4O4
_cell_volume  71.28817911085137
_cell_formula_units_Z  4
loop_
  _symmetry_equiv_pos_site_id
 _symmetry_equiv_pos_as_xyz
 1  'x, y, z'
loop_
 _atom_site_type_symbol
 _atom_site_label
 _atom_site_symmetry_multiplicity
 _atom_site_fract_x
 _atom_site_fract_y
 _atom_site_fract_z
 _atom_site_fract_occupancy
 O  O1  1  0.87494  0.37501  0.25002  1
 O  O2  1  0.12500  0.62500  0.75000  1
 O  O3  1  0.37506  0.87499  0.24998  1
 O  O4  1  0.62500  0.12500  0.75000  1
 V  V1  1  0.49989  0.49992  -0.00003  1
 V  V2  1  0.75011  0.75008  0.50003  1
 V  V3  1  0.00008  0.00005  -0.00003  1
 V  V4  1  0.24992  0.24995  0.50003  1
