CIF file written using JARVIS-Tools package.
data_HfTiPb2O6
_symmetry_space_group_name_H-M  'I4mm'
_cell_length_a       5.7704
_cell_length_b       5.77041
_cell_length_c       5.77041
_cell_angle_alpha    120.73
_cell_angle_beta     120.73
_cell_angle_gamma    88.7407

_symmetry_Int_Tables_number  107
_chemical_formula_structural  HfTiPb2O6
_chemical_formula_sum  HfTiPb2O6
_cell_volume  134.33021505275414
_cell_formula_units_Z  1
loop_
  _symmetry_equiv_pos_site_id
 _symmetry_equiv_pos_as_xyz
 1  'x, y, z'
loop_
 _atom_site_type_symbol
 _atom_site_label
 _atom_site_symmetry_multiplicity
 _atom_site_fract_x
 _atom_site_fract_y
 _atom_site_fract_z
 _atom_site_fract_occupancy
 Hf  Hf1  1  0.27398  0.27398  -0.00000  1
 O  O1  1  0.55823  0.55823  0.51197  1
 O  O2  1  0.04626  0.04626  0.48803  1
 O  O3  1  0.55823  0.04626  -0.00000  1
 O  O4  1  0.04626  0.55823  -0.00000  1
 O  O5  1  0.54887  0.54887  -0.00000  1
 O  O6  1  0.03540  0.03540  0.00000  1
 Pb  Pb1  1  0.00116  0.50116  0.50000  1
 Pb  Pb2  1  0.50116  0.00116  0.50000  1
 Ti  Ti1  1  0.77446  0.77446  0.00000  1
