CIF file written using JARVIS-Tools package.
data_Zn5SeS4
_symmetry_space_group_name_H-M  'I-4m2'
_cell_length_a       14.0022
_cell_length_b       14.0022
_cell_length_c       14.0022
_cell_angle_alpha    164.056
_cell_angle_beta     164.056
_cell_angle_gamma    22.6228

_symmetry_Int_Tables_number  119
_chemical_formula_structural  Zn5SeS4
_chemical_formula_sum  Zn5SeS4
_cell_volume  207.12892376542166
_cell_formula_units_Z  1
loop_
  _symmetry_equiv_pos_site_id
 _symmetry_equiv_pos_as_xyz
 1  'x, y, z'
loop_
 _atom_site_type_symbol
 _atom_site_label
 _atom_site_symmetry_multiplicity
 _atom_site_fract_x
 _atom_site_fract_y
 _atom_site_fract_z
 _atom_site_fract_occupancy
 S  S1  1  0.64661  0.14661  0.50000  1
 S  S2  1  0.04884  0.54884  0.50000  1
 S  S3  1  0.45116  0.95116  0.50000  1
 S  S4  1  0.85339  0.35339  0.50000  1
 Se  Se1  1  0.25000  0.75000  0.50000  1
 Zn  Zn1  1  0.30442  0.30442  0.00000  1
 Zn  Zn2  1  0.69558  0.69558  -0.00000  1
 Zn  Zn3  1  0.09767  0.09767  -0.00000  1
 Zn  Zn4  1  0.50000  0.50000  -0.00000  1
 Zn  Zn5  1  0.90233  0.90233  0.00000  1
