CIF file written using JARVIS-Tools package.
data_Tb4MgIr
_symmetry_space_group_name_H-M  'F-43m'
_cell_length_a       9.68869
_cell_length_b       9.68868
_cell_length_c       9.68868
_cell_angle_alpha    60
_cell_angle_beta     60
_cell_angle_gamma    60

_symmetry_Int_Tables_number  216
_chemical_formula_structural  Tb4MgIr
_chemical_formula_sum  Tb6Mg4Ir4
_cell_volume  643.1014180538228
_cell_formula_units_Z  4
loop_
  _symmetry_equiv_pos_site_id
 _symmetry_equiv_pos_as_xyz
 1  'x, y, z'
loop_
 _atom_site_type_symbol
 _atom_site_label
 _atom_site_symmetry_multiplicity
 _atom_site_fract_x
 _atom_site_fract_y
 _atom_site_fract_z
 _atom_site_fract_occupancy
 Ir  Ir1  1  0.85858  0.85858  0.42427  1
 Ir  Ir2  1  0.85858  0.42427  0.85858  1
 Ir  Ir3  1  0.85858  0.85858  0.85858  1
 Ir  Ir4  1  0.42427  0.85858  0.85858  1
 Mg  Mg1  1  0.42021  0.42021  0.73937  1
 Mg  Mg2  1  0.42021  0.42021  0.42021  1
 Mg  Mg3  1  0.73937  0.42021  0.42021  1
 Mg  Mg4  1  0.42021  0.73937  0.42021  1
 Tb  Tb1  1  0.81195  0.18805  0.81195  1
 Tb  Tb2  1  0.18805  0.18805  0.81195  1
 Tb  Tb3  1  0.43644  0.06356  0.06356  1
 Tb  Tb4  1  0.65315  0.65315  0.04056  1
 Tb  Tb5  1  0.81195  0.81195  0.18805  1
 Tb  Tb6  1  0.81195  0.18805  0.18805  1
 Tb  Tb7  1  0.06356  0.06356  0.43644  1
 Tb  Tb8  1  0.18805  0.81195  0.81195  1
 Tb  Tb9  1  0.06356  0.43644  0.43644  1
 Tb  Tb10  1  0.43644  0.06356  0.43644  1
 Tb  Tb11  1  0.43644  0.43644  0.06356  1
 Tb  Tb12  1  0.18805  0.81195  0.18805  1
 Tb  Tb13  1  0.65315  0.04056  0.65315  1
 Tb  Tb14  1  0.04056  0.65315  0.65315  1
 Tb  Tb15  1  0.06356  0.43644  0.06356  1
 Tb  Tb16  1  0.65315  0.65315  0.65315  1
