CIF file written using JARVIS-Tools package.
data_HS7N
_symmetry_space_group_name_H-M  'Pnma'
_cell_length_a       7.61446
_cell_length_b       7.78672
_cell_length_c       13.1654
_cell_angle_alpha    90
_cell_angle_beta     90
_cell_angle_gamma    90

_symmetry_Int_Tables_number  62
_chemical_formula_structural  HS7N
_chemical_formula_sum  H4S28N4
_cell_volume  780.5980764266802
_cell_formula_units_Z  4
loop_
  _symmetry_equiv_pos_site_id
 _symmetry_equiv_pos_as_xyz
 1  'x, y, z'
loop_
 _atom_site_type_symbol
 _atom_site_label
 _atom_site_symmetry_multiplicity
 _atom_site_fract_x
 _atom_site_fract_y
 _atom_site_fract_z
 _atom_site_fract_occupancy
 H  H1  1  0.19475  0.89418  0.75000  1
 H  H2  1  0.69475  0.60582  0.25000  1
 H  H3  1  0.30525  0.39418  0.75000  1
 H  H4  1  0.80525  0.10582  0.25000  1
 N  N1  1  0.21422  0.76330  0.75000  1
 N  N2  1  0.28578  0.26330  0.75000  1
 N  N3  1  0.71422  0.73670  0.25000  1
 N  N4  1  0.78578  0.23670  0.25000  1
 S  S1  1  0.66522  0.53023  0.62297  1
 S  S2  1  0.50944  0.27639  0.42013  1
 S  S3  1  0.00944  0.22361  0.57987  1
 S  S4  1  0.25705  0.16778  0.86287  1
 S  S5  1  0.24295  0.66778  0.86287  1
 S  S6  1  0.74295  0.83222  0.13713  1
 S  S7  1  0.25705  0.16778  0.63713  1
 S  S8  1  0.75705  0.33222  0.36287  1
 S  S9  1  0.75705  0.33222  0.13713  1
 S  S10  1  0.24295  0.66778  0.63713  1
 S  S11  1  0.74295  0.83222  0.36287  1
 S  S12  1  0.20087  0.38369  0.25000  1
 S  S13  1  0.70087  0.11631  0.75000  1
 S  S14  1  0.29913  0.88369  0.25000  1
 S  S15  1  0.79913  0.61631  0.75000  1
 S  S16  1  0.49056  0.72361  0.57987  1
 S  S17  1  0.99056  0.77639  0.42013  1
 S  S18  1  0.99056  0.77639  0.07987  1
 S  S19  1  0.83478  0.03023  0.87703  1
 S  S20  1  0.66522  0.53023  0.87703  1
 S  S21  1  0.16522  0.96977  0.12297  1
 S  S22  1  0.83478  0.03023  0.62297  1
 S  S23  1  0.33478  0.46977  0.37703  1
 S  S24  1  0.50944  0.27639  0.07987  1
 S  S25  1  0.33478  0.46977  0.12297  1
 S  S26  1  0.16522  0.96977  0.37703  1
 S  S27  1  0.49056  0.72361  0.92013  1
 S  S28  1  0.00944  0.22361  0.92013  1
