CIF file written using JARVIS-Tools package.
data_BaSr2I6
_symmetry_space_group_name_H-M  'P-31m'
_cell_length_a       8.30181
_cell_length_b       8.3012
_cell_length_c       7.35226
_cell_angle_alpha    89.9998
_cell_angle_beta     90.0004
_cell_angle_gamma    120.002

_symmetry_Int_Tables_number  162
_chemical_formula_structural  BaSr2I6
_chemical_formula_sum  BaSr2I6
_cell_volume  438.78781315207726
_cell_formula_units_Z  1
loop_
  _symmetry_equiv_pos_site_id
 _symmetry_equiv_pos_as_xyz
 1  'x, y, z'
loop_
 _atom_site_type_symbol
 _atom_site_label
 _atom_site_symmetry_multiplicity
 _atom_site_fract_x
 _atom_site_fract_y
 _atom_site_fract_z
 _atom_site_fract_occupancy
 Ba  Ba1  1  -0.00001  0.00000  0.99998  1
 I  I1  1  -0.00001  0.64708  0.75250  1
 I  I2  1  -0.00001  0.35290  0.24750  1
 I  I3  1  0.35291  0.35292  0.75250  1
 I  I4  1  0.64709  0.64710  0.24750  1
 I  I5  1  0.35292  0.00000  0.24749  1
 I  I6  1  0.64703  -0.00000  0.75253  1
 Sr  Sr1  1  0.33333  0.66668  0.50000  1
 Sr  Sr2  1  0.66665  0.33332  0.50000  1
