CIF file written using JARVIS-Tools package.
data_ZnH10C7O4
_symmetry_space_group_name_H-M  'P1'
_cell_length_a       4.09747
_cell_length_b       4.43313
_cell_length_c       11.3087
_cell_angle_alpha    87.8003
_cell_angle_beta     84.7202
_cell_angle_gamma    65.5684

_symmetry_Int_Tables_number  1
_chemical_formula_structural  ZnH10C7O4
_chemical_formula_sum  ZnH0C7O4
_cell_volume  186.23018769230046
_cell_formula_units_Z  1
loop_
  _symmetry_equiv_pos_site_id
 _symmetry_equiv_pos_as_xyz
 1  'x, y, z'
loop_
 _atom_site_type_symbol
 _atom_site_label
 _atom_site_symmetry_multiplicity
 _atom_site_fract_x
 _atom_site_fract_y
 _atom_site_fract_z
 _atom_site_fract_occupancy
 C  C1  1  0.18733  0.47155  0.03867  1
 C  C2  1  0.17137  0.54152  0.80885  1
 C  C3  1  0.36755  0.36434  0.69286  1
 C  C4  1  0.23085  0.56058  0.57999  1
 C  C5  1  0.45236  0.37055  0.46922  1
 C  C6  1  0.37976  0.56302  0.35409  1
 C  C7  1  0.33413  0.32861  0.91561  1
 H  H1  1  0.40459  0.14698  0.45651  1
 H  H2  1  0.94386  0.61868  0.57532  1
 H  H3  1  0.62546  0.26534  0.91171  1
 H  H4  1  0.65720  0.30401  0.69383  1
 H  H5  1  0.34988  0.12314  0.68977  1
 H  H6  1  0.88231  0.59812  0.81121  1
 H  H7  1  0.18805  0.78216  0.81299  1
 H  H8  1  0.24853  0.80133  0.58309  1
 H  H9  1  0.31642  0.08818  0.91418  1
 H  H10  1  0.74134  0.27744  0.47938  1
 O  O1  1  0.60683  0.47783  0.26405  1
 O  O2  1  0.25618  0.26849  0.12521  1
 O  O3  1  0.08120  0.81949  0.35197  1
 O  O4  1  0.01915  0.78615  0.04954  1
 Zn  Zn1  1  0.95440  0.03547  0.19731  1
