CIF file written using JARVIS-Tools package.
data_H2C
_symmetry_space_group_name_H-M  'P2_1/c'
_cell_length_a       9.33224
_cell_length_b       5.20053
_cell_length_c       9.81765
_cell_angle_alpha    90
_cell_angle_beta     113.734
_cell_angle_gamma    90

_symmetry_Int_Tables_number  14
_chemical_formula_structural  H2C
_chemical_formula_sum  H40C20
_cell_volume  436.17807824435613
_cell_formula_units_Z  20
loop_
  _symmetry_equiv_pos_site_id
 _symmetry_equiv_pos_as_xyz
 1  'x, y, z'
loop_
 _atom_site_type_symbol
 _atom_site_label
 _atom_site_symmetry_multiplicity
 _atom_site_fract_x
 _atom_site_fract_y
 _atom_site_fract_z
 _atom_site_fract_occupancy
 C  C1  1  0.25713  0.59374  0.56481  1
 C  C2  1  0.16062  0.45774  0.75183  1
 C  C3  1  0.15184  0.81992  0.14518  1
 C  C4  1  0.84816  0.18008  0.85482  1
 C  C5  1  0.74287  0.09374  0.93519  1
 C  C6  1  0.25713  0.90626  0.06481  1
 C  C7  1  0.83938  0.54226  0.24817  1
 C  C8  1  0.84816  0.31992  0.35482  1
 C  C9  1  0.83938  0.95774  0.74817  1
 C  C10  1  0.15184  0.68008  0.64518  1
 C  C11  1  0.33046  0.36601  0.80242  1
 C  C12  1  0.35596  0.13496  0.15712  1
 C  C13  1  0.74287  0.40626  0.43519  1
 C  C14  1  0.64404  0.86504  0.84288  1
 C  C15  1  0.64404  0.63496  0.34288  1
 C  C16  1  0.16062  0.04226  0.25183  1
 C  C17  1  0.33046  0.13399  0.30242  1
 C  C18  1  0.66954  0.86601  0.69758  1
 C  C19  1  0.66954  0.63399  0.19758  1
 C  C20  1  0.35596  0.36504  0.65712  1
 H  H1  1  0.64673  0.67804  0.64120  1
 H  H2  1  0.12924  0.98408  0.34414  1
 H  H3  1  0.40923  0.50700  0.88133  1
 H  H4  1  0.59077  0.49300  0.11867  1
 H  H5  1  0.59077  0.00700  0.61867  1
 H  H6  1  0.40923  0.99300  0.38133  1
 H  H7  1  0.35327  0.17804  0.85880  1
 H  H8  1  0.87076  0.01592  0.65586  1
 H  H9  1  0.68810  0.81729  0.40254  1
 H  H10  1  0.64673  0.82196  0.14120  1
 H  H11  1  0.48024  0.12064  0.17602  1
 H  H12  1  0.68810  0.68271  0.90254  1
 H  H13  1  0.91991  0.69875  0.30890  1
 H  H14  1  0.08009  0.30125  0.69110  1
 H  H15  1  0.03136  0.77413  0.06738  1
 H  H16  1  0.96864  0.22587  0.93262  1
 H  H17  1  0.96864  0.27413  0.43262  1
 H  H18  1  0.03136  0.72587  0.56738  1
 H  H19  1  0.19985  0.64429  0.21083  1
 H  H20  1  0.80015  0.14429  0.28917  1
 H  H21  1  0.19985  0.85571  0.71083  1
 H  H22  1  0.18593  0.96568  0.94951  1
 H  H23  1  0.81407  0.03432  0.05049  1
 H  H24  1  0.81407  0.46568  0.55049  1
 H  H25  1  0.31190  0.18271  0.59746  1
 H  H26  1  0.18593  0.53432  0.44951  1
 H  H27  1  0.66751  0.25203  0.94177  1
 H  H28  1  0.66751  0.24797  0.44177  1
 H  H29  1  0.33249  0.75203  0.55823  1
 H  H30  1  0.91991  0.80125  0.80890  1
 H  H31  1  0.08009  0.19875  0.19110  1
 H  H32  1  0.80015  0.35571  0.78917  1
 H  H33  1  0.87076  0.48408  0.15586  1
 H  H34  1  0.12924  0.51592  0.84414  1
 H  H35  1  0.51976  0.87936  0.82398  1
 H  H36  1  0.51976  0.62064  0.32398  1
 H  H37  1  0.48024  0.37936  0.67602  1
 H  H38  1  0.31190  0.31729  0.09746  1
 H  H39  1  0.33249  0.74797  0.05823  1
 H  H40  1  0.35327  0.32196  0.35880  1
