CIF file written using JARVIS-Tools package.
data_ZnCdTe2
_symmetry_space_group_name_H-M  'R3m'
_cell_length_a       7.85304
_cell_length_b       7.85304
_cell_length_c       7.85304
_cell_angle_alpha    33.3287
_cell_angle_beta     33.3287
_cell_angle_gamma    33.3287

_symmetry_Int_Tables_number  160
_chemical_formula_structural  ZnCdTe2
_chemical_formula_sum  ZnCdTe2
_cell_volume  130.17737056902925
_cell_formula_units_Z  1
loop_
  _symmetry_equiv_pos_site_id
 _symmetry_equiv_pos_as_xyz
 1  'x, y, z'
loop_
 _atom_site_type_symbol
 _atom_site_label
 _atom_site_symmetry_multiplicity
 _atom_site_fract_x
 _atom_site_fract_y
 _atom_site_fract_z
 _atom_site_fract_occupancy
 Cd  Cd1  1  0.00160  0.00160  0.00160  1
 Te  Te1  1  0.12951  0.12951  0.12951  1
 Te  Te2  1  0.61949  0.61949  0.61949  1
 Zn  Zn1  1  0.49940  0.49940  0.49940  1
