CIF file written using JARVIS-Tools package.
data_Dy5Mg
_symmetry_space_group_name_H-M  'Amm2'
_cell_length_a       9.16843
_cell_length_b       9.16843
_cell_length_c       5.55534
_cell_angle_alpha    90
_cell_angle_beta     90
_cell_angle_gamma    157.764

_symmetry_Int_Tables_number  38
_chemical_formula_structural  Dy5Mg
_chemical_formula_sum  Dy5Mg
_cell_volume  176.7171830132914
_cell_formula_units_Z  1
loop_
  _symmetry_equiv_pos_site_id
 _symmetry_equiv_pos_as_xyz
 1  'x, y, z'
loop_
 _atom_site_type_symbol
 _atom_site_label
 _atom_site_symmetry_multiplicity
 _atom_site_fract_x
 _atom_site_fract_y
 _atom_site_fract_z
 _atom_site_fract_occupancy
 Dy  Dy1  1  0.00222  0.99778  0.50000  1
 Dy  Dy2  1  0.67103  0.32897  0.50000  1
 Dy  Dy3  1  0.33306  0.66694  0.50000  1
 Dy  Dy4  1  0.55365  0.44635  0.00000  1
 Dy  Dy5  1  0.88542  0.11458  0.00000  1
 Mg  Mg1  1  0.22129  0.77871  0.00000  1
