CIF file written using JARVIS-Tools package.
data_Ba2Ge3
_symmetry_space_group_name_H-M  'Imm2'
_cell_length_a       6.60449
_cell_length_b       6.60449
_cell_length_c       6.6045
_cell_angle_alpha    143.19
_cell_angle_beta     103.568
_cell_angle_gamma    87.9817

_symmetry_Int_Tables_number  44
_chemical_formula_structural  Ba2Ge3
_chemical_formula_sum  Ba2Ge3
_cell_volume  161.93101668653418
_cell_formula_units_Z  1
loop_
  _symmetry_equiv_pos_site_id
 _symmetry_equiv_pos_as_xyz
 1  'x, y, z'
loop_
 _atom_site_type_symbol
 _atom_site_label
 _atom_site_symmetry_multiplicity
 _atom_site_fract_x
 _atom_site_fract_y
 _atom_site_fract_z
 _atom_site_fract_occupancy
 Ba  Ba1  1  0.77752  0.76495  0.01257  1
 Ba  Ba2  1  0.24762  0.23505  0.01257  1
 Ge  Ge1  1  0.64620  0.00000  0.64620  1
 Ge  Ge2  1  0.34144  0.00000  0.34144  1
 Ge  Ge3  1  0.82228  0.50000  0.32228  1
