CIF file written using JARVIS-Tools package.
data_HfH8C6O4
_symmetry_space_group_name_H-M  'P1'
_cell_length_a       3.81394
_cell_length_b       4.65301
_cell_length_c       9.44204
_cell_angle_alpha    78.7508
_cell_angle_beta     86.212
_cell_angle_gamma    72.2192

_symmetry_Int_Tables_number  1
_chemical_formula_structural  HfH8C6O4
_chemical_formula_sum  HfH8C6O4
_cell_volume  156.4881722553782
_cell_formula_units_Z  1
loop_
  _symmetry_equiv_pos_site_id
 _symmetry_equiv_pos_as_xyz
 1  'x, y, z'
loop_
 _atom_site_type_symbol
 _atom_site_label
 _atom_site_symmetry_multiplicity
 _atom_site_fract_x
 _atom_site_fract_y
 _atom_site_fract_z
 _atom_site_fract_occupancy
 C  C1  1  0.53818  0.39302  0.92232  1
 C  C2  1  0.44439  0.40066  0.07975  1
 C  C3  1  0.55883  0.69424  0.82748  1
 C  C4  1  0.54452  0.69555  0.66521  1
 C  C5  1  0.89135  0.44297  0.45510  1
 C  C6  1  0.80103  0.40923  0.61631  1
 H  H1  1  0.79085  0.20288  0.91721  1
 H  H2  1  0.31828  0.32225  0.88195  1
 H  H3  1  0.81021  0.74105  0.85394  1
 H  H4  1  0.32718  0.88168  0.85640  1
 H  H5  1  0.06610  0.33156  0.67315  1
 H  H6  1  0.67880  0.22057  0.64719  1
 H  H7  1  0.26141  0.72231  0.63590  1
 H  H8  1  0.60628  0.89935  0.60328  1
 Hf  Hf1  1  0.03971  0.82844  0.30901  1
 O  O1  1  0.20989  0.64186  0.11329  1
 O  O2  1  -0.01602  0.15652  0.41542  1
 O  O3  1  0.59142  0.65608  0.36298  1
 O  O4  1  0.58067  0.15785  0.17199  1
