CIF file written using JARVIS-Tools package.
data_H5C2NO
_symmetry_space_group_name_H-M  'P1'
_cell_length_a       4.56385
_cell_length_b       4.73455
_cell_length_c       6.62047
_cell_angle_alpha    99.8521
_cell_angle_beta     96.3198
_cell_angle_gamma    108.736

_symmetry_Int_Tables_number  1
_chemical_formula_structural  H5C2NO
_chemical_formula_sum  H0C4N2O2
_cell_volume  131.37048220140744
_cell_formula_units_Z  2
loop_
  _symmetry_equiv_pos_site_id
 _symmetry_equiv_pos_as_xyz
 1  'x, y, z'
loop_
 _atom_site_type_symbol
 _atom_site_label
 _atom_site_symmetry_multiplicity
 _atom_site_fract_x
 _atom_site_fract_y
 _atom_site_fract_z
 _atom_site_fract_occupancy
 C  C1  1  0.18223  0.63287  0.28708  1
 C  C2  1  0.32431  0.91776  0.20303  1
 C  C3  1  0.68121  0.63629  0.78725  1
 C  C4  1  0.82370  0.92132  0.70350  1
 H  H1  1  0.72943  0.69187  0.95921  1
 H  H2  1  0.08269  0.00522  0.74468  1
 H  H3  1  0.29462  0.21635  0.45060  1
 H  H4  1  0.78625  0.21797  0.94953  1
 H  H5  1  0.58348  -0.00004  0.24235  1
 H  H6  1  0.42377  0.53856  0.73840  1
 H  H7  1  0.23008  0.68902  0.45903  1
 H  H8  1  0.25557  0.86750  0.03310  1
 H  H9  1  0.92482  0.53462  0.23816  1
 H  H10  1  0.75779  0.87051  0.53335  1
 N  N1  1  0.68789  0.14589  0.79346  1
 N  N2  1  0.19191  0.14384  0.29530  1
 O  O1  1  0.82522  0.42006  0.71003  1
 O  O2  1  0.32699  0.41701  0.21039  1
