CIF file written using JARVIS-Tools package.
data_Hf3N4
_symmetry_space_group_name_H-M  'R-3m'
_cell_length_a       3.40331
_cell_length_b       8.62779
_cell_length_c       3.40331
_cell_angle_alpha    89.9999
_cell_angle_beta     60.0001
_cell_angle_gamma    101.375

_symmetry_Int_Tables_number  166
_chemical_formula_structural  Hf3N4
_chemical_formula_sum  Hf3N4
_cell_volume  84.26907311720589
_cell_formula_units_Z  1
loop_
  _symmetry_equiv_pos_site_id
 _symmetry_equiv_pos_as_xyz
 1  'x, y, z'
loop_
 _atom_site_type_symbol
 _atom_site_label
 _atom_site_symmetry_multiplicity
 _atom_site_fract_x
 _atom_site_fract_y
 _atom_site_fract_z
 _atom_site_fract_occupancy
 Hf  Hf1  1  0.44423  0.66634  0.77788  1
 Hf  Hf2  1  0.55577  0.33366  0.22212  1
 Hf  Hf3  1  0.00000  0.00000  0.00000  1
 N  N1  1  0.24368  0.86552  0.37816  1
 N  N2  1  0.73543  0.60314  0.13229  1
 N  N3  1  0.26457  0.39686  0.86771  1
 N  N4  1  0.75632  0.13448  0.62184  1
