CIF file written using JARVIS-Tools package.
data_Cu2Se
_symmetry_space_group_name_H-M  'Imm2'
_cell_length_a       4.31617
_cell_length_b       4.31617
_cell_length_c       4.31617
_cell_angle_alpha    125.221
_cell_angle_beta     124.025
_cell_angle_gamma    82.167

_symmetry_Int_Tables_number  44
_chemical_formula_structural  Cu2Se
_chemical_formula_sum  Cu2Se
_cell_volume  52.33687519547121
_cell_formula_units_Z  1
loop_
  _symmetry_equiv_pos_site_id
 _symmetry_equiv_pos_as_xyz
 1  'x, y, z'
loop_
 _atom_site_type_symbol
 _atom_site_label
 _atom_site_symmetry_multiplicity
 _atom_site_fract_x
 _atom_site_fract_y
 _atom_site_fract_z
 _atom_site_fract_occupancy
 Cu  Cu1  1  0.32191  0.69865  0.62326  1
 Cu  Cu2  1  0.92461  0.30135  0.62326  1
 Se  Se1  1  0.94948  0.00000  0.94948  1
