CIF file written using JARVIS-Tools package.
data_ZrCoSn
_symmetry_space_group_name_H-M  'P-62m'
_cell_length_a       7.12286
_cell_length_b       7.12286
_cell_length_c       3.6208
_cell_angle_alpha    90
_cell_angle_beta     90
_cell_angle_gamma    120

_symmetry_Int_Tables_number  189
_chemical_formula_structural  ZrCoSn
_chemical_formula_sum  Zr3Co3Sn3
_cell_volume  159.09048482284774
_cell_formula_units_Z  3
loop_
  _symmetry_equiv_pos_site_id
 _symmetry_equiv_pos_as_xyz
 1  'x, y, z'
loop_
 _atom_site_type_symbol
 _atom_site_label
 _atom_site_symmetry_multiplicity
 _atom_site_fract_x
 _atom_site_fract_y
 _atom_site_fract_z
 _atom_site_fract_occupancy
 Co  Co1  1  0.00000  0.00000  0.50000  1
 Co  Co2  1  0.66667  0.33333  0.00000  1
 Co  Co3  1  0.33333  0.66667  0.00000  1
 Sn  Sn1  1  0.73397  0.73397  0.00000  1
 Sn  Sn2  1  0.26603  -0.00000  0.00000  1
 Sn  Sn3  1  -0.00000  0.26603  0.00000  1
 Zr  Zr1  1  0.00000  0.60209  0.50000  1
 Zr  Zr2  1  0.39791  0.39791  0.50000  1
 Zr  Zr3  1  0.60209  0.00000  0.50000  1
