CIF file written using JARVIS-Tools package.
data_Al4Ge2W3
_symmetry_space_group_name_H-M  'C2'
_cell_length_a       4.86625
_cell_length_b       4.86625
_cell_length_c       6.72932
_cell_angle_alpha    89.9074
_cell_angle_beta     89.9074
_cell_angle_gamma    120.083

_symmetry_Int_Tables_number  5
_chemical_formula_structural  Al4Ge2W3
_chemical_formula_sum  Al4Ge2W3
_cell_volume  137.88731314052916
_cell_formula_units_Z  1
loop_
  _symmetry_equiv_pos_site_id
 _symmetry_equiv_pos_as_xyz
 1  'x, y, z'
loop_
 _atom_site_type_symbol
 _atom_site_label
 _atom_site_symmetry_multiplicity
 _atom_site_fract_x
 _atom_site_fract_y
 _atom_site_fract_z
 _atom_site_fract_occupancy
 Al  Al1  1  0.15348  0.84652  0.50000  1
 Al  Al2  1  0.34966  0.17422  0.16959  1
 Al  Al3  1  0.82578  0.65034  0.83041  1
 Al  Al4  1  0.81968  0.18032  0.50000  1
 Ge  Ge1  1  0.69410  0.84430  0.17019  1
 Ge  Ge2  1  0.15570  0.30590  0.82981  1
 W  W1  1  0.02970  0.51466  0.15968  1
 W  W2  1  0.48534  0.97030  0.84032  1
 W  W3  1  0.48694  0.51306  0.50000  1
