CIF file written using JARVIS-Tools package.
data_Na2AgSb
_symmetry_space_group_name_H-M  'Cmcm'
_cell_length_a       5.78293
_cell_length_b       6.05819
_cell_length_c       6.05818
_cell_angle_alpha    99.1516
_cell_angle_beta     90
_cell_angle_gamma    90

_symmetry_Int_Tables_number  63
_chemical_formula_structural  Na2AgSb
_chemical_formula_sum  Na4Ag2Sb2
_cell_volume  209.54136082403133
_cell_formula_units_Z  2
loop_
  _symmetry_equiv_pos_site_id
 _symmetry_equiv_pos_as_xyz
 1  'x, y, z'
loop_
 _atom_site_type_symbol
 _atom_site_label
 _atom_site_symmetry_multiplicity
 _atom_site_fract_x
 _atom_site_fract_y
 _atom_site_fract_z
 _atom_site_fract_occupancy
 Ag  Ag1  1  0.00000  0.50000  0.50000  1
 Ag  Ag2  1  0.50000  0.50000  0.50000  1
 Na  Na1  1  0.25000  0.66879  0.02647  1
 Na  Na2  1  0.75000  0.33121  0.97353  1
 Na  Na3  1  0.25000  0.02647  0.66879  1
 Na  Na4  1  0.75000  0.97353  0.33121  1
 Sb  Sb1  1  0.25000  0.20523  0.20523  1
 Sb  Sb2  1  0.75000  0.79477  0.79477  1
