CIF file written using JARVIS-Tools package.
data_ZrCo3
_symmetry_space_group_name_H-M  'P6_3/mmc'
_cell_length_a       5.3301
_cell_length_b       5.3301
_cell_length_c       4.17925
_cell_angle_alpha    90
_cell_angle_beta     90
_cell_angle_gamma    120

_symmetry_Int_Tables_number  194
_chemical_formula_structural  ZrCo3
_chemical_formula_sum  Zr2Co6
_cell_volume  102.82514700966826
_cell_formula_units_Z  2
loop_
  _symmetry_equiv_pos_site_id
 _symmetry_equiv_pos_as_xyz
 1  'x, y, z'
loop_
 _atom_site_type_symbol
 _atom_site_label
 _atom_site_symmetry_multiplicity
 _atom_site_fract_x
 _atom_site_fract_y
 _atom_site_fract_z
 _atom_site_fract_occupancy
 Co  Co1  1  0.15185  0.30371  0.25000  1
 Co  Co2  1  0.69629  0.84815  0.25000  1
 Co  Co3  1  0.15185  0.84815  0.25000  1
 Co  Co4  1  0.84815  0.69629  0.75000  1
 Co  Co5  1  0.30371  0.15185  0.75000  1
 Co  Co6  1  0.84815  0.15185  0.75000  1
 Zr  Zr1  1  0.33333  0.66667  0.75000  1
 Zr  Zr2  1  0.66667  0.33333  0.25000  1
