CIF file written using JARVIS-Tools package.
data_Ba2InCuO4
_symmetry_space_group_name_H-M  'P4/mmm'
_cell_length_a       4.19133
_cell_length_b       4.19133
_cell_length_c       8.2385
_cell_angle_alpha    90
_cell_angle_beta     90
_cell_angle_gamma    90

_symmetry_Int_Tables_number  123
_chemical_formula_structural  Ba2InCuO4
_chemical_formula_sum  Ba2InCuO4
_cell_volume  144.72807361958652
_cell_formula_units_Z  1
loop_
  _symmetry_equiv_pos_site_id
 _symmetry_equiv_pos_as_xyz
 1  'x, y, z'
loop_
 _atom_site_type_symbol
 _atom_site_label
 _atom_site_symmetry_multiplicity
 _atom_site_fract_x
 _atom_site_fract_y
 _atom_site_fract_z
 _atom_site_fract_occupancy
 Ba  Ba1  1  0.50000  0.50000  0.76743  1
 Ba  Ba2  1  0.50000  0.50000  0.23257  1
 Cu  Cu1  1  0.00000  0.00000  0.50000  1
 In  In1  1  0.00000  0.00000  0.00000  1
 O  O1  1  0.00000  0.50000  0.00000  1
 O  O2  1  0.50000  0.00000  0.00000  1
 O  O3  1  0.00000  0.00000  0.71958  1
 O  O4  1  0.00000  0.00000  0.28042  1
