CIF file written using JARVIS-Tools package.
data_SmZnCuP2
_symmetry_space_group_name_H-M  'P3m1'
_cell_length_a       4.02163
_cell_length_b       4.02162
_cell_length_c       6.63568
_cell_angle_alpha    90
_cell_angle_beta     90
_cell_angle_gamma    120

_symmetry_Int_Tables_number  156
_chemical_formula_structural  SmZnCuP2
_chemical_formula_sum  SmZnCuP2
_cell_volume  92.94376876876771
_cell_formula_units_Z  1
loop_
  _symmetry_equiv_pos_site_id
 _symmetry_equiv_pos_as_xyz
 1  'x, y, z'
loop_
 _atom_site_type_symbol
 _atom_site_label
 _atom_site_symmetry_multiplicity
 _atom_site_fract_x
 _atom_site_fract_y
 _atom_site_fract_z
 _atom_site_fract_occupancy
 Cu  Cu1  1  0.00000  0.00000  0.35482  1
 P  P1  1  0.00000  0.00000  0.74177  1
 P  P2  1  0.33333  0.66667  0.26129  1
 Sm  Sm1  1  0.66667  0.33333  0.01498  1
 Zn  Zn1  1  0.33333  0.66667  0.62714  1
