CIF file written using JARVIS-Tools package.
data_VO2
_symmetry_space_group_name_H-M  'C2/m'
_cell_length_a       5.19635
_cell_length_b       4.93506
_cell_length_c       4.93506
_cell_angle_alpha    113.087
_cell_angle_beta     74.2109
_cell_angle_gamma    74.211

_symmetry_Int_Tables_number  12
_chemical_formula_structural  VO2
_chemical_formula_sum  V3O6
_cell_volume  101.2530596519555
_cell_formula_units_Z  3
loop_
  _symmetry_equiv_pos_site_id
 _symmetry_equiv_pos_as_xyz
 1  'x, y, z'
loop_
 _atom_site_type_symbol
 _atom_site_label
 _atom_site_symmetry_multiplicity
 _atom_site_fract_x
 _atom_site_fract_y
 _atom_site_fract_z
 _atom_site_fract_occupancy
 O  O1  1  0.22689  0.19531  0.18893  1
 O  O2  1  0.28555  0.62101  0.95263  1
 O  O3  1  0.28555  0.95902  0.61462  1
 O  O4  1  0.71445  0.38538  0.04098  1
 O  O5  1  0.71445  0.04737  0.37899  1
 O  O6  1  0.77311  0.81107  0.80469  1
 V  V1  1  0.00000  0.00320  0.99680  1
 V  V2  1  0.50000  0.82349  0.17651  1
 V  V3  1  0.50000  0.18290  0.81710  1
