CIF file written using JARVIS-Tools package.
data_Sr2MnGaO5F
_symmetry_space_group_name_H-M  'Pmmm'
_cell_length_a       3.83873
_cell_length_b       3.94479
_cell_length_c       7.74303
_cell_angle_alpha    90
_cell_angle_beta     90
_cell_angle_gamma    90

_symmetry_Int_Tables_number  47
_chemical_formula_structural  Sr2MnGaO5F
_chemical_formula_sum  Sr2MnGaO5F
_cell_volume  117.25273787239024
_cell_formula_units_Z  1
loop_
  _symmetry_equiv_pos_site_id
 _symmetry_equiv_pos_as_xyz
 1  'x, y, z'
loop_
 _atom_site_type_symbol
 _atom_site_label
 _atom_site_symmetry_multiplicity
 _atom_site_fract_x
 _atom_site_fract_y
 _atom_site_fract_z
 _atom_site_fract_occupancy
 F  F1  1  0.00000  0.50000  0.50000  1
 Ga  Ga1  1  0.00000  0.00000  0.50000  1
 Mn  Mn1  1  0.00000  0.00000  0.00000  1
 O  O1  1  0.50000  0.00000  0.00000  1
 O  O2  1  0.00000  0.50000  0.00000  1
 O  O3  1  0.00000  0.00000  0.75475  1
 O  O4  1  0.00000  0.00000  0.24525  1
 O  O5  1  0.50000  0.00000  0.50000  1
 Sr  Sr1  1  0.50000  0.50000  0.76319  1
 Sr  Sr2  1  0.50000  0.50000  0.23681  1
