CIF file written using JARVIS-Tools package.
data_ZrNbFe4
_symmetry_space_group_name_H-M  'F-43m'
_cell_length_a       4.86285
_cell_length_b       4.86285
_cell_length_c       4.86285
_cell_angle_alpha    59.9999
_cell_angle_beta     59.9999
_cell_angle_gamma    60

_symmetry_Int_Tables_number  216
_chemical_formula_structural  ZrNbFe4
_chemical_formula_sum  ZrNbFe4
_cell_volume  81.31260054818958
_cell_formula_units_Z  1
loop_
  _symmetry_equiv_pos_site_id
 _symmetry_equiv_pos_as_xyz
 1  'x, y, z'
loop_
 _atom_site_type_symbol
 _atom_site_label
 _atom_site_symmetry_multiplicity
 _atom_site_fract_x
 _atom_site_fract_y
 _atom_site_fract_z
 _atom_site_fract_occupancy
 Fe  Fe1  1  0.62494  0.62494  0.12519  1
 Fe  Fe2  1  0.62494  0.12519  0.62494  1
 Fe  Fe3  1  0.12519  0.62494  0.62494  1
 Fe  Fe4  1  0.62494  0.62494  0.62494  1
 Nb  Nb1  1  0.25000  0.25000  0.25000  1
 Zr  Zr1  1  0.00000  0.00000  0.00000  1
