CIF file written using JARVIS-Tools package.
data_Dy5Mg
_symmetry_space_group_name_H-M  'R32'
_cell_length_a       6.52756
_cell_length_b       6.52755
_cell_length_c       6.52756
_cell_angle_alpha    55.3451
_cell_angle_beta     55.3451
_cell_angle_gamma    55.3451

_symmetry_Int_Tables_number  155
_chemical_formula_structural  Dy5Mg
_chemical_formula_sum  Dy5Mg
_cell_volume  175.39982306940087
_cell_formula_units_Z  1
loop_
  _symmetry_equiv_pos_site_id
 _symmetry_equiv_pos_as_xyz
 1  'x, y, z'
loop_
 _atom_site_type_symbol
 _atom_site_label
 _atom_site_symmetry_multiplicity
 _atom_site_fract_x
 _atom_site_fract_y
 _atom_site_fract_z
 _atom_site_fract_occupancy
 Dy  Dy1  1  0.50000  0.15842  0.84158  1
 Dy  Dy2  1  0.15842  0.84158  0.50000  1
 Dy  Dy3  1  0.84158  0.50000  0.15842  1
 Dy  Dy4  1  0.33328  0.33328  0.33328  1
 Dy  Dy5  1  0.66672  0.66672  0.66672  1
 Mg  Mg1  1  0.00000  0.00000  0.00000  1
