CIF file written using JARVIS-Tools package.
data_Sr4BrN2Cl
_symmetry_space_group_name_H-M  'R-3m'
_cell_length_a       14.5215
_cell_length_b       14.5215
_cell_length_c       14.5215
_cell_angle_alpha    15.4581
_cell_angle_beta     15.4581
_cell_angle_gamma    15.4581

_symmetry_Int_Tables_number  166
_chemical_formula_structural  Sr4BrN2Cl
_chemical_formula_sum  Sr4BrN2Cl
_cell_volume  189.53834810781507
_cell_formula_units_Z  1
loop_
  _symmetry_equiv_pos_site_id
 _symmetry_equiv_pos_as_xyz
 1  'x, y, z'
loop_
 _atom_site_type_symbol
 _atom_site_label
 _atom_site_symmetry_multiplicity
 _atom_site_fract_x
 _atom_site_fract_y
 _atom_site_fract_z
 _atom_site_fract_occupancy
 Br  Br1  1  0.50000  0.50000  0.50000  1
 Cl  Cl1  1  0.00000  0.00000  0.00000  1
 N  N1  1  0.74802  0.74802  0.74802  1
 N  N2  1  0.25198  0.25198  0.25198  1
 Sr  Sr1  1  0.38348  0.38348  0.38348  1
 Sr  Sr2  1  0.88739  0.88739  0.88739  1
 Sr  Sr3  1  0.11261  0.11261  0.11261  1
 Sr  Sr4  1  0.61652  0.61652  0.61652  1
