CIF file written using JARVIS-Tools package.
data_H4C6O
_symmetry_space_group_name_H-M  'P-1'
_cell_length_a       3.80329
_cell_length_b       8.56397
_cell_length_c       12.4948
_cell_angle_alpha    84.7653
_cell_angle_beta     90.093
_cell_angle_gamma    78.3101

_symmetry_Int_Tables_number  2
_chemical_formula_structural  H4C6O
_chemical_formula_sum  H6C24O4
_cell_volume  396.78350863401914
_cell_formula_units_Z  4
loop_
  _symmetry_equiv_pos_site_id
 _symmetry_equiv_pos_as_xyz
 1  'x, y, z'
loop_
 _atom_site_type_symbol
 _atom_site_label
 _atom_site_symmetry_multiplicity
 _atom_site_fract_x
 _atom_site_fract_y
 _atom_site_fract_z
 _atom_site_fract_occupancy
 C  C1  1  0.83164  0.75644  0.43551  1
 C  C2  1  0.26543  0.37571  0.68035  1
 C  C3  1  0.76999  0.47062  0.08384  1
 C  C4  1  0.69553  0.91745  0.40316  1
 C  C5  1  0.19553  0.91745  0.90316  1
 C  C6  1  0.15951  0.22903  0.68070  1
 C  C7  1  0.65951  0.22903  0.18070  1
 C  C8  1  0.05158  0.66200  0.36653  1
 C  C9  1  0.26999  0.47062  0.58384  1
 C  C10  1  0.55158  0.66200  0.86653  1
 C  C11  1  0.13214  0.72938  0.26587  1
 C  C12  1  0.66815  0.41778  0.98832  1
 C  C13  1  0.77608  0.98483  0.30249  1
 C  C14  1  0.27608  0.98483  0.80249  1
 C  C15  1  0.05769  0.17619  0.58517  1
 C  C16  1  0.55769  0.17619  0.08517  1
 C  C17  1  0.63214  0.72938  0.76587  1
 C  C18  1  0.06226  0.27110  0.48866  1
 C  C19  1  0.56225  0.27110  0.98866  1
 C  C20  1  0.99603  0.89039  0.23351  1
 C  C21  1  0.49603  0.89039  0.73351  1
 C  C22  1  0.16816  0.41778  0.48832  1
 C  C23  1  0.33163  0.75644  0.93551  1
 C  C24  1  0.76542  0.37571  0.18035  1
 H  H1  1  0.01935  0.99250  0.95503  1
 H  H2  1  0.97022  0.06280  0.58562  1
 H  H3  1  0.34679  0.41414  0.75552  1
 H  H4  1  0.84679  0.41414  0.25552  1
 H  H5  1  0.26216  0.70536  0.01350  1
 H  H6  1  -0.01909  0.23267  0.41349  1
 H  H7  1  0.48090  0.23267  0.91349  1
 H  H8  1  0.56550  0.94147  0.65552  1
 H  H9  1  0.06550  0.94147  0.15552  1
 H  H10  1  0.47021  0.06280  0.08562  1
 H  H11  1  0.30834  0.65433  0.21400  1
 H  H12  1  0.80834  0.65433  0.71400  1
 H  H13  1  0.35749  0.58401  0.58339  1
 H  H14  1  0.85749  0.58401  0.08339  1
 H  H15  1  0.51935  0.99250  0.45503  1
 H  H16  1  0.76216  0.70536  0.51350  1
 O  O1  1  0.13363  0.14745  0.78116  1
 O  O2  1  0.69400  0.49938  0.88786  1
 O  O3  1  0.63363  0.14745  0.28116  1
 O  O4  1  0.19400  0.49938  0.38786  1
