CIF file written using JARVIS-Tools package.
data_Sr4P2O
_symmetry_space_group_name_H-M  'I4/mmm'
_cell_length_a       4.8119
_cell_length_b       4.81191
_cell_length_c       8.67699
_cell_angle_alpha    106.098
_cell_angle_beta     106.098
_cell_angle_gamma    90

_symmetry_Int_Tables_number  139
_chemical_formula_structural  Sr4P2O
_chemical_formula_sum  Sr4P2O
_cell_volume  184.81956665757383
_cell_formula_units_Z  1
loop_
  _symmetry_equiv_pos_site_id
 _symmetry_equiv_pos_as_xyz
 1  'x, y, z'
loop_
 _atom_site_type_symbol
 _atom_site_label
 _atom_site_symmetry_multiplicity
 _atom_site_fract_x
 _atom_site_fract_y
 _atom_site_fract_z
 _atom_site_fract_occupancy
 O  O1  1  0.50000  0.50000  0.00000  1
 P  P1  1  0.86477  0.86477  0.72953  1
 P  P2  1  0.13523  0.13523  0.27047  1
 Sr  Sr1  1  0.67510  0.67510  0.35019  1
 Sr  Sr2  1  0.32490  0.32490  0.64981  1
 Sr  Sr3  1  0.00000  0.50000  -0.00000  1
 Sr  Sr4  1  0.50000  0.00000  0.00000  1
