CIF file written using JARVIS-Tools package.
data_Pm3Ag
_symmetry_space_group_name_H-M  'P6_3/mmc'
_cell_length_a       6.99877
_cell_length_b       6.99876
_cell_length_c       5.37306
_cell_angle_alpha    90
_cell_angle_beta     90
_cell_angle_gamma    120

_symmetry_Int_Tables_number  194
_chemical_formula_structural  Pm3Ag
_chemical_formula_sum  Pm6Ag2
_cell_volume  227.92703176999422
_cell_formula_units_Z  2
loop_
  _symmetry_equiv_pos_site_id
 _symmetry_equiv_pos_as_xyz
 1  'x, y, z'
loop_
 _atom_site_type_symbol
 _atom_site_label
 _atom_site_symmetry_multiplicity
 _atom_site_fract_x
 _atom_site_fract_y
 _atom_site_fract_z
 _atom_site_fract_occupancy
 Ag  Ag1  1  0.33333  0.66667  0.75000  1
 Ag  Ag2  1  0.66667  0.33333  0.25000  1
 Pm  Pm1  1  0.17466  0.34932  0.25000  1
 Pm  Pm2  1  0.65068  0.82534  0.25000  1
 Pm  Pm3  1  0.17466  0.82534  0.25000  1
 Pm  Pm4  1  0.82534  0.65068  0.75000  1
 Pm  Pm5  1  0.34932  0.17466  0.75000  1
 Pm  Pm6  1  0.82534  0.17466  0.75000  1
