CIF file written using JARVIS-Tools package.
data_H10C13O
_symmetry_space_group_name_H-M  'P1'
_cell_length_a       5.32477
_cell_length_b       8.75306
_cell_length_c       9.78867
_cell_angle_alpha    89.9342
_cell_angle_beta     81.6284
_cell_angle_gamma    88.3706

_symmetry_Int_Tables_number  1
_chemical_formula_structural  H10C13O
_chemical_formula_sum  H20C26O2
_cell_volume  451.1854371662594
_cell_formula_units_Z  2
loop_
  _symmetry_equiv_pos_site_id
 _symmetry_equiv_pos_as_xyz
 1  'x, y, z'
loop_
 _atom_site_type_symbol
 _atom_site_label
 _atom_site_symmetry_multiplicity
 _atom_site_fract_x
 _atom_site_fract_y
 _atom_site_fract_z
 _atom_site_fract_occupancy
 C  C1  1  0.70408  0.75349  0.03791  1
 C  C2  1  0.24894  0.28039  0.31845  1
 C  C3  1  0.35345  0.58501  0.54779  1
 C  C4  1  0.35345  0.58501  0.04779  1
 C  C5  1  0.58442  0.08344  0.29510  1
 C  C6  1  0.58816  0.63291  0.98165  1
 C  C7  1  0.58815  0.63290  0.48165  1
 C  C8  1  0.36356  0.14839  0.25458  1
 C  C9  1  0.58442  0.08344  0.79510  1
 C  C10  1  0.24894  0.28039  0.81844  1
 C  C11  1  0.35258  0.34741  0.42593  1
 C  C12  1  0.35619  0.77803  0.72304  1
 C  C13  1  0.59080  0.82887  0.65839  1
 C  C14  1  0.59080  0.82887  0.15839  1
 C  C15  1  0.68325  0.15302  0.40367  1
 C  C16  1  0.68326  0.15302  0.90367  1
 C  C17  1  0.23742  0.65667  0.66885  1
 C  C18  1  0.23742  0.65667  0.16885  1
 C  C19  1  0.57165  0.28427  0.46906  1
 C  C20  1  0.57165  0.28427  0.96906  1
 C  C21  1  0.35618  0.77803  0.22304  1
 C  C22  1  0.73401  0.95173  0.71967  1
 C  C23  1  0.73401  0.95173  0.21968  1
 C  C24  1  0.35258  0.34740  0.92593  1
 C  C25  1  0.70408  0.75349  0.53791  1
 C  C26  1  0.36356  0.14839  0.75458  1
 H  H1  1  0.88986  0.78899  0.98810  1
 H  H2  1  0.85547  0.10451  0.43639  1
 H  H3  1  0.67812  0.57665  0.38729  1
 H  H4  1  0.67812  0.57665  0.88729  1
 H  H5  1  0.28275  0.09763  0.16977  1
 H  H6  1  0.65299  0.33609  0.55300  1
 H  H7  1  0.65299  0.33609  0.05300  1
 H  H8  1  0.26738  0.83278  0.81863  1
 H  H9  1  0.26738  0.83278  0.31863  1
 H  H10  1  0.05533  0.61662  0.71924  1
 H  H11  1  0.05533  0.61662  0.21924  1
 H  H12  1  0.85547  0.10451  0.93639  1
 H  H13  1  0.85075  0.89778  0.79142  1
 H  H14  1  0.85075  0.89778  0.29142  1
 H  H15  1  0.87306  -0.00182  0.63634  1
 H  H16  1  0.87305  -0.00182  0.13634  1
 H  H17  1  0.07918  0.33181  0.28555  1
 H  H18  1  0.07918  0.33181  0.78555  1
 H  H19  1  0.88986  0.78899  0.48810  1
 H  H20  1  0.28275  0.09763  0.66977  1
 O  O1  1  0.21889  0.47180  -0.00718  1
 O  O2  1  0.21890  0.47180  0.49282  1
