CIF file written using JARVIS-Tools package.
data_AgGe3
_symmetry_space_group_name_H-M  'I4/mmm'
_cell_length_a       5.09133
_cell_length_b       5.09133
_cell_length_c       5.09133
_cell_angle_alpha    129.053
_cell_angle_beta     129.053
_cell_angle_gamma    74.9255

_symmetry_Int_Tables_number  139
_chemical_formula_structural  AgGe3
_chemical_formula_sum  AgGe3
_cell_volume  77.51115033217297
_cell_formula_units_Z  1
loop_
  _symmetry_equiv_pos_site_id
 _symmetry_equiv_pos_as_xyz
 1  'x, y, z'
loop_
 _atom_site_type_symbol
 _atom_site_label
 _atom_site_symmetry_multiplicity
 _atom_site_fract_x
 _atom_site_fract_y
 _atom_site_fract_z
 _atom_site_fract_occupancy
 Ag  Ag1  1  0.00000  0.00000  0.00000  1
 Ge  Ge1  1  0.75000  0.25000  0.50000  1
 Ge  Ge2  1  0.25000  0.75000  0.50000  1
 Ge  Ge3  1  0.50000  0.50000  -0.00000  1
