CIF file written using JARVIS-Tools package.
data_Fe4OF7
_symmetry_space_group_name_H-M  'Cm'
_cell_length_a       4.80802
_cell_length_b       5.75326
_cell_length_c       5.75326
_cell_angle_alpha    115.265
_cell_angle_beta     88.8187
_cell_angle_gamma    91.1813

_symmetry_Int_Tables_number  8
_chemical_formula_structural  Fe4OF7
_chemical_formula_sum  Fe4OF7
_cell_volume  143.87923287435785
_cell_formula_units_Z  1
loop_
  _symmetry_equiv_pos_site_id
 _symmetry_equiv_pos_as_xyz
 1  'x, y, z'
loop_
 _atom_site_type_symbol
 _atom_site_label
 _atom_site_symmetry_multiplicity
 _atom_site_fract_x
 _atom_site_fract_y
 _atom_site_fract_z
 _atom_site_fract_occupancy
 F  F1  1  0.79689  0.65531  0.84469  1
 F  F2  1  0.70848  0.15384  0.85343  1
 F  F3  1  0.70848  0.64657  0.34616  1
 F  F4  1  0.28883  0.84323  0.14685  1
 F  F5  1  0.28883  0.35315  0.65677  1
 F  F6  1  0.21957  0.35405  0.14595  1
 F  F7  1  0.20266  0.84668  0.65332  1
 Fe  Fe1  1  0.51174  0.00528  0.49472  1
 Fe  Fe2  1  0.50830  0.50478  0.99522  1
 Fe  Fe3  1  0.98955  0.47288  0.48371  1
 Fe  Fe4  1  0.98955  0.01629  0.02712  1
 O  O1  1  0.78714  0.14795  0.35205  1
