CIF file written using JARVIS-Tools package.
data_H9C12NO
_symmetry_space_group_name_H-M  'P1'
_cell_length_a       3.69336
_cell_length_b       6.30505
_cell_length_c       9.42984
_cell_angle_alpha    94.2061
_cell_angle_beta     102.762
_cell_angle_gamma    109.287

_symmetry_Int_Tables_number  1
_chemical_formula_structural  H9C12NO
_chemical_formula_sum  H9C2NO
_cell_volume  199.57822630093287
_cell_formula_units_Z  1
loop_
  _symmetry_equiv_pos_site_id
 _symmetry_equiv_pos_as_xyz
 1  'x, y, z'
loop_
 _atom_site_type_symbol
 _atom_site_label
 _atom_site_symmetry_multiplicity
 _atom_site_fract_x
 _atom_site_fract_y
 _atom_site_fract_z
 _atom_site_fract_occupancy
 C  C1  1  0.59659  0.30294  0.59177  1
 C  C2  1  0.44244  0.06469  0.55662  1
 C  C3  1  0.77290  0.60020  0.23289  1
 C  C4  1  0.56236  0.94438  0.66688  1
 C  C5  1  0.81324  0.05466  0.80404  1
 C  C6  1  0.62621  0.72636  0.13511  1
 C  C7  1  0.03784  0.71123  0.36869  1
 C  C8  1  0.16558  0.94765  0.41166  1
 C  C9  1  0.95469  0.29211  0.83589  1
 C  C10  1  0.84738  0.41724  0.72886  1
 C  C11  1  0.01480  0.06983  0.30948  1
 C  C12  1  0.75255  0.96342  0.17409  1
 H  H1  1  0.63994  0.06354  0.09829  1
 H  H2  1  0.95919  0.60194  0.74921  1
 H  H3  1  0.10040  0.25332  0.33568  1
 H  H4  1  0.45743  0.75934  0.64682  1
 H  H5  1  0.67659  0.41654  0.20364  1
 H  H6  1  0.89806  0.95781  0.88789  1
 H  H7  1  0.14644  0.60800  0.44241  1
 H  H8  1  0.13046  0.68978  0.97995  1
 H  H9  1  0.52455  0.40663  0.51060  1
 N  N1  1  0.36527  0.63287  0.99277  1
 O  O1  1  0.18943  0.38702  0.97768  1
