CIF file written using JARVIS-Tools package.
data_K2CuH4Cl4O2
_symmetry_space_group_name_H-M  'P4_2/mnm'
_cell_length_a       7.40223
_cell_length_b       7.40223
_cell_length_c       7.86231
_cell_angle_alpha    90
_cell_angle_beta     90
_cell_angle_gamma    90

_symmetry_Int_Tables_number  136
_chemical_formula_structural  K2CuH4Cl4O2
_chemical_formula_sum  K4Cu2H8Cl8O4
_cell_volume  430.7996408870861
_cell_formula_units_Z  2
loop_
  _symmetry_equiv_pos_site_id
 _symmetry_equiv_pos_as_xyz
 1  'x, y, z'
loop_
 _atom_site_type_symbol
 _atom_site_label
 _atom_site_symmetry_multiplicity
 _atom_site_fract_x
 _atom_site_fract_y
 _atom_site_fract_z
 _atom_site_fract_occupancy
 Cl  Cl1  1  0.77983  0.77983  0.00000  1
 Cl  Cl2  1  0.77655  0.77655  0.50000  1
 Cl  Cl3  1  0.22345  0.22345  0.50000  1
 Cl  Cl4  1  0.72345  0.27655  0.00000  1
 Cl  Cl5  1  0.72017  0.27983  0.50000  1
 Cl  Cl6  1  0.27983  0.72017  0.50000  1
 Cl  Cl7  1  0.22017  0.22017  0.00000  1
 Cl  Cl8  1  0.27655  0.72345  0.00000  1
 Cu  Cu1  1  0.50000  0.50000  0.50000  1
 Cu  Cu2  1  0.00000  0.00000  0.00000  1
 H  H1  1  0.92245  0.92245  0.67691  1
 H  H2  1  0.42245  0.57755  0.17691  1
 H  H3  1  0.07755  0.07755  0.67691  1
 H  H4  1  0.92245  0.92245  0.32309  1
 H  H5  1  0.42245  0.57755  0.82309  1
 H  H6  1  0.07755  0.07755  0.32309  1
 H  H7  1  0.57755  0.42245  0.17691  1
 H  H8  1  0.57755  0.42245  0.82309  1
 K  K1  1  0.00000  0.50000  0.25000  1
 K  K2  1  0.50000  0.00000  0.25000  1
 K  K3  1  0.00000  0.50000  0.75000  1
 K  K4  1  0.50000  0.00000  0.75000  1
 O  O1  1  0.50000  0.50000  0.74932  1
 O  O2  1  0.50000  0.50000  0.25068  1
 O  O3  1  0.00000  0.00000  0.75068  1
 O  O4  1  0.00000  0.00000  0.24932  1
