CIF file written using JARVIS-Tools package.
data_Sn3Au
_symmetry_space_group_name_H-M  'P6_3/mmc'
_cell_length_a       6.65015
_cell_length_b       6.65015
_cell_length_c       5.27851
_cell_angle_alpha    90
_cell_angle_beta     90
_cell_angle_gamma    120

_symmetry_Int_Tables_number  194
_chemical_formula_structural  Sn3Au
_chemical_formula_sum  Sn6Au2
_cell_volume  202.1643001701586
_cell_formula_units_Z  2
loop_
  _symmetry_equiv_pos_site_id
 _symmetry_equiv_pos_as_xyz
 1  'x, y, z'
loop_
 _atom_site_type_symbol
 _atom_site_label
 _atom_site_symmetry_multiplicity
 _atom_site_fract_x
 _atom_site_fract_y
 _atom_site_fract_z
 _atom_site_fract_occupancy
 Au  Au1  1  0.33333  0.66667  0.75000  1
 Au  Au2  1  0.66667  0.33333  0.25000  1
 Sn  Sn1  1  0.17288  0.34575  0.25000  1
 Sn  Sn2  1  0.65425  0.82712  0.25000  1
 Sn  Sn3  1  0.17288  0.82712  0.25000  1
 Sn  Sn4  1  0.82712  0.65425  0.75000  1
 Sn  Sn5  1  0.34575  0.17288  0.75000  1
 Sn  Sn6  1  0.82712  0.17288  0.75000  1
