CIF file written using JARVIS-Tools package.
data_Sr2CaI6
_symmetry_space_group_name_H-M  'P4_2/mnm'
_cell_length_a       7.56084
_cell_length_b       7.56084
_cell_length_c       14.4568
_cell_angle_alpha    90
_cell_angle_beta     90
_cell_angle_gamma    90

_symmetry_Int_Tables_number  136
_chemical_formula_structural  Sr2CaI6
_chemical_formula_sum  Sr4Ca2I2
_cell_volume  826.4404616856694
_cell_formula_units_Z  2
loop_
  _symmetry_equiv_pos_site_id
 _symmetry_equiv_pos_as_xyz
 1  'x, y, z'
loop_
 _atom_site_type_symbol
 _atom_site_label
 _atom_site_symmetry_multiplicity
 _atom_site_fract_x
 _atom_site_fract_y
 _atom_site_fract_z
 _atom_site_fract_occupancy
 Ca  Ca1  1  0.00000  0.00000  0.00000  1
 Ca  Ca2  1  0.50000  0.50000  0.50000  1
 I  I1  1  0.69582  0.69582  0.66021  1
 I  I2  1  0.19582  0.80418  0.16021  1
 I  I3  1  0.19582  0.80418  0.83979  1
 I  I4  1  0.80418  0.19582  0.16021  1
 I  I5  1  0.29310  0.29310  0.00000  1
 I  I6  1  0.20690  0.79310  0.50000  1
 I  I7  1  0.30418  0.30418  0.66021  1
 I  I8  1  0.80418  0.19582  0.83979  1
 I  I9  1  0.30418  0.30418  0.33979  1
 I  I10  1  0.70690  0.70690  0.00000  1
 I  I11  1  0.79310  0.20690  0.50000  1
 I  I12  1  0.69582  0.69582  0.33979  1
 Sr  Sr1  1  0.50000  0.50000  0.83349  1
 Sr  Sr2  1  0.50000  0.50000  0.16651  1
 Sr  Sr3  1  0.00000  0.00000  0.66651  1
 Sr  Sr4  1  0.00000  0.00000  0.33349  1
