CIF file written using JARVIS-Tools package.
data_Pr2Ni3P4
_symmetry_space_group_name_H-M  'P-4m2'
_cell_length_a       3.98852
_cell_length_b       3.98852
_cell_length_c       9.34615
_cell_angle_alpha    90
_cell_angle_beta     90
_cell_angle_gamma    90

_symmetry_Int_Tables_number  115
_chemical_formula_structural  Pr2Ni3P4
_chemical_formula_sum  Pr2Ni3P4
_cell_volume  148.68103322075277
_cell_formula_units_Z  1
loop_
  _symmetry_equiv_pos_site_id
 _symmetry_equiv_pos_as_xyz
 1  'x, y, z'
loop_
 _atom_site_type_symbol
 _atom_site_label
 _atom_site_symmetry_multiplicity
 _atom_site_fract_x
 _atom_site_fract_y
 _atom_site_fract_z
 _atom_site_fract_occupancy
 Ni  Ni1  1  0.00000  0.00000  0.50000  1
 Ni  Ni2  1  0.00000  0.00000  0.00000  1
 Ni  Ni3  1  0.50000  0.50000  0.50000  1
 P  P1  1  0.00000  0.50000  0.87912  1
 P  P2  1  0.50000  0.00000  0.37761  1
 P  P3  1  0.50000  0.00000  0.12088  1
 P  P4  1  0.00000  0.50000  0.62239  1
 Pr  Pr1  1  0.50000  0.00000  0.76253  1
 Pr  Pr2  1  0.00000  0.50000  0.23747  1
