CIF file written using JARVIS-Tools package.
data_H4C5S
_symmetry_space_group_name_H-M  'Cm'
_cell_length_a       4.67495
_cell_length_b       8.68484
_cell_length_c       10.7535
_cell_angle_alpha    107.424
_cell_angle_beta     92.0167
_cell_angle_gamma    96.6252

_symmetry_Int_Tables_number  8
_chemical_formula_structural  H4C5S
_chemical_formula_sum  H6C20S4
_cell_volume  412.6673846927184
_cell_formula_units_Z  4
loop_
  _symmetry_equiv_pos_site_id
 _symmetry_equiv_pos_as_xyz
 1  'x, y, z'
loop_
 _atom_site_type_symbol
 _atom_site_label
 _atom_site_symmetry_multiplicity
 _atom_site_fract_x
 _atom_site_fract_y
 _atom_site_fract_z
 _atom_site_fract_occupancy
 C  C1  1  0.21553  0.30219  0.90604  1
 C  C2  1  0.96553  0.80219  0.15604  1
 C  C3  1  0.46553  0.80219  0.65604  1
 C  C4  1  0.08885  0.93827  0.27525  1
 C  C5  1  0.33885  0.43827  0.02525  1
 C  C6  1  0.85152  0.05951  0.78470  1
 C  C7  1  0.58886  0.93827  0.77525  1
 C  C8  1  0.35152  0.05951  0.28470  1
 C  C9  1  0.00233  0.12913  0.70342  1
 C  C10  1  0.10152  0.55951  0.53470  1
 C  C11  1  0.20974  0.26741  0.77256  1
 C  C12  1  0.70974  0.26741  0.27256  1
 C  C13  1  0.95974  0.76741  0.02256  1
 C  C14  1  0.45974  0.76741  0.52256  1
 C  C15  1  0.50233  0.12913  0.20342  1
 C  C16  1  0.75233  0.62913  0.95342  1
 C  C17  1  0.25233  0.62913  0.45342  1
 C  C18  1  0.60152  0.55951  0.03470  1
 C  C19  1  0.71553  0.30219  0.40604  1
 C  C20  1  0.83886  0.43827  0.52525  1
 H  H1  1  0.62077  0.88283  0.85423  1
 H  H2  1  0.34580  0.33845  0.72355  1
 H  H3  1  0.16077  0.51188  0.05616  1
 H  H4  1  0.66077  0.51188  0.55616  1
 H  H5  1  0.91077  0.01188  0.30616  1
 H  H6  1  0.96652  0.08558  0.59712  1
 H  H7  1  0.46651  0.08558  0.09712  1
 H  H8  1  0.21651  0.58558  0.34712  1
 H  H9  1  0.71651  0.58558  0.84712  1
 H  H10  1  0.84580  0.33846  0.22355  1
 H  H11  1  0.09580  0.83846  0.97355  1
 H  H12  1  0.59580  0.83846  0.47355  1
 H  H13  1  0.37077  0.38283  0.10423  1
 H  H14  1  0.87077  0.38283  0.60423  1
 H  H15  1  0.12077  0.88283  0.35423  1
 H  H16  1  0.41077  0.01188  0.80616  1
 S  S1  1  0.72168  0.66173  0.19552  1
 S  S2  1  0.47169  0.16172  0.44552  1
 S  S3  1  0.22169  0.66173  0.69552  1
 S  S4  1  0.97168  0.16173  0.94552  1
