CIF file written using JARVIS-Tools package.
data_Li4Fe3CuO8
_symmetry_space_group_name_H-M  'R-3m'
_cell_length_a       5.73708
_cell_length_b       5.73709
_cell_length_c       5.74896
_cell_angle_alpha    90.0006
_cell_angle_beta     119.928
_cell_angle_gamma    120.001

_symmetry_Int_Tables_number  166
_chemical_formula_structural  Li4Fe3CuO8
_chemical_formula_sum  Li4Fe3CuO8
_cell_volume  133.94320256109282
_cell_formula_units_Z  1
loop_
  _symmetry_equiv_pos_site_id
 _symmetry_equiv_pos_as_xyz
 1  'x, y, z'
loop_
 _atom_site_type_symbol
 _atom_site_label
 _atom_site_symmetry_multiplicity
 _atom_site_fract_x
 _atom_site_fract_y
 _atom_site_fract_z
 _atom_site_fract_occupancy
 Cu  Cu1  1  0.00005  0.00000  0.00000  1
 Fe  Fe1  1  0.50004  0.00000  0.00000  1
 Fe  Fe2  1  0.50005  0.50000  0.00000  1
 Fe  Fe3  1  0.00005  0.50000  -0.00000  1
 Li  Li1  1  0.50010  0.00001  0.50002  1
 Li  Li2  1  0.49996  0.50000  0.50000  1
 Li  Li3  1  0.00003  0.50000  0.50000  1
 Li  Li4  1  0.00007  0.99999  0.49998  1
 O  O1  1  0.48265  0.74130  0.22391  1
 O  O2  1  0.49807  0.74901  0.77446  1
 O  O3  1  0.97459  0.25099  0.22553  1
 O  O4  1  0.97458  0.72358  0.22551  1
 O  O5  1  0.02551  0.27642  0.77449  1
 O  O6  1  0.02552  0.74902  0.77447  1
 O  O7  1  0.50202  0.25099  0.22554  1
 O  O8  1  0.51745  0.25870  0.77609  1
