CIF file written using JARVIS-Tools package.
data_LiCr2CoO6
_symmetry_space_group_name_H-M  'Cm'
_cell_length_a       2.87257
_cell_length_b       5.79826
_cell_length_c       6.33293
_cell_angle_alpha    103.135
_cell_angle_beta     103.107
_cell_angle_gamma    89.9989

_symmetry_Int_Tables_number  8
_chemical_formula_structural  LiCr2CoO6
_chemical_formula_sum  LiCr2CoO6
_cell_volume  99.89737678090836
_cell_formula_units_Z  1
loop_
  _symmetry_equiv_pos_site_id
 _symmetry_equiv_pos_as_xyz
 1  'x, y, z'
loop_
 _atom_site_type_symbol
 _atom_site_label
 _atom_site_symmetry_multiplicity
 _atom_site_fract_x
 _atom_site_fract_y
 _atom_site_fract_z
 _atom_site_fract_occupancy
 Co  Co1  1  0.66114  0.33875  0.32228  1
 Cr  Cr1  1  0.01172  0.98943  0.02345  1
 Cr  Cr2  1  0.32748  0.66904  0.65499  1
 Li  Li1  1  0.33563  0.17604  0.67127  1
 O  O1  1  0.50373  0.21243  0.00749  1
 O  O2  1  0.17125  0.55452  0.34246  1
 O  O3  1  0.16477  0.11720  0.32951  1
 O  O4  1  0.84255  0.90098  0.68514  1
 O  O5  1  0.82077  0.43664  0.64154  1
 O  O6  1  0.49155  0.77193  0.98310  1
