CIF file written using JARVIS-Tools package.
data_PdPb4Au
_symmetry_space_group_name_H-M  'I422'
_cell_length_a       5.89314
_cell_length_b       5.89314
_cell_length_c       5.89314
_cell_angle_alpha    104.345
_cell_angle_beta     104.345
_cell_angle_gamma    120.297

_symmetry_Int_Tables_number  97
_chemical_formula_structural  PdPb4Au
_chemical_formula_sum  PdPb4Au
_cell_volume  153.26432693519402
_cell_formula_units_Z  1
loop_
  _symmetry_equiv_pos_site_id
 _symmetry_equiv_pos_as_xyz
 1  'x, y, z'
loop_
 _atom_site_type_symbol
 _atom_site_label
 _atom_site_symmetry_multiplicity
 _atom_site_fract_x
 _atom_site_fract_y
 _atom_site_fract_z
 _atom_site_fract_occupancy
 Au  Au1  1  0.00000  0.00000  0.00000  1
 Pb  Pb1  1  0.91047  0.41047  0.82094  1
 Pb  Pb2  1  0.58953  0.08953  0.17906  1
 Pb  Pb3  1  0.08953  0.91047  0.50000  1
 Pb  Pb4  1  0.41047  0.58953  0.50000  1
 Pd  Pd1  1  0.50000  0.50000  -0.00000  1
