CIF file written using JARVIS-Tools package.
data_KHg2
_symmetry_space_group_name_H-M  'Imma'
_cell_length_a       5.30832
_cell_length_b       6.61774
_cell_length_c       6.61774
_cell_angle_alpha    71.4196
_cell_angle_beta     66.3551
_cell_angle_gamma    66.3551

_symmetry_Int_Tables_number  74
_chemical_formula_structural  KHg2
_chemical_formula_sum  K2Hg4
_cell_volume  191.60069828340082
_cell_formula_units_Z  2
loop_
  _symmetry_equiv_pos_site_id
 _symmetry_equiv_pos_as_xyz
 1  'x, y, z'
loop_
 _atom_site_type_symbol
 _atom_site_label
 _atom_site_symmetry_multiplicity
 _atom_site_fract_x
 _atom_site_fract_y
 _atom_site_fract_z
 _atom_site_fract_occupancy
 Hg  Hg1  1  0.66393  0.29354  0.87861  1
 Hg  Hg2  1  0.33608  0.70646  0.12139  1
 Hg  Hg3  1  0.66393  0.87861  0.29354  1
 Hg  Hg4  1  0.33608  0.12139  0.70646  1
 K  K1  1  0.03996  0.71004  0.71004  1
 K  K2  1  0.96004  0.28996  0.28996  1
