CIF file written using JARVIS-Tools package.
data_Rb2TeI6
_symmetry_space_group_name_H-M  'P4/mnc'
_cell_length_a       7.94525
_cell_length_b       7.94525
_cell_length_c       12.2627
_cell_angle_alpha    90
_cell_angle_beta     90
_cell_angle_gamma    90

_symmetry_Int_Tables_number  128
_chemical_formula_structural  Rb2TeI6
_chemical_formula_sum  Rb4Te2I2
_cell_volume  774.1088405916709
_cell_formula_units_Z  2
loop_
  _symmetry_equiv_pos_site_id
 _symmetry_equiv_pos_as_xyz
 1  'x, y, z'
loop_
 _atom_site_type_symbol
 _atom_site_label
 _atom_site_symmetry_multiplicity
 _atom_site_fract_x
 _atom_site_fract_y
 _atom_site_fract_z
 _atom_site_fract_occupancy
 I  I1  1  0.70532  0.18634  0.50000  1
 I  I2  1  0.00000  0.00000  0.24355  1
 I  I3  1  0.50000  0.50000  0.25645  1
 I  I4  1  0.81366  0.70532  0.50000  1
 I  I5  1  0.50000  0.50000  0.74355  1
 I  I6  1  0.00000  0.00000  0.75645  1
 I  I7  1  0.68634  0.20532  0.00000  1
 I  I8  1  0.31366  0.79468  0.00000  1
 I  I9  1  0.18634  0.29468  0.50000  1
 I  I10  1  0.29468  0.81366  0.50000  1
 I  I11  1  0.79468  0.68634  0.00000  1
 I  I12  1  0.20532  0.31366  0.00000  1
 Rb  Rb1  1  0.50000  0.00000  0.75000  1
 Rb  Rb2  1  0.00000  0.50000  0.75000  1
 Rb  Rb3  1  0.50000  0.00000  0.25000  1
 Rb  Rb4  1  0.00000  0.50000  0.25000  1
 Te  Te1  1  0.50000  0.50000  0.50000  1
 Te  Te2  1  0.00000  0.00000  0.00000  1
