CIF file written using JARVIS-Tools package.
data_CdH12C8O4
_symmetry_space_group_name_H-M  'P1'
_cell_length_a       3.64725
_cell_length_b       4.26399
_cell_length_c       13.4046
_cell_angle_alpha    71.7427
_cell_angle_beta     83.7495
_cell_angle_gamma    90.7171

_symmetry_Int_Tables_number  1
_chemical_formula_structural  CdH12C8O4
_chemical_formula_sum  CdH2C8O4
_cell_volume  196.5543061785539
_cell_formula_units_Z  1
loop_
  _symmetry_equiv_pos_site_id
 _symmetry_equiv_pos_as_xyz
 1  'x, y, z'
loop_
 _atom_site_type_symbol
 _atom_site_label
 _atom_site_symmetry_multiplicity
 _atom_site_fract_x
 _atom_site_fract_y
 _atom_site_fract_z
 _atom_site_fract_occupancy
 C  C1  1  0.57747  0.53214  0.63201  1
 C  C2  1  0.39600  0.79477  0.33497  1
 C  C3  1  0.49647  0.79946  0.44100  1
 C  C4  1  0.51573  0.47253  0.52835  1
 C  C5  1  0.63162  0.21976  0.72246  1
 C  C6  1  0.63910  0.28430  0.82809  1
 C  C7  1  0.67443  0.96988  0.91939  1
 C  C8  1  0.51159  0.96710  0.02869  1
 Cd  Cd1  1  0.05009  0.38293  0.18222  1
 H  H1  1  0.75371  0.95048  0.42691  1
 H  H2  1  0.81705  0.70664  0.61805  1
 H  H3  1  0.86290  0.46692  0.82194  1
 H  H4  1  0.38135  0.39681  0.84595  1
 H  H5  1  0.74007  0.33341  0.50403  1
 H  H6  1  0.34006  0.65866  0.65690  1
 H  H7  1  0.88588  0.10497  0.70243  1
 H  H8  1  0.40601  0.03560  0.73146  1
 H  H9  1  0.95872  0.89090  0.92274  1
 H  H10  1  0.51933  0.76240  0.90823  1
 H  H11  1  0.25952  0.32115  0.53983  1
 H  H12  1  0.28399  0.94860  0.46683  1
 O  O1  1  0.51463  0.05290  0.25498  1
 O  O2  1  0.58153  0.71073  0.10651  1
 O  O3  1  0.17838  0.57094  0.32889  1
 O  O4  1  0.28776  0.18077  0.03889  1
