CIF file written using JARVIS-Tools package.
data_Al2ZnSe4
_symmetry_space_group_name_H-M  'Pm'
_cell_length_a       3.86139
_cell_length_b       6.47004
_cell_length_c       6.88817
_cell_angle_alpha    89.648
_cell_angle_beta     90
_cell_angle_gamma    90

_symmetry_Int_Tables_number  6
_chemical_formula_structural  Al2ZnSe4
_chemical_formula_sum  Al2ZnSe4
_cell_volume  172.0863922085644
_cell_formula_units_Z  1
loop_
  _symmetry_equiv_pos_site_id
 _symmetry_equiv_pos_as_xyz
 1  'x, y, z'
loop_
 _atom_site_type_symbol
 _atom_site_label
 _atom_site_symmetry_multiplicity
 _atom_site_fract_x
 _atom_site_fract_y
 _atom_site_fract_z
 _atom_site_fract_occupancy
 Al  Al1  1  0.50000  0.52104  0.17173  1
 Al  Al2  1  0.50000  0.97244  0.85113  1
 Se  Se1  1  0.00000  0.89323  0.64603  1
 Se  Se2  1  0.50000  0.88224  0.17813  1
 Se  Se3  1  0.50000  0.36461  0.84159  1
 Se  Se4  1  0.00000  0.35420  0.32633  1
 Zn  Zn1  1  0.00000  0.51224  0.65171  1
