CIF file written using JARVIS-Tools package.
data_FePS3
_symmetry_space_group_name_H-M  'C2/m'
_cell_length_a       5.91014
_cell_length_b       5.91013
_cell_length_c       6.68048
_cell_angle_alpha    98.4948
_cell_angle_beta     98.4948
_cell_angle_gamma    120.054

_symmetry_Int_Tables_number  12
_chemical_formula_structural  FePS3
_chemical_formula_sum  Fe2P2S6
_cell_volume  192.94360171152135
_cell_formula_units_Z  2
loop_
  _symmetry_equiv_pos_site_id
 _symmetry_equiv_pos_as_xyz
 1  'x, y, z'
loop_
 _atom_site_type_symbol
 _atom_site_label
 _atom_site_symmetry_multiplicity
 _atom_site_fract_x
 _atom_site_fract_y
 _atom_site_fract_z
 _atom_site_fract_occupancy
 Fe  Fe1  1  0.33199  0.66801  -0.00000  1
 Fe  Fe2  1  0.66801  0.33199  0.00000  1
 P  P1  1  0.05808  0.05808  0.17292  1
 P  P2  1  0.94192  0.94192  0.82708  1
 S  S1  1  0.41996  0.08257  0.24735  1
 S  S2  1  0.91743  0.58004  0.75265  1
 S  S3  1  0.25575  0.25575  0.75431  1
 S  S4  1  0.74425  0.74425  0.24569  1
 S  S5  1  0.58004  0.91743  0.75265  1
 S  S6  1  0.08257  0.41996  0.24735  1
