CIF file written using JARVIS-Tools package.
data_CeMnNi4
_symmetry_space_group_name_H-M  'F-43m'
_cell_length_a       4.92019
_cell_length_b       4.92019
_cell_length_c       4.92019
_cell_angle_alpha    60
_cell_angle_beta     60
_cell_angle_gamma    59.9999

_symmetry_Int_Tables_number  216
_chemical_formula_structural  CeMnNi4
_chemical_formula_sum  CeMnNi4
_cell_volume  84.22318336442832
_cell_formula_units_Z  1
loop_
  _symmetry_equiv_pos_site_id
 _symmetry_equiv_pos_as_xyz
 1  'x, y, z'
loop_
 _atom_site_type_symbol
 _atom_site_label
 _atom_site_symmetry_multiplicity
 _atom_site_fract_x
 _atom_site_fract_y
 _atom_site_fract_z
 _atom_site_fract_occupancy
 Ce  Ce1  1  0.00000  0.00000  0.00000  1
 Mn  Mn1  1  0.25000  0.25000  0.25000  1
 Ni  Ni1  1  0.62376  0.62376  0.62376  1
 Ni  Ni2  1  0.62376  0.12871  0.62376  1
 Ni  Ni3  1  0.62376  0.62376  0.12871  1
 Ni  Ni4  1  0.12871  0.62376  0.62376  1
