CIF file written using JARVIS-Tools package.
data_Sr4As2O
_symmetry_space_group_name_H-M  'I4/mmm'
_cell_length_a       4.85445
_cell_length_b       4.85445
_cell_length_c       8.8526
_cell_angle_alpha    105.913
_cell_angle_beta     105.913
_cell_angle_gamma    90

_symmetry_Int_Tables_number  139
_chemical_formula_structural  Sr4As2O
_chemical_formula_sum  Sr4As2O
_cell_volume  192.29601104729497
_cell_formula_units_Z  1
loop_
  _symmetry_equiv_pos_site_id
 _symmetry_equiv_pos_as_xyz
 1  'x, y, z'
loop_
 _atom_site_type_symbol
 _atom_site_label
 _atom_site_symmetry_multiplicity
 _atom_site_fract_x
 _atom_site_fract_y
 _atom_site_fract_z
 _atom_site_fract_occupancy
 As  As1  1  0.86390  0.86390  0.72779  1
 As  As2  1  0.13610  0.13610  0.27221  1
 O  O1  1  0.50000  0.50000  -0.00000  1
 Sr  Sr1  1  0.67328  0.67328  0.34656  1
 Sr  Sr2  1  0.32672  0.32672  0.65344  1
 Sr  Sr3  1  -0.00000  0.50000  -0.00000  1
 Sr  Sr4  1  0.50000  0.00000  -0.00000  1
