CIF file written using JARVIS-Tools package.
data_Zn2NiO3
_symmetry_space_group_name_H-M  'Immm'
_cell_length_a       5.23625
_cell_length_b       5.23625
_cell_length_c       5.23625
_cell_angle_alpha    146.327
_cell_angle_beta     131.858
_cell_angle_gamma    60.0336

_symmetry_Int_Tables_number  71
_chemical_formula_structural  Zn2NiO3
_chemical_formula_sum  Zn2NiO3
_cell_volume  58.74482740827333
_cell_formula_units_Z  1
loop_
  _symmetry_equiv_pos_site_id
 _symmetry_equiv_pos_as_xyz
 1  'x, y, z'
loop_
 _atom_site_type_symbol
 _atom_site_label
 _atom_site_symmetry_multiplicity
 _atom_site_fract_x
 _atom_site_fract_y
 _atom_site_fract_z
 _atom_site_fract_occupancy
 Ni  Ni1  1  0.00000  0.00000  0.00000  1
 O  O1  1  0.50000  -0.00000  0.50000  1
 O  O2  1  0.16308  0.66308  0.50000  1
 O  O3  1  0.83692  0.33692  0.50000  1
 Zn  Zn1  1  0.66565  0.66565  -0.00000  1
 Zn  Zn2  1  0.33435  0.33435  0.00000  1
