CIF file written using JARVIS-Tools package.
data_HfH8C6O4
_symmetry_space_group_name_H-M  'P1'
_cell_length_a       3.81731
_cell_length_b       4.66976
_cell_length_c       9.67739
_cell_angle_alpha    106.677
_cell_angle_beta     85.628
_cell_angle_gamma    108.067

_symmetry_Int_Tables_number  1
_chemical_formula_structural  HfH8C6O4
_chemical_formula_sum  HfH8C6O4
_cell_volume  157.0894899641983
_cell_formula_units_Z  1
loop_
  _symmetry_equiv_pos_site_id
 _symmetry_equiv_pos_as_xyz
 1  'x, y, z'
loop_
 _atom_site_type_symbol
 _atom_site_label
 _atom_site_symmetry_multiplicity
 _atom_site_fract_x
 _atom_site_fract_y
 _atom_site_fract_z
 _atom_site_fract_occupancy
 C  C1  1  0.51736  0.69538  0.07845  1
 C  C2  1  0.42884  0.53040  0.92078  1
 C  C3  1  0.53799  0.49082  0.17397  1
 C  C4  1  0.52505  0.65113  0.33581  1
 C  C5  1  0.87036  0.11400  0.54626  1
 C  C6  1  0.78225  0.98598  0.38490  1
 H  H1  1  0.76957  0.89352  0.08511  1
 H  H2  1  0.29480  0.80322  0.11701  1
 H  H3  1  0.78983  0.41857  0.14826  1
 H  H4  1  0.30576  0.27323  0.14482  1
 H  H5  1  0.04849  0.00780  0.32895  1
 H  H6  1  0.66092  0.14279  0.35255  1
 H  H7  1  0.24118  0.65215  0.36478  1
 H  H8  1  0.58666  0.50946  0.39826  1
 Hf  Hf1  1  0.02115  0.87266  0.69139  1
 O  O1  1  0.19692  0.25483  0.88610  1
 O  O2  1  0.96360  0.43868  0.58599  1
 O  O3  1  0.57302  -0.00968  0.63691  1
 O  O4  1  0.56831  0.68123  0.82925  1
