CIF file written using JARVIS-Tools package.
data_FeCoSn4
_symmetry_space_group_name_H-M  'I422'
_cell_length_a       5.31496
_cell_length_b       5.31496
_cell_length_c       5.31496
_cell_angle_alpha    105.46
_cell_angle_beta     105.46
_cell_angle_gamma    117.832

_symmetry_Int_Tables_number  97
_chemical_formula_structural  FeCoSn4
_chemical_formula_sum  FeCoSn4
_cell_volume  113.70851006863982
_cell_formula_units_Z  1
loop_
  _symmetry_equiv_pos_site_id
 _symmetry_equiv_pos_as_xyz
 1  'x, y, z'
loop_
 _atom_site_type_symbol
 _atom_site_label
 _atom_site_symmetry_multiplicity
 _atom_site_fract_x
 _atom_site_fract_y
 _atom_site_fract_z
 _atom_site_fract_occupancy
 Co  Co1  1  0.00000  0.00000  0.00000  1
 Fe  Fe1  1  0.50000  0.50000  -0.00000  1
 Sn  Sn1  1  0.91551  0.41551  0.83101  1
 Sn  Sn2  1  0.58449  0.08449  0.16899  1
 Sn  Sn3  1  0.08449  0.91551  0.50000  1
 Sn  Sn4  1  0.41551  0.58449  0.50000  1
