CIF file written using JARVIS-Tools package.
data_H4C7SO2
_symmetry_space_group_name_H-M  'P1'
_cell_length_a       3.84551
_cell_length_b       5.16802
_cell_length_c       7.57881
_cell_angle_alpha    89.2744
_cell_angle_beta     90.7232
_cell_angle_gamma    79.1616

_symmetry_Int_Tables_number  1
_chemical_formula_structural  H4C7SO2
_chemical_formula_sum  H4C7SO2
_cell_volume  147.90280827890044
_cell_formula_units_Z  1
loop_
  _symmetry_equiv_pos_site_id
 _symmetry_equiv_pos_as_xyz
 1  'x, y, z'
loop_
 _atom_site_type_symbol
 _atom_site_label
 _atom_site_symmetry_multiplicity
 _atom_site_fract_x
 _atom_site_fract_y
 _atom_site_fract_z
 _atom_site_fract_occupancy
 C  C1  1  0.67484  0.79321  0.34815  1
 C  C2  1  0.69747  0.79835  0.53463  1
 C  C3  1  0.51616  0.03357  0.60186  1
 C  C4  1  0.46385  0.02028  0.27784  1
 C  C5  1  0.49922  0.95272  0.93929  1
 C  C6  1  0.47441  0.14138  0.78044  1
 C  C7  1  0.32563  0.09343  0.09961  1
 H  H1  1  0.77643  0.85927  0.96622  1
 H  H2  1  0.79591  0.62790  0.26789  1
 H  H3  1  0.84250  0.63989  0.61755  1
 H  H4  1  0.36799  0.78681  0.90559  1
 O  O1  1  0.40314  0.38314  0.79540  1
 O  O2  1  0.05850  0.26854  0.08192  1
 S  S1  1  0.31086  0.24403  0.43807  1
