CIF file written using JARVIS-Tools package.
data_ThSiRu2C
_symmetry_space_group_name_H-M  'Cmcm'
_cell_length_a       5.97121
_cell_length_b       5.97121
_cell_length_c       7.19139
_cell_angle_alpha    90
_cell_angle_beta     90
_cell_angle_gamma    141.387

_symmetry_Int_Tables_number  63
_chemical_formula_structural  ThSiRu2C
_chemical_formula_sum  Th2Si2Ru4C2
_cell_volume  160.0172669930709
_cell_formula_units_Z  2
loop_
  _symmetry_equiv_pos_site_id
 _symmetry_equiv_pos_as_xyz
 1  'x, y, z'
loop_
 _atom_site_type_symbol
 _atom_site_label
 _atom_site_symmetry_multiplicity
 _atom_site_fract_x
 _atom_site_fract_y
 _atom_site_fract_z
 _atom_site_fract_occupancy
 C  C1  1  0.00000  0.00000  0.00000  1
 C  C2  1  0.00000  0.00000  0.50000  1
 Ru  Ru1  1  0.83564  0.16436  0.05585  1
 Ru  Ru2  1  0.16436  0.83564  0.94415  1
 Ru  Ru3  1  0.16436  0.83564  0.55585  1
 Ru  Ru4  1  0.83564  0.16436  0.44415  1
 Si  Si1  1  0.27366  0.72634  0.25000  1
 Si  Si2  1  0.72634  0.27366  0.75000  1
 Th  Th1  1  0.55444  0.44556  0.25000  1
 Th  Th2  1  0.44556  0.55444  0.75000  1
