CIF file written using JARVIS-Tools package.
data_TeW2S3
_symmetry_space_group_name_H-M  'P3m1'
_cell_length_a       3.2809
_cell_length_b       3.28091
_cell_length_c       41.8486
_cell_angle_alpha    89.9897
_cell_angle_beta     90
_cell_angle_gamma    120

_symmetry_Int_Tables_number  156
_chemical_formula_structural  TeW2S3
_chemical_formula_sum  Te2W4S6
_cell_volume  390.12119752844285
_cell_formula_units_Z  2
loop_
  _symmetry_equiv_pos_site_id
 _symmetry_equiv_pos_as_xyz
 1  'x, y, z'
loop_
 _atom_site_type_symbol
 _atom_site_label
 _atom_site_symmetry_multiplicity
 _atom_site_fract_x
 _atom_site_fract_y
 _atom_site_fract_z
 _atom_site_fract_occupancy
 S  S1  1  0.33339  0.66678  0.31641  1
 S  S2  1  0.33318  0.66637  0.69685  1
 S  S3  1  0.66658  0.33315  0.05690  1
 S  S4  1  0.66646  0.33291  0.13063  1
 S  S5  1  0.33351  0.66702  0.24258  1
 S  S6  1  0.33331  0.66662  0.62312  1
 Te  Te1  1  0.66686  0.33372  0.42329  1
 Te  Te2  1  0.66672  0.33343  0.51605  1
 W  W1  1  0.33318  0.66637  0.09374  1
 W  W2  1  0.33345  0.66690  0.46967  1
 W  W3  1  0.66678  0.33356  0.27948  1
 W  W4  1  0.66659  0.33317  0.66002  1
