CIF file written using JARVIS-Tools package.
data_Sn3BiTe4
_symmetry_space_group_name_H-M  'R-3m'
_cell_length_a       14.4635
_cell_length_b       14.4635
_cell_length_c       14.4635
_cell_angle_alpha    18.4983
_cell_angle_beta     18.4983
_cell_angle_gamma    18.4983

_symmetry_Int_Tables_number  166
_chemical_formula_structural  Sn3BiTe4
_chemical_formula_sum  Sn3BiTe4
_cell_volume  266.06186659343985
_cell_formula_units_Z  1
loop_
  _symmetry_equiv_pos_site_id
 _symmetry_equiv_pos_as_xyz
 1  'x, y, z'
loop_
 _atom_site_type_symbol
 _atom_site_label
 _atom_site_symmetry_multiplicity
 _atom_site_fract_x
 _atom_site_fract_y
 _atom_site_fract_z
 _atom_site_fract_occupancy
 Bi  Bi1  1  0.00000  0.00000  0.00000  1
 Sn  Sn1  1  0.24894  0.24894  0.24894  1
 Sn  Sn2  1  0.50000  0.50000  0.50000  1
 Sn  Sn3  1  0.75106  0.75106  0.75106  1
 Te  Te1  1  0.37494  0.37494  0.37494  1
 Te  Te2  1  0.12477  0.12477  0.12477  1
 Te  Te3  1  0.62506  0.62506  0.62506  1
 Te  Te4  1  0.87523  0.87523  0.87523  1
