CIF file written using JARVIS-Tools package.
data_BaFe2S4
_symmetry_space_group_name_H-M  'I4/m'
_cell_length_a       5.07216
_cell_length_b       5.89614
_cell_length_c       5.89615
_cell_angle_alpha    79.3385
_cell_angle_beta     64.5246
_cell_angle_gamma    64.5245

_symmetry_Int_Tables_number  87
_chemical_formula_structural  BaFe2S4
_chemical_formula_sum  BaFe2S4
_cell_volume  143.7086247192598
_cell_formula_units_Z  1
loop_
  _symmetry_equiv_pos_site_id
 _symmetry_equiv_pos_as_xyz
 1  'x, y, z'
loop_
 _atom_site_type_symbol
 _atom_site_label
 _atom_site_symmetry_multiplicity
 _atom_site_fract_x
 _atom_site_fract_y
 _atom_site_fract_z
 _atom_site_fract_occupancy
 Ba  Ba1  1  0.00000  0.00000  0.00000  1
 Fe  Fe1  1  0.75000  0.50000  0.50000  1
 Fe  Fe2  1  0.25000  0.50000  0.50000  1
 S  S1  1  0.38842  0.41365  0.80951  1
 S  S2  1  0.19793  0.19049  0.41365  1
 S  S3  1  0.80207  0.80951  0.58635  1
 S  S4  1  0.61158  0.58635  0.19049  1
