CIF file written using JARVIS-Tools package.
data_MoWC2
_symmetry_space_group_name_H-M  'Pmm2'
_cell_length_a       2.84295
_cell_length_b       2.92683
_cell_length_c       5.06868
_cell_angle_alpha    90
_cell_angle_beta     90
_cell_angle_gamma    90

_symmetry_Int_Tables_number  25
_chemical_formula_structural  MoWC2
_chemical_formula_sum  MoWC2
_cell_volume  42.175549262417505
_cell_formula_units_Z  1
loop_
  _symmetry_equiv_pos_site_id
 _symmetry_equiv_pos_as_xyz
 1  'x, y, z'
loop_
 _atom_site_type_symbol
 _atom_site_label
 _atom_site_symmetry_multiplicity
 _atom_site_fract_x
 _atom_site_fract_y
 _atom_site_fract_z
 _atom_site_fract_occupancy
 C  C1  1  0.00000  0.00000  0.99902  1
 C  C2  1  0.00000  0.50000  0.50106  1
 Mo  Mo1  1  0.50000  0.50000  0.16607  1
 W  W1  1  0.50000  0.00000  0.66715  1
