CIF file written using JARVIS-Tools package.
data_H10C5S
_symmetry_space_group_name_H-M  'C2/c'
_cell_length_a       7.8428
_cell_length_b       8.91912
_cell_length_c       7.94776
_cell_angle_alpha    90
_cell_angle_beta     110.145
_cell_angle_gamma    90

_symmetry_Int_Tables_number  15
_chemical_formula_structural  H10C5S
_chemical_formula_sum  H40C20S4
_cell_volume  521.9402698487736
_cell_formula_units_Z  4
loop_
  _symmetry_equiv_pos_site_id
 _symmetry_equiv_pos_as_xyz
 1  'x, y, z'
loop_
 _atom_site_type_symbol
 _atom_site_label
 _atom_site_symmetry_multiplicity
 _atom_site_fract_x
 _atom_site_fract_y
 _atom_site_fract_z
 _atom_site_fract_occupancy
 C  C1  1  0.75050  0.03845  0.09067  1
 C  C2  1  0.24950  0.53845  0.40933  1
 C  C3  1  0.24848  0.05355  0.07117  1
 C  C4  1  0.75152  0.94645  0.92883  1
 C  C5  1  0.75152  0.55355  0.42883  1
 C  C6  1  0.75050  0.46155  0.59067  1
 C  C7  1  0.24950  0.96155  0.90933  1
 C  C8  1  0.25015  0.44169  0.25015  1
 C  C9  1  0.24848  0.44645  0.57117  1
 C  C10  1  0.74820  0.55355  0.07088  1
 C  C11  1  0.74985  0.55831  0.74985  1
 C  C12  1  0.25023  0.53845  0.09078  1
 C  C13  1  0.74977  0.46155  0.90922  1
 C  C14  1  0.74977  0.03845  0.40922  1
 C  C15  1  0.25023  0.96155  0.59078  1
 C  C16  1  0.25180  0.44645  0.92912  1
 C  C17  1  0.74820  0.94645  0.57088  1
 C  C18  1  0.25180  0.05355  0.42912  1
 C  C19  1  0.74985  0.94169  0.24985  1
 C  C20  1  0.25015  0.05831  0.75015  1
 H  H1  1  0.86923  0.38709  0.94891  1
 H  H2  1  0.13077  0.88709  0.55109  1
 H  H3  1  0.86923  0.11291  0.44891  1
 H  H4  1  0.13077  0.61291  0.05109  1
 H  H5  1  0.37469  0.12354  0.46515  1
 H  H6  1  0.63032  0.11292  0.36683  1
 H  H7  1  0.62916  0.86848  0.20979  1
 H  H8  1  0.36968  0.61292  0.13317  1
 H  H9  1  0.37084  0.13152  0.79021  1
 H  H10  1  0.86776  0.87268  0.61889  1
 H  H11  1  0.63032  0.38708  0.86683  1
 H  H12  1  0.36853  0.61340  0.44885  1
 H  H13  1  0.12985  0.36804  0.21022  1
 H  H14  1  0.12596  0.12398  0.03531  1
 H  H15  1  0.87404  0.87602  0.96469  1
 H  H16  1  0.87404  0.62398  0.46469  1
 H  H17  1  0.12596  0.37602  0.53531  1
 H  H18  1  0.36844  0.12690  0.11929  1
 H  H19  1  0.63156  0.87310  0.88071  1
 H  H20  1  0.63156  0.62690  0.38071  1
 H  H21  1  0.36853  0.88660  0.94885  1
 H  H22  1  0.63147  0.11340  0.05115  1
 H  H23  1  0.63147  0.38660  0.55115  1
 H  H24  1  0.36968  0.88708  0.63317  1
 H  H25  1  0.12960  0.88758  0.86679  1
 H  H26  1  0.87040  0.11242  0.13321  1
 H  H27  1  0.87040  0.38758  0.63321  1
 H  H28  1  0.12960  0.61242  0.36679  1
 H  H29  1  0.87015  0.86804  0.28978  1
 H  H30  1  0.12985  0.13196  0.71022  1
 H  H31  1  0.36844  0.37310  0.61929  1
 H  H32  1  0.62916  0.63152  0.70979  1
 H  H33  1  0.37084  0.36848  0.29021  1
 H  H34  1  0.62531  0.87646  0.53485  1
 H  H35  1  0.62531  0.62354  0.03485  1
 H  H36  1  0.37469  0.37646  0.96515  1
 H  H37  1  0.13224  0.12732  0.38111  1
 H  H38  1  0.86776  0.62732  0.11889  1
 H  H39  1  0.13224  0.37268  0.88111  1
 H  H40  1  0.87015  0.63196  0.78978  1
 S  S1  1  0.24982  0.92453  0.25003  1
 S  S2  1  0.75018  0.07547  0.74997  1
 S  S3  1  0.75018  0.42453  0.24997  1
 S  S4  1  0.24982  0.57547  0.75003  1
