CIF file written using JARVIS-Tools package.
data_ZnH4C4O4
_symmetry_space_group_name_H-M  'P1'
_cell_length_a       3.45479
_cell_length_b       4.52644
_cell_length_c       8.22664
_cell_angle_alpha    78.9707
_cell_angle_beta     72.3472
_cell_angle_gamma    96.357

_symmetry_Int_Tables_number  1
_chemical_formula_structural  ZnH4C4O4
_chemical_formula_sum  ZnH4C4O4
_cell_volume  118.3511725953628
_cell_formula_units_Z  1
loop_
  _symmetry_equiv_pos_site_id
 _symmetry_equiv_pos_as_xyz
 1  'x, y, z'
loop_
 _atom_site_type_symbol
 _atom_site_label
 _atom_site_symmetry_multiplicity
 _atom_site_fract_x
 _atom_site_fract_y
 _atom_site_fract_z
 _atom_site_fract_occupancy
 C  C1  1  0.46333  0.71985  0.53339  1
 C  C2  1  0.52261  0.81517  0.69117  1
 C  C3  1  0.44054  0.54741  0.84781  1
 C  C4  1  0.38666  0.64012  0.01857  1
 H  H1  1  0.82393  -0.03809  0.65423  1
 H  H2  1  0.30467  0.97228  0.72336  1
 H  H3  1  0.68045  0.40781  0.82353  1
 H  H4  1  0.15758  0.38846  0.86747  1
 O  O1  1  0.65060  0.93268  0.37991  1
 O  O2  1  0.22837  0.48815  0.54294  1
 O  O3  1  0.42027  0.46446  0.15250  1
 O  O4  1  0.30625  0.90751  0.02460  1
 Zn  Zn1  1  0.26521  0.01730  0.24840  1
