CIF file written using JARVIS-Tools package.
data_H5C2
_symmetry_space_group_name_H-M  'P2_1/c'
_cell_length_a       5.57616
_cell_length_b       5.05477
_cell_length_c       7.60696
_cell_angle_alpha    90
_cell_angle_beta     104.957
_cell_angle_gamma    90

_symmetry_Int_Tables_number  14
_chemical_formula_structural  H5C2
_chemical_formula_sum  H20C8
_cell_volume  207.1474687068613
_cell_formula_units_Z  4
loop_
  _symmetry_equiv_pos_site_id
 _symmetry_equiv_pos_as_xyz
 1  'x, y, z'
loop_
 _atom_site_type_symbol
 _atom_site_label
 _atom_site_symmetry_multiplicity
 _atom_site_fract_x
 _atom_site_fract_y
 _atom_site_fract_z
 _atom_site_fract_occupancy
 C  C1  1  0.72665  0.25199  0.40519  1
 C  C2  1  0.72665  0.24801  0.90519  1
 C  C3  1  0.86648  0.51492  0.44171  1
 C  C4  1  0.13352  0.48508  0.55829  1
 C  C5  1  0.13352  0.01492  0.05829  1
 C  C6  1  0.86648  0.98508  0.94171  1
 C  C7  1  0.27335  0.74801  0.59481  1
 C  C8  1  0.27335  0.75199  0.09481  1
 H  H1  1  0.13053  0.10907  0.18863  1
 H  H2  1  0.86947  0.60907  0.31137  1
 H  H3  1  0.13053  0.39093  0.68863  1
 H  H4  1  0.23472  0.15288  0.99105  1
 H  H5  1  0.86947  0.89093  0.81137  1
 H  H6  1  0.76528  0.65288  0.50895  1
 H  H7  1  0.76528  0.84712  0.00895  1
 H  H8  1  0.53837  0.22106  0.81719  1
 H  H9  1  0.17624  0.61046  0.16198  1
 H  H10  1  0.46163  0.72106  0.68281  1
 H  H11  1  0.53837  0.27894  0.31719  1
 H  H12  1  0.82376  0.38954  0.83802  1
 H  H13  1  0.17624  0.88954  0.66198  1
 H  H14  1  0.82376  0.11046  0.33802  1
 H  H15  1  0.71019  0.33954  0.03266  1
 H  H16  1  0.28981  0.66046  0.96734  1
 H  H17  1  0.28981  0.83954  0.46734  1
 H  H18  1  0.71019  0.16046  0.53266  1
 H  H19  1  0.46163  0.77894  0.18281  1
 H  H20  1  0.23472  0.34712  0.49105  1
