CIF file written using JARVIS-Tools package.
data_MoAs
_symmetry_space_group_name_H-M  'Pnma'
_cell_length_a       3.40171
_cell_length_b       6.12964
_cell_length_c       6.39382
_cell_angle_alpha    90
_cell_angle_beta     90
_cell_angle_gamma    90

_symmetry_Int_Tables_number  62
_chemical_formula_structural  MoAs
_chemical_formula_sum  Mo4As4
_cell_volume  133.31918454319245
_cell_formula_units_Z  4
loop_
  _symmetry_equiv_pos_site_id
 _symmetry_equiv_pos_as_xyz
 1  'x, y, z'
loop_
 _atom_site_type_symbol
 _atom_site_label
 _atom_site_symmetry_multiplicity
 _atom_site_fract_x
 _atom_site_fract_y
 _atom_site_fract_z
 _atom_site_fract_occupancy
 As  As1  1  0.25000  0.69166  0.07024  1
 As  As2  1  0.75000  0.30834  0.92976  1
 As  As3  1  0.25000  0.19166  0.42976  1
 As  As4  1  0.75000  0.80834  0.57024  1
 Mo  Mo1  1  0.25000  0.51446  0.68257  1
 Mo  Mo2  1  0.75000  0.48554  0.31743  1
 Mo  Mo3  1  0.25000  0.01446  0.81743  1
 Mo  Mo4  1  0.75000  0.98554  0.18257  1
