CIF file written using JARVIS-Tools package.
data_ZnH10C7O4
_symmetry_space_group_name_H-M  'P1'
_cell_length_a       4.00533
_cell_length_b       4.47992
_cell_length_c       11.2146
_cell_angle_alpha    83.0891
_cell_angle_beta     86.8696
_cell_angle_gamma    69.3952

_symmetry_Int_Tables_number  1
_chemical_formula_structural  ZnH10C7O4
_chemical_formula_sum  ZnH0C7O4
_cell_volume  186.97262604620704
_cell_formula_units_Z  1
loop_
  _symmetry_equiv_pos_site_id
 _symmetry_equiv_pos_as_xyz
 1  'x, y, z'
loop_
 _atom_site_type_symbol
 _atom_site_label
 _atom_site_symmetry_multiplicity
 _atom_site_fract_x
 _atom_site_fract_y
 _atom_site_fract_z
 _atom_site_fract_occupancy
 C  C1  1  0.80694  0.41106  0.03918  1
 C  C2  1  0.86671  0.49994  0.80942  1
 C  C3  1  0.89050  0.34046  0.69452  1
 C  C4  1  0.88771  0.56321  0.57975  1
 C  C5  1  0.90193  0.39649  0.46642  1
 C  C6  1  0.92341  0.61231  0.35417  1
 C  C7  1  -0.11816  0.26441  0.92160  1
 H  H1  1  0.66181  0.33394  0.46114  1
 H  H2  1  0.64649  0.78032  0.57794  1
 H  H3  1  0.13751  0.06455  0.92744  1
 H  H4  1  0.13515  0.12576  0.69540  1
 H  H5  1  0.66640  0.25150  0.69335  1
 H  H6  1  0.61716  0.70771  0.81032  1
 H  H7  1  0.08574  0.59487  0.81085  1
 H  H8  1  0.11670  0.64594  0.57934  1
 H  H9  1  0.67665  0.15431  0.91644  1
 H  H10  1  0.13688  0.17547  0.46771  1
 O  O1  1  0.21752  0.53660  0.29627  1
 O  O2  1  0.56666  0.69101  0.03900  1
 O  O3  1  0.65517  0.86582  0.32440  1
 O  O4  1  0.96102  0.25894  0.13552  1
 Zn  Zn1  1  0.35016  0.86332  0.19146  1
