CIF file written using JARVIS-Tools package.
data_SrCdPb
_symmetry_space_group_name_H-M  'C2/m'
_cell_length_a       6.48675
_cell_length_b       6.48675
_cell_length_c       8.08236
_cell_angle_alpha    53.2277
_cell_angle_beta     53.2276
_cell_angle_gamma    45.9757

_symmetry_Int_Tables_number  12
_chemical_formula_structural  SrCdPb
_chemical_formula_sum  Sr2Cd2Pb2
_cell_volume  185.77620838065494
_cell_formula_units_Z  2
loop_
  _symmetry_equiv_pos_site_id
 _symmetry_equiv_pos_as_xyz
 1  'x, y, z'
loop_
 _atom_site_type_symbol
 _atom_site_label
 _atom_site_symmetry_multiplicity
 _atom_site_fract_x
 _atom_site_fract_y
 _atom_site_fract_z
 _atom_site_fract_occupancy
 Cd  Cd1  1  0.84804  0.84804  0.59624  1
 Cd  Cd2  1  0.15196  0.15196  0.40376  1
 Pb  Pb1  1  0.16851  0.16851  0.78052  1
 Pb  Pb2  1  0.83149  0.83149  0.21948  1
 Sr  Sr1  1  0.45604  0.45604  0.79710  1
 Sr  Sr2  1  0.54396  0.54396  0.20290  1
