CIF file written using JARVIS-Tools package.
data_V2O3F3
_symmetry_space_group_name_H-M  'P1'
_cell_length_a       5.12566
_cell_length_b       5.25026
_cell_length_c       5.04835
_cell_angle_alpha    91.9956
_cell_angle_beta     120.524
_cell_angle_gamma    60.6483

_symmetry_Int_Tables_number  1
_chemical_formula_structural  V2O3F3
_chemical_formula_sum  V2O3F3
_cell_volume  97.76913295397597
_cell_formula_units_Z  1
loop_
  _symmetry_equiv_pos_site_id
 _symmetry_equiv_pos_as_xyz
 1  'x, y, z'
loop_
 _atom_site_type_symbol
 _atom_site_label
 _atom_site_symmetry_multiplicity
 _atom_site_fract_x
 _atom_site_fract_y
 _atom_site_fract_z
 _atom_site_fract_occupancy
 F  F1  1  0.49876  0.25276  0.63692  1
 F  F2  1  0.10852  0.75620  0.74342  1
 F  F3  1  0.50156  0.77135  0.34789  1
 O  O1  1  0.08793  0.26499  0.83310  1
 O  O2  1  0.91053  0.25170  0.24803  1
 O  O3  1  0.91604  0.75280  0.14856  1
 V  V1  1  0.97731  0.98767  0.02072  1
 V  V2  1  -0.00066  0.46253  0.52138  1
