CIF file written using JARVIS-Tools package.
data_NaNO2
_symmetry_space_group_name_H-M  'Imm2'
_cell_length_a       3.47894
_cell_length_b       4.25501
_cell_length_c       4.25501
_cell_angle_alpha    79.6397
_cell_angle_beta     65.8702
_cell_angle_gamma    65.8702

_symmetry_Int_Tables_number  44
_chemical_formula_structural  NaNO2
_chemical_formula_sum  NaNO2
_cell_volume  52.45417644167655
_cell_formula_units_Z  1
loop_
  _symmetry_equiv_pos_site_id
 _symmetry_equiv_pos_as_xyz
 1  'x, y, z'
loop_
 _atom_site_type_symbol
 _atom_site_label
 _atom_site_symmetry_multiplicity
 _atom_site_fract_x
 _atom_site_fract_y
 _atom_site_fract_z
 _atom_site_fract_occupancy
 N  N1  1  0.12476  0.87524  0.87524  1
 Na  Na1  1  0.58633  0.41367  0.41367  1
 O  O1  1  0.00000  0.80400  0.19599  1
 O  O2  1  0.00000  0.19599  0.80400  1
