CIF file written using JARVIS-Tools package.
data_AsPd4
_symmetry_space_group_name_H-M  'I4/mmm'
_cell_length_a       7.98389
_cell_length_b       7.9839
_cell_length_c       7.9839
_cell_angle_alpha    156.917
_cell_angle_beta     156.917
_cell_angle_gamma    32.8729

_symmetry_Int_Tables_number  139
_chemical_formula_structural  AsPd4
_chemical_formula_sum  AsPd4
_cell_volume  78.15881415700402
_cell_formula_units_Z  1
loop_
  _symmetry_equiv_pos_site_id
 _symmetry_equiv_pos_as_xyz
 1  'x, y, z'
loop_
 _atom_site_type_symbol
 _atom_site_label
 _atom_site_symmetry_multiplicity
 _atom_site_fract_x
 _atom_site_fract_y
 _atom_site_fract_z
 _atom_site_fract_occupancy
 As  As1  1  0.00000  0.00000  0.00000  1
 Pd  Pd1  1  0.40513  0.40513  0.00000  1
 Pd  Pd2  1  0.79859  0.79859  0.00000  1
 Pd  Pd3  1  0.20141  0.20141  -0.00000  1
 Pd  Pd4  1  0.59487  0.59487  -0.00000  1
