CIF file written using JARVIS-Tools package.
data_H4C5S
_symmetry_space_group_name_H-M  'P-1'
_cell_length_a       4.79541
_cell_length_b       6.08899
_cell_length_c       8.21329
_cell_angle_alpha    107.81
_cell_angle_beta     95.6379
_cell_angle_gamma    112.311

_symmetry_Int_Tables_number  2
_chemical_formula_structural  H4C5S
_chemical_formula_sum  H8C0S2
_cell_volume  204.88281451536074
_cell_formula_units_Z  2
loop_
  _symmetry_equiv_pos_site_id
 _symmetry_equiv_pos_as_xyz
 1  'x, y, z'
loop_
 _atom_site_type_symbol
 _atom_site_label
 _atom_site_symmetry_multiplicity
 _atom_site_fract_x
 _atom_site_fract_y
 _atom_site_fract_z
 _atom_site_fract_occupancy
 C  C1  1  0.59783  0.61970  0.03951  1
 C  C2  1  0.34604  0.88559  0.42866  1
 C  C3  1  0.19684  0.62399  0.38168  1
 C  C4  1  0.04483  0.45254  0.75005  1
 C  C5  1  0.77125  0.33153  0.61148  1
 C  C6  1  0.92325  0.50300  0.24311  1
 C  C7  1  0.86088  0.66986  0.18162  1
 C  C8  1  0.62207  0.06993  0.56449  1
 C  C9  1  0.37027  0.33584  0.95366  1
 C  C10  1  0.10722  0.28568  0.81154  1
 H  H1  1  0.69007  0.68692  0.93714  1
 H  H2  1  0.49660  0.22385  0.89822  1
 H  H3  1  0.27802  0.26862  0.05603  1
 H  H4  1  0.47150  0.73169  0.09494  1
 H  H5  1  0.68971  0.43406  0.54595  1
 H  H6  1  0.27837  0.52146  0.44721  1
 H  H7  1  0.19207  0.65770  0.80201  1
 H  H8  1  0.77600  0.29784  0.19116  1
 S  S1  1  0.14459  0.98074  0.29653  1
 S  S2  1  0.82353  0.97479  0.69663  1
