CIF file written using JARVIS-Tools package.
data_AlV6Ge
_symmetry_space_group_name_H-M  'Pm-3'
_cell_length_a       4.77394
_cell_length_b       4.77394
_cell_length_c       4.77394
_cell_angle_alpha    90
_cell_angle_beta     90
_cell_angle_gamma    90

_symmetry_Int_Tables_number  200
_chemical_formula_structural  AlV6Ge
_chemical_formula_sum  AlV6Ge
_cell_volume  108.80036755663112
_cell_formula_units_Z  1
loop_
  _symmetry_equiv_pos_site_id
 _symmetry_equiv_pos_as_xyz
 1  'x, y, z'
loop_
 _atom_site_type_symbol
 _atom_site_label
 _atom_site_symmetry_multiplicity
 _atom_site_fract_x
 _atom_site_fract_y
 _atom_site_fract_z
 _atom_site_fract_occupancy
 Al  Al1  1  0.50000  0.50000  0.50000  1
 Ge  Ge1  1  0.00000  0.00000  0.00000  1
 V  V1  1  0.00000  0.50000  0.74992  1
 V  V2  1  0.50000  0.25008  0.00000  1
 V  V3  1  0.74992  0.00000  0.50000  1
 V  V4  1  0.00000  0.50000  0.25008  1
 V  V5  1  0.50000  0.74992  0.00000  1
 V  V6  1  0.25008  0.00000  0.50000  1
