CIF file written using JARVIS-Tools package.
data_SnH8C5O4
_symmetry_space_group_name_H-M  'P1'
_cell_length_a       4.857
_cell_length_b       5.94212
_cell_length_c       6.57771
_cell_angle_alpha    108.927
_cell_angle_beta     89.8469
_cell_angle_gamma    97.8636

_symmetry_Int_Tables_number  1
_chemical_formula_structural  SnH8C5O4
_chemical_formula_sum  SnH8C5O4
_cell_volume  177.70897823623295
_cell_formula_units_Z  1
loop_
  _symmetry_equiv_pos_site_id
 _symmetry_equiv_pos_as_xyz
 1  'x, y, z'
loop_
 _atom_site_type_symbol
 _atom_site_label
 _atom_site_symmetry_multiplicity
 _atom_site_fract_x
 _atom_site_fract_y
 _atom_site_fract_z
 _atom_site_fract_occupancy
 C  C1  1  0.33035  0.35552  0.73995  1
 C  C2  1  0.23831  0.93377  0.10059  1
 C  C3  1  0.78734  0.39846  0.27128  1
 C  C4  1  0.83203  0.78910  0.57205  1
 C  C5  1  0.65131  0.62132  0.38364  1
 H  H1  1  0.45600  0.24991  0.61673  1
 H  H2  1  0.24228  0.04847  0.26817  1
 H  H3  1  0.08353  0.77321  0.07217  1
 H  H4  1  0.46543  0.50098  0.85858  1
 H  H5  1  0.44362  0.88538  0.05262  1
 H  H6  1  0.17072  0.42554  0.67042  1
 H  H7  1  0.44591  0.57194  0.43865  1
 H  H8  1  0.62395  0.72504  0.27560  1
 O  O1  1  0.88026  0.39113  0.08109  1
 O  O2  1  0.09278  0.79021  0.57752  1
 O  O3  1  0.80295  0.24334  0.35696  1
 O  O4  1  0.72404  0.94201  0.72904  1
 Sn  Sn1  1  0.12173  0.12463  0.89755  1
