CIF file written using JARVIS-Tools package.
data_H9C13NO
_symmetry_space_group_name_H-M  'P1'
_cell_length_a       3.67514
_cell_length_b       8.34636
_cell_length_c       14.6603
_cell_angle_alpha    83.069
_cell_angle_beta     93.4409
_cell_angle_gamma    82.1265

_symmetry_Int_Tables_number  1
_chemical_formula_structural  H9C13NO
_chemical_formula_sum  H8C26N2O2
_cell_volume  440.8545436746699
_cell_formula_units_Z  2
loop_
  _symmetry_equiv_pos_site_id
 _symmetry_equiv_pos_as_xyz
 1  'x, y, z'
loop_
 _atom_site_type_symbol
 _atom_site_label
 _atom_site_symmetry_multiplicity
 _atom_site_fract_x
 _atom_site_fract_y
 _atom_site_fract_z
 _atom_site_fract_occupancy
 C  C1  1  0.23929  0.39774  0.66114  1
 C  C2  1  0.65368  0.15757  0.26781  1
 C  C3  1  0.23741  0.48569  0.57476  1
 C  C4  1  0.73741  0.48569  0.07476  1
 C  C5  1  0.71727  0.92352  0.38976  1
 C  C6  1  0.21727  0.92352  0.88976  1
 C  C7  1  0.17021  0.23516  0.67211  1
 C  C8  1  0.15368  0.15757  0.76781  1
 C  C9  1  0.67021  0.23516  0.17211  1
 C  C10  1  0.33839  0.76404  0.92680  1
 C  C11  1  0.03562  0.65530  0.37403  1
 C  C12  1  0.10110  0.71502  0.28272  1
 C  C13  1  0.15545  0.41366  0.49546  1
 C  C14  1  0.65545  0.41366  0.99546  1
 C  C15  1  0.78385  0.98465  0.29911  1
 C  C16  1  0.28385  0.98465  0.79911  1
 C  C17  1  0.09573  0.16301  0.59255  1
 C  C18  1  0.59573  0.16301  0.09255  1
 C  C19  1  0.60110  0.71502  0.78272  1
 C  C20  1  0.08535  0.25125  0.50567  1
 C  C21  1  0.58535  0.25125  0.00567  1
 C  C22  1  0.98092  0.87577  0.24672  1
 C  C23  1  0.48092  0.87577  0.74672  1
 C  C24  1  0.53562  0.65530  0.87403  1
 C  C25  1  0.83839  0.76404  0.42680  1
 C  C26  1  0.73929  0.39774  0.16114  1
 H  H1  1  0.05897  0.00547  0.93009  1
 H  H2  1  0.54933  0.91887  0.67764  1
 H  H3  1  0.25649  0.42006  0.35925  1
 H  H4  1  0.75649  0.42006  0.85925  1
 H  H5  1  0.80277  0.45305  0.22261  1
 H  H6  1  0.77198  0.72045  0.49587  1
 H  H7  1  0.27198  0.72045  -0.00413  1
 H  H8  1  0.01042  0.19817  0.44429  1
 H  H9  1  0.04933  0.91887  0.17764  1
 H  H10  1  0.51042  0.19817  0.94429  1
 H  H11  1  0.02683  0.03940  0.59831  1
 H  H12  1  0.52683  0.03940  0.09831  1
 H  H13  1  0.25895  0.63343  0.24193  1
 H  H14  1  0.75895  0.63343  0.74193  1
 H  H15  1  0.30767  0.60891  0.56855  1
 H  H16  1  0.80767  0.60891  0.06855  1
 H  H17  1  0.55897  0.00547  0.43009  1
 H  H18  1  0.30277  0.45305  0.72261  1
 N  N1  1  0.65579  0.49429  0.90598  1
 N  N2  1  0.15578  0.49429  0.40598  1
 O  O1  1  0.52848  0.24737  0.32505  1
 O  O2  1  0.02848  0.24737  0.82505  1
