CIF file written using JARVIS-Tools package.
data_ZnInGaO4
_symmetry_space_group_name_H-M  'R3m'
_cell_length_a       8.91338
_cell_length_b       8.91338
_cell_length_c       8.91337
_cell_angle_alpha    21.6291
_cell_angle_beta     21.6291
_cell_angle_gamma    21.6292

_symmetry_Int_Tables_number  160
_chemical_formula_structural  ZnInGaO4
_chemical_formula_sum  ZnInGaO4
_cell_volume  84.31159919785792
_cell_formula_units_Z  1
loop_
  _symmetry_equiv_pos_site_id
 _symmetry_equiv_pos_as_xyz
 1  'x, y, z'
loop_
 _atom_site_type_symbol
 _atom_site_label
 _atom_site_symmetry_multiplicity
 _atom_site_fract_x
 _atom_site_fract_y
 _atom_site_fract_z
 _atom_site_fract_occupancy
 Ga  Ga1  1  0.78700  0.78700  0.78700  1
 In  In1  1  0.00313  0.00313  0.00313  1
 O  O1  1  0.29527  0.29527  0.29527  1
 O  O2  1  0.71124  0.71124  0.71124  1
 O  O3  1  0.12083  0.12083  0.12083  1
 O  O4  1  0.86347  0.86347  0.86347  1
 Zn  Zn1  1  0.21905  0.21905  0.21905  1
