CIF file written using JARVIS-Tools package.
data_Ce2TeO2
_symmetry_space_group_name_H-M  'I4/mmm'
_cell_length_a       4.03724
_cell_length_b       4.03724
_cell_length_c       6.95636
_cell_angle_alpha    106.869
_cell_angle_beta     106.869
_cell_angle_gamma    90

_symmetry_Int_Tables_number  139
_chemical_formula_structural  Ce2TeO2
_chemical_formula_sum  Ce2TeO2
_cell_volume  103.39669852031899
_cell_formula_units_Z  1
loop_
  _symmetry_equiv_pos_site_id
 _symmetry_equiv_pos_as_xyz
 1  'x, y, z'
loop_
 _atom_site_type_symbol
 _atom_site_label
 _atom_site_symmetry_multiplicity
 _atom_site_fract_x
 _atom_site_fract_y
 _atom_site_fract_z
 _atom_site_fract_occupancy
 Ce  Ce1  1  0.65500  0.65500  0.30999  1
 Ce  Ce2  1  0.34500  0.34500  0.69001  1
 O  O1  1  0.25000  0.75000  0.50000  1
 O  O2  1  0.75000  0.25000  0.50000  1
 Te  Te1  1  0.00000  0.00000  0.00000  1
