CIF file written using JARVIS-Tools package.
data_Ni4GePt5
_symmetry_space_group_name_H-M  'P4/mmm'
_cell_length_a       2.79414
_cell_length_b       2.79414
_cell_length_c       17.7548
_cell_angle_alpha    90
_cell_angle_beta     90
_cell_angle_gamma    90

_symmetry_Int_Tables_number  123
_chemical_formula_structural  Ni4GePt5
_chemical_formula_sum  Ni4GePt5
_cell_volume  138.61533425900623
_cell_formula_units_Z  1
loop_
  _symmetry_equiv_pos_site_id
 _symmetry_equiv_pos_as_xyz
 1  'x, y, z'
loop_
 _atom_site_type_symbol
 _atom_site_label
 _atom_site_symmetry_multiplicity
 _atom_site_fract_x
 _atom_site_fract_y
 _atom_site_fract_z
 _atom_site_fract_occupancy
 Ge  Ge1  1  0.00000  0.00000  0.00000  1
 Ni  Ni1  1  0.00000  0.00000  0.20661  1
 Ni  Ni2  1  0.00000  0.00000  0.40167  1
 Ni  Ni3  1  0.00000  0.00000  0.59833  1
 Ni  Ni4  1  0.00000  0.00000  0.79339  1
 Pt  Pt1  1  0.50000  0.50000  0.10457  1
 Pt  Pt2  1  0.50000  0.50000  0.30364  1
 Pt  Pt3  1  0.50000  0.50000  0.50000  1
 Pt  Pt4  1  0.50000  0.50000  0.69636  1
 Pt  Pt5  1  0.50000  0.50000  0.89543  1
