CIF file written using JARVIS-Tools package.
data_SiPt
_symmetry_space_group_name_H-M  'Pnma'
_cell_length_a       3.65386
_cell_length_b       5.71338
_cell_length_c       5.98556
_cell_angle_alpha    90
_cell_angle_beta     90
_cell_angle_gamma    90

_symmetry_Int_Tables_number  62
_chemical_formula_structural  SiPt
_chemical_formula_sum  Si4Pt4
_cell_volume  124.95374518345051
_cell_formula_units_Z  4
loop_
  _symmetry_equiv_pos_site_id
 _symmetry_equiv_pos_as_xyz
 1  'x, y, z'
loop_
 _atom_site_type_symbol
 _atom_site_label
 _atom_site_symmetry_multiplicity
 _atom_site_fract_x
 _atom_site_fract_y
 _atom_site_fract_z
 _atom_site_fract_occupancy
 Pt  Pt1  1  0.25000  0.49048  0.69470  1
 Pt  Pt2  1  0.75000  0.50952  0.30530  1
 Pt  Pt3  1  0.25000  0.99048  0.80530  1
 Pt  Pt4  1  0.75000  0.00952  0.19470  1
 Si  Si1  1  0.25000  0.67986  0.08434  1
 Si  Si2  1  0.75000  0.32014  0.91566  1
 Si  Si3  1  0.25000  0.17986  0.41566  1
 Si  Si4  1  0.75000  0.82014  0.58434  1
