CIF file written using JARVIS-Tools package.
data_Ni6SnSe2
_symmetry_space_group_name_H-M  'I4mm'
_cell_length_a       9.73054
_cell_length_b       9.73054
_cell_length_c       9.73054
_cell_angle_alpha    157.995
_cell_angle_beta     157.995
_cell_angle_gamma    31.3174

_symmetry_Int_Tables_number  107
_chemical_formula_structural  Ni6SnSe2
_chemical_formula_sum  Ni6SnSe2
_cell_volume  129.25323597811567
_cell_formula_units_Z  1
loop_
  _symmetry_equiv_pos_site_id
 _symmetry_equiv_pos_as_xyz
 1  'x, y, z'
loop_
 _atom_site_type_symbol
 _atom_site_label
 _atom_site_symmetry_multiplicity
 _atom_site_fract_x
 _atom_site_fract_y
 _atom_site_fract_z
 _atom_site_fract_occupancy
 Ni  Ni1  1  0.50139  0.50139  -0.00000  1
 Ni  Ni2  1  0.90002  0.40002  0.50000  1
 Ni  Ni3  1  0.40002  0.90002  0.50000  1
 Ni  Ni4  1  0.10214  0.60214  0.50000  1
 Ni  Ni5  1  0.60214  0.10214  0.50000  1
 Ni  Ni6  1  0.80077  0.80077  0.00000  1
 Se  Se1  1  0.31631  0.31631  0.00000  1
 Se  Se2  1  0.67819  0.67819  -0.00000  1
 Sn  Sn1  1  0.00052  0.00052  -0.00000  1
