CIF file written using JARVIS-Tools package.
data_BiPd6Se
_symmetry_space_group_name_H-M  'R-3m'
_cell_length_a       7.89626
_cell_length_b       7.89627
_cell_length_c       7.89627
_cell_angle_alpha    33.8241
_cell_angle_beta     33.824
_cell_angle_gamma    33.8241

_symmetry_Int_Tables_number  166
_chemical_formula_structural  BiPd6Se
_chemical_formula_sum  BiPd6Se
_cell_volume  135.94282713181886
_cell_formula_units_Z  1
loop_
  _symmetry_equiv_pos_site_id
 _symmetry_equiv_pos_as_xyz
 1  'x, y, z'
loop_
 _atom_site_type_symbol
 _atom_site_label
 _atom_site_symmetry_multiplicity
 _atom_site_fract_x
 _atom_site_fract_y
 _atom_site_fract_z
 _atom_site_fract_occupancy
 Bi  Bi1  1  0.00000  0.00000  0.00000  1
 Pd  Pd1  1  0.61634  0.61634  0.61634  1
 Pd  Pd2  1  0.13242  0.13242  0.13242  1
 Pd  Pd3  1  0.86758  0.86758  0.86758  1
 Pd  Pd4  1  0.38366  0.38366  0.38366  1
 Pd  Pd5  1  0.25586  0.25586  0.25586  1
 Pd  Pd6  1  0.74414  0.74414  0.74414  1
 Se  Se1  1  0.50000  0.50000  0.50000  1
