CIF file written using JARVIS-Tools package.
data_RbNaCd3O4
_symmetry_space_group_name_H-M  'Cm'
_cell_length_a       6.81007
_cell_length_b       6.81006
_cell_length_c       9.16462
_cell_angle_alpha    47.0626
_cell_angle_beta     47.0627
_cell_angle_gamma    31.4156

_symmetry_Int_Tables_number  8
_chemical_formula_structural  RbNaCd3O4
_chemical_formula_sum  RbNaCd3O4
_cell_volume  156.53924150103418
_cell_formula_units_Z  1
loop_
  _symmetry_equiv_pos_site_id
 _symmetry_equiv_pos_as_xyz
 1  'x, y, z'
loop_
 _atom_site_type_symbol
 _atom_site_label
 _atom_site_symmetry_multiplicity
 _atom_site_fract_x
 _atom_site_fract_y
 _atom_site_fract_z
 _atom_site_fract_occupancy
 Cd  Cd1  1  0.80858  0.80858  0.55350  1
 Cd  Cd2  1  0.37934  0.37934  0.80174  1
 Cd  Cd3  1  0.62940  0.62940  0.19441  1
 Na  Na1  1  0.18030  0.18030  0.45126  1
 O  O1  1  0.24017  0.24017  0.15291  1
 O  O2  1  0.76571  0.76571  0.83302  1
 O  O3  1  0.59734  0.59734  0.65269  1
 O  O4  1  0.40400  0.40400  0.35687  1
 Rb  Rb1  1  0.99516  0.99516  0.00359  1
