CIF file written using JARVIS-Tools package.
data_MnSnF6
_symmetry_space_group_name_H-M  'R-3'
_cell_length_a       5.68471
_cell_length_b       5.68471
_cell_length_c       5.68471
_cell_angle_alpha    54.2792
_cell_angle_beta     54.2792
_cell_angle_gamma    54.2792

_symmetry_Int_Tables_number  148
_chemical_formula_structural  MnSnF6
_chemical_formula_sum  MnSnF6
_cell_volume  112.56042600492731
_cell_formula_units_Z  1
loop_
  _symmetry_equiv_pos_site_id
 _symmetry_equiv_pos_as_xyz
 1  'x, y, z'
loop_
 _atom_site_type_symbol
 _atom_site_label
 _atom_site_symmetry_multiplicity
 _atom_site_fract_x
 _atom_site_fract_y
 _atom_site_fract_z
 _atom_site_fract_occupancy
 F  F1  1  0.38400  0.75603  0.10265  1
 F  F2  1  0.75603  0.10265  0.38400  1
 F  F3  1  0.89735  0.61600  0.24397  1
 F  F4  1  0.24397  0.89735  0.61600  1
 F  F5  1  0.61600  0.24397  0.89735  1
 F  F6  1  0.10265  0.38400  0.75603  1
 Mn  Mn1  1  0.50000  0.50000  0.50000  1
 Sn  Sn1  1  0.00000  0.00000  0.00000  1
