CIF file written using JARVIS-Tools package.
data_HoRe2SiC
_symmetry_space_group_name_H-M  'Cmcm'
_cell_length_a       5.82171
_cell_length_b       5.82171
_cell_length_c       7.28694
_cell_angle_alpha    90
_cell_angle_beta     90
_cell_angle_gamma    140.513

_symmetry_Int_Tables_number  63
_chemical_formula_structural  HoRe2SiC
_chemical_formula_sum  Ho2Re4Si2C2
_cell_volume  157.04942957886644
_cell_formula_units_Z  2
loop_
  _symmetry_equiv_pos_site_id
 _symmetry_equiv_pos_as_xyz
 1  'x, y, z'
loop_
 _atom_site_type_symbol
 _atom_site_label
 _atom_site_symmetry_multiplicity
 _atom_site_fract_x
 _atom_site_fract_y
 _atom_site_fract_z
 _atom_site_fract_occupancy
 C  C1  1  0.00000  0.00000  0.00000  1
 C  C2  1  0.00000  0.00000  0.50000  1
 Ho  Ho1  1  0.54230  0.45770  0.25000  1
 Ho  Ho2  1  0.45770  0.54230  0.75000  1
 Re  Re1  1  0.82709  0.17291  0.06064  1
 Re  Re2  1  0.17291  0.82709  0.93936  1
 Re  Re3  1  0.17291  0.82709  0.56064  1
 Re  Re4  1  0.82709  0.17291  0.43936  1
 Si  Si1  1  0.26520  0.73480  0.25000  1
 Si  Si2  1  0.73480  0.26520  0.75000  1
