CIF file written using JARVIS-Tools package.
data_Sb2S3
_symmetry_space_group_name_H-M  'Pnma'
_cell_length_a       3.88972
_cell_length_b       11.1989
_cell_length_c       11.4727
_cell_angle_alpha    90
_cell_angle_beta     90
_cell_angle_gamma    90

_symmetry_Int_Tables_number  62
_chemical_formula_structural  Sb2S3
_chemical_formula_sum  Sb8S2
_cell_volume  499.75903583397064
_cell_formula_units_Z  4
loop_
  _symmetry_equiv_pos_site_id
 _symmetry_equiv_pos_as_xyz
 1  'x, y, z'
loop_
 _atom_site_type_symbol
 _atom_site_label
 _atom_site_symmetry_multiplicity
 _atom_site_fract_x
 _atom_site_fract_y
 _atom_site_fract_z
 _atom_site_fract_occupancy
 S  S1  1  0.25000  0.19207  0.29207  1
 S  S2  1  0.75000  0.05933  0.87584  1
 S  S3  1  0.75000  0.69207  0.20793  1
 S  S4  1  0.25000  0.55933  0.62416  1
 S  S5  1  0.75000  0.44067  0.37584  1
 S  S6  1  0.25000  0.94067  0.12416  1
 S  S7  1  0.25000  0.62515  0.95021  1
 S  S8  1  0.25000  0.87485  0.45021  1
 S  S9  1  0.75000  0.12515  0.54979  1
 S  S10  1  0.25000  0.30793  0.79207  1
 S  S11  1  0.75000  0.80793  0.70793  1
 S  S12  1  0.75000  0.37485  0.04979  1
 Sb  Sb1  1  0.25000  0.32676  0.47433  1
 Sb  Sb2  1  0.75000  0.67324  0.52567  1
 Sb  Sb3  1  0.75000  0.82676  0.02567  1
 Sb  Sb4  1  0.25000  0.17324  0.97433  1
 Sb  Sb5  1  0.75000  0.03531  0.34975  1
 Sb  Sb6  1  0.25000  0.96469  0.65025  1
 Sb  Sb7  1  0.25000  0.53531  0.15025  1
 Sb  Sb8  1  0.75000  0.46469  0.84975  1
