CIF file written using JARVIS-Tools package.
data_H9C13SN
_symmetry_space_group_name_H-M  'C2'
_cell_length_a       4.52317
_cell_length_b       6.42943
_cell_length_c       8.85071
_cell_angle_alpha    91.1691
_cell_angle_beta     86.6769
_cell_angle_gamma    110.53

_symmetry_Int_Tables_number  5
_chemical_formula_structural  H9C13SN
_chemical_formula_sum  H9C3SN
_cell_volume  240.6386283511807
_cell_formula_units_Z  1
loop_
  _symmetry_equiv_pos_site_id
 _symmetry_equiv_pos_as_xyz
 1  'x, y, z'
loop_
 _atom_site_type_symbol
 _atom_site_label
 _atom_site_symmetry_multiplicity
 _atom_site_fract_x
 _atom_site_fract_y
 _atom_site_fract_z
 _atom_site_fract_occupancy
 C  C1  1  0.55555  0.38697  0.29024  1
 C  C2  1  0.57100  0.60053  0.33951  1
 C  C3  1  0.76497  0.71927  0.46272  1
 C  C4  1  0.18124  0.61074  0.79223  1
 C  C5  1  0.11135  0.70773  0.66805  1
 C  C6  1  0.24003  0.61100  0.13335  1
 C  C7  1  0.97919  0.39851  0.84183  1
 C  C8  1  0.40703  0.70800  0.25744  1
 C  C9  1  0.22981  0.39858  0.08387  1
 C  C10  1  0.38905  0.28859  0.16494  1
 C  C11  1  0.64219  0.38705  0.63534  1
 C  C12  1  0.84013  0.60045  0.58598  1
 C  C13  1  0.71023  0.28867  0.76074  1
 H  H1  1  0.55045  0.12472  0.79844  1
 H  H2  1  0.42428  0.29914  0.57924  1
 H  H3  1  0.38489  0.12450  0.12731  1
 H  H4  1  0.40509  0.86888  0.29786  1
 H  H5  1  0.40259  0.69254  0.84729  1
 H  H6  1  0.27405  0.86845  0.62756  1
 H  H7  1  0.10045  0.69296  0.07829  1
 H  H8  1  0.96734  0.12449  0.96303  1
 H  H9  1  0.68562  0.29891  0.34634  1
 N  N1  1  0.05215  0.29392  0.96291  1
 S  S1  1  0.90372  0.99669  0.46263  1
