CIF file written using JARVIS-Tools package.
data_KSbF4
_symmetry_space_group_name_H-M  'Pmmn'
_cell_length_a       4.4897
_cell_length_b       11.6925
_cell_length_c       16.1958
_cell_angle_alpha    90
_cell_angle_beta     90
_cell_angle_gamma    90

_symmetry_Int_Tables_number  59
_chemical_formula_structural  KSbF4
_chemical_formula_sum  K8Sb8F32
_cell_volume  850.2141428727693
_cell_formula_units_Z  8
loop_
  _symmetry_equiv_pos_site_id
 _symmetry_equiv_pos_as_xyz
 1  'x, y, z'
loop_
 _atom_site_type_symbol
 _atom_site_label
 _atom_site_symmetry_multiplicity
 _atom_site_fract_x
 _atom_site_fract_y
 _atom_site_fract_z
 _atom_site_fract_occupancy
 F  F1  1  0.12516  0.86714  0.59467  1
 F  F2  1  0.87484  0.36714  0.09467  1
 F  F3  1  0.87484  0.63286  0.90533  1
 F  F4  1  0.48407  0.37980  0.25795  1
 F  F5  1  0.48407  0.37980  0.74205  1
 F  F6  1  0.81988  0.35074  0.40419  1
 F  F7  1  0.96199  0.50000  0.28841  1
 F  F8  1  0.18012  0.85074  0.09581  1
 F  F9  1  0.18012  0.14926  0.90419  1
 F  F10  1  0.18012  0.14926  0.09581  1
 F  F11  1  0.87484  0.36714  0.90533  1
 F  F12  1  0.18012  0.85074  0.90419  1
 F  F13  1  0.81988  0.35074  0.59581  1
 F  F14  1  0.12516  0.86714  0.40533  1
 F  F15  1  0.96199  0.50000  0.71159  1
 F  F16  1  0.03801  0.00000  0.21159  1
 F  F17  1  0.03801  0.00000  0.78841  1
 F  F18  1  0.66903  0.17024  0.50000  1
 F  F19  1  0.66903  0.82976  0.50000  1
 F  F20  1  0.33097  0.67024  0.00000  1
 F  F21  1  0.33097  0.32976  0.00000  1
 F  F22  1  0.81988  0.64926  0.40419  1
 F  F23  1  0.87484  0.63286  0.09467  1
 F  F24  1  0.12516  0.13286  0.59467  1
 F  F25  1  0.12516  0.13286  0.40533  1
 F  F26  1  0.48407  0.62020  0.25795  1
 F  F27  1  0.51593  0.87980  0.75795  1
 F  F28  1  0.51593  0.12020  0.24205  1
 F  F29  1  0.51593  0.12020  0.75795  1
 F  F30  1  0.51593  0.87980  0.24205  1
 F  F31  1  0.48407  0.62020  0.74205  1
 F  F32  1  0.81988  0.64926  0.59581  1
 K  K1  1  0.61872  0.00000  0.38151  1
 K  K2  1  0.38128  0.50000  0.88151  1
 K  K3  1  0.38128  0.50000  0.11849  1
 K  K4  1  0.00000  0.25000  0.75000  1
 K  K5  1  0.00000  0.75000  0.25000  1
 K  K6  1  0.00000  0.75000  0.75000  1
 K  K7  1  0.00000  0.25000  0.25000  1
 K  K8  1  0.61872  0.00000  0.61849  1
 Sb  Sb1  1  0.93252  0.74773  0.00000  1
 Sb  Sb2  1  0.93252  0.25227  0.00000  1
 Sb  Sb3  1  0.57102  0.50000  0.65422  1
 Sb  Sb4  1  0.42898  0.00000  0.15422  1
 Sb  Sb5  1  0.42898  0.00000  0.84578  1
 Sb  Sb6  1  0.57102  0.50000  0.34578  1
 Sb  Sb7  1  0.06748  0.75227  0.50000  1
 Sb  Sb8  1  0.06748  0.24773  0.50000  1
