CIF file written using JARVIS-Tools package.
data_HCF
_symmetry_space_group_name_H-M  'P2_1/c'
_cell_length_a       5.75117
_cell_length_b       5.08911
_cell_length_c       7.06193
_cell_angle_alpha    81.1176
_cell_angle_beta     90.0002
_cell_angle_gamma    90.0003

_symmetry_Int_Tables_number  14
_chemical_formula_structural  HCF
_chemical_formula_sum  H8C8F8
_cell_volume  204.2124326200163
_cell_formula_units_Z  8
loop_
  _symmetry_equiv_pos_site_id
 _symmetry_equiv_pos_as_xyz
 1  'x, y, z'
loop_
 _atom_site_type_symbol
 _atom_site_label
 _atom_site_symmetry_multiplicity
 _atom_site_fract_x
 _atom_site_fract_y
 _atom_site_fract_z
 _atom_site_fract_occupancy
 C  C1  1  0.44725  0.36350  0.54546  1
 C  C2  1  0.94903  0.12774  0.96210  1
 C  C3  1  0.55163  0.62775  0.46209  1
 C  C4  1  0.55342  0.13651  0.45455  1
 C  C5  1  0.44903  0.87226  0.53790  1
 C  C6  1  0.94725  0.63650  0.95454  1
 C  C7  1  0.05343  0.86349  0.04546  1
 C  C8  1  0.05163  0.37225  0.03791  1
 F  F1  1  0.47456  0.82556  0.73689  1
 F  F2  1  0.21026  0.86982  0.50465  1
 F  F3  1  0.29040  0.36981  0.00466  1
 F  F4  1  0.02609  0.32557  0.23689  1
 F  F5  1  0.71026  0.13017  0.99536  1
 F  F6  1  0.97456  0.17444  0.76311  1
 F  F7  1  0.52608  0.67443  0.26311  1
 F  F8  1  0.79040  0.63020  0.49534  1
 H  H1  1  0.52334  0.16655  0.29941  1
 H  H2  1  0.74156  0.12400  0.47914  1
 H  H3  1  0.47735  0.33346  0.70060  1
 H  H4  1  0.25911  0.37600  0.52087  1
 H  H5  1  0.24157  0.87601  0.02085  1
 H  H6  1  0.02335  0.83345  0.20059  1
 H  H7  1  0.75911  0.62400  0.97914  1
 H  H8  1  0.97734  0.66654  0.79941  1
