CIF file written using JARVIS-Tools package.
data_LiEu3
_symmetry_space_group_name_H-M  'P6_3/mmc'
_cell_length_a       7.01891
_cell_length_b       7.01891
_cell_length_c       5.51011
_cell_angle_alpha    90
_cell_angle_beta     90
_cell_angle_gamma    120

_symmetry_Int_Tables_number  194
_chemical_formula_structural  LiEu3
_chemical_formula_sum  Li2Eu6
_cell_volume  235.08795038373617
_cell_formula_units_Z  2
loop_
  _symmetry_equiv_pos_site_id
 _symmetry_equiv_pos_as_xyz
 1  'x, y, z'
loop_
 _atom_site_type_symbol
 _atom_site_label
 _atom_site_symmetry_multiplicity
 _atom_site_fract_x
 _atom_site_fract_y
 _atom_site_fract_z
 _atom_site_fract_occupancy
 Eu  Eu1  1  0.83020  0.16980  0.75000  1
 Eu  Eu2  1  0.33961  0.16980  0.75000  1
 Eu  Eu3  1  0.83020  0.66039  0.75000  1
 Eu  Eu4  1  0.16980  0.83020  0.25000  1
 Eu  Eu5  1  0.66039  0.83020  0.25000  1
 Eu  Eu6  1  0.16980  0.33961  0.25000  1
 Li  Li1  1  0.66667  0.33333  0.25000  1
 Li  Li2  1  0.33333  0.66667  0.75000  1
