CIF file written using JARVIS-Tools package.
data_GeSb2Te4
_symmetry_space_group_name_H-M  'R3m'
_cell_length_a       14.1482
_cell_length_b       14.1482
_cell_length_c       14.1482
_cell_angle_alpha    17.5341
_cell_angle_beta     17.534
_cell_angle_gamma    17.5341

_symmetry_Int_Tables_number  160
_chemical_formula_structural  GeSb2Te4
_chemical_formula_sum  GeSb2Te4
_cell_volume  224.35362321207649
_cell_formula_units_Z  1
loop_
  _symmetry_equiv_pos_site_id
 _symmetry_equiv_pos_as_xyz
 1  'x, y, z'
loop_
 _atom_site_type_symbol
 _atom_site_label
 _atom_site_symmetry_multiplicity
 _atom_site_fract_x
 _atom_site_fract_y
 _atom_site_fract_z
 _atom_site_fract_occupancy
 Ge  Ge1  1  0.43018  0.43018  0.43018  1
 Sb  Sb1  1  0.57237  0.57237  0.57237  1
 Sb  Sb2  1  0.00232  0.00232  0.00232  1
 Te  Te1  1  0.13085  0.13085  0.13085  1
 Te  Te2  1  0.86457  0.86457  0.86457  1
 Te  Te3  1  0.28857  0.28857  0.28857  1
 Te  Te4  1  0.71113  0.71113  0.71113  1
