CIF file written using JARVIS-Tools package.
data_TlSbS2
_symmetry_space_group_name_H-M  'I4_1/amd'
_cell_length_a       8.30404
_cell_length_b       11.0196
_cell_length_c       7.244
_cell_angle_alpha    29.1519
_cell_angle_beta     55.0286
_cell_angle_gamma    41.0996

_symmetry_Int_Tables_number  141
_chemical_formula_structural  TlSbS2
_chemical_formula_sum  Tl2Sb2S4
_cell_volume  204.66510261424676
_cell_formula_units_Z  2
loop_
  _symmetry_equiv_pos_site_id
 _symmetry_equiv_pos_as_xyz
 1  'x, y, z'
loop_
 _atom_site_type_symbol
 _atom_site_label
 _atom_site_symmetry_multiplicity
 _atom_site_fract_x
 _atom_site_fract_y
 _atom_site_fract_z
 _atom_site_fract_occupancy
 S  S1  1  0.01981  0.50000  0.46038  1
 S  S2  1  0.73019  0.00000  0.53962  1
 S  S3  1  0.48019  0.50000  0.53962  1
 S  S4  1  0.26981  -0.00000  0.46038  1
 Sb  Sb1  1  0.50000  0.00000  -0.00000  1
 Sb  Sb2  1  0.25000  0.50000  -0.00000  1
 Tl  Tl1  1  0.00000  0.00000  0.00000  1
 Tl  Tl2  1  0.75000  0.50000  -0.00000  1
