CIF file written using JARVIS-Tools package.
data_HfH8C6O4
_symmetry_space_group_name_H-M  'P1'
_cell_length_a       3.82385
_cell_length_b       4.67944
_cell_length_c       9.78766
_cell_angle_alpha    83.9809
_cell_angle_beta     102.645
_cell_angle_gamma    71.2249

_symmetry_Int_Tables_number  1
_chemical_formula_structural  HfH8C6O4
_chemical_formula_sum  HfH8C6O4
_cell_volume  158.8544180564244
_cell_formula_units_Z  1
loop_
  _symmetry_equiv_pos_site_id
 _symmetry_equiv_pos_as_xyz
 1  'x, y, z'
loop_
 _atom_site_type_symbol
 _atom_site_label
 _atom_site_symmetry_multiplicity
 _atom_site_fract_x
 _atom_site_fract_y
 _atom_site_fract_z
 _atom_site_fract_occupancy
 C  C1  1  0.53155  0.40964  0.92970  1
 C  C2  1  0.53798  0.40373  0.08473  1
 C  C3  1  0.24001  0.69589  0.82587  1
 C  C4  1  0.25150  0.70559  0.66995  1
 C  C5  1  0.25349  0.43943  0.45569  1
 C  C6  1  0.25748  0.41476  0.61240  1
 H  H1  1  0.82703  0.37309  0.92325  1
 H  H2  1  0.48627  0.19842  0.90372  1
 H  H3  1  0.28441  0.90074  0.86091  1
 H  H4  1  0.95118  0.71709  0.83479  1
 H  H5  1  0.51968  0.22073  0.67186  1
 H  H6  1  0.01187  0.35035  0.62715  1
 H  H7  1  0.00195  0.90019  0.60266  1
 H  H8  1  0.50403  0.75691  0.65580  1
 Hf  Hf1  1  0.29745  0.82744  0.31251  1
 O  O1  1  0.32641  0.64095  0.12040  1
 O  O2  1  0.31674  0.15382  0.41710  1
 O  O3  1  0.89091  0.65742  0.36372  1
 O  O4  1  0.74643  0.15694  0.17340  1
