CIF file written using JARVIS-Tools package.
data_SbN
_symmetry_space_group_name_H-M  'Pca2_1'
_cell_length_a       5.40645
_cell_length_b       5.73628
_cell_length_c       5.08587
_cell_angle_alpha    90
_cell_angle_beta     90
_cell_angle_gamma    90

_symmetry_Int_Tables_number  29
_chemical_formula_structural  SbN
_chemical_formula_sum  Sb4N4
_cell_volume  157.72757369753117
_cell_formula_units_Z  4
loop_
  _symmetry_equiv_pos_site_id
 _symmetry_equiv_pos_as_xyz
 1  'x, y, z'
loop_
 _atom_site_type_symbol
 _atom_site_label
 _atom_site_symmetry_multiplicity
 _atom_site_fract_x
 _atom_site_fract_y
 _atom_site_fract_z
 _atom_site_fract_occupancy
 N  N1  1  0.60374  0.87836  0.56345  1
 N  N2  1  0.39626  0.12164  0.06345  1
 N  N3  1  0.89626  0.87836  0.06345  1
 N  N4  1  0.10374  0.12164  0.56345  1
 Sb  Sb1  1  0.53378  0.79013  0.16967  1
 Sb  Sb2  1  0.46622  0.20987  0.66967  1
 Sb  Sb3  1  0.96622  0.79013  0.66967  1
 Sb  Sb4  1  0.03378  0.20987  0.16967  1
