CIF file written using JARVIS-Tools package.
data_Zr2HN2Cl2
_symmetry_space_group_name_H-M  'R3m'
_cell_length_a       9.22233
_cell_length_b       9.22233
_cell_length_c       9.22234
_cell_angle_alpha    23.6333
_cell_angle_beta     23.6333
_cell_angle_gamma    23.6333

_symmetry_Int_Tables_number  160
_chemical_formula_structural  Zr2HN2Cl2
_chemical_formula_sum  Zr2HN2Cl2
_cell_volume  110.71233362859708
_cell_formula_units_Z  1
loop_
  _symmetry_equiv_pos_site_id
 _symmetry_equiv_pos_as_xyz
 1  'x, y, z'
loop_
 _atom_site_type_symbol
 _atom_site_label
 _atom_site_symmetry_multiplicity
 _atom_site_fract_x
 _atom_site_fract_y
 _atom_site_fract_z
 _atom_site_fract_occupancy
 Cl  Cl1  1  0.61324  0.61324  0.61324  1
 Cl  Cl2  1  0.38748  0.38748  0.38748  1
 H  H1  1  0.75943  0.75943  0.75943  1
 N  N1  1  0.79807  0.79807  0.79807  1
 N  N2  1  0.20120  0.20120  0.20120  1
 Zr  Zr1  1  0.88145  0.88145  0.88145  1
 Zr  Zr2  1  0.12424  0.12424  0.12424  1
