CIF file written using JARVIS-Tools package.
data_Fe3Ni3Pt2
_symmetry_space_group_name_H-M  'Pmmm'
_cell_length_a       3.67844
_cell_length_b       3.70605
_cell_length_c       7.33316
_cell_angle_alpha    90
_cell_angle_beta     90
_cell_angle_gamma    90

_symmetry_Int_Tables_number  47
_chemical_formula_structural  Fe3Ni3Pt2
_chemical_formula_sum  Fe3Ni3Pt2
_cell_volume  99.96928181490472
_cell_formula_units_Z  1
loop_
  _symmetry_equiv_pos_site_id
 _symmetry_equiv_pos_as_xyz
 1  'x, y, z'
loop_
 _atom_site_type_symbol
 _atom_site_label
 _atom_site_symmetry_multiplicity
 _atom_site_fract_x
 _atom_site_fract_y
 _atom_site_fract_z
 _atom_site_fract_occupancy
 Fe  Fe1  1  0.50000  0.50000  0.25036  1
 Fe  Fe2  1  0.50000  0.50000  0.74964  1
 Fe  Fe3  1  0.00000  0.50000  0.50000  1
 Ni  Ni1  1  0.00000  0.50000  0.00000  1
 Ni  Ni2  1  0.50000  0.00000  0.50000  1
 Ni  Ni3  1  0.50000  0.00000  0.00000  1
 Pt  Pt1  1  0.00000  0.00000  0.24891  1
 Pt  Pt2  1  0.00000  0.00000  0.75109  1
