CIF file written using JARVIS-Tools package.
data_FeNiP2S6
_symmetry_space_group_name_H-M  'C2'
_cell_length_a       5.80128
_cell_length_b       5.80128
_cell_length_c       6.44443
_cell_angle_alpha    81.1822
_cell_angle_beta     81.1823
_cell_angle_gamma    119.936

_symmetry_Int_Tables_number  5
_chemical_formula_structural  FeNiP2S6
_chemical_formula_sum  FeNiP2S6
_cell_volume  178.91733678505767
_cell_formula_units_Z  1
loop_
  _symmetry_equiv_pos_site_id
 _symmetry_equiv_pos_as_xyz
 1  'x, y, z'
loop_
 _atom_site_type_symbol
 _atom_site_label
 _atom_site_symmetry_multiplicity
 _atom_site_fract_x
 _atom_site_fract_y
 _atom_site_fract_z
 _atom_site_fract_occupancy
 Fe  Fe1  1  0.66679  0.33321  0.00000  1
 Ni  Ni1  1  0.33282  0.66718  -0.00000  1
 P  P1  1  0.06153  0.06153  0.82282  1
 P  P2  1  0.93847  0.93847  0.17718  1
 S  S1  1  0.73405  0.72132  0.76311  1
 S  S2  1  0.27868  0.26595  0.23689  1
 S  S3  1  0.06790  0.42831  0.76296  1
 S  S4  1  0.44126  0.09318  0.76433  1
 S  S5  1  0.90682  0.55874  0.23567  1
 S  S6  1  0.57169  0.93210  0.23704  1
