CIF file written using JARVIS-Tools package.
data_CdH14C9O4
_symmetry_space_group_name_H-M  'P1'
_cell_length_a       3.80423
_cell_length_b       4.36201
_cell_length_c       13.6354
_cell_angle_alpha    84.9784
_cell_angle_beta     82.7025
_cell_angle_gamma    79.0311

_symmetry_Int_Tables_number  1
_chemical_formula_structural  CdH14C9O4
_chemical_formula_sum  CdH4C9O4
_cell_volume  219.8671591120061
_cell_formula_units_Z  1
loop_
  _symmetry_equiv_pos_site_id
 _symmetry_equiv_pos_as_xyz
 1  'x, y, z'
loop_
 _atom_site_type_symbol
 _atom_site_label
 _atom_site_symmetry_multiplicity
 _atom_site_fract_x
 _atom_site_fract_y
 _atom_site_fract_z
 _atom_site_fract_occupancy
 C  C1  1  0.84969  0.67349  0.32668  1
 C  C2  1  0.30498  0.52829  0.69305  1
 C  C3  1  0.49463  0.40468  0.59599  1
 C  C4  1  0.74652  0.46455  0.41777  1
 C  C5  1  0.57283  0.63848  0.50966  1
 C  C6  1  0.02712  0.48285  0.23862  1
 C  C7  1  0.13765  0.67898  0.14513  1
 C  C8  1  0.33480  0.47175  0.06296  1
 C  C9  1  0.46822  0.64537  0.96912  1
 Cd  Cd1  1  0.85600  0.04240  0.83551  1
 H  H1  1  0.75301  0.78498  0.53057  1
 H  H2  1  0.32153  0.25066  0.57503  1
 H  H3  1  0.74281  0.24404  0.61247  1
 H  H4  1  0.84414  0.33273  0.22111  1
 H  H5  1  0.56763  0.30958  0.08913  1
 H  H6  1  0.15931  0.32340  0.04086  1
 H  H7  1  0.32247  0.79708  0.49326  1
 H  H8  1  0.98997  0.29925  0.43683  1
 H  H9  1  0.03382  0.82064  0.34538  1
 H  H10  1  0.60799  0.83661  0.30552  1
 H  H11  1  0.31065  0.83691  0.16316  1
 H  H12  1  0.89870  0.83099  0.11821  1
 H  H13  1  0.56296  0.31767  0.39839  1
 H  H14  1  0.26741  0.32054  0.26114  1
 O  O1  1  0.10127  0.79588  0.69343  1
 O  O2  1  0.30834  0.92350  0.94556  1
 O  O3  1  0.34413  0.34282  0.77124  1
 O  O4  1  0.75135  0.52151  0.91585  1
