CIF file written using JARVIS-Tools package.
data_FeClO
_symmetry_space_group_name_H-M  'Pmmn'
_cell_length_a       3.28532
_cell_length_b       3.74114
_cell_length_c       7.79522
_cell_angle_alpha    90
_cell_angle_beta     90
_cell_angle_gamma    90

_symmetry_Int_Tables_number  59
_chemical_formula_structural  FeClO
_chemical_formula_sum  Fe2Cl2O2
_cell_volume  95.8099758511671
_cell_formula_units_Z  2
loop_
  _symmetry_equiv_pos_site_id
 _symmetry_equiv_pos_as_xyz
 1  'x, y, z'
loop_
 _atom_site_type_symbol
 _atom_site_label
 _atom_site_symmetry_multiplicity
 _atom_site_fract_x
 _atom_site_fract_y
 _atom_site_fract_z
 _atom_site_fract_occupancy
 Cl  Cl1  1  0.00000  0.00000  0.33086  1
 Cl  Cl2  1  0.50000  0.50000  0.66914  1
 Fe  Fe1  1  0.50000  0.00000  0.11477  1
 Fe  Fe2  1  0.00000  0.50000  0.88523  1
 O  O1  1  0.00000  0.00000  0.93511  1
 O  O2  1  0.50000  0.50000  0.06489  1
