CIF file written using JARVIS-Tools package.
data_Te2Mo3WSe6
_symmetry_space_group_name_H-M  'Cm'
_cell_length_a       3.38833
_cell_length_b       3.38833
_cell_length_c       26.884
_cell_angle_alpha    89.9824
_cell_angle_beta     90
_cell_angle_gamma    120

_symmetry_Int_Tables_number  8
_chemical_formula_structural  Te2Mo3WSe6
_chemical_formula_sum  Te2Mo3WSe6
_cell_volume  267.2982526276782
_cell_formula_units_Z  1
loop_
  _symmetry_equiv_pos_site_id
 _symmetry_equiv_pos_as_xyz
 1  'x, y, z'
loop_
 _atom_site_type_symbol
 _atom_site_label
 _atom_site_symmetry_multiplicity
 _atom_site_fract_x
 _atom_site_fract_y
 _atom_site_fract_z
 _atom_site_fract_occupancy
 Mo  Mo1  1  0.33183  0.66366  0.00806  1
 Mo  Mo2  1  0.33530  0.67061  0.49344  1
 Mo  Mo3  1  0.66589  0.33179  0.25073  1
 Se  Se1  1  0.33244  0.66488  0.31219  1
 Se  Se2  1  0.66524  0.33048  0.94658  1
 Se  Se3  1  0.66875  0.33749  0.43199  1
 Se  Se4  1  0.66512  0.33025  0.06951  1
 Se  Se5  1  0.66854  0.33708  0.55492  1
 Se  Se6  1  0.33268  0.66537  0.18928  1
 Te  Te1  1  0.33348  0.66696  0.82103  1
 Te  Te2  1  0.33376  0.66752  0.68033  1
 W  W1  1  0.66696  0.33393  0.75068  1
