CIF file written using JARVIS-Tools package.
data_VCu3Se2S2
_symmetry_space_group_name_H-M  'Cmm2'
_cell_length_a       5.50487
_cell_length_b       5.50487
_cell_length_c       5.49692
_cell_angle_alpha    90
_cell_angle_beta     90
_cell_angle_gamma    91.9636

_symmetry_Int_Tables_number  35
_chemical_formula_structural  VCu3Se2S2
_chemical_formula_sum  VCu3Se2S2
_cell_volume  166.4783001320349
_cell_formula_units_Z  1
loop_
  _symmetry_equiv_pos_site_id
 _symmetry_equiv_pos_as_xyz
 1  'x, y, z'
loop_
 _atom_site_type_symbol
 _atom_site_label
 _atom_site_symmetry_multiplicity
 _atom_site_fract_x
 _atom_site_fract_y
 _atom_site_fract_z
 _atom_site_fract_occupancy
 Cu  Cu1  1  0.50000  0.00000  0.01121  1
 Cu  Cu2  1  0.00000  0.50000  0.01121  1
 Cu  Cu3  1  0.00000  0.00000  0.49407  1
 S  S1  1  0.22905  0.77095  0.23722  1
 S  S2  1  0.77095  0.22905  0.23722  1
 Se  Se1  1  0.74550  0.74550  0.75431  1
 Se  Se2  1  0.25450  0.25450  0.75431  1
 V  V1  1  0.00000  0.00000  0.00042  1
