CIF file written using JARVIS-Tools package.
data_Sc2CoGe2
_symmetry_space_group_name_H-M  'C2/m'
_cell_length_a       5.38093
_cell_length_b       5.38094
_cell_length_c       9.60646
_cell_angle_alpha    64.1726
_cell_angle_beta     64.1726
_cell_angle_gamma    43.8107

_symmetry_Int_Tables_number  12
_chemical_formula_structural  Sc2CoGe2
_chemical_formula_sum  Sc4Co2Ge4
_cell_volume  170.00792905207993
_cell_formula_units_Z  2
loop_
  _symmetry_equiv_pos_site_id
 _symmetry_equiv_pos_as_xyz
 1  'x, y, z'
loop_
 _atom_site_type_symbol
 _atom_site_label
 _atom_site_symmetry_multiplicity
 _atom_site_fract_x
 _atom_site_fract_y
 _atom_site_fract_z
 _atom_site_fract_occupancy
 Co  Co1  1  0.72014  0.72014  0.63568  1
 Co  Co2  1  0.27986  0.27986  0.36432  1
 Ge  Ge1  1  0.64849  0.64849  0.42654  1
 Ge  Ge2  1  0.35151  0.35151  0.57346  1
 Ge  Ge3  1  0.52335  0.52335  0.12438  1
 Ge  Ge4  1  0.47665  0.47665  0.87562  1
 Sc  Sc1  1  0.99453  0.99453  0.33272  1
 Sc  Sc2  1  0.00547  0.00547  0.66728  1
 Sc  Sc3  1  0.81958  0.81958  0.10768  1
 Sc  Sc4  1  0.18042  0.18042  0.89232  1
