CIF file written using JARVIS-Tools package.
data_Ni2P2Se3S3
_symmetry_space_group_name_H-M  'P1'
_cell_length_a       5.96206
_cell_length_b       5.99946
_cell_length_c       6.65299
_cell_angle_alpha    81.1123
_cell_angle_beta     107.147
_cell_angle_gamma    119.247

_symmetry_Int_Tables_number  1
_chemical_formula_structural  Ni2P2Se3S3
_chemical_formula_sum  Ni2P2Se3S3
_cell_volume  198.39022054870892
_cell_formula_units_Z  1
loop_
  _symmetry_equiv_pos_site_id
 _symmetry_equiv_pos_as_xyz
 1  'x, y, z'
loop_
 _atom_site_type_symbol
 _atom_site_label
 _atom_site_symmetry_multiplicity
 _atom_site_fract_x
 _atom_site_fract_y
 _atom_site_fract_z
 _atom_site_fract_occupancy
 Ni  Ni1  1  0.33134  0.67097  0.99518  1
 Ni  Ni2  1  0.66509  0.32431  0.99330  1
 P  P1  1  0.95476  0.01356  0.82902  1
 P  P2  1  0.04656  -0.00105  0.17752  1
 S  S1  1  0.27038  0.00482  0.76738  1
 S  S2  1  0.72240  -0.00186  0.22969  1
 S  S3  1  0.92687  0.34701  0.76324  1
 Se  Se1  1  0.56815  0.65185  0.74886  1
 Se  Se2  1  0.07592  0.63486  0.24639  1
 Se  Se3  1  0.43853  0.35551  0.24941  1
