CIF file written using JARVIS-Tools package.
data_H6C7S2
_symmetry_space_group_name_H-M  'P1'
_cell_length_a       6.43355
_cell_length_b       6.11435
_cell_length_c       7.10631
_cell_angle_alpha    56.6752
_cell_angle_beta     44.8931
_cell_angle_gamma    62.3172

_symmetry_Int_Tables_number  1
_chemical_formula_structural  H6C7S2
_chemical_formula_sum  H6C7S2
_cell_volume  163.50235809354595
_cell_formula_units_Z  1
loop_
  _symmetry_equiv_pos_site_id
 _symmetry_equiv_pos_as_xyz
 1  'x, y, z'
loop_
 _atom_site_type_symbol
 _atom_site_label
 _atom_site_symmetry_multiplicity
 _atom_site_fract_x
 _atom_site_fract_y
 _atom_site_fract_z
 _atom_site_fract_occupancy
 C  C1  1  0.90549  0.66364  0.29561  1
 C  C2  1  0.81331  0.68827  0.53237  1
 C  C3  1  0.93551  0.47861  0.66350  1
 C  C4  1  0.09845  0.43367  0.24472  1
 C  C5  1  0.17779  0.50560  0.81257  1
 C  C6  1  0.90351  0.43313  0.91154  1
 C  C7  1  0.23234  0.33829  0.03160  1
 H  H1  1  0.88422  0.22350  0.04778  1
 H  H2  1  0.14607  0.71739  0.76489  1
 H  H3  1  0.82833  0.80572  0.16874  1
 H  H4  1  0.66383  0.85303  0.60749  1
 H  H5  1  0.37519  0.46654  0.61499  1
 H  H6  1  0.69916  0.54736  0.04128  1
 S  S1  1  0.16281  0.24952  0.49672  1
 S  S2  1  0.43207  0.04314  0.02552  1
