CIF file written using JARVIS-Tools package.
data_Zn2Ni3O5
_symmetry_space_group_name_H-M  'C2/m'
_cell_length_a       5.18673
_cell_length_b       5.18673
_cell_length_c       6.70365
_cell_angle_alpha    49.9632
_cell_angle_beta     49.9632
_cell_angle_gamma    48.1777

_symmetry_Int_Tables_number  12
_chemical_formula_structural  Zn2Ni3O5
_chemical_formula_sum  Zn2Ni3O5
_cell_volume  95.36110509647608
_cell_formula_units_Z  1
loop_
  _symmetry_equiv_pos_site_id
 _symmetry_equiv_pos_as_xyz
 1  'x, y, z'
loop_
 _atom_site_type_symbol
 _atom_site_label
 _atom_site_symmetry_multiplicity
 _atom_site_fract_x
 _atom_site_fract_y
 _atom_site_fract_z
 _atom_site_fract_occupancy
 Ni  Ni1  1  0.00000  0.00000  0.00000  1
 Ni  Ni2  1  0.79851  0.79851  0.59925  1
 Ni  Ni3  1  0.20149  0.20149  0.40075  1
 O  O1  1  0.09396  0.09396  0.20712  1
 O  O2  1  0.50000  0.50000  0.00000  1
 O  O3  1  0.29410  0.29410  0.60473  1
 O  O4  1  0.90604  0.90604  0.79288  1
 O  O5  1  0.70590  0.70590  0.39527  1
 Zn  Zn1  1  0.59896  0.59896  0.20071  1
 Zn  Zn2  1  0.40104  0.40104  0.79929  1
