CIF file written using JARVIS-Tools package.
data_Mg2Sb3
_symmetry_space_group_name_H-M  'P-3m1'
_cell_length_a       4.74437
_cell_length_b       4.74436
_cell_length_c       7.25264
_cell_angle_alpha    90
_cell_angle_beta     90
_cell_angle_gamma    120

_symmetry_Int_Tables_number  164
_chemical_formula_structural  Mg2Sb3
_chemical_formula_sum  Mg2Sb3
_cell_volume  141.37830707045842
_cell_formula_units_Z  1
loop_
  _symmetry_equiv_pos_site_id
 _symmetry_equiv_pos_as_xyz
 1  'x, y, z'
loop_
 _atom_site_type_symbol
 _atom_site_label
 _atom_site_symmetry_multiplicity
 _atom_site_fract_x
 _atom_site_fract_y
 _atom_site_fract_z
 _atom_site_fract_occupancy
 Mg  Mg1  1  0.33333  0.66667  0.16291  1
 Mg  Mg2  1  0.66667  0.33333  0.83709  1
 Sb  Sb1  1  0.33333  0.66667  0.58349  1
 Sb  Sb2  1  0.66667  0.33333  0.41651  1
 Sb  Sb3  1  0.00000  0.00000  0.00000  1
