CIF file written using JARVIS-Tools package.
data_ZnCu
_symmetry_space_group_name_H-M  'Cmmm'
_cell_length_a       2.67172
_cell_length_b       2.67173
_cell_length_c       3.62888
_cell_angle_alpha    90
_cell_angle_beta     90
_cell_angle_gamma    92.5385

_symmetry_Int_Tables_number  65
_chemical_formula_structural  ZnCu
_chemical_formula_sum  ZnCu
_cell_volume  25.877951974668374
_cell_formula_units_Z  1
loop_
  _symmetry_equiv_pos_site_id
 _symmetry_equiv_pos_as_xyz
 1  'x, y, z'
loop_
 _atom_site_type_symbol
 _atom_site_label
 _atom_site_symmetry_multiplicity
 _atom_site_fract_x
 _atom_site_fract_y
 _atom_site_fract_z
 _atom_site_fract_occupancy
 Cu  Cu1  1  0.00000  0.00000  0.00000  1
 Zn  Zn1  1  0.50000  0.50000  0.50000  1
