CIF file written using JARVIS-Tools package.
data_Mg3WO6
_symmetry_space_group_name_H-M  'P2_1/c'
_cell_length_a       5.13733
_cell_length_b       5.33303
_cell_length_c       9.16461
_cell_angle_alpha    90
_cell_angle_beta     123.935
_cell_angle_gamma    90

_symmetry_Int_Tables_number  14
_chemical_formula_structural  Mg3WO6
_chemical_formula_sum  Mg6W2O2
_cell_volume  208.31971674292726
_cell_formula_units_Z  2
loop_
  _symmetry_equiv_pos_site_id
 _symmetry_equiv_pos_as_xyz
 1  'x, y, z'
loop_
 _atom_site_type_symbol
 _atom_site_label
 _atom_site_symmetry_multiplicity
 _atom_site_fract_x
 _atom_site_fract_y
 _atom_site_fract_z
 _atom_site_fract_occupancy
 Mg  Mg1  1  0.50000  0.50000  0.50000  1
 Mg  Mg2  1  0.73159  0.94804  0.73738  1
 Mg  Mg3  1  0.26841  0.44804  0.76262  1
 Mg  Mg4  1  0.50000  0.00000  0.00000  1
 Mg  Mg5  1  0.73159  0.55196  0.23738  1
 Mg  Mg6  1  0.26841  0.05196  0.26262  1
 O  O1  1  0.10904  0.42556  0.23767  1
 O  O2  1  0.24760  0.80475  0.08211  1
 O  O3  1  0.37108  0.17545  0.55520  1
 O  O4  1  0.62892  0.67545  0.94480  1
 O  O5  1  0.75240  0.19525  0.91789  1
 O  O6  1  0.89096  0.92556  0.26233  1
 O  O7  1  0.37108  0.32455  0.05520  1
 O  O8  1  0.75240  0.30475  0.41789  1
 O  O9  1  0.24760  0.69525  0.58211  1
 O  O10  1  0.62892  0.82455  0.44480  1
 O  O11  1  0.10904  0.07444  0.73767  1
 O  O12  1  0.89096  0.57444  0.76233  1
 W  W1  1  0.00000  0.00000  0.50000  1
 W  W2  1  0.00000  0.50000  0.00000  1
