CIF file written using JARVIS-Tools package.
data_ThSiOs2C
_symmetry_space_group_name_H-M  'Cmcm'
_cell_length_a       5.99929
_cell_length_b       5.9993
_cell_length_c       7.20881
_cell_angle_alpha    90
_cell_angle_beta     90
_cell_angle_gamma    141.106

_symmetry_Int_Tables_number  63
_chemical_formula_structural  ThSiOs2C
_chemical_formula_sum  Th2Si2Os4C2
_cell_volume  162.90888762357906
_cell_formula_units_Z  2
loop_
  _symmetry_equiv_pos_site_id
 _symmetry_equiv_pos_as_xyz
 1  'x, y, z'
loop_
 _atom_site_type_symbol
 _atom_site_label
 _atom_site_symmetry_multiplicity
 _atom_site_fract_x
 _atom_site_fract_y
 _atom_site_fract_z
 _atom_site_fract_occupancy
 C  C1  1  0.00000  0.00000  0.00000  1
 C  C2  1  0.00000  0.00000  0.50000  1
 Os  Os1  1  0.83521  0.16479  0.05575  1
 Os  Os2  1  0.16479  0.83521  0.94425  1
 Os  Os3  1  0.16479  0.83521  0.55575  1
 Os  Os4  1  0.83521  0.16479  0.44425  1
 Si  Si1  1  0.27276  0.72724  0.25000  1
 Si  Si2  1  0.72724  0.27276  0.75000  1
 Th  Th1  1  0.55356  0.44644  0.25000  1
 Th  Th2  1  0.44644  0.55356  0.75000  1
