CIF file written using JARVIS-Tools package.
data_B4MoIr
_symmetry_space_group_name_H-M  'P-6m2'
_cell_length_a       2.9588
_cell_length_b       2.95879
_cell_length_c       7.51364
_cell_angle_alpha    90
_cell_angle_beta     90
_cell_angle_gamma    120

_symmetry_Int_Tables_number  187
_chemical_formula_structural  B4MoIr
_chemical_formula_sum  B4MoIr
_cell_volume  56.965449038815756
_cell_formula_units_Z  1
loop_
  _symmetry_equiv_pos_site_id
 _symmetry_equiv_pos_as_xyz
 1  'x, y, z'
loop_
 _atom_site_type_symbol
 _atom_site_label
 _atom_site_symmetry_multiplicity
 _atom_site_fract_x
 _atom_site_fract_y
 _atom_site_fract_z
 _atom_site_fract_occupancy
 B  B1  1  0.33333  0.66667  0.20499  1
 B  B2  1  0.00000  0.00000  0.29361  1
 B  B3  1  0.00000  0.00000  0.70639  1
 B  B4  1  0.33333  0.66667  0.79501  1
 Ir  Ir1  1  0.33333  0.66667  0.50000  1
 Mo  Mo1  1  0.00000  0.00000  0.00000  1
