CIF file written using JARVIS-Tools package.
data_PrSiRu2C
_symmetry_space_group_name_H-M  'Cmcm'
_cell_length_a       5.9218
_cell_length_b       5.9218
_cell_length_c       7.23178
_cell_angle_alpha    90
_cell_angle_beta     90
_cell_angle_gamma    140.849

_symmetry_Int_Tables_number  63
_chemical_formula_structural  PrSiRu2C
_chemical_formula_sum  Pr2Si2Ru4C2
_cell_volume  160.1164930136364
_cell_formula_units_Z  2
loop_
  _symmetry_equiv_pos_site_id
 _symmetry_equiv_pos_as_xyz
 1  'x, y, z'
loop_
 _atom_site_type_symbol
 _atom_site_label
 _atom_site_symmetry_multiplicity
 _atom_site_fract_x
 _atom_site_fract_y
 _atom_site_fract_z
 _atom_site_fract_occupancy
 C  C1  1  0.00000  0.00000  0.00000  1
 C  C2  1  0.00000  0.00000  0.50000  1
 Pr  Pr1  1  0.55064  0.44936  0.25000  1
 Pr  Pr2  1  0.44936  0.55064  0.75000  1
 Ru  Ru1  1  0.83519  0.16481  0.05840  1
 Ru  Ru2  1  0.16481  0.83519  0.94160  1
 Ru  Ru3  1  0.16481  0.83519  0.55840  1
 Ru  Ru4  1  0.83519  0.16481  0.44160  1
 Si  Si1  1  0.27200  0.72800  0.25000  1
 Si  Si2  1  0.72800  0.27200  0.75000  1
