CIF file written using JARVIS-Tools package.
data_BW2
_symmetry_space_group_name_H-M  'I4/mcm'
_cell_length_a       4.62275
_cell_length_b       4.62275
_cell_length_c       4.62276
_cell_angle_alpha    105.707
_cell_angle_beta     105.707
_cell_angle_gamma    117.294

_symmetry_Int_Tables_number  140
_chemical_formula_structural  BW2
_chemical_formula_sum  B2W4
_cell_volume  74.96982222573196
_cell_formula_units_Z  2
loop_
  _symmetry_equiv_pos_site_id
 _symmetry_equiv_pos_as_xyz
 1  'x, y, z'
loop_
 _atom_site_type_symbol
 _atom_site_label
 _atom_site_symmetry_multiplicity
 _atom_site_fract_x
 _atom_site_fract_y
 _atom_site_fract_z
 _atom_site_fract_occupancy
 B  B1  1  0.75000  0.75000  0.00000  1
 B  B2  1  0.25000  0.25000  0.00000  1
 W  W1  1  0.82966  0.67034  0.50000  1
 W  W2  1  0.32966  0.82966  0.15932  1
 W  W3  1  0.17034  0.32966  0.50000  1
 W  W4  1  0.67034  0.17034  0.84068  1
