CIF file written using JARVIS-Tools package.
data_Li2MnO2
_symmetry_space_group_name_H-M  'Immm'
_cell_length_a       4.72611
_cell_length_b       4.72609
_cell_length_c       5.1311
_cell_angle_alpha    82.5037
_cell_angle_beta     62.579
_cell_angle_gamma    73.5445

_symmetry_Int_Tables_number  71
_chemical_formula_structural  Li2MnO2
_chemical_formula_sum  Li4Mn2O4
_cell_volume  97.5645217066479
_cell_formula_units_Z  2
loop_
  _symmetry_equiv_pos_site_id
 _symmetry_equiv_pos_as_xyz
 1  'x, y, z'
loop_
 _atom_site_type_symbol
 _atom_site_label
 _atom_site_symmetry_multiplicity
 _atom_site_fract_x
 _atom_site_fract_y
 _atom_site_fract_z
 _atom_site_fract_occupancy
 Li  Li1  1  0.94840  0.25000  0.60321  1
 Li  Li2  1  0.44840  0.75000  0.60321  1
 Li  Li3  1  0.55160  0.25000  0.39679  1
 Li  Li4  1  0.05160  0.75000  0.39679  1
 Mn  Mn1  1  0.75000  0.75000  -0.00000  1
 Mn  Mn2  1  0.25000  0.25000  0.00000  1
 O  O1  1  0.14505  0.50000  0.70990  1
 O  O2  1  0.64505  0.00000  0.70990  1
 O  O3  1  0.35495  -0.00000  0.29010  1
 O  O4  1  0.85495  0.49999  0.29010  1
