CIF file written using JARVIS-Tools package.
data_Na3Cd
_symmetry_space_group_name_H-M  'I4/mmm'
_cell_length_a       5.72586
_cell_length_b       5.72587
_cell_length_c       5.72587
_cell_angle_alpha    127.164
_cell_angle_beta     127.165
_cell_angle_gamma    77.9826

_symmetry_Int_Tables_number  139
_chemical_formula_structural  Na3Cd
_chemical_formula_sum  Na3Cd
_cell_volume  115.52874198058166
_cell_formula_units_Z  1
loop_
  _symmetry_equiv_pos_site_id
 _symmetry_equiv_pos_as_xyz
 1  'x, y, z'
loop_
 _atom_site_type_symbol
 _atom_site_label
 _atom_site_symmetry_multiplicity
 _atom_site_fract_x
 _atom_site_fract_y
 _atom_site_fract_z
 _atom_site_fract_occupancy
 Cd  Cd1  1  0.00000  0.00000  0.00000  1
 Na  Na1  1  0.75000  0.25000  0.50000  1
 Na  Na2  1  0.25000  0.75000  0.50000  1
 Na  Na3  1  0.50000  0.50000  -0.00000  1
