CIF file written using JARVIS-Tools package.
data_BiSeI
_symmetry_space_group_name_H-M  'Pnma'
_cell_length_a       4.25832
_cell_length_b       8.82406
_cell_length_c       10.7399
_cell_angle_alpha    90
_cell_angle_beta     90
_cell_angle_gamma    90

_symmetry_Int_Tables_number  62
_chemical_formula_structural  BiSeI
_chemical_formula_sum  Bi4Se4I4
_cell_volume  403.56058968588866
_cell_formula_units_Z  4
loop_
  _symmetry_equiv_pos_site_id
 _symmetry_equiv_pos_as_xyz
 1  'x, y, z'
loop_
 _atom_site_type_symbol
 _atom_site_label
 _atom_site_symmetry_multiplicity
 _atom_site_fract_x
 _atom_site_fract_y
 _atom_site_fract_z
 _atom_site_fract_occupancy
 Bi  Bi1  1  0.75000  0.12822  0.12875  1
 Bi  Bi2  1  0.25000  0.87178  0.87125  1
 Bi  Bi3  1  0.75000  0.62822  0.37125  1
 Bi  Bi4  1  0.25000  0.37178  0.62875  1
 I  I1  1  0.25000  0.48476  0.17286  1
 I  I2  1  0.75000  0.01524  0.67286  1
 I  I3  1  0.25000  0.98476  0.32714  1
 I  I4  1  0.75000  0.51524  0.82714  1
 Se  Se1  1  0.25000  0.17034  0.95008  1
 Se  Se2  1  0.75000  0.32966  0.45008  1
 Se  Se3  1  0.25000  0.67034  0.54992  1
 Se  Se4  1  0.75000  0.82966  0.04992  1
