CIF file written using JARVIS-Tools package.
data_H4C7S2O
_symmetry_space_group_name_H-M  'P1'
_cell_length_a       4.0116
_cell_length_b       8.50518
_cell_length_c       10.1841
_cell_angle_alpha    74.2661
_cell_angle_beta     80.4633
_cell_angle_gamma    85.477

_symmetry_Int_Tables_number  1
_chemical_formula_structural  H4C7S2O
_chemical_formula_sum  H8C4S4O2
_cell_volume  329.6241877724875
_cell_formula_units_Z  2
loop_
  _symmetry_equiv_pos_site_id
 _symmetry_equiv_pos_as_xyz
 1  'x, y, z'
loop_
 _atom_site_type_symbol
 _atom_site_label
 _atom_site_symmetry_multiplicity
 _atom_site_fract_x
 _atom_site_fract_y
 _atom_site_fract_z
 _atom_site_fract_occupancy
 C  C1  1  0.68806  0.17625  0.76179  1
 C  C2  1  0.82363  0.12371  0.63408  1
 C  C3  1  0.94195  0.10865  0.40598  1
 C  C4  1  0.44195  0.60865  0.90598  1
 C  C5  1  0.78012  0.19744  0.49844  1
 C  C6  1  0.28012  0.69744  0.99844  1
 C  C7  1  0.11374  0.96810  0.47146  1
 C  C8  1  0.61374  0.46810  0.97146  1
 C  C9  1  0.81628  0.33484  0.77241  1
 C  C10  1  0.31627  0.83484  0.27241  1
 C  C11  1  0.81006  0.34335  0.91865  1
 C  C12  1  0.31006  0.84335  0.41865  1
 C  C13  1  0.18806  0.67625  0.26179  1
 C  C14  1  0.32363  0.62371  0.13408  1
 H  H1  1  0.73229  0.07981  0.85477  1
 H  H2  1  0.90988  0.69375  0.27150  1
 H  H3  1  0.40988  0.19375  0.77150  1
 H  H4  1  0.43763  0.64459  0.79531  1
 H  H5  1  0.93763  0.14459  0.29531  1
 H  H6  1  0.13025  0.81016  0.96884  1
 H  H7  1  0.63025  0.31016  0.46884  1
 H  H8  1  0.23228  0.57981  0.35477  1
 O  O1  1  0.48727  0.73668  0.48915  1
 O  O2  1  0.98727  0.23668  0.98915  1
 S  S1  1  0.06598  0.94588  0.64810  1
 S  S2  1  0.56598  0.44588  0.14810  1
 S  S3  1  0.48738  0.98223  0.14775  1
 S  S4  1  0.98738  0.48223  0.64775  1
