CIF file written using JARVIS-Tools package.
data_LiMnSiO4
_symmetry_space_group_name_H-M  'Pnma'
_cell_length_a       4.88216
_cell_length_b       6.29871
_cell_length_c       8.98621
_cell_angle_alpha    90
_cell_angle_beta     90
_cell_angle_gamma    90

_symmetry_Int_Tables_number  62
_chemical_formula_structural  LiMnSiO4
_chemical_formula_sum  Li4Mn4Si4O6
_cell_volume  276.33786550873725
_cell_formula_units_Z  4
loop_
  _symmetry_equiv_pos_site_id
 _symmetry_equiv_pos_as_xyz
 1  'x, y, z'
loop_
 _atom_site_type_symbol
 _atom_site_label
 _atom_site_symmetry_multiplicity
 _atom_site_fract_x
 _atom_site_fract_y
 _atom_site_fract_z
 _atom_site_fract_occupancy
 Li  Li1  1  0.46551  0.25000  0.83586  1
 Li  Li2  1  0.03449  0.25000  0.33586  1
 Li  Li3  1  0.96551  0.75000  0.66414  1
 Li  Li4  1  0.53449  0.75000  0.16414  1
 Mn  Mn1  1  0.00000  0.00000  0.00000  1
 Mn  Mn2  1  0.50000  0.00000  0.50000  1
 Mn  Mn3  1  0.00000  0.50000  0.00000  1
 Mn  Mn4  1  0.50000  0.50000  0.50000  1
 O  O1  1  0.68598  0.03489  0.11801  1
 O  O2  1  0.60392  0.25000  0.36528  1
 O  O3  1  0.20961  0.25000  0.13403  1
 O  O4  1  0.81402  0.03489  0.61801  1
 O  O5  1  0.89608  0.25000  0.86528  1
 O  O6  1  0.31402  0.96511  0.88199  1
 O  O7  1  0.68598  0.46511  0.11801  1
 O  O8  1  0.29039  0.25000  0.63403  1
 O  O9  1  0.31402  0.53489  0.88199  1
 O  O10  1  0.70961  0.75000  0.36597  1
 O  O11  1  0.79039  0.75000  0.86597  1
 O  O12  1  0.39608  0.75000  0.63472  1
 O  O13  1  0.81402  0.46511  0.61801  1
 O  O14  1  0.10392  0.75000  0.13472  1
 O  O15  1  0.18598  0.53489  0.38199  1
 O  O16  1  0.18598  0.96511  0.38199  1
 Si  Si1  1  0.96565  0.25000  0.68015  1
 Si  Si2  1  0.53435  0.25000  0.18015  1
 Si  Si3  1  0.46565  0.75000  0.81985  1
 Si  Si4  1  0.03435  0.75000  0.31985  1
