CIF file written using JARVIS-Tools package.
data_ZnH10C7O4
_symmetry_space_group_name_H-M  'P1'
_cell_length_a       4.10847
_cell_length_b       4.62704
_cell_length_c       11.662
_cell_angle_alpha    82.6404
_cell_angle_beta     74.9618
_cell_angle_gamma    60.5803

_symmetry_Int_Tables_number  1
_chemical_formula_structural  ZnH10C7O4
_chemical_formula_sum  ZnH0C7O4
_cell_volume  186.49285265441372
_cell_formula_units_Z  1
loop_
  _symmetry_equiv_pos_site_id
 _symmetry_equiv_pos_as_xyz
 1  'x, y, z'
loop_
 _atom_site_type_symbol
 _atom_site_label
 _atom_site_symmetry_multiplicity
 _atom_site_fract_x
 _atom_site_fract_y
 _atom_site_fract_z
 _atom_site_fract_occupancy
 C  C1  1  0.33133  0.43263  0.97518  1
 C  C2  1  0.15645  0.36271  0.20489  1
 C  C3  1  0.06036  0.53955  0.32095  1
 C  C4  1  0.00629  0.34339  0.43372  1
 C  C5  1  0.92757  0.53320  0.54456  1
 C  C6  1  0.92976  0.34139  0.65984  1
 C  C7  1  0.21325  0.57557  0.09821  1
 H  H1  1  0.64517  0.75863  0.55672  1
 H  H2  1  0.77264  0.28670  0.43804  1
 H  H3  1  0.43777  0.63736  0.10225  1
 H  H4  1  0.29081  0.59843  0.32029  1
 H  H5  1  0.79947  0.78184  0.32389  1
 H  H6  1  0.92630  0.30734  0.20231  1
 H  H7  1  0.41700  0.12109  0.20085  1
 H  H8  1  0.26675  0.10156  0.43083  1
 H  H9  1  0.95464  0.81702  0.09956  1
 H  H10  1  0.13468  0.62405  0.53487  1
 O  O1  1  0.98034  0.42662  0.75020  1
 O  O2  1  0.48881  0.11754  0.96436  1
 O  O3  1  0.88481  0.08548  0.66180  1
 O  O4  1  0.28287  0.63582  0.88861  1
 Zn  Zn1  1  0.82045  0.86942  0.81649  1
