CIF file written using JARVIS-Tools package.
data_Al2Ni3
_symmetry_space_group_name_H-M  'P4/mmm'
_cell_length_a       2.88795
_cell_length_b       2.88795
_cell_length_c       14.0369
_cell_angle_alpha    90
_cell_angle_beta     90
_cell_angle_gamma    90

_symmetry_Int_Tables_number  123
_chemical_formula_structural  Al2Ni3
_chemical_formula_sum  Al4Ni6
_cell_volume  117.07097443881617
_cell_formula_units_Z  2
loop_
  _symmetry_equiv_pos_site_id
 _symmetry_equiv_pos_as_xyz
 1  'x, y, z'
loop_
 _atom_site_type_symbol
 _atom_site_label
 _atom_site_symmetry_multiplicity
 _atom_site_fract_x
 _atom_site_fract_y
 _atom_site_fract_z
 _atom_site_fract_occupancy
 Al  Al1  1  0.50000  0.50000  0.19106  1
 Al  Al2  1  0.50000  0.50000  0.39758  1
 Al  Al3  1  0.50000  0.50000  0.60242  1
 Al  Al4  1  0.50000  0.50000  0.80894  1
 Ni  Ni1  1  0.00000  0.00000  0.90326  1
 Ni  Ni2  1  0.00000  0.00000  0.09674  1
 Ni  Ni3  1  0.00000  0.00000  0.29555  1
 Ni  Ni4  1  0.00000  0.00000  0.50000  1
 Ni  Ni5  1  0.00000  0.00000  0.70445  1
 Ni  Ni6  1  0.50000  0.50000  0.00000  1
