CIF file written using JARVIS-Tools package.
data_GaAgSnSe4
_symmetry_space_group_name_H-M  'I-4'
_cell_length_a       6.9233
_cell_length_b       6.92331
_cell_length_c       6.9233
_cell_angle_alpha    129.565
_cell_angle_beta     129.565
_cell_angle_gamma    74.1027

_symmetry_Int_Tables_number  82
_chemical_formula_structural  GaAgSnSe4
_chemical_formula_sum  GaAgSnSe4
_cell_volume  192.30203380737245
_cell_formula_units_Z  1
loop_
  _symmetry_equiv_pos_site_id
 _symmetry_equiv_pos_as_xyz
 1  'x, y, z'
loop_
 _atom_site_type_symbol
 _atom_site_label
 _atom_site_symmetry_multiplicity
 _atom_site_fract_x
 _atom_site_fract_y
 _atom_site_fract_z
 _atom_site_fract_occupancy
 Ag  Ag1  1  0.25000  0.75000  0.50000  1
 Ga  Ga1  1  0.50000  0.50000  0.00000  1
 Se  Se1  1  0.65953  0.65016  0.52077  1
 Se  Se2  1  0.12939  0.13876  0.47923  1
 Se  Se3  1  0.86124  0.34047  0.99063  1
 Se  Se4  1  0.34984  0.87061  0.00937  1
 Sn  Sn1  1  0.75000  0.25000  0.50000  1
