CIF file written using JARVIS-Tools package.
data_H6C6SO
_symmetry_space_group_name_H-M  'P1'
_cell_length_a       5.74654
_cell_length_b       7.23892
_cell_length_c       7.4965
_cell_angle_alpha    74.0271
_cell_angle_beta     79.2898
_cell_angle_gamma    85.4266

_symmetry_Int_Tables_number  1
_chemical_formula_structural  H6C6SO
_chemical_formula_sum  H2C2S2O2
_cell_volume  294.4477541266504
_cell_formula_units_Z  2
loop_
  _symmetry_equiv_pos_site_id
 _symmetry_equiv_pos_as_xyz
 1  'x, y, z'
loop_
 _atom_site_type_symbol
 _atom_site_label
 _atom_site_symmetry_multiplicity
 _atom_site_fract_x
 _atom_site_fract_y
 _atom_site_fract_z
 _atom_site_fract_occupancy
 C  C1  1  0.24644  0.31879  0.53769  1
 C  C2  1  0.43134  0.46947  0.46641  1
 C  C3  1  0.74992  0.39342  0.93110  1
 C  C4  1  0.86798  0.55950  0.86505  1
 C  C5  1  0.78920  0.62268  0.33607  1
 C  C6  1  0.49728  0.41856  0.99244  1
 C  C7  1  0.66744  0.45036  0.38491  1
 C  C8  1  0.72189  0.73234  0.86414  1
 C  C9  1  0.79627  0.91454  0.79945  1
 C  C10  1  0.70973  0.96657  0.36788  1
 C  C11  1  0.33965  0.27597  0.06517  1
 C  C12  1  0.64784  0.77322  0.38333  1
 H  H1  1  0.67292  0.03757  0.79454  1
 H  H2  1  0.98415  0.94270  0.74745  1
 H  H3  1  0.15217  0.30120  0.11369  1
 H  H4  1  0.07011  0.38524  0.57260  1
 H  H5  1  0.05832  0.57069  0.81498  1
 H  H6  1  0.30951  0.22534  0.80086  1
 H  H7  1  0.83105  0.24983  0.94285  1
 H  H8  1  0.74975  0.31643  0.36000  1
 H  H9  1  0.56530  0.05339  0.43101  1
 H  H10  1  0.40097  0.12553  0.08838  1
 H  H11  1  0.23538  0.24652  0.42798  1
 H  H12  1  0.97421  0.64197  0.26819  1
 O  O1  1  0.90531  0.03642  0.29339  1
 O  O2  1  0.30136  0.16873  0.69650  1
 S  S1  1  0.42484  0.66638  0.95978  1
 S  S2  1  0.36339  0.69918  0.48317  1
