CIF file written using JARVIS-Tools package.
data_YZr4O9
_symmetry_space_group_name_H-M  'P1'
_cell_length_a       5.21953
_cell_length_b       6.09228
_cell_length_c       6.33331
_cell_angle_alpha    80.6517
_cell_angle_beta     68.5969
_cell_angle_gamma    67.9221

_symmetry_Int_Tables_number  1
_chemical_formula_structural  YZr4O9
_chemical_formula_sum  YZr4O9
_cell_volume  173.67975924299031
_cell_formula_units_Z  1
loop_
  _symmetry_equiv_pos_site_id
 _symmetry_equiv_pos_as_xyz
 1  'x, y, z'
loop_
 _atom_site_type_symbol
 _atom_site_label
 _atom_site_symmetry_multiplicity
 _atom_site_fract_x
 _atom_site_fract_y
 _atom_site_fract_z
 _atom_site_fract_occupancy
 O  O1  1  0.83050  0.70918  0.09179  1
 O  O2  1  0.75795  0.46824  0.50024  1
 O  O3  1  0.59036  0.10518  0.32694  1
 O  O4  1  0.92730  0.94932  0.68454  1
 O  O5  1  0.42686  0.86504  0.74815  1
 O  O6  1  0.18721  0.99237  0.21484  1
 O  O7  1  0.23861  0.53420  0.48981  1
 O  O8  1  0.13426  0.30620  0.88028  1
 O  O9  1  0.61199  0.34783  0.92962  1
 Y  Y1  1  0.18795  0.36929  0.20973  1
 Zr  Zr1  1  0.43033  0.80126  0.41937  1
 Zr  Zr2  1  0.94602  0.02582  0.00113  1
 Zr  Zr3  1  0.83416  0.60980  0.76514  1
 Zr  Zr4  1  0.54650  0.21627  0.63843  1
