CIF file written using JARVIS-Tools package.
data_PdCl2
_symmetry_space_group_name_H-M  'R-3'
_cell_length_a       8.05418
_cell_length_b       8.05418
_cell_length_c       8.05419
_cell_angle_alpha    108.151
_cell_angle_beta     108.151
_cell_angle_gamma    108.151

_symmetry_Int_Tables_number  148
_chemical_formula_structural  PdCl2
_chemical_formula_sum  Pd6Cl2
_cell_volume  420.7100860899642
_cell_formula_units_Z  6
loop_
  _symmetry_equiv_pos_site_id
 _symmetry_equiv_pos_as_xyz
 1  'x, y, z'
loop_
 _atom_site_type_symbol
 _atom_site_label
 _atom_site_symmetry_multiplicity
 _atom_site_fract_x
 _atom_site_fract_y
 _atom_site_fract_z
 _atom_site_fract_occupancy
 Cl  Cl1  1  0.84889  0.57092  0.62408  1
 Cl  Cl2  1  0.05515  0.22259  0.72805  1
 Cl  Cl3  1  0.22259  0.72805  0.05515  1
 Cl  Cl4  1  0.27195  0.94485  0.77741  1
 Cl  Cl5  1  0.94485  0.77741  0.27195  1
 Cl  Cl6  1  0.77741  0.27195  0.94485  1
 Cl  Cl7  1  0.15111  0.42908  0.37592  1
 Cl  Cl8  1  0.72805  0.05515  0.22259  1
 Cl  Cl9  1  0.42908  0.37592  0.15111  1
 Cl  Cl10  1  0.62408  0.84889  0.57092  1
 Cl  Cl11  1  0.57092  0.62408  0.84889  1
 Cl  Cl12  1  0.37592  0.15111  0.42908  1
 Pd  Pd1  1  0.05233  0.10548  0.32834  1
 Pd  Pd2  1  0.67166  0.94767  0.89452  1
 Pd  Pd3  1  0.94767  0.89452  0.67166  1
 Pd  Pd4  1  0.89452  0.67166  0.94767  1
 Pd  Pd5  1  0.32834  0.05233  0.10548  1
 Pd  Pd6  1  0.10548  0.32834  0.05233  1
