CIF file written using JARVIS-Tools package.
data_H7C8
_symmetry_space_group_name_H-M  'P2_1'
_cell_length_a       8.47746
_cell_length_b       5.60292
_cell_length_c       12.0444
_cell_angle_alpha    90
_cell_angle_beta     109.391
_cell_angle_gamma    90

_symmetry_Int_Tables_number  4
_chemical_formula_structural  H7C8
_chemical_formula_sum  H28C32
_cell_volume  539.6360876012876
_cell_formula_units_Z  4
loop_
  _symmetry_equiv_pos_site_id
 _symmetry_equiv_pos_as_xyz
 1  'x, y, z'
loop_
 _atom_site_type_symbol
 _atom_site_label
 _atom_site_symmetry_multiplicity
 _atom_site_fract_x
 _atom_site_fract_y
 _atom_site_fract_z
 _atom_site_fract_occupancy
 C  C1  1  0.30195  0.32817  0.30927  1
 C  C2  1  0.58538  0.67779  0.70944  1
 C  C3  1  0.18474  0.52702  0.45182  1
 C  C4  1  0.72691  0.64077  0.39489  1
 C  C5  1  0.14892  0.53081  0.55689  1
 C  C6  1  0.85108  0.03081  0.44311  1
 C  C7  1  0.19303  0.33753  0.63404  1
 C  C8  1  0.80697  0.83753  0.36596  1
 C  C9  1  0.27309  0.14077  0.60511  1
 C  C10  1  0.41462  0.17779  0.29056  1
 C  C11  1  0.81526  0.02702  0.54818  1
 C  C12  1  0.05868  0.19446  0.90253  1
 C  C13  1  0.69163  0.15451  0.82453  1
 C  C14  1  0.26473  0.33006  0.42125  1
 C  C15  1  0.23251  0.19155  0.94923  1
 C  C16  1  0.32319  0.99977  0.92709  1
 C  C17  1  0.67681  0.49977  0.07291  1
 C  C18  1  0.23742  0.80848  0.85941  1
 C  C19  1  0.76258  0.30848  0.14059  1
 C  C20  1  0.06303  0.80979  0.81381  1
 C  C21  1  0.93697  0.30979  0.18619  1
 C  C22  1  0.97008  0.00347  0.83365  1
 C  C23  1  0.02992  0.50347  0.16635  1
 C  C24  1  0.78468  0.00403  0.78464  1
 C  C25  1  0.21532  0.50403  0.21536  1
 C  C26  1  0.30835  0.13650  0.50028  1
 C  C27  1  0.30837  0.65451  0.17547  1
 C  C28  1  0.76749  0.69155  0.05077  1
 C  C29  1  0.69805  0.82817  0.69073  1
 C  C30  1  0.69165  0.63650  0.49972  1
 C  C31  1  0.73527  0.83006  0.57875  1
 C  C32  1  0.94132  0.69446  0.09747  1
 H  H1  1  0.63190  0.47911  0.52099  1
 H  H2  1  0.36810  0.97911  0.47901  1
 H  H3  1  0.69411  0.48741  0.33621  1
 H  H4  1  0.30589  0.98741  0.66379  1
 H  H5  1  0.83633  0.83649  0.28448  1
 H  H6  1  0.16367  0.33649  0.71552  1
 H  H7  1  0.08539  0.68511  0.57739  1
 H  H8  1  0.85028  0.17954  0.60741  1
 H  H9  1  0.14972  0.67954  0.39259  1
 H  H10  1  0.56394  0.67646  0.79366  1
 H  H11  1  0.43606  0.17646  0.20634  1
 H  H12  1  0.51173  0.55382  0.64282  1
 H  H13  1  0.48827  0.05382  0.35718  1
 H  H14  1  0.91461  0.18511  0.42261  1
 H  H15  1  0.99185  0.34923  0.91887  1
 H  H16  1  0.74674  0.27871  0.89634  1
 H  H17  1  0.44385  0.65677  0.21478  1
 H  H18  1  0.55615  0.15677  0.78522  1
 H  H19  1  0.99738  0.65852  0.76191  1
 H  H20  1  0.69388  0.15710  0.15853  1
 H  H21  1  0.00262  0.15852  0.23809  1
 H  H22  1  0.30612  0.65710  0.84147  1
 H  H23  1  0.54067  0.50013  0.03746  1
 H  H24  1  0.45933  0.00013  0.96254  1
 H  H25  1  0.70370  0.84168  0.99716  1
 H  H26  1  0.29630  0.34168  0.00284  1
 H  H27  1  0.00815  0.84923  0.08113  1
 H  H28  1  0.25326  0.77871  0.10366  1
