CIF file written using JARVIS-Tools package.
data_SnH24C13O4
_symmetry_space_group_name_H-M  'P1'
_cell_length_a       4.92996
_cell_length_b       7.1599
_cell_length_c       11.0722
_cell_angle_alpha    108.092
_cell_angle_beta     96.2619
_cell_angle_gamma    93.6136

_symmetry_Int_Tables_number  1
_chemical_formula_structural  SnH24C13O4
_chemical_formula_sum  SnH24C3O4
_cell_volume  367.33897960038036
_cell_formula_units_Z  1
loop_
  _symmetry_equiv_pos_site_id
 _symmetry_equiv_pos_as_xyz
 1  'x, y, z'
loop_
 _atom_site_type_symbol
 _atom_site_label
 _atom_site_symmetry_multiplicity
 _atom_site_fract_x
 _atom_site_fract_y
 _atom_site_fract_z
 _atom_site_fract_occupancy
 C  C1  1  0.67370  0.04092  0.69936  1
 C  C2  1  0.56044  0.68318  0.43921  1
 C  C3  1  0.64844  0.47477  0.41664  1
 C  C4  1  0.82278  0.41062  0.30743  1
 C  C5  1  0.07384  0.13639  0.17069  1
 C  C6  1  0.89532  0.19761  0.27885  1
 C  C7  1  0.93086  0.12707  0.03720  1
 C  C8  1  0.71514  0.04613  0.56399  1
 C  C9  1  0.79979  0.84843  0.48238  1
 C  C10  1  0.54800  0.22089  0.77204  1
 C  C11  1  0.19788  0.60907  0.71505  1
 C  C12  1  0.72534  0.94842  0.98249  1
 C  C13  1  0.33487  0.57412  0.06934  1
 H  H1  1  0.71147  0.42872  0.22066  1
 H  H2  1  0.25826  0.24229  0.19392  1
 H  H3  1  0.46487  0.36779  0.39621  1
 H  H4  1  0.76425  0.46821  0.50604  1
 H  H5  1  0.82620  0.25933  0.04208  1
 H  H6  1  0.08638  0.11655  0.97243  1
 H  H7  1  0.43912  0.69095  0.35138  1
 H  H8  1  0.96839  0.80613  0.53926  1
 H  H9  1  0.30970  0.53932  0.63530  1
 H  H10  1  0.17362  0.76343  0.72445  1
 H  H11  1  0.47548  0.68598  0.14414  1
 H  H12  1  0.12163  0.60300  0.07924  1
 H  H13  1  0.88441  0.86686  0.39821  1
 H  H14  1  0.99925  0.52517  0.70552  1
 H  H15  1  0.01407  0.51058  0.33030  1
 H  H16  1  0.52425  0.07923  0.51598  1
 H  H17  1  0.87555  0.03717  0.75068  1
 H  H18  1  0.53810  0.91020  0.69306  1
 H  H19  1  0.36747  0.42548  0.07137  1
 H  H20  1  0.00666  0.18177  0.36662  1
 H  H21  1  0.70505  0.09581  0.25557  1
 H  H22  1  0.41975  0.71068  0.51190  1
 H  H23  1  0.87418  0.16694  0.57452  1
 H  H24  1  0.14738  0.99203  0.16369  1
 O  O1  1  0.81441  0.77560  0.93893  1
 O  O2  1  0.29564  0.22110  0.78059  1
 O  O3  1  0.46980  0.95788  0.97968  1
 O  O4  1  0.70988  0.38533  0.82298  1
 Sn  Sn1  1  0.41716  0.59467  0.88838  1
