CIF file written using JARVIS-Tools package.
data_NaHCO3
_symmetry_space_group_name_H-M  'P2_1/c'
_cell_length_a       3.42306
_cell_length_b       9.73969
_cell_length_c       7.97887
_cell_angle_alpha    90
_cell_angle_beta     111.043
_cell_angle_gamma    90

_symmetry_Int_Tables_number  14
_chemical_formula_structural  NaHCO3
_chemical_formula_sum  Na4H4C4O2
_cell_volume  248.27157938886035
_cell_formula_units_Z  4
loop_
  _symmetry_equiv_pos_site_id
 _symmetry_equiv_pos_as_xyz
 1  'x, y, z'
loop_
 _atom_site_type_symbol
 _atom_site_label
 _atom_site_symmetry_multiplicity
 _atom_site_fract_x
 _atom_site_fract_y
 _atom_site_fract_z
 _atom_site_fract_occupancy
 C  C1  1  0.78418  0.23831  0.07332  1
 C  C2  1  0.21582  0.73831  0.42668  1
 C  C3  1  0.21582  0.76169  0.92668  1
 C  C4  1  0.78418  0.26169  0.57332  1
 H  H1  1  0.69440  0.74143  0.65437  1
 H  H2  1  0.30560  0.24143  0.84563  1
 H  H3  1  0.30560  0.25857  0.34563  1
 H  H4  1  0.69440  0.75857  0.15437  1
 Na  Na1  1  0.42483  0.50410  0.21275  1
 Na  Na2  1  0.57517  0.49590  0.78725  1
 Na  Na3  1  0.57517  0.00410  0.28725  1
 Na  Na4  1  0.42483  0.99590  0.71275  1
 O  O1  1  0.50030  0.17137  0.93533  1
 O  O2  1  0.50030  0.32863  0.43533  1
 O  O3  1  0.19492  0.86803  0.43123  1
 O  O4  1  0.80508  0.36803  0.06877  1
 O  O5  1  0.80508  0.13197  0.56877  1
 O  O6  1  0.19492  0.63197  0.93123  1
 O  O7  1  0.98818  0.66276  0.29703  1
 O  O8  1  0.01182  0.16276  0.20297  1
 O  O9  1  0.01182  0.33724  0.70297  1
 O  O10  1  0.98818  0.83724  0.79703  1
 O  O11  1  0.49970  0.67137  0.56467  1
 O  O12  1  0.49970  0.82863  0.06467  1
