CIF file written using JARVIS-Tools package.
data_CdH4C4O4
_symmetry_space_group_name_H-M  'P-1'
_cell_length_a       3.65943
_cell_length_b       4.5495
_cell_length_c       7.53195
_cell_angle_alpha    93.9174
_cell_angle_beta     91.1841
_cell_angle_gamma    105.429

_symmetry_Int_Tables_number  2
_chemical_formula_structural  CdH4C4O4
_chemical_formula_sum  CdH4C4O4
_cell_volume  120.49584797469923
_cell_formula_units_Z  1
loop_
  _symmetry_equiv_pos_site_id
 _symmetry_equiv_pos_as_xyz
 1  'x, y, z'
loop_
 _atom_site_type_symbol
 _atom_site_label
 _atom_site_symmetry_multiplicity
 _atom_site_fract_x
 _atom_site_fract_y
 _atom_site_fract_z
 _atom_site_fract_occupancy
 C  C1  1  0.03115  0.24525  0.52217  1
 C  C2  1  0.86829  0.13740  0.69676  1
 C  C3  1  0.85620  0.39200  0.83658  1
 C  C4  1  0.69334  0.28418  0.01118  1
 Cd  Cd1  1  0.36230  0.76471  0.26667  1
 H  H1  1  0.58818  0.97527  0.66875  1
 H  H2  1  0.04638  0.99755  0.74735  1
 H  H3  1  0.67812  0.53187  0.78599  1
 H  H4  1  0.13632  0.55413  0.86459  1
 O  O1  1  0.96086  0.05049  0.38487  1
 O  O2  1  0.23974  0.51545  0.51868  1
 O  O3  1  0.48466  0.01401  0.01467  1
 O  O4  1  0.76371  0.47894  0.14848  1
