CIF file written using JARVIS-Tools package.
data_Li4Cr5SbO12
_symmetry_space_group_name_H-M  'C2/m'
_cell_length_a       5.17458
_cell_length_b       5.17459
_cell_length_c       10.2453
_cell_angle_alpha    86.2989
_cell_angle_beta     86.2989
_cell_angle_gamma    120.138

_symmetry_Int_Tables_number  12
_chemical_formula_structural  Li4Cr5SbO12
_chemical_formula_sum  Li4Cr5SbO2
_cell_volume  235.25446288797022
_cell_formula_units_Z  1
loop_
  _symmetry_equiv_pos_site_id
 _symmetry_equiv_pos_as_xyz
 1  'x, y, z'
loop_
 _atom_site_type_symbol
 _atom_site_label
 _atom_site_symmetry_multiplicity
 _atom_site_fract_x
 _atom_site_fract_y
 _atom_site_fract_z
 _atom_site_fract_occupancy
 Cr  Cr1  1  0.16225  0.83775  0.50000  1
 Cr  Cr2  1  0.33512  0.66488  0.00000  1
 Cr  Cr3  1  0.50000  0.50000  0.50000  1
 Cr  Cr4  1  0.66488  0.33512  -0.00000  1
 Cr  Cr5  1  0.83775  0.16225  0.50000  1
 Li  Li1  1  0.11221  0.45060  0.71071  1
 Li  Li2  1  0.54940  0.88779  0.28929  1
 Li  Li3  1  0.45060  0.11221  0.71071  1
 Li  Li4  1  0.88779  0.54940  0.28929  1
 O  O1  1  0.63487  0.97397  0.10215  1
 O  O2  1  0.36513  0.02603  0.89785  1
 O  O3  1  0.19182  0.53821  0.39689  1
 O  O4  1  0.46179  0.80818  0.60311  1
 O  O5  1  0.97397  0.63487  0.10215  1
 O  O6  1  0.80818  0.46179  0.60311  1
 O  O7  1  0.68710  0.68710  0.90103  1
 O  O8  1  0.85164  0.85164  0.39388  1
 O  O9  1  0.53821  0.19182  0.39689  1
 O  O10  1  0.14836  0.14836  0.60612  1
 O  O11  1  0.31290  0.31290  0.09897  1
 O  O12  1  0.02603  0.36513  0.89785  1
 Sb  Sb1  1  0.00000  0.00000  0.00000  1
