CIF file written using JARVIS-Tools package.
data_Te2W
_symmetry_space_group_name_H-M  'P6_3/mmc'
_cell_length_a       3.57174
_cell_length_b       3.57181
_cell_length_c       14.2875
_cell_angle_alpha    90
_cell_angle_beta     90
_cell_angle_gamma    119.999

_symmetry_Int_Tables_number  194
_chemical_formula_structural  Te2W
_chemical_formula_sum  Te4W2
_cell_volume  157.8546012321271
_cell_formula_units_Z  2
loop_
  _symmetry_equiv_pos_site_id
 _symmetry_equiv_pos_as_xyz
 1  'x, y, z'
loop_
 _atom_site_type_symbol
 _atom_site_label
 _atom_site_symmetry_multiplicity
 _atom_site_fract_x
 _atom_site_fract_y
 _atom_site_fract_z
 _atom_site_fract_occupancy
 Te  Te1  1  0.33336  0.66671  0.87718  1
 Te  Te2  1  0.66664  0.33329  0.12282  1
 Te  Te3  1  0.66664  0.33329  0.37718  1
 Te  Te4  1  0.33336  0.66671  0.62282  1
 W  W1  1  0.33332  0.66665  0.25000  1
 W  W2  1  0.66668  0.33335  0.75000  1
