CIF file written using JARVIS-Tools package.
data_Fe4Se3Br
_symmetry_space_group_name_H-M  'I4mm'
_cell_length_a       6.62071
_cell_length_b       6.62071
_cell_length_c       6.62072
_cell_angle_alpha    133.557
_cell_angle_beta     133.557
_cell_angle_gamma    67.7803

_symmetry_Int_Tables_number  107
_chemical_formula_structural  Fe4Se3Br
_chemical_formula_sum  Fe4Se3Br
_cell_volume  149.80602011581013
_cell_formula_units_Z  1
loop_
  _symmetry_equiv_pos_site_id
 _symmetry_equiv_pos_as_xyz
 1  'x, y, z'
loop_
 _atom_site_type_symbol
 _atom_site_label
 _atom_site_symmetry_multiplicity
 _atom_site_fract_x
 _atom_site_fract_y
 _atom_site_fract_z
 _atom_site_fract_occupancy
 Br  Br1  1  0.37163  0.37163  0.00000  1
 Fe  Fe1  1  0.24903  0.24903  0.49718  1
 Fe  Fe2  1  0.75184  0.75184  0.50282  1
 Fe  Fe3  1  0.24903  0.75184  -0.00000  1
 Fe  Fe4  1  0.75184  0.24903  -0.00000  1
 Se  Se1  1  0.87311  0.87311  0.00000  1
 Se  Se2  1  0.62676  0.12676  0.50000  1
 Se  Se3  1  0.12676  0.62676  0.50000  1
