data_image0
_chemical_formula_structural       F2OSb2Sr2Ti2
_chemical_formula_sum              "F2 O1 Sb2 Sr2 Ti2"
_cell_length_a       10.8143
_cell_length_b       4.08853
_cell_length_c       4.08853
_cell_angle_alpha    90
_cell_angle_beta     100.896
_cell_angle_gamma    100.896

_space_group_name_H-M_alt    "P 1"
_space_group_IT_number       1

loop_
  _space_group_symop_operation_xyz
  'x, y, z'

loop_
  _atom_site_type_symbol
  _atom_site_label
  _atom_site_symmetry_multiplicity
  _atom_site_fract_x
  _atom_site_fract_y
  _atom_site_fract_z
  _atom_site_occupancy
  F   F1        1.0  0.50000  0.75000  0.25000  1.0000
  F   F2        1.0  0.50000  0.25000  0.75000  1.0000
  O   O1        1.0  0.00000  0.50000  0.50000  1.0000
  Sb  Sb1       1.0  0.19300  0.09650  0.09650  1.0000
  Sb  Sb2       1.0  0.80700  0.90300  0.90300  1.0000
  Sr  Sr1       1.0  0.63500  0.31700  0.31700  1.0000
  Sr  Sr2       1.0  0.36500  0.68300  0.68300  1.0000
  Ti  Ti1       1.0  0.00000  0.50000  0.00000  1.0000
  Ti  Ti2       1.0  0.00000  0.00000  0.50000  1.0000
