CIF file written using JARVIS-Tools package.
data_Sb4S3N2
_symmetry_space_group_name_H-M  'C2/m'
_cell_length_a       7.17835
_cell_length_b       3.72407
_cell_length_c       9.17356
_cell_angle_alpha    90
_cell_angle_beta     55.273
_cell_angle_gamma    74.9658

_symmetry_Int_Tables_number  12
_chemical_formula_structural  Sb4S3N2
_chemical_formula_sum  Sb4S3N2
_cell_volume  191.25021677124323
_cell_formula_units_Z  1
loop_
  _symmetry_equiv_pos_site_id
 _symmetry_equiv_pos_as_xyz
 1  'x, y, z'
loop_
 _atom_site_type_symbol
 _atom_site_label
 _atom_site_symmetry_multiplicity
 _atom_site_fract_x
 _atom_site_fract_y
 _atom_site_fract_z
 _atom_site_fract_occupancy
 N  N1  1  0.61569  0.69215  0.35913  1
 N  N2  1  0.38431  0.30785  0.64087  1
 S  S1  1  0.00000  0.00000  0.00000  1
 S  S2  1  0.70657  0.64672  0.70579  1
 S  S3  1  0.29343  0.35328  0.29421  1
 Sb  Sb1  1  0.24118  0.87941  0.59434  1
 Sb  Sb2  1  0.75882  0.12059  0.40566  1
 Sb  Sb3  1  0.62520  0.68740  0.12187  1
 Sb  Sb4  1  0.37480  0.31260  0.87813  1
