CIF file written using JARVIS-Tools package.
data_V6CoIr
_symmetry_space_group_name_H-M  'Pm-3'
_cell_length_a       4.71652
_cell_length_b       4.71652
_cell_length_c       4.71652
_cell_angle_alpha    90
_cell_angle_beta     90
_cell_angle_gamma    90

_symmetry_Int_Tables_number  200
_chemical_formula_structural  V6CoIr
_chemical_formula_sum  V6CoIr
_cell_volume  104.921606160287
_cell_formula_units_Z  1
loop_
  _symmetry_equiv_pos_site_id
 _symmetry_equiv_pos_as_xyz
 1  'x, y, z'
loop_
 _atom_site_type_symbol
 _atom_site_label
 _atom_site_symmetry_multiplicity
 _atom_site_fract_x
 _atom_site_fract_y
 _atom_site_fract_z
 _atom_site_fract_occupancy
 Co  Co1  1  0.50000  0.50000  0.50000  1
 Ir  Ir1  1  0.00000  0.00000  0.00000  1
 V  V1  1  0.00000  0.50000  0.74503  1
 V  V2  1  0.50000  0.25497  0.00000  1
 V  V3  1  0.74503  0.00000  0.50000  1
 V  V4  1  0.00000  0.50000  0.25497  1
 V  V5  1  0.50000  0.74503  0.00000  1
 V  V6  1  0.25497  0.00000  0.50000  1
