CIF file written using JARVIS-Tools package.
data_LiVF3
_symmetry_space_group_name_H-M  'Pnna'
_cell_length_a       4.86656
_cell_length_b       5.3136
_cell_length_c       8.67363
_cell_angle_alpha    90
_cell_angle_beta     90
_cell_angle_gamma    90

_symmetry_Int_Tables_number  52
_chemical_formula_structural  LiVF3
_chemical_formula_sum  Li4V4F2
_cell_volume  224.2909666529235
_cell_formula_units_Z  4
loop_
  _symmetry_equiv_pos_site_id
 _symmetry_equiv_pos_as_xyz
 1  'x, y, z'
loop_
 _atom_site_type_symbol
 _atom_site_label
 _atom_site_symmetry_multiplicity
 _atom_site_fract_x
 _atom_site_fract_y
 _atom_site_fract_z
 _atom_site_fract_occupancy
 F  F1  1  0.25000  0.05120  0.75000  1
 F  F2  1  0.77990  0.91376  0.58719  1
 F  F3  1  0.22010  0.08624  0.41281  1
 F  F4  1  0.75000  0.44880  0.75000  1
 F  F5  1  0.75000  0.94880  0.25000  1
 F  F6  1  0.77990  0.41376  0.41281  1
 F  F7  1  0.72010  0.41376  0.08719  1
 F  F8  1  0.27990  0.08624  0.08719  1
 F  F9  1  0.27990  0.58624  0.91281  1
 F  F10  1  0.22010  0.58624  0.58719  1
 F  F11  1  0.25000  0.55120  0.25000  1
 F  F12  1  0.72010  0.91376  0.91281  1
 Li  Li1  1  0.50000  0.25000  0.30365  1
 Li  Li2  1  0.50000  0.75000  0.69635  1
 Li  Li3  1  0.00000  0.75000  0.80365  1
 Li  Li4  1  0.00000  0.25000  0.19635  1
 V  V1  1  0.50000  0.25000  0.90493  1
 V  V2  1  0.50000  0.75000  0.09507  1
 V  V3  1  0.00000  0.25000  0.59507  1
 V  V4  1  0.00000  0.75000  0.40493  1
