CIF file written using JARVIS-Tools package.
data_H6C7
_symmetry_space_group_name_H-M  'P-1'
_cell_length_a       3.85098
_cell_length_b       5.39326
_cell_length_c       10.9688
_cell_angle_alpha    77.0622
_cell_angle_beta     80.1041
_cell_angle_gamma    86.1052

_symmetry_Int_Tables_number  2
_chemical_formula_structural  H6C7
_chemical_formula_sum  H2C4
_cell_volume  218.6259250898746
_cell_formula_units_Z  2
loop_
  _symmetry_equiv_pos_site_id
 _symmetry_equiv_pos_as_xyz
 1  'x, y, z'
loop_
 _atom_site_type_symbol
 _atom_site_label
 _atom_site_symmetry_multiplicity
 _atom_site_fract_x
 _atom_site_fract_y
 _atom_site_fract_z
 _atom_site_fract_occupancy
 C  C1  1  0.55409  0.91682  0.92876  1
 C  C2  1  0.92014  0.23306  0.43990  1
 C  C3  1  0.33056  0.84667  0.35297  1
 C  C4  1  0.90002  0.75366  0.75407  1
 C  C5  1  0.19238  0.81725  0.48095  1
 C  C6  1  0.76341  0.72534  0.88220  1
 C  C7  1  0.39674  0.87813  0.06751  1
 C  C8  1  0.83635  0.97716  0.66535  1
 C  C9  1  0.98364  0.00951  0.52862  1
 C  C10  1  0.42335  0.10856  0.12646  1
 C  C11  1  0.05676  0.26139  0.31177  1
 C  C12  1  0.62747  0.16937  0.71300  1
 C  C13  1  0.48935  0.13997  0.84099  1
 C  C14  1  0.26597  0.06987  0.26521  1
 H  H1  1  0.29435  0.27719  0.07358  1
 H  H2  1  0.57020  0.34764  0.64938  1
 H  H3  1  0.70396  0.15434  0.11414  1
 H  H4  1  0.11613  0.83234  0.07984  1
 H  H5  1  0.52576  0.70950  0.12038  1
 H  H6  1  0.49311  0.69212  0.32171  1
 H  H7  1  0.82049  0.54877  0.94787  1
 H  H8  1  0.24947  0.63892  0.54456  1
 H  H9  1  0.06042  0.59757  0.72409  1
 H  H10  1  0.32667  0.29447  0.87224  1
 H  H11  1  0.75989  0.38921  0.46990  1
 H  H12  1  -0.00020  0.43800  0.24611  1
