CIF file written using JARVIS-Tools package.
data_Te2MoW3Se4S2
_symmetry_space_group_name_H-M  'P3m1'
_cell_length_a       3.34521
_cell_length_b       3.34521
_cell_length_c       36.2711
_cell_angle_alpha    89.9982
_cell_angle_beta     90.0004
_cell_angle_gamma    120

_symmetry_Int_Tables_number  156
_chemical_formula_structural  Te2MoW3Se4S2
_chemical_formula_sum  Te2MoW3Se4S2
_cell_volume  351.5106706019691
_cell_formula_units_Z  1
loop_
  _symmetry_equiv_pos_site_id
 _symmetry_equiv_pos_as_xyz
 1  'x, y, z'
loop_
 _atom_site_type_symbol
 _atom_site_label
 _atom_site_symmetry_multiplicity
 _atom_site_fract_x
 _atom_site_fract_y
 _atom_site_fract_z
 _atom_site_fract_occupancy
 Mo  Mo1  1  0.33334  0.66667  0.46774  1
 S  S1  1  0.66669  0.33338  0.05758  1
 S  S2  1  0.66665  0.33330  0.14170  1
 Se  Se1  1  0.33334  0.66668  0.32139  1
 Se  Se2  1  0.33331  0.66662  0.70655  1
 Se  Se3  1  0.33335  0.66671  0.22897  1
 Se  Se4  1  0.33332  0.66664  0.61416  1
 Te  Te1  1  0.66667  0.33334  0.41530  1
 Te  Te2  1  0.66667  0.33334  0.52015  1
 W  W1  1  0.33334  0.66667  0.09963  1
 W  W2  1  0.66668  0.33336  0.27518  1
 W  W3  1  0.66665  0.33330  0.66040  1
