CIF file written using JARVIS-Tools package.
data_PrGaSi
_symmetry_space_group_name_H-M  'I4_1md'
_cell_length_a       7.791
_cell_length_b       7.791
_cell_length_c       7.791
_cell_angle_alpha    148.244
_cell_angle_beta     148.244
_cell_angle_gamma    45.5257

_symmetry_Int_Tables_number  109
_chemical_formula_structural  PrGaSi
_chemical_formula_sum  Pr2Ga2Si2
_cell_volume  130.56627818684075
_cell_formula_units_Z  2
loop_
  _symmetry_equiv_pos_site_id
 _symmetry_equiv_pos_as_xyz
 1  'x, y, z'
loop_
 _atom_site_type_symbol
 _atom_site_label
 _atom_site_symmetry_multiplicity
 _atom_site_fract_x
 _atom_site_fract_y
 _atom_site_fract_z
 _atom_site_fract_occupancy
 Ga  Ga1  1  0.45848  0.45848  -0.00000  1
 Ga  Ga2  1  0.20848  0.70848  0.50000  1
 Pr  Pr1  1  0.62507  0.12507  0.50000  1
 Pr  Pr2  1  0.87507  0.87507  0.00000  1
 Si  Si1  1  0.04145  0.54145  0.50000  1
 Si  Si2  1  0.29145  0.29145  -0.00000  1
