CIF file written using JARVIS-Tools package.
data_U2Cl5O2
_symmetry_space_group_name_H-M  'Cmmm'
_cell_length_a       4.12327
_cell_length_b       8.05871
_cell_length_c       8.05871
_cell_angle_alpha    116.727
_cell_angle_beta     90
_cell_angle_gamma    90

_symmetry_Int_Tables_number  65
_chemical_formula_structural  U2Cl5O2
_chemical_formula_sum  U2Cl5O2
_cell_volume  239.16730595888433
_cell_formula_units_Z  1
loop_
  _symmetry_equiv_pos_site_id
 _symmetry_equiv_pos_as_xyz
 1  'x, y, z'
loop_
 _atom_site_type_symbol
 _atom_site_label
 _atom_site_symmetry_multiplicity
 _atom_site_fract_x
 _atom_site_fract_y
 _atom_site_fract_z
 _atom_site_fract_occupancy
 Cl  Cl1  1  0.00000  0.17271  0.44842  1
 Cl  Cl2  1  0.00000  0.82729  0.55158  1
 Cl  Cl3  1  0.00000  0.00000  0.00000  1
 Cl  Cl4  1  0.00000  0.44842  0.17271  1
 Cl  Cl5  1  0.00000  0.55158  0.82729  1
 O  O1  1  0.50000  0.80012  0.19988  1
 O  O2  1  0.50000  0.19988  0.80012  1
 U  U1  1  0.00000  0.80045  0.19955  1
 U  U2  1  0.00000  0.19955  0.80045  1
