CIF file written using JARVIS-Tools package.
data_H3C6S2NO
_symmetry_space_group_name_H-M  'P1'
_cell_length_a       4.62201
_cell_length_b       7.64482
_cell_length_c       9.76177
_cell_angle_alpha    71.4921
_cell_angle_beta     82.4791
_cell_angle_gamma    73.4419

_symmetry_Int_Tables_number  1
_chemical_formula_structural  H3C6S2NO
_chemical_formula_sum  H6C2S4N2O2
_cell_volume  313.212588274107
_cell_formula_units_Z  2
loop_
  _symmetry_equiv_pos_site_id
 _symmetry_equiv_pos_as_xyz
 1  'x, y, z'
loop_
 _atom_site_type_symbol
 _atom_site_label
 _atom_site_symmetry_multiplicity
 _atom_site_fract_x
 _atom_site_fract_y
 _atom_site_fract_z
 _atom_site_fract_occupancy
 C  C1  1  0.52670  0.47845  0.93352  1
 C  C2  1  0.52670  0.97845  0.43352  1
 C  C3  1  0.47452  0.50926  0.16863  1
 C  C4  1  0.47452  0.00925  0.66863  1
 C  C5  1  0.64646  0.41415  0.07154  1
 C  C6  1  0.64646  0.91415  0.57154  1
 C  C7  1  0.61874  0.92812  0.30388  1
 C  C8  1  0.61874  0.42812  0.80388  1
 C  C9  1  0.90013  0.76847  0.29762  1
 C  C10  1  0.90013  0.26847  0.79762  1
 C  C11  1  0.22107  0.14830  0.60451  1
 C  C12  1  0.22106  0.64830  0.10451  1
 H  H1  1  0.52748  0.48065  0.28010  1
 H  H2  1  0.85708  0.38249  0.58263  1
 H  H3  1  0.85708  0.88249  0.08263  1
 H  H4  1  0.85552  0.80288  0.59794  1
 H  H5  1  0.85552  0.30288  0.09794  1
 H  H6  1  0.52748  0.98065  0.78010  1
 N  N1  1  0.99498  0.77302  0.15701  1
 N  N2  1  0.99498  0.27302  0.65701  1
 O  O1  1  0.02426  0.14541  0.90433  1
 O  O2  1  0.02426  0.64541  0.40433  1
 S  S1  1  0.41369  0.53975  0.65645  1
 S  S2  1  0.41369  0.03975  0.15645  1
 S  S3  1  0.19541  0.66200  0.92577  1
 S  S4  1  0.19541  0.16200  0.42577  1
