CIF file written using JARVIS-Tools package.
data_OsPt4
_symmetry_space_group_name_H-M  'R-3m'
_cell_length_a       11.526
_cell_length_b       11.526
_cell_length_c       11.526
_cell_angle_alpha    13.9322
_cell_angle_beta     13.9322
_cell_angle_gamma    13.9322

_symmetry_Int_Tables_number  166
_chemical_formula_structural  OsPt4
_chemical_formula_sum  OsPt4
_cell_volume  77.254823881447
_cell_formula_units_Z  1
loop_
  _symmetry_equiv_pos_site_id
 _symmetry_equiv_pos_as_xyz
 1  'x, y, z'
loop_
 _atom_site_type_symbol
 _atom_site_label
 _atom_site_symmetry_multiplicity
 _atom_site_fract_x
 _atom_site_fract_y
 _atom_site_fract_z
 _atom_site_fract_occupancy
 Os  Os1  1  0.00000  0.00000  0.00000  1
 Pt  Pt1  1  0.60262  0.60262  0.60262  1
 Pt  Pt2  1  0.20092  0.20092  0.20092  1
 Pt  Pt3  1  0.79908  0.79908  0.79908  1
 Pt  Pt4  1  0.39738  0.39738  0.39738  1
