CIF file written using JARVIS-Tools package.
data_V6O7F5
_symmetry_space_group_name_H-M  'P1'
_cell_length_a       4.63875
_cell_length_b       5.56774
_cell_length_c       7.58275
_cell_angle_alpha    85.4537
_cell_angle_beta     89.0498
_cell_angle_gamma    89.5629

_symmetry_Int_Tables_number  1
_chemical_formula_structural  V6O7F5
_chemical_formula_sum  V6O7F5
_cell_volume  195.1953323711012
_cell_formula_units_Z  1
loop_
  _symmetry_equiv_pos_site_id
 _symmetry_equiv_pos_as_xyz
 1  'x, y, z'
loop_
 _atom_site_type_symbol
 _atom_site_label
 _atom_site_symmetry_multiplicity
 _atom_site_fract_x
 _atom_site_fract_y
 _atom_site_fract_z
 _atom_site_fract_occupancy
 F  F1  1  0.20373  0.63998  0.55820  1
 F  F2  1  0.70233  0.54147  0.75975  1
 F  F3  1  0.79815  0.04254  0.76786  1
 F  F4  1  0.20774  0.95640  0.23971  1
 F  F5  1  0.29463  0.46053  0.24005  1
 O  O1  1  0.70494  0.86318  0.43704  1
 O  O2  1  0.80510  0.36883  0.43685  1
 O  O3  1  0.79302  0.69625  0.09971  1
 O  O4  1  0.69518  0.19946  0.10756  1
 O  O5  1  0.30150  0.13847  0.56475  1
 O  O6  1  0.19492  0.29678  0.89902  1
 O  O7  1  0.30139  0.79702  0.89354  1
 V  V1  1  0.00789  0.00071  0.00477  1
 V  V2  1  0.94535  0.65604  0.32255  1
 V  V3  1  0.02691  0.33222  0.66381  1
 V  V4  1  0.54695  0.15656  0.34315  1
 V  V5  1  0.49003  0.49369  0.99717  1
 V  V6  1  0.48024  0.85986  0.66452  1
