CIF file written using JARVIS-Tools package.
data_CeP2Pt2
_symmetry_space_group_name_H-M  'I4/mmm'
_cell_length_a       10.091
_cell_length_b       10.091
_cell_length_c       10.091
_cell_angle_alpha    155.282
_cell_angle_beta     155.282
_cell_angle_gamma    35.2393

_symmetry_Int_Tables_number  139
_chemical_formula_structural  CeP2Pt2
_chemical_formula_sum  Ce2P4Pt4
_cell_volume  179.46466721460285
_cell_formula_units_Z  2
loop_
  _symmetry_equiv_pos_site_id
 _symmetry_equiv_pos_as_xyz
 1  'x, y, z'
loop_
 _atom_site_type_symbol
 _atom_site_label
 _atom_site_symmetry_multiplicity
 _atom_site_fract_x
 _atom_site_fract_y
 _atom_site_fract_z
 _atom_site_fract_occupancy
 Ce  Ce1  1  0.37356  0.37356  0.00000  1
 Ce  Ce2  1  0.62644  0.62644  -0.00000  1
 P  P1  1  0.07081  0.07081  -0.00000  1
 P  P2  1  0.92919  0.92919  0.00000  1
 P  P3  1  0.75000  0.25000  0.50000  1
 P  P4  1  0.25000  0.75000  0.50000  1
 Pt  Pt1  1  0.19320  0.19320  0.00000  1
 Pt  Pt2  1  0.80680  0.80680  -0.00000  1
 Pt  Pt3  1  0.50000  0.00000  0.50000  1
 Pt  Pt4  1  -0.00000  0.50000  0.50000  1
