CIF file written using JARVIS-Tools package.
data_TbFe2SiC
_symmetry_space_group_name_H-M  'Cmcm'
_cell_length_a       5.55131
_cell_length_b       5.5513
_cell_length_c       6.72042
_cell_angle_alpha    90
_cell_angle_beta     90
_cell_angle_gamma    140.414

_symmetry_Int_Tables_number  63
_chemical_formula_structural  TbFe2SiC
_chemical_formula_sum  Tb2Fe4Si2C2
_cell_volume  131.97306248565218
_cell_formula_units_Z  2
loop_
  _symmetry_equiv_pos_site_id
 _symmetry_equiv_pos_as_xyz
 1  'x, y, z'
loop_
 _atom_site_type_symbol
 _atom_site_label
 _atom_site_symmetry_multiplicity
 _atom_site_fract_x
 _atom_site_fract_y
 _atom_site_fract_z
 _atom_site_fract_occupancy
 C  C1  1  0.00000  0.00000  0.00000  1
 C  C2  1  0.00000  0.00000  0.50000  1
 Fe  Fe1  1  0.83489  0.16511  0.06256  1
 Fe  Fe2  1  0.16511  0.83489  0.93744  1
 Fe  Fe3  1  0.16511  0.83489  0.56256  1
 Fe  Fe4  1  0.83489  0.16511  0.43744  1
 Si  Si1  1  0.27105  0.72895  0.25000  1
 Si  Si2  1  0.72895  0.27105  0.75000  1
 Tb  Tb1  1  0.55145  0.44855  0.25000  1
 Tb  Tb2  1  0.44855  0.55145  0.75000  1
