CIF file written using JARVIS-Tools package.
data_As
_symmetry_space_group_name_H-M  'R-3m'
_cell_length_a       4.26009
_cell_length_b       4.26009
_cell_length_c       4.26009
_cell_angle_alpha    53.2153
_cell_angle_beta     53.2154
_cell_angle_gamma    53.2153

_symmetry_Int_Tables_number  166
_chemical_formula_structural  As
_chemical_formula_sum  As2
_cell_volume  45.98128697668464
_cell_formula_units_Z  2
loop_
  _symmetry_equiv_pos_site_id
 _symmetry_equiv_pos_as_xyz
 1  'x, y, z'
loop_
 _atom_site_type_symbol
 _atom_site_label
 _atom_site_symmetry_multiplicity
 _atom_site_fract_x
 _atom_site_fract_y
 _atom_site_fract_z
 _atom_site_fract_occupancy
 As  As1  1  0.22607  0.22607  0.22607  1
 As  As2  1  0.77393  0.77393  0.77393  1
