CIF file written using JARVIS-Tools package.
data_YBiTe3
_symmetry_space_group_name_H-M  'R3m'
_cell_length_a       10.7529
_cell_length_b       10.7529
_cell_length_c       10.7529
_cell_angle_alpha    23.5756
_cell_angle_beta     23.5756
_cell_angle_gamma    23.5756

_symmetry_Int_Tables_number  160
_chemical_formula_structural  YBiTe3
_chemical_formula_sum  YBiTe3
_cell_volume  174.67176377333814
_cell_formula_units_Z  1
loop_
  _symmetry_equiv_pos_site_id
 _symmetry_equiv_pos_as_xyz
 1  'x, y, z'
loop_
 _atom_site_type_symbol
 _atom_site_label
 _atom_site_symmetry_multiplicity
 _atom_site_fract_x
 _atom_site_fract_y
 _atom_site_fract_z
 _atom_site_fract_occupancy
 Bi  Bi1  1  0.39963  0.39963  0.39963  1
 Te  Te1  1  0.99560  0.99560  0.99560  1
 Te  Te2  1  0.78761  0.78761  0.78761  1
 Te  Te3  1  0.21591  0.21591  0.21591  1
 Y  Y1  1  0.60124  0.60124  0.60124  1
