CIF file written using JARVIS-Tools package.
data_Na6MnO4
_symmetry_space_group_name_H-M  'P4_2/nmc'
_cell_length_a       7.48475
_cell_length_b       7.48475
_cell_length_c       5.44826
_cell_angle_alpha    90
_cell_angle_beta     90
_cell_angle_gamma    90

_symmetry_Int_Tables_number  137
_chemical_formula_structural  Na6MnO4
_chemical_formula_sum  Na2Mn2O8
_cell_volume  305.2198433512863
_cell_formula_units_Z  2
loop_
  _symmetry_equiv_pos_site_id
 _symmetry_equiv_pos_as_xyz
 1  'x, y, z'
loop_
 _atom_site_type_symbol
 _atom_site_label
 _atom_site_symmetry_multiplicity
 _atom_site_fract_x
 _atom_site_fract_y
 _atom_site_fract_z
 _atom_site_fract_occupancy
 Mn  Mn1  1  0.50000  0.50000  0.00000  1
 Mn  Mn2  1  0.00000  0.00000  0.50000  1
 Na  Na1  1  0.78784  0.78784  0.00000  1
 Na  Na2  1  0.21216  0.21216  0.00000  1
 Na  Na3  1  0.50000  0.00000  0.91682  1
 Na  Na4  1  0.50000  0.00000  0.41682  1
 Na  Na5  1  0.78784  0.21216  0.00000  1
 Na  Na6  1  0.21216  0.78784  0.00000  1
 Na  Na7  1  0.28784  0.28784  0.50000  1
 Na  Na8  1  0.71216  0.28784  0.50000  1
 Na  Na9  1  0.00000  0.50000  0.58318  1
 Na  Na10  1  0.00000  0.50000  0.08318  1
 Na  Na11  1  0.71216  0.71216  0.50000  1
 Na  Na12  1  0.28784  0.71216  0.50000  1
 O  O1  1  0.25297  0.50000  0.81596  1
 O  O2  1  0.74703  0.50000  0.81596  1
 O  O3  1  0.50000  0.74703  0.18404  1
 O  O4  1  0.24703  0.00000  0.68404  1
 O  O5  1  0.75297  0.00000  0.68404  1
 O  O6  1  0.50000  0.25297  0.18404  1
 O  O7  1  0.00000  0.24703  0.31596  1
 O  O8  1  0.00000  0.75297  0.31596  1
