CIF file written using JARVIS-Tools package.
data_Li6Mn5SbO12
_symmetry_space_group_name_H-M  'C2/m'
_cell_length_a       5.25386
_cell_length_b       5.25386
_cell_length_c       10.3561
_cell_angle_alpha    85.3441
_cell_angle_beta     85.3442
_cell_angle_gamma    116.527

_symmetry_Int_Tables_number  12
_chemical_formula_structural  Li6Mn5SbO12
_chemical_formula_sum  Li6Mn5SbO2
_cell_volume  252.70243507292028
_cell_formula_units_Z  1
loop_
  _symmetry_equiv_pos_site_id
 _symmetry_equiv_pos_as_xyz
 1  'x, y, z'
loop_
 _atom_site_type_symbol
 _atom_site_label
 _atom_site_symmetry_multiplicity
 _atom_site_fract_x
 _atom_site_fract_y
 _atom_site_fract_z
 _atom_site_fract_occupancy
 Li  Li1  1  0.59301  0.92644  0.28802  1
 Li  Li2  1  0.74143  0.74143  0.71638  1
 Li  Li3  1  0.07356  0.40699  0.71198  1
 Li  Li4  1  0.92644  0.59301  0.28802  1
 Li  Li5  1  0.25857  0.25857  0.28362  1
 Li  Li6  1  0.40699  0.07356  0.71198  1
 Mn  Mn1  1  0.16467  0.83533  0.50000  1
 Mn  Mn2  1  0.50000  0.50000  0.50000  1
 Mn  Mn3  1  0.83533  0.16467  0.50000  1
 Mn  Mn4  1  0.33340  0.66660  -0.00000  1
 Mn  Mn5  1  0.66660  0.33340  0.00000  1
 O  O1  1  0.56977  0.24487  0.38658  1
 O  O2  1  0.09301  0.09301  0.61711  1
 O  O3  1  0.75513  0.43023  0.61342  1
 O  O4  1  0.29493  0.29493  0.09858  1
 O  O5  1  0.70507  0.70507  0.90142  1
 O  O6  1  0.66061  0.99036  0.10675  1
 O  O7  1  0.90699  0.90699  0.38289  1
 O  O8  1  0.43023  0.75513  0.61342  1
 O  O9  1  0.99036  0.66061  0.10675  1
 O  O10  1  0.33939  0.00964  0.89325  1
 O  O11  1  0.00964  0.33939  0.89325  1
 O  O12  1  0.24487  0.56977  0.38658  1
 Sb  Sb1  1  0.00000  0.00000  0.00000  1
