CIF file written using JARVIS-Tools package.
data_MnCrP2
_symmetry_space_group_name_H-M  'Pmc2_1'
_cell_length_a       3.05525
_cell_length_b       5.32891
_cell_length_c       5.94095
_cell_angle_alpha    90
_cell_angle_beta     90
_cell_angle_gamma    90

_symmetry_Int_Tables_number  26
_chemical_formula_structural  MnCrP2
_chemical_formula_sum  Mn2Cr2P4
_cell_volume  96.72554275423917
_cell_formula_units_Z  2
loop_
  _symmetry_equiv_pos_site_id
 _symmetry_equiv_pos_as_xyz
 1  'x, y, z'
loop_
 _atom_site_type_symbol
 _atom_site_label
 _atom_site_symmetry_multiplicity
 _atom_site_fract_x
 _atom_site_fract_y
 _atom_site_fract_z
 _atom_site_fract_occupancy
 Cr  Cr1  1  0.50000  0.49536  0.05119  1
 Cr  Cr2  1  0.50000  0.99536  0.94881  1
 Mn  Mn1  1  0.00000  0.50646  0.44353  1
 Mn  Mn2  1  0.00000  0.00646  0.55647  1
 P  P1  1  0.50000  0.30798  0.67946  1
 P  P2  1  0.50000  0.80798  0.32054  1
 P  P3  1  0.00000  0.69020  0.81039  1
 P  P4  1  0.00000  0.19020  0.18961  1
