CIF file written using JARVIS-Tools package.
data_HCF
_symmetry_space_group_name_H-M  'Amm2'
_cell_length_a       2.57415
_cell_length_b       8.18798
_cell_length_c       4.51423
_cell_angle_alpha    90
_cell_angle_beta     90
_cell_angle_gamma    90

_symmetry_Int_Tables_number  38
_chemical_formula_structural  HCF
_chemical_formula_sum  H4C4F4
_cell_volume  95.14702562532331
_cell_formula_units_Z  4
loop_
  _symmetry_equiv_pos_site_id
 _symmetry_equiv_pos_as_xyz
 1  'x, y, z'
loop_
 _atom_site_type_symbol
 _atom_site_label
 _atom_site_symmetry_multiplicity
 _atom_site_fract_x
 _atom_site_fract_y
 _atom_site_fract_z
 _atom_site_fract_occupancy
 C  C1  1  0.00000  0.00000  0.99235  1
 C  C2  1  0.00000  0.50000  0.49235  1
 C  C3  1  0.50000  0.00000  0.17437  1
 C  C4  1  0.50000  0.50000  0.67436  1
 F  F1  1  0.50000  0.86444  0.36522  1
 F  F2  1  0.50000  0.36444  0.86522  1
 F  F3  1  0.50000  0.13556  0.36522  1
 F  F4  1  0.50000  0.63556  0.86522  1
 H  H1  1  0.00000  0.89182  0.84943  1
 H  H2  1  0.00000  0.39182  0.34942  1
 H  H3  1  0.00000  0.10818  0.84943  1
 H  H4  1  0.00000  0.60818  0.34942  1
