CIF file written using JARVIS-Tools package.
data_Yb2Mg
_symmetry_space_group_name_H-M  'Cmcm'
_cell_length_a       9.28199
_cell_length_b       9.28199
_cell_length_c       5.78674
_cell_angle_alpha    90
_cell_angle_beta     90
_cell_angle_gamma    156.958

_symmetry_Int_Tables_number  63
_chemical_formula_structural  Yb2Mg
_chemical_formula_sum  Yb4Mg2
_cell_volume  195.133855524355
_cell_formula_units_Z  2
loop_
  _symmetry_equiv_pos_site_id
 _symmetry_equiv_pos_as_xyz
 1  'x, y, z'
loop_
 _atom_site_type_symbol
 _atom_site_label
 _atom_site_symmetry_multiplicity
 _atom_site_fract_x
 _atom_site_fract_y
 _atom_site_fract_z
 _atom_site_fract_occupancy
 Mg  Mg1  1  0.93784  0.06216  0.75000  1
 Mg  Mg2  1  0.06216  0.93784  0.25000  1
 Yb  Yb1  1  0.59330  0.40670  0.75000  1
 Yb  Yb2  1  0.28036  0.71964  0.75000  1
 Yb  Yb3  1  0.40670  0.59330  0.25000  1
 Yb  Yb4  1  0.71964  0.28036  0.25000  1
