CIF file written using JARVIS-Tools package.
data_CdH14C9O4
_symmetry_space_group_name_H-M  'P1'
_cell_length_a       3.9923
_cell_length_b       4.53706
_cell_length_c       12.8042
_cell_angle_alpha    87.5244
_cell_angle_beta     81.5911
_cell_angle_gamma    73.5334

_symmetry_Int_Tables_number  1
_chemical_formula_structural  CdH14C9O4
_chemical_formula_sum  CdH4C9O4
_cell_volume  220.0218103509024
_cell_formula_units_Z  1
loop_
  _symmetry_equiv_pos_site_id
 _symmetry_equiv_pos_as_xyz
 1  'x, y, z'
loop_
 _atom_site_type_symbol
 _atom_site_label
 _atom_site_symmetry_multiplicity
 _atom_site_fract_x
 _atom_site_fract_y
 _atom_site_fract_z
 _atom_site_fract_occupancy
 C  C1  1  0.13040  0.38186  0.67143  1
 C  C2  1  0.22823  0.01145  0.31605  1
 C  C3  1  0.31078  0.84787  0.41889  1
 C  C4  1  0.05427  0.23064  0.57584  1
 C  C5  1  0.37945  0.03985  0.50537  1
 C  C6  1  0.27566  0.15151  0.75610  1
 C  C7  1  0.30842  0.30081  0.85789  1
 C  C8  1  0.53326  0.07375  0.92720  1
 C  C9  1  0.61522  0.15415  0.01889  1
 Cd  Cd1  1  0.88416  0.50144  0.16623  1
 H  H1  1  0.53869  0.18752  0.46846  1
 H  H2  1  0.54013  0.64905  0.39913  1
 H  H3  1  0.08868  0.75328  0.44755  1
 H  H4  1  0.53728  0.00272  0.72440  1
 H  H5  1  0.12567  0.91897  0.01701  1
 H  H6  1  0.68742  0.85186  0.89365  1
 H  H7  1  0.54525  0.87577  0.55562  1
 H  H8  1  0.89526  0.40659  0.52760  1
 H  H9  1  0.88186  0.54349  0.70741  1
 H  H10  1  0.31321  0.52157  0.64607  1
 H  H11  1  0.04219  0.40825  0.89990  1
 H  H12  1  0.42614  0.49264  0.83743  1
 H  H13  1  0.89009  0.08003  0.60594  1
 H  H14  1  0.10532  -0.00194  0.77548  1
 O  O1  1  0.01064  0.28235  0.32018  1
 O  O2  1  0.89779  0.95717  0.06572  1
 O  O3  1  0.36477  0.87416  0.22899  1
 O  O4  1  0.46549  0.40813  0.07342  1
