CIF file written using JARVIS-Tools package.
data_Y2AlRu
_symmetry_space_group_name_H-M  'Fm-3m'
_cell_length_a       4.95086
_cell_length_b       4.95086
_cell_length_c       4.95086
_cell_angle_alpha    60
_cell_angle_beta     60
_cell_angle_gamma    60

_symmetry_Int_Tables_number  225
_chemical_formula_structural  Y2AlRu
_chemical_formula_sum  Y2AlRu
_cell_volume  85.80764409092258
_cell_formula_units_Z  1
loop_
  _symmetry_equiv_pos_site_id
 _symmetry_equiv_pos_as_xyz
 1  'x, y, z'
loop_
 _atom_site_type_symbol
 _atom_site_label
 _atom_site_symmetry_multiplicity
 _atom_site_fract_x
 _atom_site_fract_y
 _atom_site_fract_z
 _atom_site_fract_occupancy
 Al  Al1  1  0.00000  0.00000  0.00000  1
 Ru  Ru1  1  0.50000  0.50000  0.50000  1
 Y  Y1  1  0.75000  0.75000  0.75000  1
 Y  Y2  1  0.25000  0.25000  0.25000  1
