CIF file written using JARVIS-Tools package.
data_CsCu3O2
_symmetry_space_group_name_H-M  'P-3m1'
_cell_length_a       5.18847
_cell_length_b       5.18785
_cell_length_c       5.45587
_cell_angle_alpha    90.0161
_cell_angle_beta     89.9974
_cell_angle_gamma    119.999

_symmetry_Int_Tables_number  164
_chemical_formula_structural  CsCu3O2
_chemical_formula_sum  CsCu3O2
_cell_volume  127.18140597695987
_cell_formula_units_Z  1
loop_
  _symmetry_equiv_pos_site_id
 _symmetry_equiv_pos_as_xyz
 1  'x, y, z'
loop_
 _atom_site_type_symbol
 _atom_site_label
 _atom_site_symmetry_multiplicity
 _atom_site_fract_x
 _atom_site_fract_y
 _atom_site_fract_z
 _atom_site_fract_occupancy
 Cs  Cs1  1  0.00000  0.00000  0.50000  1
 Cu  Cu1  1  0.50000  0.50000  -0.00000  1
 Cu  Cu2  1  -0.00000  0.50000  -0.00000  1
 Cu  Cu3  1  0.50000  0.00000  -0.00000  1
 O  O1  1  0.66667  0.33328  0.79851  1
 O  O2  1  0.33333  0.66672  0.20149  1
