CIF file written using JARVIS-Tools package.
data_BaLaFeO4
_symmetry_space_group_name_H-M  'I4mm'
_cell_length_a       7.46059
_cell_length_b       7.46059
_cell_length_c       7.46059
_cell_angle_alpha    150.349
_cell_angle_beta     150.349
_cell_angle_gamma    42.4293

_symmetry_Int_Tables_number  107
_chemical_formula_structural  BaLaFeO4
_chemical_formula_sum  BaLaFeO4
_cell_volume  101.38195374270562
_cell_formula_units_Z  1
loop_
  _symmetry_equiv_pos_site_id
 _symmetry_equiv_pos_as_xyz
 1  'x, y, z'
loop_
 _atom_site_type_symbol
 _atom_site_label
 _atom_site_symmetry_multiplicity
 _atom_site_fract_x
 _atom_site_fract_y
 _atom_site_fract_z
 _atom_site_fract_occupancy
 Ba  Ba1  1  0.64520  0.64520  0.00000  1
 Fe  Fe1  1  0.98757  0.98757  0.00000  1
 La  La1  1  0.35727  0.35727  0.00000  1
 O  O1  1  0.83851  0.83851  -0.00000  1
 O  O2  1  0.19331  0.19331  -0.00000  1
 O  O3  1  0.48907  0.98907  0.50000  1
 O  O4  1  0.98907  0.48907  0.50000  1
