CIF file written using JARVIS-Tools package.
data_H5C6S2N
_symmetry_space_group_name_H-M  'P1'
_cell_length_a       5.438
_cell_length_b       5.61994
_cell_length_c       6.01709
_cell_angle_alpha    62.3002
_cell_angle_beta     82.3892
_cell_angle_gamma    71.8952

_symmetry_Int_Tables_number  1
_chemical_formula_structural  H5C6S2N
_chemical_formula_sum  H5C6S2N
_cell_volume  154.7378019783631
_cell_formula_units_Z  1
loop_
  _symmetry_equiv_pos_site_id
 _symmetry_equiv_pos_as_xyz
 1  'x, y, z'
loop_
 _atom_site_type_symbol
 _atom_site_label
 _atom_site_symmetry_multiplicity
 _atom_site_fract_x
 _atom_site_fract_y
 _atom_site_fract_z
 _atom_site_fract_occupancy
 C  C1  1  0.89764  0.13731  0.69031  1
 C  C2  1  0.08207  0.13485  0.50003  1
 C  C3  1  0.06221  0.97240  0.39206  1
 C  C4  1  0.73959  0.97249  0.72861  1
 C  C5  1  0.39060  0.04262  0.02339  1
 C  C6  1  0.24468  0.85898  0.23244  1
 H  H1  1  0.14279  0.77826  0.14672  1
 H  H2  1  0.88729  0.24853  0.80001  1
 H  H3  1  0.23088  0.24308  0.44987  1
 H  H4  1  0.39280  0.67045  0.36024  1
 H  H5  1  0.55092  0.69021  0.97764  1
 N  N1  1  0.55910  0.89186  0.91664  1
 S  S1  1  0.80891  0.82734  0.52116  1
 S  S2  1  0.34277  0.38193  0.92881  1
