CIF file written using JARVIS-Tools package.
data_LiBi3Br2O4
_symmetry_space_group_name_H-M  'Amm2'
_cell_length_a       6.87159
_cell_length_b       6.87159
_cell_length_c       5.54428
_cell_angle_alpha    90
_cell_angle_beta     90
_cell_angle_gamma    132.367

_symmetry_Int_Tables_number  38
_chemical_formula_structural  LiBi3Br2O4
_chemical_formula_sum  LiBi3Br2O4
_cell_volume  193.42493387735934
_cell_formula_units_Z  1
loop_
  _symmetry_equiv_pos_site_id
 _symmetry_equiv_pos_as_xyz
 1  'x, y, z'
loop_
 _atom_site_type_symbol
 _atom_site_label
 _atom_site_symmetry_multiplicity
 _atom_site_fract_x
 _atom_site_fract_y
 _atom_site_fract_z
 _atom_site_fract_occupancy
 Bi  Bi1  1  0.15335  0.84665  0.00000  1
 Bi  Bi2  1  0.83661  0.16339  0.00000  1
 Bi  Bi3  1  0.33973  0.66027  0.50000  1
 Br  Br1  1  0.49682  0.50318  0.00000  1
 Br  Br2  1  0.98995  0.01005  0.50000  1
 Li  Li1  1  0.69895  0.30105  0.50000  1
 O  O1  1  0.49412  0.00182  0.75117  1
 O  O2  1  -0.00182  0.50588  0.24883  1
 O  O3  1  -0.00182  0.50588  0.75117  1
 O  O4  1  0.49412  0.00182  0.24883  1
