CIF file written using JARVIS-Tools package.
data_ZnH6C5O4
_symmetry_space_group_name_H-M  'P1'
_cell_length_a       3.89241
_cell_length_b       4.67487
_cell_length_c       8.35355
_cell_angle_alpha    87.7961
_cell_angle_beta     95.8859
_cell_angle_gamma    69.0163

_symmetry_Int_Tables_number  1
_chemical_formula_structural  ZnH6C5O4
_chemical_formula_sum  ZnH6C5O4
_cell_volume  140.71330682725332
_cell_formula_units_Z  1
loop_
  _symmetry_equiv_pos_site_id
 _symmetry_equiv_pos_as_xyz
 1  'x, y, z'
loop_
 _atom_site_type_symbol
 _atom_site_label
 _atom_site_symmetry_multiplicity
 _atom_site_fract_x
 _atom_site_fract_y
 _atom_site_fract_z
 _atom_site_fract_occupancy
 C  C1  1  0.32255  -0.01176  0.53795  1
 C  C2  1  0.28780  0.21038  0.39585  1
 C  C3  1  0.43507  0.05596  0.24559  1
 C  C4  1  0.38362  0.29953  0.10913  1
 C  C5  1  0.51191  0.18659  0.95059  1
 H  H1  1  -0.00282  0.36659  0.37006  1
 H  H2  1  0.44787  0.35117  0.43956  1
 H  H3  1  0.28349  0.90735  0.20628  1
 H  H4  1  0.09306  0.45651  0.08488  1
 H  H5  1  0.72841  0.90767  0.27448  1
 H  H6  1  0.53785  0.44884  0.14565  1
 O  O1  1  0.06402  0.06170  0.62742  1
 O  O2  1  0.61050  0.74012  0.56491  1
 O  O3  1  0.73947  0.90947  0.95014  1
 O  O4  1  0.40768  0.37063  0.82342  1
 Zn  Zn1  1  0.96685  0.73870  0.75451  1
