CIF file written using JARVIS-Tools package.
data_H8C9O
_symmetry_space_group_name_H-M  'P1'
_cell_length_a       5.79127
_cell_length_b       7.45646
_cell_length_c       8.33384
_cell_angle_alpha    107.157
_cell_angle_beta     106.922
_cell_angle_gamma    94.7895

_symmetry_Int_Tables_number  1
_chemical_formula_structural  H8C9O
_chemical_formula_sum  H6C8O2
_cell_volume  323.2747426863543
_cell_formula_units_Z  2
loop_
  _symmetry_equiv_pos_site_id
 _symmetry_equiv_pos_as_xyz
 1  'x, y, z'
loop_
 _atom_site_type_symbol
 _atom_site_label
 _atom_site_symmetry_multiplicity
 _atom_site_fract_x
 _atom_site_fract_y
 _atom_site_fract_z
 _atom_site_fract_occupancy
 C  C1  1  0.53150  0.79320  0.72767  1
 C  C2  1  0.40575  0.62762  0.58638  1
 C  C3  1  0.90575  0.62761  0.08638  1
 C  C4  1  0.25547  0.22032  0.36561  1
 C  C5  1  0.75547  0.22032  0.86561  1
 C  C6  1  0.76636  0.87855  0.74531  1
 C  C7  1  0.51186  0.54146  0.45882  1
 C  C8  1  0.39529  0.06251  0.39793  1
 C  C9  1  0.87217  0.79312  0.61806  1
 C  C10  1  0.37217  0.79312  0.11806  1
 C  C11  1  0.74786  0.62448  0.47775  1
 C  C12  1  0.24786  0.62448  0.97775  1
 C  C13  1  0.36860  0.36439  0.30095  1
 C  C14  1  0.86860  0.36439  0.80095  1
 C  C15  1  0.89529  0.06251  0.89793  1
 C  C16  1  0.01186  0.54146  0.95882  1
 C  C17  1  0.26636  0.87855  0.24531  1
 C  C18  1  0.03150  0.79320  0.22767  1
 H  H1  1  0.72352  0.56322  0.07518  1
 H  H2  1  0.58786  0.09825  0.40757  1
 H  H3  1  0.44635  0.85906  0.82532  1
 H  H4  1  0.94634  0.85905  0.32532  1
 H  H5  1  0.83498  0.55638  0.38206  1
 H  H6  1  0.05459  0.85811  0.62954  1
 H  H7  1  0.55459  0.85811  0.12954  1
 H  H8  1  0.21890  0.40589  0.21140  1
 H  H9  1  0.71890  0.40589  0.71140  1
 H  H10  1  0.08786  0.09825  0.90757  1
 H  H11  1  0.48930  0.30279  0.22767  1
 H  H12  1  -0.01070  0.30279  0.72767  1
 H  H13  1  0.38756  0.04702  0.52356  1
 H  H14  1  0.88756  0.04702  0.02356  1
 H  H15  1  0.22352  0.56322  0.57518  1
 H  H16  1  0.33498  0.55638  0.88206  1
 O  O1  1  0.55664  0.22941  0.89049  1
 O  O2  1  0.05664  0.22941  0.39049  1
