CIF file written using JARVIS-Tools package.
data_ZnH12C8O4
_symmetry_space_group_name_H-M  'P1'
_cell_length_a       4.48275
_cell_length_b       4.64813
_cell_length_c       11.2368
_cell_angle_alpha    91.4398
_cell_angle_beta     80.4492
_cell_angle_gamma    73.4857

_symmetry_Int_Tables_number  1
_chemical_formula_structural  ZnH12C8O4
_chemical_formula_sum  ZnH2C8O4
_cell_volume  220.71685662829466
_cell_formula_units_Z  1
loop_
  _symmetry_equiv_pos_site_id
 _symmetry_equiv_pos_as_xyz
 1  'x, y, z'
loop_
 _atom_site_type_symbol
 _atom_site_label
 _atom_site_symmetry_multiplicity
 _atom_site_fract_x
 _atom_site_fract_y
 _atom_site_fract_z
 _atom_site_fract_occupancy
 C  C1  1  0.05714  0.95001  0.35826  1
 C  C2  1  0.67284  0.13047  0.55549  1
 C  C3  1  0.86263  0.85664  0.46724  1
 C  C4  1  0.25890  0.68606  0.26878  1
 C  C5  1  0.45745  0.78689  0.16300  1
 C  C6  1  0.65469  0.52529  0.07173  1
 C  C7  1  0.84986  0.61993  0.96517  1
 C  C8  1  0.49822  0.04185  0.66835  1
 H  H1  1  0.49361  0.28239  0.51161  1
 H  H2  1  0.89764  0.11460  0.31050  1
 H  H3  1  0.61378  0.90050  0.19750  1
 H  H4  1  0.69993  0.74322  0.43735  1
 H  H5  1  0.21193  0.06945  0.39086  1
 H  H6  1  0.10524  0.56811  0.23429  1
 H  H7  1  0.41594  0.51949  0.31668  1
 H  H8  1  0.50374  0.40757  0.03579  1
 H  H9  1  0.81717  0.35284  0.11516  1
 H  H10  1  0.02229  0.69466  0.51521  1
 H  H11  1  0.30026  0.95420  0.11596  1
 H  H12  1  0.83124  0.25383  0.58002  1
 O  O1  1  0.57533  0.05436  0.77197  1
 O  O2  1  0.91247  0.87027  0.97847  1
 O  O3  1  0.25376  0.95877  0.65802  1
 O  O4  1  -0.05619  0.46389  0.86418  1
 Zn  Zn1  1  -0.01090  0.03302  0.82075  1
