CIF file written using JARVIS-Tools package.
data_Zr2V3Fe
_symmetry_space_group_name_H-M  'R-3m'
_cell_length_a       5.02569
_cell_length_b       5.02569
_cell_length_c       5.02569
_cell_angle_alpha    62.3936
_cell_angle_beta     62.3936
_cell_angle_gamma    62.3936

_symmetry_Int_Tables_number  166
_chemical_formula_structural  Zr2V3Fe
_chemical_formula_sum  Zr2V3Fe
_cell_volume  94.54943030543701
_cell_formula_units_Z  1
loop_
  _symmetry_equiv_pos_site_id
 _symmetry_equiv_pos_as_xyz
 1  'x, y, z'
loop_
 _atom_site_type_symbol
 _atom_site_label
 _atom_site_symmetry_multiplicity
 _atom_site_fract_x
 _atom_site_fract_y
 _atom_site_fract_z
 _atom_site_fract_occupancy
 Fe  Fe1  1  0.00000  0.00000  0.00000  1
 V  V1  1  -0.00000  0.50000  -0.00000  1
 V  V2  1  0.50000  -0.00000  -0.00000  1
 V  V3  1  -0.00000  -0.00000  0.50000  1
 Zr  Zr1  1  0.62615  0.62615  0.62615  1
 Zr  Zr2  1  0.37385  0.37385  0.37385  1
