CIF file written using JARVIS-Tools package.
data_BaGe2Au2
_symmetry_space_group_name_H-M  'I4/mmm'
_cell_length_a       6.24351
_cell_length_b       6.24351
_cell_length_c       6.24352
_cell_angle_alpha    135.513
_cell_angle_beta     135.513
_cell_angle_gamma    64.7348

_symmetry_Int_Tables_number  139
_chemical_formula_structural  BaGe2Au2
_chemical_formula_sum  BaGe2Au2
_cell_volume  117.8298347402698
_cell_formula_units_Z  1
loop_
  _symmetry_equiv_pos_site_id
 _symmetry_equiv_pos_as_xyz
 1  'x, y, z'
loop_
 _atom_site_type_symbol
 _atom_site_label
 _atom_site_symmetry_multiplicity
 _atom_site_fract_x
 _atom_site_fract_y
 _atom_site_fract_z
 _atom_site_fract_occupancy
 Au  Au1  1  0.75000  0.25000  0.50000  1
 Au  Au2  1  0.25000  0.75000  0.50000  1
 Ba  Ba1  1  0.00000  0.00000  0.00000  1
 Ge  Ge1  1  0.62566  0.62566  0.00000  1
 Ge  Ge2  1  0.37434  0.37434  0.00000  1
