CIF file written using JARVIS-Tools package.
data_NaCo3O6
_symmetry_space_group_name_H-M  'C2/m'
_cell_length_a       4.88049
_cell_length_b       4.88249
_cell_length_c       5.7308
_cell_angle_alpha    73.6753
_cell_angle_beta     98.0831
_cell_angle_gamma    120.014

_symmetry_Int_Tables_number  12
_chemical_formula_structural  NaCo3O6
_chemical_formula_sum  NaCo3O6
_cell_volume  113.48007186467383
_cell_formula_units_Z  1
loop_
  _symmetry_equiv_pos_site_id
 _symmetry_equiv_pos_as_xyz
 1  'x, y, z'
loop_
 _atom_site_type_symbol
 _atom_site_label
 _atom_site_symmetry_multiplicity
 _atom_site_fract_x
 _atom_site_fract_y
 _atom_site_fract_z
 _atom_site_fract_occupancy
 Co  Co1  1  0.66983  0.33491  -0.00000  1
 Co  Co2  1  0.33333  0.66667  0.00000  1
 Co  Co3  1  -0.00317  -0.00159  0.00000  1
 Na  Na1  1  0.33335  0.16667  0.50000  1
 O  O1  1  0.33334  0.94496  0.17298  1
 O  O2  1  0.00217  0.27540  0.17563  1
 O  O3  1  0.66450  0.60657  0.17564  1
 O  O4  1  0.66449  0.05793  0.82436  1
 O  O5  1  0.33333  0.38838  0.82702  1
 O  O6  1  0.00217  0.72677  0.82437  1
