CIF file written using JARVIS-Tools package.
data_BaBi2O5
_symmetry_space_group_name_H-M  'P4/mmm'
_cell_length_a       4.18688
_cell_length_b       4.18688
_cell_length_c       9.46698
_cell_angle_alpha    90
_cell_angle_beta     90
_cell_angle_gamma    90

_symmetry_Int_Tables_number  123
_chemical_formula_structural  BaBi2O5
_chemical_formula_sum  BaBi2O5
_cell_volume  165.95618510025918
_cell_formula_units_Z  1
loop_
  _symmetry_equiv_pos_site_id
 _symmetry_equiv_pos_as_xyz
 1  'x, y, z'
loop_
 _atom_site_type_symbol
 _atom_site_label
 _atom_site_symmetry_multiplicity
 _atom_site_fract_x
 _atom_site_fract_y
 _atom_site_fract_z
 _atom_site_fract_occupancy
 Ba  Ba1  1  0.00000  0.00000  0.50000  1
 Bi  Bi1  1  0.50000  0.50000  0.22311  1
 Bi  Bi2  1  0.50000  0.50000  0.77689  1
 O  O1  1  0.00000  0.50000  0.31042  1
 O  O2  1  0.50000  0.50000  0.00000  1
 O  O3  1  0.50000  0.00000  0.31042  1
 O  O4  1  0.50000  0.00000  0.68958  1
 O  O5  1  0.00000  0.50000  0.68958  1
