CIF file written using JARVIS-Tools package.
data_H4C6S2O
_symmetry_space_group_name_H-M  'P1'
_cell_length_a       5.12953
_cell_length_b       5.31596
_cell_length_c       5.97339
_cell_angle_alpha    97.4362
_cell_angle_beta     94.821
_cell_angle_gamma    107.013

_symmetry_Int_Tables_number  1
_chemical_formula_structural  H4C6S2O
_chemical_formula_sum  H4C6S2O
_cell_volume  153.16454795916692
_cell_formula_units_Z  1
loop_
  _symmetry_equiv_pos_site_id
 _symmetry_equiv_pos_as_xyz
 1  'x, y, z'
loop_
 _atom_site_type_symbol
 _atom_site_label
 _atom_site_symmetry_multiplicity
 _atom_site_fract_x
 _atom_site_fract_y
 _atom_site_fract_z
 _atom_site_fract_occupancy
 C  C1  1  0.14886  0.96826  0.26760  1
 C  C2  1  0.12789  0.15305  0.45522  1
 C  C3  1  0.94549  0.04307  0.59857  1
 C  C4  1  0.97451  0.71731  0.26994  1
 C  C5  1  0.03894  0.41377  0.95016  1
 C  C6  1  0.84716  0.16633  0.80182  1
 H  H1  1  0.77807  0.01932  0.91672  1
 H  H2  1  0.28384  0.02169  0.13903  1
 H  H3  1  0.24571  0.36333  0.48153  1
 H  H4  1  0.65870  0.21758  0.74816  1
 O  O1  1  0.89454  0.48499  0.11535  1
 S  S1  1  0.79134  0.70565  0.50034  1
 S  S2  1  0.35701  0.56958  0.92857  1
