CIF file written using JARVIS-Tools package.
data_BaLu2O4
_symmetry_space_group_name_H-M  'Cmcm'
_cell_length_a       3.36544
_cell_length_b       5.77821
_cell_length_c       11.3033
_cell_angle_alpha    90
_cell_angle_beta     90
_cell_angle_gamma    106.931

_symmetry_Int_Tables_number  63
_chemical_formula_structural  BaLu2O4
_chemical_formula_sum  Ba2Lu4O8
_cell_volume  210.27865928229915
_cell_formula_units_Z  2
loop_
  _symmetry_equiv_pos_site_id
 _symmetry_equiv_pos_as_xyz
 1  'x, y, z'
loop_
 _atom_site_type_symbol
 _atom_site_label
 _atom_site_symmetry_multiplicity
 _atom_site_fract_x
 _atom_site_fract_y
 _atom_site_fract_z
 _atom_site_fract_occupancy
 Ba  Ba1  1  0.11287  0.22575  0.25000  1
 Ba  Ba2  1  0.88713  0.77425  0.75000  1
 Lu  Lu1  1  0.36520  0.73040  0.43009  1
 Lu  Lu2  1  0.36520  0.73040  0.06991  1
 Lu  Lu3  1  0.63480  0.26960  0.56991  1
 Lu  Lu4  1  0.63480  0.26960  0.93009  1
 O  O1  1  0.00000  0.00000  0.00000  1
 O  O2  1  0.00000  0.00000  0.50000  1
 O  O3  1  0.43021  0.86041  0.25000  1
 O  O4  1  0.25992  0.51985  0.59995  1
 O  O5  1  0.25992  0.51985  0.90005  1
 O  O6  1  0.56979  0.13959  0.75000  1
 O  O7  1  0.74008  0.48015  0.40005  1
 O  O8  1  0.74008  0.48015  0.09995  1
