CIF file written using JARVIS-Tools package.
data_H2C2O
_symmetry_space_group_name_H-M  'Pna2_1'
_cell_length_a       4.85203
_cell_length_b       4.84444
_cell_length_c       7.01545
_cell_angle_alpha    90.0092
_cell_angle_beta     90
_cell_angle_gamma    90.01

_symmetry_Int_Tables_number  33
_chemical_formula_structural  H2C2O
_chemical_formula_sum  H8C8O4
_cell_volume  164.9009814490373
_cell_formula_units_Z  4
loop_
  _symmetry_equiv_pos_site_id
 _symmetry_equiv_pos_as_xyz
 1  'x, y, z'
loop_
 _atom_site_type_symbol
 _atom_site_label
 _atom_site_symmetry_multiplicity
 _atom_site_fract_x
 _atom_site_fract_y
 _atom_site_fract_z
 _atom_site_fract_occupancy
 C  C1  1  0.59580  0.12003  0.54075  1
 C  C2  1  0.94812  0.59028  0.92996  1
 C  C3  1  0.94813  0.09030  0.04994  1
 C  C4  1  0.44811  0.39370  0.54992  1
 C  C5  1  0.09583  0.36403  0.04075  1
 C  C6  1  0.44811  0.89368  0.42995  1
 C  C7  1  0.59581  0.62001  0.43913  1
 C  C8  1  0.09582  0.86400  0.93914  1
 H  H1  1  0.73360  0.10214  0.00025  1
 H  H2  1  0.44208  0.96631  0.28074  1
 H  H3  1  0.73361  0.60213  0.97967  1
 H  H4  1  0.94208  0.51755  0.78076  1
 H  H5  1  0.44206  0.46641  0.69913  1
 H  H6  1  0.23359  0.38177  0.50022  1
 H  H7  1  0.94210  0.01766  0.19915  1
 H  H8  1  0.23359  0.88176  0.47965  1
 O  O1  1  0.32505  0.39353  0.11194  1
 O  O2  1  0.82501  0.09063  0.61196  1
 O  O3  1  0.82503  0.59058  0.36794  1
 O  O4  1  0.32503  0.89349  0.86793  1
