CIF file written using JARVIS-Tools package.
data_InPS4
_symmetry_space_group_name_H-M  'I-4'
_cell_length_a       5.65568
_cell_length_b       5.65569
_cell_length_c       6.08814
_cell_angle_alpha    117.677
_cell_angle_beta     117.677
_cell_angle_gamma    90

_symmetry_Int_Tables_number  82
_chemical_formula_structural  InPS4
_chemical_formula_sum  InPS4
_cell_volume  146.83329468815296
_cell_formula_units_Z  1
loop_
  _symmetry_equiv_pos_site_id
 _symmetry_equiv_pos_as_xyz
 1  'x, y, z'
loop_
 _atom_site_type_symbol
 _atom_site_label
 _atom_site_symmetry_multiplicity
 _atom_site_fract_x
 _atom_site_fract_y
 _atom_site_fract_z
 _atom_site_fract_occupancy
 In  In1  1  0.00000  0.00000  0.00000  1
 P  P1  1  0.75000  0.25000  0.50000  1
 S  S1  1  0.43814  0.37332  0.26222  1
 S  S2  1  0.82409  0.88891  0.26222  1
 S  S3  1  0.11109  0.56186  0.73778  1
 S  S4  1  0.62668  0.17591  0.73778  1
