CIF file written using JARVIS-Tools package.
data_PrMnNi4
_symmetry_space_group_name_H-M  'P-6m2'
_cell_length_a       5.05798
_cell_length_b       5.05798
_cell_length_c       3.93813
_cell_angle_alpha    90
_cell_angle_beta     90
_cell_angle_gamma    120

_symmetry_Int_Tables_number  187
_chemical_formula_structural  PrMnNi4
_chemical_formula_sum  PrMnNi4
_cell_volume  87.25191030271533
_cell_formula_units_Z  1
loop_
  _symmetry_equiv_pos_site_id
 _symmetry_equiv_pos_as_xyz
 1  'x, y, z'
loop_
 _atom_site_type_symbol
 _atom_site_label
 _atom_site_symmetry_multiplicity
 _atom_site_fract_x
 _atom_site_fract_y
 _atom_site_fract_z
 _atom_site_fract_occupancy
 Mn  Mn1  1  0.33333  0.66667  0.00000  1
 Ni  Ni1  1  0.66667  0.33333  0.00000  1
 Ni  Ni2  1  0.50180  0.00360  0.50000  1
 Ni  Ni3  1  0.99640  0.49820  0.50000  1
 Ni  Ni4  1  0.50180  0.49820  0.50000  1
 Pr  Pr1  1  0.00000  0.00000  0.00000  1
