CIF file written using JARVIS-Tools package.
data_B2S2O9
_symmetry_space_group_name_H-M  'C2'
_cell_length_a       4.19685
_cell_length_b       4.44175
_cell_length_c       8.52749
_cell_angle_alpha    94.3819
_cell_angle_beta     90
_cell_angle_gamma    118.192

_symmetry_Int_Tables_number  5
_chemical_formula_structural  B2S2O9
_chemical_formula_sum  B2S2O9
_cell_volume  139.57819411388456
_cell_formula_units_Z  1
loop_
  _symmetry_equiv_pos_site_id
 _symmetry_equiv_pos_as_xyz
 1  'x, y, z'
loop_
 _atom_site_type_symbol
 _atom_site_label
 _atom_site_symmetry_multiplicity
 _atom_site_fract_x
 _atom_site_fract_y
 _atom_site_fract_z
 _atom_site_fract_occupancy
 B  B1  1  0.82317  0.00385  0.85327  1
 B  B2  1  0.81932  0.99615  0.14673  1
 O  O1  1  0.63527  0.33640  0.57929  1
 O  O2  1  0.29887  0.66360  0.42071  1
 O  O3  1  0.49803  0.66723  0.79136  1
 O  O4  1  0.83080  0.33277  0.20864  1
 O  O5  1  0.68516  0.26190  0.85906  1
 O  O6  1  0.42326  0.73810  0.14094  1
 O  O7  1  0.09403  0.07542  0.72651  1
 O  O8  1  0.01860  0.92458  0.27349  1
 O  O9  1  0.96144  0.00000  0.00000  1
 S  S1  1  0.49047  0.33566  0.72813  1
 S  S2  1  0.15481  0.66434  0.27187  1
