CIF file written using JARVIS-Tools package.
data_CuMoO4
_symmetry_space_group_name_H-M  'I-4m2'
_cell_length_a       5.70812
_cell_length_b       5.70811
_cell_length_c       5.70811
_cell_angle_alpha    141.135
_cell_angle_beta     141.135
_cell_angle_gamma    56.1346

_symmetry_Int_Tables_number  119
_chemical_formula_structural  CuMoO4
_chemical_formula_sum  CuMoO4
_cell_volume  72.66174447615549
_cell_formula_units_Z  1
loop_
  _symmetry_equiv_pos_site_id
 _symmetry_equiv_pos_as_xyz
 1  'x, y, z'
loop_
 _atom_site_type_symbol
 _atom_site_label
 _atom_site_symmetry_multiplicity
 _atom_site_fract_x
 _atom_site_fract_y
 _atom_site_fract_z
 _atom_site_fract_occupancy
 Cu  Cu1  1  0.50000  0.50000  0.00000  1
 Mo  Mo1  1  0.25000  0.75000  0.50000  1
 O  O1  1  0.05707  0.55707  0.50000  1
 O  O2  1  0.73827  0.73827  -0.00000  1
 O  O3  1  0.44293  0.94293  0.50000  1
 O  O4  1  0.26173  0.26173  0.00000  1
