CIF file written using JARVIS-Tools package.
data_HC2SNO2
_symmetry_space_group_name_H-M  'P1'
_cell_length_a       4.66492
_cell_length_b       6.07482
_cell_length_c       6.26046
_cell_angle_alpha    76.1474
_cell_angle_beta     77.7931
_cell_angle_gamma    80.3172

_symmetry_Int_Tables_number  1
_chemical_formula_structural  HC2SNO2
_chemical_formula_sum  H2C4S2N2O4
_cell_volume  167.06114739137323
_cell_formula_units_Z  2
loop_
  _symmetry_equiv_pos_site_id
 _symmetry_equiv_pos_as_xyz
 1  'x, y, z'
loop_
 _atom_site_type_symbol
 _atom_site_label
 _atom_site_symmetry_multiplicity
 _atom_site_fract_x
 _atom_site_fract_y
 _atom_site_fract_z
 _atom_site_fract_occupancy
 C  C1  1  0.11449  0.71113  0.26108  1
 C  C2  1  0.11446  0.21107  0.76111  1
 C  C3  1  0.80995  0.34885  0.78704  1
 C  C4  1  0.80998  0.84892  0.28698  1
 H  H1  1  0.65828  0.62110  0.13800  1
 H  H2  1  0.65824  0.12105  0.63805  1
 N  N1  1  0.60742  0.74073  0.23832  1
 N  N2  1  0.60738  0.24066  0.73839  1
 O  O1  1  0.75634  0.52954  0.85271  1
 O  O2  1  0.75636  0.02961  0.35266  1
 O  O3  1  0.31859  0.85071  0.25587  1
 O  O4  1  0.31855  0.35063  0.75596  1
 S  S1  1  0.18165  0.44427  0.24767  1
 S  S2  1  0.18165  0.94423  0.74761  1
