CIF file written using JARVIS-Tools package.
data_BaCaI4
_symmetry_space_group_name_H-M  'P2/c'
_cell_length_a       7.89951
_cell_length_b       8.21395
_cell_length_c       8.2405
_cell_angle_alpha    90
_cell_angle_beta     101.702
_cell_angle_gamma    90

_symmetry_Int_Tables_number  13
_chemical_formula_structural  BaCaI4
_chemical_formula_sum  Ba2Ca2I8
_cell_volume  523.5816631030294
_cell_formula_units_Z  2
loop_
  _symmetry_equiv_pos_site_id
 _symmetry_equiv_pos_as_xyz
 1  'x, y, z'
loop_
 _atom_site_type_symbol
 _atom_site_label
 _atom_site_symmetry_multiplicity
 _atom_site_fract_x
 _atom_site_fract_y
 _atom_site_fract_z
 _atom_site_fract_occupancy
 Ba  Ba1  1  0.50000  0.26926  0.25000  1
 Ba  Ba2  1  0.50000  0.73074  0.75000  1
 Ca  Ca1  1  -0.00000  0.83844  0.25000  1
 Ca  Ca2  1  -0.00000  0.16156  0.75000  1
 I  I1  1  0.75435  0.56585  0.10093  1
 I  I2  1  0.75003  0.93283  0.48860  1
 I  I3  1  0.75435  0.43415  0.60093  1
 I  I4  1  0.75003  0.06717  0.98860  1
 I  I5  1  0.24997  0.93283  0.01140  1
 I  I6  1  0.24565  0.56585  0.39907  1
 I  I7  1  0.24997  0.06717  0.51140  1
 I  I8  1  0.24565  0.43415  0.89907  1
