CIF file written using JARVIS-Tools package.
data_YbTm2Se4
_symmetry_space_group_name_H-M  'P2/m'
_cell_length_a       4.06559
_cell_length_b       6.93774
_cell_length_c       7.09668
_cell_angle_alpha    71.8591
_cell_angle_beta     90
_cell_angle_gamma    90

_symmetry_Int_Tables_number  10
_chemical_formula_structural  YbTm2Se4
_chemical_formula_sum  YbTm2Se4
_cell_volume  190.21928013805928
_cell_formula_units_Z  1
loop_
  _symmetry_equiv_pos_site_id
 _symmetry_equiv_pos_as_xyz
 1  'x, y, z'
loop_
 _atom_site_type_symbol
 _atom_site_label
 _atom_site_symmetry_multiplicity
 _atom_site_fract_x
 _atom_site_fract_y
 _atom_site_fract_z
 _atom_site_fract_occupancy
 Se  Se1  1  0.50000  0.75857  0.24370  1
 Se  Se2  1  0.00000  0.25624  0.23514  1
 Se  Se3  1  0.50000  0.24143  0.75630  1
 Se  Se4  1  0.00000  0.74376  0.76486  1
 Tm  Tm1  1  0.00000  0.00000  0.00000  1
 Tm  Tm2  1  0.50000  0.50000  -0.00000  1
 Yb  Yb1  1  0.00000  0.50000  0.50000  1
