CIF file written using JARVIS-Tools package.
data_ZnH6C5O4
_symmetry_space_group_name_H-M  'P1'
_cell_length_a       3.86515
_cell_length_b       4.57063
_cell_length_c       8.48641
_cell_angle_alpha    85.9885
_cell_angle_beta     93.4995
_cell_angle_gamma    70.2632

_symmetry_Int_Tables_number  1
_chemical_formula_structural  ZnH6C5O4
_chemical_formula_sum  ZnH6C5O4
_cell_volume  140.1959099225152
_cell_formula_units_Z  1
loop_
  _symmetry_equiv_pos_site_id
 _symmetry_equiv_pos_as_xyz
 1  'x, y, z'
loop_
 _atom_site_type_symbol
 _atom_site_label
 _atom_site_symmetry_multiplicity
 _atom_site_fract_x
 _atom_site_fract_y
 _atom_site_fract_z
 _atom_site_fract_occupancy
 C  C1  1  0.14342  0.11759  0.54487  1
 C  C2  1  0.11485  0.34081  0.40119  1
 C  C3  1  0.25095  0.18250  0.25261  1
 C  C4  1  0.21729  0.42757  0.11558  1
 C  C5  1  0.32427  0.31016  0.95748  1
 H  H1  1  0.82826  0.50301  0.37986  1
 H  H2  1  0.28415  0.48173  0.43762  1
 H  H3  1  0.08557  0.03782  0.21900  1
 H  H4  1  0.93660  0.60120  0.09754  1
 H  H5  1  0.53848  0.02364  0.27779  1
 H  H6  1  0.39568  0.56532  0.14444  1
 O  O1  1  0.88465  0.18999  0.63561  1
 O  O2  1  0.42900  0.86924  0.57160  1
 O  O3  1  0.54677  0.03011  0.95580  1
 O  O4  1  0.20860  0.49440  0.83118  1
 Zn  Zn1  1  0.76557  0.85751  0.76062  1
