CIF file written using JARVIS-Tools package.
data_SnH8C5O4
_symmetry_space_group_name_H-M  'P1'
_cell_length_a       4.77875
_cell_length_b       6.32325
_cell_length_c       6.5858
_cell_angle_alpha    64.4242
_cell_angle_beta     89.9763
_cell_angle_gamma    89.6683

_symmetry_Int_Tables_number  1
_chemical_formula_structural  SnH8C5O4
_chemical_formula_sum  SnH8C5O4
_cell_volume  179.50162426830727
_cell_formula_units_Z  1
loop_
  _symmetry_equiv_pos_site_id
 _symmetry_equiv_pos_as_xyz
 1  'x, y, z'
loop_
 _atom_site_type_symbol
 _atom_site_label
 _atom_site_symmetry_multiplicity
 _atom_site_fract_x
 _atom_site_fract_y
 _atom_site_fract_z
 _atom_site_fract_occupancy
 C  C1  1  0.44158  0.26173  0.27495  1
 C  C2  1  0.18692  0.87457  0.91489  1
 C  C3  1  0.81268  0.77366  0.42313  1
 C  C4  1  0.81736  0.40505  0.79429  1
 C  C5  1  0.69032  0.64777  0.65911  1
 H  H1  1  0.60080  0.39243  0.18422  1
 H  H2  1  0.98436  0.80125  0.98633  1
 H  H3  1  0.16883  0.99210  0.73564  1
 H  H4  1  0.52212  0.14036  0.44028  1
 H  H5  1  0.34036  0.73623  0.94453  1
 H  H6  1  0.25399  0.35055  0.29652  1
 H  H7  1  0.46428  0.63168  0.64574  1
 H  H8  1  0.73889  0.75493  0.74839  1
 O  O1  1  0.05920  0.85510  0.40490  1
 O  O2  1  0.06693  0.39503  0.86621  1
 O  O3  1  0.65876  0.79398  0.25758  1
 O  O4  1  0.66760  0.22607  0.83132  1
 Sn  Sn1  1  0.32127  0.06969  0.08887  1
