CIF file written using JARVIS-Tools package.
data_LiTiFeO4
_symmetry_space_group_name_H-M  'P4_322'
_cell_length_a       5.92763
_cell_length_b       5.92763
_cell_length_c       8.29768
_cell_angle_alpha    90
_cell_angle_beta     90
_cell_angle_gamma    90

_symmetry_Int_Tables_number  95
_chemical_formula_structural  LiTiFeO4
_chemical_formula_sum  Li4Ti4Fe4O6
_cell_volume  291.55419625756235
_cell_formula_units_Z  4
loop_
  _symmetry_equiv_pos_site_id
 _symmetry_equiv_pos_as_xyz
 1  'x, y, z'
loop_
 _atom_site_type_symbol
 _atom_site_label
 _atom_site_symmetry_multiplicity
 _atom_site_fract_x
 _atom_site_fract_y
 _atom_site_fract_z
 _atom_site_fract_occupancy
 Fe  Fe1  1  0.74373  0.74373  0.12500  1
 Fe  Fe2  1  0.25627  0.25627  0.62500  1
 Fe  Fe3  1  0.25627  0.74373  0.87500  1
 Fe  Fe4  1  0.74373  0.25627  0.37500  1
 Li  Li1  1  0.00000  0.22820  0.00000  1
 Li  Li2  1  0.77180  0.00000  0.75000  1
 Li  Li3  1  0.22820  0.00000  0.25000  1
 Li  Li4  1  0.00000  0.77180  0.50000  1
 O  O1  1  0.98761  0.26340  0.74505  1
 O  O2  1  0.26340  0.01239  0.99505  1
 O  O3  1  0.26340  0.98761  0.50495  1
 O  O4  1  0.48723  0.73651  0.26375  1
 O  O5  1  0.26349  0.48723  0.01375  1
 O  O6  1  0.26349  0.51277  0.48625  1
 O  O7  1  0.01239  0.73660  0.24505  1
 O  O8  1  0.01239  0.26340  0.25495  1
 O  O9  1  0.51277  0.26349  0.76375  1
 O  O10  1  0.73660  0.01239  0.00495  1
 O  O11  1  0.73651  0.51277  0.51375  1
 O  O12  1  0.73651  0.48723  0.98625  1
 O  O13  1  0.48723  0.26349  0.23625  1
 O  O14  1  0.73660  0.98761  0.49505  1
 O  O15  1  0.51277  0.73651  0.73625  1
 O  O16  1  0.98761  0.73660  0.75495  1
 Ti  Ti1  1  0.77725  0.50000  0.75000  1
 Ti  Ti2  1  0.50000  0.77725  0.50000  1
 Ti  Ti3  1  0.50000  0.22275  0.00000  1
 Ti  Ti4  1  0.22275  0.50000  0.25000  1
