CIF file written using JARVIS-Tools package.
data_Pr3Si3Ni
_symmetry_space_group_name_H-M  'Imm2'
_cell_length_a       9.51649
_cell_length_b       9.51649
_cell_length_c       9.5165
_cell_angle_alpha    155.468
_cell_angle_beta     153.593
_cell_angle_gamma    36.3529

_symmetry_Int_Tables_number  44
_chemical_formula_structural  Pr3Si3Ni
_chemical_formula_sum  Pr3Si3Ni
_cell_volume  158.9448905201702
_cell_formula_units_Z  1
loop_
  _symmetry_equiv_pos_site_id
 _symmetry_equiv_pos_as_xyz
 1  'x, y, z'
loop_
 _atom_site_type_symbol
 _atom_site_label
 _atom_site_symmetry_multiplicity
 _atom_site_fract_x
 _atom_site_fract_y
 _atom_site_fract_z
 _atom_site_fract_occupancy
 Ni  Ni1  1  0.56760  0.56760  0.00000  1
 Pr  Pr1  1  0.00027  0.00027  -0.00000  1
 Pr  Pr2  1  0.81485  0.31485  0.50000  1
 Pr  Pr3  1  0.18103  0.68103  0.50000  1
 Si  Si1  1  0.63362  0.13362  0.50000  1
 Si  Si2  1  0.36023  0.86023  0.50000  1
 Si  Si3  1  0.44241  0.44241  0.00000  1
