CIF file written using JARVIS-Tools package.
data_BaBiClO2
_symmetry_space_group_name_H-M  'I4mm'
_cell_length_a       7.23211
_cell_length_b       7.2321
_cell_length_c       7.2321
_cell_angle_alpha    147.371
_cell_angle_beta     147.371
_cell_angle_gamma    46.8152

_symmetry_Int_Tables_number  107
_chemical_formula_structural  BaBiClO2
_chemical_formula_sum  BaBiClO2
_cell_volume  109.57114334969415
_cell_formula_units_Z  1
loop_
  _symmetry_equiv_pos_site_id
 _symmetry_equiv_pos_as_xyz
 1  'x, y, z'
loop_
 _atom_site_type_symbol
 _atom_site_label
 _atom_site_symmetry_multiplicity
 _atom_site_fract_x
 _atom_site_fract_y
 _atom_site_fract_z
 _atom_site_fract_occupancy
 Ba  Ba1  1  0.86476  0.86476  -0.00000  1
 Bi  Bi1  1  0.16674  0.16674  0.00000  1
 Cl  Cl1  1  0.48807  0.48807  0.00000  1
 O  O1  1  0.74022  0.24022  0.50000  1
 O  O2  1  0.24022  0.74022  0.50000  1
