CIF file written using JARVIS-Tools package.
data_TbMgGa
_symmetry_space_group_name_H-M  'P-62m'
_cell_length_a       7.263
_cell_length_b       7.263
_cell_length_c       4.41194
_cell_angle_alpha    90
_cell_angle_beta     90
_cell_angle_gamma    120

_symmetry_Int_Tables_number  189
_chemical_formula_structural  TbMgGa
_chemical_formula_sum  Tb3Mg3Ga3
_cell_volume  201.554405917516
_cell_formula_units_Z  3
loop_
  _symmetry_equiv_pos_site_id
 _symmetry_equiv_pos_as_xyz
 1  'x, y, z'
loop_
 _atom_site_type_symbol
 _atom_site_label
 _atom_site_symmetry_multiplicity
 _atom_site_fract_x
 _atom_site_fract_y
 _atom_site_fract_z
 _atom_site_fract_occupancy
 Ga  Ga1  1  0.33333  0.66667  0.50000  1
 Ga  Ga2  1  0.66667  0.33333  0.50000  1
 Ga  Ga3  1  0.00000  0.00000  0.00000  1
 Mg  Mg1  1  0.24436  -0.00000  0.50000  1
 Mg  Mg2  1  -0.00000  0.24436  0.50000  1
 Mg  Mg3  1  0.75564  0.75564  0.50000  1
 Tb  Tb1  1  0.57606  -0.00000  0.00000  1
 Tb  Tb2  1  -0.00000  0.57606  0.00000  1
 Tb  Tb3  1  0.42394  0.42394  0.00000  1
