CIF file written using JARVIS-Tools package.
data_H9C5
_symmetry_space_group_name_H-M  'P2_1/c'
_cell_length_a       5.12971
_cell_length_b       10.2347
_cell_length_c       9.13438
_cell_angle_alpha    90
_cell_angle_beta     123.122
_cell_angle_gamma    90

_symmetry_Int_Tables_number  14
_chemical_formula_structural  H9C5
_chemical_formula_sum  H36C20
_cell_volume  401.63996731567056
_cell_formula_units_Z  4
loop_
  _symmetry_equiv_pos_site_id
 _symmetry_equiv_pos_as_xyz
 1  'x, y, z'
loop_
 _atom_site_type_symbol
 _atom_site_label
 _atom_site_symmetry_multiplicity
 _atom_site_fract_x
 _atom_site_fract_y
 _atom_site_fract_z
 _atom_site_fract_occupancy
 C  C1  1  0.84648  0.36276  0.21714  1
 C  C2  1  0.39381  0.45297  0.71229  1
 C  C3  1  0.84648  0.13724  0.71714  1
 C  C4  1  0.54454  0.41874  0.18767  1
 C  C5  1  0.45546  0.58126  0.81233  1
 C  C6  1  0.45546  0.91874  0.31233  1
 C  C7  1  0.60619  0.54703  0.28771  1
 C  C8  1  0.15352  0.86276  0.28286  1
 C  C9  1  0.39381  0.04703  0.21229  1
 C  C10  1  0.54454  0.08126  0.68767  1
 C  C11  1  0.15220  0.47090  0.51599  1
 C  C12  1  0.91111  0.84388  0.08750  1
 C  C13  1  0.08889  0.15612  0.91250  1
 C  C14  1  0.91111  0.65612  0.58750  1
 C  C15  1  0.08889  0.34388  0.41250  1
 C  C16  1  0.15352  0.63724  0.78286  1
 C  C17  1  0.84780  0.97090  0.98401  1
 C  C18  1  0.84780  0.52910  0.48401  1
 C  C19  1  0.15220  0.02910  0.01599  1
 C  C20  1  0.60619  0.95297  0.78771  1
 H  H1  1  0.69119  0.80593  0.06603  1
 H  H2  1  0.69301  0.62125  0.23590  1
 H  H3  1  0.30699  0.37875  0.76410  1
 H  H4  1  0.30699  0.12125  0.26410  1
 H  H5  1  0.69301  0.87875  0.73590  1
 H  H6  1  0.24718  0.54329  0.46613  1
 H  H7  1  0.75282  0.45671  0.53387  1
 H  H8  1  0.75282  0.04329  0.03387  1
 H  H9  1  0.00438  0.23122  0.96433  1
 H  H10  1  0.69119  0.69407  0.56603  1
 H  H11  1  0.36941  0.06717  0.54720  1
 H  H12  1  0.63059  0.93283  0.45280  1
 H  H13  1  0.63059  0.56717  0.95280  1
 H  H14  1  0.36941  0.43283  0.04720  1
 H  H15  1  0.44425  0.15297  0.73409  1
 H  H16  1  0.55575  0.84703  0.26591  1
 H  H17  1  0.55575  0.65297  0.76591  1
 H  H18  1  0.93982  0.06972  0.66185  1
 H  H19  1  0.06018  0.93028  0.33815  1
 H  H20  1  0.06018  0.56972  0.83815  1
 H  H21  1  0.93982  0.43028  0.16185  1
 H  H22  1  0.30881  0.30593  0.43397  1
 H  H23  1  0.80132  0.23074  0.64672  1
 H  H24  1  0.19868  0.73074  0.85328  1
 H  H25  1  0.80132  0.26926  0.14672  1
 H  H26  1  0.38729  0.58652  0.26636  1
 H  H27  1  0.61271  0.41348  0.73364  1
 H  H28  1  0.44425  0.34703  0.23409  1
 H  H29  1  0.38729  0.91348  0.76636  1
 H  H30  1  0.61271  0.08652  0.23364  1
 H  H31  1  0.99562  0.76878  0.03567  1
 H  H32  1  0.99562  0.73122  0.53567  1
 H  H33  1  0.00438  0.26878  0.46433  1
 H  H34  1  0.30881  0.19407  0.93397  1
 H  H35  1  0.19868  0.76926  0.35328  1
 H  H36  1  0.24718  0.95671  0.96613  1
