CIF file written using JARVIS-Tools package.
data_SrLa3
_symmetry_space_group_name_H-M  'P6_3/mmc'
_cell_length_a       7.73823
_cell_length_b       7.73822
_cell_length_c       6.10367
_cell_angle_alpha    90
_cell_angle_beta     90
_cell_angle_gamma    120

_symmetry_Int_Tables_number  194
_chemical_formula_structural  SrLa3
_chemical_formula_sum  Sr2La6
_cell_volume  316.5227818329094
_cell_formula_units_Z  2
loop_
  _symmetry_equiv_pos_site_id
 _symmetry_equiv_pos_as_xyz
 1  'x, y, z'
loop_
 _atom_site_type_symbol
 _atom_site_label
 _atom_site_symmetry_multiplicity
 _atom_site_fract_x
 _atom_site_fract_y
 _atom_site_fract_z
 _atom_site_fract_occupancy
 La  La1  1  0.16080  0.32161  0.25000  1
 La  La2  1  0.67839  0.83920  0.25000  1
 La  La3  1  0.16080  0.83920  0.25000  1
 La  La4  1  0.83920  0.67839  0.75000  1
 La  La5  1  0.32161  0.16080  0.75000  1
 La  La6  1  0.83920  0.16080  0.75000  1
 Sr  Sr1  1  0.33333  0.66667  0.75000  1
 Sr  Sr2  1  0.66667  0.33333  0.25000  1
