CIF file written using JARVIS-Tools package.
data_Zr3S4
_symmetry_space_group_name_H-M  'Cmmm'
_cell_length_a       6.29591
_cell_length_b       6.29591
_cell_length_c       3.66658
_cell_angle_alpha    90
_cell_angle_beta     90
_cell_angle_gamma    108.32

_symmetry_Int_Tables_number  65
_chemical_formula_structural  Zr3S4
_chemical_formula_sum  Zr3S4
_cell_volume  137.97126444305007
_cell_formula_units_Z  1
loop_
  _symmetry_equiv_pos_site_id
 _symmetry_equiv_pos_as_xyz
 1  'x, y, z'
loop_
 _atom_site_type_symbol
 _atom_site_label
 _atom_site_symmetry_multiplicity
 _atom_site_fract_x
 _atom_site_fract_y
 _atom_site_fract_z
 _atom_site_fract_occupancy
 S  S1  1  0.25536  0.25536  0.50000  1
 S  S2  1  0.74464  0.74464  0.50000  1
 S  S3  1  0.73840  0.26160  0.00000  1
 S  S4  1  0.26160  0.73840  0.00000  1
 Zr  Zr1  1  0.50000  -0.00000  0.50000  1
 Zr  Zr2  1  0.00000  0.50000  0.50000  1
 Zr  Zr3  1  0.00000  0.00000  0.00000  1
