CIF file written using JARVIS-Tools package.
data_H4C5O2
_symmetry_space_group_name_H-M  'P-1'
_cell_length_a       4.46221
_cell_length_b       5.79717
_cell_length_c       8.09432
_cell_angle_alpha    83.3047
_cell_angle_beta     82.2052
_cell_angle_gamma    69.5218

_symmetry_Int_Tables_number  2
_chemical_formula_structural  H4C5O2
_chemical_formula_sum  H8C0O4
_cell_volume  193.8008389782154
_cell_formula_units_Z  2
loop_
  _symmetry_equiv_pos_site_id
 _symmetry_equiv_pos_as_xyz
 1  'x, y, z'
loop_
 _atom_site_type_symbol
 _atom_site_label
 _atom_site_symmetry_multiplicity
 _atom_site_fract_x
 _atom_site_fract_y
 _atom_site_fract_z
 _atom_site_fract_occupancy
 C  C1  1  0.45565  0.45081  0.31837  1
 C  C2  1  0.66919  0.49058  0.18580  1
 C  C3  1  0.91600  0.28979  0.11713  1
 C  C4  1  0.48403  0.21024  0.38290  1
 C  C5  1  0.24276  0.17467  0.52050  1
 C  C6  1  0.15727  0.32537  0.97953  1
 C  C7  1  0.73085  0.00946  0.31423  1
 C  C8  1  0.94438  0.04922  0.18166  1
 C  C9  1  0.09342  0.86392  0.70339  1
 C  C10  1  0.30661  0.63611  0.79664  1
 H  H1  1  0.75225  0.82312  0.36536  1
 H  H2  1  0.48811  0.67915  0.85416  1
 H  H3  1  0.42603  0.48340  0.71673  1
 H  H4  1  0.91193  0.82088  0.64586  1
 H  H5  1  0.97400  0.01663  0.78330  1
 H  H6  1  0.64778  0.67691  0.13467  1
 H  H7  1  0.26671  0.60512  0.37452  1
 H  H8  1  0.13332  0.89491  0.12550  1
 O  O1  1  0.09147  0.56790  0.92930  1
 O  O2  1  0.38757  0.15774  0.92085  1
 O  O3  1  0.01248  0.34229  0.57918  1
 O  O4  1  0.30856  0.93214  0.57072  1
