CIF file written using JARVIS-Tools package.
data_La2AsI2
_symmetry_space_group_name_H-M  'P-3m1'
_cell_length_a       4.3982
_cell_length_b       4.39821
_cell_length_c       10.9428
_cell_angle_alpha    90
_cell_angle_beta     90
_cell_angle_gamma    120

_symmetry_Int_Tables_number  164
_chemical_formula_structural  La2AsI2
_chemical_formula_sum  La2AsI2
_cell_volume  183.31978319647388
_cell_formula_units_Z  1
loop_
  _symmetry_equiv_pos_site_id
 _symmetry_equiv_pos_as_xyz
 1  'x, y, z'
loop_
 _atom_site_type_symbol
 _atom_site_label
 _atom_site_symmetry_multiplicity
 _atom_site_fract_x
 _atom_site_fract_y
 _atom_site_fract_z
 _atom_site_fract_occupancy
 As  As1  1  0.00000  0.00000  0.00000  1
 I  I1  1  0.33333  0.66667  0.65567  1
 I  I2  1  0.66667  0.33333  0.34433  1
 La  La1  1  0.33333  0.66667  0.15206  1
 La  La2  1  0.66667  0.33333  0.84794  1
