CIF file written using JARVIS-Tools package.
data_Li4Ti3O8
_symmetry_space_group_name_H-M  'R-3m'
_cell_length_a       5.87252
_cell_length_b       5.83916
_cell_length_c       5.87251
_cell_angle_alpha    120.189
_cell_angle_beta     60
_cell_angle_gamma    120.189

_symmetry_Int_Tables_number  166
_chemical_formula_structural  Li4Ti3O8
_chemical_formula_sum  Li4Ti3O8
_cell_volume  141.98279907127156
_cell_formula_units_Z  1
loop_
  _symmetry_equiv_pos_site_id
 _symmetry_equiv_pos_as_xyz
 1  'x, y, z'
loop_
 _atom_site_type_symbol
 _atom_site_label
 _atom_site_symmetry_multiplicity
 _atom_site_fract_x
 _atom_site_fract_y
 _atom_site_fract_z
 _atom_site_fract_occupancy
 Li  Li1  1  0.12500  0.87500  0.62500  1
 Li  Li2  1  0.12500  0.87500  0.12500  1
 Li  Li3  1  0.62500  0.87500  0.62500  1
 Li  Li4  1  0.62500  0.87500  0.12500  1
 O  O1  1  0.37861  0.13582  0.37861  1
 O  O2  1  0.40944  0.14921  0.86988  1
 O  O3  1  0.38012  0.60079  0.84056  1
 O  O4  1  0.38012  0.60079  0.38012  1
 O  O5  1  0.86988  0.14921  0.86988  1
 O  O6  1  0.86988  0.14921  0.40944  1
 O  O7  1  0.84056  0.60079  0.38012  1
 O  O8  1  0.87139  0.61418  0.87139  1
 Ti  Ti1  1  0.12500  0.37500  0.62500  1
 Ti  Ti2  1  0.62500  0.37500  0.62500  1
 Ti  Ti3  1  0.62500  0.37500  0.12500  1
