CIF file written using JARVIS-Tools package.
data_LiO8
_symmetry_space_group_name_H-M  'C2'
_cell_length_a       5.01554
_cell_length_b       4.94046
_cell_length_c       4.94045
_cell_angle_alpha    74.1683
_cell_angle_beta     60.0189
_cell_angle_gamma    60.019

_symmetry_Int_Tables_number  5
_chemical_formula_structural  LiO8
_chemical_formula_sum  LiO8
_cell_volume  91.8061515555343
_cell_formula_units_Z  1
loop_
  _symmetry_equiv_pos_site_id
 _symmetry_equiv_pos_as_xyz
 1  'x, y, z'
loop_
 _atom_site_type_symbol
 _atom_site_label
 _atom_site_symmetry_multiplicity
 _atom_site_fract_x
 _atom_site_fract_y
 _atom_site_fract_z
 _atom_site_fract_occupancy
 Li  Li1  1  0.50000  0.75265  0.24735  1
 O  O1  1  0.84159  0.33417  0.78693  1
 O  O2  1  0.15841  0.21307  0.66583  1
 O  O3  1  0.16091  0.66347  0.19979  1
 O  O4  1  0.83909  0.80021  0.33653  1
 O  O5  1  0.83484  0.27863  0.25381  1
 O  O6  1  0.16516  0.74619  0.72137  1
 O  O7  1  0.15737  0.16336  0.11841  1
 O  O8  1  0.84263  0.88159  0.83664  1
