CIF file written using JARVIS-Tools package.
data_AlInN2
_symmetry_space_group_name_H-M  'I-42d'
_cell_length_a       5.71671
_cell_length_b       4.74173
_cell_length_c       9.26041
_cell_angle_alpha    90
_cell_angle_beta     144.09
_cell_angle_gamma    114.502

_symmetry_Int_Tables_number  122
_chemical_formula_structural  AlInN2
_chemical_formula_sum  Al2In2N4
_cell_volume  104.10580971118705
_cell_formula_units_Z  2
loop_
  _symmetry_equiv_pos_site_id
 _symmetry_equiv_pos_as_xyz
 1  'x, y, z'
loop_
 _atom_site_type_symbol
 _atom_site_label
 _atom_site_symmetry_multiplicity
 _atom_site_fract_x
 _atom_site_fract_y
 _atom_site_fract_z
 _atom_site_fract_occupancy
 Al  Al1  1  0.00000  0.50000  0.25000  1
 Al  Al2  1  0.00000  0.00000  0.00000  1
 In  In1  1  0.00000  0.50000  0.75000  1
 In  In2  1  0.00000  0.00000  0.50000  1
 N  N1  1  0.50000  0.04920  0.12500  1
 N  N2  1  0.50000  0.95080  0.62500  1
 N  N3  1  0.40160  0.45080  0.32580  1
 N  N4  1  0.59840  0.54920  0.92420  1
