CIF file written using JARVIS-Tools package.
data_Rb2P2Pt
_symmetry_space_group_name_H-M  'Cmcm'
_cell_length_a       7.87212
_cell_length_b       7.87212
_cell_length_c       6.16678
_cell_angle_alpha    90
_cell_angle_beta     90
_cell_angle_gamma    131.45

_symmetry_Int_Tables_number  63
_chemical_formula_structural  Rb2P2Pt
_chemical_formula_sum  Rb4P4Pt2
_cell_volume  286.4405610447137
_cell_formula_units_Z  2
loop_
  _symmetry_equiv_pos_site_id
 _symmetry_equiv_pos_as_xyz
 1  'x, y, z'
loop_
 _atom_site_type_symbol
 _atom_site_label
 _atom_site_symmetry_multiplicity
 _atom_site_fract_x
 _atom_site_fract_y
 _atom_site_fract_z
 _atom_site_fract_occupancy
 P  P1  1  0.93576  0.72285  0.25000  1
 P  P2  1  0.06424  0.27715  0.75000  1
 P  P3  1  0.27715  0.06424  0.25000  1
 P  P4  1  0.72285  0.93576  0.75000  1
 Pt  Pt1  1  0.00000  0.00000  0.00000  1
 Pt  Pt2  1  0.00000  0.00000  0.50000  1
 Rb  Rb1  1  0.78938  0.21062  0.25000  1
 Rb  Rb2  1  0.21062  0.78938  0.75000  1
 Rb  Rb3  1  0.41822  0.58178  0.25000  1
 Rb  Rb4  1  0.58178  0.41822  0.75000  1
