CIF file written using JARVIS-Tools package.
data_U3O7
_symmetry_space_group_name_H-M  'Immm'
_cell_length_a       6.54878
_cell_length_b       6.54878
_cell_length_c       6.54878
_cell_angle_alpha    146.49
_cell_angle_beta     129.915
_cell_angle_gamma    61.6116

_symmetry_Int_Tables_number  71
_chemical_formula_structural  U3O7
_chemical_formula_sum  U3O7
_cell_volume  117.74327220870603
_cell_formula_units_Z  1
loop_
  _symmetry_equiv_pos_site_id
 _symmetry_equiv_pos_as_xyz
 1  'x, y, z'
loop_
 _atom_site_type_symbol
 _atom_site_label
 _atom_site_symmetry_multiplicity
 _atom_site_fract_x
 _atom_site_fract_y
 _atom_site_fract_z
 _atom_site_fract_occupancy
 O  O1  1  0.78402  0.50000  0.28402  1
 O  O2  1  0.40791  0.17623  0.23168  1
 O  O3  1  0.05545  0.82377  0.23168  1
 O  O4  1  0.21598  0.50000  0.71598  1
 O  O5  1  0.94455  0.17623  0.76832  1
 O  O6  1  0.59209  0.82377  0.76832  1
 O  O7  1  0.50000  0.00000  0.50000  1
 U  U1  1  0.00000  0.00000  0.00000  1
 U  U2  1  0.65442  0.65442  0.00000  1
 U  U3  1  0.34558  0.34558  -0.00000  1
