CIF file written using JARVIS-Tools package.
data_CdH4C4O4
_symmetry_space_group_name_H-M  'P-1'
_cell_length_a       3.90085
_cell_length_b       4.23449
_cell_length_c       7.67603
_cell_angle_alpha    78.737
_cell_angle_beta     86.5665
_cell_angle_gamma    76.7386

_symmetry_Int_Tables_number  2
_chemical_formula_structural  CdH4C4O4
_chemical_formula_sum  CdH4C4O4
_cell_volume  121.02075933731248
_cell_formula_units_Z  1
loop_
  _symmetry_equiv_pos_site_id
 _symmetry_equiv_pos_as_xyz
 1  'x, y, z'
loop_
 _atom_site_type_symbol
 _atom_site_label
 _atom_site_symmetry_multiplicity
 _atom_site_fract_x
 _atom_site_fract_y
 _atom_site_fract_z
 _atom_site_fract_occupancy
 C  C1  1  0.82866  0.72510  0.53366  1
 C  C2  1  0.60550  0.74539  0.70141  1
 C  C3  1  0.81721  0.78421  0.85636  1
 C  C4  1  0.59401  0.80448  0.02410  1
 Cd  Cd1  1  0.21130  0.26478  0.27888  1
 H  H1  1  0.38206  0.95667  0.67376  1
 H  H2  1  0.51043  0.51638  0.73726  1
 H  H3  1  0.91229  0.01322  0.82052  1
 H  H4  1  0.04066  0.57292  0.88401  1
 O  O1  1  0.76885  0.96906  0.40181  1
 O  O2  1  0.06970  0.46699  0.53077  1
 O  O3  1  0.35296  0.06258  0.02699  1
 O  O4  1  0.65377  0.56049  0.15593  1
