CIF file written using JARVIS-Tools package.
data_ThFe2Si2
_symmetry_space_group_name_H-M  'I4/mmm'
_cell_length_a       4.05565
_cell_length_b       4.05565
_cell_length_c       5.61971
_cell_angle_alpha    111.152
_cell_angle_beta     111.152
_cell_angle_gamma    90

_symmetry_Int_Tables_number  139
_chemical_formula_structural  ThFe2Si2
_chemical_formula_sum  ThFe2Si2
_cell_volume  79.4931615813821
_cell_formula_units_Z  1
loop_
  _symmetry_equiv_pos_site_id
 _symmetry_equiv_pos_as_xyz
 1  'x, y, z'
loop_
 _atom_site_type_symbol
 _atom_site_label
 _atom_site_symmetry_multiplicity
 _atom_site_fract_x
 _atom_site_fract_y
 _atom_site_fract_z
 _atom_site_fract_occupancy
 Fe  Fe1  1  0.75000  0.25000  0.50000  1
 Fe  Fe2  1  0.25000  0.75000  0.50000  1
 Si  Si1  1  0.63901  0.63901  0.27801  1
 Si  Si2  1  0.36099  0.36099  0.72199  1
 Th  Th1  1  0.00000  0.00000  0.00000  1
