CIF file written using JARVIS-Tools package.
data_Yb2US3O2
_symmetry_space_group_name_H-M  'I4mm'
_cell_length_a       10.5509
_cell_length_b       10.5509
_cell_length_c       10.5509
_cell_angle_alpha    159.411
_cell_angle_beta     159.411
_cell_angle_gamma    29.2779

_symmetry_Int_Tables_number  107
_chemical_formula_structural  Yb2US3O2
_chemical_formula_sum  Yb2US3O2
_cell_volume  145.16784624327306
_cell_formula_units_Z  1
loop_
  _symmetry_equiv_pos_site_id
 _symmetry_equiv_pos_as_xyz
 1  'x, y, z'
loop_
 _atom_site_type_symbol
 _atom_site_label
 _atom_site_symmetry_multiplicity
 _atom_site_fract_x
 _atom_site_fract_y
 _atom_site_fract_z
 _atom_site_fract_occupancy
 O  O1  1  0.73927  0.23927  0.50000  1
 O  O2  1  0.23927  0.73927  0.50000  1
 S  S1  1  0.62816  0.62816  0.00000  1
 S  S2  1  0.36340  0.36340  -0.00000  1
 S  S3  1  0.03345  0.03345  0.00000  1
 U  U1  1  0.18863  0.18863  0.00000  1
 Yb  Yb1  1  0.49502  0.49502  -0.00000  1
 Yb  Yb2  1  0.81279  0.81279  0.00000  1
