CIF file written using JARVIS-Tools package.
data_BaZn2
_symmetry_space_group_name_H-M  'Imma'
_cell_length_a       5.03651
_cell_length_b       6.16173
_cell_length_c       6.16173
_cell_angle_alpha    78.2624
_cell_angle_beta     65.8772
_cell_angle_gamma    65.8772

_symmetry_Int_Tables_number  74
_chemical_formula_structural  BaZn2
_chemical_formula_sum  Ba2Zn4
_cell_volume  159.12911190041748
_cell_formula_units_Z  2
loop_
  _symmetry_equiv_pos_site_id
 _symmetry_equiv_pos_as_xyz
 1  'x, y, z'
loop_
 _atom_site_type_symbol
 _atom_site_label
 _atom_site_symmetry_multiplicity
 _atom_site_fract_x
 _atom_site_fract_y
 _atom_site_fract_z
 _atom_site_fract_occupancy
 Ba  Ba1  1  0.75000  0.69212  0.80788  1
 Ba  Ba2  1  0.25000  0.30788  0.19212  1
 Zn  Zn1  1  0.57629  0.26447  0.58294  1
 Zn  Zn2  1  0.42371  0.73553  0.41706  1
 Zn  Zn3  1  0.07629  0.08294  0.76447  1
 Zn  Zn4  1  0.92371  0.91706  0.23553  1
