CIF file written using JARVIS-Tools package.
data_YbUTe6
_symmetry_space_group_name_H-M  'Amm2'
_cell_length_a       12.8873
_cell_length_b       12.8873
_cell_length_c       4.3798
_cell_angle_alpha    90
_cell_angle_beta     90
_cell_angle_gamma    160.458

_symmetry_Int_Tables_number  38
_chemical_formula_structural  YbUTe6
_chemical_formula_sum  YbUTe6
_cell_volume  243.3193752153354
_cell_formula_units_Z  1
loop_
  _symmetry_equiv_pos_site_id
 _symmetry_equiv_pos_as_xyz
 1  'x, y, z'
loop_
 _atom_site_type_symbol
 _atom_site_label
 _atom_site_symmetry_multiplicity
 _atom_site_fract_x
 _atom_site_fract_y
 _atom_site_fract_z
 _atom_site_fract_occupancy
 Te  Te1  1  0.42453  0.57547  0.00000  1
 Te  Te2  1  0.57079  0.42921  0.50000  1
 Te  Te3  1  0.70958  0.29042  0.00000  1
 Te  Te4  1  0.29952  0.70048  0.50000  1
 Te  Te5  1  0.06887  0.93113  0.00000  1
 Te  Te6  1  0.92453  0.07547  0.50000  1
 U  U1  1  0.83075  0.16925  0.00000  1
 Yb  Yb1  1  0.17144  0.82856  0.50000  1
