data_image0
_chemical_formula_structural       Ag3Pb3Tm3
_chemical_formula_sum              "Ag3 Pb3 Tm3"
_cell_length_a       7.44884
_cell_length_b       7.44884
_cell_length_c       4.51187
_cell_angle_alpha    90
_cell_angle_beta     90
_cell_angle_gamma    120.001

_space_group_name_H-M_alt    "P 1"
_space_group_IT_number       1

loop_
  _space_group_symop_operation_xyz
  'x, y, z'

loop_
  _atom_site_type_symbol
  _atom_site_label
  _atom_site_symmetry_multiplicity
  _atom_site_fract_x
  _atom_site_fract_y
  _atom_site_fract_z
  _atom_site_occupancy
  Ag  Ag1       1.0  0.24600  0.00000  0.00000  1.0000
  Ag  Ag2       1.0  0.00000  0.24600  0.00000  1.0000
  Ag  Ag3       1.0  0.75400  0.75400  0.00000  1.0000
  Pb  Pb1       1.0  0.66700  0.33300  0.00000  1.0000
  Pb  Pb2       1.0  0.33300  0.66700  0.00000  1.0000
  Pb  Pb3       1.0  0.00003  0.00003  0.50000  1.0000
  Tm  Tm1       1.0  0.56700  0.00002  0.50000  1.0000
  Tm  Tm2       1.0  0.43300  0.43300  0.50000  1.0000
  Tm  Tm3       1.0  0.00002  0.56700  0.50000  1.0000
