CIF file written using JARVIS-Tools package.
data_YbZn2
_symmetry_space_group_name_H-M  'Imma'
_cell_length_a       4.50944
_cell_length_b       5.64126
_cell_length_c       5.64126
_cell_angle_alpha    78.1901
_cell_angle_beta     66.4417
_cell_angle_gamma    66.4416

_symmetry_Int_Tables_number  74
_chemical_formula_structural  YbZn2
_chemical_formula_sum  Yb2Zn4
_cell_volume  120.41042598632096
_cell_formula_units_Z  2
loop_
  _symmetry_equiv_pos_site_id
 _symmetry_equiv_pos_as_xyz
 1  'x, y, z'
loop_
 _atom_site_type_symbol
 _atom_site_label
 _atom_site_symmetry_multiplicity
 _atom_site_fract_x
 _atom_site_fract_y
 _atom_site_fract_z
 _atom_site_fract_occupancy
 Yb  Yb1  1  0.54607  0.70393  0.20393  1
 Yb  Yb2  1  0.45393  0.29607  0.79607  1
 Zn  Zn1  1  0.83529  0.71978  0.60963  1
 Zn  Zn2  1  0.16471  0.28022  0.39037  1
 Zn  Zn3  1  0.83529  0.10963  0.21978  1
 Zn  Zn4  1  0.16471  0.89037  0.78022  1
