CIF file written using JARVIS-Tools package.
data_ErNbO4
_symmetry_space_group_name_H-M  'P2/c'
_cell_length_a       5.11918
_cell_length_b       5.4119
_cell_length_c       5.31993
_cell_angle_alpha    90
_cell_angle_beta     95.4944
_cell_angle_gamma    90

_symmetry_Int_Tables_number  13
_chemical_formula_structural  ErNbO4
_chemical_formula_sum  Er2Nb2O8
_cell_volume  146.70871931003828
_cell_formula_units_Z  2
loop_
  _symmetry_equiv_pos_site_id
 _symmetry_equiv_pos_as_xyz
 1  'x, y, z'
loop_
 _atom_site_type_symbol
 _atom_site_label
 _atom_site_symmetry_multiplicity
 _atom_site_fract_x
 _atom_site_fract_y
 _atom_site_fract_z
 _atom_site_fract_occupancy
 Er  Er1  1  -0.00000  0.24154  0.25000  1
 Er  Er2  1  0.00000  0.75846  0.75000  1
 Nb  Nb1  1  0.50000  0.70810  0.25000  1
 Nb  Nb2  1  0.50000  0.29190  0.75000  1
 O  O1  1  0.24968  0.92831  0.08970  1
 O  O2  1  0.25974  0.44253  0.97984  1
 O  O3  1  0.74026  0.44253  0.52016  1
 O  O4  1  0.75032  0.92831  0.41030  1
 O  O5  1  0.24968  0.07169  0.58970  1
 O  O6  1  0.25974  0.55747  0.47984  1
 O  O7  1  0.74026  0.55747  0.02016  1
 O  O8  1  0.75032  0.07169  0.91030  1
