CIF file written using JARVIS-Tools package.
data_ThCo
_symmetry_space_group_name_H-M  'Cmcm'
_cell_length_a       3.73732
_cell_length_b       4.01692
_cell_length_c       5.89711
_cell_angle_alpha    90
_cell_angle_beta     108.474
_cell_angle_gamma    90

_symmetry_Int_Tables_number  63
_chemical_formula_structural  ThCo
_chemical_formula_sum  Th2Co2
_cell_volume  83.96805150468613
_cell_formula_units_Z  2
loop_
  _symmetry_equiv_pos_site_id
 _symmetry_equiv_pos_as_xyz
 1  'x, y, z'
loop_
 _atom_site_type_symbol
 _atom_site_label
 _atom_site_symmetry_multiplicity
 _atom_site_fract_x
 _atom_site_fract_y
 _atom_site_fract_z
 _atom_site_fract_occupancy
 Co  Co1  1  0.59272  0.25000  0.18543  1
 Co  Co2  1  0.40728  0.75000  0.81457  1
 Th  Th1  1  0.86621  0.25000  0.73241  1
 Th  Th2  1  0.13379  0.75000  0.26759  1
