CIF file written using JARVIS-Tools package.
data_LiCo5O3F5
_symmetry_space_group_name_H-M  'Cm'
_cell_length_a       6.14262
_cell_length_b       6.08587
_cell_length_c       5.95812
_cell_angle_alpha    61.3188
_cell_angle_beta     87.6694
_cell_angle_gamma    121.684

_symmetry_Int_Tables_number  8
_chemical_formula_structural  LiCo5O3F5
_chemical_formula_sum  LiCo5O3F5
_cell_volume  152.9624738874655
_cell_formula_units_Z  1
loop_
  _symmetry_equiv_pos_site_id
 _symmetry_equiv_pos_as_xyz
 1  'x, y, z'
loop_
 _atom_site_type_symbol
 _atom_site_label
 _atom_site_symmetry_multiplicity
 _atom_site_fract_x
 _atom_site_fract_y
 _atom_site_fract_z
 _atom_site_fract_occupancy
 Co  Co1  1  0.60019  0.21672  0.14665  1
 Co  Co2  1  0.96325  0.04556  0.96325  1
 Co  Co3  1  0.62410  0.24328  0.62410  1
 Co  Co4  1  0.28965  0.48731  0.28965  1
 Co  Co5  1  0.14665  0.76318  0.60019  1
 F  F1  1  0.87324  0.22628  0.38138  1
 F  F2  1  0.87573  0.76054  0.37328  1
 F  F3  1  0.37328  0.25809  0.87573  1
 F  F4  1  0.86186  0.74011  0.86186  1
 F  F5  1  0.38138  0.73443  0.87324  1
 Li  Li1  1  0.62300  0.74184  0.62300  1
 O  O1  1  0.39977  0.22806  0.39977  1
 O  O2  1  0.84755  0.29729  0.84755  1
 O  O3  1  0.39034  0.75731  0.39034  1
