CIF file written using JARVIS-Tools package.
data_Li2V3SbO8
_symmetry_space_group_name_H-M  'P6_3mc'
_cell_length_a       5.82764
_cell_length_b       5.82764
_cell_length_c       10.3375
_cell_angle_alpha    90
_cell_angle_beta     90
_cell_angle_gamma    120

_symmetry_Int_Tables_number  186
_chemical_formula_structural  Li2V3SbO8
_chemical_formula_sum  Li4V6Sb2O6
_cell_volume  304.03963564152525
_cell_formula_units_Z  2
loop_
  _symmetry_equiv_pos_site_id
 _symmetry_equiv_pos_as_xyz
 1  'x, y, z'
loop_
 _atom_site_type_symbol
 _atom_site_label
 _atom_site_symmetry_multiplicity
 _atom_site_fract_x
 _atom_site_fract_y
 _atom_site_fract_z
 _atom_site_fract_occupancy
 Li  Li1  1  0.66667  0.33333  0.10426  1
 Li  Li2  1  0.00000  0.00000  0.00692  1
 Li  Li3  1  0.00000  0.00000  0.50692  1
 Li  Li4  1  0.33333  0.66667  0.60426  1
 O  O1  1  0.31029  0.15515  0.39146  1
 O  O2  1  0.49035  0.50965  0.17626  1
 O  O3  1  0.66667  0.33333  0.89961  1
 O  O4  1  0.00000  0.00000  0.69069  1
 O  O5  1  0.00000  0.00000  0.19069  1
 O  O6  1  0.84485  0.68971  0.39146  1
 O  O7  1  0.50965  0.49035  0.67626  1
 O  O8  1  0.98070  0.49035  0.67626  1
 O  O9  1  0.84485  0.15515  0.39146  1
 O  O10  1  0.01930  0.50965  0.17626  1
 O  O11  1  0.49035  0.98070  0.17626  1
 O  O12  1  0.15515  0.31029  0.89146  1
 O  O13  1  0.50965  0.01930  0.67626  1
 O  O14  1  0.15515  0.84485  0.89146  1
 O  O15  1  0.33333  0.66667  0.39961  1
 O  O16  1  0.68971  0.84485  0.89146  1
 Sb  Sb1  1  0.33333  0.66667  -0.00664  1
 Sb  Sb2  1  0.66667  0.33333  0.49336  1
 V  V1  1  0.82325  0.17675  0.78268  1
 V  V2  1  0.35350  0.17675  0.78268  1
 V  V3  1  0.82325  0.64650  0.78268  1
 V  V4  1  0.64650  0.82325  0.28268  1
 V  V5  1  0.17675  0.82325  0.28268  1
 V  V6  1  0.17675  0.35350  0.28268  1
