CIF file written using JARVIS-Tools package.
data_Sr2CaN2
_symmetry_space_group_name_H-M  'P-3m1'
_cell_length_a       3.75754
_cell_length_b       3.75786
_cell_length_c       9.46253
_cell_angle_alpha    90.0124
_cell_angle_beta     89.9936
_cell_angle_gamma    119.983

_symmetry_Int_Tables_number  164
_chemical_formula_structural  Sr2CaN2
_chemical_formula_sum  Sr2CaN2
_cell_volume  115.73316862538545
_cell_formula_units_Z  1
loop_
  _symmetry_equiv_pos_site_id
 _symmetry_equiv_pos_as_xyz
 1  'x, y, z'
loop_
 _atom_site_type_symbol
 _atom_site_label
 _atom_site_symmetry_multiplicity
 _atom_site_fract_x
 _atom_site_fract_y
 _atom_site_fract_z
 _atom_site_fract_occupancy
 Ca  Ca1  1  -0.00000  0.00000  0.50000  1
 N  N1  1  0.66671  0.33323  0.66138  1
 N  N2  1  0.33329  0.66677  0.33862  1
 Sr  Sr1  1  0.66668  0.33327  0.21509  1
 Sr  Sr2  1  0.33332  0.66673  0.78491  1
