CIF file written using JARVIS-Tools package.
data_BaGa3Sn
_symmetry_space_group_name_H-M  'I4mm'
_cell_length_a       6.38507
_cell_length_b       6.38506
_cell_length_c       6.38506
_cell_angle_alpha    134.883
_cell_angle_beta     134.883
_cell_angle_gamma    65.7124

_symmetry_Int_Tables_number  107
_chemical_formula_structural  BaGa3Sn
_chemical_formula_sum  BaGa3Sn
_cell_volume  128.72842460237214
_cell_formula_units_Z  1
loop_
  _symmetry_equiv_pos_site_id
 _symmetry_equiv_pos_as_xyz
 1  'x, y, z'
loop_
 _atom_site_type_symbol
 _atom_site_label
 _atom_site_symmetry_multiplicity
 _atom_site_fract_x
 _atom_site_fract_y
 _atom_site_fract_z
 _atom_site_fract_occupancy
 Ba  Ba1  1  0.99978  0.99978  -0.00000  1
 Ga  Ga1  1  0.36168  0.36168  0.00000  1
 Ga  Ga2  1  0.75892  0.25892  0.50000  1
 Ga  Ga3  1  0.25892  0.75892  0.50000  1
 Sn  Sn1  1  0.62071  0.62071  0.00000  1
