CIF file written using JARVIS-Tools package.
data_Li2MnCoO4
_symmetry_space_group_name_H-M  'C2/m'
_cell_length_a       2.85774
_cell_length_b       4.94274
_cell_length_c       4.97987
_cell_angle_alpha    99.9284
_cell_angle_beta     106.692
_cell_angle_gamma    89.9889

_symmetry_Int_Tables_number  12
_chemical_formula_structural  Li2MnCoO4
_chemical_formula_sum  Li2MnCoO4
_cell_volume  66.27690491885889
_cell_formula_units_Z  1
loop_
  _symmetry_equiv_pos_site_id
 _symmetry_equiv_pos_as_xyz
 1  'x, y, z'
loop_
 _atom_site_type_symbol
 _atom_site_label
 _atom_site_symmetry_multiplicity
 _atom_site_fract_x
 _atom_site_fract_y
 _atom_site_fract_z
 _atom_site_fract_occupancy
 Co  Co1  1  0.00000  0.00000  0.00000  1
 Li  Li1  1  0.25247  0.75745  0.50510  1
 Li  Li2  1  0.74753  0.24255  0.49490  1
 Mn  Mn1  1  0.50000  0.50000  -0.00000  1
 O  O1  1  0.61161  0.86519  0.22296  1
 O  O2  1  0.11265  0.37087  0.22500  1
 O  O3  1  0.88735  0.62913  0.77500  1
 O  O4  1  0.38839  0.13481  0.77704  1
