CIF file written using JARVIS-Tools package.
data_CrFeSb4
_symmetry_space_group_name_H-M  'P2/m'
_cell_length_a       3.27118
_cell_length_b       5.92674
_cell_length_c       6.71048
_cell_angle_alpha    89.8969
_cell_angle_beta     90
_cell_angle_gamma    90

_symmetry_Int_Tables_number  10
_chemical_formula_structural  CrFeSb4
_chemical_formula_sum  CrFeSb4
_cell_volume  130.09845041253445
_cell_formula_units_Z  1
loop_
  _symmetry_equiv_pos_site_id
 _symmetry_equiv_pos_as_xyz
 1  'x, y, z'
loop_
 _atom_site_type_symbol
 _atom_site_label
 _atom_site_symmetry_multiplicity
 _atom_site_fract_x
 _atom_site_fract_y
 _atom_site_fract_z
 _atom_site_fract_occupancy
 Cr  Cr1  1  0.50000  0.50000  0.50000  1
 Fe  Fe1  1  0.00000  0.00000  0.00000  1
 Sb  Sb1  1  0.50000  0.30124  0.86572  1
 Sb  Sb2  1  0.50000  0.69876  0.13428  1
 Sb  Sb3  1  0.00000  0.81930  0.65110  1
 Sb  Sb4  1  0.00000  0.18070  0.34890  1
