CIF file written using JARVIS-Tools package.
data_NdTlPd
_symmetry_space_group_name_H-M  'P-62m'
_cell_length_a       7.93616
_cell_length_b       7.93616
_cell_length_c       3.93608
_cell_angle_alpha    90
_cell_angle_beta     90
_cell_angle_gamma    120

_symmetry_Int_Tables_number  189
_chemical_formula_structural  NdTlPd
_chemical_formula_sum  Nd3Tl3Pd3
_cell_volume  214.69210002187376
_cell_formula_units_Z  3
loop_
  _symmetry_equiv_pos_site_id
 _symmetry_equiv_pos_as_xyz
 1  'x, y, z'
loop_
 _atom_site_type_symbol
 _atom_site_label
 _atom_site_symmetry_multiplicity
 _atom_site_fract_x
 _atom_site_fract_y
 _atom_site_fract_z
 _atom_site_fract_occupancy
 Nd  Nd1  1  0.00000  0.40459  0.50000  1
 Nd  Nd2  1  0.59541  0.59541  0.50000  1
 Nd  Nd3  1  0.40459  0.00000  0.50000  1
 Pd  Pd1  1  0.33333  0.66667  0.00000  1
 Pd  Pd2  1  0.66667  0.33333  0.00000  1
 Pd  Pd3  1  0.00000  0.00000  0.50000  1
 Tl  Tl1  1  0.00000  0.73707  0.00000  1
 Tl  Tl2  1  0.26293  0.26293  0.00000  1
 Tl  Tl3  1  0.73707  0.00000  0.00000  1
