CIF file written using JARVIS-Tools package.
data_H4C6S
_symmetry_space_group_name_H-M  'P1'
_cell_length_a       3.81006
_cell_length_b       11.7653
_cell_length_c       11.5344
_cell_angle_alpha    117.072
_cell_angle_beta     96.5172
_cell_angle_gamma    85.5028

_symmetry_Int_Tables_number  1
_chemical_formula_structural  H4C6S
_chemical_formula_sum  H6C24S4
_cell_volume  457.2127527953013
_cell_formula_units_Z  4
loop_
  _symmetry_equiv_pos_site_id
 _symmetry_equiv_pos_as_xyz
 1  'x, y, z'
loop_
 _atom_site_type_symbol
 _atom_site_label
 _atom_site_symmetry_multiplicity
 _atom_site_fract_x
 _atom_site_fract_y
 _atom_site_fract_z
 _atom_site_fract_occupancy
 C  C1  1  0.17058  0.75909  0.55189  1
 C  C2  1  0.20316  0.62681  0.48698  1
 C  C3  1  0.22260  0.06227  0.85861  1
 C  C4  1  0.41442  0.55932  0.54443  1
 C  C5  1  0.91442  0.55932  0.04443  1
 C  C6  1  0.35083  0.82858  0.67497  1
 C  C7  1  0.85083  0.82858  0.17497  1
 C  C8  1  0.57662  0.62835  0.67140  1
 C  C9  1  0.72260  0.06227  0.35861  1
 C  C10  1  0.07662  0.62835  0.17140  1
 C  C11  1  0.49195  0.42353  0.46571  1
 C  C12  1  0.04859  0.76119  0.23515  1
 C  C13  1  0.35938  0.97155  0.72751  1
 C  C14  1  0.85939  0.97154  0.22751  1
 C  C15  1  0.65084  0.19025  0.37630  1
 C  C16  1  0.15084  0.19025  0.87630  1
 C  C17  1  0.99195  0.42353  0.96571  1
 C  C18  1  0.56647  0.36801  0.33551  1
 C  C19  1  0.06646  0.36801  0.83551  1
 C  C20  1  0.65970  0.23805  0.28560  1
 C  C21  1  0.15969  0.23805  0.78560  1
 C  C22  1  0.54859  0.76119  0.73515  1
 C  C23  1  0.67058  0.75909  0.05189  1
 C  C24  1  0.70316  0.62681  0.98698  1
 H  H1  1  0.50687  0.80975  0.00530  1
 H  H2  1  0.56455  0.42233  0.28027  1
 H  H3  1  0.06306  0.57466  0.39105  1
 H  H4  1  0.56306  0.57466  0.89105  1
 H  H5  1  0.20023  0.81311  0.32861  1
 H  H6  1  0.75224  0.57831  0.71559  1
 H  H7  1  0.25223  0.57831  0.21559  1
 H  H8  1  0.13657  -0.00179  0.23627  1
 H  H9  1  0.63656  -0.00179  0.73627  1
 H  H10  1  0.06454  0.42233  0.78027  1
 H  H11  1  0.73623  0.18111  0.18677  1
 H  H12  1  0.23623  0.18111  0.68676  1
 H  H13  1  0.22394  -0.00389  0.65228  1
 H  H14  1  0.72395  -0.00389  0.15228  1
 H  H15  1  0.00687  0.80975  0.50530  1
 H  H16  1  0.70023  0.81311  0.82861  1
 S  S1  1  0.52752  0.31196  0.52553  1
 S  S2  1  0.16885  0.02017  0.97452  1
 S  S3  1  0.02751  0.31196  0.02553  1
 S  S4  1  0.66885  0.02017  0.47452  1
