CIF file written using JARVIS-Tools package.
data_Nb3Pd
_symmetry_space_group_name_H-M  'Cmmm'
_cell_length_a       2.81159
_cell_length_b       2.8116
_cell_length_c       9.10854
_cell_angle_alpha    90
_cell_angle_beta     90
_cell_angle_gamma    104.464

_symmetry_Int_Tables_number  65
_chemical_formula_structural  Nb3Pd
_chemical_formula_sum  Nb3Pd
_cell_volume  69.72138825357537
_cell_formula_units_Z  1
loop_
  _symmetry_equiv_pos_site_id
 _symmetry_equiv_pos_as_xyz
 1  'x, y, z'
loop_
 _atom_site_type_symbol
 _atom_site_label
 _atom_site_symmetry_multiplicity
 _atom_site_fract_x
 _atom_site_fract_y
 _atom_site_fract_z
 _atom_site_fract_occupancy
 Nb  Nb1  1  0.50000  0.50000  0.75954  1
 Nb  Nb2  1  0.00000  0.00000  0.50000  1
 Nb  Nb3  1  0.50000  0.50000  0.24046  1
 Pd  Pd1  1  0.00000  0.00000  0.00000  1
