CIF file written using JARVIS-Tools package.
data_Y2Mg3Zn3
_symmetry_space_group_name_H-M  'R3m'
_cell_length_a       8.46897
_cell_length_b       8.46897
_cell_length_c       8.46897
_cell_angle_alpha    33.5062
_cell_angle_beta     33.5062
_cell_angle_gamma    33.5062

_symmetry_Int_Tables_number  160
_chemical_formula_structural  Y2Mg3Zn3
_chemical_formula_sum  Y2Mg3Zn3
_cell_volume  164.86155986977772
_cell_formula_units_Z  1
loop_
  _symmetry_equiv_pos_site_id
 _symmetry_equiv_pos_as_xyz
 1  'x, y, z'
loop_
 _atom_site_type_symbol
 _atom_site_label
 _atom_site_symmetry_multiplicity
 _atom_site_fract_x
 _atom_site_fract_y
 _atom_site_fract_z
 _atom_site_fract_occupancy
 Mg  Mg1  1  0.75348  0.75348  0.75348  1
 Mg  Mg2  1  0.24758  0.24758  0.24758  1
 Mg  Mg3  1  0.37654  0.37654  0.37654  1
 Y  Y1  1  0.99290  0.99290  0.99290  1
 Y  Y2  1  0.50620  0.50620  0.50620  1
 Zn  Zn1  1  0.87276  0.87276  0.87276  1
 Zn  Zn2  1  0.11990  0.11990  0.11990  1
 Zn  Zn3  1  0.63066  0.63066  0.63066  1
