CIF file written using JARVIS-Tools package.
data_ZnH14C9O4
_symmetry_space_group_name_H-M  'P1'
_cell_length_a       4.15239
_cell_length_b       4.46045
_cell_length_c       13.163
_cell_angle_alpha    93.2407
_cell_angle_beta     95.1074
_cell_angle_gamma    109.076

_symmetry_Int_Tables_number  1
_chemical_formula_structural  ZnH14C9O4
_chemical_formula_sum  ZnH4C9O4
_cell_volume  228.54588690294565
_cell_formula_units_Z  1
loop_
  _symmetry_equiv_pos_site_id
 _symmetry_equiv_pos_as_xyz
 1  'x, y, z'
loop_
 _atom_site_type_symbol
 _atom_site_label
 _atom_site_symmetry_multiplicity
 _atom_site_fract_x
 _atom_site_fract_y
 _atom_site_fract_z
 _atom_site_fract_occupancy
 C  C1  1  0.83403  0.53293  0.68010  1
 C  C2  1  0.98296  0.30513  0.40042  1
 C  C3  1  0.88188  0.33825  0.58665  1
 C  C4  1  0.95366  0.52149  0.49177  1
 C  C5  1  0.72894  0.32865  0.76890  1
 C  C6  1  0.65836  0.50240  0.86360  1
 C  C7  1  0.52012  0.26803  0.94221  1
 C  C8  1  0.40911  0.39691  0.03675  1
 C  C9  1  -0.00259  0.45773  0.30043  1
 H  H1  1  0.74479  0.61681  0.47177  1
 H  H2  1  0.21619  0.24038  0.41470  1
 H  H3  1  0.76329  0.08306  0.39076  1
 H  H4  1  0.29974  0.06552  0.90656  1
 H  H5  1  0.71149  0.16075  0.97014  1
 H  H6  1  0.19034  0.72896  0.50774  1
 H  H7  1  0.64771  0.12853  0.56711  1
 H  H8  1  0.63687  0.64138  0.65860  1
 H  H9  1  0.07278  0.73310  0.70471  1
 H  H10  1  0.47258  0.62180  0.84098  1
 H  H11  1  0.89291  0.69100  0.89858  1
 H  H12  1  0.09008  0.24171  0.60673  1
 H  H13  1  0.92669  0.22150  0.79094  1
 H  H14  1  0.49529  0.12606  0.74093  1
 O  O1  1  0.77967  0.32794  0.22426  1
 O  O2  1  0.21263  0.20325  0.09062  1
 O  O3  1  0.23963  0.72682  0.29794  1
 O  O4  1  0.51489  0.69853  0.05780  1
 Zn  Zn1  1  0.38666  0.91616  0.17284  1
