CIF file written using JARVIS-Tools package.
data_H3C7NO
_symmetry_space_group_name_H-M  'P2_1'
_cell_length_a       3.62616
_cell_length_b       5.43219
_cell_length_c       11.6532
_cell_angle_alpha    89.7975
_cell_angle_beta     89.5877
_cell_angle_gamma    86.6051

_symmetry_Int_Tables_number  4
_chemical_formula_structural  H3C7NO
_chemical_formula_sum  H6C4N2O2
_cell_volume  229.13527955791105
_cell_formula_units_Z  2
loop_
  _symmetry_equiv_pos_site_id
 _symmetry_equiv_pos_as_xyz
 1  'x, y, z'
loop_
 _atom_site_type_symbol
 _atom_site_label
 _atom_site_symmetry_multiplicity
 _atom_site_fract_x
 _atom_site_fract_y
 _atom_site_fract_z
 _atom_site_fract_occupancy
 C  C1  1  0.76492  0.22573  0.41248  1
 C  C2  1  0.16019  0.73298  0.72104  1
 C  C3  1  0.30437  0.55437  0.79604  1
 C  C4  1  0.26237  0.60863  0.91238  1
 C  C5  1  0.08494  0.83394  0.94977  1
 C  C6  1  0.94342  0.01170  0.87141  1
 C  C7  1  0.08395  0.82268  0.37141  1
 C  C8  1  0.04549  0.87711  0.25530  1
 C  C9  1  0.86751  0.10150  0.22109  1
 C  C10  1  0.04662  0.88140  0.07169  1
 C  C11  1  0.72328  0.28007  0.29615  1
 C  C12  1  0.98217  0.95735  0.75531  1
 C  C13  1  0.94236  0.00042  0.44981  1
 C  C14  1  0.98092  0.95303  0.57172  1
 H  H1  1  0.44170  0.38457  0.76410  1
 H  H2  1  0.21808  0.65038  0.40096  1
 H  H3  1  0.58610  0.44990  0.26425  1
 H  H4  1  0.66070  0.35644  0.47748  1
 H  H5  1  0.80924  0.18400  0.90098  1
 H  H6  1  0.36634  0.47787  0.97737  1
 N  N1  1  0.87058  0.09151  0.65815  1
 N  N2  1  0.15711  0.74296  0.15808  1
 O  O1  1  0.16188  0.72803  0.60300  1
 O  O2  1  0.86577  0.10645  0.10304  1
