CIF file written using JARVIS-Tools package.
data_HC3S2NO
_symmetry_space_group_name_H-M  'P1'
_cell_length_a       4.14314
_cell_length_b       4.42694
_cell_length_c       12.1071
_cell_angle_alpha    89.7175
_cell_angle_beta     85.1982
_cell_angle_gamma    88.5122

_symmetry_Int_Tables_number  1
_chemical_formula_structural  HC3S2NO
_chemical_formula_sum  H2C6S4N2O2
_cell_volume  221.20790243472655
_cell_formula_units_Z  2
loop_
  _symmetry_equiv_pos_site_id
 _symmetry_equiv_pos_as_xyz
 1  'x, y, z'
loop_
 _atom_site_type_symbol
 _atom_site_label
 _atom_site_symmetry_multiplicity
 _atom_site_fract_x
 _atom_site_fract_y
 _atom_site_fract_z
 _atom_site_fract_occupancy
 C  C1  1  0.85766  0.68840  0.19719  1
 C  C2  1  0.35765  0.68841  0.69719  1
 C  C3  1  0.38965  0.16549  0.80672  1
 C  C4  1  0.88966  0.16548  0.30672  1
 C  C5  1  0.73436  0.37285  0.22510  1
 C  C6  1  0.23435  0.37286  0.72510  1
 H  H1  1  0.92170  0.73059  0.36111  1
 H  H2  1  0.42168  0.73060  0.86111  1
 N  N1  1  0.89544  0.86045  0.28991  1
 N  N2  1  0.39542  0.86046  0.78992  1
 O  O1  1  0.48286  0.29358  0.18811  1
 O  O2  1  0.98285  0.29358  0.68811  1
 S  S1  1  0.46407  0.29646  0.93016  1
 S  S2  1  0.96408  0.29645  0.43016  1
 S  S3  1  0.91679  0.79356  0.06793  1
 S  S4  1  0.41679  0.79357  0.56793  1
