CIF file written using JARVIS-Tools package.
data_InGaAs2
_symmetry_space_group_name_H-M  'R3m'
_cell_length_a       7.31266
_cell_length_b       7.31266
_cell_length_c       7.31266
_cell_angle_alpha    33.4482
_cell_angle_beta     33.4482
_cell_angle_gamma    33.4482

_symmetry_Int_Tables_number  160
_chemical_formula_structural  InGaAs2
_chemical_formula_sum  InGaAs2
_cell_volume  105.79921435374483
_cell_formula_units_Z  1
loop_
  _symmetry_equiv_pos_site_id
 _symmetry_equiv_pos_as_xyz
 1  'x, y, z'
loop_
 _atom_site_type_symbol
 _atom_site_label
 _atom_site_symmetry_multiplicity
 _atom_site_fract_x
 _atom_site_fract_y
 _atom_site_fract_z
 _atom_site_fract_occupancy
 As  As1  1  0.99477  0.99477  0.99477  1
 As  As2  1  0.50457  0.50457  0.50457  1
 Ga  Ga1  1  0.87507  0.87507  0.87507  1
 In  In1  1  0.37559  0.37559  0.37559  1
