CIF file written using JARVIS-Tools package.
data_YbSm3S4
_symmetry_space_group_name_H-M  'R-3m'
_cell_length_a       13.3236
_cell_length_b       13.3236
_cell_length_c       13.3236
_cell_angle_alpha    17.1807
_cell_angle_beta     17.1807
_cell_angle_gamma    17.1807

_symmetry_Int_Tables_number  166
_chemical_formula_structural  YbSm3S4
_chemical_formula_sum  YbSm3S4
_cell_volume  180.06182877410035
_cell_formula_units_Z  1
loop_
  _symmetry_equiv_pos_site_id
 _symmetry_equiv_pos_as_xyz
 1  'x, y, z'
loop_
 _atom_site_type_symbol
 _atom_site_label
 _atom_site_symmetry_multiplicity
 _atom_site_fract_x
 _atom_site_fract_y
 _atom_site_fract_z
 _atom_site_fract_occupancy
 S  S1  1  0.37380  0.37380  0.37380  1
 S  S2  1  0.12489  0.12489  0.12489  1
 S  S3  1  0.62620  0.62620  0.62620  1
 S  S4  1  0.87511  0.87511  0.87511  1
 Sm  Sm1  1  0.24949  0.24949  0.24949  1
 Sm  Sm2  1  0.50000  0.50000  0.50000  1
 Sm  Sm3  1  0.75051  0.75051  0.75051  1
 Yb  Yb1  1  0.00000  0.00000  0.00000  1
