CIF file written using JARVIS-Tools package.
data_C3N4
_symmetry_space_group_name_H-M  'Imm2'
_cell_length_a       5.7173
_cell_length_b       5.7173
_cell_length_c       5.7173
_cell_angle_alpha    156.827
_cell_angle_beta     120.133
_cell_angle_gamma    65.0809

_symmetry_Int_Tables_number  44
_chemical_formula_structural  C3N4
_chemical_formula_sum  C3N4
_cell_volume  63.15660118038047
_cell_formula_units_Z  1
loop_
  _symmetry_equiv_pos_site_id
 _symmetry_equiv_pos_as_xyz
 1  'x, y, z'
loop_
 _atom_site_type_symbol
 _atom_site_label
 _atom_site_symmetry_multiplicity
 _atom_site_fract_x
 _atom_site_fract_y
 _atom_site_fract_z
 _atom_site_fract_occupancy
 C  C1  1  0.71928  -0.00000  0.71928  1
 C  C2  1  0.23596  0.13067  0.10529  1
 C  C3  1  0.97463  0.86933  0.10529  1
 N  N1  1  0.97572  0.00000  0.97572  1
 N  N2  1  0.97574  0.31023  0.66551  1
 N  N3  1  0.35528  0.68977  0.66551  1
 N  N4  1  0.60303  0.50000  0.10303  1
