CIF file written using JARVIS-Tools package.
data_RbO
_symmetry_space_group_name_H-M  'Cmcm'
_cell_length_a       5.4844
_cell_length_b       5.4844
_cell_length_c       4.17928
_cell_angle_alpha    90
_cell_angle_beta     90
_cell_angle_gamma    138.513

_symmetry_Int_Tables_number  63
_chemical_formula_structural  RbO
_chemical_formula_sum  Rb2O2
_cell_volume  83.27420178332069
_cell_formula_units_Z  2
loop_
  _symmetry_equiv_pos_site_id
 _symmetry_equiv_pos_as_xyz
 1  'x, y, z'
loop_
 _atom_site_type_symbol
 _atom_site_label
 _atom_site_symmetry_multiplicity
 _atom_site_fract_x
 _atom_site_fract_y
 _atom_site_fract_z
 _atom_site_fract_occupancy
 O  O1  1  0.91976  0.08024  0.25000  1
 O  O2  1  0.08024  0.91976  0.75000  1
 Rb  Rb1  1  0.63018  0.36982  0.25000  1
 Rb  Rb2  1  0.36982  0.63018  0.75000  1
