CIF file written using JARVIS-Tools package.
data_BaCa2I6
_symmetry_space_group_name_H-M  'P4_2/mnm'
_cell_length_a       7.59009
_cell_length_b       7.59009
_cell_length_c       14.4353
_cell_angle_alpha    90
_cell_angle_beta     90
_cell_angle_gamma    90

_symmetry_Int_Tables_number  136
_chemical_formula_structural  BaCa2I6
_chemical_formula_sum  Ba2Ca4I2
_cell_volume  831.6084505487897
_cell_formula_units_Z  2
loop_
  _symmetry_equiv_pos_site_id
 _symmetry_equiv_pos_as_xyz
 1  'x, y, z'
loop_
 _atom_site_type_symbol
 _atom_site_label
 _atom_site_symmetry_multiplicity
 _atom_site_fract_x
 _atom_site_fract_y
 _atom_site_fract_z
 _atom_site_fract_occupancy
 Ba  Ba1  1  0.00000  0.00000  0.00000  1
 Ba  Ba2  1  0.50000  0.50000  0.50000  1
 Ca  Ca1  1  0.00000  0.00000  0.33253  1
 Ca  Ca2  1  0.00000  0.00000  0.66747  1
 Ca  Ca3  1  0.50000  0.50000  0.16747  1
 Ca  Ca4  1  0.50000  0.50000  0.83253  1
 I  I1  1  0.20790  0.79210  0.18025  1
 I  I2  1  0.20790  0.79210  0.81975  1
 I  I3  1  0.79210  0.20790  0.18025  1
 I  I4  1  0.31564  0.31564  0.00000  1
 I  I5  1  0.18436  0.81564  0.50000  1
 I  I6  1  0.70790  0.70790  0.68025  1
 I  I7  1  0.70790  0.70790  0.31975  1
 I  I8  1  0.29210  0.29210  0.31975  1
 I  I9  1  0.68436  0.68436  0.00000  1
 I  I10  1  0.81564  0.18436  0.50000  1
 I  I11  1  0.29210  0.29210  0.68025  1
 I  I12  1  0.79210  0.20790  0.81975  1
