CIF file written using JARVIS-Tools package.
data_Li3FeF6
_symmetry_space_group_name_H-M  'P-31c'
_cell_length_a       4.97243
_cell_length_b       4.97243
_cell_length_c       9.22807
_cell_angle_alpha    90
_cell_angle_beta     90
_cell_angle_gamma    120

_symmetry_Int_Tables_number  163
_chemical_formula_structural  Li3FeF6
_chemical_formula_sum  Li6Fe2F2
_cell_volume  197.59596852790352
_cell_formula_units_Z  2
loop_
  _symmetry_equiv_pos_site_id
 _symmetry_equiv_pos_as_xyz
 1  'x, y, z'
loop_
 _atom_site_type_symbol
 _atom_site_label
 _atom_site_symmetry_multiplicity
 _atom_site_fract_x
 _atom_site_fract_y
 _atom_site_fract_z
 _atom_site_fract_occupancy
 F  F1  1  0.03287  0.35905  0.36958  1
 F  F2  1  0.35905  0.32619  0.63042  1
 F  F3  1  0.64095  0.96713  0.13042  1
 F  F4  1  0.67381  0.64095  0.86958  1
 F  F5  1  0.96713  0.64095  0.63042  1
 F  F6  1  0.35905  0.03287  0.86958  1
 F  F7  1  0.03287  0.67381  0.13042  1
 F  F8  1  0.96713  0.32619  0.86958  1
 F  F9  1  0.32619  0.96713  0.36958  1
 F  F10  1  0.64095  0.67381  0.36958  1
 F  F11  1  0.32619  0.35905  0.13042  1
 F  F12  1  0.67381  0.03287  0.63042  1
 Fe  Fe1  1  0.33333  0.66667  0.25000  1
 Fe  Fe2  1  0.66667  0.33333  0.75000  1
 Li  Li1  1  0.33333  0.66667  0.54772  1
 Li  Li2  1  0.33333  0.66667  0.95228  1
 Li  Li3  1  0.66667  0.33333  0.45228  1
 Li  Li4  1  0.00000  0.00000  0.25000  1
 Li  Li5  1  0.00000  0.00000  0.75000  1
 Li  Li6  1  0.66667  0.33333  0.04772  1
