CIF file written using JARVIS-Tools package.
data_H4C4SO
_symmetry_space_group_name_H-M  'P1'
_cell_length_a       5.38469
_cell_length_b       6.12927
_cell_length_c       6.6553
_cell_angle_alpha    79.2434
_cell_angle_beta     89.438
_cell_angle_gamma    80.7435

_symmetry_Int_Tables_number  1
_chemical_formula_structural  H4C4SO
_chemical_formula_sum  H8C8S2O2
_cell_volume  212.9372370369641
_cell_formula_units_Z  2
loop_
  _symmetry_equiv_pos_site_id
 _symmetry_equiv_pos_as_xyz
 1  'x, y, z'
loop_
 _atom_site_type_symbol
 _atom_site_label
 _atom_site_symmetry_multiplicity
 _atom_site_fract_x
 _atom_site_fract_y
 _atom_site_fract_z
 _atom_site_fract_occupancy
 C  C1  1  0.79439  0.09666  0.27044  1
 C  C2  1  0.53075  0.49665  0.89431  1
 C  C3  1  0.21611  0.84574  0.75914  1
 C  C4  1  0.03058  0.99677  0.39413  1
 C  C5  1  0.71510  0.34554  0.25969  1
 C  C6  1  0.98539  0.94865  0.62432  1
 C  C7  1  0.48480  0.44845  0.12439  1
 C  C8  1  0.29487  0.59675  0.77026  1
 H  H1  1  0.67371  0.37384  0.41657  1
 H  H2  1  0.11603  0.83639  0.35203  1
 H  H3  1  0.87493  0.43294  0.20852  1
 H  H4  1  0.37603  0.93276  0.70729  1
 H  H5  1  0.67161  0.61101  0.86954  1
 H  H6  1  0.17128  0.11127  0.36897  1
 H  H7  1  0.17553  0.87456  0.91597  1
 H  H8  1  0.61624  0.33626  0.85225  1
 O  O1  1  0.77721  0.99377  0.69675  1
 O  O2  1  0.27634  0.49360  0.19635  1
 S  S1  1  0.63126  0.94385  0.16567  1
 S  S2  1  0.13152  0.44407  0.66553  1
