CIF file written using JARVIS-Tools package.
data_CSN3
_symmetry_space_group_name_H-M  'P-1'
_cell_length_a       5.66969
_cell_length_b       5.5661
_cell_length_c       6.67334
_cell_angle_alpha    76.6295
_cell_angle_beta     66.5407
_cell_angle_gamma    78.2377

_symmetry_Int_Tables_number  2
_chemical_formula_structural  CSN3
_chemical_formula_sum  C2S2N6
_cell_volume  186.47367577886857
_cell_formula_units_Z  2
loop_
  _symmetry_equiv_pos_site_id
 _symmetry_equiv_pos_as_xyz
 1  'x, y, z'
loop_
 _atom_site_type_symbol
 _atom_site_label
 _atom_site_symmetry_multiplicity
 _atom_site_fract_x
 _atom_site_fract_y
 _atom_site_fract_z
 _atom_site_fract_occupancy
 C  C1  1  0.43774  0.28517  0.13275  1
 C  C2  1  0.56226  0.71483  0.86725  1
 N  N1  1  0.88996  0.20859  0.63458  1
 N  N2  1  0.11004  0.79141  0.36542  1
 N  N3  1  -0.04523  0.75613  0.31812  1
 N  N4  1  0.04523  0.24387  0.68188  1
 N  N5  1  0.29444  0.28844  0.03895  1
 N  N6  1  0.70556  0.71156  -0.03895  1
 S  S1  1  0.64320  0.34891  0.21476  1
 S  S2  1  0.35680  0.65109  0.78524  1
