CIF file written using JARVIS-Tools package.
data_Mn6PtRh
_symmetry_space_group_name_H-M  'P4/mmm'
_cell_length_a       3.61399
_cell_length_b       3.61399
_cell_length_c       7.22513
_cell_angle_alpha    90
_cell_angle_beta     90
_cell_angle_gamma    90

_symmetry_Int_Tables_number  123
_chemical_formula_structural  Mn6PtRh
_chemical_formula_sum  Mn6PtRh
_cell_volume  94.36664922351365
_cell_formula_units_Z  1
loop_
  _symmetry_equiv_pos_site_id
 _symmetry_equiv_pos_as_xyz
 1  'x, y, z'
loop_
 _atom_site_type_symbol
 _atom_site_label
 _atom_site_symmetry_multiplicity
 _atom_site_fract_x
 _atom_site_fract_y
 _atom_site_fract_z
 _atom_site_fract_occupancy
 Mn  Mn1  1  0.50000  0.50000  0.00000  1
 Mn  Mn2  1  0.50000  0.50000  0.50000  1
 Mn  Mn3  1  0.50000  0.00000  0.25241  1
 Mn  Mn4  1  0.50000  0.00000  0.74759  1
 Mn  Mn5  1  0.00000  0.50000  0.25241  1
 Mn  Mn6  1  0.00000  0.50000  0.74759  1
 Pt  Pt1  1  0.00000  0.00000  0.00000  1
 Rh  Rh1  1  0.00000  0.00000  0.50000  1
