CIF file written using JARVIS-Tools package.
data_Pr2Tl3In3
_symmetry_space_group_name_H-M  'Pmmm'
_cell_length_a       4.78845
_cell_length_b       4.81405
_cell_length_c       9.53758
_cell_angle_alpha    90
_cell_angle_beta     90
_cell_angle_gamma    90

_symmetry_Int_Tables_number  47
_chemical_formula_structural  Pr2Tl3In3
_chemical_formula_sum  Pr2Tl3In3
_cell_volume  219.85885669976776
_cell_formula_units_Z  1
loop_
  _symmetry_equiv_pos_site_id
 _symmetry_equiv_pos_as_xyz
 1  'x, y, z'
loop_
 _atom_site_type_symbol
 _atom_site_label
 _atom_site_symmetry_multiplicity
 _atom_site_fract_x
 _atom_site_fract_y
 _atom_site_fract_z
 _atom_site_fract_occupancy
 In  In1  1  0.50000  0.50000  0.25377  1
 In  In2  1  0.50000  0.50000  0.74623  1
 In  In3  1  0.00000  0.50000  0.50000  1
 Pr  Pr1  1  0.00000  0.00000  0.25152  1
 Pr  Pr2  1  0.00000  0.00000  0.74848  1
 Tl  Tl1  1  0.00000  0.50000  0.00000  1
 Tl  Tl2  1  0.50000  0.00000  0.50000  1
 Tl  Tl3  1  0.50000  0.00000  0.00000  1
