CIF file written using JARVIS-Tools package.
data_Na2ScCuCl6
_symmetry_space_group_name_H-M  'Fm-3m'
_cell_length_a       6.98606
_cell_length_b       6.98606
_cell_length_c       6.98605
_cell_angle_alpha    60
_cell_angle_beta     60
_cell_angle_gamma    60

_symmetry_Int_Tables_number  225
_chemical_formula_structural  Na2ScCuCl6
_chemical_formula_sum  Na2ScCuCl6
_cell_volume  241.0909695385334
_cell_formula_units_Z  1
loop_
  _symmetry_equiv_pos_site_id
 _symmetry_equiv_pos_as_xyz
 1  'x, y, z'
loop_
 _atom_site_type_symbol
 _atom_site_label
 _atom_site_symmetry_multiplicity
 _atom_site_fract_x
 _atom_site_fract_y
 _atom_site_fract_z
 _atom_site_fract_occupancy
 Cl  Cl1  1  0.74999  0.25001  0.25001  1
 Cl  Cl2  1  0.25001  0.25001  0.74999  1
 Cl  Cl3  1  0.25001  0.74999  0.74999  1
 Cl  Cl4  1  0.25001  0.74999  0.25001  1
 Cl  Cl5  1  0.74999  0.25001  0.74999  1
 Cl  Cl6  1  0.74999  0.74999  0.25001  1
 Cu  Cu1  1  0.50000  0.50000  0.50000  1
 Na  Na1  1  0.75000  0.75000  0.75000  1
 Na  Na2  1  0.25000  0.25000  0.25000  1
 Sc  Sc1  1  0.00000  0.00000  0.00000  1
