CIF file written using JARVIS-Tools package.
data_H4C5
_symmetry_space_group_name_H-M  'P2_1/c'
_cell_length_a       7.7573
_cell_length_b       5.85079
_cell_length_c       7.94198
_cell_angle_alpha    90
_cell_angle_beta     114.106
_cell_angle_gamma    90

_symmetry_Int_Tables_number  14
_chemical_formula_structural  H4C5
_chemical_formula_sum  H6C20
_cell_volume  329.0220564371337
_cell_formula_units_Z  4
loop_
  _symmetry_equiv_pos_site_id
 _symmetry_equiv_pos_as_xyz
 1  'x, y, z'
loop_
 _atom_site_type_symbol
 _atom_site_label
 _atom_site_symmetry_multiplicity
 _atom_site_fract_x
 _atom_site_fract_y
 _atom_site_fract_z
 _atom_site_fract_occupancy
 C  C1  1  0.74053  0.19430  0.22951  1
 C  C2  1  0.07850  0.75721  0.15364  1
 C  C3  1  0.07850  0.74279  0.65364  1
 C  C4  1  0.92150  0.25721  0.34636  1
 C  C5  1  0.03714  0.39158  0.98884  1
 C  C6  1  0.96286  0.89158  0.51116  1
 C  C7  1  0.66707  0.98009  0.25171  1
 C  C8  1  0.92150  0.24279  0.84636  1
 C  C9  1  0.22442  0.33272  0.11011  1
 C  C10  1  0.77558  0.83272  0.38989  1
 C  C11  1  0.22442  0.16728  0.61011  1
 C  C12  1  0.33293  0.48009  0.24829  1
 C  C13  1  0.66707  0.51991  0.75171  1
 C  C14  1  0.74053  0.30570  0.72951  1
 C  C15  1  0.33293  0.01991  0.74829  1
 C  C16  1  0.77558  0.66728  0.88989  1
 C  C17  1  0.25947  0.80570  0.77049  1
 C  C18  1  0.25947  0.69430  0.27049  1
 C  C19  1  0.96286  0.60842  0.01116  1
 C  C20  1  0.03714  0.10842  0.48884  1
 H  H1  1  0.34591  0.80995  0.38041  1
 H  H2  1  0.65409  0.19005  0.61959  1
 H  H3  1  0.65409  0.30995  0.11959  1
 H  H4  1  0.97847  0.07807  0.83042  1
 H  H5  1  0.02153  0.92193  0.16958  1
 H  H6  1  0.02153  0.57807  0.66958  1
 H  H7  1  0.97847  0.42193  0.33042  1
 H  H8  1  0.34591  0.69005  0.88041  1
 H  H9  1  0.72001  0.66767  0.40742  1
 H  H10  1  0.27999  0.33233  0.59258  1
 H  H11  1  0.47586  0.43063  0.34078  1
 H  H12  1  0.52414  0.56937  0.65922  1
 H  H13  1  0.52414  0.93063  0.15922  1
 H  H14  1  0.27999  0.16767  0.09258  1
 H  H15  1  0.72001  0.83233  0.90742  1
 H  H16  1  0.47586  0.06937  0.84078  1
