CIF file written using JARVIS-Tools package.
data_NbS3
_symmetry_space_group_name_H-M  'P-1'
_cell_length_a       5.01905
_cell_length_b       6.81923
_cell_length_c       9.24307
_cell_angle_alpha    89.9268
_cell_angle_beta     96.8749
_cell_angle_gamma    89.9778

_symmetry_Int_Tables_number  2
_chemical_formula_structural  NbS3
_chemical_formula_sum  Nb4S2
_cell_volume  314.07891801553484
_cell_formula_units_Z  4
loop_
  _symmetry_equiv_pos_site_id
 _symmetry_equiv_pos_as_xyz
 1  'x, y, z'
loop_
 _atom_site_type_symbol
 _atom_site_label
 _atom_site_symmetry_multiplicity
 _atom_site_fract_x
 _atom_site_fract_y
 _atom_site_fract_z
 _atom_site_fract_occupancy
 Nb  Nb1  1  0.28200  0.14839  0.64658  1
 Nb  Nb2  1  0.28496  0.59813  0.65589  1
 Nb  Nb3  1  0.71800  0.85161  0.35342  1
 Nb  Nb4  1  0.71504  0.40187  0.34411  1
 S  S1  1  0.46641  0.63319  0.16237  1
 S  S2  1  0.24047  0.86621  0.45620  1
 S  S3  1  0.23554  0.38547  0.43684  1
 S  S4  1  0.76446  0.61453  0.56316  1
 S  S5  1  0.13088  0.36761  0.84500  1
 S  S6  1  0.75953  0.13379  0.54380  1
 S  S7  1  0.47768  0.12280  0.18616  1
 S  S8  1  0.52232  0.87720  0.81384  1
 S  S9  1  0.53359  0.36681  0.83763  1
 S  S10  1  0.86912  0.63239  0.15500  1
 S  S11  1  0.88088  0.12346  0.18424  1
 S  S12  1  0.11912  0.87654  0.81576  1
