CIF file written using JARVIS-Tools package.
data_CrMoO4
_symmetry_space_group_name_H-M  'Cmmm'
_cell_length_a       2.91521
_cell_length_b       4.64839
_cell_length_c       4.64815
_cell_angle_alpha    91.8138
_cell_angle_beta     90
_cell_angle_gamma    90

_symmetry_Int_Tables_number  65
_chemical_formula_structural  CrMoO4
_chemical_formula_sum  CrMoO4
_cell_volume  62.9555906619335
_cell_formula_units_Z  1
loop_
  _symmetry_equiv_pos_site_id
 _symmetry_equiv_pos_as_xyz
 1  'x, y, z'
loop_
 _atom_site_type_symbol
 _atom_site_label
 _atom_site_symmetry_multiplicity
 _atom_site_fract_x
 _atom_site_fract_y
 _atom_site_fract_z
 _atom_site_fract_occupancy
 Cr  Cr1  1  0.00000  0.50000  0.00000  1
 Mo  Mo1  1  0.50000  0.00000  0.50000  1
 O  O1  1  0.50000  0.70175  0.20179  1
 O  O2  1  0.50000  0.29825  0.79821  1
 O  O3  1  0.00000  0.20771  0.29226  1
 O  O4  1  0.00000  0.79229  0.70774  1
