CIF file written using JARVIS-Tools package.
data_HC2SNO2
_symmetry_space_group_name_H-M  'P1'
_cell_length_a       4.58844
_cell_length_b       5.40775
_cell_length_c       7.16369
_cell_angle_alpha    80.3887
_cell_angle_beta     80.8823
_cell_angle_gamma    79.4496

_symmetry_Int_Tables_number  1
_chemical_formula_structural  HC2SNO2
_chemical_formula_sum  H2C4S2N2O4
_cell_volume  170.7896018438565
_cell_formula_units_Z  2
loop_
  _symmetry_equiv_pos_site_id
 _symmetry_equiv_pos_as_xyz
 1  'x, y, z'
loop_
 _atom_site_type_symbol
 _atom_site_label
 _atom_site_symmetry_multiplicity
 _atom_site_fract_x
 _atom_site_fract_y
 _atom_site_fract_z
 _atom_site_fract_occupancy
 C  C1  1  0.33614  0.89267  0.22032  1
 C  C2  1  0.33632  0.39091  0.72087  1
 C  C3  1  0.83956  0.30095  0.79105  1
 C  C4  1  0.83960  0.80218  0.29012  1
 H  H1  1  0.67722  0.62320  0.09789  1
 H  H2  1  0.67792  0.12148  0.59883  1
 N  N1  1  0.62311  0.75466  0.19343  1
 N  N2  1  0.62341  0.25279  0.69447  1
 O  O1  1  0.79305  0.37529  0.94506  1
 O  O2  1  0.79339  0.87523  0.44458  1
 O  O3  1  0.12588  0.75070  0.19179  1
 O  O4  1  0.12615  0.24834  0.69327  1
 S  S1  1  0.25603  0.18325  0.26228  1
 S  S2  1  0.25628  0.68205  0.76146  1
