CIF file written using JARVIS-Tools package.
data_CdH4C4O4
_symmetry_space_group_name_H-M  'P1'
_cell_length_a       3.57
_cell_length_b       5.13098
_cell_length_c       7.16922
_cell_angle_alpha    77.8979
_cell_angle_beta     76.0969
_cell_angle_gamma    69.7269

_symmetry_Int_Tables_number  1
_chemical_formula_structural  CdH4C4O4
_chemical_formula_sum  CdH4C4O4
_cell_volume  118.42102149642365
_cell_formula_units_Z  1
loop_
  _symmetry_equiv_pos_site_id
 _symmetry_equiv_pos_as_xyz
 1  'x, y, z'
loop_
 _atom_site_type_symbol
 _atom_site_label
 _atom_site_symmetry_multiplicity
 _atom_site_fract_x
 _atom_site_fract_y
 _atom_site_fract_z
 _atom_site_fract_occupancy
 C  C1  1  0.49720  0.88090  0.46993  1
 C  C2  1  0.45236  0.87972  0.26465  1
 C  C3  1  0.63920  0.59519  0.19248  1
 C  C4  1  0.88627  0.59901  0.98777  1
 Cd  Cd1  1  0.66640  0.23955  0.72843  1
 H  H1  1  0.13344  0.97699  0.25050  1
 H  H2  1  0.60431  0.02715  0.17093  1
 H  H3  1  0.41535  0.48813  0.20547  1
 H  H4  1  0.85135  0.45425  0.28678  1
 O  O1  1  0.33503  0.12427  0.53218  1
 O  O2  1  0.70509  0.66822  0.56429  1
 O  O3  1  -0.02915  0.81413  0.89663  1
 O  O4  1  0.03140  0.35728  0.92331  1
