CIF file written using JARVIS-Tools package.
data_VCl2O
_symmetry_space_group_name_H-M  'C2/c'
_cell_length_a       6.89952
_cell_length_b       3.74788
_cell_length_c       6.3444
_cell_angle_alpha    107.181
_cell_angle_beta     105.78
_cell_angle_gamma    90.0002

_symmetry_Int_Tables_number  15
_chemical_formula_structural  VCl2O
_chemical_formula_sum  V2Cl4O2
_cell_volume  150.2530535239197
_cell_formula_units_Z  2
loop_
  _symmetry_equiv_pos_site_id
 _symmetry_equiv_pos_as_xyz
 1  'x, y, z'
loop_
 _atom_site_type_symbol
 _atom_site_label
 _atom_site_symmetry_multiplicity
 _atom_site_fract_x
 _atom_site_fract_y
 _atom_site_fract_z
 _atom_site_fract_occupancy
 Cl  Cl1  1  0.17973  0.85939  0.71897  1
 Cl  Cl2  1  0.32027  0.14061  0.28103  1
 Cl  Cl3  1  0.67974  0.85956  0.71897  1
 Cl  Cl4  1  0.82026  0.14044  0.28103  1
 O  O1  1  0.50000  0.51507  -0.00002  1
 O  O2  1  0.00000  0.48494  0.00002  1
 V  V1  1  0.00000  0.92637  0.00001  1
 V  V2  1  0.50000  0.07363  -0.00001  1
