CIF file written using JARVIS-Tools package.
data_PrCo2P2
_symmetry_space_group_name_H-M  'I4/mmm'
_cell_length_a       3.81855
_cell_length_b       3.81854
_cell_length_c       6.03524
_cell_angle_alpha    108.443
_cell_angle_beta     108.443
_cell_angle_gamma    89.9999

_symmetry_Int_Tables_number  139
_chemical_formula_structural  PrCo2P2
_chemical_formula_sum  PrCo2P2
_cell_volume  78.70326276196212
_cell_formula_units_Z  1
loop_
  _symmetry_equiv_pos_site_id
 _symmetry_equiv_pos_as_xyz
 1  'x, y, z'
loop_
 _atom_site_type_symbol
 _atom_site_label
 _atom_site_symmetry_multiplicity
 _atom_site_fract_x
 _atom_site_fract_y
 _atom_site_fract_z
 _atom_site_fract_occupancy
 Co  Co1  1  0.25000  0.75000  0.50000  1
 Co  Co2  1  0.75000  0.25000  0.50000  1
 P  P1  1  0.64366  0.64366  0.28733  1
 P  P2  1  0.35634  0.35634  0.71267  1
 Pr  Pr1  1  0.00000  0.00000  0.00000  1
