CIF file written using JARVIS-Tools package.
data_ZnIn2Cu2S5
_symmetry_space_group_name_H-M  'Cm'
_cell_length_a       10.4007
_cell_length_b       10.4006
_cell_length_c       5.52128
_cell_angle_alpha    74.6102
_cell_angle_beta     74.6102
_cell_angle_gamma    21.8287

_symmetry_Int_Tables_number  8
_chemical_formula_structural  ZnIn2Cu2S5
_chemical_formula_sum  ZnIn2Cu2S5
_cell_volume  213.81417587399147
_cell_formula_units_Z  1
loop_
  _symmetry_equiv_pos_site_id
 _symmetry_equiv_pos_as_xyz
 1  'x, y, z'
loop_
 _atom_site_type_symbol
 _atom_site_label
 _atom_site_symmetry_multiplicity
 _atom_site_fract_x
 _atom_site_fract_y
 _atom_site_fract_z
 _atom_site_fract_occupancy
 Cu  Cu1  1  0.00105  0.00105  0.99121  1
 Cu  Cu2  1  0.80128  0.80128  0.19454  1
 In  In1  1  0.19847  0.19847  0.81110  1
 In  In2  1  0.40425  0.40425  0.59549  1
 S  S1  1  0.50468  0.50468  0.76808  1
 S  S2  1  0.09323  0.09323  0.16808  1
 S  S3  1  0.70070  0.70070  0.52227  1
 S  S4  1  0.30090  0.30090  0.97389  1
 S  S5  1  0.90064  0.90064  0.31738  1
 Zn  Zn1  1  0.59479  0.59479  0.40795  1
