CIF file written using JARVIS-Tools package.
data_ZnH6C5O4
_symmetry_space_group_name_H-M  'P1'
_cell_length_a       4.43677
_cell_length_b       4.85491
_cell_length_c       7.4303
_cell_angle_alpha    83.2796
_cell_angle_beta     97.8762
_cell_angle_gamma    115.851

_symmetry_Int_Tables_number  1
_chemical_formula_structural  ZnH6C5O4
_chemical_formula_sum  ZnH6C5O4
_cell_volume  142.37974254331115
_cell_formula_units_Z  1
loop_
  _symmetry_equiv_pos_site_id
 _symmetry_equiv_pos_as_xyz
 1  'x, y, z'
loop_
 _atom_site_type_symbol
 _atom_site_label
 _atom_site_symmetry_multiplicity
 _atom_site_fract_x
 _atom_site_fract_y
 _atom_site_fract_z
 _atom_site_fract_occupancy
 C  C1  1  0.49527  0.26930  0.46697  1
 C  C2  1  0.26700  0.18514  0.61745  1
 C  C3  1  0.41951  0.06008  0.78957  1
 C  C4  1  0.69261  0.31867  0.89749  1
 C  C5  1  0.88259  0.21880  0.05648  1
 H  H1  1  0.24199  0.39021  0.64717  1
 H  H2  1  0.01749  0.01025  0.57332  1
 H  H3  1  0.52014  0.90711  0.75035  1
 H  H4  1  0.88197  0.47893  0.80815  1
 H  H5  1  0.21846  0.92108  0.87650  1
 H  H6  1  0.58644  0.45775  0.94890  1
 O  O1  1  0.73283  0.54107  0.46267  1
 O  O2  1  0.46378  0.06916  0.35963  1
 O  O3  1  0.83520  0.93868  0.07028  1
 O  O4  1  0.09240  0.41543  0.16557  1
 Zn  Zn1  1  0.03373  0.74227  0.26801  1
