CIF file written using JARVIS-Tools package.
data_Rb3SbF6
_symmetry_space_group_name_H-M  'R-3m'
_cell_length_a       7.14772
_cell_length_b       7.14592
_cell_length_c       7.14813
_cell_angle_alpha    105.552
_cell_angle_beta     105.566
_cell_angle_gamma    105.525

_symmetry_Int_Tables_number  166
_chemical_formula_structural  Rb3SbF6
_chemical_formula_sum  Rb3SbF6
_cell_volume  315.33621083004346
_cell_formula_units_Z  1
loop_
  _symmetry_equiv_pos_site_id
 _symmetry_equiv_pos_as_xyz
 1  'x, y, z'
loop_
 _atom_site_type_symbol
 _atom_site_label
 _atom_site_symmetry_multiplicity
 _atom_site_fract_x
 _atom_site_fract_y
 _atom_site_fract_z
 _atom_site_fract_occupancy
 F  F1  1  0.05650  0.76771  0.76774  1
 F  F2  1  0.94350  0.23229  0.23226  1
 F  F3  1  0.76779  0.76776  0.05645  1
 F  F4  1  0.23221  0.23224  0.94355  1
 F  F5  1  0.76768  0.05648  0.76774  1
 F  F6  1  0.23232  0.94352  0.23226  1
 Rb  Rb1  1  -0.00000  0.50000  -0.00000  1
 Rb  Rb2  1  0.50000  -0.00000  -0.00000  1
 Rb  Rb3  1  -0.00000  -0.00000  0.50000  1
 Sb  Sb1  1  0.00000  0.00000  0.00000  1
