CIF file written using JARVIS-Tools package.
data_NaMnN
_symmetry_space_group_name_H-M  'P6_3mc'
_cell_length_a       3.0222
_cell_length_b       3.02382
_cell_length_c       10.0872
_cell_angle_alpha    89.9996
_cell_angle_beta     90.0003
_cell_angle_gamma    119.932

_symmetry_Int_Tables_number  186
_chemical_formula_structural  NaMnN
_chemical_formula_sum  Na2Mn2N2
_cell_volume  79.88721726048239
_cell_formula_units_Z  2
loop_
  _symmetry_equiv_pos_site_id
 _symmetry_equiv_pos_as_xyz
 1  'x, y, z'
loop_
 _atom_site_type_symbol
 _atom_site_label
 _atom_site_symmetry_multiplicity
 _atom_site_fract_x
 _atom_site_fract_y
 _atom_site_fract_z
 _atom_site_fract_occupancy
 Mn  Mn1  1  1.00000  0.00039  0.51386  1
 Mn  Mn2  1  0.00000  -0.00037  0.01387  1
 N  N1  1  0.33343  0.66653  0.57288  1
 N  N2  1  0.66657  0.33349  0.07287  1
 Na  Na1  1  0.66685  0.33381  0.75790  1
 Na  Na2  1  0.33315  0.66621  0.25790  1
