CIF file written using JARVIS-Tools package.
data_HfSiTe
_symmetry_space_group_name_H-M  'P4/nmm'
_cell_length_a       3.67875
_cell_length_b       3.67875
_cell_length_c       10.0183
_cell_angle_alpha    90
_cell_angle_beta     90
_cell_angle_gamma    90

_symmetry_Int_Tables_number  129
_chemical_formula_structural  HfSiTe
_chemical_formula_sum  Hf2Si2Te2
_cell_volume  135.57988406916823
_cell_formula_units_Z  2
loop_
  _symmetry_equiv_pos_site_id
 _symmetry_equiv_pos_as_xyz
 1  'x, y, z'
loop_
 _atom_site_type_symbol
 _atom_site_label
 _atom_site_symmetry_multiplicity
 _atom_site_fract_x
 _atom_site_fract_y
 _atom_site_fract_z
 _atom_site_fract_occupancy
 Hf  Hf1  1  0.75000  0.75000  0.78993  1
 Hf  Hf2  1  0.25000  0.25000  0.21007  1
 Si  Si1  1  0.75000  0.25000  0.00000  1
 Si  Si2  1  0.25000  0.75000  0.00000  1
 Te  Te1  1  0.25000  0.25000  0.65309  1
 Te  Te2  1  0.75000  0.75000  0.34691  1
