CIF file written using JARVIS-Tools package.
data_Al2Te5
_symmetry_space_group_name_H-M  'C2/m'
_cell_length_a       4.21253
_cell_length_b       7.17969
_cell_length_c       8.33353
_cell_angle_alpha    79.6325
_cell_angle_beta     75.3599
_cell_angle_gamma    72.9405

_symmetry_Int_Tables_number  12
_chemical_formula_structural  Al2Te5
_chemical_formula_sum  Al2Te5
_cell_volume  231.60109073774666
_cell_formula_units_Z  1
loop_
  _symmetry_equiv_pos_site_id
 _symmetry_equiv_pos_as_xyz
 1  'x, y, z'
loop_
 _atom_site_type_symbol
 _atom_site_label
 _atom_site_symmetry_multiplicity
 _atom_site_fract_x
 _atom_site_fract_y
 _atom_site_fract_z
 _atom_site_fract_occupancy
 Al  Al1  1  0.37432  0.84931  0.40205  1
 Al  Al2  1  0.62568  0.15069  0.59795  1
 Te  Te1  1  0.59119  0.69469  0.12292  1
 Te  Te2  1  0.40881  0.30531  0.87708  1
 Te  Te3  1  0.00000  0.00000  0.00000  1
 Te  Te4  1  0.18189  0.24404  0.39219  1
 Te  Te5  1  0.81811  0.75596  0.60781  1
