CIF file written using JARVIS-Tools package.
data_Al3Ni2Pt
_symmetry_space_group_name_H-M  'P4/mmm'
_cell_length_a       2.95214
_cell_length_b       2.95214
_cell_length_c       8.8942
_cell_angle_alpha    90
_cell_angle_beta     90
_cell_angle_gamma    90

_symmetry_Int_Tables_number  123
_chemical_formula_structural  Al3Ni2Pt
_chemical_formula_sum  Al3Ni2Pt
_cell_volume  77.5142676861371
_cell_formula_units_Z  1
loop_
  _symmetry_equiv_pos_site_id
 _symmetry_equiv_pos_as_xyz
 1  'x, y, z'
loop_
 _atom_site_type_symbol
 _atom_site_label
 _atom_site_symmetry_multiplicity
 _atom_site_fract_x
 _atom_site_fract_y
 _atom_site_fract_z
 _atom_site_fract_occupancy
 Al  Al1  1  0.50000  0.50000  0.18543  1
 Al  Al2  1  0.50000  0.50000  0.50000  1
 Al  Al3  1  0.50000  0.50000  0.81457  1
 Ni  Ni1  1  0.00000  0.00000  0.34102  1
 Ni  Ni2  1  0.00000  0.00000  0.65898  1
 Pt  Pt1  1  0.00000  0.00000  0.00000  1
