CIF file written using JARVIS-Tools package.
data_Sr2CoN2
_symmetry_space_group_name_H-M  'I4/mmm'
_cell_length_a       3.82156
_cell_length_b       3.82156
_cell_length_c       6.74123
_cell_angle_alpha    106.466
_cell_angle_beta     106.466
_cell_angle_gamma    89.9999

_symmetry_Int_Tables_number  139
_chemical_formula_structural  Sr2CoN2
_chemical_formula_sum  Sr2CoN2
_cell_volume  90.19505954585223
_cell_formula_units_Z  1
loop_
  _symmetry_equiv_pos_site_id
 _symmetry_equiv_pos_as_xyz
 1  'x, y, z'
loop_
 _atom_site_type_symbol
 _atom_site_label
 _atom_site_symmetry_multiplicity
 _atom_site_fract_x
 _atom_site_fract_y
 _atom_site_fract_z
 _atom_site_fract_occupancy
 Co  Co1  1  0.50000  0.50000  0.50000  1
 N  N1  1  0.35967  0.35967  0.21935  1
 N  N2  1  0.64033  0.64033  0.78065  1
 Sr  Sr1  1  0.85494  0.85494  0.20988  1
 Sr  Sr2  1  0.14506  0.14506  0.79012  1
