CIF file written using JARVIS-Tools package.
data_Sr2PdO3
_symmetry_space_group_name_H-M  'Immm'
_cell_length_a       3.54057
_cell_length_b       4.01987
_cell_length_c       6.97305
_cell_angle_alpha    106.752
_cell_angle_beta     104.707
_cell_angle_gamma    90

_symmetry_Int_Tables_number  71
_chemical_formula_structural  Sr2PdO3
_chemical_formula_sum  Sr2PdO3
_cell_volume  91.63218264799127
_cell_formula_units_Z  1
loop_
  _symmetry_equiv_pos_site_id
 _symmetry_equiv_pos_as_xyz
 1  'x, y, z'
loop_
 _atom_site_type_symbol
 _atom_site_label
 _atom_site_symmetry_multiplicity
 _atom_site_fract_x
 _atom_site_fract_y
 _atom_site_fract_z
 _atom_site_fract_occupancy
 O  O1  1  0.83936  0.83937  0.67872  1
 O  O2  1  0.16064  0.16063  0.32128  1
 O  O3  1  -0.00000  0.50000  -0.00000  1
 Pd  Pd1  1  0.00000  0.00000  0.00000  1
 Sr  Sr1  1  0.64719  0.64719  0.29437  1
 Sr  Sr2  1  0.35281  0.35281  0.70563  1
