CIF file written using JARVIS-Tools package.
data_CePrO2
_symmetry_space_group_name_H-M  'R-3m'
_cell_length_a       6.15457
_cell_length_b       6.15456
_cell_length_c       6.15457
_cell_angle_alpha    33.7478
_cell_angle_beta     33.7479
_cell_angle_gamma    33.7479

_symmetry_Int_Tables_number  166
_chemical_formula_structural  CePrO2
_chemical_formula_sum  CePrO2
_cell_volume  64.10640843133991
_cell_formula_units_Z  1
loop_
  _symmetry_equiv_pos_site_id
 _symmetry_equiv_pos_as_xyz
 1  'x, y, z'
loop_
 _atom_site_type_symbol
 _atom_site_label
 _atom_site_symmetry_multiplicity
 _atom_site_fract_x
 _atom_site_fract_y
 _atom_site_fract_z
 _atom_site_fract_occupancy
 Ce  Ce1  1  0.00000  0.00000  0.00000  1
 O  O1  1  0.25420  0.25420  0.25420  1
 O  O2  1  0.74580  0.74580  0.74580  1
 Pr  Pr1  1  0.50000  0.50000  0.50000  1
