CIF file written using JARVIS-Tools package.
data_Pb2BrOF
_symmetry_space_group_name_H-M  'Cmme'
_cell_length_a       7.08493
_cell_length_b       7.08493
_cell_length_c       5.86035
_cell_angle_alpha    90
_cell_angle_beta     90
_cell_angle_gamma    131.187

_symmetry_Int_Tables_number  67
_chemical_formula_structural  Pb2BrOF
_chemical_formula_sum  Pb4Br2O2F2
_cell_volume  221.38057965728234
_cell_formula_units_Z  2
loop_
  _symmetry_equiv_pos_site_id
 _symmetry_equiv_pos_as_xyz
 1  'x, y, z'
loop_
 _atom_site_type_symbol
 _atom_site_label
 _atom_site_symmetry_multiplicity
 _atom_site_fract_x
 _atom_site_fract_y
 _atom_site_fract_z
 _atom_site_fract_occupancy
 Br  Br1  1  0.75000  0.25000  0.23388  1
 Br  Br2  1  0.25000  0.75000  0.76612  1
 F  F1  1  0.25000  0.25000  0.50000  1
 F  F2  1  0.75000  0.75000  0.50000  1
 O  O1  1  0.25000  0.25000  0.00000  1
 O  O2  1  0.75000  0.75000  0.00000  1
 Pb  Pb1  1  0.39967  0.60033  0.22105  1
 Pb  Pb2  1  0.60033  0.39967  0.77895  1
 Pb  Pb3  1  0.10033  0.89967  0.22105  1
 Pb  Pb4  1  0.89967  0.10033  0.77895  1
