CIF file written using JARVIS-Tools package.
data_CeSi3Pt
_symmetry_space_group_name_H-M  'I4mm'
_cell_length_a       5.69692
_cell_length_b       5.69692
_cell_length_c       5.69692
_cell_angle_alpha    135.179
_cell_angle_beta     135.179
_cell_angle_gamma    65.2521

_symmetry_Int_Tables_number  107
_chemical_formula_structural  CeSi3Pt
_chemical_formula_sum  CeSi3Pt
_cell_volume  90.53040361848949
_cell_formula_units_Z  1
loop_
  _symmetry_equiv_pos_site_id
 _symmetry_equiv_pos_as_xyz
 1  'x, y, z'
loop_
 _atom_site_type_symbol
 _atom_site_label
 _atom_site_symmetry_multiplicity
 _atom_site_fract_x
 _atom_site_fract_y
 _atom_site_fract_z
 _atom_site_fract_occupancy
 Ce  Ce1  1  0.60065  0.60065  0.00000  1
 Pt  Pt1  1  0.25073  0.25073  1.00000  1
 Si  Si1  1  0.86453  0.36453  0.50000  1
 Si  Si2  1  0.36453  0.86453  0.50000  1
 Si  Si3  1  0.99966  0.99966  0.00000  1
