CIF file written using JARVIS-Tools package.
data_Tm2C
_symmetry_space_group_name_H-M  'R-3m'
_cell_length_a       6.26243
_cell_length_b       6.26243
_cell_length_c       6.26243
_cell_angle_alpha    32.7196
_cell_angle_beta     32.7196
_cell_angle_gamma    32.7195

_symmetry_Int_Tables_number  166
_chemical_formula_structural  Tm2C
_chemical_formula_sum  Tm2C
_cell_volume  63.8288481177441
_cell_formula_units_Z  1
loop_
  _symmetry_equiv_pos_site_id
 _symmetry_equiv_pos_as_xyz
 1  'x, y, z'
loop_
 _atom_site_type_symbol
 _atom_site_label
 _atom_site_symmetry_multiplicity
 _atom_site_fract_x
 _atom_site_fract_y
 _atom_site_fract_z
 _atom_site_fract_occupancy
 C  C1  1  0.50000  0.50000  0.50000  1
 Tm  Tm1  1  0.24122  0.24122  0.24122  1
 Tm  Tm2  1  0.75878  0.75878  0.75878  1
