CIF file written using JARVIS-Tools package.
data_GeSb2Te4
_symmetry_space_group_name_H-M  'R-3m'
_cell_length_a       13.3964
_cell_length_b       13.3964
_cell_length_c       13.3964
_cell_angle_alpha    18.6569
_cell_angle_beta     18.657
_cell_angle_gamma    18.6569

_symmetry_Int_Tables_number  166
_chemical_formula_structural  GeSb2Te4
_chemical_formula_sum  GeSb2Te4
_cell_volume  214.9545181387949
_cell_formula_units_Z  1
loop_
  _symmetry_equiv_pos_site_id
 _symmetry_equiv_pos_as_xyz
 1  'x, y, z'
loop_
 _atom_site_type_symbol
 _atom_site_label
 _atom_site_symmetry_multiplicity
 _atom_site_fract_x
 _atom_site_fract_y
 _atom_site_fract_z
 _atom_site_fract_occupancy
 Ge  Ge1  1  0.00000  0.00000  0.00000  1
 Sb  Sb1  1  0.85878  0.85878  0.85878  1
 Sb  Sb2  1  0.14122  0.14122  0.14122  1
 Te  Te1  1  0.56993  0.56993  0.56993  1
 Te  Te2  1  0.43007  0.43007  0.43007  1
 Te  Te3  1  0.70826  0.70826  0.70826  1
 Te  Te4  1  0.29174  0.29174  0.29174  1
