CIF file written using JARVIS-Tools package.
data_H4C3O2
_symmetry_space_group_name_H-M  'P2_1'
_cell_length_a       4.90615
_cell_length_b       4.8277
_cell_length_c       6.44456
_cell_angle_alpha    106.71
_cell_angle_beta     89.9996
_cell_angle_gamma    89.9997

_symmetry_Int_Tables_number  4
_chemical_formula_structural  H4C3O2
_chemical_formula_sum  H8C6O4
_cell_volume  146.1968106931745
_cell_formula_units_Z  2
loop_
  _symmetry_equiv_pos_site_id
 _symmetry_equiv_pos_as_xyz
 1  'x, y, z'
loop_
 _atom_site_type_symbol
 _atom_site_label
 _atom_site_symmetry_multiplicity
 _atom_site_fract_x
 _atom_site_fract_y
 _atom_site_fract_z
 _atom_site_fract_occupancy
 C  C1  1  0.61059  0.68371  0.48601  1
 C  C2  1  0.45453  0.44723  0.54404  1
 C  C3  1  0.11059  0.31629  0.01388  1
 C  C4  1  0.94074  0.05312  0.00766  1
 C  C5  1  0.95453  0.55277  0.95585  1
 C  C6  1  0.44075  0.94688  0.49223  1
 H  H1  1  0.30247  0.99075  0.63316  1
 H  H2  1  0.80247  0.00925  0.86672  1
 H  H3  1  0.75835  0.58741  0.04265  1
 H  H4  1  0.90665  0.46966  0.78073  1
 H  H5  1  0.40665  0.53035  0.71916  1
 H  H6  1  0.25836  0.41259  0.45723  1
 H  H7  1  0.81092  0.10593  0.15446  1
 H  H8  1  0.31092  0.89407  0.34542  1
 O  O1  1  0.61237  0.18879  0.50077  1
 O  O2  1  0.11237  0.81121  0.99912  1
 O  O3  1  0.85480  0.66739  0.44283  1
 O  O4  1  0.35480  0.33260  0.05706  1
