CIF file written using JARVIS-Tools package.
data_KSnSb
_symmetry_space_group_name_H-M  'P6_3mc'
_cell_length_a       4.4408
_cell_length_b       4.4408
_cell_length_c       12.9314
_cell_angle_alpha    90
_cell_angle_beta     90
_cell_angle_gamma    120

_symmetry_Int_Tables_number  186
_chemical_formula_structural  KSnSb
_chemical_formula_sum  K2Sn2Sb2
_cell_volume  220.8504288375889
_cell_formula_units_Z  2
loop_
  _symmetry_equiv_pos_site_id
 _symmetry_equiv_pos_as_xyz
 1  'x, y, z'
loop_
 _atom_site_type_symbol
 _atom_site_label
 _atom_site_symmetry_multiplicity
 _atom_site_fract_x
 _atom_site_fract_y
 _atom_site_fract_z
 _atom_site_fract_occupancy
 K  K1  1  0.66667  0.33333  0.00075  1
 K  K2  1  0.33333  0.66667  0.50075  1
 Sb  Sb1  1  0.66667  0.33333  0.31343  1
 Sb  Sb2  1  0.33333  0.66667  0.81343  1
 Sn  Sn1  1  0.00000  0.00000  0.70133  1
 Sn  Sn2  1  0.00000  0.00000  0.20133  1
