CIF file written using JARVIS-Tools package.
data_CdH4C4O4
_symmetry_space_group_name_H-M  'C2'
_cell_length_a       4.10076
_cell_length_b       4.10324
_cell_length_c       7.45088
_cell_angle_alpha    82.6099
_cell_angle_beta     82.6365
_cell_angle_gamma    75.7096

_symmetry_Int_Tables_number  5
_chemical_formula_structural  CdH4C4O4
_chemical_formula_sum  CdH4C4O4
_cell_volume  119.87520164243938
_cell_formula_units_Z  1
loop_
  _symmetry_equiv_pos_site_id
 _symmetry_equiv_pos_as_xyz
 1  'x, y, z'
loop_
 _atom_site_type_symbol
 _atom_site_label
 _atom_site_symmetry_multiplicity
 _atom_site_fract_x
 _atom_site_fract_y
 _atom_site_fract_z
 _atom_site_fract_occupancy
 C  C1  1  0.76525  0.65282  0.46185  1
 C  C2  1  0.72084  0.91387  0.29811  1
 C  C3  1  0.59731  0.78976  0.13484  1
 C  C4  1  0.85858  0.74571  0.97121  1
 Cd  Cd1  1  0.30160  0.20976  0.71652  1
 H  H1  1  0.52744  0.13415  0.33873  1
 H  H2  1  0.95818  -0.00782  0.25846  1
 H  H3  1  0.37664  0.98259  0.09404  1
 H  H4  1  0.51952  0.55229  0.17461  1
 O  O1  1  0.52838  0.68460  0.59557  1
 O  O2  1  0.02566  0.41100  0.46122  1
 O  O3  1  0.82689  0.98286  0.83761  1
 O  O4  1  0.10038  0.48533  0.97177  1
