CIF file written using JARVIS-Tools package.
data_CoBi2O6
_symmetry_space_group_name_H-M  'P4_2/mnm'
_cell_length_a       4.89444
_cell_length_b       4.89444
_cell_length_c       9.84541
_cell_angle_alpha    90
_cell_angle_beta     90
_cell_angle_gamma    89.9771

_symmetry_Int_Tables_number  136
_chemical_formula_structural  CoBi2O6
_chemical_formula_sum  Co2Bi4O2
_cell_volume  235.85200147135004
_cell_formula_units_Z  2
loop_
  _symmetry_equiv_pos_site_id
 _symmetry_equiv_pos_as_xyz
 1  'x, y, z'
loop_
 _atom_site_type_symbol
 _atom_site_label
 _atom_site_symmetry_multiplicity
 _atom_site_fract_x
 _atom_site_fract_y
 _atom_site_fract_z
 _atom_site_fract_occupancy
 Bi  Bi1  1  1.00000  0.00000  0.33369  1
 Bi  Bi2  1  0.00000  -0.00000  0.66631  1
 Bi  Bi3  1  0.50000  0.50000  0.16608  1
 Bi  Bi4  1  0.50000  0.50000  0.83392  1
 Co  Co1  1  0.00000  0.00000  0.00000  1
 Co  Co2  1  0.50000  0.50000  0.50000  1
 O  O1  1  0.22509  0.77491  0.50000  1
 O  O2  1  0.17996  0.82003  0.14674  1
 O  O3  1  0.82004  0.17997  0.85326  1
 O  O4  1  0.32018  0.32017  0.35311  1
 O  O5  1  0.17997  0.82004  0.85326  1
 O  O6  1  0.67983  0.67983  0.35312  1
 O  O7  1  0.72436  0.72436  -0.00000  1
 O  O8  1  0.32017  0.32017  0.64688  1
 O  O9  1  0.67983  0.67983  0.64689  1
 O  O10  1  0.82003  0.17996  0.14674  1
 O  O11  1  0.27564  0.27564  0.00000  1
 O  O12  1  0.77491  0.22509  0.50000  1
