CIF file written using JARVIS-Tools package.
data_Tb2NiAs2
_symmetry_space_group_name_H-M  'P6_3/mmc'
_cell_length_a       4.10813
_cell_length_b       4.10812
_cell_length_c       14.3143
_cell_angle_alpha    90
_cell_angle_beta     90
_cell_angle_gamma    120

_symmetry_Int_Tables_number  194
_chemical_formula_structural  Tb2NiAs2
_chemical_formula_sum  Tb4Ni2As4
_cell_volume  209.21339510619768
_cell_formula_units_Z  2
loop_
  _symmetry_equiv_pos_site_id
 _symmetry_equiv_pos_as_xyz
 1  'x, y, z'
loop_
 _atom_site_type_symbol
 _atom_site_label
 _atom_site_symmetry_multiplicity
 _atom_site_fract_x
 _atom_site_fract_y
 _atom_site_fract_z
 _atom_site_fract_occupancy
 As  As1  1  0.66667  0.33333  0.98685  1
 As  As2  1  0.33333  0.66667  0.48685  1
 As  As3  1  0.00000  0.00000  0.73686  1
 As  As4  1  0.00000  0.00000  0.23686  1
 Ni  Ni1  1  0.00000  0.00000  0.98689  1
 Ni  Ni2  1  0.00000  0.00000  0.48689  1
 Tb  Tb1  1  0.66667  0.33333  0.61971  1
 Tb  Tb2  1  0.33333  0.66667  0.11971  1
 Tb  Tb3  1  0.66667  0.33333  0.35401  1
 Tb  Tb4  1  0.33333  0.66667  0.85401  1
