CIF file written using JARVIS-Tools package.
data_CdH16C10O4
_symmetry_space_group_name_H-M  'P1'
_cell_length_a       3.67529
_cell_length_b       4.25175
_cell_length_c       15.2363
_cell_angle_alpha    91.6515
_cell_angle_beta     94.4466
_cell_angle_gamma    90.2097

_symmetry_Int_Tables_number  1
_chemical_formula_structural  CdH16C10O4
_chemical_formula_sum  CdH6C0O4
_cell_volume  237.26822646600814
_cell_formula_units_Z  1
loop_
  _symmetry_equiv_pos_site_id
 _symmetry_equiv_pos_as_xyz
 1  'x, y, z'
loop_
 _atom_site_type_symbol
 _atom_site_label
 _atom_site_symmetry_multiplicity
 _atom_site_fract_x
 _atom_site_fract_y
 _atom_site_fract_z
 _atom_site_fract_occupancy
 C  C1  1  0.50595  0.27621  0.62029  1
 C  C2  1  0.00112  0.10745  0.29420  1
 C  C3  1  0.17090  0.99407  0.38141  1
 C  C4  1  0.38724  0.05981  0.54124  1
 C  C5  1  0.24846  0.22979  0.45796  1
 C  C6  1  0.62678  0.09546  0.70291  1
 C  C7  1  0.75908  0.30643  0.78209  1
 C  C8  1  0.84319  0.12585  0.86676  1
 C  C9  1  0.96317  0.34249  0.94550  1
 C  C10  1  0.88349  0.23375  0.03622  1
 Cd  Cd1  1  0.54340  0.66862  0.16589  1
 H  H1  1  0.17385  0.89720  0.55977  1
 H  H2  1  0.41773  0.86248  0.36821  1
 H  H3  1  0.97800  0.81222  0.39978  1
 H  H4  1  0.84330  0.92874  0.68765  1
 H  H5  1  0.61808  0.90855  0.52585  1
 H  H6  1  0.25210  0.40914  0.94705  1
 H  H7  1  0.81588  0.56752  0.94070  1
 H  H8  1  0.00096  0.44099  0.76633  1
 H  H9  1  0.39785  0.94896  0.72103  1
 H  H10  1  0.72920  0.43057  0.60305  1
 H  H11  1  0.54965  0.48389  0.79416  1
 H  H12  1  0.45225  0.40130  0.44016  1
 H  H13  1  0.00103  0.36296  0.47022  1
 H  H14  1  0.05233  0.94685  0.85662  1
 H  H15  1  0.59764  0.99620  0.88186  1
 H  H16  1  0.28104  0.43478  0.63497  1
 O  O1  1  0.78424  0.33626  0.29056  1
 O  O2  1  0.01461  0.41457  0.10193  1
 O  O3  1  0.06320  0.92887  0.22578  1
 O  O4  1  0.66799  0.00739  0.04452  1
