CIF file written using JARVIS-Tools package.
data_H10C13O
_symmetry_space_group_name_H-M  'P1'
_cell_length_a       3.8419
_cell_length_b       5.86845
_cell_length_c       9.4857
_cell_angle_alpha    94.4883
_cell_angle_beta     96.0953
_cell_angle_gamma    100.466

_symmetry_Int_Tables_number  1
_chemical_formula_structural  H10C13O
_chemical_formula_sum  H0C3O
_cell_volume  208.07400430630398
_cell_formula_units_Z  1
loop_
  _symmetry_equiv_pos_site_id
 _symmetry_equiv_pos_as_xyz
 1  'x, y, z'
loop_
 _atom_site_type_symbol
 _atom_site_label
 _atom_site_symmetry_multiplicity
 _atom_site_fract_x
 _atom_site_fract_y
 _atom_site_fract_z
 _atom_site_fract_occupancy
 C  C1  1  0.86802  0.73975  0.39789  1
 C  C2  1  0.89683  0.41025  0.99616  1
 C  C3  1  0.88277  0.62567  0.26514  1
 C  C4  1  0.22703  0.08535  0.33576  1
 C  C5  1  0.14274  0.32798  0.61730  1
 C  C6  1  0.24441  0.97439  0.20231  1
 C  C7  1  0.11627  0.43596  0.75122  1
 C  C8  1  0.03670  0.97208  0.43784  1
 C  C9  1  0.00984  0.08908  0.57956  1
 C  C10  1  0.07119  0.74266  0.16536  1
 C  C11  1  0.84793  0.96321  0.68372  1
 C  C12  1  0.95345  0.30790  0.85248  1
 C  C13  1  0.82195  0.06925  0.81708  1
 H  H1  1  0.69616  0.96421  0.89515  1
 H  H2  1  0.74241  0.77697  0.66203  1
 H  H3  1  0.36873  0.26496  0.36153  1
 H  H4  1  0.22213  0.62197  0.77715  1
 H  H5  1  0.39962  0.06283  0.12550  1
 H  H6  1  0.26723  0.43494  0.54048  1
 H  H7  1  0.61139  0.41731  -0.00210  1
 H  H8  1  0.97010  0.29630  0.07735  1
 H  H9  1  0.71367  0.64241  0.47111  1
 H  H10  1  0.74515  0.44546  0.24101  1
 O  O1  1  0.10132  0.64172  0.03277  1
