CIF file written using JARVIS-Tools package.
data_ZnH6C5O4
_symmetry_space_group_name_H-M  'P1'
_cell_length_a       4.38051
_cell_length_b       4.92943
_cell_length_c       7.49735
_cell_angle_alpha    78.422
_cell_angle_beta     80.178
_cell_angle_gamma    65.421

_symmetry_Int_Tables_number  1
_chemical_formula_structural  ZnH6C5O4
_chemical_formula_sum  ZnH6C5O4
_cell_volume  143.53739205472624
_cell_formula_units_Z  1
loop_
  _symmetry_equiv_pos_site_id
 _symmetry_equiv_pos_as_xyz
 1  'x, y, z'
loop_
 _atom_site_type_symbol
 _atom_site_label
 _atom_site_symmetry_multiplicity
 _atom_site_fract_x
 _atom_site_fract_y
 _atom_site_fract_z
 _atom_site_fract_occupancy
 C  C1  1  0.42423  0.87469  0.52367  1
 C  C2  1  0.23537  0.85149  0.38029  1
 C  C3  1  0.39774  0.91156  0.18510  1
 C  C4  1  0.71219  0.64259  0.13284  1
 C  C5  1  0.90890  0.68537  0.94828  1
 H  H1  1  0.21984  0.63068  0.40507  1
 H  H2  1  0.97879  0.02599  0.39437  1
 H  H3  1  0.45649  0.11073  0.17325  1
 H  H4  1  0.89661  0.56593  0.23482  1
 H  H5  1  0.21105  -0.02844  0.08819  1
 H  H6  1  0.65027  0.44756  0.13351  1
 O  O1  1  0.60710  0.64526  0.62677  1
 O  O2  1  0.39851  0.14182  0.52916  1
 O  O3  1  0.86855  0.94523  0.85847  1
 O  O4  1  0.12890  0.43948  0.90060  1
 Zn  Zn1  1  0.51811  0.27959  0.72452  1
