CIF file written using JARVIS-Tools package.
data_Ta2Se
_symmetry_space_group_name_H-M  'P4/nmm'
_cell_length_a       3.3917
_cell_length_b       3.3917
_cell_length_c       10.1323
_cell_angle_alpha    90
_cell_angle_beta     90
_cell_angle_gamma    90

_symmetry_Int_Tables_number  129
_chemical_formula_structural  Ta2Se
_chemical_formula_sum  Ta4Se2
_cell_volume  116.55781889419015
_cell_formula_units_Z  2
loop_
  _symmetry_equiv_pos_site_id
 _symmetry_equiv_pos_as_xyz
 1  'x, y, z'
loop_
 _atom_site_type_symbol
 _atom_site_label
 _atom_site_symmetry_multiplicity
 _atom_site_fract_x
 _atom_site_fract_y
 _atom_site_fract_z
 _atom_site_fract_occupancy
 Se  Se1  1  0.75000  0.75000  0.64121  1
 Se  Se2  1  0.25000  0.25000  0.35879  1
 Ta  Ta1  1  0.25000  0.25000  0.76394  1
 Ta  Ta2  1  0.75000  0.75000  0.23606  1
 Ta  Ta3  1  0.75000  0.75000  0.92492  1
 Ta  Ta4  1  0.25000  0.25000  0.07508  1
