CIF file written using JARVIS-Tools package.
data_Fe2CuN2
_symmetry_space_group_name_H-M  'I4/mmm'
_cell_length_a       3.41857
_cell_length_b       3.41856
_cell_length_c       5.80877
_cell_angle_alpha    107.113
_cell_angle_beta     107.113
_cell_angle_gamma    89.9993

_symmetry_Int_Tables_number  139
_chemical_formula_structural  Fe2CuN2
_chemical_formula_sum  Fe2CuN2
_cell_volume  61.72732633753301
_cell_formula_units_Z  1
loop_
  _symmetry_equiv_pos_site_id
 _symmetry_equiv_pos_as_xyz
 1  'x, y, z'
loop_
 _atom_site_type_symbol
 _atom_site_label
 _atom_site_symmetry_multiplicity
 _atom_site_fract_x
 _atom_site_fract_y
 _atom_site_fract_z
 _atom_site_fract_occupancy
 Cu  Cu1  1  0.23151  0.26849  0.00000  1
 Fe  Fe1  1  0.98122  0.51878  0.50000  1
 Fe  Fe2  1  0.48122  0.01878  0.50000  1
 N  N1  1  0.05766  0.09521  0.65288  1
 N  N2  1  0.40479  0.44234  0.34712  1
