CIF file written using JARVIS-Tools package.
data_VCuP2S6
_symmetry_space_group_name_H-M  'P1'
_cell_length_a       6.00656
_cell_length_b       6.01795
_cell_length_c       6.68027
_cell_angle_alpha    81.1847
_cell_angle_beta     107.386
_cell_angle_gamma    119.96

_symmetry_Int_Tables_number  1
_chemical_formula_structural  VCuP2S6
_chemical_formula_sum  VCuP2S6
_cell_volume  199.6453919749227
_cell_formula_units_Z  1
loop_
  _symmetry_equiv_pos_site_id
 _symmetry_equiv_pos_as_xyz
 1  'x, y, z'
loop_
 _atom_site_type_symbol
 _atom_site_label
 _atom_site_symmetry_multiplicity
 _atom_site_fract_x
 _atom_site_fract_y
 _atom_site_fract_z
 _atom_site_fract_occupancy
 Cu  Cu1  1  0.58834  0.33744  0.75221  1
 P  P1  1  0.05863  -0.00197  0.18053  1
 P  P2  1  0.94761  0.00260  0.83585  1
 S  S1  1  0.56629  0.69735  0.74680  1
 S  S2  1  0.09798  0.67222  0.24951  1
 S  S3  1  0.74051  0.98037  0.25135  1
 S  S4  1  0.22650  0.95688  0.74948  1
 S  S5  1  0.96513  0.35457  0.74335  1
 S  S6  1  0.40685  0.33846  0.25674  1
 V  V1  1  0.33816  0.66408  0.02217  1
