CIF file written using JARVIS-Tools package.
data_V6SiGe
_symmetry_space_group_name_H-M  'Pm-3'
_cell_length_a       4.72632
_cell_length_b       4.72632
_cell_length_c       4.72632
_cell_angle_alpha    90
_cell_angle_beta     90
_cell_angle_gamma    90

_symmetry_Int_Tables_number  200
_chemical_formula_structural  V6SiGe
_chemical_formula_sum  V6SiGe
_cell_volume  105.57715480448071
_cell_formula_units_Z  1
loop_
  _symmetry_equiv_pos_site_id
 _symmetry_equiv_pos_as_xyz
 1  'x, y, z'
loop_
 _atom_site_type_symbol
 _atom_site_label
 _atom_site_symmetry_multiplicity
 _atom_site_fract_x
 _atom_site_fract_y
 _atom_site_fract_z
 _atom_site_fract_occupancy
 Ge  Ge1  1  0.50000  0.50000  0.50000  1
 Si  Si1  1  0.00000  0.00000  0.00000  1
 V  V1  1  0.00000  0.50000  0.75639  1
 V  V2  1  0.50000  0.24361  0.00000  1
 V  V3  1  0.75639  0.00000  0.50000  1
 V  V4  1  0.00000  0.50000  0.24361  1
 V  V5  1  0.50000  0.75639  0.00000  1
 V  V6  1  0.24361  0.00000  0.50000  1
