CIF file written using JARVIS-Tools package.
data_V3O5F
_symmetry_space_group_name_H-M  'P1'
_cell_length_a       5.00873
_cell_length_b       5.35612
_cell_length_c       4.96942
_cell_angle_alpha    88.6272
_cell_angle_beta     60.0369
_cell_angle_gamma    62.7253

_symmetry_Int_Tables_number  1
_chemical_formula_structural  V3O5F
_chemical_formula_sum  V3O5F
_cell_volume  98.95566591608882
_cell_formula_units_Z  1
loop_
  _symmetry_equiv_pos_site_id
 _symmetry_equiv_pos_as_xyz
 1  'x, y, z'
loop_
 _atom_site_type_symbol
 _atom_site_label
 _atom_site_symmetry_multiplicity
 _atom_site_fract_x
 _atom_site_fract_y
 _atom_site_fract_z
 _atom_site_fract_occupancy
 F  F1  1  0.17358  0.74369  0.53812  1
 O  O1  1  0.52772  0.23631  0.06411  1
 O  O2  1  0.18014  0.23040  0.74620  1
 O  O3  1  0.86012  0.20749  0.39755  1
 O  O4  1  0.74344  0.75328  0.31393  1
 O  O5  1  0.54950  0.75292  0.93992  1
 V  V1  1  0.31375  0.05908  0.32993  1
 V  V2  1  0.72303  0.44936  0.13174  1
 V  V3  1  0.65323  0.97933  0.66013  1
