CIF file written using JARVIS-Tools package.
data_LiV2OF5
_symmetry_space_group_name_H-M  'P1'
_cell_length_a       5.03515
_cell_length_b       5.05745
_cell_length_c       5.42096
_cell_angle_alpha    91.0582
_cell_angle_beta     117.158
_cell_angle_gamma    118.874

_symmetry_Int_Tables_number  1
_chemical_formula_structural  LiV2OF5
_chemical_formula_sum  LiV2OF5
_cell_volume  102.37701316241495
_cell_formula_units_Z  1
loop_
  _symmetry_equiv_pos_site_id
 _symmetry_equiv_pos_as_xyz
 1  'x, y, z'
loop_
 _atom_site_type_symbol
 _atom_site_label
 _atom_site_symmetry_multiplicity
 _atom_site_fract_x
 _atom_site_fract_y
 _atom_site_fract_z
 _atom_site_fract_occupancy
 F  F1  1  0.23315  0.29798  0.74811  1
 F  F2  1  0.15298  0.39769  0.21627  1
 F  F3  1  0.81311  0.53287  0.71963  1
 F  F4  1  0.47789  0.93938  0.75047  1
 F  F5  1  0.81435  0.75758  0.23633  1
 Li  Li1  1  0.70104  0.34607  0.08290  1
 O  O1  1  0.41534  0.00930  0.21874  1
 V  V1  1  0.32281  0.67884  0.98540  1
 V  V2  1  0.32316  0.15081  0.45529  1
