CIF file written using JARVIS-Tools package.
data_ZnCuAu2
_symmetry_space_group_name_H-M  'P2/m'
_cell_length_a       2.98469
_cell_length_b       4.57235
_cell_length_c       9.11506
_cell_angle_alpha    87.4797
_cell_angle_beta     90
_cell_angle_gamma    90

_symmetry_Int_Tables_number  10
_chemical_formula_structural  ZnCuAu2
_chemical_formula_sum  Zn2Cu2Au4
_cell_volume  124.2733791687206
_cell_formula_units_Z  2
loop_
  _symmetry_equiv_pos_site_id
 _symmetry_equiv_pos_as_xyz
 1  'x, y, z'
loop_
 _atom_site_type_symbol
 _atom_site_label
 _atom_site_symmetry_multiplicity
 _atom_site_fract_x
 _atom_site_fract_y
 _atom_site_fract_z
 _atom_site_fract_occupancy
 Au  Au1  1  0.50000  0.30125  0.63146  1
 Au  Au2  1  0.50000  0.69875  0.36854  1
 Au  Au3  1  0.50000  0.79411  0.86095  1
 Au  Au4  1  0.50000  0.20589  0.13905  1
 Cu  Cu1  1  0.00000  0.80366  0.60971  1
 Cu  Cu2  1  0.00000  0.19634  0.39029  1
 Zn  Zn1  1  0.00000  0.29189  0.88347  1
 Zn  Zn2  1  0.00000  0.70811  0.11653  1
