CIF file written using JARVIS-Tools package.
data_SnH10C6O4
_symmetry_space_group_name_H-M  'P-1'
_cell_length_a       4.81607
_cell_length_b       6.30641
_cell_length_c       6.67197
_cell_angle_alpha    76.0972
_cell_angle_beta     82.4805
_cell_angle_gamma    78.6175

_symmetry_Int_Tables_number  2
_chemical_formula_structural  SnH10C6O4
_chemical_formula_sum  SnH0C6O4
_cell_volume  192.0934598152269
_cell_formula_units_Z  1
loop_
  _symmetry_equiv_pos_site_id
 _symmetry_equiv_pos_as_xyz
 1  'x, y, z'
loop_
 _atom_site_type_symbol
 _atom_site_label
 _atom_site_symmetry_multiplicity
 _atom_site_fract_x
 _atom_site_fract_y
 _atom_site_fract_z
 _atom_site_fract_occupancy
 C  C1  1  0.43422  0.35166  0.09518  1
 C  C2  1  0.55579  0.51685  0.91806  1
 C  C3  1  0.47018  0.12548  0.46738  1
 C  C4  1  0.98287  0.65901  0.45278  1
 C  C5  1  0.04318  0.98330  0.93271  1
 C  C6  1  0.59175  0.29066  0.29026  1
 H  H1  1  0.43421  0.20454  0.03385  1
 H  H2  1  0.03797  0.15971  0.86319  1
 H  H3  1  0.81792  0.22398  0.25901  1
 H  H4  1  0.16475  0.68451  0.33878  1
 H  H5  1  0.86132  0.95781  0.04673  1
 H  H6  1  0.24279  0.91279  0.00390  1
 H  H7  1  0.98810  0.48260  0.52229  1
 H  H8  1  0.78328  0.72950  0.38156  1
 H  H9  1  0.59177  0.43779  0.35159  1
 H  H10  1  0.20805  0.41834  0.12643  1
 O  O1  1  0.60061  0.05647  0.63219  1
 O  O2  1  0.42539  0.58582  0.75323  1
 O  O3  1  0.23951  0.06484  0.44673  1
 O  O4  1  0.78642  0.57753  0.93875  1
 Sn  Sn1  1  0.01299  0.82117  0.69274  1
