CIF file written using JARVIS-Tools package.
data_Al2CrB2Mo
_symmetry_space_group_name_H-M  'Amm2'
_cell_length_a       7.11574
_cell_length_b       7.11575
_cell_length_c       3.04667
_cell_angle_alpha    90
_cell_angle_beta     90
_cell_angle_gamma    154.516

_symmetry_Int_Tables_number  38
_chemical_formula_structural  Al2CrB2Mo
_chemical_formula_sum  Al2CrB2Mo
_cell_volume  66.37346132113315
_cell_formula_units_Z  1
loop_
  _symmetry_equiv_pos_site_id
 _symmetry_equiv_pos_as_xyz
 1  'x, y, z'
loop_
 _atom_site_type_symbol
 _atom_site_label
 _atom_site_symmetry_multiplicity
 _atom_site_fract_x
 _atom_site_fract_y
 _atom_site_fract_z
 _atom_site_fract_occupancy
 Al  Al1  1  0.30770  0.69230  0.50000  1
 Al  Al2  1  0.69982  0.30018  0.00000  1
 B  B1  1  0.46401  0.53599  0.50000  1
 B  B2  1  0.52828  0.47172  0.00000  1
 Cr  Cr1  1  0.91260  0.08740  0.00000  1
 Mo  Mo1  1  0.08757  0.91243  0.50000  1
