CIF file written using JARVIS-Tools package.
data_H8C8O
_symmetry_space_group_name_H-M  'P1'
_cell_length_a       5.61062
_cell_length_b       6.00376
_cell_length_c       9.54173
_cell_angle_alpha    91.5134
_cell_angle_beta     96.8583
_cell_angle_gamma    115.594

_symmetry_Int_Tables_number  1
_chemical_formula_structural  H8C8O
_chemical_formula_sum  H6C6O2
_cell_volume  286.7051585562392
_cell_formula_units_Z  2
loop_
  _symmetry_equiv_pos_site_id
 _symmetry_equiv_pos_as_xyz
 1  'x, y, z'
loop_
 _atom_site_type_symbol
 _atom_site_label
 _atom_site_symmetry_multiplicity
 _atom_site_fract_x
 _atom_site_fract_y
 _atom_site_fract_z
 _atom_site_fract_occupancy
 C  C1  1  0.33012  0.21678  0.37524  1
 C  C2  1  0.58062  0.61017  0.59125  1
 C  C3  1  0.01179  0.99405  0.66564  1
 C  C4  1  0.68036  0.43542  0.07102  1
 C  C5  1  0.68036  0.43543  0.57102  1
 C  C6  1  0.55939  0.24236  0.96499  1
 C  C7  1  0.55939  0.24236  0.46499  1
 C  C8  1  0.58062  0.61017  0.09125  1
 C  C9  1  0.01179  0.99405  0.16564  1
 C  C10  1  0.33012  0.21677  0.87524  1
 C  C11  1  0.73112  0.82614  0.20243  1
 C  C12  1  0.73112  0.82614  0.70243  1
 C  C13  1  0.35289  0.58230  0.00086  1
 C  C14  1  0.35289  0.58230  0.50086  1
 C  C15  1  0.22576  0.38721  0.89390  1
 C  C16  1  0.22576  0.38721  0.39389  1
 H  H1  1  0.27096  0.71537  0.01276  1
 H  H2  1  0.04883  0.90945  0.57261  1
 H  H3  1  0.04552  0.37024  0.32819  1
 H  H4  1  0.04552  0.37025  0.82819  1
 H  H5  1  0.85989  0.45465  0.63928  1
 H  H6  1  0.85989  0.45464  0.13928  1
 H  H7  1  0.63813  0.10789  0.94954  1
 H  H8  1  0.61489  0.93136  0.71422  1
 H  H9  1  0.61490  0.93136  0.21422  1
 H  H10  1  0.04883  0.90944  0.07261  1
 H  H11  1  0.03442  0.17871  0.14060  1
 H  H12  1  0.03442  0.17872  0.64060  1
 H  H13  1  0.75829  0.75610  0.80587  1
 H  H14  1  0.75829  0.75610  0.30587  1
 H  H15  1  0.27095  0.71537  0.51276  1
 H  H16  1  0.63813  0.10789  0.44954  1
 O  O1  1  0.22564  0.01802  0.77493  1
 O  O2  1  0.22564  0.01802  0.27493  1
