CIF file written using JARVIS-Tools package.
data_NdFeNi4
_symmetry_space_group_name_H-M  'P-6m2'
_cell_length_a       5.01612
_cell_length_b       5.01612
_cell_length_c       3.94713
_cell_angle_alpha    90
_cell_angle_beta     90
_cell_angle_gamma    120

_symmetry_Int_Tables_number  187
_chemical_formula_structural  NdFeNi4
_chemical_formula_sum  NdFeNi4
_cell_volume  86.00980888188424
_cell_formula_units_Z  1
loop_
  _symmetry_equiv_pos_site_id
 _symmetry_equiv_pos_as_xyz
 1  'x, y, z'
loop_
 _atom_site_type_symbol
 _atom_site_label
 _atom_site_symmetry_multiplicity
 _atom_site_fract_x
 _atom_site_fract_y
 _atom_site_fract_z
 _atom_site_fract_occupancy
 Fe  Fe1  1  0.66667  0.33333  0.00000  1
 Nd  Nd1  1  0.33333  0.66667  0.00000  1
 Ni  Ni1  1  0.00000  0.00000  0.00000  1
 Ni  Ni2  1  0.83339  0.66678  0.50000  1
 Ni  Ni3  1  0.33322  0.16661  0.50000  1
 Ni  Ni4  1  0.83339  0.16661  0.50000  1
