CIF file written using JARVIS-Tools package.
data_MgZrN2
_symmetry_space_group_name_H-M  'I4_1/amd'
_cell_length_a       4.4703
_cell_length_b       4.47031
_cell_length_c       5.58122
_cell_angle_alpha    113.608
_cell_angle_beta     113.608
_cell_angle_gamma    89.9998

_symmetry_Int_Tables_number  141
_chemical_formula_structural  MgZrN2
_chemical_formula_sum  Mg2Zr2N4
_cell_volume  91.92026539624491
_cell_formula_units_Z  2
loop_
  _symmetry_equiv_pos_site_id
 _symmetry_equiv_pos_as_xyz
 1  'x, y, z'
loop_
 _atom_site_type_symbol
 _atom_site_label
 _atom_site_symmetry_multiplicity
 _atom_site_fract_x
 _atom_site_fract_y
 _atom_site_fract_z
 _atom_site_fract_occupancy
 Mg  Mg1  1  0.37500  0.12500  0.75000  1
 Mg  Mg2  1  0.62500  0.87500  0.25000  1
 N  N1  1  0.88375  0.13375  0.76751  1
 N  N2  1  0.11625  0.86625  0.23249  1
 N  N3  1  0.36625  0.61625  0.73249  1
 N  N4  1  0.63375  0.38375  0.26751  1
 Zr  Zr1  1  0.12500  0.37500  0.25000  1
 Zr  Zr2  1  0.87500  0.62500  0.75000  1
