CIF file written using JARVIS-Tools package.
data_Tl6S
_symmetry_space_group_name_H-M  'P31m'
_cell_length_a       6.01614
_cell_length_b       6.47987
_cell_length_c       6.48072
_cell_angle_alpha    120.003
_cell_angle_beta     90.0137
_cell_angle_gamma    89.9898

_symmetry_Int_Tables_number  157
_chemical_formula_structural  Tl6S
_chemical_formula_sum  Tl6S
_cell_volume  218.7888431352153
_cell_formula_units_Z  1
loop_
  _symmetry_equiv_pos_site_id
 _symmetry_equiv_pos_as_xyz
 1  'x, y, z'
loop_
 _atom_site_type_symbol
 _atom_site_label
 _atom_site_symmetry_multiplicity
 _atom_site_fract_x
 _atom_site_fract_y
 _atom_site_fract_z
 _atom_site_fract_occupancy
 S  S1  1  0.72961  0.33362  0.66627  1
 Tl  Tl1  1  0.98970  0.33319  0.03641  1
 Tl  Tl2  1  0.46815  0.33340  0.29627  1
 Tl  Tl3  1  0.46743  0.70307  0.03536  1
 Tl  Tl4  1  0.98958  0.70372  0.66575  1
 Tl  Tl5  1  0.46780  0.96376  0.66562  1
 Tl  Tl6  1  0.98901  0.96285  0.29540  1
