CIF file written using JARVIS-Tools package.
data_Nd2Ga7Pd
_symmetry_space_group_name_H-M  'P-4m2'
_cell_length_a       4.31519
_cell_length_b       4.31519
_cell_length_c       10.5949
_cell_angle_alpha    90
_cell_angle_beta     90
_cell_angle_gamma    90

_symmetry_Int_Tables_number  115
_chemical_formula_structural  Nd2Ga7Pd
_chemical_formula_sum  Nd2Ga7Pd
_cell_volume  197.28647815480736
_cell_formula_units_Z  1
loop_
  _symmetry_equiv_pos_site_id
 _symmetry_equiv_pos_as_xyz
 1  'x, y, z'
loop_
 _atom_site_type_symbol
 _atom_site_label
 _atom_site_symmetry_multiplicity
 _atom_site_fract_x
 _atom_site_fract_y
 _atom_site_fract_z
 _atom_site_fract_occupancy
 Ga  Ga1  1  0.00000  0.50000  0.87098  1
 Ga  Ga2  1  0.50000  0.00000  0.36168  1
 Ga  Ga3  1  0.50000  0.00000  0.12902  1
 Ga  Ga4  1  0.00000  0.50000  0.63832  1
 Ga  Ga5  1  0.00000  0.00000  0.50000  1
 Ga  Ga6  1  0.00000  0.00000  0.00000  1
 Ga  Ga7  1  0.50000  0.50000  0.50000  1
 Nd  Nd1  1  0.50000  0.00000  0.75307  1
 Nd  Nd2  1  0.00000  0.50000  0.24693  1
 Pd  Pd1  1  0.50000  0.50000  0.00000  1
