CIF file written using JARVIS-Tools package.
data_HC2SNO2
_symmetry_space_group_name_H-M  'P1'
_cell_length_a       4.64707
_cell_length_b       6.40278
_cell_length_c       6.4476
_cell_angle_alpha    71.9767
_cell_angle_beta     84.2594
_cell_angle_gamma    79.3025

_symmetry_Int_Tables_number  1
_chemical_formula_structural  HC2SNO2
_chemical_formula_sum  H2C4S2N2O4
_cell_volume  179.07255684431357
_cell_formula_units_Z  2
loop_
  _symmetry_equiv_pos_site_id
 _symmetry_equiv_pos_as_xyz
 1  'x, y, z'
loop_
 _atom_site_type_symbol
 _atom_site_label
 _atom_site_symmetry_multiplicity
 _atom_site_fract_x
 _atom_site_fract_y
 _atom_site_fract_z
 _atom_site_fract_occupancy
 C  C1  1  0.91527  0.24200  0.71839  1
 C  C2  1  0.62973  0.24819  0.85181  1
 C  C3  1  0.91532  0.74201  0.21838  1
 C  C4  1  0.62977  0.74819  0.35180  1
 H  H1  1  0.43149  0.18809  0.59675  1
 H  H2  1  0.43155  0.68809  0.09674  1
 N  N1  1  0.41100  0.23466  0.73726  1
 N  N2  1  0.41105  0.73467  0.23724  1
 O  O1  1  0.94911  0.24916  0.52720  1
 O  O2  1  0.94915  0.74918  0.02719  1
 O  O3  1  0.13943  0.72809  0.34871  1
 O  O4  1  0.13938  0.22809  0.84872  1
 S  S1  1  0.59951  0.27659  0.09885  1
 S  S2  1  0.59956  0.77658  0.59885  1
