CIF file written using JARVIS-Tools package.
data_KErTe2
_symmetry_space_group_name_H-M  'R-3m'
_cell_length_a       8.51222
_cell_length_b       8.51222
_cell_length_c       8.51221
_cell_angle_alpha    30.2161
_cell_angle_beta     30.2161
_cell_angle_gamma    30.2161

_symmetry_Int_Tables_number  166
_chemical_formula_structural  KErTe2
_chemical_formula_sum  KErTe2
_cell_volume  138.41508289381093
_cell_formula_units_Z  1
loop_
  _symmetry_equiv_pos_site_id
 _symmetry_equiv_pos_as_xyz
 1  'x, y, z'
loop_
 _atom_site_type_symbol
 _atom_site_label
 _atom_site_symmetry_multiplicity
 _atom_site_fract_x
 _atom_site_fract_y
 _atom_site_fract_z
 _atom_site_fract_occupancy
 Er  Er1  1  0.00000  0.00000  0.00000  1
 K  K1  1  0.50000  0.50000  0.50000  1
 Te  Te1  1  0.26334  0.26334  0.26334  1
 Te  Te2  1  0.73666  0.73666  0.73666  1
