CIF file written using JARVIS-Tools package.
data_K4CdP2
_symmetry_space_group_name_H-M  'R-3m'
_cell_length_a       5.64477
_cell_length_b       5.64465
_cell_length_c       9.61588
_cell_angle_alpha    107.069
_cell_angle_beta     90
_cell_angle_gamma    120.001

_symmetry_Int_Tables_number  166
_chemical_formula_structural  K4CdP2
_chemical_formula_sum  K4CdP2
_cell_volume  249.6332591689653
_cell_formula_units_Z  1
loop_
  _symmetry_equiv_pos_site_id
 _symmetry_equiv_pos_as_xyz
 1  'x, y, z'
loop_
 _atom_site_type_symbol
 _atom_site_label
 _atom_site_symmetry_multiplicity
 _atom_site_fract_x
 _atom_site_fract_y
 _atom_site_fract_z
 _atom_site_fract_occupancy
 Cd  Cd1  1  -0.00000  0.00000  0.50000  1
 K  K1  1  0.39222  0.78444  0.67648  1
 K  K2  1  0.20781  0.41561  0.12358  1
 K  K3  1  0.79219  0.58439  0.87642  1
 K  K4  1  0.60778  0.21556  0.32352  1
 P  P1  1  0.91064  0.82129  0.23215  1
 P  P2  1  0.08936  0.17871  0.76785  1
