CIF file written using JARVIS-Tools package.
data_ScHO2
_symmetry_space_group_name_H-M  'P2_1/m'
_cell_length_a       3.35287
_cell_length_b       4.12619
_cell_length_c       5.57708
_cell_angle_alpha    70.2271
_cell_angle_beta     90
_cell_angle_gamma    90

_symmetry_Int_Tables_number  11
_chemical_formula_structural  ScHO2
_chemical_formula_sum  Sc2H2O4
_cell_volume  72.60759678954123
_cell_formula_units_Z  2
loop_
  _symmetry_equiv_pos_site_id
 _symmetry_equiv_pos_as_xyz
 1  'x, y, z'
loop_
 _atom_site_type_symbol
 _atom_site_label
 _atom_site_symmetry_multiplicity
 _atom_site_fract_x
 _atom_site_fract_y
 _atom_site_fract_z
 _atom_site_fract_occupancy
 H  H1  1  0.75000  0.99397  0.41632  1
 H  H2  1  0.25000  0.00603  0.58368  1
 O  O1  1  0.25000  0.23140  0.05715  1
 O  O2  1  0.75000  0.74966  0.43794  1
 O  O3  1  0.25000  0.25034  0.56206  1
 O  O4  1  0.75000  0.76860  0.94285  1
 Sc  Sc1  1  0.25000  0.66600  0.18701  1
 Sc  Sc2  1  0.75000  0.33400  0.81299  1
