CIF file written using JARVIS-Tools package.
data_CaCl2O6
_symmetry_space_group_name_H-M  'Fdd2'
_cell_length_a       6.74958
_cell_length_b       6.9839
_cell_length_c       8.28427
_cell_angle_alpha    51.6175
_cell_angle_beta     54.2033
_cell_angle_gamma    74.1792

_symmetry_Int_Tables_number  43
_chemical_formula_structural  CaCl2O6
_chemical_formula_sum  Ca2Cl4O2
_cell_volume  245.75609938306837
_cell_formula_units_Z  2
loop_
  _symmetry_equiv_pos_site_id
 _symmetry_equiv_pos_as_xyz
 1  'x, y, z'
loop_
 _atom_site_type_symbol
 _atom_site_label
 _atom_site_symmetry_multiplicity
 _atom_site_fract_x
 _atom_site_fract_y
 _atom_site_fract_z
 _atom_site_fract_occupancy
 Ca  Ca1  1  0.99720  0.99720  0.00280  1
 Ca  Ca2  1  0.24720  0.24720  0.25280  1
 Cl  Cl1  1  0.59742  0.02454  0.51418  1
 Cl  Cl2  1  0.38614  0.73582  0.22546  1
 Cl  Cl3  1  0.73582  0.38614  0.65258  1
 Cl  Cl4  1  0.02454  0.59742  0.86386  1
 O  O1  1  0.62902  0.11273  0.27809  1
 O  O2  1  0.82301  0.13966  0.43167  1
 O  O3  1  0.13966  0.82301  0.60566  1
 O  O4  1  0.39892  0.63907  0.10180  1
 O  O5  1  0.38979  0.14820  0.61093  1
 O  O6  1  0.26984  0.97191  0.13727  1
 O  O7  1  0.81833  0.64434  0.42699  1
 O  O8  1  0.97191  0.26984  0.62098  1
 O  O9  1  0.63907  0.39892  0.86021  1
 O  O10  1  0.14820  0.38979  0.85108  1
 O  O11  1  0.64434  0.81833  0.11034  1
 O  O12  1  0.11273  0.62902  0.98016  1
