CIF file written using JARVIS-Tools package.
data_Hg2TeSe
_symmetry_space_group_name_H-M  'R3m'
_cell_length_a       7.89828
_cell_length_b       7.89828
_cell_length_c       7.89828
_cell_angle_alpha    33.5652
_cell_angle_beta     33.5652
_cell_angle_gamma    33.5652

_symmetry_Int_Tables_number  160
_chemical_formula_structural  Hg2TeSe
_chemical_formula_sum  Hg2TeSe
_cell_volume  134.15770379489862
_cell_formula_units_Z  1
loop_
  _symmetry_equiv_pos_site_id
 _symmetry_equiv_pos_as_xyz
 1  'x, y, z'
loop_
 _atom_site_type_symbol
 _atom_site_label
 _atom_site_symmetry_multiplicity
 _atom_site_fract_x
 _atom_site_fract_y
 _atom_site_fract_z
 _atom_site_fract_occupancy
 Hg  Hg1  1  0.00476  0.00476  0.00476  1
 Hg  Hg2  1  0.49557  0.49557  0.49557  1
 Se  Se1  1  0.12562  0.12562  0.12562  1
 Te  Te1  1  0.62406  0.62406  0.62406  1
