CIF file written using JARVIS-Tools package.
data_Ni2Mo
_symmetry_space_group_name_H-M  'Immm'
_cell_length_a       4.46562
_cell_length_b       4.46562
_cell_length_c       4.46562
_cell_angle_alpha    145.883
_cell_angle_beta     131.456
_cell_angle_gamma    60.663

_symmetry_Int_Tables_number  71
_chemical_formula_structural  Ni2Mo
_chemical_formula_sum  Ni2Mo
_cell_volume  37.073856126016686
_cell_formula_units_Z  1
loop_
  _symmetry_equiv_pos_site_id
 _symmetry_equiv_pos_as_xyz
 1  'x, y, z'
loop_
 _atom_site_type_symbol
 _atom_site_label
 _atom_site_symmetry_multiplicity
 _atom_site_fract_x
 _atom_site_fract_y
 _atom_site_fract_z
 _atom_site_fract_occupancy
 Mo  Mo1  1  0.00000  0.00000  0.00000  1
 Ni  Ni1  1  0.66907  0.66907  0.00000  1
 Ni  Ni2  1  0.33093  0.33093  -0.00000  1
