CIF file written using JARVIS-Tools package.
data_NiB2Mo2
_symmetry_space_group_name_H-M  'Immm'
_cell_length_a       3.19415
_cell_length_b       4.52533
_cell_length_c       4.52533
_cell_angle_alpha    60.6963
_cell_angle_beta     69.3339
_cell_angle_gamma    69.3339

_symmetry_Int_Tables_number  71
_chemical_formula_structural  NiB2Mo2
_chemical_formula_sum  NiB2Mo2
_cell_volume  52.053264151611245
_cell_formula_units_Z  1
loop_
  _symmetry_equiv_pos_site_id
 _symmetry_equiv_pos_as_xyz
 1  'x, y, z'
loop_
 _atom_site_type_symbol
 _atom_site_label
 _atom_site_symmetry_multiplicity
 _atom_site_fract_x
 _atom_site_fract_y
 _atom_site_fract_z
 _atom_site_fract_occupancy
 B  B1  1  0.50000  0.69990  0.30010  1
 B  B2  1  0.50000  0.30010  0.69990  1
 Mo  Mo1  1  0.80030  0.69970  0.69970  1
 Mo  Mo2  1  0.19970  0.30030  0.30030  1
 Ni  Ni1  1  0.00000  0.00000  0.00000  1
