CIF file written using JARVIS-Tools package.
data_K4NaCl5
_symmetry_space_group_name_H-M  'I4/m'
_cell_length_a       7.50934
_cell_length_b       7.50933
_cell_length_c       7.50934
_cell_angle_alpha    99.7128
_cell_angle_beta     99.7127
_cell_angle_gamma    131.497

_symmetry_Int_Tables_number  87
_chemical_formula_structural  K4NaCl5
_chemical_formula_sum  K4NaCl5
_cell_volume  289.1720381754028
_cell_formula_units_Z  1
loop_
  _symmetry_equiv_pos_site_id
 _symmetry_equiv_pos_as_xyz
 1  'x, y, z'
loop_
 _atom_site_type_symbol
 _atom_site_label
 _atom_site_symmetry_multiplicity
 _atom_site_fract_x
 _atom_site_fract_y
 _atom_site_fract_z
 _atom_site_fract_occupancy
 Cl  Cl1  1  0.71653  0.90646  0.62299  1
 Cl  Cl2  1  0.28347  0.09354  0.37701  1
 Cl  Cl3  1  0.90646  0.28347  0.18992  1
 Cl  Cl4  1  0.50000  0.50000  0.00000  1
 Cl  Cl5  1  0.09354  0.71653  0.81008  1
 K  K1  1  0.59527  0.20074  0.79601  1
 K  K2  1  0.20074  0.40473  0.60547  1
 K  K3  1  0.79926  0.59527  0.39453  1
 K  K4  1  0.40473  0.79926  0.20399  1
 Na  Na1  1  0.00000  0.00000  0.00000  1
