CIF file written using JARVIS-Tools package.
data_H3C3N
_symmetry_space_group_name_H-M  'Ama2'
_cell_length_a       5.74383
_cell_length_b       5.74383
_cell_length_c       5.1311
_cell_angle_alpha    90.0002
_cell_angle_beta     90.0002
_cell_angle_gamma    128.892

_symmetry_Int_Tables_number  40
_chemical_formula_structural  H3C3N
_chemical_formula_sum  H6C6N2
_cell_volume  131.75772116375484
_cell_formula_units_Z  2
loop_
  _symmetry_equiv_pos_site_id
 _symmetry_equiv_pos_as_xyz
 1  'x, y, z'
loop_
 _atom_site_type_symbol
 _atom_site_label
 _atom_site_symmetry_multiplicity
 _atom_site_fract_x
 _atom_site_fract_y
 _atom_site_fract_z
 _atom_site_fract_occupancy
 C  C1  1  0.65640  0.65640  0.40429  1
 C  C2  1  0.65640  0.65640  0.90429  1
 C  C3  1  0.48695  0.47963  0.65428  1
 C  C4  1  0.47963  0.48695  0.15428  1
 C  C5  1  0.42356  0.18966  0.65428  1
 C  C6  1  0.18966  0.42356  0.15428  1
 H  H1  1  0.87060  0.69817  0.39454  1
 H  H2  1  0.69817  0.87060  0.89454  1
 H  H3  1  0.69819  0.87060  0.41403  1
 H  H4  1  0.87060  0.69819  0.91403  1
 H  H5  1  0.26902  0.43376  0.65428  1
 H  H6  1  0.43376  0.26902  0.15428  1
 N  N1  1  0.36938  0.95769  0.65429  1
 N  N2  1  0.95769  0.36938  0.15429  1
