CIF file written using JARVIS-Tools package.
data_CrB4Mo
_symmetry_space_group_name_H-M  'Immm'
_cell_length_a       4.38769
_cell_length_b       4.38863
_cell_length_c       4.38863
_cell_angle_alpha    140.143
_cell_angle_beta     107.574
_cell_angle_gamma    86.0171

_symmetry_Int_Tables_number  71
_chemical_formula_structural  CrB4Mo
_chemical_formula_sum  CrB4Mo
_cell_volume  49.77510608328474
_cell_formula_units_Z  1
loop_
  _symmetry_equiv_pos_site_id
 _symmetry_equiv_pos_as_xyz
 1  'x, y, z'
loop_
 _atom_site_type_symbol
 _atom_site_label
 _atom_site_symmetry_multiplicity
 _atom_site_fract_x
 _atom_site_fract_y
 _atom_site_fract_z
 _atom_site_fract_occupancy
 B  B1  1  0.07991  0.74638  0.33367  1
 B  B2  1  0.58724  0.25368  0.33360  1
 B  B3  1  0.92009  0.25363  0.66637  1
 B  B4  1  0.41276  0.74632  0.66645  1
 Cr  Cr1  1  0.00000  -0.00000  0.00001  1
 Mo  Mo1  1  0.50000  0.50000  0.00003  1
