CIF file written using JARVIS-Tools package.
data_Mn3Ga
_symmetry_space_group_name_H-M  'R-3m'
_cell_length_a       2.57312
_cell_length_b       2.57311
_cell_length_c       8.23163
_cell_angle_alpha    90
_cell_angle_beta     81.0081
_cell_angle_gamma    120

_symmetry_Int_Tables_number  166
_chemical_formula_structural  Mn3Ga
_chemical_formula_sum  Mn3Ga
_cell_volume  46.42430608862647
_cell_formula_units_Z  1
loop_
  _symmetry_equiv_pos_site_id
 _symmetry_equiv_pos_as_xyz
 1  'x, y, z'
loop_
 _atom_site_type_symbol
 _atom_site_label
 _atom_site_symmetry_multiplicity
 _atom_site_fract_x
 _atom_site_fract_y
 _atom_site_fract_z
 _atom_site_fract_occupancy
 Ga  Ga1  1  0.00000  0.00000  0.00000  1
 Mn  Mn1  1  0.49063  0.24531  0.26406  1
 Mn  Mn2  1  0.00000  0.50000  0.50000  1
 Mn  Mn3  1  0.50937  0.75469  0.73594  1
