CIF file written using JARVIS-Tools package.
data_MnO2
_symmetry_space_group_name_H-M  'R-3m'
_cell_length_a       5.10821
_cell_length_b       5.10821
_cell_length_c       5.10821
_cell_angle_alpha    32.6402
_cell_angle_beta     32.6402
_cell_angle_gamma    32.6403

_symmetry_Int_Tables_number  166
_chemical_formula_structural  MnO2
_chemical_formula_sum  MnO2
_cell_volume  34.48748965908071
_cell_formula_units_Z  1
loop_
  _symmetry_equiv_pos_site_id
 _symmetry_equiv_pos_as_xyz
 1  'x, y, z'
loop_
 _atom_site_type_symbol
 _atom_site_label
 _atom_site_symmetry_multiplicity
 _atom_site_fract_x
 _atom_site_fract_y
 _atom_site_fract_z
 _atom_site_fract_occupancy
 Mn  Mn1  1  0.00000  0.00000  0.00000  1
 O  O1  1  0.60056  0.60056  0.60056  1
 O  O2  1  0.39944  0.39944  0.39944  1
