CIF file written using JARVIS-Tools package.
data_Zr2N2O
_symmetry_space_group_name_H-M  'Pnma'
_cell_length_a       3.13798
_cell_length_b       8.49966
_cell_length_c       8.55999
_cell_angle_alpha    90
_cell_angle_beta     90
_cell_angle_gamma    90

_symmetry_Int_Tables_number  62
_chemical_formula_structural  Zr2N2O
_chemical_formula_sum  Zr8N8O4
_cell_volume  228.31006055457937
_cell_formula_units_Z  4
loop_
  _symmetry_equiv_pos_site_id
 _symmetry_equiv_pos_as_xyz
 1  'x, y, z'
loop_
 _atom_site_type_symbol
 _atom_site_label
 _atom_site_symmetry_multiplicity
 _atom_site_fract_x
 _atom_site_fract_y
 _atom_site_fract_z
 _atom_site_fract_occupancy
 N  N1  1  0.75000  0.86699  0.04741  1
 N  N2  1  0.25000  0.44421  0.12406  1
 N  N3  1  0.25000  0.05579  0.62406  1
 N  N4  1  0.25000  0.36699  0.45259  1
 N  N5  1  0.25000  0.13301  0.95259  1
 N  N6  1  0.75000  0.55579  0.87594  1
 N  N7  1  0.75000  0.94421  0.37594  1
 N  N8  1  0.75000  0.63301  0.54741  1
 O  O1  1  0.75000  0.19039  0.22642  1
 O  O2  1  0.25000  0.69039  0.27358  1
 O  O3  1  0.25000  0.80961  0.77358  1
 O  O4  1  0.75000  0.30961  0.72642  1
 Zr  Zr1  1  0.75000  0.99890  0.81813  1
 Zr  Zr2  1  0.25000  0.82125  0.50516  1
 Zr  Zr3  1  0.25000  0.67875  0.00516  1
 Zr  Zr4  1  0.75000  0.50110  0.31813  1
 Zr  Zr5  1  0.25000  0.49890  0.68187  1
 Zr  Zr6  1  0.75000  0.32125  0.99484  1
 Zr  Zr7  1  0.75000  0.17875  0.49484  1
 Zr  Zr8  1  0.25000  0.00110  0.18187  1
