CIF file written using JARVIS-Tools package.
data_AlAg4
_symmetry_space_group_name_H-M  'R-3m'
_cell_length_a       11.6333
_cell_length_b       11.6333
_cell_length_c       11.6333
_cell_angle_alpha    14.5489
_cell_angle_beta     14.5489
_cell_angle_gamma    14.5489

_symmetry_Int_Tables_number  166
_chemical_formula_structural  AlAg4
_chemical_formula_sum  AlAg4
_cell_volume  86.501580658469
_cell_formula_units_Z  1
loop_
  _symmetry_equiv_pos_site_id
 _symmetry_equiv_pos_as_xyz
 1  'x, y, z'
loop_
 _atom_site_type_symbol
 _atom_site_label
 _atom_site_symmetry_multiplicity
 _atom_site_fract_x
 _atom_site_fract_y
 _atom_site_fract_z
 _atom_site_fract_occupancy
 Ag  Ag1  1  0.60335  0.60335  0.60335  1
 Ag  Ag2  1  0.20106  0.20106  0.20106  1
 Ag  Ag3  1  0.79894  0.79894  0.79894  1
 Ag  Ag4  1  0.39665  0.39665  0.39665  1
 Al  Al1  1  0.00000  0.00000  0.00000  1
