CIF file written using JARVIS-Tools package.
data_CaCu4As2
_symmetry_space_group_name_H-M  'R-3m'
_cell_length_a       7.93481
_cell_length_b       7.93481
_cell_length_c       7.93481
_cell_angle_alpha    30.5077
_cell_angle_beta     30.5077
_cell_angle_gamma    30.5076

_symmetry_Int_Tables_number  166
_chemical_formula_structural  CaCu4As2
_chemical_formula_sum  CaCu4As2
_cell_volume  114.13004706164045
_cell_formula_units_Z  1
loop_
  _symmetry_equiv_pos_site_id
 _symmetry_equiv_pos_as_xyz
 1  'x, y, z'
loop_
 _atom_site_type_symbol
 _atom_site_label
 _atom_site_symmetry_multiplicity
 _atom_site_fract_x
 _atom_site_fract_y
 _atom_site_fract_z
 _atom_site_fract_occupancy
 As  As1  1  0.25431  0.25431  0.25431  1
 As  As2  1  0.74569  0.74569  0.74569  1
 Ca  Ca1  1  0.00000  0.00000  0.00000  1
 Cu  Cu1  1  0.14535  0.14535  0.14535  1
 Cu  Cu2  1  0.56335  0.56335  0.56335  1
 Cu  Cu3  1  0.85465  0.85465  0.85465  1
 Cu  Cu4  1  0.43665  0.43665  0.43665  1
