CIF file written using JARVIS-Tools package.
data_AsPd6Pb
_symmetry_space_group_name_H-M  'R-3m'
_cell_length_a       7.82518
_cell_length_b       7.82518
_cell_length_c       7.82519
_cell_angle_alpha    33.8064
_cell_angle_beta     33.8063
_cell_angle_gamma    33.8063

_symmetry_Int_Tables_number  166
_chemical_formula_structural  AsPd6Pb
_chemical_formula_sum  AsPd6Pb
_cell_volume  132.17808891672908
_cell_formula_units_Z  1
loop_
  _symmetry_equiv_pos_site_id
 _symmetry_equiv_pos_as_xyz
 1  'x, y, z'
loop_
 _atom_site_type_symbol
 _atom_site_label
 _atom_site_symmetry_multiplicity
 _atom_site_fract_x
 _atom_site_fract_y
 _atom_site_fract_z
 _atom_site_fract_occupancy
 As  As1  1  0.00000  0.00000  0.00000  1
 Pb  Pb1  1  0.50000  0.50000  0.50000  1
 Pd  Pd1  1  0.63264  0.63264  0.63264  1
 Pd  Pd2  1  0.11518  0.11518  0.11518  1
 Pd  Pd3  1  0.88482  0.88482  0.88482  1
 Pd  Pd4  1  0.36736  0.36736  0.36736  1
 Pd  Pd5  1  0.24395  0.24395  0.24395  1
 Pd  Pd6  1  0.75605  0.75605  0.75605  1
