CIF file written using JARVIS-Tools package.
data_Te2MoW3Se4S2
_symmetry_space_group_name_H-M  'P3m1'
_cell_length_a       3.34815
_cell_length_b       3.34806
_cell_length_c       39.5341
_cell_angle_alpha    89.9992
_cell_angle_beta     90.0003
_cell_angle_gamma    120.001

_symmetry_Int_Tables_number  156
_chemical_formula_structural  Te2MoW3Se4S2
_chemical_formula_sum  Te2MoW3Se4S2
_cell_volume  383.79108566878455
_cell_formula_units_Z  1
loop_
  _symmetry_equiv_pos_site_id
 _symmetry_equiv_pos_as_xyz
 1  'x, y, z'
loop_
 _atom_site_type_symbol
 _atom_site_label
 _atom_site_symmetry_multiplicity
 _atom_site_fract_x
 _atom_site_fract_y
 _atom_site_fract_z
 _atom_site_fract_occupancy
 Mo  Mo1  1  0.33337  0.66674  0.09392  1
 S  S1  1  0.66666  0.33332  0.05563  1
 S  S2  1  0.66667  0.33335  0.13230  1
 Se  Se1  1  0.33328  0.66657  0.32334  1
 Se  Se2  1  0.33331  0.66663  0.70074  1
 Se  Se3  1  0.33329  0.66657  0.23861  1
 Se  Se4  1  0.33332  0.66663  0.61614  1
 Te  Te1  1  0.66671  0.33341  0.42120  1
 Te  Te2  1  0.66672  0.33343  0.51786  1
 W  W1  1  0.33339  0.66678  0.46953  1
 W  W2  1  0.66664  0.33329  0.28101  1
 W  W3  1  0.66663  0.33326  0.65846  1
