CIF file written using JARVIS-Tools package.
data_VAg3HgO4
_symmetry_space_group_name_H-M  'P1'
_cell_length_a       4.70146
_cell_length_b       5.88316
_cell_length_c       6.0711
_cell_angle_alpha    80.9168
_cell_angle_beta     113.709
_cell_angle_gamma    113.215

_symmetry_Int_Tables_number  1
_chemical_formula_structural  VAg3HgO4
_chemical_formula_sum  VAg3HgO4
_cell_volume  141.3027168645661
_cell_formula_units_Z  1
loop_
  _symmetry_equiv_pos_site_id
 _symmetry_equiv_pos_as_xyz
 1  'x, y, z'
loop_
 _atom_site_type_symbol
 _atom_site_label
 _atom_site_symmetry_multiplicity
 _atom_site_fract_x
 _atom_site_fract_y
 _atom_site_fract_z
 _atom_site_fract_occupancy
 Ag  Ag1  1  0.87024  0.40659  0.25292  1
 Ag  Ag2  1  0.38719  0.24776  0.58581  1
 Ag  Ag3  1  0.55121  0.73863  0.40554  1
 Hg  Hg1  1  0.20298  0.59061  0.71436  1
 O  O1  1  0.69497  0.75243  0.08421  1
 O  O2  1  0.87513  0.25839  0.92638  1
 O  O3  1  0.04421  0.92126  0.76524  1
 O  O4  1  0.37489  0.08129  0.25601  1
 V  V1  1  -0.00082  0.00305  0.00953  1
