CIF file written using JARVIS-Tools package.
data_ZnH14C9O4
_symmetry_space_group_name_H-M  'P1'
_cell_length_a       4.41817
_cell_length_b       4.87802
_cell_length_c       11.8795
_cell_angle_alpha    85.6086
_cell_angle_beta     95.0837
_cell_angle_gamma    64.3713

_symmetry_Int_Tables_number  1
_chemical_formula_structural  ZnH14C9O4
_chemical_formula_sum  ZnH4C9O4
_cell_volume  228.03887805012587
_cell_formula_units_Z  1
loop_
  _symmetry_equiv_pos_site_id
 _symmetry_equiv_pos_as_xyz
 1  'x, y, z'
loop_
 _atom_site_type_symbol
 _atom_site_label
 _atom_site_symmetry_multiplicity
 _atom_site_fract_x
 _atom_site_fract_y
 _atom_site_fract_z
 _atom_site_fract_occupancy
 C  C1  1  0.29844  0.38712  0.34458  1
 C  C2  1  0.81130  0.69272  0.60178  1
 C  C3  1  0.06043  0.61029  0.41673  1
 C  C4  1  0.03247  0.45655  0.53010  1
 C  C5  1  0.30624  0.54345  0.22888  1
 C  C6  1  0.55682  0.32501  0.15851  1
 C  C7  1  0.58821  0.48600  0.04615  1
 C  C8  1  0.28115  0.57545  0.95843  1
 C  C9  1  0.70438  0.56905  0.70390  1
 H  H1  1  0.92626  0.29449  0.51382  1
 H  H2  1  0.93320  0.83387  0.63121  1
 H  H3  1  0.57266  0.85611  0.54906  1
 H  H4  1  0.61244  0.69450  0.06257  1
 H  H5  1  0.81537  0.33229  0.01205  1
 H  H6  1  0.28555  0.32170  0.57864  1
 H  H7  1  0.80596  0.73476  0.36714  1
 H  H8  1  0.22083  0.20359  0.33157  1
 H  H9  1  0.55655  0.27275  0.39177  1
 H  H10  1  0.48506  0.14128  0.13967  1
 H  H11  1  0.80963  0.21105  0.20919  1
 H  H12  1  0.14770  0.78621  0.43317  1
 H  H13  1  0.37567  0.73166  0.24251  1
 H  H14  1  0.05026  0.65285  0.18039  1
 O  O1  1  0.54763  0.74990  0.77384  1
 O  O2  1  0.04088  0.84476  0.95591  1
 O  O3  1  0.75958  0.28851  0.71243  1
 O  O4  1  0.26096  0.38135  0.89529  1
 Zn  Zn1  1  0.64915  0.06729  0.83634  1
