CIF file written using JARVIS-Tools package.
data_TbAc3
_symmetry_space_group_name_H-M  'P6_3/mmc'
_cell_length_a       7.79599
_cell_length_b       7.79598
_cell_length_c       6.25032
_cell_angle_alpha    90
_cell_angle_beta     90
_cell_angle_gamma    120

_symmetry_Int_Tables_number  194
_chemical_formula_structural  TbAc3
_chemical_formula_sum  Tb2Ac6
_cell_volume  328.98421183326855
_cell_formula_units_Z  2
loop_
  _symmetry_equiv_pos_site_id
 _symmetry_equiv_pos_as_xyz
 1  'x, y, z'
loop_
 _atom_site_type_symbol
 _atom_site_label
 _atom_site_symmetry_multiplicity
 _atom_site_fract_x
 _atom_site_fract_y
 _atom_site_fract_z
 _atom_site_fract_occupancy
 Ac  Ac1  1  0.16958  0.33917  0.25000  1
 Ac  Ac2  1  0.66083  0.83042  0.25000  1
 Ac  Ac3  1  0.16958  0.83042  0.25000  1
 Ac  Ac4  1  0.83042  0.66083  0.75000  1
 Ac  Ac5  1  0.33917  0.16958  0.75000  1
 Ac  Ac6  1  0.83042  0.16958  0.75000  1
 Tb  Tb1  1  0.33333  0.66667  0.75000  1
 Tb  Tb2  1  0.66667  0.33333  0.25000  1
