CIF file written using JARVIS-Tools package.
data_ZrGeN2
_symmetry_space_group_name_H-M  'P4/nmm'
_cell_length_a       3.92777
_cell_length_b       3.92777
_cell_length_c       7.80701
_cell_angle_alpha    90
_cell_angle_beta     90
_cell_angle_gamma    90

_symmetry_Int_Tables_number  129
_chemical_formula_structural  ZrGeN2
_chemical_formula_sum  Zr2Ge2N4
_cell_volume  120.44151917090403
_cell_formula_units_Z  2
loop_
  _symmetry_equiv_pos_site_id
 _symmetry_equiv_pos_as_xyz
 1  'x, y, z'
loop_
 _atom_site_type_symbol
 _atom_site_label
 _atom_site_symmetry_multiplicity
 _atom_site_fract_x
 _atom_site_fract_y
 _atom_site_fract_z
 _atom_site_fract_occupancy
 Ge  Ge1  1  0.75000  0.75000  0.11521  1
 Ge  Ge2  1  0.25000  0.25000  0.88479  1
 N  N1  1  0.75000  0.25000  0.50000  1
 N  N2  1  0.25000  0.75000  0.50000  1
 N  N3  1  0.75000  0.75000  0.87950  1
 N  N4  1  0.25000  0.25000  0.12050  1
 Zr  Zr1  1  0.75000  0.75000  0.61171  1
 Zr  Zr2  1  0.25000  0.25000  0.38829  1
