CIF file written using JARVIS-Tools package.
data_AgAs
_symmetry_space_group_name_H-M  'Pmmm'
_cell_length_a       2.93096
_cell_length_b       5.71916
_cell_length_c       4.74027
_cell_angle_alpha    90
_cell_angle_beta     90
_cell_angle_gamma    90

_symmetry_Int_Tables_number  47
_chemical_formula_structural  AgAs
_chemical_formula_sum  Ag2As2
_cell_volume  79.45942621181395
_cell_formula_units_Z  2
loop_
  _symmetry_equiv_pos_site_id
 _symmetry_equiv_pos_as_xyz
 1  'x, y, z'
loop_
 _atom_site_type_symbol
 _atom_site_label
 _atom_site_symmetry_multiplicity
 _atom_site_fract_x
 _atom_site_fract_y
 _atom_site_fract_z
 _atom_site_fract_occupancy
 Ag  Ag1  1  0.00000  0.25000  0.00037  1
 Ag  Ag2  1  0.00000  0.75000  0.99963  1
 As  As1  1  0.50000  0.75000  0.49967  1
 As  As2  1  0.50000  0.25000  0.50033  1
