CIF file written using JARVIS-Tools package.
data_Ba2Bi2O5
_symmetry_space_group_name_H-M  'P2_1/c'
_cell_length_a       6.15759
_cell_length_b       7.62735
_cell_length_c       7.4675
_cell_angle_alpha    90
_cell_angle_beta     100.976
_cell_angle_gamma    90

_symmetry_Int_Tables_number  14
_chemical_formula_structural  Ba2Bi2O5
_chemical_formula_sum  Ba4Bi4O0
_cell_volume  344.30327154239734
_cell_formula_units_Z  2
loop_
  _symmetry_equiv_pos_site_id
 _symmetry_equiv_pos_as_xyz
 1  'x, y, z'
loop_
 _atom_site_type_symbol
 _atom_site_label
 _atom_site_symmetry_multiplicity
 _atom_site_fract_x
 _atom_site_fract_y
 _atom_site_fract_z
 _atom_site_fract_occupancy
 Ba  Ba1  1  0.22244  0.92442  0.86623  1
 Ba  Ba2  1  0.27756  0.42442  0.13377  1
 Ba  Ba3  1  0.77756  0.07558  0.13377  1
 Ba  Ba4  1  0.72244  0.57558  0.86623  1
 Bi  Bi1  1  0.27865  0.87702  0.37259  1
 Bi  Bi2  1  0.22135  0.37702  0.62741  1
 Bi  Bi3  1  0.72135  0.12298  0.62741  1
 Bi  Bi4  1  0.77865  0.62298  0.37259  1
 O  O1  1  -0.00000  0.00000  0.50000  1
 O  O2  1  0.96367  0.26883  0.81192  1
 O  O3  1  0.46367  0.23117  0.81192  1
 O  O4  1  0.53633  0.76883  0.18808  1
 O  O5  1  0.74731  0.91080  0.81124  1
 O  O6  1  0.25269  0.08920  0.18876  1
 O  O7  1  0.75269  0.41080  0.18876  1
 O  O8  1  0.03633  0.73117  0.18808  1
 O  O9  1  0.24731  0.58920  0.81124  1
 O  O10  1  0.50000  0.50000  0.50000  1
