CIF file written using JARVIS-Tools package.
data_Li4CO4
_symmetry_space_group_name_H-M  'Cm'
_cell_length_a       4.77038
_cell_length_b       4.77037
_cell_length_c       4.49502
_cell_angle_alpha    72.4275
_cell_angle_beta     72.4275
_cell_angle_gamma    72.1545

_symmetry_Int_Tables_number  8
_chemical_formula_structural  Li4CO4
_chemical_formula_sum  Li4CO4
_cell_volume  90.32072878352146
_cell_formula_units_Z  1
loop_
  _symmetry_equiv_pos_site_id
 _symmetry_equiv_pos_as_xyz
 1  'x, y, z'
loop_
 _atom_site_type_symbol
 _atom_site_label
 _atom_site_symmetry_multiplicity
 _atom_site_fract_x
 _atom_site_fract_y
 _atom_site_fract_z
 _atom_site_fract_occupancy
 C  C1  1  0.04626  0.04626  0.43060  1
 Li  Li1  1  0.65097  0.65097  0.53717  1
 Li  Li2  1  0.13418  0.64553  0.05624  1
 Li  Li3  1  0.64553  0.13418  0.05624  1
 Li  Li4  1  0.21872  0.21872  0.73750  1
 O  O1  1  0.22407  0.22407  0.16337  1
 O  O2  1  0.83159  0.24305  0.62155  1
 O  O3  1  0.24305  0.83159  0.62155  1
 O  O4  1  0.90318  0.90318  0.31757  1
