CIF file written using JARVIS-Tools package.
data_ScGeRu
_symmetry_space_group_name_H-M  'P-62m'
_cell_length_a       6.97421
_cell_length_b       6.97421
_cell_length_c       3.48852
_cell_angle_alpha    90
_cell_angle_beta     90
_cell_angle_gamma    120

_symmetry_Int_Tables_number  189
_chemical_formula_structural  ScGeRu
_chemical_formula_sum  Sc3Ge3Ru3
_cell_volume  146.9475238416645
_cell_formula_units_Z  3
loop_
  _symmetry_equiv_pos_site_id
 _symmetry_equiv_pos_as_xyz
 1  'x, y, z'
loop_
 _atom_site_type_symbol
 _atom_site_label
 _atom_site_symmetry_multiplicity
 _atom_site_fract_x
 _atom_site_fract_y
 _atom_site_fract_z
 _atom_site_fract_occupancy
 Ge  Ge1  1  0.66667  0.33333  0.50000  1
 Ge  Ge2  1  0.00000  0.00000  0.00000  1
 Ge  Ge3  1  0.33333  0.66667  0.50000  1
 Ru  Ru1  1  0.00000  0.25330  0.50000  1
 Ru  Ru2  1  0.74670  0.74670  0.50000  1
 Ru  Ru3  1  0.25330  0.00000  0.50000  1
 Sc  Sc1  1  0.40151  0.40151  0.00000  1
 Sc  Sc2  1  0.59849  0.00000  0.00000  1
 Sc  Sc3  1  0.00000  0.59849  0.00000  1
