CIF file written using JARVIS-Tools package.
data_CeFeCo
_symmetry_space_group_name_H-M  'Imma'
_cell_length_a       5.07468
_cell_length_b       5.07468
_cell_length_c       5.07469
_cell_angle_alpha    123.595
_cell_angle_beta     118.675
_cell_angle_gamma    88.0996

_symmetry_Int_Tables_number  74
_chemical_formula_structural  CeFeCo
_chemical_formula_sum  Ce2Fe2Co2
_cell_volume  90.55086713558917
_cell_formula_units_Z  2
loop_
  _symmetry_equiv_pos_site_id
 _symmetry_equiv_pos_as_xyz
 1  'x, y, z'
loop_
 _atom_site_type_symbol
 _atom_site_label
 _atom_site_symmetry_multiplicity
 _atom_site_fract_x
 _atom_site_fract_y
 _atom_site_fract_z
 _atom_site_fract_occupancy
 Ce  Ce1  1  0.12724  0.87724  0.25000  1
 Ce  Ce2  1  0.87276  0.12276  0.75000  1
 Co  Co1  1  0.00000  0.50000  0.50000  1
 Co  Co2  1  0.50000  0.50000  0.00000  1
 Fe  Fe1  1  0.50000  0.00000  -0.00000  1
 Fe  Fe2  1  0.50000  0.50000  0.50000  1
