CIF file written using JARVIS-Tools package.
data_K2CuF4
_symmetry_space_group_name_H-M  'I4/mmm'
_cell_length_a       4.05951
_cell_length_b       4.05951
_cell_length_c       7.10005
_cell_angle_alpha    106.612
_cell_angle_beta     106.611
_cell_angle_gamma    89.9999

_symmetry_Int_Tables_number  139
_chemical_formula_structural  K2CuF4
_chemical_formula_sum  K2CuF4
_cell_volume  107.01748614449916
_cell_formula_units_Z  1
loop_
  _symmetry_equiv_pos_site_id
 _symmetry_equiv_pos_as_xyz
 1  'x, y, z'
loop_
 _atom_site_type_symbol
 _atom_site_label
 _atom_site_symmetry_multiplicity
 _atom_site_fract_x
 _atom_site_fract_y
 _atom_site_fract_z
 _atom_site_fract_occupancy
 Cu  Cu1  1  0.00000  0.00000  0.00000  1
 F  F1  1  0.15512  0.15512  0.31025  1
 F  F2  1  0.50000  -0.00000  0.00000  1
 F  F3  1  0.84488  0.84488  0.68975  1
 F  F4  1  -0.00000  0.50000  0.00000  1
 K  K1  1  0.35589  0.35589  0.71179  1
 K  K2  1  0.64411  0.64411  0.28821  1
