CIF file written using JARVIS-Tools package.
data_TeMoWSe2S
_symmetry_space_group_name_H-M  'P3m1'
_cell_length_a       3.3507
_cell_length_b       3.35063
_cell_length_c       37.9378
_cell_angle_alpha    89.9997
_cell_angle_beta     90
_cell_angle_gamma    120.001

_symmetry_Int_Tables_number  156
_chemical_formula_structural  TeMoWSe2S
_chemical_formula_sum  Te2Mo2W2Se4S2
_cell_volume  368.85991206412615
_cell_formula_units_Z  2
loop_
  _symmetry_equiv_pos_site_id
 _symmetry_equiv_pos_as_xyz
 1  'x, y, z'
loop_
 _atom_site_type_symbol
 _atom_site_label
 _atom_site_symmetry_multiplicity
 _atom_site_fract_x
 _atom_site_fract_y
 _atom_site_fract_z
 _atom_site_fract_occupancy
 Mo  Mo1  1  0.33333  0.66666  0.09397  1
 Mo  Mo2  1  0.33332  0.66663  0.46968  1
 S  S1  1  0.66664  0.33327  0.05408  1
 S  S2  1  0.66664  0.33327  0.13401  1
 Se  Se1  1  0.33336  0.66671  0.32588  1
 Se  Se2  1  0.33336  0.66672  0.70155  1
 Se  Se3  1  0.33335  0.66671  0.23755  1
 Se  Se4  1  0.33336  0.66673  0.61344  1
 Te  Te1  1  0.66664  0.33329  0.41960  1
 Te  Te2  1  0.66664  0.33329  0.51969  1
 W  W1  1  0.66668  0.33336  0.28173  1
 W  W2  1  0.66668  0.33337  0.65758  1
