CIF file written using JARVIS-Tools package.
data_ErAlO3
_symmetry_space_group_name_H-M  'Pnma'
_cell_length_a       5.15844
_cell_length_b       5.36327
_cell_length_c       7.3792
_cell_angle_alpha    90
_cell_angle_beta     90
_cell_angle_gamma    90

_symmetry_Int_Tables_number  62
_chemical_formula_structural  ErAlO3
_chemical_formula_sum  Er4Al4O2
_cell_volume  204.15356955877158
_cell_formula_units_Z  4
loop_
  _symmetry_equiv_pos_site_id
 _symmetry_equiv_pos_as_xyz
 1  'x, y, z'
loop_
 _atom_site_type_symbol
 _atom_site_label
 _atom_site_symmetry_multiplicity
 _atom_site_fract_x
 _atom_site_fract_y
 _atom_site_fract_z
 _atom_site_fract_occupancy
 Al  Al1  1  0.00000  0.50000  0.00000  1
 Al  Al2  1  0.00000  0.50000  0.50000  1
 Al  Al3  1  0.50000  0.00000  0.00000  1
 Al  Al4  1  0.50000  0.00000  0.50000  1
 Er  Er1  1  0.01465  0.94045  0.75000  1
 Er  Er2  1  0.48535  0.44045  0.75000  1
 Er  Er3  1  0.51465  0.55955  0.25000  1
 Er  Er4  1  0.98535  0.05955  0.25000  1
 O  O1  1  0.09279  0.47342  0.25000  1
 O  O2  1  0.79846  0.79720  0.45153  1
 O  O3  1  0.20154  0.20280  0.95153  1
 O  O4  1  0.29846  0.70280  0.95153  1
 O  O5  1  0.20154  0.20280  0.54847  1
 O  O6  1  0.70154  0.29720  0.45153  1
 O  O7  1  0.59279  0.02658  0.75000  1
 O  O8  1  0.70154  0.29720  0.04847  1
 O  O9  1  0.29846  0.70280  0.54847  1
 O  O10  1  0.79846  0.79720  0.04847  1
 O  O11  1  0.40721  0.97342  0.25000  1
 O  O12  1  0.90721  0.52658  0.75000  1
