CIF file written using JARVIS-Tools package.
data_V2ZnO6
_symmetry_space_group_name_H-M  'C2/m'
_cell_length_a       4.99176
_cell_length_b       4.99177
_cell_length_c       6.60996
_cell_angle_alpha    69.4005
_cell_angle_beta     69.4005
_cell_angle_gamma    41.2323

_symmetry_Int_Tables_number  12
_chemical_formula_structural  V2ZnO6
_chemical_formula_sum  V2ZnO6
_cell_volume  100.59745226677774
_cell_formula_units_Z  1
loop_
  _symmetry_equiv_pos_site_id
 _symmetry_equiv_pos_as_xyz
 1  'x, y, z'
loop_
 _atom_site_type_symbol
 _atom_site_label
 _atom_site_symmetry_multiplicity
 _atom_site_fract_x
 _atom_site_fract_y
 _atom_site_fract_z
 _atom_site_fract_occupancy
 O  O1  1  0.97118  0.97118  0.71864  1
 O  O2  1  0.02882  0.02882  0.28136  1
 O  O3  1  0.65764  0.65764  0.89067  1
 O  O4  1  0.34236  0.34236  0.10933  1
 O  O5  1  0.69054  0.69054  0.43692  1
 O  O6  1  0.30946  0.30946  0.56308  1
 V  V1  1  0.81153  0.81153  0.65217  1
 V  V2  1  0.18847  0.18847  0.34783  1
 Zn  Zn1  1  0.00000  0.00000  0.00000  1
