CIF file written using JARVIS-Tools package.
data_Ge3Te2Se
_symmetry_space_group_name_H-M  'P-3m1'
_cell_length_a       4.1855
_cell_length_b       4.1855
_cell_length_c       10.2291
_cell_angle_alpha    90
_cell_angle_beta     90
_cell_angle_gamma    120

_symmetry_Int_Tables_number  164
_chemical_formula_structural  Ge3Te2Se
_chemical_formula_sum  Ge3Te2Se
_cell_volume  155.18868814977094
_cell_formula_units_Z  1
loop_
  _symmetry_equiv_pos_site_id
 _symmetry_equiv_pos_as_xyz
 1  'x, y, z'
loop_
 _atom_site_type_symbol
 _atom_site_label
 _atom_site_symmetry_multiplicity
 _atom_site_fract_x
 _atom_site_fract_y
 _atom_site_fract_z
 _atom_site_fract_occupancy
 Ge  Ge1  1  0.00000  0.00000  0.50000  1
 Ge  Ge2  1  0.33333  0.66667  0.15253  1
 Ge  Ge3  1  0.66667  0.33333  0.84747  1
 Se  Se1  1  0.00000  0.00000  0.00000  1
 Te  Te1  1  0.33333  0.66667  0.67373  1
 Te  Te2  1  0.66667  0.33333  0.32627  1
