CIF file written using JARVIS-Tools package.
data_H5C8
_symmetry_space_group_name_H-M  'P2_1/c'
_cell_length_a       8.31426
_cell_length_b       3.80428
_cell_length_c       15.2662
_cell_angle_alpha    90
_cell_angle_beta     102.707
_cell_angle_gamma    90

_symmetry_Int_Tables_number  14
_chemical_formula_structural  H5C8
_chemical_formula_sum  H20C32
_cell_volume  471.0375233417295
_cell_formula_units_Z  4
loop_
  _symmetry_equiv_pos_site_id
 _symmetry_equiv_pos_as_xyz
 1  'x, y, z'
loop_
 _atom_site_type_symbol
 _atom_site_label
 _atom_site_symmetry_multiplicity
 _atom_site_fract_x
 _atom_site_fract_y
 _atom_site_fract_z
 _atom_site_fract_occupancy
 C  C1  1  0.77724  0.62522  0.99158  1
 C  C2  1  0.62733  0.89258  0.42769  1
 C  C3  1  0.62733  0.60742  0.92769  1
 C  C4  1  0.07677  0.99278  0.53167  1
 C  C5  1  0.92323  0.00722  0.46833  1
 C  C6  1  0.21085  0.26958  0.42043  1
 C  C7  1  0.22276  0.37478  0.00842  1
 C  C8  1  0.93650  0.78350  0.14028  1
 C  C9  1  0.76157  0.17102  0.32016  1
 C  C10  1  0.06350  0.28350  0.35972  1
 C  C11  1  0.93650  0.71650  0.64028  1
 C  C12  1  0.37267  0.10742  0.57231  1
 C  C13  1  0.08512  0.65484  0.11863  1
 C  C14  1  0.91488  0.15484  0.38137  1
 C  C15  1  0.08512  0.84516  0.61863  1
 C  C16  1  0.23843  0.67102  0.17984  1
 C  C17  1  0.76157  0.32898  0.82016  1
 C  C18  1  0.92323  0.49278  0.96833  1
 C  C19  1  0.23843  0.82898  0.67984  1
 C  C20  1  0.38020  0.54200  0.15645  1
 C  C21  1  0.61980  0.45800  0.84355  1
 C  C22  1  0.61980  0.04200  0.34355  1
 C  C23  1  0.38020  0.95800  0.65645  1
 C  C24  1  0.91488  0.34516  0.88137  1
 C  C25  1  0.37267  0.39258  0.07231  1
 C  C26  1  0.07677  0.50722  0.03167  1
 C  C27  1  0.77724  0.87478  0.49158  1
 C  C28  1  0.22276  0.12522  0.50842  1
 C  C29  1  0.21085  0.23042  0.92043  1
 C  C30  1  0.78915  0.76958  0.07957  1
 C  C31  1  0.78915  0.73042  0.57957  1
 C  C32  1  0.06350  0.21650  0.85972  1
 H  H1  1  0.48430  0.28908  0.05504  1
 H  H2  1  0.51570  0.71092  0.94496  1
 H  H3  1  0.48430  0.21092  0.55504  1
 H  H4  1  0.32291  0.13039  0.90265  1
 H  H5  1  0.67709  0.86961  0.09735  1
 H  H6  1  0.67709  0.63039  0.59735  1
 H  H7  1  0.32291  0.36961  0.40265  1
 H  H8  1  0.94360  0.89529  0.20691  1
 H  H9  1  0.05640  0.10471  0.79309  1
 H  H10  1  0.24510  0.79099  0.24576  1
 H  H11  1  0.94360  0.60471  0.70691  1
 H  H12  1  0.75490  0.20901  0.75424  1
 H  H13  1  0.75490  0.29099  0.25424  1
 H  H14  1  0.24510  0.70901  0.74576  1
 H  H15  1  0.49869  0.56063  0.20435  1
 H  H16  1  0.50131  0.43937  0.79565  1
 H  H17  1  0.50131  0.06063  0.29565  1
 H  H18  1  0.05640  0.39529  0.29309  1
 H  H19  1  0.51570  0.78908  0.44496  1
 H  H20  1  0.49869  0.93937  0.70435  1
