CIF file written using JARVIS-Tools package.
data_PrAl2Ni
_symmetry_space_group_name_H-M  'Cmcm'
_cell_length_a       5.89917
_cell_length_b       5.89918
_cell_length_c       6.92482
_cell_angle_alpha    90
_cell_angle_beta     90
_cell_angle_gamma    139.546

_symmetry_Int_Tables_number  63
_chemical_formula_structural  PrAl2Ni
_chemical_formula_sum  Pr2Al4Ni2
_cell_volume  156.36060568175466
_cell_formula_units_Z  2
loop_
  _symmetry_equiv_pos_site_id
 _symmetry_equiv_pos_as_xyz
 1  'x, y, z'
loop_
 _atom_site_type_symbol
 _atom_site_label
 _atom_site_symmetry_multiplicity
 _atom_site_fract_x
 _atom_site_fract_y
 _atom_site_fract_z
 _atom_site_fract_occupancy
 Al  Al1  1  0.82973  0.17027  0.05678  1
 Al  Al2  1  0.17027  0.82973  0.94322  1
 Al  Al3  1  0.17027  0.82973  0.55678  1
 Al  Al4  1  0.82973  0.17027  0.44322  1
 Ni  Ni1  1  0.28127  0.71873  0.25000  1
 Ni  Ni2  1  0.71873  0.28127  0.75000  1
 Pr  Pr1  1  0.55254  0.44746  0.25000  1
 Pr  Pr2  1  0.44746  0.55254  0.75000  1
