CIF file written using JARVIS-Tools package.
data_IrO2
_symmetry_space_group_name_H-M  'P4_2/mnm'
_cell_length_a       4.52992
_cell_length_b       4.52992
_cell_length_c       3.19844
_cell_angle_alpha    90
_cell_angle_beta     90
_cell_angle_gamma    90

_symmetry_Int_Tables_number  136
_chemical_formula_structural  IrO2
_chemical_formula_sum  Ir2O4
_cell_volume  65.63255890367508
_cell_formula_units_Z  2
loop_
  _symmetry_equiv_pos_site_id
 _symmetry_equiv_pos_as_xyz
 1  'x, y, z'
loop_
 _atom_site_type_symbol
 _atom_site_label
 _atom_site_symmetry_multiplicity
 _atom_site_fract_x
 _atom_site_fract_y
 _atom_site_fract_z
 _atom_site_fract_occupancy
 Ir  Ir1  1  0.50000  0.50000  0.50000  1
 Ir  Ir2  1  0.00000  0.00000  0.00000  1
 O  O1  1  0.69131  0.69131  0.00000  1
 O  O2  1  0.19131  0.80869  0.50000  1
 O  O3  1  0.30869  0.30869  0.00000  1
 O  O4  1  0.80869  0.19131  0.50000  1
