CIF file written using JARVIS-Tools package.
data_Y3SiS2
_symmetry_space_group_name_H-M  'Immm'
_cell_length_a       6.90973
_cell_length_b       6.90972
_cell_length_c       6.90973
_cell_angle_alpha    146.36
_cell_angle_beta     131.95
_cell_angle_gamma    59.9327

_symmetry_Int_Tables_number  71
_chemical_formula_structural  Y3SiS2
_chemical_formula_sum  Y3SiS2
_cell_volume  134.68064313722797
_cell_formula_units_Z  1
loop_
  _symmetry_equiv_pos_site_id
 _symmetry_equiv_pos_as_xyz
 1  'x, y, z'
loop_
 _atom_site_type_symbol
 _atom_site_label
 _atom_site_symmetry_multiplicity
 _atom_site_fract_x
 _atom_site_fract_y
 _atom_site_fract_z
 _atom_site_fract_occupancy
 S  S1  1  0.66702  0.66702  0.00000  1
 S  S2  1  0.33298  0.33298  0.00000  1
 Si  Si1  1  0.00000  0.00000  0.00000  1
 Y  Y1  1  0.83496  0.33496  0.50000  1
 Y  Y2  1  0.50000  -0.00000  0.50000  1
 Y  Y3  1  0.16504  0.66504  0.50000  1
