CIF file written using JARVIS-Tools package.
data_HCSN
_symmetry_space_group_name_H-M  'P1'
_cell_length_a       4.39375
_cell_length_b       4.28629
_cell_length_c       10.9387
_cell_angle_alpha    90.3668
_cell_angle_beta     95.411
_cell_angle_gamma    90.7652

_symmetry_Int_Tables_number  1
_chemical_formula_structural  HCSN
_chemical_formula_sum  H4C4S4N4
_cell_volume  205.0652350070522
_cell_formula_units_Z  4
loop_
  _symmetry_equiv_pos_site_id
 _symmetry_equiv_pos_as_xyz
 1  'x, y, z'
loop_
 _atom_site_type_symbol
 _atom_site_label
 _atom_site_symmetry_multiplicity
 _atom_site_fract_x
 _atom_site_fract_y
 _atom_site_fract_z
 _atom_site_fract_occupancy
 C  C1  1  0.96646  0.38166  0.80314  1
 C  C2  1  0.96647  0.38165  0.30314  1
 C  C3  1  0.14499  0.88260  0.21034  1
 C  C4  1  0.14498  0.88261  0.71034  1
 H  H1  1  0.22766  0.43450  0.66070  1
 H  H2  1  0.22767  0.43449  0.16070  1
 H  H3  1  0.88391  0.93293  0.85282  1
 H  H4  1  0.88392  0.93292  0.35282  1
 N  N1  1  0.10961  0.56228  0.72275  1
 N  N2  1  0.10962  0.56227  0.22275  1
 N  N3  1  0.00208  0.06191  0.79080  1
 N  N4  1  0.00208  0.06190  0.29080  1
 S  S1  1  0.35668  0.00477  0.10026  1
 S  S2  1  0.35667  0.00478  0.60026  1
 S  S3  1  0.75422  0.50174  0.91298  1
 S  S4  1  0.75422  0.50172  0.41298  1
