CIF file written using JARVIS-Tools package.
data_HCSNO2
_symmetry_space_group_name_H-M  'P1'
_cell_length_a       4.46121
_cell_length_b       5.64947
_cell_length_c       6.76487
_cell_angle_alpha    68.7279
_cell_angle_beta     79.3502
_cell_angle_gamma    77.2687

_symmetry_Int_Tables_number  1
_chemical_formula_structural  HCSNO2
_chemical_formula_sum  H2C2S2N2O4
_cell_volume  153.94095221302663
_cell_formula_units_Z  2
loop_
  _symmetry_equiv_pos_site_id
 _symmetry_equiv_pos_as_xyz
 1  'x, y, z'
loop_
 _atom_site_type_symbol
 _atom_site_label
 _atom_site_symmetry_multiplicity
 _atom_site_fract_x
 _atom_site_fract_y
 _atom_site_fract_z
 _atom_site_fract_occupancy
 C  C1  1  0.09211  0.72040  0.26635  1
 C  C2  1  0.09212  0.22040  0.76634  1
 H  H1  1  0.63583  0.57056  0.25954  1
 H  H2  1  0.63583  0.07057  0.75954  1
 N  N1  1  0.60147  0.77189  0.18489  1
 N  N2  1  0.60147  0.27189  0.68489  1
 O  O1  1  0.80491  0.36101  0.77975  1
 O  O2  1  0.80491  0.86100  0.27976  1
 O  O3  1  0.29453  0.86203  0.27660  1
 O  O4  1  0.29453  0.36204  0.77659  1
 S  S1  1  0.17980  0.43991  0.23418  1
 S  S2  1  0.17980  0.93992  0.73418  1
