CIF file written using JARVIS-Tools package.
data_VPt3
_symmetry_space_group_name_H-M  'R-3m'
_cell_length_a       9.24525
_cell_length_b       9.24525
_cell_length_c       9.24525
_cell_angle_alpha    17.2372
_cell_angle_beta     17.2373
_cell_angle_gamma    17.2373

_symmetry_Int_Tables_number  166
_chemical_formula_structural  VPt3
_chemical_formula_sum  VPt3
_cell_volume  60.547805583839065
_cell_formula_units_Z  1
loop_
  _symmetry_equiv_pos_site_id
 _symmetry_equiv_pos_as_xyz
 1  'x, y, z'
loop_
 _atom_site_type_symbol
 _atom_site_label
 _atom_site_symmetry_multiplicity
 _atom_site_fract_x
 _atom_site_fract_y
 _atom_site_fract_z
 _atom_site_fract_occupancy
 Pt  Pt1  1  0.25630  0.25630  0.25630  1
 Pt  Pt2  1  0.50000  0.50000  0.50000  1
 Pt  Pt3  1  0.74370  0.74370  0.74370  1
 V  V1  1  0.00000  0.00000  0.00000  1
