CIF file written using JARVIS-Tools package.
data_CrCN2
_symmetry_space_group_name_H-M  'P6_3/mmc'
_cell_length_a       3.11316
_cell_length_b       3.11307
_cell_length_c       9.54461
_cell_angle_alpha    90
_cell_angle_beta     90
_cell_angle_gamma    120.001

_symmetry_Int_Tables_number  194
_chemical_formula_structural  CrCN2
_chemical_formula_sum  Cr2C2N4
_cell_volume  80.10742554552249
_cell_formula_units_Z  2
loop_
  _symmetry_equiv_pos_site_id
 _symmetry_equiv_pos_as_xyz
 1  'x, y, z'
loop_
 _atom_site_type_symbol
 _atom_site_label
 _atom_site_symmetry_multiplicity
 _atom_site_fract_x
 _atom_site_fract_y
 _atom_site_fract_z
 _atom_site_fract_occupancy
 C  C1  1  0.66667  0.33332  0.25000  1
 C  C2  1  0.33333  0.66665  0.75000  1
 Cr  Cr1  1  0.00001  -0.00001  0.00000  1
 Cr  Cr2  1  0.00001  -0.00001  0.50000  1
 N  N1  1  0.66668  0.33332  0.11970  1
 N  N2  1  0.33334  0.66666  0.88030  1
 N  N3  1  0.33334  0.66666  0.61970  1
 N  N4  1  0.66668  0.33332  0.38030  1
