CIF file written using JARVIS-Tools package.
data_VSiGe
_symmetry_space_group_name_H-M  'P3_212'
_cell_length_a       4.7113
_cell_length_b       4.7113
_cell_length_c       6.5046
_cell_angle_alpha    90
_cell_angle_beta     90
_cell_angle_gamma    120

_symmetry_Int_Tables_number  153
_chemical_formula_structural  VSiGe
_chemical_formula_sum  V3Si3Ge3
_cell_volume  125.03563463618039
_cell_formula_units_Z  3
loop_
  _symmetry_equiv_pos_site_id
 _symmetry_equiv_pos_as_xyz
 1  'x, y, z'
loop_
 _atom_site_type_symbol
 _atom_site_label
 _atom_site_symmetry_multiplicity
 _atom_site_fract_x
 _atom_site_fract_y
 _atom_site_fract_z
 _atom_site_fract_occupancy
 Ge  Ge1  1  0.83171  0.16829  0.16667  1
 Ge  Ge2  1  0.83171  0.66341  0.83333  1
 Ge  Ge3  1  0.33659  0.16829  0.50000  1
 Si  Si1  1  0.50154  0.49846  0.16667  1
 Si  Si2  1  0.50154  0.00307  0.83333  1
 Si  Si3  1  0.99693  0.49846  0.50000  1
 V  V1  1  0.16925  0.83075  0.16667  1
 V  V2  1  0.16925  0.33849  0.83333  1
 V  V3  1  0.66151  0.83075  0.50000  1
