CIF file written using JARVIS-Tools package.
data_NaNbS2
_symmetry_space_group_name_H-M  'P6_3/mmc'
_cell_length_a       3.43299
_cell_length_b       3.43299
_cell_length_c       14.1875
_cell_angle_alpha    90
_cell_angle_beta     90
_cell_angle_gamma    120

_symmetry_Int_Tables_number  194
_chemical_formula_structural  NaNbS2
_chemical_formula_sum  Na2Nb2S4
_cell_volume  144.80379540161246
_cell_formula_units_Z  2
loop_
  _symmetry_equiv_pos_site_id
 _symmetry_equiv_pos_as_xyz
 1  'x, y, z'
loop_
 _atom_site_type_symbol
 _atom_site_label
 _atom_site_symmetry_multiplicity
 _atom_site_fract_x
 _atom_site_fract_y
 _atom_site_fract_z
 _atom_site_fract_occupancy
 Na  Na1  1  0.00000  0.00000  0.00000  1
 Na  Na2  1  0.00000  0.00000  0.50000  1
 Nb  Nb1  1  0.00000  0.00000  0.25000  1
 Nb  Nb2  1  0.00000  0.00000  0.75000  1
 S  S1  1  0.33333  0.66667  0.13934  1
 S  S2  1  0.33333  0.66667  0.36066  1
 S  S3  1  0.66667  0.33333  0.63934  1
 S  S4  1  0.66667  0.33333  0.86066  1
