CIF file written using JARVIS-Tools package.
data_CdH4C4O4
_symmetry_space_group_name_H-M  'P1'
_cell_length_a       4.9613
_cell_length_b       5.05023
_cell_length_c       6.96304
_cell_angle_alpha    89.8184
_cell_angle_beta     67.8515
_cell_angle_gamma    60.5132

_symmetry_Int_Tables_number  1
_chemical_formula_structural  CdH4C4O4
_chemical_formula_sum  CdH4C4O4
_cell_volume  137.01233842504885
_cell_formula_units_Z  1
loop_
  _symmetry_equiv_pos_site_id
 _symmetry_equiv_pos_as_xyz
 1  'x, y, z'
loop_
 _atom_site_type_symbol
 _atom_site_label
 _atom_site_symmetry_multiplicity
 _atom_site_fract_x
 _atom_site_fract_y
 _atom_site_fract_z
 _atom_site_fract_occupancy
 C  C1  1  0.21912  0.40068  0.54050  1
 C  C2  1  0.16596  0.18916  0.68562  1
 C  C3  1  0.80938  0.36256  0.87192  1
 C  C4  1  0.76549  0.61506  0.01990  1
 Cd  Cd1  1  0.98416  0.86840  0.27920  1
 H  H1  1  0.20123  -0.00754  0.58796  1
 H  H2  1  0.36955  0.08508  0.74032  1
 H  H3  1  0.76602  0.19982  0.96702  1
 H  H4  1  0.60655  0.46552  0.81682  1
 O  O1  1  0.51781  0.33354  0.40979  1
 O  O2  1  0.94921  0.64894  0.55394  1
 O  O3  1  0.04080  0.57866  0.01650  1
 O  O4  1  0.47198  0.85077  0.14201  1
