CIF file written using JARVIS-Tools package.
data_HgBr3
_symmetry_space_group_name_H-M  'P6_3/mmc'
_cell_length_a       8.61684
_cell_length_b       8.61685
_cell_length_c       3.87173
_cell_angle_alpha    90
_cell_angle_beta     90
_cell_angle_gamma    120

_symmetry_Int_Tables_number  194
_chemical_formula_structural  HgBr3
_chemical_formula_sum  Hg2Br6
_cell_volume  248.9615605222752
_cell_formula_units_Z  2
loop_
  _symmetry_equiv_pos_site_id
 _symmetry_equiv_pos_as_xyz
 1  'x, y, z'
loop_
 _atom_site_type_symbol
 _atom_site_label
 _atom_site_symmetry_multiplicity
 _atom_site_fract_x
 _atom_site_fract_y
 _atom_site_fract_z
 _atom_site_fract_occupancy
 Br  Br1  1  0.19205  0.38410  0.25000  1
 Br  Br2  1  0.61590  0.80795  0.25000  1
 Br  Br3  1  0.19205  0.80795  0.25000  1
 Br  Br4  1  0.80795  0.61590  0.75000  1
 Br  Br5  1  0.38410  0.19205  0.75000  1
 Br  Br6  1  0.80795  0.19205  0.75000  1
 Hg  Hg1  1  0.33333  0.66667  0.75000  1
 Hg  Hg2  1  0.66667  0.33333  0.25000  1
