CIF file written using JARVIS-Tools package.
data_MnCuF6
_symmetry_space_group_name_H-M  'R-3'
_cell_length_a       4.86918
_cell_length_b       4.87233
_cell_length_c       5.27045
_cell_angle_alpha    62.4353
_cell_angle_beta     62.4753
_cell_angle_gamma    60.0115

_symmetry_Int_Tables_number  148
_chemical_formula_structural  MnCuF6
_chemical_formula_sum  MnCuF6
_cell_volume  91.5636564272411
_cell_formula_units_Z  1
loop_
  _symmetry_equiv_pos_site_id
 _symmetry_equiv_pos_as_xyz
 1  'x, y, z'
loop_
 _atom_site_type_symbol
 _atom_site_label
 _atom_site_symmetry_multiplicity
 _atom_site_fract_x
 _atom_site_fract_y
 _atom_site_fract_z
 _atom_site_fract_occupancy
 Cu  Cu1  1  0.00000  0.00000  0.00000  1
 F  F1  1  0.73574  0.40469  0.73866  1
 F  F2  1  0.26426  0.59531  0.26134  1
 F  F3  1  0.59517  0.87917  0.26134  1
 F  F4  1  0.40483  0.12083  0.73866  1
 F  F5  1  0.12109  0.73539  0.73855  1
 F  F6  1  0.87891  0.26461  0.26145  1
 Mn  Mn1  1  0.50000  0.50000  0.50000  1
