CIF file written using JARVIS-Tools package.
data_Ba2SrN2
_symmetry_space_group_name_H-M  'P-3m1'
_cell_length_a       3.90249
_cell_length_b       3.90285
_cell_length_c       10.1714
_cell_angle_alpha    90.0051
_cell_angle_beta     90.0008
_cell_angle_gamma    119.998

_symmetry_Int_Tables_number  164
_chemical_formula_structural  Ba2SrN2
_chemical_formula_sum  Ba2SrN2
_cell_volume  134.16697979070346
_cell_formula_units_Z  1
loop_
  _symmetry_equiv_pos_site_id
 _symmetry_equiv_pos_as_xyz
 1  'x, y, z'
loop_
 _atom_site_type_symbol
 _atom_site_label
 _atom_site_symmetry_multiplicity
 _atom_site_fract_x
 _atom_site_fract_y
 _atom_site_fract_z
 _atom_site_fract_occupancy
 Ba  Ba1  1  0.66665  0.33330  0.20546  1
 Ba  Ba2  1  0.33335  0.66670  0.79454  1
 N  N1  1  0.66661  0.33324  0.66404  1
 N  N2  1  0.33339  0.66676  0.33596  1
 Sr  Sr1  1  -0.00000  -0.00000  0.50000  1
