CIF file written using JARVIS-Tools package.
data_V3MoO6
_symmetry_space_group_name_H-M  'R3'
_cell_length_a       5.67959
_cell_length_b       5.6796
_cell_length_c       5.67959
_cell_angle_alpha    50.4179
_cell_angle_beta     50.4178
_cell_angle_gamma    50.4179

_symmetry_Int_Tables_number  146
_chemical_formula_structural  V3MoO6
_chemical_formula_sum  V3MoO6
_cell_volume  100.24643272066554
_cell_formula_units_Z  1
loop_
  _symmetry_equiv_pos_site_id
 _symmetry_equiv_pos_as_xyz
 1  'x, y, z'
loop_
 _atom_site_type_symbol
 _atom_site_label
 _atom_site_symmetry_multiplicity
 _atom_site_fract_x
 _atom_site_fract_y
 _atom_site_fract_z
 _atom_site_fract_occupancy
 Mo  Mo1  1  0.83923  0.83923  0.83923  1
 O  O1  1  0.74403  0.41593  0.08240  1
 O  O2  1  0.41593  0.08240  0.74403  1
 O  O3  1  0.08240  0.74403  0.41593  1
 O  O4  1  0.57007  0.92620  0.26137  1
 O  O5  1  0.92620  0.26137  0.57007  1
 O  O6  1  0.26137  0.57007  0.92620  1
 V  V1  1  0.33986  0.33986  0.33986  1
 V  V2  1  0.15937  0.15937  0.15937  1
 V  V3  1  0.66154  0.66154  0.66154  1
