CIF file written using JARVIS-Tools package.
data_Rb2AgAuBr6
_symmetry_space_group_name_H-M  'Fm-3m'
_cell_length_a       7.61666
_cell_length_b       7.61666
_cell_length_c       7.61666
_cell_angle_alpha    60
_cell_angle_beta     60
_cell_angle_gamma    60

_symmetry_Int_Tables_number  225
_chemical_formula_structural  Rb2AgAuBr6
_chemical_formula_sum  Rb2AgAuBr6
_cell_volume  312.44870714809775
_cell_formula_units_Z  1
loop_
  _symmetry_equiv_pos_site_id
 _symmetry_equiv_pos_as_xyz
 1  'x, y, z'
loop_
 _atom_site_type_symbol
 _atom_site_label
 _atom_site_symmetry_multiplicity
 _atom_site_fract_x
 _atom_site_fract_y
 _atom_site_fract_z
 _atom_site_fract_occupancy
 Ag  Ag1  1  0.50000  0.50000  0.50000  1
 Au  Au1  1  0.00000  0.00000  0.00000  1
 Br  Br1  1  0.75152  0.24848  0.24848  1
 Br  Br2  1  0.24848  0.24848  0.75152  1
 Br  Br3  1  0.24848  0.75152  0.75152  1
 Br  Br4  1  0.24848  0.75152  0.24848  1
 Br  Br5  1  0.75152  0.24848  0.75152  1
 Br  Br6  1  0.75152  0.75152  0.24848  1
 Rb  Rb1  1  0.75000  0.75000  0.75000  1
 Rb  Rb2  1  0.25000  0.25000  0.25000  1
