CIF file written using JARVIS-Tools package.
data_In2GaS4
_symmetry_space_group_name_H-M  'P3m1'
_cell_length_a       3.95427
_cell_length_b       3.95426
_cell_length_c       12.7325
_cell_angle_alpha    90
_cell_angle_beta     90
_cell_angle_gamma    120

_symmetry_Int_Tables_number  156
_chemical_formula_structural  In2GaS4
_chemical_formula_sum  In2GaS4
_cell_volume  172.41503903858987
_cell_formula_units_Z  1
loop_
  _symmetry_equiv_pos_site_id
 _symmetry_equiv_pos_as_xyz
 1  'x, y, z'
loop_
 _atom_site_type_symbol
 _atom_site_label
 _atom_site_symmetry_multiplicity
 _atom_site_fract_x
 _atom_site_fract_y
 _atom_site_fract_z
 _atom_site_fract_occupancy
 Ga  Ga1  1  0.33333  0.66667  0.30618  1
 In  In1  1  0.66667  0.33333  0.00790  1
 In  In2  1  0.00000  0.00000  0.69424  1
 S  S1  1  0.00000  0.00000  0.88958  1
 S  S2  1  0.33333  0.66667  0.12446  1
 S  S3  1  0.00000  0.00000  0.36955  1
 S  S4  1  0.33333  0.66667  0.60810  1
