CIF file written using JARVIS-Tools package.
data_Ho4Si3Ge
_symmetry_space_group_name_H-M  'Pmm2'
_cell_length_a       3.85604
_cell_length_b       4.25525
_cell_length_c       10.5282
_cell_angle_alpha    90
_cell_angle_beta     90
_cell_angle_gamma    90

_symmetry_Int_Tables_number  25
_chemical_formula_structural  Ho4Si3Ge
_chemical_formula_sum  Ho4Si3Ge
_cell_volume  172.75057158864627
_cell_formula_units_Z  1
loop_
  _symmetry_equiv_pos_site_id
 _symmetry_equiv_pos_as_xyz
 1  'x, y, z'
loop_
 _atom_site_type_symbol
 _atom_site_label
 _atom_site_symmetry_multiplicity
 _atom_site_fract_x
 _atom_site_fract_y
 _atom_site_fract_z
 _atom_site_fract_occupancy
 Ge  Ge1  1  0.00000  0.00000  0.41733  1
 Ho  Ho1  1  0.00000  0.00000  0.13809  1
 Ho  Ho2  1  0.00000  0.50000  0.64127  1
 Ho  Ho3  1  0.50000  0.50000  0.35943  1
 Ho  Ho4  1  0.50000  0.00000  0.86026  1
 Si  Si1  1  0.00000  0.50000  0.92198  1
 Si  Si2  1  0.50000  0.50000  0.07884  1
 Si  Si3  1  0.50000  0.00000  0.58281  1
