CIF file written using JARVIS-Tools package.
data_V6O11F
_symmetry_space_group_name_H-M  'P1'
_cell_length_a       4.58822
_cell_length_b       5.42416
_cell_length_c       7.3722
_cell_angle_alpha    83.6745
_cell_angle_beta     89.3051
_cell_angle_gamma    89.081

_symmetry_Int_Tables_number  1
_chemical_formula_structural  V6O11F
_chemical_formula_sum  V6OF
_cell_volume  182.323352614641
_cell_formula_units_Z  1
loop_
  _symmetry_equiv_pos_site_id
 _symmetry_equiv_pos_as_xyz
 1  'x, y, z'
loop_
 _atom_site_type_symbol
 _atom_site_label
 _atom_site_symmetry_multiplicity
 _atom_site_fract_x
 _atom_site_fract_y
 _atom_site_fract_z
 _atom_site_fract_occupancy
 F  F1  1  0.19984  0.63182  0.56571  1
 O  O1  1  0.80979  0.37227  0.43512  1
 O  O2  1  0.79460  0.70024  0.09864  1
 O  O3  1  0.20006  0.30215  0.89907  1
 O  O4  1  0.70187  0.20197  0.10058  1
 O  O5  1  0.79922  0.03087  0.76720  1
 O  O6  1  0.70080  0.86476  0.43620  1
 O  O7  1  0.30283  0.13032  0.56833  1
 O  O8  1  0.29728  0.46764  0.23577  1
 O  O9  1  0.29765  0.80222  0.89806  1
 O  O10  1  0.20164  0.96608  0.23599  1
 O  O11  1  0.70130  0.53068  0.76407  1
 V  V1  1  0.01211  0.00853  0.00767  1
 V  V2  1  0.97936  0.67120  0.31286  1
 V  V3  1  0.98888  0.31025  0.67040  1
 V  V4  1  0.50132  0.17394  0.33430  1
 V  V5  1  0.49030  0.49696  0.99565  1
 V  V6  1  0.52116  0.83810  0.67438  1
