CIF file written using JARVIS-Tools package.
data_In2Bi
_symmetry_space_group_name_H-M  'Fmmm'
_cell_length_a       7.48364
_cell_length_b       7.47292
_cell_length_c       3.56228
_cell_angle_alpha    76.3886
_cell_angle_beta     76.0536
_cell_angle_gamma    27.5576

_symmetry_Int_Tables_number  69
_chemical_formula_structural  In2Bi
_chemical_formula_sum  In2Bi
_cell_volume  89.3459276962286
_cell_formula_units_Z  1
loop_
  _symmetry_equiv_pos_site_id
 _symmetry_equiv_pos_as_xyz
 1  'x, y, z'
loop_
 _atom_site_type_symbol
 _atom_site_label
 _atom_site_symmetry_multiplicity
 _atom_site_fract_x
 _atom_site_fract_y
 _atom_site_fract_z
 _atom_site_fract_occupancy
 Bi  Bi1  1  0.00000  0.00000  0.00000  1
 In  In1  1  0.33207  0.33207  0.66793  1
 In  In2  1  0.66793  0.66793  0.33207  1
