CIF file written using JARVIS-Tools package.
data_V6O7F5
_symmetry_space_group_name_H-M  'P1'
_cell_length_a       4.60481
_cell_length_b       5.50611
_cell_length_c       7.66975
_cell_angle_alpha    85.317
_cell_angle_beta     89.5561
_cell_angle_gamma    89.1068

_symmetry_Int_Tables_number  1
_chemical_formula_structural  V6O7F5
_chemical_formula_sum  V6O7F5
_cell_volume  193.78657476664472
_cell_formula_units_Z  1
loop_
  _symmetry_equiv_pos_site_id
 _symmetry_equiv_pos_as_xyz
 1  'x, y, z'
loop_
 _atom_site_type_symbol
 _atom_site_label
 _atom_site_symmetry_multiplicity
 _atom_site_fract_x
 _atom_site_fract_y
 _atom_site_fract_z
 _atom_site_fract_occupancy
 F  F1  1  0.19819  0.62900  0.56484  1
 F  F2  1  0.70479  0.20192  0.11282  1
 F  F3  1  0.79997  0.36409  0.44338  1
 F  F4  1  0.20568  0.96327  0.22237  1
 F  F5  1  0.29760  0.80237  0.88589  1
 O  O1  1  0.70796  0.86551  0.42601  1
 O  O2  1  0.80525  0.70851  0.09310  1
 O  O3  1  0.79148  0.03573  0.76550  1
 O  O4  1  0.69757  0.54233  0.76528  1
 O  O5  1  0.28927  0.13185  0.57218  1
 O  O6  1  0.20271  0.29967  0.90904  1
 O  O7  1  0.30637  0.45788  0.23865  1
 V  V1  1  0.98252  0.00239  0.98251  1
 V  V2  1  0.99119  0.65841  0.31526  1
 V  V3  1  0.00333  0.32548  0.69600  1
 V  V4  1  0.47665  0.16622  0.35667  1
 V  V5  1  0.50194  0.50397  0.00157  1
 V  V6  1  0.53751  0.84140  0.64894  1
