CIF file written using JARVIS-Tools package.
data_Nb6GaGe
_symmetry_space_group_name_H-M  'Pm-3'
_cell_length_a       5.18676
_cell_length_b       5.18676
_cell_length_c       5.18676
_cell_angle_alpha    90
_cell_angle_beta     90
_cell_angle_gamma    90

_symmetry_Int_Tables_number  200
_chemical_formula_structural  Nb6GaGe
_chemical_formula_sum  Nb6GaGe
_cell_volume  139.53687486205175
_cell_formula_units_Z  1
loop_
  _symmetry_equiv_pos_site_id
 _symmetry_equiv_pos_as_xyz
 1  'x, y, z'
loop_
 _atom_site_type_symbol
 _atom_site_label
 _atom_site_symmetry_multiplicity
 _atom_site_fract_x
 _atom_site_fract_y
 _atom_site_fract_z
 _atom_site_fract_occupancy
 Ga  Ga1  1  0.50000  0.50000  0.50000  1
 Ge  Ge1  1  0.00000  0.00000  0.00000  1
 Nb  Nb1  1  0.00000  0.50000  0.75131  1
 Nb  Nb2  1  0.50000  0.24869  0.00000  1
 Nb  Nb3  1  0.75131  0.00000  0.50000  1
 Nb  Nb4  1  0.00000  0.50000  0.24869  1
 Nb  Nb5  1  0.50000  0.75131  0.00000  1
 Nb  Nb6  1  0.24869  0.00000  0.50000  1
