CIF file written using JARVIS-Tools package.
data_Te2W3Se4
_symmetry_space_group_name_H-M  'P1'
_cell_length_a       3.40729
_cell_length_b       3.40716
_cell_length_c       20.5035
_cell_angle_alpha    94.7979
_cell_angle_beta     90.0106
_cell_angle_gamma    120.003

_symmetry_Int_Tables_number  1
_chemical_formula_structural  Te2W3Se4
_chemical_formula_sum  Te2W3Se4
_cell_volume  205.1680034568242
_cell_formula_units_Z  1
loop_
  _symmetry_equiv_pos_site_id
 _symmetry_equiv_pos_as_xyz
 1  'x, y, z'
loop_
 _atom_site_type_symbol
 _atom_site_label
 _atom_site_symmetry_multiplicity
 _atom_site_fract_x
 _atom_site_fract_y
 _atom_site_fract_z
 _atom_site_fract_occupancy
 Se  Se1  1  0.35624  0.71450  0.42175  1
 Se  Se2  1  0.53123  0.05988  0.93900  1
 Se  Se3  1  0.58579  0.16860  0.10106  1
 Se  Se4  1  0.30149  0.60542  0.25966  1
 Te  Te1  1  0.74815  0.49706  0.58797  1
 Te  Te2  1  0.81043  0.62115  0.77249  1
 W  W1  1  0.22515  0.44751  0.02001  1
 W  W2  1  0.44592  0.89248  0.68023  1
 W  W3  1  0.66218  0.32661  0.34068  1
