CIF file written using JARVIS-Tools package.
data_U3Si2C2
_symmetry_space_group_name_H-M  'I4/mmm'
_cell_length_a       3.6581
_cell_length_b       3.6581
_cell_length_c       8.89511
_cell_angle_alpha    101.866
_cell_angle_beta     101.866
_cell_angle_gamma    90

_symmetry_Int_Tables_number  139
_chemical_formula_structural  U3Si2C2
_chemical_formula_sum  U3Si2C2
_cell_volume  113.88794277803288
_cell_formula_units_Z  1
loop_
  _symmetry_equiv_pos_site_id
 _symmetry_equiv_pos_as_xyz
 1  'x, y, z'
loop_
 _atom_site_type_symbol
 _atom_site_label
 _atom_site_symmetry_multiplicity
 _atom_site_fract_x
 _atom_site_fract_y
 _atom_site_fract_z
 _atom_site_fract_occupancy
 C  C1  1  0.69538  0.69538  0.39076  1
 C  C2  1  0.30462  0.30462  0.60924  1
 Si  Si1  1  0.58414  0.58414  0.16828  1
 Si  Si2  1  0.41586  0.41586  0.83172  1
 U  U1  1  0.82639  0.82639  0.65278  1
 U  U2  1  0.17361  0.17361  0.34722  1
 U  U3  1  0.00000  0.00000  0.00000  1
