CIF file written using JARVIS-Tools package.
data_ZnH6C5O4
_symmetry_space_group_name_H-M  'P1'
_cell_length_a       4.98717
_cell_length_b       4.84864
_cell_length_c       7.41248
_cell_angle_alpha    78.2013
_cell_angle_beta     90.0398
_cell_angle_gamma    62.3178

_symmetry_Int_Tables_number  1
_chemical_formula_structural  ZnH6C5O4
_chemical_formula_sum  ZnH6C5O4
_cell_volume  154.4217205604324
_cell_formula_units_Z  1
loop_
  _symmetry_equiv_pos_site_id
 _symmetry_equiv_pos_as_xyz
 1  'x, y, z'
loop_
 _atom_site_type_symbol
 _atom_site_label
 _atom_site_symmetry_multiplicity
 _atom_site_fract_x
 _atom_site_fract_y
 _atom_site_fract_z
 _atom_site_fract_occupancy
 C  C1  1  0.95618  0.80226  0.47872  1
 C  C2  1  0.11860  0.82237  0.64415  1
 C  C3  1  0.12809  0.59689  0.82585  1
 C  C4  1  0.40347  0.26523  0.86533  1
 C  C5  1  0.40427  0.03618  0.03908  1
 H  H1  1  0.35170  0.76842  0.60955  1
 H  H2  1  0.00694  0.07217  0.65645  1
 H  H3  1  0.91816  0.57562  0.82413  1
 H  H4  1  0.42995  0.15176  0.74742  1
 H  H5  1  0.12383  0.70821  0.94184  1
 H  H6  1  0.61474  0.28286  0.88604  1
 O  O1  1  -0.00612  0.52431  0.47329  1
 O  O2  1  0.78738  0.04985  0.35377  1
 O  O3  1  0.23417  0.12888  0.16305  1
 O  O4  1  0.59553  0.73993  0.05175  1
 Zn  Zn1  1  0.85913  0.42027  0.26207  1
