CIF file written using JARVIS-Tools package.
data_NbVC2
_symmetry_space_group_name_H-M  'R-3m'
_cell_length_a       5.30621
_cell_length_b       5.3062
_cell_length_c       5.3062
_cell_angle_alpha    33.8581
_cell_angle_beta     33.8581
_cell_angle_gamma    33.8582

_symmetry_Int_Tables_number  166
_chemical_formula_structural  NbVC2
_chemical_formula_sum  NbVC2
_cell_volume  41.32728013012946
_cell_formula_units_Z  1
loop_
  _symmetry_equiv_pos_site_id
 _symmetry_equiv_pos_as_xyz
 1  'x, y, z'
loop_
 _atom_site_type_symbol
 _atom_site_label
 _atom_site_symmetry_multiplicity
 _atom_site_fract_x
 _atom_site_fract_y
 _atom_site_fract_z
 _atom_site_fract_occupancy
 C  C1  1  0.75561  0.75561  0.75561  1
 C  C2  1  0.24439  0.24439  0.24439  1
 Nb  Nb1  1  0.00000  0.00000  0.00000  1
 V  V1  1  0.50000  0.50000  0.50000  1
