CIF file written using JARVIS-Tools package.
data_Nd2CuO4
_symmetry_space_group_name_H-M  'I4/mmm'
_cell_length_a       3.97231
_cell_length_b       3.9723
_cell_length_c       6.75207
_cell_angle_alpha    107.107
_cell_angle_beta     107.107
_cell_angle_gamma    90

_symmetry_Int_Tables_number  139
_chemical_formula_structural  Nd2CuO4
_chemical_formula_sum  Nd2CuO4
_cell_volume  96.88591899577607
_cell_formula_units_Z  1
loop_
  _symmetry_equiv_pos_site_id
 _symmetry_equiv_pos_as_xyz
 1  'x, y, z'
loop_
 _atom_site_type_symbol
 _atom_site_label
 _atom_site_symmetry_multiplicity
 _atom_site_fract_x
 _atom_site_fract_y
 _atom_site_fract_z
 _atom_site_fract_occupancy
 Cu  Cu1  1  0.00000  0.00000  0.00000  1
 Nd  Nd1  1  0.64913  0.64913  0.29826  1
 Nd  Nd2  1  0.35087  0.35087  0.70174  1
 O  O1  1  0.25000  0.75000  0.50000  1
 O  O2  1  0.75000  0.25000  0.50000  1
 O  O3  1  -0.00000  0.50000  -0.00000  1
 O  O4  1  0.50000  -0.00000  0.00000  1
