CIF file written using JARVIS-Tools package.
data_SnH18C10O4
_symmetry_space_group_name_H-M  'P-1'
_cell_length_a       4.90228
_cell_length_b       7.62767
_cell_length_c       8.45531
_cell_angle_alpha    99.163
_cell_angle_beta     97.7822
_cell_angle_gamma    106.103

_symmetry_Int_Tables_number  2
_chemical_formula_structural  SnH18C10O4
_chemical_formula_sum  SnH8C0O4
_cell_volume  294.4646211605374
_cell_formula_units_Z  1
loop_
  _symmetry_equiv_pos_site_id
 _symmetry_equiv_pos_as_xyz
 1  'x, y, z'
loop_
 _atom_site_type_symbol
 _atom_site_label
 _atom_site_symmetry_multiplicity
 _atom_site_fract_x
 _atom_site_fract_y
 _atom_site_fract_z
 _atom_site_fract_occupancy
 C  C1  1  0.44208  0.28376  0.79655  1
 C  C2  1  0.06212  -0.00702  0.36398  1
 C  C3  1  0.37566  0.67123  0.55920  1
 C  C4  1  0.30154  0.72988  0.07937  1
 C  C5  1  0.28474  0.40166  0.71306  1
 C  C6  1  0.49929  0.57406  0.68012  1
 C  C7  1  0.17787  0.82700  0.95844  1
 C  C8  1  0.39238  -0.00060  0.92546  1
 C  C9  1  0.23502  0.11727  0.84195  1
 C  C10  1  0.61505  0.40812  0.27456  1
 H  H1  1  0.14542  0.31705  0.59756  1
 H  H2  1  0.08126  0.02895  0.73157  1
 H  H3  1  0.53171  0.08404  0.04096  1
 H  H4  1  0.10249  0.16785  0.92360  1
 H  H5  1  0.99281  0.86106  0.00056  1
 H  H6  1  0.59266  0.67815  0.79487  1
 H  H7  1  0.68435  0.54001  0.63800  1
 H  H8  1  0.90831  0.06556  0.39851  1
 H  H9  1  0.13866  0.44261  0.78939  1
 H  H10  1  0.13287  0.03031  0.25321  1
 H  H11  1  0.57458  0.23318  0.71488  1
 H  H12  1  0.54415  0.37079  0.38529  1
 H  H13  1  0.42876  0.37669  0.17583  1
 H  H14  1  0.76888  0.33553  0.24010  1
 H  H15  1  0.24851  0.02442  0.46265  1
 H  H16  1  0.59585  0.37207  0.90693  1
 H  H17  1  0.08448  0.72289  0.84371  1
 H  H18  1  0.53846  0.95844  0.84914  1
 O  O1  1  0.13459  0.62741  0.15530  1
 O  O2  1  0.54265  0.77371  0.48330  1
 O  O3  1  0.57246  0.75083  0.09884  1
 O  O4  1  0.10473  0.65027  0.53972  1
 Sn  Sn1  1  0.83861  0.70055  0.31928  1
