CIF file written using JARVIS-Tools package.
data_H2C4SO2
_symmetry_space_group_name_H-M  'P1'
_cell_length_a       4.64231
_cell_length_b       6.71532
_cell_length_c       7.02405
_cell_angle_alpha    94.3112
_cell_angle_beta     92.3345
_cell_angle_gamma    96.3435

_symmetry_Int_Tables_number  1
_chemical_formula_structural  H2C4SO2
_chemical_formula_sum  H4C8S2O4
_cell_volume  216.74974843135516
_cell_formula_units_Z  2
loop_
  _symmetry_equiv_pos_site_id
 _symmetry_equiv_pos_as_xyz
 1  'x, y, z'
loop_
 _atom_site_type_symbol
 _atom_site_label
 _atom_site_symmetry_multiplicity
 _atom_site_fract_x
 _atom_site_fract_y
 _atom_site_fract_z
 _atom_site_fract_occupancy
 C  C1  1  0.32838  0.85964  0.21106  1
 C  C2  1  0.10062  0.19361  0.74781  1
 C  C3  1  0.10064  0.69360  0.24781  1
 C  C4  1  0.61603  0.81014  0.13849  1
 C  C5  1  0.81421  0.76280  0.30247  1
 C  C6  1  0.81419  0.26281  0.80247  1
 C  C7  1  0.32836  0.35966  0.71107  1
 C  C8  1  0.61602  0.31016  0.63850  1
 H  H1  1  0.59092  0.68260  0.02884  1
 H  H2  1  0.72345  0.44271  0.57554  1
 H  H3  1  0.59090  0.18262  0.52883  1
 H  H4  1  0.72347  0.94269  0.07553  1
 O  O1  1  0.28348  0.03304  0.26099  1
 O  O2  1  0.74898  0.27643  0.97005  1
 O  O3  1  0.74900  0.77642  0.47005  1
 O  O4  1  0.28347  0.53305  0.76100  1
 S  S1  1  0.15620  0.46078  0.25932  1
 S  S2  1  0.15619  0.96079  0.75932  1
