CIF file written using JARVIS-Tools package.
data_H10C12S
_symmetry_space_group_name_H-M  'P1'
_cell_length_a       6.22709
_cell_length_b       8.43427
_cell_length_c       9.01719
_cell_angle_alpha    71.2441
_cell_angle_beta     86.4015
_cell_angle_gamma    75.0435

_symmetry_Int_Tables_number  1
_chemical_formula_structural  H10C12S
_chemical_formula_sum  H20C24S2
_cell_volume  433.14422770899426
_cell_formula_units_Z  2
loop_
  _symmetry_equiv_pos_site_id
 _symmetry_equiv_pos_as_xyz
 1  'x, y, z'
loop_
 _atom_site_type_symbol
 _atom_site_label
 _atom_site_symmetry_multiplicity
 _atom_site_fract_x
 _atom_site_fract_y
 _atom_site_fract_z
 _atom_site_fract_occupancy
 C  C1  1  0.34665  0.23945  0.80563  1
 C  C2  1  0.65405  0.97681  0.58504  1
 C  C3  1  0.15405  0.47681  0.58504  1
 C  C4  1  0.52862  0.46022  0.65158  1
 C  C5  1  0.53247  0.30877  0.77510  1
 C  C6  1  0.03247  0.80877  0.77510  1
 C  C7  1  0.02862  0.96022  0.65158  1
 C  C8  1  0.65767  0.82546  0.70889  1
 C  C9  1  0.83900  0.04666  0.55476  1
 C  C10  1  0.15767  0.32546  0.70889  1
 C  C11  1  0.70405  0.75112  0.29102  1
 C  C12  1  0.33120  0.71394  0.42220  1
 C  C13  1  0.84570  0.58083  0.94545  1
 C  C14  1  0.34570  0.08083  0.94545  1
 C  C15  1  0.00913  0.20038  0.30329  1
 C  C16  1  0.50913  0.70038  0.30329  1
 C  C17  1  0.25203  0.13239  0.08625  1
 C  C18  1  0.75203  0.63239  0.08625  1
 C  C19  1  0.20405  0.25112  0.29102  1
 C  C20  1  0.34135  0.21269  0.16842  1
 C  C21  1  0.84135  0.71269  0.16842  1
 C  C22  1  0.83120  0.21394  0.42220  1
 C  C23  1  0.33900  0.54666  0.55476  1
 C  C24  1  0.84665  0.73945  0.80563  1
 H  H1  1  0.68166  0.24231  0.84940  1
 H  H2  1  0.50089  0.24446  0.13999  1
 H  H3  1  0.17450  0.01278  0.62957  1
 H  H4  1  0.67450  0.51278  0.62957  1
 H  H5  1  0.51170  0.77294  0.73096  1
 H  H6  1  0.01170  0.27294  0.73096  1
 H  H7  1  0.00529  0.54244  0.51051  1
 H  H8  1  0.84936  0.31413  0.47077  1
 H  H9  1  0.34935  0.81413  0.47077  1
 H  H10  1  0.74737  0.50266  0.91735  1
 H  H11  1  0.24737  0.00266  0.91735  1
 H  H12  1  0.00089  0.74446  0.13999  1
 H  H13  1  0.24516  0.31623  0.36786  1
 H  H14  1  0.74515  0.81623  0.36786  1
 H  H15  1  0.66552  0.26153  0.36572  1
 H  H16  1  0.16552  0.76153  0.36572  1
 H  H17  1  0.01624  0.49867  0.97369  1
 H  H18  1  0.51624  0.99867  0.97369  1
 H  H19  1  0.18166  0.74231  0.84940  1
 H  H20  1  0.50529  0.04244  0.51051  1
 S  S1  1  0.49487  0.60628  0.15978  1
 S  S2  1  0.99487  0.10628  0.15978  1
