CIF file written using JARVIS-Tools package.
data_AlCuO3
_symmetry_space_group_name_H-M  'R-3'
_cell_length_a       5.27037
_cell_length_b       5.27037
_cell_length_c       5.27037
_cell_angle_alpha    55.6175
_cell_angle_beta     55.6174
_cell_angle_gamma    55.6175

_symmetry_Int_Tables_number  148
_chemical_formula_structural  AlCuO3
_chemical_formula_sum  Al2Cu2O6
_cell_volume  92.98825002911771
_cell_formula_units_Z  2
loop_
  _symmetry_equiv_pos_site_id
 _symmetry_equiv_pos_as_xyz
 1  'x, y, z'
loop_
 _atom_site_type_symbol
 _atom_site_label
 _atom_site_symmetry_multiplicity
 _atom_site_fract_x
 _atom_site_fract_y
 _atom_site_fract_z
 _atom_site_fract_occupancy
 Al  Al1  1  0.34992  0.34992  0.34992  1
 Al  Al2  1  0.65008  0.65008  0.65008  1
 Cu  Cu1  1  0.14807  0.14807  0.14807  1
 Cu  Cu2  1  0.85193  0.85193  0.85193  1
 O  O1  1  0.94497  0.26499  0.55387  1
 O  O2  1  0.44613  0.05503  0.73501  1
 O  O3  1  0.73501  0.44613  0.05503  1
 O  O4  1  0.26499  0.55387  0.94497  1
 O  O5  1  0.55387  0.94497  0.26499  1
 O  O6  1  0.05503  0.73501  0.44613  1
