CIF file written using JARVIS-Tools package.
data_Mn2TeSe
_symmetry_space_group_name_H-M  'R-3m'
_cell_length_a       6.79722
_cell_length_b       6.79722
_cell_length_c       6.79722
_cell_angle_alpha    33.2748
_cell_angle_beta     33.2748
_cell_angle_gamma    33.2748

_symmetry_Int_Tables_number  166
_chemical_formula_structural  Mn2TeSe
_chemical_formula_sum  Mn2TeSe
_cell_volume  84.16569788368035
_cell_formula_units_Z  1
loop_
  _symmetry_equiv_pos_site_id
 _symmetry_equiv_pos_as_xyz
 1  'x, y, z'
loop_
 _atom_site_type_symbol
 _atom_site_label
 _atom_site_symmetry_multiplicity
 _atom_site_fract_x
 _atom_site_fract_y
 _atom_site_fract_z
 _atom_site_fract_occupancy
 Mn  Mn1  1  0.74188  0.74188  0.74188  1
 Mn  Mn2  1  0.25812  0.25812  0.25812  1
 Se  Se1  1  0.00000  0.00000  0.00000  1
 Te  Te1  1  0.50000  0.50000  0.50000  1
