CIF file written using JARVIS-Tools package.
data_H3C2NO
_symmetry_space_group_name_H-M  'P2_1'
_cell_length_a       3.84428
_cell_length_b       6.90617
_cell_length_c       4.48093
_cell_angle_alpha    90
_cell_angle_beta     110.468
_cell_angle_gamma    90

_symmetry_Int_Tables_number  4
_chemical_formula_structural  H3C2NO
_chemical_formula_sum  H6C4N2O2
_cell_volume  111.45471267496713
_cell_formula_units_Z  2
loop_
  _symmetry_equiv_pos_site_id
 _symmetry_equiv_pos_as_xyz
 1  'x, y, z'
loop_
 _atom_site_type_symbol
 _atom_site_label
 _atom_site_symmetry_multiplicity
 _atom_site_fract_x
 _atom_site_fract_y
 _atom_site_fract_z
 _atom_site_fract_occupancy
 C  C1  1  0.10942  0.03768  0.37533  1
 C  C2  1  0.89058  0.53768  0.62467  1
 C  C3  1  0.13759  0.21646  0.58103  1
 C  C4  1  0.86241  0.71646  0.41897  1
 H  H1  1  0.29399  0.84298  0.77429  1
 H  H2  1  0.70601  0.34298  0.22571  1
 H  H3  1  0.86589  0.04177  0.15668  1
 H  H4  1  0.13411  0.54177  0.84332  1
 H  H5  1  0.35583  0.03429  0.30495  1
 H  H6  1  0.64417  0.53429  0.69505  1
 N  N1  1  0.09524  0.86272  0.55309  1
 N  N2  1  0.90476  0.36272  0.44691  1
 O  O1  1  0.37356  0.22211  0.85665  1
 O  O2  1  0.62644  0.72211  0.14335  1
