CIF file written using JARVIS-Tools package.
data_ThI2
_symmetry_space_group_name_H-M  'P6_3/mmc'
_cell_length_a       3.96234
_cell_length_b       3.96233
_cell_length_c       32.1937
_cell_angle_alpha    90
_cell_angle_beta     90
_cell_angle_gamma    120

_symmetry_Int_Tables_number  194
_chemical_formula_structural  ThI2
_chemical_formula_sum  Th4I8
_cell_volume  437.72768973458693
_cell_formula_units_Z  4
loop_
  _symmetry_equiv_pos_site_id
 _symmetry_equiv_pos_as_xyz
 1  'x, y, z'
loop_
 _atom_site_type_symbol
 _atom_site_label
 _atom_site_symmetry_multiplicity
 _atom_site_fract_x
 _atom_site_fract_y
 _atom_site_fract_z
 _atom_site_fract_occupancy
 I  I1  1  0.33333  0.66667  0.42868  1
 I  I2  1  0.66667  0.33333  0.92868  1
 I  I3  1  0.66667  0.33333  0.57132  1
 I  I4  1  0.33333  0.66667  0.07132  1
 I  I5  1  0.00000  0.00000  0.17942  1
 I  I6  1  0.00000  0.00000  0.67942  1
 I  I7  1  0.00000  0.00000  0.82058  1
 I  I8  1  0.00000  0.00000  0.32058  1
 Th  Th1  1  0.66667  0.33333  0.75000  1
 Th  Th2  1  0.33333  0.66667  0.25000  1
 Th  Th3  1  0.00000  0.00000  0.50000  1
 Th  Th4  1  0.00000  0.00000  0.00000  1
