CIF file written using JARVIS-Tools package.
data_CdH4C4O4
_symmetry_space_group_name_H-M  'P-1'
_cell_length_a       3.7016
_cell_length_b       4.63044
_cell_length_c       7.36286
_cell_angle_alpha    103.723
_cell_angle_beta     93.8684
_cell_angle_gamma    99.774

_symmetry_Int_Tables_number  2
_chemical_formula_structural  CdH4C4O4
_chemical_formula_sum  CdH4C4O4
_cell_volume  120.05015422089511
_cell_formula_units_Z  1
loop_
  _symmetry_equiv_pos_site_id
 _symmetry_equiv_pos_as_xyz
 1  'x, y, z'
loop_
 _atom_site_type_symbol
 _atom_site_label
 _atom_site_symmetry_multiplicity
 _atom_site_fract_x
 _atom_site_fract_y
 _atom_site_fract_z
 _atom_site_fract_occupancy
 C  C1  1  0.90797  0.79736  0.53548  1
 C  C2  1  0.79104  0.89279  0.73096  1
 C  C3  1  0.60434  0.63699  0.80878  1
 C  C4  1  0.48737  0.73235  0.00426  1
 Cd  Cd1  1  0.19765  0.26488  0.26988  1
 H  H1  1  0.03457  0.03038  0.82468  1
 H  H2  1  0.60461  0.04997  0.72068  1
 H  H3  1  0.79078  0.47983  0.81906  1
 H  H4  1  0.36083  0.49940  0.71505  1
 O  O1  1  0.13738  0.98945  0.48498  1
 O  O2  1  0.78298  0.52518  0.43291  1
 O  O3  1  0.61232  0.00451  0.10687  1
 O  O4  1  0.25799  0.54020  0.05471  1
