CIF file written using JARVIS-Tools package.
data_HfNbN2
_symmetry_space_group_name_H-M  'R-3m'
_cell_length_a       5.51489
_cell_length_b       5.51489
_cell_length_c       5.51489
_cell_angle_alpha    33.5345
_cell_angle_beta     33.5345
_cell_angle_gamma    33.5344

_symmetry_Int_Tables_number  166
_chemical_formula_structural  HfNbN2
_chemical_formula_sum  HfNbN2
_cell_volume  45.59389669376918
_cell_formula_units_Z  1
loop_
  _symmetry_equiv_pos_site_id
 _symmetry_equiv_pos_as_xyz
 1  'x, y, z'
loop_
 _atom_site_type_symbol
 _atom_site_label
 _atom_site_symmetry_multiplicity
 _atom_site_fract_x
 _atom_site_fract_y
 _atom_site_fract_z
 _atom_site_fract_occupancy
 Hf  Hf1  1  0.00000  0.00000  0.00000  1
 N  N1  1  0.25413  0.25413  0.25413  1
 N  N2  1  0.74587  0.74587  0.74587  1
 Nb  Nb1  1  0.50000  0.50000  0.50000  1
