CIF file written using JARVIS-Tools package.
data_Fe2Si
_symmetry_space_group_name_H-M  'I4/mmm'
_cell_length_a       4.81783
_cell_length_b       4.81783
_cell_length_c       4.81783
_cell_angle_alpha    147.343
_cell_angle_beta     147.343
_cell_angle_gamma    46.8567

_symmetry_Int_Tables_number  139
_chemical_formula_structural  Fe2Si
_chemical_formula_sum  Fe2Si
_cell_volume  32.442568131367075
_cell_formula_units_Z  1
loop_
  _symmetry_equiv_pos_site_id
 _symmetry_equiv_pos_as_xyz
 1  'x, y, z'
loop_
 _atom_site_type_symbol
 _atom_site_label
 _atom_site_symmetry_multiplicity
 _atom_site_fract_x
 _atom_site_fract_y
 _atom_site_fract_z
 _atom_site_fract_occupancy
 Fe  Fe1  1  0.33895  0.33895  -0.00000  1
 Fe  Fe2  1  0.66105  0.66105  0.00000  1
 Si  Si1  1  0.00000  0.00000  0.00000  1
