CIF file written using JARVIS-Tools package.
data_Ce3B2N4
_symmetry_space_group_name_H-M  'Immm'
_cell_length_a       3.50255
_cell_length_b       6.21137
_cell_length_c       6.36869
_cell_angle_alpha    119.186
_cell_angle_beta     105.961
_cell_angle_gamma    90

_symmetry_Int_Tables_number  71
_chemical_formula_structural  Ce3B2N4
_chemical_formula_sum  Ce3B2N4
_cell_volume  114.8071063077805
_cell_formula_units_Z  1
loop_
  _symmetry_equiv_pos_site_id
 _symmetry_equiv_pos_as_xyz
 1  'x, y, z'
loop_
 _atom_site_type_symbol
 _atom_site_label
 _atom_site_symmetry_multiplicity
 _atom_site_fract_x
 _atom_site_fract_y
 _atom_site_fract_z
 _atom_site_fract_occupancy
 B  B1  1  0.50000  0.35828  0.00000  1
 B  B2  1  0.50000  0.64172  1.00000  1
 Ce  Ce1  1  0.19797  0.69797  0.39595  1
 Ce  Ce2  1  0.80203  0.30203  0.60405  1
 Ce  Ce3  1  0.00000  0.00000  0.00000  1
 N  N1  1  0.62190  0.36055  0.24379  1
 N  N2  1  0.62190  0.88324  0.24379  1
 N  N3  1  0.37810  0.11676  0.75621  1
 N  N4  1  0.37810  0.63945  0.75621  1
