CIF file written using JARVIS-Tools package.
data_Rb2GaCuF6
_symmetry_space_group_name_H-M  'Fm-3m'
_cell_length_a       5.91846
_cell_length_b       5.91847
_cell_length_c       5.91846
_cell_angle_alpha    60
_cell_angle_beta     60
_cell_angle_gamma    60.0001

_symmetry_Int_Tables_number  225
_chemical_formula_structural  Rb2GaCuF6
_chemical_formula_sum  Rb2GaCuF6
_cell_volume  146.59261781400576
_cell_formula_units_Z  1
loop_
  _symmetry_equiv_pos_site_id
 _symmetry_equiv_pos_as_xyz
 1  'x, y, z'
loop_
 _atom_site_type_symbol
 _atom_site_label
 _atom_site_symmetry_multiplicity
 _atom_site_fract_x
 _atom_site_fract_y
 _atom_site_fract_z
 _atom_site_fract_occupancy
 Cu  Cu1  1  0.50000  0.50000  0.50000  1
 F  F1  1  0.76819  0.23181  0.23181  1
 F  F2  1  0.23181  0.23181  0.76819  1
 F  F3  1  0.23181  0.76819  0.76819  1
 F  F4  1  0.23181  0.76819  0.23181  1
 F  F5  1  0.76819  0.23181  0.76819  1
 F  F6  1  0.76819  0.76819  0.23181  1
 Ga  Ga1  1  0.00000  0.00000  0.00000  1
 Rb  Rb1  1  0.75000  0.75000  0.75000  1
 Rb  Rb2  1  0.25000  0.25000  0.25000  1
