CIF file written using JARVIS-Tools package.
data_Ca4Sb2O
_symmetry_space_group_name_H-M  'I4/mmm'
_cell_length_a       4.68204
_cell_length_b       4.68205
_cell_length_c       8.76171
_cell_angle_alpha    105.497
_cell_angle_beta     105.497
_cell_angle_gamma    90

_symmetry_Int_Tables_number  139
_chemical_formula_structural  Ca4Sb2O
_chemical_formula_sum  Ca4Sb2O
_cell_volume  177.83071583290646
_cell_formula_units_Z  1
loop_
  _symmetry_equiv_pos_site_id
 _symmetry_equiv_pos_as_xyz
 1  'x, y, z'
loop_
 _atom_site_type_symbol
 _atom_site_label
 _atom_site_symmetry_multiplicity
 _atom_site_fract_x
 _atom_site_fract_y
 _atom_site_fract_z
 _atom_site_fract_occupancy
 Ca  Ca1  1  0.66488  0.66488  0.32977  1
 Ca  Ca2  1  0.33512  0.33512  0.67023  1
 Ca  Ca3  1  0.50000  0.00000  -0.00000  1
 Ca  Ca4  1  -0.00000  0.50000  -0.00000  1
 O  O1  1  0.50000  0.50000  -0.00000  1
 Sb  Sb1  1  0.86037  0.86037  0.72074  1
 Sb  Sb2  1  0.13963  0.13963  0.27926  1
