CIF file written using JARVIS-Tools package.
data_Ba2Mn2As2O
_symmetry_space_group_name_H-M  'C2/m'
_cell_length_a       4.15721
_cell_length_b       6.36369
_cell_length_c       6.96519
_cell_angle_alpha    80.5067
_cell_angle_beta     107.363
_cell_angle_gamma    70.9356

_symmetry_Int_Tables_number  12
_chemical_formula_structural  Ba2Mn2As2O
_chemical_formula_sum  Ba2Mn2As2O
_cell_volume  159.03426266599658
_cell_formula_units_Z  1
loop_
  _symmetry_equiv_pos_site_id
 _symmetry_equiv_pos_as_xyz
 1  'x, y, z'
loop_
 _atom_site_type_symbol
 _atom_site_label
 _atom_site_symmetry_multiplicity
 _atom_site_fract_x
 _atom_site_fract_y
 _atom_site_fract_z
 _atom_site_fract_occupancy
 As  As1  1  0.95155  0.36103  0.26414  1
 As  As2  1  0.04845  0.63897  0.73586  1
 Ba  Ba1  1  0.75769  0.19168  0.70707  1
 Ba  Ba2  1  0.24231  0.80832  0.29293  1
 Mn  Mn1  1  0.61661  0.69116  0.92435  1
 Mn  Mn2  1  0.38339  0.30884  0.07565  1
 O  O1  1  0.50000  -0.00000  -0.00000  1
