CIF file written using JARVIS-Tools package.
data_Li2SiNiO4
_symmetry_space_group_name_H-M  'Pmn2_1'
_cell_length_a       4.86299
_cell_length_b       5.27562
_cell_length_c       6.3119
_cell_angle_alpha    90
_cell_angle_beta     90
_cell_angle_gamma    90

_symmetry_Int_Tables_number  31
_chemical_formula_structural  Li2SiNiO4
_chemical_formula_sum  Li4Si2Ni2O8
_cell_volume  161.93368361621734
_cell_formula_units_Z  2
loop_
  _symmetry_equiv_pos_site_id
 _symmetry_equiv_pos_as_xyz
 1  'x, y, z'
loop_
 _atom_site_type_symbol
 _atom_site_label
 _atom_site_symmetry_multiplicity
 _atom_site_fract_x
 _atom_site_fract_y
 _atom_site_fract_z
 _atom_site_fract_occupancy
 Li  Li1  1  0.00774  0.67179  0.24933  1
 Li  Li2  1  0.50774  0.32821  0.25067  1
 Li  Li3  1  0.00774  0.67179  0.75067  1
 Li  Li4  1  0.50774  0.32821  0.74933  1
 Ni  Ni1  1  0.01363  0.18840  0.00000  1
 Ni  Ni2  1  0.51363  0.81160  0.50000  1
 O  O1  1  0.15758  0.83679  0.00000  1
 O  O2  1  0.60583  0.13423  0.00000  1
 O  O3  1  0.10472  0.31435  0.28556  1
 O  O4  1  0.60472  0.68565  0.21444  1
 O  O5  1  0.10583  0.86577  0.50000  1
 O  O6  1  0.65758  0.16321  0.50000  1
 O  O7  1  0.60472  0.68565  0.78556  1
 O  O8  1  0.10472  0.31435  0.71444  1
 Si  Si1  1  0.49805  0.83625  0.00000  1
 Si  Si2  1  0.99805  0.16375  0.50000  1
