CIF file written using JARVIS-Tools package.
data_SmAgSn
_symmetry_space_group_name_H-M  'P-3m1'
_cell_length_a       4.84998
_cell_length_b       4.84997
_cell_length_c       7.56932
_cell_angle_alpha    90
_cell_angle_beta     90
_cell_angle_gamma    120

_symmetry_Int_Tables_number  164
_chemical_formula_structural  SmAgSn
_chemical_formula_sum  Sm2Ag2Sn2
_cell_volume  154.19376832883933
_cell_formula_units_Z  2
loop_
  _symmetry_equiv_pos_site_id
 _symmetry_equiv_pos_as_xyz
 1  'x, y, z'
loop_
 _atom_site_type_symbol
 _atom_site_label
 _atom_site_symmetry_multiplicity
 _atom_site_fract_x
 _atom_site_fract_y
 _atom_site_fract_z
 _atom_site_fract_occupancy
 Ag  Ag1  1  0.33333  0.66667  0.48979  1
 Ag  Ag2  1  0.66667  0.33333  0.51021  1
 Sm  Sm1  1  0.00000  0.00000  0.27170  1
 Sm  Sm2  1  0.00000  0.00000  0.72830  1
 Sn  Sn1  1  0.66667  0.33333  0.94272  1
 Sn  Sn2  1  0.33333  0.66667  0.05728  1
