CIF file written using JARVIS-Tools package.
data_YMn2SiGe
_symmetry_space_group_name_H-M  'I4mm'
_cell_length_a       5.95043
_cell_length_b       5.95043
_cell_length_c       5.95043
_cell_angle_alpha    141.651
_cell_angle_beta     141.651
_cell_angle_gamma    55.3545

_symmetry_Int_Tables_number  107
_chemical_formula_structural  YMn2SiGe
_chemical_formula_sum  YMn2SiGe
_cell_volume  80.51095176424637
_cell_formula_units_Z  1
loop_
  _symmetry_equiv_pos_site_id
 _symmetry_equiv_pos_as_xyz
 1  'x, y, z'
loop_
 _atom_site_type_symbol
 _atom_site_label
 _atom_site_symmetry_multiplicity
 _atom_site_fract_x
 _atom_site_fract_y
 _atom_site_fract_z
 _atom_site_fract_occupancy
 Ge  Ge1  1  0.61802  0.61802  0.00000  1
 Mn  Mn1  1  0.75390  0.25390  0.50000  1
 Mn  Mn2  1  0.25390  0.75390  0.50000  1
 Si  Si1  1  0.37684  0.37684  -0.00000  1
 Y  Y1  1  0.99734  0.99734  -0.00000  1
