CIF file written using JARVIS-Tools package.
data_K3Sb2Au3
_symmetry_space_group_name_H-M  'R-3m'
_cell_length_a       8.02309
_cell_length_b       8.02309
_cell_length_c       8.02309
_cell_angle_alpha    45.7884
_cell_angle_beta     45.7884
_cell_angle_gamma    45.7884

_symmetry_Int_Tables_number  166
_chemical_formula_structural  K3Sb2Au3
_chemical_formula_sum  K3Sb2Au3
_cell_volume  241.90369432442122
_cell_formula_units_Z  1
loop_
  _symmetry_equiv_pos_site_id
 _symmetry_equiv_pos_as_xyz
 1  'x, y, z'
loop_
 _atom_site_type_symbol
 _atom_site_label
 _atom_site_symmetry_multiplicity
 _atom_site_fract_x
 _atom_site_fract_y
 _atom_site_fract_z
 _atom_site_fract_occupancy
 Au  Au1  1  0.50000  0.00000  0.50000  1
 Au  Au2  1  -0.00000  0.50000  0.50000  1
 Au  Au3  1  0.50000  0.50000  -0.00000  1
 K  K1  1  0.50000  0.50000  0.50000  1
 K  K2  1  0.92097  0.92097  0.92097  1
 K  K3  1  0.07903  0.07903  0.07903  1
 Sb  Sb1  1  0.23919  0.23919  0.23919  1
 Sb  Sb2  1  0.76081  0.76081  0.76081  1
