CIF file written using JARVIS-Tools package.
data_TmGaO3
_symmetry_space_group_name_H-M  'Pnma'
_cell_length_a       5.22024
_cell_length_b       5.55817
_cell_length_c       7.54963
_cell_angle_alpha    90
_cell_angle_beta     90
_cell_angle_gamma    90

_symmetry_Int_Tables_number  62
_chemical_formula_structural  TmGaO3
_chemical_formula_sum  Tm4Ga4O2
_cell_volume  219.05243228834578
_cell_formula_units_Z  4
loop_
  _symmetry_equiv_pos_site_id
 _symmetry_equiv_pos_as_xyz
 1  'x, y, z'
loop_
 _atom_site_type_symbol
 _atom_site_label
 _atom_site_symmetry_multiplicity
 _atom_site_fract_x
 _atom_site_fract_y
 _atom_site_fract_z
 _atom_site_fract_occupancy
 Ga  Ga1  1  0.00000  0.49999  0.24093  1
 Ga  Ga2  1  0.50000  0.99999  0.24093  1
 Ga  Ga3  1  0.50000  0.00001  0.74093  1
 Ga  Ga4  1  -0.00000  0.50001  0.74093  1
 O  O1  1  0.69003  0.69306  0.30109  1
 O  O2  1  0.11926  0.54318  0.49093  1
 O  O3  1  0.80996  0.19308  0.68075  1
 O  O4  1  0.19003  0.80694  0.80109  1
 O  O5  1  0.30997  0.30694  0.80109  1
 O  O6  1  0.19004  0.80692  0.18075  1
 O  O7  1  0.38074  0.04318  0.49093  1
 O  O8  1  0.88074  0.45682  0.99093  1
 O  O9  1  0.69004  0.69308  0.68075  1
 O  O10  1  0.30996  0.30692  0.18075  1
 O  O11  1  0.80997  0.19306  0.30109  1
 O  O12  1  0.61926  0.95682  0.99093  1
 Tm  Tm1  1  0.97876  0.92739  0.49093  1
 Tm  Tm2  1  0.52124  0.42739  0.49093  1
 Tm  Tm3  1  0.47876  0.57261  0.99093  1
 Tm  Tm4  1  0.02124  0.07261  0.99093  1
