CIF file written using JARVIS-Tools package.
data_CeSi2Cu2
_symmetry_space_group_name_H-M  'I4/mmm'
_cell_length_a       4.09232
_cell_length_b       4.09233
_cell_length_c       5.72856
_cell_angle_alpha    110.927
_cell_angle_beta     110.928
_cell_angle_gamma    90

_symmetry_Int_Tables_number  139
_chemical_formula_structural  CeSi2Cu2
_chemical_formula_sum  CeSi2Cu2
_cell_volume  82.79743928501931
_cell_formula_units_Z  1
loop_
  _symmetry_equiv_pos_site_id
 _symmetry_equiv_pos_as_xyz
 1  'x, y, z'
loop_
 _atom_site_type_symbol
 _atom_site_label
 _atom_site_symmetry_multiplicity
 _atom_site_fract_x
 _atom_site_fract_y
 _atom_site_fract_z
 _atom_site_fract_occupancy
 Ce  Ce1  1  0.00000  0.00000  0.00000  1
 Cu  Cu1  1  0.75000  0.25000  0.50000  1
 Cu  Cu2  1  0.25000  0.75000  0.50000  1
 Si  Si1  1  0.62031  0.62031  0.24061  1
 Si  Si2  1  0.37969  0.37969  0.75939  1
