CIF file written using JARVIS-Tools package.
data_Nb2AlB6
_symmetry_space_group_name_H-M  'P6/mmm'
_cell_length_a       3.03697
_cell_length_b       3.03696
_cell_length_c       10.3823
_cell_angle_alpha    90
_cell_angle_beta     90
_cell_angle_gamma    120

_symmetry_Int_Tables_number  191
_chemical_formula_structural  Nb2AlB6
_chemical_formula_sum  Nb2AlB6
_cell_volume  82.92832785066967
_cell_formula_units_Z  1
loop_
  _symmetry_equiv_pos_site_id
 _symmetry_equiv_pos_as_xyz
 1  'x, y, z'
loop_
 _atom_site_type_symbol
 _atom_site_label
 _atom_site_symmetry_multiplicity
 _atom_site_fract_x
 _atom_site_fract_y
 _atom_site_fract_z
 _atom_site_fract_occupancy
 Al  Al1  1  0.00000  0.00000  0.00000  1
 B  B1  1  0.66667  0.33333  0.84290  1
 B  B2  1  0.66667  0.33333  0.50000  1
 B  B3  1  0.66667  0.33333  0.15710  1
 B  B4  1  0.33333  0.66667  0.84290  1
 B  B5  1  0.33333  0.66667  0.50000  1
 B  B6  1  0.33333  0.66667  0.15710  1
 Nb  Nb1  1  0.00000  0.00000  0.66614  1
 Nb  Nb2  1  0.00000  0.00000  0.33386  1
