CIF file written using JARVIS-Tools package.
data_HC
_symmetry_space_group_name_H-M  'Pa-3'
_cell_length_a       5.84397
_cell_length_b       5.84397
_cell_length_c       5.84397
_cell_angle_alpha    90
_cell_angle_beta     90
_cell_angle_gamma    90

_symmetry_Int_Tables_number  205
_chemical_formula_structural  HC
_chemical_formula_sum  H8C8
_cell_volume  199.58328716807566
_cell_formula_units_Z  8
loop_
  _symmetry_equiv_pos_site_id
 _symmetry_equiv_pos_as_xyz
 1  'x, y, z'
loop_
 _atom_site_type_symbol
 _atom_site_label
 _atom_site_symmetry_multiplicity
 _atom_site_fract_x
 _atom_site_fract_y
 _atom_site_fract_z
 _atom_site_fract_occupancy
 C  C1  1  0.05960  0.05960  0.05960  1
 C  C2  1  0.94040  0.94040  0.94040  1
 C  C3  1  0.44040  0.94040  0.55960  1
 C  C4  1  0.55960  0.05960  0.44040  1
 C  C5  1  0.94040  0.55960  0.44040  1
 C  C6  1  0.05960  0.44040  0.55960  1
 C  C7  1  0.55960  0.44040  0.94040  1
 C  C8  1  0.44040  0.55960  0.05960  1
 H  H1  1  0.16531  0.16531  0.16531  1
 H  H2  1  0.83469  0.83469  0.83469  1
 H  H3  1  0.33469  0.83469  0.66531  1
 H  H4  1  0.66531  0.16531  0.33469  1
 H  H5  1  0.83469  0.66531  0.33469  1
 H  H6  1  0.16531  0.33469  0.66531  1
 H  H7  1  0.66531  0.33469  0.83469  1
 H  H8  1  0.33469  0.66531  0.16531  1
