CIF file written using JARVIS-Tools package.
data_K2RhF6
_symmetry_space_group_name_H-M  'P-3m1'
_cell_length_a       5.74227
_cell_length_b       5.74227
_cell_length_c       4.6016
_cell_angle_alpha    90
_cell_angle_beta     90
_cell_angle_gamma    120

_symmetry_Int_Tables_number  164
_chemical_formula_structural  K2RhF6
_chemical_formula_sum  K2RhF6
_cell_volume  131.40299641963443
_cell_formula_units_Z  1
loop_
  _symmetry_equiv_pos_site_id
 _symmetry_equiv_pos_as_xyz
 1  'x, y, z'
loop_
 _atom_site_type_symbol
 _atom_site_label
 _atom_site_symmetry_multiplicity
 _atom_site_fract_x
 _atom_site_fract_y
 _atom_site_fract_z
 _atom_site_fract_occupancy
 F  F1  1  0.83676  0.16324  0.23052  1
 F  F2  1  0.32648  0.16324  0.23052  1
 F  F3  1  0.83676  0.67352  0.23052  1
 F  F4  1  0.16324  0.83676  0.76948  1
 F  F5  1  0.67352  0.83676  0.76948  1
 F  F6  1  0.16324  0.32648  0.76948  1
 K  K1  1  0.33333  0.66667  0.28562  1
 K  K2  1  0.66667  0.33333  0.71438  1
 Rh  Rh1  1  0.00000  0.00000  0.00000  1
