CIF file written using JARVIS-Tools package.
data_H2C
_symmetry_space_group_name_H-M  'Pnma'
_cell_length_a       2.55709
_cell_length_b       4.7832
_cell_length_c       6.86689
_cell_angle_alpha    90.0001
_cell_angle_beta     90.0105
_cell_angle_gamma    90.0017

_symmetry_Int_Tables_number  62
_chemical_formula_structural  H2C
_chemical_formula_sum  H8C4
_cell_volume  83.98965975715801
_cell_formula_units_Z  4
loop_
  _symmetry_equiv_pos_site_id
 _symmetry_equiv_pos_as_xyz
 1  'x, y, z'
loop_
 _atom_site_type_symbol
 _atom_site_label
 _atom_site_symmetry_multiplicity
 _atom_site_fract_x
 _atom_site_fract_y
 _atom_site_fract_z
 _atom_site_fract_occupancy
 C  C1  1  0.74981  0.06139  0.04351  1
 C  C2  1  0.24977  0.93792  0.95648  1
 C  C3  1  0.25117  0.56142  0.45649  1
 C  C4  1  0.75120  0.43794  0.54352  1
 H  H1  1  0.74989  0.02869  0.20256  1
 H  H2  1  0.74982  0.29012  0.02142  1
 H  H3  1  0.24970  0.97062  0.79743  1
 H  H4  1  0.24977  0.70919  0.97857  1
 H  H5  1  0.25120  0.79015  0.47858  1
 H  H6  1  0.25107  0.52872  0.29744  1
 H  H7  1  0.75119  0.20921  0.52143  1
 H  H8  1  0.75130  0.47064  0.70257  1
