CIF file written using JARVIS-Tools package.
data_NaBiS2
_symmetry_space_group_name_H-M  'I4_1/amd'
_cell_length_a       7.08153
_cell_length_b       7.08153
_cell_length_c       7.08153
_cell_angle_alpha    132.653
_cell_angle_beta     132.653
_cell_angle_gamma    69.1998

_symmetry_Int_Tables_number  141
_chemical_formula_structural  NaBiS2
_chemical_formula_sum  Na2Bi2S4
_cell_volume  188.51221048552355
_cell_formula_units_Z  2
loop_
  _symmetry_equiv_pos_site_id
 _symmetry_equiv_pos_as_xyz
 1  'x, y, z'
loop_
 _atom_site_type_symbol
 _atom_site_label
 _atom_site_symmetry_multiplicity
 _atom_site_fract_x
 _atom_site_fract_y
 _atom_site_fract_z
 _atom_site_fract_occupancy
 Bi  Bi1  1  0.25000  0.75000  0.50000  1
 Bi  Bi2  1  0.50000  0.50000  0.00000  1
 Na  Na1  1  0.00000  0.00000  0.00000  1
 Na  Na2  1  0.75000  0.25000  0.50000  1
 S  S1  1  0.49337  0.99337  0.50000  1
 S  S2  1  0.00663  0.50663  0.50000  1
 S  S3  1  0.74337  0.74337  -0.00000  1
 S  S4  1  0.25663  0.25663  0.00000  1
