CIF file written using JARVIS-Tools package.
data_NaWCl2O2
_symmetry_space_group_name_H-M  'Amm2'
_cell_length_a       8.0893
_cell_length_b       8.0893
_cell_length_c       3.82364
_cell_angle_alpha    90
_cell_angle_beta     90
_cell_angle_gamma    152.628

_symmetry_Int_Tables_number  38
_chemical_formula_structural  NaWCl2O2
_chemical_formula_sum  NaWCl2O2
_cell_volume  115.03510082357664
_cell_formula_units_Z  1
loop_
  _symmetry_equiv_pos_site_id
 _symmetry_equiv_pos_as_xyz
 1  'x, y, z'
loop_
 _atom_site_type_symbol
 _atom_site_label
 _atom_site_symmetry_multiplicity
 _atom_site_fract_x
 _atom_site_fract_y
 _atom_site_fract_z
 _atom_site_fract_occupancy
 Cl  Cl1  1  0.15774  0.84226  0.00000  1
 Cl  Cl2  1  0.84345  0.15655  0.00000  1
 Na  Na1  1  0.71671  0.28329  0.50000  1
 O  O1  1  0.49958  0.50042  0.00000  1
 O  O2  1  -0.00090  0.00090  0.50000  1
 W  W1  1  0.99743  0.00257  0.00000  1
