CIF file written using JARVIS-Tools package.
data_Cr2OF2
_symmetry_space_group_name_H-M  'I4_1/amd'
_cell_length_a       5.93612
_cell_length_b       6.76053
_cell_length_c       5.93612
_cell_angle_alpha    63.9582
_cell_angle_beta     90
_cell_angle_gamma    116.042

_symmetry_Int_Tables_number  141
_chemical_formula_structural  Cr2OF2
_chemical_formula_sum  Cr4O2F4
_cell_volume  186.74557872273823
_cell_formula_units_Z  2
loop_
  _symmetry_equiv_pos_site_id
 _symmetry_equiv_pos_as_xyz
 1  'x, y, z'
loop_
 _atom_site_type_symbol
 _atom_site_label
 _atom_site_symmetry_multiplicity
 _atom_site_fract_x
 _atom_site_fract_y
 _atom_site_fract_z
 _atom_site_fract_occupancy
 Cr  Cr1  1  0.00000  0.00000  0.00000  1
 Cr  Cr2  1  0.50000  0.00000  0.00000  1
 Cr  Cr3  1  0.00000  0.50000  -0.00000  1
 Cr  Cr4  1  0.00000  0.50000  0.50000  1
 F  F1  1  0.62587  0.75174  0.12413  1
 F  F2  1  0.87587  0.25174  0.37413  1
 F  F3  1  0.37413  0.24826  0.87587  1
 F  F4  1  0.12413  0.74826  0.62587  1
 O  O1  1  0.12500  0.75000  0.12500  1
 O  O2  1  0.87500  0.25000  0.87500  1
