CIF file written using JARVIS-Tools package.
data_Al2Te3
_symmetry_space_group_name_H-M  'P2_1/c'
_cell_length_a       7.26672
_cell_length_b       12.9478
_cell_length_c       14.3757
_cell_angle_alpha    90
_cell_angle_beta     89.7359
_cell_angle_gamma    90

_symmetry_Int_Tables_number  14
_chemical_formula_structural  Al2Te3
_chemical_formula_sum  Al6Te24
_cell_volume  1352.5664901761263
_cell_formula_units_Z  8
loop_
  _symmetry_equiv_pos_site_id
 _symmetry_equiv_pos_as_xyz
 1  'x, y, z'
loop_
 _atom_site_type_symbol
 _atom_site_label
 _atom_site_symmetry_multiplicity
 _atom_site_fract_x
 _atom_site_fract_y
 _atom_site_fract_z
 _atom_site_fract_occupancy
 Al  Al1  1  0.41839  0.24967  0.68654  1
 Al  Al2  1  0.93080  0.40878  0.17403  1
 Al  Al3  1  0.58161  0.74967  0.81346  1
 Al  Al4  1  0.41839  0.25033  0.18654  1
 Al  Al5  1  0.93080  0.09122  0.67403  1
 Al  Al6  1  0.06920  0.59122  0.82597  1
 Al  Al7  1  0.06920  0.90878  0.32597  1
 Al  Al8  1  0.43092  0.56822  0.68243  1
 Al  Al9  1  0.58161  0.75033  0.31346  1
 Al  Al10  1  0.07977  0.90773  0.80615  1
 Al  Al11  1  0.07977  0.59227  0.30615  1
 Al  Al12  1  0.92023  0.09227  0.19385  1
 Al  Al13  1  0.56908  0.06822  0.81757  1
 Al  Al14  1  0.43092  0.93178  0.18243  1
 Al  Al15  1  0.56908  0.43178  0.31757  1
 Al  Al16  1  0.92023  0.40773  0.69385  1
 Te  Te1  1  0.92627  0.08618  0.86226  1
 Te  Te2  1  0.41663  0.25837  0.36555  1
 Te  Te3  1  0.58337  0.75837  0.13445  1
 Te  Te4  1  0.58337  0.74163  0.63445  1
 Te  Te5  1  0.90935  0.75704  0.90127  1
 Te  Te6  1  0.42643  0.92793  0.37093  1
 Te  Te7  1  0.90935  0.74296  0.40127  1
 Te  Te8  1  0.09065  0.25704  0.59873  1
 Te  Te9  1  0.07373  0.58618  0.63774  1
 Te  Te10  1  0.41663  0.24163  0.86555  1
 Te  Te11  1  0.09065  0.24296  0.09873  1
 Te  Te12  1  0.59516  0.40580  0.60255  1
 Te  Te13  1  0.40484  0.90580  0.89745  1
 Te  Te14  1  0.91159  0.41881  0.87308  1
 Te  Te15  1  0.42643  0.57207  0.87093  1
 Te  Te16  1  0.59516  0.09420  0.10255  1
 Te  Te17  1  0.40484  0.59420  0.39745  1
 Te  Te18  1  0.57357  0.07207  0.62907  1
 Te  Te19  1  0.07373  0.91382  0.13774  1
 Te  Te20  1  0.91159  0.08119  0.37308  1
 Te  Te21  1  0.08841  0.58119  0.12692  1
 Te  Te22  1  0.08841  0.91881  0.62692  1
 Te  Te23  1  0.92627  0.41382  0.36226  1
 Te  Te24  1  0.57357  0.42793  0.12907  1
