CIF file written using JARVIS-Tools package.
data_LiSnN
_symmetry_space_group_name_H-M  'P6_3mc'
_cell_length_a       3.27398
_cell_length_b       3.27398
_cell_length_c       9.94704
_cell_angle_alpha    90
_cell_angle_beta     90
_cell_angle_gamma    120

_symmetry_Int_Tables_number  186
_chemical_formula_structural  LiSnN
_chemical_formula_sum  Li2Sn2N2
_cell_volume  92.3370457195677
_cell_formula_units_Z  2
loop_
  _symmetry_equiv_pos_site_id
 _symmetry_equiv_pos_as_xyz
 1  'x, y, z'
loop_
 _atom_site_type_symbol
 _atom_site_label
 _atom_site_symmetry_multiplicity
 _atom_site_fract_x
 _atom_site_fract_y
 _atom_site_fract_z
 _atom_site_fract_occupancy
 Li  Li1  1  0.66667  0.33333  0.72836  1
 Li  Li2  1  0.33333  0.66667  0.22836  1
 N  N1  1  0.33333  0.66667  0.61776  1
 N  N2  1  0.66667  0.33333  0.11776  1
 Sn  Sn1  1  1.00000  1.00000  0.49852  1
 Sn  Sn2  1  0.00000  0.00000  0.99852  1
