CIF file written using JARVIS-Tools package.
data_Ti3NbCu3O12
_symmetry_space_group_name_H-M  'R-3'
_cell_length_a       6.46312
_cell_length_b       6.46312
_cell_length_c       6.46312
_cell_angle_alpha    109.67
_cell_angle_beta     109.67
_cell_angle_gamma    109.67

_symmetry_Int_Tables_number  148
_chemical_formula_structural  Ti3NbCu3O12
_chemical_formula_sum  Ti3NbCu3O2
_cell_volume  206.28419028257392
_cell_formula_units_Z  1
loop_
  _symmetry_equiv_pos_site_id
 _symmetry_equiv_pos_as_xyz
 1  'x, y, z'
loop_
 _atom_site_type_symbol
 _atom_site_label
 _atom_site_symmetry_multiplicity
 _atom_site_fract_x
 _atom_site_fract_y
 _atom_site_fract_z
 _atom_site_fract_occupancy
 Cu  Cu1  1  0.50000  0.50000  -0.00000  1
 Cu  Cu2  1  0.50000  -0.00000  0.50000  1
 Cu  Cu3  1  -0.00000  0.50000  0.50000  1
 Nb  Nb1  1  0.50000  0.50000  0.50000  1
 O  O1  1  0.31358  0.13400  0.82028  1
 O  O2  1  0.82028  0.31358  0.13400  1
 O  O3  1  0.49137  0.17462  0.31198  1
 O  O4  1  0.50863  0.82538  0.68802  1
 O  O5  1  0.68642  0.86600  0.17972  1
 O  O6  1  0.86600  0.17972  0.68642  1
 O  O7  1  0.82538  0.68802  0.50863  1
 O  O8  1  0.17972  0.68642  0.86600  1
 O  O9  1  0.31198  0.49137  0.17462  1
 O  O10  1  0.68802  0.50863  0.82538  1
 O  O11  1  0.13400  0.82028  0.31358  1
 O  O12  1  0.17462  0.31198  0.49137  1
 Ti  Ti1  1  0.00000  -0.00000  0.50000  1
 Ti  Ti2  1  -0.00000  0.50000  -0.00000  1
 Ti  Ti3  1  0.50000  -0.00000  -0.00000  1
