CIF file written using JARVIS-Tools package.
data_HfTaCN
_symmetry_space_group_name_H-M  'R3m'
_cell_length_a       5.55047
_cell_length_b       5.55047
_cell_length_c       5.55047
_cell_angle_alpha    33.4299
_cell_angle_beta     33.4299
_cell_angle_gamma    33.4299

_symmetry_Int_Tables_number  160
_chemical_formula_structural  HfTaCN
_chemical_formula_sum  HfTaCN
_cell_volume  46.21836719843241
_cell_formula_units_Z  1
loop_
  _symmetry_equiv_pos_site_id
 _symmetry_equiv_pos_as_xyz
 1  'x, y, z'
loop_
 _atom_site_type_symbol
 _atom_site_label
 _atom_site_symmetry_multiplicity
 _atom_site_fract_x
 _atom_site_fract_y
 _atom_site_fract_z
 _atom_site_fract_occupancy
 C  C1  1  0.99784  0.99784  0.99784  1
 Hf  Hf1  1  0.74746  0.74746  0.74746  1
 N  N1  1  0.50140  0.50140  0.50140  1
 Ta  Ta1  1  0.25331  0.25331  0.25331  1
