CIF file written using JARVIS-Tools package.
data_BaIn2Te4
_symmetry_space_group_name_H-M  'Cccm'
_cell_length_a       7.06915
_cell_length_b       7.06915
_cell_length_c       12.2655
_cell_angle_alpha    90
_cell_angle_beta     90
_cell_angle_gamma    118.415

_symmetry_Int_Tables_number  66
_chemical_formula_structural  BaIn2Te4
_chemical_formula_sum  Ba2In4Te8
_cell_volume  539.0938260855013
_cell_formula_units_Z  2
loop_
  _symmetry_equiv_pos_site_id
 _symmetry_equiv_pos_as_xyz
 1  'x, y, z'
loop_
 _atom_site_type_symbol
 _atom_site_label
 _atom_site_symmetry_multiplicity
 _atom_site_fract_x
 _atom_site_fract_y
 _atom_site_fract_z
 _atom_site_fract_occupancy
 Ba  Ba1  1  0.50000  0.50000  0.25000  1
 Ba  Ba2  1  0.50000  0.50000  0.75000  1
 In  In1  1  0.23950  0.76434  0.50000  1
 In  In2  1  0.76050  0.23566  0.50000  1
 In  In3  1  0.23566  0.76050  0.00000  1
 In  In4  1  0.76434  0.23950  0.00000  1
 Te  Te1  1  0.50000  0.00000  0.31966  1
 Te  Te2  1  -0.00000  0.50000  0.18034  1
 Te  Te3  1  0.66252  0.80232  0.00000  1
 Te  Te4  1  0.33748  0.19768  0.00000  1
 Te  Te5  1  0.80232  0.66252  0.50000  1
 Te  Te6  1  0.19768  0.33748  0.50000  1
 Te  Te7  1  0.50000  0.00000  0.68034  1
 Te  Te8  1  -0.00000  0.50000  0.81966  1
