CIF file written using JARVIS-Tools package.
data_Er2CuNi
_symmetry_space_group_name_H-M  'Amm2'
_cell_length_a       5.33815
_cell_length_b       5.33816
_cell_length_c       4.3098
_cell_angle_alpha    90
_cell_angle_beta     90
_cell_angle_gamma    140.138

_symmetry_Int_Tables_number  38
_chemical_formula_structural  Er2CuNi
_chemical_formula_sum  Er2CuNi
_cell_volume  78.7143473594598
_cell_formula_units_Z  1
loop_
  _symmetry_equiv_pos_site_id
 _symmetry_equiv_pos_as_xyz
 1  'x, y, z'
loop_
 _atom_site_type_symbol
 _atom_site_label
 _atom_site_symmetry_multiplicity
 _atom_site_fract_x
 _atom_site_fract_y
 _atom_site_fract_z
 _atom_site_fract_occupancy
 Cu  Cu1  1  0.57485  0.42515  0.50000  1
 Er  Er1  1  0.86105  0.13895  0.50000  1
 Er  Er2  1  0.13988  0.86012  0.00000  1
 Ni  Ni1  1  0.42422  0.57578  0.00000  1
