CIF file written using JARVIS-Tools package.
data_Ba4As2O
_symmetry_space_group_name_H-M  'I4/mmm'
_cell_length_a       5.19963
_cell_length_b       5.19963
_cell_length_c       9.39941
_cell_angle_alpha    106.057
_cell_angle_beta     106.057
_cell_angle_gamma    90

_symmetry_Int_Tables_number  139
_chemical_formula_structural  Ba4As2O
_chemical_formula_sum  Ba4As2O
_cell_volume  233.8758342208761
_cell_formula_units_Z  1
loop_
  _symmetry_equiv_pos_site_id
 _symmetry_equiv_pos_as_xyz
 1  'x, y, z'
loop_
 _atom_site_type_symbol
 _atom_site_label
 _atom_site_symmetry_multiplicity
 _atom_site_fract_x
 _atom_site_fract_y
 _atom_site_fract_z
 _atom_site_fract_occupancy
 As  As1  1  0.86426  0.86426  0.72851  1
 As  As2  1  0.13574  0.13574  0.27149  1
 Ba  Ba1  1  0.67528  0.67528  0.35055  1
 Ba  Ba2  1  0.32472  0.32472  0.64945  1
 Ba  Ba3  1  -0.00000  0.50000  0.00000  1
 Ba  Ba4  1  0.50000  0.00000  0.00000  1
 O  O1  1  0.50000  0.50000  0.00000  1
