CIF file written using JARVIS-Tools package.
data_TmAlNi4
_symmetry_space_group_name_H-M  'P-6m2'
_cell_length_a       4.99829
_cell_length_b       4.9983
_cell_length_c       3.84219
_cell_angle_alpha    90
_cell_angle_beta     90
_cell_angle_gamma    120

_symmetry_Int_Tables_number  187
_chemical_formula_structural  TmAlNi4
_chemical_formula_sum  TmAlNi4
_cell_volume  83.12898032123512
_cell_formula_units_Z  1
loop_
  _symmetry_equiv_pos_site_id
 _symmetry_equiv_pos_as_xyz
 1  'x, y, z'
loop_
 _atom_site_type_symbol
 _atom_site_label
 _atom_site_symmetry_multiplicity
 _atom_site_fract_x
 _atom_site_fract_y
 _atom_site_fract_z
 _atom_site_fract_occupancy
 Al  Al1  1  0.66667  0.33333  0.00000  1
 Ni  Ni1  1  0.00000  0.00000  0.00000  1
 Ni  Ni2  1  0.32993  0.16496  0.50000  1
 Ni  Ni3  1  0.83504  0.16496  0.50000  1
 Ni  Ni4  1  0.83504  0.67007  0.50000  1
 Tm  Tm1  1  0.33333  0.66667  0.00000  1
