CIF file written using JARVIS-Tools package.
data_GeRh3
_symmetry_space_group_name_H-M  'P6_3/mmc'
_cell_length_a       5.49535
_cell_length_b       5.49535
_cell_length_c       4.3476
_cell_angle_alpha    90
_cell_angle_beta     90
_cell_angle_gamma    120

_symmetry_Int_Tables_number  194
_chemical_formula_structural  GeRh3
_chemical_formula_sum  Ge2Rh6
_cell_volume  113.70279170261553
_cell_formula_units_Z  2
loop_
  _symmetry_equiv_pos_site_id
 _symmetry_equiv_pos_as_xyz
 1  'x, y, z'
loop_
 _atom_site_type_symbol
 _atom_site_label
 _atom_site_symmetry_multiplicity
 _atom_site_fract_x
 _atom_site_fract_y
 _atom_site_fract_z
 _atom_site_fract_occupancy
 Ge  Ge1  1  0.33333  0.66667  0.75000  1
 Ge  Ge2  1  0.66667  0.33333  0.25000  1
 Rh  Rh1  1  0.16651  0.33303  0.25000  1
 Rh  Rh2  1  0.66697  0.83349  0.25000  1
 Rh  Rh3  1  0.16651  0.83349  0.25000  1
 Rh  Rh4  1  0.83349  0.66697  0.75000  1
 Rh  Rh5  1  0.33303  0.16651  0.75000  1
 Rh  Rh6  1  0.83349  0.16651  0.75000  1
