CIF file written using JARVIS-Tools package.
data_VCoNiPd
_symmetry_space_group_name_H-M  'R3m'
_cell_length_a       8.50777
_cell_length_b       8.50777
_cell_length_c       8.50777
_cell_angle_alpha    17.7767
_cell_angle_beta     17.7767
_cell_angle_gamma    17.7767

_symmetry_Int_Tables_number  160
_chemical_formula_structural  VCoNiPd
_chemical_formula_sum  VCoNiPd
_cell_volume  50.109892933614695
_cell_formula_units_Z  1
loop_
  _symmetry_equiv_pos_site_id
 _symmetry_equiv_pos_as_xyz
 1  'x, y, z'
loop_
 _atom_site_type_symbol
 _atom_site_label
 _atom_site_symmetry_multiplicity
 _atom_site_fract_x
 _atom_site_fract_y
 _atom_site_fract_z
 _atom_site_fract_occupancy
 Co  Co1  1  0.00025  0.00025  0.00025  1
 Ni  Ni1  1  0.74509  0.74509  0.74509  1
 Pd  Pd1  1  0.49999  0.49999  0.49999  1
 V  V1  1  0.25467  0.25467  0.25467  1
