CIF file written using JARVIS-Tools package.
data_CdH16C10O4
_symmetry_space_group_name_H-M  'P1'
_cell_length_a       3.9314
_cell_length_b       4.31675
_cell_length_c       15.4522
_cell_angle_alpha    96.8883
_cell_angle_beta     89.3994
_cell_angle_gamma    104.645

_symmetry_Int_Tables_number  1
_chemical_formula_structural  CdH16C10O4
_chemical_formula_sum  CdH6C0O4
_cell_volume  251.83204166861398
_cell_formula_units_Z  1
loop_
  _symmetry_equiv_pos_site_id
 _symmetry_equiv_pos_as_xyz
 1  'x, y, z'
loop_
 _atom_site_type_symbol
 _atom_site_label
 _atom_site_symmetry_multiplicity
 _atom_site_fract_x
 _atom_site_fract_y
 _atom_site_fract_z
 _atom_site_fract_occupancy
 C  C1  1  0.43550  0.36480  0.61990  1
 C  C2  1  0.70799  0.33801  0.29421  1
 C  C3  1  0.60703  0.51422  0.37691  1
 C  C4  1  0.48544  0.53783  0.53815  1
 C  C5  1  0.54124  0.32471  0.45544  1
 C  C6  1  0.40062  0.58605  0.70284  1
 C  C7  1  0.38487  0.42363  0.78604  1
 C  C8  1  0.38198  0.65474  0.86908  1
 C  C9  1  0.39597  0.49459  0.95214  1
 C  C10  1  0.44922  0.73563  0.03370  1
 Cd  Cd1  1  0.07341  0.16778  0.15328  1
 H  H1  1  0.71430  0.74902  0.54887  1
 H  H2  1  0.38370  0.60980  0.36282  1
 H  H3  1  0.83149  0.72726  0.39128  1
 H  H4  1  0.16605  0.67912  0.69724  1
 H  H5  1  0.25766  0.63648  0.52851  1
 H  H6  1  0.15852  0.29980  0.95757  1
 H  H7  1  0.62193  0.38700  0.94948  1
 H  H8  1  0.15200  0.21614  0.78321  1
 H  H9  1  0.62724  0.79981  0.70837  1
 H  H10  1  0.20232  0.15738  0.61113  1
 H  H11  1  0.61454  0.32189  0.78903  1
 H  H12  1  0.30987  0.11873  0.44179  1
 H  H13  1  0.76589  0.22340  0.46545  1
 H  H14  1  0.14679  0.74984  0.86927  1
 H  H15  1  0.61043  0.86428  0.86979  1
 H  H16  1  0.66119  0.26172  0.62796  1
 O  O1  1  0.90725  0.15027  0.29804  1
 O  O2  1  0.23472  0.68462  0.09736  1
 O  O3  1  0.61970  0.40477  0.21925  1
 O  O4  1  0.70342  0.98577  0.03506  1
