CIF file written using JARVIS-Tools package.
data_CrS2
_symmetry_space_group_name_H-M  'P-3m1'
_cell_length_a       3.34778
_cell_length_b       3.34778
_cell_length_c       11.2905
_cell_angle_alpha    107.237
_cell_angle_beta     98.5168
_cell_angle_gamma    59.9917

_symmetry_Int_Tables_number  164
_chemical_formula_structural  CrS2
_chemical_formula_sum  Cr2S4
_cell_volume  104.65615105228393
_cell_formula_units_Z  2
loop_
  _symmetry_equiv_pos_site_id
 _symmetry_equiv_pos_as_xyz
 1  'x, y, z'
loop_
 _atom_site_type_symbol
 _atom_site_label
 _atom_site_symmetry_multiplicity
 _atom_site_fract_x
 _atom_site_fract_y
 _atom_site_fract_z
 _atom_site_fract_occupancy
 Cr  Cr1  1  0.00000  0.00000  0.00000  1
 Cr  Cr2  1  -0.00000  0.50000  0.50000  1
 S  S1  1  0.33325  0.45828  0.12503  1
 S  S2  1  0.33325  0.95828  0.62503  1
 S  S3  1  0.66675  0.04172  0.37497  1
 S  S4  1  0.66675  0.54172  0.87497  1
