CIF file written using JARVIS-Tools package.
data_Li5FeOF5
_symmetry_space_group_name_H-M  'Cc'
_cell_length_a       5.06524
_cell_length_b       5.06524
_cell_length_c       10.2314
_cell_angle_alpha    79.7689
_cell_angle_beta     100.231
_cell_angle_gamma    60.5672

_symmetry_Int_Tables_number  9
_chemical_formula_structural  Li5FeOF5
_chemical_formula_sum  Li0Fe2O2F0
_cell_volume  213.97357283696812
_cell_formula_units_Z  2
loop_
  _symmetry_equiv_pos_site_id
 _symmetry_equiv_pos_as_xyz
 1  'x, y, z'
loop_
 _atom_site_type_symbol
 _atom_site_label
 _atom_site_symmetry_multiplicity
 _atom_site_fract_x
 _atom_site_fract_y
 _atom_site_fract_z
 _atom_site_fract_occupancy
 F  F1  1  0.72846  0.25216  0.12875  1
 F  F2  1  0.74784  0.27154  0.62875  1
 F  F3  1  0.60511  0.08514  0.87936  1
 F  F4  1  0.91292  0.44008  0.86904  1
 F  F5  1  0.06775  0.56659  0.12728  1
 F  F6  1  0.25189  0.73741  0.36779  1
 F  F7  1  0.43341  0.93225  0.62728  1
 F  F8  1  0.26259  0.74811  0.86779  1
 F  F9  1  0.55992  0.08708  0.36904  1
 F  F10  1  0.91486  0.39489  0.37936  1
 Fe  Fe1  1  0.00639  0.97113  0.50781  1
 Fe  Fe2  1  0.02887  0.99361  0.00781  1
 Li  Li1  1  0.65371  0.67277  0.00644  1
 Li  Li2  1  0.33427  0.31683  0.00918  1
 Li  Li3  1  0.49182  0.50904  0.24698  1
 Li  Li4  1  0.79948  0.82999  0.24109  1
 Li  Li5  1  0.18226  0.14423  0.24539  1
 Li  Li6  1  0.68317  0.66573  0.50918  1
 Li  Li7  1  0.32723  0.34629  0.50644  1
 Li  Li8  1  0.85577  0.81774  0.74539  1
 Li  Li9  1  0.49096  0.50818  0.74698  1
 Li  Li10  1  0.17001  0.20052  0.74109  1
 O  O1  1  0.08693  0.59565  0.62088  1
 O  O2  1  0.40435  0.91307  0.12088  1
