CIF file written using JARVIS-Tools package.
data_V6CoNi
_symmetry_space_group_name_H-M  'Pm-3'
_cell_length_a       4.64464
_cell_length_b       4.64464
_cell_length_c       4.64464
_cell_angle_alpha    90
_cell_angle_beta     90
_cell_angle_gamma    90

_symmetry_Int_Tables_number  200
_chemical_formula_structural  V6CoNi
_chemical_formula_sum  V6CoNi
_cell_volume  100.19722612510215
_cell_formula_units_Z  1
loop_
  _symmetry_equiv_pos_site_id
 _symmetry_equiv_pos_as_xyz
 1  'x, y, z'
loop_
 _atom_site_type_symbol
 _atom_site_label
 _atom_site_symmetry_multiplicity
 _atom_site_fract_x
 _atom_site_fract_y
 _atom_site_fract_z
 _atom_site_fract_occupancy
 Co  Co1  1  0.50000  0.50000  0.50000  1
 Ni  Ni1  1  0.00000  0.00000  0.00000  1
 V  V1  1  0.00000  0.50000  0.74856  1
 V  V2  1  0.50000  0.25144  0.00000  1
 V  V3  1  0.74856  0.00000  0.50000  1
 V  V4  1  0.00000  0.50000  0.25144  1
 V  V5  1  0.50000  0.74856  0.00000  1
 V  V6  1  0.25144  0.00000  0.50000  1
