CIF file written using JARVIS-Tools package.
data_Rb3Bi2
_symmetry_space_group_name_H-M  'C2/c'
_cell_length_a       6.98785
_cell_length_b       6.98785
_cell_length_c       9.7356
_cell_angle_alpha    79.4939
_cell_angle_beta     79.4939
_cell_angle_gamma    91.9878

_symmetry_Int_Tables_number  15
_chemical_formula_structural  Rb3Bi2
_chemical_formula_sum  Rb6Bi4
_cell_volume  458.4470333237441
_cell_formula_units_Z  2
loop_
  _symmetry_equiv_pos_site_id
 _symmetry_equiv_pos_as_xyz
 1  'x, y, z'
loop_
 _atom_site_type_symbol
 _atom_site_label
 _atom_site_symmetry_multiplicity
 _atom_site_fract_x
 _atom_site_fract_y
 _atom_site_fract_z
 _atom_site_fract_occupancy
 Bi  Bi1  1  0.31812  0.88449  0.84392  1
 Bi  Bi2  1  0.68188  0.11551  0.15608  1
 Bi  Bi3  1  0.11551  0.68188  0.65608  1
 Bi  Bi4  1  0.88449  0.31812  0.34392  1
 Rb  Rb1  1  0.65743  0.75758  0.51441  1
 Rb  Rb2  1  0.34257  0.24242  0.48559  1
 Rb  Rb3  1  0.24242  0.34257  0.98559  1
 Rb  Rb4  1  0.75758  0.65743  0.01441  1
 Rb  Rb5  1  0.84227  0.15773  0.75000  1
 Rb  Rb6  1  0.15773  0.84227  0.25000  1
