CIF file written using JARVIS-Tools package.
data_Ba2CdN2
_symmetry_space_group_name_H-M  'I4/mmm'
_cell_length_a       4.18871
_cell_length_b       4.18865
_cell_length_c       7.54697
_cell_angle_alpha    106.111
_cell_angle_beta     106.112
_cell_angle_gamma    90.0001

_symmetry_Int_Tables_number  139
_chemical_formula_structural  Ba2CdN2
_chemical_formula_sum  Ba2CdN2
_cell_volume  121.78882202454072
_cell_formula_units_Z  1
loop_
  _symmetry_equiv_pos_site_id
 _symmetry_equiv_pos_as_xyz
 1  'x, y, z'
loop_
 _atom_site_type_symbol
 _atom_site_label
 _atom_site_symmetry_multiplicity
 _atom_site_fract_x
 _atom_site_fract_y
 _atom_site_fract_z
 _atom_site_fract_occupancy
 Ba  Ba1  1  0.84004  0.84004  0.18008  1
 Ba  Ba2  1  0.15996  0.15996  0.81992  1
 Cd  Cd1  1  0.50000  0.50000  0.50000  1
 N  N1  1  0.35056  0.35056  0.20112  1
 N  N2  1  0.64944  0.64944  0.79888  1
