CIF file written using JARVIS-Tools package.
data_Cd
_symmetry_space_group_name_H-M  'R-3m'
_cell_length_a       3.07005
_cell_length_b       3.07006
_cell_length_c       3.07005
_cell_angle_alpha    65.6041
_cell_angle_beta     65.604
_cell_angle_gamma    65.6041

_symmetry_Int_Tables_number  166
_chemical_formula_structural  Cd
_chemical_formula_sum  Cd
_cell_volume  22.951215456057177
_cell_formula_units_Z  1
loop_
  _symmetry_equiv_pos_site_id
 _symmetry_equiv_pos_as_xyz
 1  'x, y, z'
loop_
 _atom_site_type_symbol
 _atom_site_label
 _atom_site_symmetry_multiplicity
 _atom_site_fract_x
 _atom_site_fract_y
 _atom_site_fract_z
 _atom_site_fract_occupancy
 Cd  Cd1  1  0.00000  0.00000  0.00000  1
