CIF file written using JARVIS-Tools package.
data_Bi2Te2Se
_symmetry_space_group_name_H-M  'R-3m'
_cell_length_a       10.5491
_cell_length_b       10.5491
_cell_length_c       10.5491
_cell_angle_alpha    23.819
_cell_angle_beta     23.819
_cell_angle_gamma    23.819

_symmetry_Int_Tables_number  166
_chemical_formula_structural  Bi2Te2Se
_chemical_formula_sum  Bi2Te2Se
_cell_volume  168.19783867759153
_cell_formula_units_Z  1
loop_
  _symmetry_equiv_pos_site_id
 _symmetry_equiv_pos_as_xyz
 1  'x, y, z'
loop_
 _atom_site_type_symbol
 _atom_site_label
 _atom_site_symmetry_multiplicity
 _atom_site_fract_x
 _atom_site_fract_y
 _atom_site_fract_z
 _atom_site_fract_occupancy
 Bi  Bi1  1  0.60617  0.60617  0.60617  1
 Bi  Bi2  1  0.39382  0.39382  0.39382  1
 Se  Se1  1  0.00000  0.00000  0.00000  1
 Te  Te1  1  0.21500  0.21500  0.21500  1
 Te  Te2  1  0.78500  0.78500  0.78500  1
