CIF file written using JARVIS-Tools package.
data_LiVF4
_symmetry_space_group_name_H-M  'P2_1/c'
_cell_length_a       5.49951
_cell_length_b       4.68966
_cell_length_c       5.58908
_cell_angle_alpha    90
_cell_angle_beta     113.766
_cell_angle_gamma    90

_symmetry_Int_Tables_number  14
_chemical_formula_structural  LiVF4
_chemical_formula_sum  Li2V2F8
_cell_volume  131.92279078436894
_cell_formula_units_Z  2
loop_
  _symmetry_equiv_pos_site_id
 _symmetry_equiv_pos_as_xyz
 1  'x, y, z'
loop_
 _atom_site_type_symbol
 _atom_site_label
 _atom_site_symmetry_multiplicity
 _atom_site_fract_x
 _atom_site_fract_y
 _atom_site_fract_z
 _atom_site_fract_occupancy
 F  F1  1  0.13953  0.70141  0.84529  1
 F  F2  1  0.13953  0.79859  0.34529  1
 F  F3  1  0.33596  0.31315  0.63642  1
 F  F4  1  0.33596  0.18685  0.13642  1
 F  F5  1  0.66404  0.81315  0.86358  1
 F  F6  1  0.66404  0.68685  0.36358  1
 F  F7  1  0.86047  0.20141  0.65471  1
 F  F8  1  0.86047  0.29859  0.15471  1
 Li  Li1  1  0.50000  0.00000  0.50000  1
 Li  Li2  1  0.50000  0.50000  0.00000  1
 V  V1  1  0.00000  0.50000  0.50000  1
 V  V2  1  0.00000  0.00000  0.00000  1
