CIF file written using JARVIS-Tools package.
data_Ge2TeSe
_symmetry_space_group_name_H-M  'R-3m'
_cell_length_a       7.16306
_cell_length_b       7.16306
_cell_length_c       7.16306
_cell_angle_alpha    33.6311
_cell_angle_beta     33.6311
_cell_angle_gamma    33.631

_symmetry_Int_Tables_number  166
_chemical_formula_structural  Ge2TeSe
_chemical_formula_sum  Ge2TeSe
_cell_volume  100.43048131682923
_cell_formula_units_Z  1
loop_
  _symmetry_equiv_pos_site_id
 _symmetry_equiv_pos_as_xyz
 1  'x, y, z'
loop_
 _atom_site_type_symbol
 _atom_site_label
 _atom_site_symmetry_multiplicity
 _atom_site_fract_x
 _atom_site_fract_y
 _atom_site_fract_z
 _atom_site_fract_occupancy
 Ge  Ge1  1  0.24465  0.24465  0.24465  1
 Ge  Ge2  1  0.75535  0.75535  0.75535  1
 Se  Se1  1  0.50000  0.50000  0.50000  1
 Te  Te1  1  0.00000  0.00000  0.00000  1
