CIF file written using JARVIS-Tools package.
data_Ge
_symmetry_space_group_name_H-M  'R-3'
_cell_length_a       6.13182
_cell_length_b       6.13182
_cell_length_c       6.13182
_cell_angle_alpha    109.972
_cell_angle_beta     109.972
_cell_angle_gamma    109.972

_symmetry_Int_Tables_number  148
_chemical_formula_structural  Ge
_chemical_formula_sum  Ge8
_cell_volume  174.11141875416286
_cell_formula_units_Z  8
loop_
  _symmetry_equiv_pos_site_id
 _symmetry_equiv_pos_as_xyz
 1  'x, y, z'
loop_
 _atom_site_type_symbol
 _atom_site_label
 _atom_site_symmetry_multiplicity
 _atom_site_fract_x
 _atom_site_fract_y
 _atom_site_fract_z
 _atom_site_fract_occupancy
 Ge  Ge1  1  0.28516  0.28516  0.28516  1
 Ge  Ge2  1  0.71484  0.71484  0.71484  1
 Ge  Ge3  1  0.46872  0.97190  0.27659  1
 Ge  Ge4  1  0.27659  0.46872  0.97190  1
 Ge  Ge5  1  0.97190  0.27659  0.46872  1
 Ge  Ge6  1  0.53128  0.02810  0.72341  1
 Ge  Ge7  1  0.72341  0.53128  0.02810  1
 Ge  Ge8  1  0.02810  0.72341  0.53128  1
