CIF file written using JARVIS-Tools package.
data_BaAg2GeS4
_symmetry_space_group_name_H-M  'I-42m'
_cell_length_a       6.32307
_cell_length_b       6.32306
_cell_length_c       6.32307
_cell_angle_alpha    100.226
_cell_angle_beta     114.282
_cell_angle_gamma    114.282

_symmetry_Int_Tables_number  121
_chemical_formula_structural  BaAg2GeS4
_chemical_formula_sum  BaAg2GeS4
_cell_volume  190.89800275869987
_cell_formula_units_Z  1
loop_
  _symmetry_equiv_pos_site_id
 _symmetry_equiv_pos_as_xyz
 1  'x, y, z'
loop_
 _atom_site_type_symbol
 _atom_site_label
 _atom_site_symmetry_multiplicity
 _atom_site_fract_x
 _atom_site_fract_y
 _atom_site_fract_z
 _atom_site_fract_occupancy
 Ag  Ag1  1  0.50000  0.25000  0.75000  1
 Ag  Ag2  1  0.50000  0.75000  0.25000  1
 Ba  Ba1  1  0.00000  0.00000  0.00000  1
 Ge  Ge1  1  -0.00000  0.50000  0.50000  1
 S  S1  1  0.61916  0.15243  0.15243  1
 S  S2  1  -0.00000  0.84757  0.46672  1
 S  S3  1  0.00000  0.46672  0.84757  1
 S  S4  1  0.38084  0.53328  0.53328  1
