CIF file written using JARVIS-Tools package.
data_BaY2F8
_symmetry_space_group_name_H-M  'P4/mmm'
_cell_length_a       5.4218
_cell_length_b       5.42166
_cell_length_c       6.33495
_cell_angle_alpha    90
_cell_angle_beta     90
_cell_angle_gamma    90

_symmetry_Int_Tables_number  123
_chemical_formula_structural  BaY2F8
_chemical_formula_sum  BaY2F8
_cell_volume  186.21687500974988
_cell_formula_units_Z  1
loop_
  _symmetry_equiv_pos_site_id
 _symmetry_equiv_pos_as_xyz
 1  'x, y, z'
loop_
 _atom_site_type_symbol
 _atom_site_label
 _atom_site_symmetry_multiplicity
 _atom_site_fract_x
 _atom_site_fract_y
 _atom_site_fract_z
 _atom_site_fract_occupancy
 Ba  Ba1  1  0.00000  0.99969  0.50000  1
 F  F1  1  0.75272  0.24696  0.79928  1
 F  F2  1  0.24728  0.24696  0.20072  1
 F  F3  1  0.75272  0.24696  0.20072  1
 F  F4  1  0.24728  0.24696  0.79928  1
 F  F5  1  0.75271  0.75238  0.79927  1
 F  F6  1  0.75271  0.75238  0.20073  1
 F  F7  1  0.24729  0.75238  0.79927  1
 F  F8  1  0.24729  0.75238  0.20073  1
 Y  Y1  1  0.50000  0.99965  0.00000  1
 Y  Y2  1  0.00000  0.49966  0.00000  1
