CIF file written using JARVIS-Tools package.
data_LaPmMg2
_symmetry_space_group_name_H-M  'Fm-3m'
_cell_length_a       5.50152
_cell_length_b       5.50153
_cell_length_c       5.50153
_cell_angle_alpha    60
_cell_angle_beta     60
_cell_angle_gamma    60.0001

_symmetry_Int_Tables_number  225
_chemical_formula_structural  LaPmMg2
_chemical_formula_sum  LaPmMg2
_cell_volume  117.74292309470091
_cell_formula_units_Z  1
loop_
  _symmetry_equiv_pos_site_id
 _symmetry_equiv_pos_as_xyz
 1  'x, y, z'
loop_
 _atom_site_type_symbol
 _atom_site_label
 _atom_site_symmetry_multiplicity
 _atom_site_fract_x
 _atom_site_fract_y
 _atom_site_fract_z
 _atom_site_fract_occupancy
 La  La1  1  0.50000  0.50000  0.50000  1
 Mg  Mg1  1  0.25000  0.25000  0.25000  1
 Mg  Mg2  1  0.75000  0.75000  0.75000  1
 Pm  Pm1  1  0.00000  0.00000  0.00000  1
