CIF file written using JARVIS-Tools package.
data_TeH6O6
_symmetry_space_group_name_H-M  'P-1'
_cell_length_a       5.06992
_cell_length_b       4.99907
_cell_length_c       5.29242
_cell_angle_alpha    107.708
_cell_angle_beta     94.291
_cell_angle_gamma    96.7779

_symmetry_Int_Tables_number  2
_chemical_formula_structural  TeH6O6
_chemical_formula_sum  TeH6O6
_cell_volume  126.01478017748776
_cell_formula_units_Z  1
loop_
  _symmetry_equiv_pos_site_id
 _symmetry_equiv_pos_as_xyz
 1  'x, y, z'
loop_
 _atom_site_type_symbol
 _atom_site_label
 _atom_site_symmetry_multiplicity
 _atom_site_fract_x
 _atom_site_fract_y
 _atom_site_fract_z
 _atom_site_fract_occupancy
 H  H1  1  0.40344  0.16651  -0.17188  1
 H  H2  1  0.81734  0.75672  0.51853  1
 H  H3  1  0.76401  0.42822  0.07346  1
 H  H4  1  0.57692  0.81381  0.16036  1
 H  H5  1  0.16296  0.22360  0.46998  1
 H  H6  1  0.21636  0.55217  0.91498  1
 O  O1  1  0.20783  0.17523  0.78065  1
 O  O2  1  0.80775  0.69789  0.68266  1
 O  O3  1  0.71653  0.22517  -0.04052  1
 O  O4  1  0.77254  0.80513  0.20786  1
 O  O5  1  0.17260  0.28245  0.30587  1
 O  O6  1  0.26384  0.75520  0.02899  1
 Te  Te1  1  0.99018  0.99019  0.99425  1
