CIF file written using JARVIS-Tools package.
data_H12C14SN2
_symmetry_space_group_name_H-M  'Pmc2_1'
_cell_length_a       5.87805
_cell_length_b       7.32189
_cell_length_c       12.6056
_cell_angle_alpha    89.9993
_cell_angle_beta     89.9999
_cell_angle_gamma    89.9974

_symmetry_Int_Tables_number  26
_chemical_formula_structural  H12C14SN2
_chemical_formula_sum  H24C28S2N4
_cell_volume  542.5237611068577
_cell_formula_units_Z  2
loop_
  _symmetry_equiv_pos_site_id
 _symmetry_equiv_pos_as_xyz
 1  'x, y, z'
loop_
 _atom_site_type_symbol
 _atom_site_label
 _atom_site_symmetry_multiplicity
 _atom_site_fract_x
 _atom_site_fract_y
 _atom_site_fract_z
 _atom_site_fract_occupancy
 C  C1  1  0.67391  0.11088  0.49468  1
 C  C2  1  0.83826  0.01794  0.55464  1
 C  C3  1  0.77325  0.92387  0.65742  1
 C  C4  1  0.83827  0.01795  0.76019  1
 C  C5  1  0.67392  0.11088  0.82016  1
 C  C6  1  0.10934  0.06996  0.90234  1
 C  C7  1  0.94055  0.15365  0.96293  1
 C  C8  1  0.72293  0.17876  0.92082  1
 C  C9  1  0.90410  0.14561  0.15742  1
 C  C10  1  0.72291  0.17876  0.39401  1
 C  C11  1  0.05806  0.00224  0.80170  1
 C  C12  1  0.94054  0.15365  0.35190  1
 C  C13  1  0.46772  0.61089  0.49467  1
 C  C14  1  0.08360  0.50224  0.80170  1
 C  C15  1  0.20108  0.65365  0.35190  1
 C  C16  1  0.03231  0.56994  0.41249  1
 C  C17  1  0.08361  0.50223  0.51313  1
 C  C18  1  0.23750  0.64560  0.15741  1
 C  C19  1  0.41870  0.67877  0.39401  1
 C  C20  1  0.30339  0.51795  0.55464  1
 C  C21  1  0.30339  0.51795  0.76019  1
 C  C22  1  0.46771  0.61089  0.82016  1
 C  C23  1  0.41869  0.67876  0.92082  1
 C  C24  1  0.20106  0.65364  0.96293  1
 C  C25  1  0.03230  0.56995  0.90234  1
 C  C26  1  0.36843  0.42388  0.65742  1
 C  C27  1  0.05805  0.00224  0.51313  1
 C  C28  1  0.10932  0.06995  0.41249  1
 H  H1  1  0.86404  0.55049  0.37818  1
 H  H2  1  0.54713  0.75036  0.96737  1
 H  H3  1  0.14120  0.29294  0.23991  1
 H  H4  1  0.14122  0.29294  0.07492  1
 H  H5  1  0.27762  0.05051  0.93665  1
 H  H6  1  0.18775  0.92654  0.75799  1
 H  H7  1  0.59447  0.25036  0.96736  1
 H  H8  1  0.58821  0.90136  0.65742  1
 H  H9  1  0.85331  0.78754  0.65742  1
 H  H10  1  0.27760  0.05050  0.37818  1
 H  H11  1  0.50286  0.12668  0.52649  1
 H  H12  1  0.59446  0.25037  0.34748  1
 H  H13  1  0.18775  0.92653  0.55684  1
 H  H14  1  0.00038  0.79295  0.07492  1
 H  H15  1  0.63877  0.62669  0.78835  1
 H  H16  1  0.86402  0.55049  0.93664  1
 H  H17  1  0.50286  0.12668  0.78835  1
 H  H18  1  0.54714  0.75038  0.34747  1
 H  H19  1  0.28841  0.28755  0.65742  1
 H  H20  1  0.95392  0.42653  0.75799  1
 H  H21  1  0.63878  0.62670  0.52648  1
 H  H22  1  0.95393  0.42652  0.55684  1
 H  H23  1  0.00040  0.79296  0.23991  1
 H  H24  1  0.55348  0.40139  0.65742  1
 N  N1  1  0.14607  0.71536  0.24792  1
 N  N2  1  0.99554  0.21534  0.06691  1
 N  N3  1  0.14605  0.71534  0.06690  1
 N  N4  1  0.99553  0.21535  0.24793  1
 S  S1  1  0.43925  0.47872  0.15742  1
 S  S2  1  0.70233  0.97875  0.15742  1
