CIF file written using JARVIS-Tools package.
data_TmMn2SiC
_symmetry_space_group_name_H-M  'Cmcm'
_cell_length_a       5.56688
_cell_length_b       5.56687
_cell_length_c       6.93739
_cell_angle_alpha    90
_cell_angle_beta     90
_cell_angle_gamma    141.72

_symmetry_Int_Tables_number  63
_chemical_formula_structural  TmMn2SiC
_chemical_formula_sum  Tm2Mn4Si2C2
_cell_volume  133.18685339121166
_cell_formula_units_Z  2
loop_
  _symmetry_equiv_pos_site_id
 _symmetry_equiv_pos_as_xyz
 1  'x, y, z'
loop_
 _atom_site_type_symbol
 _atom_site_label
 _atom_site_symmetry_multiplicity
 _atom_site_fract_x
 _atom_site_fract_y
 _atom_site_fract_z
 _atom_site_fract_occupancy
 C  C1  1  0.00000  0.00000  0.00000  1
 C  C2  1  0.00000  0.00000  0.50000  1
 Mn  Mn1  1  0.83174  0.16826  0.06098  1
 Mn  Mn2  1  0.16826  0.83174  0.93902  1
 Mn  Mn3  1  0.16826  0.83174  0.56098  1
 Mn  Mn4  1  0.83174  0.16826  0.43902  1
 Si  Si1  1  0.26394  0.73606  0.25000  1
 Si  Si2  1  0.73606  0.26394  0.75000  1
 Tm  Tm1  1  0.54266  0.45734  0.25000  1
 Tm  Tm2  1  0.45734  0.54266  0.75000  1
