CIF file written using JARVIS-Tools package.
data_Fe4N
_symmetry_space_group_name_H-M  'R-3m'
_cell_length_a       8.37055
_cell_length_b       8.37055
_cell_length_c       8.37055
_cell_angle_alpha    18.3347
_cell_angle_beta     18.3347
_cell_angle_gamma    18.3346

_symmetry_Int_Tables_number  166
_chemical_formula_structural  Fe4N
_chemical_formula_sum  Fe4N
_cell_volume  50.688300523559626
_cell_formula_units_Z  1
loop_
  _symmetry_equiv_pos_site_id
 _symmetry_equiv_pos_as_xyz
 1  'x, y, z'
loop_
 _atom_site_type_symbol
 _atom_site_label
 _atom_site_symmetry_multiplicity
 _atom_site_fract_x
 _atom_site_fract_y
 _atom_site_fract_z
 _atom_site_fract_occupancy
 Fe  Fe1  1  0.87278  0.87278  0.87278  1
 Fe  Fe2  1  0.12722  0.12722  0.12722  1
 Fe  Fe3  1  0.38009  0.38009  0.38009  1
 Fe  Fe4  1  0.61991  0.61991  0.61991  1
 N  N1  1  0.00000  0.00000  0.00000  1
