CIF file written using JARVIS-Tools package.
data_Na2Cu3O4
_symmetry_space_group_name_H-M  'Immm'
_cell_length_a       7.04412
_cell_length_b       7.04412
_cell_length_c       7.04412
_cell_angle_alpha    155.76
_cell_angle_beta     135.257
_cell_angle_gamma    51.5299

_symmetry_Int_Tables_number  71
_chemical_formula_structural  Na2Cu3O4
_chemical_formula_sum  Na2Cu3O4
_cell_volume  100.62052710097646
_cell_formula_units_Z  1
loop_
  _symmetry_equiv_pos_site_id
 _symmetry_equiv_pos_as_xyz
 1  'x, y, z'
loop_
 _atom_site_type_symbol
 _atom_site_label
 _atom_site_symmetry_multiplicity
 _atom_site_fract_x
 _atom_site_fract_y
 _atom_site_fract_z
 _atom_site_fract_occupancy
 Cu  Cu1  1  0.89660  0.39660  0.50000  1
 Cu  Cu2  1  0.50000  -0.00000  0.50000  1
 Cu  Cu3  1  0.10340  0.60340  0.50000  1
 Na  Na1  1  0.29627  0.29627  -0.00000  1
 Na  Na2  1  0.70373  0.70373  0.00000  1
 O  O1  1  0.87403  0.11362  0.76041  1
 O  O2  1  0.35321  0.11362  0.23959  1
 O  O3  1  0.12597  0.88638  0.23959  1
 O  O4  1  0.64679  0.88638  0.76041  1
