CIF file written using JARVIS-Tools package.
data_Li8BiO6
_symmetry_space_group_name_H-M  'R-3'
_cell_length_a       5.60262
_cell_length_b       6.26984
_cell_length_c       5.60262
_cell_angle_alpha    116.538
_cell_angle_beta     60
_cell_angle_gamma    116.538

_symmetry_Int_Tables_number  148
_chemical_formula_structural  Li8BiO6
_chemical_formula_sum  Li8BiO6
_cell_volume  146.0051776878919
_cell_formula_units_Z  1
loop_
  _symmetry_equiv_pos_site_id
 _symmetry_equiv_pos_as_xyz
 1  'x, y, z'
loop_
 _atom_site_type_symbol
 _atom_site_label
 _atom_site_symmetry_multiplicity
 _atom_site_fract_x
 _atom_site_fract_y
 _atom_site_fract_z
 _atom_site_fract_occupancy
 Bi  Bi1  1  0.00000  0.00000  0.00000  1
 Li  Li1  1  0.09862  0.36712  0.49431  1
 Li  Li2  1  0.50569  0.63288  0.22580  1
 Li  Li3  1  0.22580  0.63288  0.90138  1
 Li  Li4  1  0.35847  0.07541  0.35847  1
 Li  Li5  1  0.64153  0.92459  0.64153  1
 Li  Li6  1  0.77420  0.36712  0.09862  1
 Li  Li7  1  0.49431  0.36712  0.77420  1
 Li  Li8  1  0.90138  0.63288  0.50569  1
 O  O1  1  0.24459  0.73934  0.60088  1
 O  O2  1  0.39912  0.26066  0.10613  1
 O  O3  1  0.10613  0.26066  0.75541  1
 O  O4  1  0.89387  0.73934  0.24459  1
 O  O5  1  0.60088  0.73934  0.89387  1
 O  O6  1  0.75541  0.26066  0.39912  1
