data_image0
_chemical_formula_structural       N3V6
_chemical_formula_sum              "N3 V6"
_cell_length_a       4.89454
_cell_length_b       4.89455
_cell_length_c       4.51824
_cell_angle_alpha    90.0011
_cell_angle_beta     89.9994
_cell_angle_gamma    120

_space_group_name_H-M_alt    "P 1"
_space_group_IT_number       1

loop_
  _space_group_symop_operation_xyz
  'x, y, z'

loop_
  _atom_site_type_symbol
  _atom_site_label
  _atom_site_symmetry_multiplicity
  _atom_site_fract_x
  _atom_site_fract_y
  _atom_site_fract_z
  _atom_site_occupancy
  N   N1        1.0  0.00000  0.00000  0.00000  1.0000
  N   N2        1.0  0.33300  0.66700  0.50000  1.0000
  N   N3        1.0  0.66700  0.33300  0.50000  1.0000
  V   V1        1.0  0.66400  0.66400  0.24600  1.0000
  V   V2        1.0  0.33600  0.00000  0.24600  1.0000
  V   V3        1.0  0.00000  0.33600  0.24600  1.0000
  V   V4        1.0  0.00000  0.66400  0.75400  1.0000
  V   V5        1.0  0.33600  0.33600  0.75400  1.0000
  V   V6        1.0  0.66400  0.00000  0.75400  1.0000
