CIF file written using JARVIS-Tools package.
data_UFeCo
_symmetry_space_group_name_H-M  'Imma'
_cell_length_a       4.89421
_cell_length_b       4.8942
_cell_length_c       4.89421
_cell_angle_alpha    121.374
_cell_angle_beta     119.492
_cell_angle_gamma    89.259

_symmetry_Int_Tables_number  74
_chemical_formula_structural  UFeCo
_chemical_formula_sum  U2Fe2Co2
_cell_volume  82.31697329252646
_cell_formula_units_Z  2
loop_
  _symmetry_equiv_pos_site_id
 _symmetry_equiv_pos_as_xyz
 1  'x, y, z'
loop_
 _atom_site_type_symbol
 _atom_site_label
 _atom_site_symmetry_multiplicity
 _atom_site_fract_x
 _atom_site_fract_y
 _atom_site_fract_z
 _atom_site_fract_occupancy
 Co  Co1  1  0.50000  0.50000  0.50000  1
 Co  Co2  1  0.50000  -0.00000  0.00000  1
 Fe  Fe1  1  0.50000  0.50000  0.00000  1
 Fe  Fe2  1  0.00000  0.50000  0.50000  1
 U  U1  1  0.12110  0.87110  0.25000  1
 U  U2  1  0.87890  0.12890  0.75000  1
