CIF file written using JARVIS-Tools package.
data_Dy2CuAg3
_symmetry_space_group_name_H-M  'P4mm'
_cell_length_a       3.66741
_cell_length_b       3.66741
_cell_length_c       9.07477
_cell_angle_alpha    90
_cell_angle_beta     90
_cell_angle_gamma    90

_symmetry_Int_Tables_number  99
_chemical_formula_structural  Dy2CuAg3
_chemical_formula_sum  Dy2CuAg3
_cell_volume  122.05481712865327
_cell_formula_units_Z  1
loop_
  _symmetry_equiv_pos_site_id
 _symmetry_equiv_pos_as_xyz
 1  'x, y, z'
loop_
 _atom_site_type_symbol
 _atom_site_label
 _atom_site_symmetry_multiplicity
 _atom_site_fract_x
 _atom_site_fract_y
 _atom_site_fract_z
 _atom_site_fract_occupancy
 Ag  Ag1  1  0.00000  0.00000  0.67120  1
 Ag  Ag2  1  0.00000  0.00000  0.32541  1
 Ag  Ag3  1  0.50000  0.50000  0.83353  1
 Cu  Cu1  1  0.50000  0.50000  0.16666  1
 Dy  Dy1  1  0.00000  0.00000  0.00869  1
 Dy  Dy2  1  0.50000  0.50000  0.49451  1
