CIF file written using JARVIS-Tools package.
data_NaNd2Se3
_symmetry_space_group_name_H-M  'Immm'
_cell_length_a       7.34925
_cell_length_b       7.34925
_cell_length_c       7.34925
_cell_angle_alpha    146.742
_cell_angle_beta     132.14
_cell_angle_gamma    59.5254

_symmetry_Int_Tables_number  71
_chemical_formula_structural  NaNd2Se3
_chemical_formula_sum  NaNd2Se3
_cell_volume  159.99263181508465
_cell_formula_units_Z  1
loop_
  _symmetry_equiv_pos_site_id
 _symmetry_equiv_pos_as_xyz
 1  'x, y, z'
loop_
 _atom_site_type_symbol
 _atom_site_label
 _atom_site_symmetry_multiplicity
 _atom_site_fract_x
 _atom_site_fract_y
 _atom_site_fract_z
 _atom_site_fract_occupancy
 Na  Na1  1  0.00000  0.00000  0.00000  1
 Nd  Nd1  1  0.66454  0.66454  0.00000  1
 Nd  Nd2  1  0.33546  0.33546  0.00000  1
 Se  Se1  1  0.83335  0.33335  0.50000  1
 Se  Se2  1  0.50000  0.00000  0.50000  1
 Se  Se3  1  0.16665  0.66665  0.50000  1
