CIF file written using JARVIS-Tools package.
data_DyMgAu
_symmetry_space_group_name_H-M  'P-62m'
_cell_length_a       7.54943
_cell_length_b       7.54943
_cell_length_c       4.08608
_cell_angle_alpha    90
_cell_angle_beta     90
_cell_angle_gamma    120

_symmetry_Int_Tables_number  189
_chemical_formula_structural  DyMgAu
_chemical_formula_sum  Dy3Mg3Au3
_cell_volume  201.68122097666426
_cell_formula_units_Z  3
loop_
  _symmetry_equiv_pos_site_id
 _symmetry_equiv_pos_as_xyz
 1  'x, y, z'
loop_
 _atom_site_type_symbol
 _atom_site_label
 _atom_site_symmetry_multiplicity
 _atom_site_fract_x
 _atom_site_fract_y
 _atom_site_fract_z
 _atom_site_fract_occupancy
 Au  Au1  1  0.33333  0.66667  0.50000  1
 Au  Au2  1  0.66667  0.33333  0.50000  1
 Au  Au3  1  0.00000  0.00000  0.00000  1
 Dy  Dy1  1  0.58910  0.00000  0.00000  1
 Dy  Dy2  1  0.00000  0.58910  0.00000  1
 Dy  Dy3  1  0.41090  0.41090  0.00000  1
 Mg  Mg1  1  0.24721  -0.00000  0.50000  1
 Mg  Mg2  1  -0.00000  0.24721  0.50000  1
 Mg  Mg3  1  0.75279  0.75279  0.50000  1
