CIF file written using JARVIS-Tools package.
data_BiO2
_symmetry_space_group_name_H-M  'R-3m'
_cell_length_a       3.80585
_cell_length_b       3.80588
_cell_length_c       8.00193
_cell_angle_alpha    90.0095
_cell_angle_beta     118.362
_cell_angle_gamma    119.992

_symmetry_Int_Tables_number  166
_chemical_formula_structural  BiO2
_chemical_formula_sum  Bi2O4
_cell_volume  83.93049923983308
_cell_formula_units_Z  2
loop_
  _symmetry_equiv_pos_site_id
 _symmetry_equiv_pos_as_xyz
 1  'x, y, z'
loop_
 _atom_site_type_symbol
 _atom_site_label
 _atom_site_symmetry_multiplicity
 _atom_site_fract_x
 _atom_site_fract_y
 _atom_site_fract_z
 _atom_site_fract_occupancy
 Bi  Bi1  1  0.00030  -0.00206  0.50208  1
 Bi  Bi2  1  0.00025  -0.00192  0.00208  1
 O  O1  1  0.45989  0.22783  0.34674  1
 O  O2  1  0.79419  0.39507  0.09763  1
 O  O3  1  0.54066  0.76823  0.65743  1
 O  O4  1  0.20628  0.60109  0.90651  1
