CIF file written using JARVIS-Tools package.
data_Tb2SeO2
_symmetry_space_group_name_H-M  'I4/mmm'
_cell_length_a       3.83665
_cell_length_b       3.8366
_cell_length_c       12.1253
_cell_angle_alpha    90
_cell_angle_beta     90
_cell_angle_gamma    90

_symmetry_Int_Tables_number  139
_chemical_formula_structural  Tb2SeO2
_chemical_formula_sum  Tb4Se2O4
_cell_volume  178.48076300078765
_cell_formula_units_Z  2
loop_
  _symmetry_equiv_pos_site_id
 _symmetry_equiv_pos_as_xyz
 1  'x, y, z'
loop_
 _atom_site_type_symbol
 _atom_site_label
 _atom_site_symmetry_multiplicity
 _atom_site_fract_x
 _atom_site_fract_y
 _atom_site_fract_z
 _atom_site_fract_occupancy
 O  O1  1  0.50000  0.00043  0.25000  1
 O  O2  1  0.00000  0.49957  0.75000  1
 O  O3  1  0.00000  0.50043  0.25000  1
 O  O4  1  0.50000  -0.00043  0.75000  1
 Se  Se1  1  0.00000  0.00000  0.00000  1
 Se  Se2  1  0.50000  0.50000  0.50000  1
 Tb  Tb1  1  0.00000  0.00048  0.34495  1
 Tb  Tb2  1  0.50000  0.49952  0.84495  1
 Tb  Tb3  1  0.50000  0.50048  0.15505  1
 Tb  Tb4  1  0.00000  -0.00048  0.65505  1
