CIF file written using JARVIS-Tools package.
data_DyCl3
_symmetry_space_group_name_H-M  'Cmcm'
_cell_length_a       3.79717
_cell_length_b       6.19528
_cell_length_c       8.48139
_cell_angle_alpha    90
_cell_angle_beta     90
_cell_angle_gamma    107.846

_symmetry_Int_Tables_number  63
_chemical_formula_structural  DyCl3
_chemical_formula_sum  Dy2Cl6
_cell_volume  189.92055665826592
_cell_formula_units_Z  2
loop_
  _symmetry_equiv_pos_site_id
 _symmetry_equiv_pos_as_xyz
 1  'x, y, z'
loop_
 _atom_site_type_symbol
 _atom_site_label
 _atom_site_symmetry_multiplicity
 _atom_site_fract_x
 _atom_site_fract_y
 _atom_site_fract_z
 _atom_site_fract_occupancy
 Cl  Cl1  1  0.58455  0.16910  0.75000  1
 Cl  Cl2  1  0.41545  0.83090  0.25000  1
 Cl  Cl3  1  0.14737  0.29474  0.43360  1
 Cl  Cl4  1  0.85263  0.70526  0.56640  1
 Cl  Cl5  1  0.85263  0.70526  0.93360  1
 Cl  Cl6  1  0.14737  0.29474  0.06640  1
 Dy  Dy1  1  0.24268  0.48536  0.75000  1
 Dy  Dy2  1  0.75732  0.51464  0.25000  1
