CIF file written using JARVIS-Tools package.
data_ZnH8C6O4
_symmetry_space_group_name_H-M  'P1'
_cell_length_a       3.96413
_cell_length_b       4.91269
_cell_length_c       9.24568
_cell_angle_alpha    92.6859
_cell_angle_beta     94.1705
_cell_angle_gamma    112.728

_symmetry_Int_Tables_number  1
_chemical_formula_structural  ZnH8C6O4
_chemical_formula_sum  ZnH8C6O4
_cell_volume  165.08278652219337
_cell_formula_units_Z  1
loop_
  _symmetry_equiv_pos_site_id
 _symmetry_equiv_pos_as_xyz
 1  'x, y, z'
loop_
 _atom_site_type_symbol
 _atom_site_label
 _atom_site_symmetry_multiplicity
 _atom_site_fract_x
 _atom_site_fract_y
 _atom_site_fract_z
 _atom_site_fract_occupancy
 C  C1  1  0.10643  0.50233  0.96251  1
 C  C2  1  0.17018  0.72408  0.09074  1
 C  C3  1  0.23991  0.58875  0.23186  1
 C  C4  1  0.76589  0.93031  0.61048  1
 C  C5  1  0.52406  0.69539  0.49413  1
 C  C6  1  0.43404  0.82672  0.35654  1
 H  H1  1  0.65716  0.54220  0.46973  1
 H  H2  1  0.26869  0.56713  0.54232  1
 H  H3  1  0.69106  0.98619  0.32100  1
 H  H4  1  0.41130  0.46228  0.21125  1
 H  H5  1  0.41009  0.92527  0.07665  1
 H  H6  1  0.92909  0.78150  0.09476  1
 H  H7  1  0.26707  0.95446  0.38092  1
 H  H8  1  0.97820  0.42800  0.26260  1
 O  O1  1  0.00208  0.87246  0.69112  1
 O  O2  1  0.36064  0.55679  0.87690  1
 O  O3  1  0.72940  0.17836  0.62302  1
 O  O4  1  0.81643  0.26265  0.95051  1
 Zn  Zn1  1  0.43167  0.21459  0.78503  1
