CIF file written using JARVIS-Tools package.
data_Ce2InAu2
_symmetry_space_group_name_H-M  'P4/mbm'
_cell_length_a       8.09272
_cell_length_b       8.09272
_cell_length_c       3.88096
_cell_angle_alpha    90
_cell_angle_beta     90
_cell_angle_gamma    90

_symmetry_Int_Tables_number  127
_chemical_formula_structural  Ce2InAu2
_chemical_formula_sum  Ce4In2Au4
_cell_volume  254.17267099349752
_cell_formula_units_Z  2
loop_
  _symmetry_equiv_pos_site_id
 _symmetry_equiv_pos_as_xyz
 1  'x, y, z'
loop_
 _atom_site_type_symbol
 _atom_site_label
 _atom_site_symmetry_multiplicity
 _atom_site_fract_x
 _atom_site_fract_y
 _atom_site_fract_z
 _atom_site_fract_occupancy
 Au  Au1  1  0.12745  0.62745  0.00000  1
 Au  Au2  1  0.87255  0.37255  0.00000  1
 Au  Au3  1  0.62745  0.87255  0.00000  1
 Au  Au4  1  0.37255  0.12745  0.00000  1
 Ce  Ce1  1  0.67346  0.17346  0.50000  1
 Ce  Ce2  1  0.32654  0.82654  0.50000  1
 Ce  Ce3  1  0.17346  0.32654  0.50000  1
 Ce  Ce4  1  0.82654  0.67346  0.50000  1
 In  In1  1  0.00000  0.00000  0.00000  1
 In  In2  1  0.50000  0.50000  0.00000  1
