CIF file written using JARVIS-Tools package.
data_LiVF6
_symmetry_space_group_name_H-M  'C2/m'
_cell_length_a       5.1895
_cell_length_b       5.18951
_cell_length_c       5.0185
_cell_angle_alpha    61.0346
_cell_angle_beta     61.0346
_cell_angle_gamma    62.5976

_symmetry_Int_Tables_number  12
_chemical_formula_structural  LiVF6
_chemical_formula_sum  LiVF6
_cell_volume  98.8563175625034
_cell_formula_units_Z  1
loop_
  _symmetry_equiv_pos_site_id
 _symmetry_equiv_pos_as_xyz
 1  'x, y, z'
loop_
 _atom_site_type_symbol
 _atom_site_label
 _atom_site_symmetry_multiplicity
 _atom_site_fract_x
 _atom_site_fract_y
 _atom_site_fract_z
 _atom_site_fract_occupancy
 F  F1  1  0.19613  0.72281  0.80454  1
 F  F2  1  0.25096  0.25096  0.62859  1
 F  F3  1  0.31445  0.84104  0.16263  1
 F  F4  1  0.72281  0.19613  0.80454  1
 F  F5  1  0.78628  0.78628  0.33870  1
 F  F6  1  0.84104  0.31445  0.16263  1
 Li  Li1  1  0.51860  0.51860  0.48360  1
 V  V1  1  0.01861  0.01861  0.98361  1
