CIF file written using JARVIS-Tools package.
data_Co2OF3
_symmetry_space_group_name_H-M  'Imma'
_cell_length_a       5.51198
_cell_length_b       5.51198
_cell_length_c       5.51198
_cell_angle_alpha    70.4069
_cell_angle_beta     105.207
_cell_angle_gamma    66.2751

_symmetry_Int_Tables_number  74
_chemical_formula_structural  Co2OF3
_chemical_formula_sum  Co4O2F6
_cell_volume  128.2028094546855
_cell_formula_units_Z  2
loop_
  _symmetry_equiv_pos_site_id
 _symmetry_equiv_pos_as_xyz
 1  'x, y, z'
loop_
 _atom_site_type_symbol
 _atom_site_label
 _atom_site_symmetry_multiplicity
 _atom_site_fract_x
 _atom_site_fract_y
 _atom_site_fract_z
 _atom_site_fract_occupancy
 Co  Co1  1  0.25000  0.25000  0.50000  1
 Co  Co2  1  0.75000  0.75000  0.50000  1
 Co  Co3  1  0.00000  0.96032  0.03968  1
 Co  Co4  1  0.50000  0.53968  0.96032  1
 F  F1  1  0.04638  0.75000  0.79638  1
 F  F2  1  0.54638  0.25000  0.79638  1
 F  F3  1  -0.00000  0.27800  0.72200  1
 F  F4  1  0.50000  0.22200  0.27800  1
 F  F5  1  0.95362  0.25000  0.20362  1
 F  F6  1  0.45362  0.75000  0.20362  1
 O  O1  1  0.50000  0.82719  0.67281  1
 O  O2  1  -0.00000  0.67281  0.32719  1
