CIF file written using JARVIS-Tools package.
data_TaWSe4
_symmetry_space_group_name_H-M  'P-6m2'
_cell_length_a       3.40997
_cell_length_b       3.40997
_cell_length_c       13.0389
_cell_angle_alpha    90
_cell_angle_beta     90
_cell_angle_gamma    120

_symmetry_Int_Tables_number  187
_chemical_formula_structural  TaWSe4
_chemical_formula_sum  TaWSe4
_cell_volume  131.30237339546989
_cell_formula_units_Z  1
loop_
  _symmetry_equiv_pos_site_id
 _symmetry_equiv_pos_as_xyz
 1  'x, y, z'
loop_
 _atom_site_type_symbol
 _atom_site_label
 _atom_site_symmetry_multiplicity
 _atom_site_fract_x
 _atom_site_fract_y
 _atom_site_fract_z
 _atom_site_fract_occupancy
 Se  Se1  1  0.33333  0.66667  0.63073  1
 Se  Se2  1  0.00000  0.00000  0.87298  1
 Se  Se3  1  0.00000  0.00000  0.12702  1
 Se  Se4  1  0.33333  0.66667  0.36927  1
 Ta  Ta1  1  0.66667  0.33333  0.50000  1
 W  W1  1  0.66667  0.33333  0.00000  1
