CIF file written using JARVIS-Tools package.
data_Rb3Br2Cl
_symmetry_space_group_name_H-M  'I4/mmm'
_cell_length_a       10.691
_cell_length_b       10.691
_cell_length_c       10.691
_cell_angle_alpha    154.112
_cell_angle_beta     154.112
_cell_angle_gamma    36.9366

_symmetry_Int_Tables_number  139
_chemical_formula_structural  Rb3Br2Cl
_chemical_formula_sum  Rb3Br2Cl
_cell_volume  232.6165246531619
_cell_formula_units_Z  1
loop_
  _symmetry_equiv_pos_site_id
 _symmetry_equiv_pos_as_xyz
 1  'x, y, z'
loop_
 _atom_site_type_symbol
 _atom_site_label
 _atom_site_symmetry_multiplicity
 _atom_site_fract_x
 _atom_site_fract_y
 _atom_site_fract_z
 _atom_site_fract_occupancy
 Br  Br1  1  0.83268  0.83268  -0.00000  1
 Br  Br2  1  0.16732  0.16732  0.00000  1
 Cl  Cl1  1  0.50000  0.50000  0.00000  1
 Rb  Rb1  1  0.66297  0.66297  -0.00000  1
 Rb  Rb2  1  0.00000  0.00000  0.00000  1
 Rb  Rb3  1  0.33703  0.33703  0.00000  1
