CIF file written using JARVIS-Tools package.
data_TaNi3
_symmetry_space_group_name_H-M  'Pmmn'
_cell_length_a       4.25645
_cell_length_b       4.54771
_cell_length_c       5.11201
_cell_angle_alpha    90
_cell_angle_beta     90
_cell_angle_gamma    90

_symmetry_Int_Tables_number  59
_chemical_formula_structural  TaNi3
_chemical_formula_sum  Ta2Ni6
_cell_volume  98.95372094728792
_cell_formula_units_Z  2
loop_
  _symmetry_equiv_pos_site_id
 _symmetry_equiv_pos_as_xyz
 1  'x, y, z'
loop_
 _atom_site_type_symbol
 _atom_site_label
 _atom_site_symmetry_multiplicity
 _atom_site_fract_x
 _atom_site_fract_y
 _atom_site_fract_z
 _atom_site_fract_occupancy
 Ni  Ni1  1  0.00000  0.67909  0.00000  1
 Ni  Ni2  1  0.50000  0.32091  0.50000  1
 Ni  Ni3  1  0.50000  0.84051  0.24990  1
 Ni  Ni4  1  0.00000  0.15949  0.25010  1
 Ni  Ni5  1  0.50000  0.84051  0.75010  1
 Ni  Ni6  1  0.00000  0.15949  0.74990  1
 Ta  Ta1  1  0.50000  0.34830  0.00000  1
 Ta  Ta2  1  0.00000  0.65170  0.50000  1
