CIF file written using JARVIS-Tools package.
data_ZnH18C11O4
_symmetry_space_group_name_H-M  'P1'
_cell_length_a       3.96525
_cell_length_b       4.73316
_cell_length_c       15.539
_cell_angle_alpha    87.9583
_cell_angle_beta     87.5081
_cell_angle_gamma    68.1137

_symmetry_Int_Tables_number  1
_chemical_formula_structural  ZnH18C11O4
_chemical_formula_sum  ZnH8CO4
_cell_volume  270.3039659003449
_cell_formula_units_Z  1
loop_
  _symmetry_equiv_pos_site_id
 _symmetry_equiv_pos_as_xyz
 1  'x, y, z'
loop_
 _atom_site_type_symbol
 _atom_site_label
 _atom_site_symmetry_multiplicity
 _atom_site_fract_x
 _atom_site_fract_y
 _atom_site_fract_z
 _atom_site_fract_occupancy
 C  C1  1  0.26799  0.55647  0.66226  1
 C  C2  1  0.64490  0.66863  0.35135  1
 C  C3  1  0.46508  0.60018  0.50585  1
 C  C4  1  0.43133  0.38708  0.57918  1
 C  C5  1  0.63153  0.43909  0.42177  1
 C  C6  1  0.23205  0.34939  0.73704  1
 C  C7  1  0.05655  0.52434  0.81856  1
 C  C8  1  0.02742  0.31750  0.89407  1
 C  C9  1  0.82208  0.49699  0.97266  1
 C  C10  1  0.79366  0.29569  0.04805  1
 C  C11  1  0.82924  0.54067  0.26633  1
 H  H1  1  0.90728  0.27189  0.43273  1
 H  H2  1  0.79548  0.80594  0.37360  1
 H  H3  1  0.43575  0.68270  0.68165  1
 H  H4  1  0.37124  0.83445  0.33861  1
 H  H5  1  0.78278  0.68988  0.80382  1
 H  H6  1  0.96669  0.63617  0.99660  1
 H  H7  1  0.54719  0.65360  0.95693  1
 H  H8  1  0.88822  0.16980  0.87330  1
 H  H9  1  0.63004  0.72682  0.52679  1
 H  H10  1  0.70221  0.21265  0.59181  1
 H  H11  1  0.26285  0.26238  0.55914  1
 H  H12  1  0.50353  0.17980  0.75172  1
 H  H13  1  0.07049  0.21831  0.71719  1
 H  H14  1  0.30092  0.16427  0.91277  1
 H  H15  1  0.47048  0.31086  0.40006  1
 H  H16  1  0.19313  0.77397  0.49360  1
 H  H17  1  0.21332  0.66026  0.83764  1
 H  H18  1  -0.00277  0.73061  0.64923  1
 O  O1  1  0.76541  0.70816  0.19844  1
 O  O2  1  0.49655  0.37970  0.09234  1
 O  O3  1  0.06288  0.26666  0.26626  1
 O  O4  1  0.06596  0.05112  0.06521  1
 Zn  Zn1  1  0.36448  0.07746  0.16184  1
