CIF file written using JARVIS-Tools package.
data_TlNi2Se2
_symmetry_space_group_name_H-M  'I4/mmm'
_cell_length_a       3.89732
_cell_length_b       3.89732
_cell_length_c       7.22428
_cell_angle_alpha    105.649
_cell_angle_beta     105.649
_cell_angle_gamma    90

_symmetry_Int_Tables_number  139
_chemical_formula_structural  TlNi2Se2
_chemical_formula_sum  TlNi2Se2
_cell_volume  101.4327310820791
_cell_formula_units_Z  1
loop_
  _symmetry_equiv_pos_site_id
 _symmetry_equiv_pos_as_xyz
 1  'x, y, z'
loop_
 _atom_site_type_symbol
 _atom_site_label
 _atom_site_symmetry_multiplicity
 _atom_site_fract_x
 _atom_site_fract_y
 _atom_site_fract_z
 _atom_site_fract_occupancy
 Ni  Ni1  1  0.25000  0.75000  0.50000  1
 Ni  Ni2  1  0.75000  0.25000  0.50000  1
 Se  Se1  1  0.64774  0.64774  0.29549  1
 Se  Se2  1  0.35226  0.35226  0.70451  1
 Tl  Tl1  1  0.00000  0.00000  0.00000  1
