CIF file written using JARVIS-Tools package.
data_YbPrSe3
_symmetry_space_group_name_H-M  'Cmcm'
_cell_length_a       4.12581
_cell_length_b       7.47412
_cell_length_c       9.29912
_cell_angle_alpha    90
_cell_angle_beta     90
_cell_angle_gamma    106.022

_symmetry_Int_Tables_number  63
_chemical_formula_structural  YbPrSe3
_chemical_formula_sum  Yb2Pr2Se6
_cell_volume  275.6159454400713
_cell_formula_units_Z  2
loop_
  _symmetry_equiv_pos_site_id
 _symmetry_equiv_pos_as_xyz
 1  'x, y, z'
loop_
 _atom_site_type_symbol
 _atom_site_label
 _atom_site_symmetry_multiplicity
 _atom_site_fract_x
 _atom_site_fract_y
 _atom_site_fract_z
 _atom_site_fract_occupancy
 Pr  Pr1  1  0.75093  0.50187  0.75000  1
 Pr  Pr2  1  0.24907  0.49813  0.25000  1
 Se  Se1  1  0.89335  0.78669  0.25000  1
 Se  Se2  1  0.10665  0.21331  0.75000  1
 Se  Se3  1  0.35996  0.71992  0.57397  1
 Se  Se4  1  0.64004  0.28008  0.42603  1
 Se  Se5  1  0.35996  0.71992  0.92603  1
 Se  Se6  1  0.64004  0.28008  0.07397  1
 Yb  Yb1  1  0.00000  0.00000  0.00000  1
 Yb  Yb2  1  0.00000  0.00000  0.50000  1
