CIF file written using JARVIS-Tools package.
data_H8C9S
_symmetry_space_group_name_H-M  'P1'
_cell_length_a       5.19068
_cell_length_b       8.05354
_cell_length_c       8.4726
_cell_angle_alpha    84.3275
_cell_angle_beta     84.3721
_cell_angle_gamma    86.4322

_symmetry_Int_Tables_number  1
_chemical_formula_structural  H8C9S
_chemical_formula_sum  H6C8S2
_cell_volume  350.25549144516845
_cell_formula_units_Z  2
loop_
  _symmetry_equiv_pos_site_id
 _symmetry_equiv_pos_as_xyz
 1  'x, y, z'
loop_
 _atom_site_type_symbol
 _atom_site_label
 _atom_site_symmetry_multiplicity
 _atom_site_fract_x
 _atom_site_fract_y
 _atom_site_fract_z
 _atom_site_fract_occupancy
 C  C1  1  0.17845  0.45190  0.84581  1
 C  C2  1  0.91343  0.89916  0.77941  1
 C  C3  1  0.00972  0.57054  0.77160  1
 C  C4  1  0.97702  0.22691  0.74200  1
 C  C5  1  0.80789  0.51408  0.69600  1
 C  C6  1  0.79177  0.34397  0.68190  1
 C  C7  1  0.01414  0.05457  0.68490  1
 C  C8  1  0.08827  0.74884  0.24385  1
 C  C9  1  0.16391  0.28245  0.33012  1
 C  C10  1  0.91331  0.89922  0.27941  1
 C  C11  1  0.00961  0.57061  0.27158  1
 C  C12  1  0.97687  0.22697  0.24198  1
 C  C13  1  0.80777  0.51415  0.19599  1
 C  C14  1  0.79163  0.34404  0.18189  1
 C  C15  1  0.01396  0.05463  0.18488  1
 C  C16  1  0.17834  0.45196  0.34578  1
 C  C17  1  0.08838  0.74878  0.74386  1
 C  C18  1  0.16404  0.28239  0.83015  1
 H  H1  1  0.31212  0.19381  0.37654  1
 H  H2  1  0.33494  0.49342  0.40702  1
 H  H3  1  0.33503  0.49337  0.90705  1
 H  H4  1  0.64542  0.30339  0.61200  1
 H  H5  1  0.67588  0.60412  0.63575  1
 H  H6  1  0.92554  0.05769  0.57088  1
 H  H7  1  0.26103  0.76132  0.80856  1
 H  H8  1  0.22345  0.03024  0.65296  1
 H  H9  1  0.31225  0.19376  0.87657  1
 H  H10  1  0.64527  0.30347  0.11200  1
 H  H11  1  0.67576  0.60420  0.13575  1
 H  H12  1  0.16603  0.77067  0.11739  1
 H  H13  1  0.92529  0.05775  0.07089  1
 H  H14  1  0.26092  0.76139  0.30855  1
 H  H15  1  0.22326  0.03031  0.15289  1
 H  H16  1  0.16616  0.77059  0.61740  1
 S  S1  1  0.64872  0.89596  0.40186  1
 S  S2  1  0.64880  0.89591  0.90182  1
