CIF file written using JARVIS-Tools package.
data_Cd2SnGeAs4
_symmetry_space_group_name_H-M  'I-4'
_cell_length_a       7.34057
_cell_length_b       7.34057
_cell_length_c       7.34058
_cell_angle_alpha    130.682
_cell_angle_beta     130.682
_cell_angle_gamma    72.3189

_symmetry_Int_Tables_number  82
_chemical_formula_structural  Cd2SnGeAs4
_chemical_formula_sum  Cd2SnGeAs4
_cell_volume  222.3571878938671
_cell_formula_units_Z  1
loop_
  _symmetry_equiv_pos_site_id
 _symmetry_equiv_pos_as_xyz
 1  'x, y, z'
loop_
 _atom_site_type_symbol
 _atom_site_label
 _atom_site_symmetry_multiplicity
 _atom_site_fract_x
 _atom_site_fract_y
 _atom_site_fract_z
 _atom_site_fract_occupancy
 As  As1  1  0.10598  0.13388  0.50071  1
 As  As2  1  0.63317  0.60527  0.49929  1
 As  As3  1  0.39473  0.89402  0.02790  1
 As  As4  1  0.86612  0.36683  0.97210  1
 Cd  Cd1  1  0.25000  0.75000  0.50000  1
 Cd  Cd2  1  0.00000  0.00000  0.00000  1
 Ge  Ge1  1  0.75000  0.25000  0.50000  1
 Sn  Sn1  1  0.50000  0.50000  -0.00000  1
