CIF file written using JARVIS-Tools package.
data_Li2VF4
_symmetry_space_group_name_H-M  'Cmmm'
_cell_length_a       5.15583
_cell_length_b       5.15584
_cell_length_c       3.08221
_cell_angle_alpha    90
_cell_angle_beta     90
_cell_angle_gamma    112.224

_symmetry_Int_Tables_number  65
_chemical_formula_structural  Li2VF4
_chemical_formula_sum  Li2VF4
_cell_volume  75.84669503278266
_cell_formula_units_Z  1
loop_
  _symmetry_equiv_pos_site_id
 _symmetry_equiv_pos_as_xyz
 1  'x, y, z'
loop_
 _atom_site_type_symbol
 _atom_site_label
 _atom_site_symmetry_multiplicity
 _atom_site_fract_x
 _atom_site_fract_y
 _atom_site_fract_z
 _atom_site_fract_occupancy
 F  F1  1  0.75934  0.24066  0.00000  1
 F  F2  1  0.23786  0.23786  0.50000  1
 F  F3  1  0.76214  0.76214  0.50000  1
 F  F4  1  0.24066  0.75934  0.00000  1
 Li  Li1  1  0.50000  0.00000  0.50000  1
 Li  Li2  1  0.00000  0.50000  0.50000  1
 V  V1  1  0.00000  0.00000  0.00000  1
