CIF file written using JARVIS-Tools package.
data_NaCoO2
_symmetry_space_group_name_H-M  'R3m'
_cell_length_a       5.53883
_cell_length_b       5.53883
_cell_length_c       5.53883
_cell_angle_alpha    30.3502
_cell_angle_beta     30.3502
_cell_angle_gamma    30.3502

_symmetry_Int_Tables_number  160
_chemical_formula_structural  NaCoO2
_chemical_formula_sum  NaCoO2
_cell_volume  38.44834298369787
_cell_formula_units_Z  1
loop_
  _symmetry_equiv_pos_site_id
 _symmetry_equiv_pos_as_xyz
 1  'x, y, z'
loop_
 _atom_site_type_symbol
 _atom_site_label
 _atom_site_symmetry_multiplicity
 _atom_site_fract_x
 _atom_site_fract_y
 _atom_site_fract_z
 _atom_site_fract_occupancy
 Co  Co1  1  0.00086  0.00086  0.00086  1
 Na  Na1  1  0.83049  0.83049  0.83049  1
 O  O1  1  0.60441  0.60441  0.60441  1
 O  O2  1  0.39660  0.39660  0.39660  1
