CIF file written using JARVIS-Tools package.
data_Tl2GaCu3Se4
_symmetry_space_group_name_H-M  'C222'
_cell_length_a       7.53725
_cell_length_b       7.53726
_cell_length_c       5.62264
_cell_angle_alpha    90
_cell_angle_beta     90
_cell_angle_gamma    135.816

_symmetry_Int_Tables_number  21
_chemical_formula_structural  Tl2GaCu3Se4
_chemical_formula_sum  Tl2GaCu3Se4
_cell_volume  222.62771989278156
_cell_formula_units_Z  1
loop_
  _symmetry_equiv_pos_site_id
 _symmetry_equiv_pos_as_xyz
 1  'x, y, z'
loop_
 _atom_site_type_symbol
 _atom_site_label
 _atom_site_symmetry_multiplicity
 _atom_site_fract_x
 _atom_site_fract_y
 _atom_site_fract_z
 _atom_site_fract_occupancy
 Cu  Cu1  1  0.50000  0.50000  0.50000  1
 Cu  Cu2  1  0.50000  0.50000  0.00000  1
 Cu  Cu3  1  0.00000  0.00000  0.50000  1
 Ga  Ga1  1  0.00000  0.00000  0.00000  1
 Se  Se1  1  0.64348  0.86472  0.75439  1
 Se  Se2  1  0.13528  0.35652  0.24561  1
 Se  Se3  1  0.86472  0.64348  0.24561  1
 Se  Se4  1  0.35652  0.13528  0.75439  1
 Tl  Tl1  1  0.50000  0.00000  0.24797  1
 Tl  Tl2  1  -0.00000  0.50000  0.75203  1
