CIF file written using JARVIS-Tools package.
data_Sr2CuO3
_symmetry_space_group_name_H-M  'Immm'
_cell_length_a       3.51712
_cell_length_b       3.9554
_cell_length_c       6.87461
_cell_angle_alpha    106.719
_cell_angle_beta     104.821
_cell_angle_gamma    90

_symmetry_Int_Tables_number  71
_chemical_formula_structural  Sr2CuO3
_chemical_formula_sum  Sr2CuO3
_cell_volume  88.26611922991496
_cell_formula_units_Z  1
loop_
  _symmetry_equiv_pos_site_id
 _symmetry_equiv_pos_as_xyz
 1  'x, y, z'
loop_
 _atom_site_type_symbol
 _atom_site_label
 _atom_site_symmetry_multiplicity
 _atom_site_fract_x
 _atom_site_fract_y
 _atom_site_fract_z
 _atom_site_fract_occupancy
 Cu  Cu1  1  0.00000  0.50000  0.00000  1
 O  O1  1  0.00000  0.00000  0.00000  1
 O  O2  1  0.84482  0.34482  0.68964  1
 O  O3  1  0.15518  0.65518  0.31036  1
 Sr  Sr1  1  0.64706  0.14706  0.29413  1
 Sr  Sr2  1  0.35294  0.85294  0.70587  1
