CIF file written using JARVIS-Tools package.
data_Ho2MgNi2
_symmetry_space_group_name_H-M  'P4/mbm'
_cell_length_a       7.27993
_cell_length_b       7.27993
_cell_length_c       3.66937
_cell_angle_alpha    90
_cell_angle_beta     90
_cell_angle_gamma    90

_symmetry_Int_Tables_number  127
_chemical_formula_structural  Ho2MgNi2
_chemical_formula_sum  Ho4Mg2Ni4
_cell_volume  194.4668279782425
_cell_formula_units_Z  2
loop_
  _symmetry_equiv_pos_site_id
 _symmetry_equiv_pos_as_xyz
 1  'x, y, z'
loop_
 _atom_site_type_symbol
 _atom_site_label
 _atom_site_symmetry_multiplicity
 _atom_site_fract_x
 _atom_site_fract_y
 _atom_site_fract_z
 _atom_site_fract_occupancy
 Ho  Ho1  1  0.67063  0.17063  0.50000  1
 Ho  Ho2  1  0.32937  0.82937  0.50000  1
 Ho  Ho3  1  0.17063  0.32937  0.50000  1
 Ho  Ho4  1  0.82937  0.67063  0.50000  1
 Mg  Mg1  1  0.00000  0.00000  0.00000  1
 Mg  Mg2  1  0.50000  0.50000  0.00000  1
 Ni  Ni1  1  0.12388  0.62388  0.00000  1
 Ni  Ni2  1  0.87612  0.37612  0.00000  1
 Ni  Ni3  1  0.62388  0.87612  0.00000  1
 Ni  Ni4  1  0.37612  0.12388  0.00000  1
