CIF file written using JARVIS-Tools package.
data_Li2Cr2FeO6
_symmetry_space_group_name_H-M  'Cmce'
_cell_length_a       4.96392
_cell_length_b       4.96391
_cell_length_c       9.95423
_cell_angle_alpha    90
_cell_angle_beta     90
_cell_angle_gamma    119.374

_symmetry_Int_Tables_number  64
_chemical_formula_structural  Li2Cr2FeO6
_chemical_formula_sum  Li4Cr4Fe2O2
_cell_volume  213.74403473186916
_cell_formula_units_Z  2
loop_
  _symmetry_equiv_pos_site_id
 _symmetry_equiv_pos_as_xyz
 1  'x, y, z'
loop_
 _atom_site_type_symbol
 _atom_site_label
 _atom_site_symmetry_multiplicity
 _atom_site_fract_x
 _atom_site_fract_y
 _atom_site_fract_z
 _atom_site_fract_occupancy
 Cr  Cr1  1  0.16137  0.83863  0.50000  1
 Cr  Cr2  1  0.33863  0.66137  0.00000  1
 Cr  Cr3  1  0.66137  0.33863  0.00000  1
 Cr  Cr4  1  0.83863  0.16137  0.50000  1
 Fe  Fe1  1  0.00000  0.00000  0.00000  1
 Fe  Fe2  1  0.50000  0.50000  0.50000  1
 Li  Li1  1  0.14849  0.64849  0.75000  1
 Li  Li2  1  0.35151  0.85151  0.25000  1
 Li  Li3  1  0.64849  0.14849  0.75000  1
 Li  Li4  1  0.85151  0.35151  0.25000  1
 O  O1  1  0.83151  0.49371  0.60585  1
 O  O2  1  0.99371  0.33151  0.89415  1
 O  O3  1  0.16849  0.50629  0.39415  1
 O  O4  1  0.49371  0.83151  0.60585  1
 O  O5  1  0.00629  0.66849  0.10585  1
 O  O6  1  0.50629  0.16849  0.39415  1
 O  O7  1  0.67678  0.67678  0.89789  1
 O  O8  1  0.33151  0.99371  0.89415  1
 O  O9  1  0.82322  0.82322  0.39789  1
 O  O10  1  0.17678  0.17678  0.60211  1
 O  O11  1  0.32322  0.32322  0.10211  1
 O  O12  1  0.66849  0.00629  0.10585  1
