CIF file written using JARVIS-Tools package.
data_InAg2BiSe4
_symmetry_space_group_name_H-M  'C2/m'
_cell_length_a       7.01902
_cell_length_b       7.01902
_cell_length_c       7.10058
_cell_angle_alpha    80.1155
_cell_angle_beta     80.1155
_cell_angle_gamma    33.9217

_symmetry_Int_Tables_number  12
_chemical_formula_structural  InAg2BiSe4
_chemical_formula_sum  InAg2BiSe4
_cell_volume  192.05148487637936
_cell_formula_units_Z  1
loop_
  _symmetry_equiv_pos_site_id
 _symmetry_equiv_pos_as_xyz
 1  'x, y, z'
loop_
 _atom_site_type_symbol
 _atom_site_label
 _atom_site_symmetry_multiplicity
 _atom_site_fract_x
 _atom_site_fract_y
 _atom_site_fract_z
 _atom_site_fract_occupancy
 Ag  Ag1  1  0.25481  0.25481  0.75043  1
 Ag  Ag2  1  0.74519  0.74519  0.24957  1
 Bi  Bi1  1  -0.00000  -0.00000  0.50000  1
 In  In1  1  0.50000  0.50000  0.00000  1
 Se  Se1  1  0.12643  0.12643  0.11273  1
 Se  Se2  1  0.63105  0.63105  0.63288  1
 Se  Se3  1  0.87357  0.87357  0.88727  1
 Se  Se4  1  0.36895  0.36895  0.36712  1
