CIF file written using JARVIS-Tools package.
data_CuCO3
_symmetry_space_group_name_H-M  'Cm'
_cell_length_a       3.06454
_cell_length_b       4.65771
_cell_length_c       4.65772
_cell_angle_alpha    62.3152
_cell_angle_beta     98.1717
_cell_angle_gamma    98.1717

_symmetry_Int_Tables_number  8
_chemical_formula_structural  CuCO3
_chemical_formula_sum  CuCO3
_cell_volume  58.05421116911085
_cell_formula_units_Z  1
loop_
  _symmetry_equiv_pos_site_id
 _symmetry_equiv_pos_as_xyz
 1  'x, y, z'
loop_
 _atom_site_type_symbol
 _atom_site_label
 _atom_site_symmetry_multiplicity
 _atom_site_fract_x
 _atom_site_fract_y
 _atom_site_fract_z
 _atom_site_fract_occupancy
 C  C1  1  0.11054  0.02180  0.02180  1
 Cu  Cu1  1  0.46333  0.43489  0.43489  1
 O  O1  1  0.38566  0.15504  0.15504  1
 O  O2  1  0.97774  0.17111  0.70716  1
 O  O3  1  0.97774  0.70716  0.17111  1
