CIF file written using JARVIS-Tools package.
data_YU2O6
_symmetry_space_group_name_H-M  'Immm'
_cell_length_a       6.5628
_cell_length_b       6.56281
_cell_length_c       6.5628
_cell_angle_alpha    146.186
_cell_angle_beta     131.644
_cell_angle_gamma    60.3072

_symmetry_Int_Tables_number  71
_chemical_formula_structural  YU2O6
_chemical_formula_sum  YU2O6
_cell_volume  116.4498475549027
_cell_formula_units_Z  1
loop_
  _symmetry_equiv_pos_site_id
 _symmetry_equiv_pos_as_xyz
 1  'x, y, z'
loop_
 _atom_site_type_symbol
 _atom_site_label
 _atom_site_symmetry_multiplicity
 _atom_site_fract_x
 _atom_site_fract_y
 _atom_site_fract_z
 _atom_site_fract_occupancy
 O  O1  1  0.25716  0.50000  0.75716  1
 O  O2  1  0.91643  0.16979  0.74664  1
 O  O3  1  0.57684  0.83021  0.74664  1
 O  O4  1  0.74284  0.50000  0.24284  1
 O  O5  1  0.42316  0.16979  0.25336  1
 O  O6  1  0.08357  0.83021  0.25336  1
 U  U1  1  0.66482  0.66482  0.00000  1
 U  U2  1  0.33518  0.33518  0.00000  1
 Y  Y1  1  0.00000  0.00000  0.00000  1
