CIF file written using JARVIS-Tools package.
data_PrCuO2
_symmetry_space_group_name_H-M  'R-3m'
_cell_length_a       6.1396
_cell_length_b       6.1396
_cell_length_c       6.1396
_cell_angle_alpha    35.9786
_cell_angle_beta     35.9786
_cell_angle_gamma    35.9786

_symmetry_Int_Tables_number  166
_chemical_formula_structural  PrCuO2
_chemical_formula_sum  PrCuO2
_cell_volume  71.43981262278
_cell_formula_units_Z  1
loop_
  _symmetry_equiv_pos_site_id
 _symmetry_equiv_pos_as_xyz
 1  'x, y, z'
loop_
 _atom_site_type_symbol
 _atom_site_label
 _atom_site_symmetry_multiplicity
 _atom_site_fract_x
 _atom_site_fract_y
 _atom_site_fract_z
 _atom_site_fract_occupancy
 Cu  Cu1  1  0.00000  0.00000  0.00000  1
 O  O1  1  0.89428  0.89428  0.89428  1
 O  O2  1  0.10572  0.10572  0.10572  1
 Pr  Pr1  1  0.50000  0.50000  0.50000  1
