CIF file written using JARVIS-Tools package.
data_CaY2O4
_symmetry_space_group_name_H-M  'Fd-3m'
_cell_length_a       6.8095
_cell_length_b       6.8095
_cell_length_c       6.80937
_cell_angle_alpha    119.996
_cell_angle_beta     119.997
_cell_angle_gamma    90.0074

_symmetry_Int_Tables_number  227
_chemical_formula_structural  CaY2O4
_chemical_formula_sum  Ca2Y4O8
_cell_volume  223.2760429449723
_cell_formula_units_Z  2
loop_
  _symmetry_equiv_pos_site_id
 _symmetry_equiv_pos_as_xyz
 1  'x, y, z'
loop_
 _atom_site_type_symbol
 _atom_site_label
 _atom_site_symmetry_multiplicity
 _atom_site_fract_x
 _atom_site_fract_y
 _atom_site_fract_z
 _atom_site_fract_occupancy
 Ca  Ca1  1  0.75000  0.25000  0.50000  1
 Ca  Ca2  1  -0.00000  -0.00000  0.00000  1
 O  O1  1  0.61210  0.38785  0.22426  1
 O  O2  1  0.13784  0.41358  0.27574  1
 O  O3  1  0.61216  0.83642  0.22426  1
 O  O4  1  0.61215  0.38790  0.77574  1
 O  O5  1  0.16359  0.38784  0.77574  1
 O  O6  1  0.58641  0.86216  0.72426  1
 O  O7  1  0.13790  0.86215  0.27574  1
 O  O8  1  0.13785  0.86210  0.72426  1
 Y  Y1  1  0.87500  0.62500  0.25000  1
 Y  Y2  1  0.37500  0.12500  0.75000  1
 Y  Y3  1  0.37500  0.62500  0.25000  1
 Y  Y4  1  0.37500  0.62500  0.75000  1
