CIF file written using JARVIS-Tools package.
data_H11C5
_symmetry_space_group_name_H-M  'P-1'
_cell_length_a       3.98621
_cell_length_b       4.49838
_cell_length_c       13.3526
_cell_angle_alpha    89.6413
_cell_angle_beta     82.0823
_cell_angle_gamma    76.4275

_symmetry_Int_Tables_number  2
_chemical_formula_structural  H11C5
_chemical_formula_sum  H22C0
_cell_volume  230.44202963091814
_cell_formula_units_Z  2
loop_
  _symmetry_equiv_pos_site_id
 _symmetry_equiv_pos_as_xyz
 1  'x, y, z'
loop_
 _atom_site_type_symbol
 _atom_site_label
 _atom_site_symmetry_multiplicity
 _atom_site_fract_x
 _atom_site_fract_y
 _atom_site_fract_z
 _atom_site_fract_occupancy
 C  C1  1  0.09088  0.38820  0.45624  1
 C  C2  1  0.78165  0.45445  0.63857  1
 C  C3  1  0.40246  0.32156  0.27424  1
 C  C4  1  0.59754  0.67844  0.72576  1
 C  C5  1  0.52698  0.47822  0.17886  1
 C  C6  1  0.47302  0.52178  0.82113  1
 C  C7  1  0.71850  0.25100  0.09340  1
 C  C8  1  0.28150  0.74900  0.90660  1
 C  C9  1  0.90912  0.61180  0.54376  1
 C  C10  1  0.21835  0.54556  0.36143  1
 H  H1  1  0.80680  0.36767  0.02586  1
 H  H2  1  0.69928  0.36505  0.84728  1
 H  H3  1  0.69819  0.62331  0.19785  1
 H  H4  1  0.30181  0.37669  0.80215  1
 H  H5  1  0.94918  0.09560  0.11706  1
 H  H6  1  0.19321  0.63233  0.97414  1
 H  H7  1  0.05083  0.90440  0.88293  1
 H  H8  1  0.37206  0.83972  0.70067  1
 H  H9  1  0.30072  0.63495  0.15272  1
 H  H10  1  0.39590  0.68460  0.38055  1
 H  H11  1  0.62794  0.16027  0.29933  1
 H  H12  1  0.77370  0.81959  0.74429  1
 H  H13  1  0.22629  0.18041  0.25571  1
 H  H14  1  0.60410  0.31540  0.61945  1
 H  H15  1  0.00545  0.29142  0.66382  1
 H  H16  1  0.99455  0.70859  0.33618  1
 H  H17  1  0.68565  0.77608  0.51881  1
 H  H18  1  0.31435  0.22392  0.48118  1
 H  H19  1  0.08805  0.74961  0.56276  1
 H  H20  1  0.91195  0.25039  0.43723  1
 H  H21  1  0.45043  0.89087  0.92888  1
 H  H22  1  0.54957  0.10913  0.07112  1
