CIF file written using JARVIS-Tools package.
data_CdH6C5O4
_symmetry_space_group_name_H-M  'P1'
_cell_length_a       3.97592
_cell_length_b       4.39909
_cell_length_c       8.31922
_cell_angle_alpha    101.584
_cell_angle_beta     91.7351
_cell_angle_gamma    102.825

_symmetry_Int_Tables_number  1
_chemical_formula_structural  CdH6C5O4
_chemical_formula_sum  CdH6C5O4
_cell_volume  138.5598008582234
_cell_formula_units_Z  1
loop_
  _symmetry_equiv_pos_site_id
 _symmetry_equiv_pos_as_xyz
 1  'x, y, z'
loop_
 _atom_site_type_symbol
 _atom_site_label
 _atom_site_symmetry_multiplicity
 _atom_site_fract_x
 _atom_site_fract_y
 _atom_site_fract_z
 _atom_site_fract_occupancy
 C  C1  1  0.52340  0.74617  0.54661  1
 C  C2  1  0.59917  0.51822  0.39908  1
 C  C3  1  0.81745  0.65449  0.27031  1
 C  C4  1  0.61352  0.75786  0.13854  1
 C  C5  1  0.81590  0.78260  0.98801  1
 Cd  Cd1  1  0.22605  0.20979  0.75959  1
 H  H1  1  0.73655  0.36606  0.45204  1
 H  H2  1  0.35153  0.36084  0.34257  1
 H  H3  1  0.93331  0.46427  0.20635  1
 H  H4  1  0.37505  0.57371  0.09897  1
 H  H5  1  0.02980  0.85386  0.33176  1
 H  H6  1  0.54586  0.98489  0.18684  1
 O  O1  1  0.26918  0.65152  0.62966  1
 O  O2  1  0.70462  0.03292  0.58885  1
 O  O3  1  0.03910  0.04115  0.98896  1
 O  O4  1  0.76224  0.53797  0.86865  1
