CIF file written using JARVIS-Tools package.
data_ZnIn2Te4
_symmetry_space_group_name_H-M  'I-4'
_cell_length_a       6.20131
_cell_length_b       6.20131
_cell_length_c       7.63783
_cell_angle_alpha    113.951
_cell_angle_beta     113.951
_cell_angle_gamma    90

_symmetry_Int_Tables_number  82
_chemical_formula_structural  ZnIn2Te4
_chemical_formula_sum  ZnIn2Te4
_cell_volume  240.49187979639868
_cell_formula_units_Z  1
loop_
  _symmetry_equiv_pos_site_id
 _symmetry_equiv_pos_as_xyz
 1  'x, y, z'
loop_
 _atom_site_type_symbol
 _atom_site_label
 _atom_site_symmetry_multiplicity
 _atom_site_fract_x
 _atom_site_fract_y
 _atom_site_fract_z
 _atom_site_fract_occupancy
 In  In1  1  0.50000  0.50000  0.00000  1
 In  In2  1  0.25000  0.75000  0.50000  1
 Te  Te1  1  0.40137  0.34384  0.26666  1
 Te  Te2  1  0.07718  0.59863  0.73334  1
 Te  Te3  1  0.65616  0.13471  0.73334  1
 Te  Te4  1  0.86529  0.92282  0.26666  1
 Zn  Zn1  1  0.00000  0.00000  0.00000  1
