CIF file written using JARVIS-Tools package.
data_ErFeNi
_symmetry_space_group_name_H-M  'Imma'
_cell_length_a       5.06102
_cell_length_b       5.06102
_cell_length_c       5.06102
_cell_angle_alpha    124.452
_cell_angle_beta     119.756
_cell_angle_gamma    86.4435

_symmetry_Int_Tables_number  74
_chemical_formula_structural  ErFeNi
_chemical_formula_sum  Er2Fe2Ni2
_cell_volume  88.3616014900142
_cell_formula_units_Z  2
loop_
  _symmetry_equiv_pos_site_id
 _symmetry_equiv_pos_as_xyz
 1  'x, y, z'
loop_
 _atom_site_type_symbol
 _atom_site_label
 _atom_site_symmetry_multiplicity
 _atom_site_fract_x
 _atom_site_fract_y
 _atom_site_fract_z
 _atom_site_fract_occupancy
 Er  Er1  1  0.13026  0.88026  0.25000  1
 Er  Er2  1  0.86974  0.11974  0.75000  1
 Fe  Fe1  1  0.50000  0.50000  0.50000  1
 Fe  Fe2  1  0.50000  -0.00000  -0.00000  1
 Ni  Ni1  1  0.50000  0.50000  0.00000  1
 Ni  Ni2  1  0.00000  0.50000  0.50000  1
