CIF file written using JARVIS-Tools package.
data_Nb4Pd
_symmetry_space_group_name_H-M  'Fmmm'
_cell_length_a       11.7359
_cell_length_b       11.6461
_cell_length_c       2.81347
_cell_angle_alpha    84.9081
_cell_angle_beta     81.2768
_cell_angle_gamma    13.8149

_symmetry_Int_Tables_number  69
_chemical_formula_structural  Nb4Pd
_chemical_formula_sum  Nb4Pd
_cell_volume  87.92673262771106
_cell_formula_units_Z  1
loop_
  _symmetry_equiv_pos_site_id
 _symmetry_equiv_pos_as_xyz
 1  'x, y, z'
loop_
 _atom_site_type_symbol
 _atom_site_label
 _atom_site_symmetry_multiplicity
 _atom_site_fract_x
 _atom_site_fract_y
 _atom_site_fract_z
 _atom_site_fract_occupancy
 Nb  Nb1  1  0.40466  0.40466  0.59534  1
 Nb  Nb2  1  0.80229  0.80229  0.19771  1
 Nb  Nb3  1  0.19771  0.19771  0.80229  1
 Nb  Nb4  1  0.59534  0.59534  0.40466  1
 Pd  Pd1  1  0.00000  0.00000  0.00000  1
