CIF file written using JARVIS-Tools package.
data_ErSiPd
_symmetry_space_group_name_H-M  'C2/m'
_cell_length_a       5.55242
_cell_length_b       5.55242
_cell_length_c       6.92379
_cell_angle_alpha    51.6014
_cell_angle_beta     51.6014
_cell_angle_gamma    44.7964

_symmetry_Int_Tables_number  12
_chemical_formula_structural  ErSiPd
_chemical_formula_sum  Er2Si2Pd2
_cell_volume  111.40369655712391
_cell_formula_units_Z  2
loop_
  _symmetry_equiv_pos_site_id
 _symmetry_equiv_pos_as_xyz
 1  'x, y, z'
loop_
 _atom_site_type_symbol
 _atom_site_label
 _atom_site_symmetry_multiplicity
 _atom_site_fract_x
 _atom_site_fract_y
 _atom_site_fract_z
 _atom_site_fract_occupancy
 Er  Er1  1  0.45009  0.45009  0.31096  1
 Er  Er2  1  0.54991  0.54991  0.68904  1
 Pd  Pd1  1  0.81857  0.81857  0.73961  1
 Pd  Pd2  1  0.18143  0.18143  0.26039  1
 Si  Si1  1  0.15258  0.15258  0.89948  1
 Si  Si2  1  0.84742  0.84742  0.10052  1
