CIF file written using JARVIS-Tools package.
data_Mg2As
_symmetry_space_group_name_H-M  'Immm'
_cell_length_a       6.8235
_cell_length_b       6.82351
_cell_length_c       6.8235
_cell_angle_alpha    147.236
_cell_angle_beta     132.004
_cell_angle_gamma    59.3299

_symmetry_Int_Tables_number  71
_chemical_formula_structural  Mg2As
_chemical_formula_sum  Mg4As2
_cell_volume  126.66480003820648
_cell_formula_units_Z  2
loop_
  _symmetry_equiv_pos_site_id
 _symmetry_equiv_pos_as_xyz
 1  'x, y, z'
loop_
 _atom_site_type_symbol
 _atom_site_label
 _atom_site_symmetry_multiplicity
 _atom_site_fract_x
 _atom_site_fract_y
 _atom_site_fract_z
 _atom_site_fract_occupancy
 As  As1  1  0.64393  0.14393  0.50000  1
 As  As2  1  0.35607  0.85607  0.50000  1
 Mg  Mg1  1  0.80156  0.80156  -0.00000  1
 Mg  Mg2  1  0.74674  0.50000  0.24674  1
 Mg  Mg3  1  0.25326  0.50000  0.75326  1
 Mg  Mg4  1  0.19844  0.19844  -0.00000  1
