CIF file written using JARVIS-Tools package.
data_UTiFe
_symmetry_space_group_name_H-M  'Imma'
_cell_length_a       5.03969
_cell_length_b       5.03969
_cell_length_c       5.0397
_cell_angle_alpha    114.706
_cell_angle_beta     110.796
_cell_angle_gamma    103.12

_symmetry_Int_Tables_number  74
_chemical_formula_structural  UTiFe
_chemical_formula_sum  U2Ti2Fe2
_cell_volume  97.51246383801606
_cell_formula_units_Z  2
loop_
  _symmetry_equiv_pos_site_id
 _symmetry_equiv_pos_as_xyz
 1  'x, y, z'
loop_
 _atom_site_type_symbol
 _atom_site_label
 _atom_site_symmetry_multiplicity
 _atom_site_fract_x
 _atom_site_fract_y
 _atom_site_fract_z
 _atom_site_fract_occupancy
 Fe  Fe1  1  0.00000  0.50000  -0.00000  1
 Fe  Fe2  1  0.00000  0.00000  0.50000  1
 Ti  Ti1  1  0.50000  0.50000  -0.00000  1
 Ti  Ti2  1  0.00000  0.50000  0.50000  1
 U  U1  1  0.34059  0.09059  0.25000  1
 U  U2  1  0.65941  0.90941  0.75000  1
