CIF file written using JARVIS-Tools package.
data_Nd2Fe2Si2C
_symmetry_space_group_name_H-M  'C2/m'
_cell_length_a       3.99663
_cell_length_b       5.78495
_cell_length_c       5.91805
_cell_angle_alpha    73.2789
_cell_angle_beta     70.2653
_cell_angle_gamma    69.7917

_symmetry_Int_Tables_number  12
_chemical_formula_structural  Nd2Fe2Si2C
_chemical_formula_sum  Nd2Fe2Si2C
_cell_volume  118.5747843706236
_cell_formula_units_Z  1
loop_
  _symmetry_equiv_pos_site_id
 _symmetry_equiv_pos_as_xyz
 1  'x, y, z'
loop_
 _atom_site_type_symbol
 _atom_site_label
 _atom_site_symmetry_multiplicity
 _atom_site_fract_x
 _atom_site_fract_y
 _atom_site_fract_z
 _atom_site_fract_occupancy
 C  C1  1  0.50000  0.50000  0.50000  1
 Fe  Fe1  1  0.69430  0.19770  0.41369  1
 Fe  Fe2  1  0.30570  0.80230  0.58631  1
 Nd  Nd1  1  0.05866  0.68239  0.20028  1
 Nd  Nd2  1  0.94134  0.31761  0.79972  1
 Si  Si1  1  0.32132  0.11662  0.24074  1
 Si  Si2  1  0.67868  0.88338  0.75926  1
