CIF file written using JARVIS-Tools package.
data_CuCl2
_symmetry_space_group_name_H-M  'R-3m'
_cell_length_a       5.97448
_cell_length_b       5.97448
_cell_length_c       5.97448
_cell_angle_alpha    34.1808
_cell_angle_beta     34.1808
_cell_angle_gamma    34.1809

_symmetry_Int_Tables_number  166
_chemical_formula_structural  CuCl2
_chemical_formula_sum  CuCl2
_cell_volume  60.016008283018415
_cell_formula_units_Z  1
loop_
  _symmetry_equiv_pos_site_id
 _symmetry_equiv_pos_as_xyz
 1  'x, y, z'
loop_
 _atom_site_type_symbol
 _atom_site_label
 _atom_site_symmetry_multiplicity
 _atom_site_fract_x
 _atom_site_fract_y
 _atom_site_fract_z
 _atom_site_fract_occupancy
 Cl  Cl1  1  0.74701  0.74701  0.74701  1
 Cl  Cl2  1  0.25299  0.25299  0.25299  1
 Cu  Cu1  1  0.00000  0.00000  0.00000  1
