CIF file written using JARVIS-Tools package.
data_H7C8NO
_symmetry_space_group_name_H-M  'P1'
_cell_length_a       5.85006
_cell_length_b       7.58515
_cell_length_c       7.40176
_cell_angle_alpha    98.6579
_cell_angle_beta     104.203
_cell_angle_gamma    105.133

_symmetry_Int_Tables_number  1
_chemical_formula_structural  H7C8NO
_chemical_formula_sum  H4C6N2O2
_cell_volume  299.1719683171705
_cell_formula_units_Z  2
loop_
  _symmetry_equiv_pos_site_id
 _symmetry_equiv_pos_as_xyz
 1  'x, y, z'
loop_
 _atom_site_type_symbol
 _atom_site_label
 _atom_site_symmetry_multiplicity
 _atom_site_fract_x
 _atom_site_fract_y
 _atom_site_fract_z
 _atom_site_fract_occupancy
 C  C1  1  0.82194  0.69955  0.97473  1
 C  C2  1  0.53569  0.10394  0.54637  1
 C  C3  1  0.55195  0.08528  0.03761  1
 C  C4  1  0.61353  0.07467  0.22777  1
 C  C5  1  0.47675  0.12397  0.34829  1
 C  C6  1  0.31454  0.03364  0.62228  1
 C  C7  1  0.21658  0.20425  0.08366  1
 C  C8  1  0.27594  0.18756  0.27129  1
 C  C9  1  0.35118  0.15071  0.96174  1
 C  C10  1  0.10421  0.60205  0.74456  1
 C  C11  1  0.89593  0.65786  0.66483  1
 C  C12  1  0.03016  0.64497  0.05579  1
 C  C13  1  0.86634  0.54004  0.32552  1
 C  C14  1  0.76153  0.71269  0.78626  1
 C  C15  1  0.17269  0.60191  0.93746  1
 C  C16  1  0.08765  0.62355  0.25313  1
 H  H1  1  0.06047  0.25272  0.02507  1
 H  H2  1  0.33858  0.90844  0.67245  1
 H  H3  1  0.90313  0.41847  0.37719  1
 H  H4  1  0.69539  0.48551  0.20533  1
 H  H5  1  0.71070  0.73754  0.06333  1
 H  H6  1  0.33251  0.55820  0.99749  1
 H  H7  1  0.60475  0.75940  0.72617  1
 H  H8  1  0.65241  0.68513  0.43194  1
 H  H9  1  0.14138  0.98555  0.50444  1
 H  H10  1  0.16878  0.22855  0.36222  1
 H  H11  1  0.65885  0.04605  0.94587  1
 H  H12  1  0.76684  0.02287  0.28590  1
 H  H13  1  0.11720  0.19038  0.73255  1
 H  H14  1  0.21132  0.56041  0.65405  1
 N  N1  1  0.28198  0.16302  0.77394  1
 N  N2  1  0.81982  0.66186  0.47515  1
 O  O1  1  0.74961  0.12398  0.64619  1
 O  O2  1  0.30238  0.65090  0.35697  1
