CIF file written using JARVIS-Tools package.
data_NaMnO2
_symmetry_space_group_name_H-M  'I4_1/amd'
_cell_length_a       4.39889
_cell_length_b       5.32795
_cell_length_c       4.39849
_cell_angle_alpha    65.619
_cell_angle_beta     89.9993
_cell_angle_gamma    65.6148

_symmetry_Int_Tables_number  141
_chemical_formula_structural  NaMnO2
_chemical_formula_sum  Na2Mn2O4
_cell_volume  83.69396514709315
_cell_formula_units_Z  2
loop_
  _symmetry_equiv_pos_site_id
 _symmetry_equiv_pos_as_xyz
 1  'x, y, z'
loop_
 _atom_site_type_symbol
 _atom_site_label
 _atom_site_symmetry_multiplicity
 _atom_site_fract_x
 _atom_site_fract_y
 _atom_site_fract_z
 _atom_site_fract_occupancy
 Mn  Mn1  1  0.12673  0.24887  0.87423  1
 Mn  Mn2  1  0.87664  0.74887  0.12426  1
 Na  Na1  1  0.37668  0.74886  0.62430  1
 Na  Na2  1  0.62669  0.24890  0.37426  1
 O  O1  1  0.90622  0.68978  0.65392  1
 O  O2  1  0.65621  0.18977  0.90383  1
 O  O3  1  0.34719  0.80797  0.09475  1
 O  O4  1  0.09716  0.30797  0.34486  1
