CIF file written using JARVIS-Tools package.
data_V2FeTe4
_symmetry_space_group_name_H-M  'Cm'
_cell_length_a       7.07597
_cell_length_b       7.07597
_cell_length_c       6.8615
_cell_angle_alpha    61.4261
_cell_angle_beta     61.4261
_cell_angle_gamma    32.5351

_symmetry_Int_Tables_number  8
_chemical_formula_structural  V2FeTe4
_chemical_formula_sum  V2FeTe4
_cell_volume  160.20001450525598
_cell_formula_units_Z  1
loop_
  _symmetry_equiv_pos_site_id
 _symmetry_equiv_pos_as_xyz
 1  'x, y, z'
loop_
 _atom_site_type_symbol
 _atom_site_label
 _atom_site_symmetry_multiplicity
 _atom_site_fract_x
 _atom_site_fract_y
 _atom_site_fract_z
 _atom_site_fract_occupancy
 Fe  Fe1  1  0.75161  0.75161  0.27286  1
 Te  Te1  1  0.88186  0.88186  0.45500  1
 Te  Te2  1  0.12122  0.12122  0.53292  1
 Te  Te3  1  0.63013  0.63013  0.04099  1
 Te  Te4  1  0.36753  0.36753  0.96815  1
 V  V1  1  0.99593  0.99593  0.00262  1
 V  V2  1  0.25172  0.25172  0.72746  1
