CIF file written using JARVIS-Tools package.
data_Te
_symmetry_space_group_name_H-M  'Pm-3m'
_cell_length_a       3.21314
_cell_length_b       4.53722
_cell_length_c       9.08245
_cell_angle_alpha    90
_cell_angle_beta     90
_cell_angle_gamma    90

_symmetry_Int_Tables_number  221
_chemical_formula_structural  Te
_chemical_formula_sum  Te4
_cell_volume  132.41041783241747
_cell_formula_units_Z  4
loop_
  _symmetry_equiv_pos_site_id
 _symmetry_equiv_pos_as_xyz
 1  'x, y, z'
loop_
 _atom_site_type_symbol
 _atom_site_label
 _atom_site_symmetry_multiplicity
 _atom_site_fract_x
 _atom_site_fract_y
 _atom_site_fract_z
 _atom_site_fract_occupancy
 Te  Te1  1  0.50000  0.50037  0.75999  1
 Te  Te2  1  0.50000  0.49963  0.25999  1
 Te  Te3  1  0.50000  0.99999  0.01001  1
 Te  Te4  1  0.50000  0.00001  0.51001  1
