CIF file written using JARVIS-Tools package.
data_YO2
_symmetry_space_group_name_H-M  'I4/mmm'
_cell_length_a       3.72898
_cell_length_b       3.72738
_cell_length_c       5.70633
_cell_angle_alpha    89.9068
_cell_angle_beta     90
_cell_angle_gamma    90

_symmetry_Int_Tables_number  139
_chemical_formula_structural  YO2
_chemical_formula_sum  Y2O4
_cell_volume  79.31416878282104
_cell_formula_units_Z  2
loop_
  _symmetry_equiv_pos_site_id
 _symmetry_equiv_pos_as_xyz
 1  'x, y, z'
loop_
 _atom_site_type_symbol
 _atom_site_label
 _atom_site_symmetry_multiplicity
 _atom_site_fract_x
 _atom_site_fract_y
 _atom_site_fract_z
 _atom_site_fract_occupancy
 O  O1  1  0.25000  0.74975  0.50004  1
 O  O2  1  0.75000  0.25025  0.49996  1
 O  O3  1  0.25000  0.75026  -0.00003  1
 O  O4  1  0.75000  0.24974  0.00003  1
 Y  Y1  1  0.25000  0.24998  0.25002  1
 Y  Y2  1  0.75000  0.75002  0.74998  1
