CIF file written using JARVIS-Tools package.
data_Th2CoSi3
_symmetry_space_group_name_H-M  'Imm2'
_cell_length_a       7.57925
_cell_length_b       7.57924
_cell_length_c       7.57924
_cell_angle_alpha    148.558
_cell_angle_beta     148.143
_cell_angle_gamma    45.3691

_symmetry_Int_Tables_number  44
_chemical_formula_structural  Th2CoSi3
_chemical_formula_sum  Th2CoSi3
_cell_volume  119.48376420888385
_cell_formula_units_Z  1
loop_
  _symmetry_equiv_pos_site_id
 _symmetry_equiv_pos_as_xyz
 1  'x, y, z'
loop_
 _atom_site_type_symbol
 _atom_site_label
 _atom_site_symmetry_multiplicity
 _atom_site_fract_x
 _atom_site_fract_y
 _atom_site_fract_z
 _atom_site_fract_occupancy
 Co  Co1  1  0.16341  0.66341  0.50000  1
 Si  Si1  1  0.58914  0.58914  -0.00000  1
 Si  Si2  1  0.32537  0.82537  0.50000  1
 Si  Si3  1  0.41722  0.41722  -0.00000  1
 Th  Th1  1  0.74990  0.24990  0.50000  1
 Th  Th2  1  0.00496  0.00496  0.00000  1
