CIF file written using JARVIS-Tools package.
data_Fe6O5F7
_symmetry_space_group_name_H-M  'P1'
_cell_length_a       4.68982
_cell_length_b       5.55698
_cell_length_c       7.7001
_cell_angle_alpha    86.049
_cell_angle_beta     87.993
_cell_angle_gamma    89.4851

_symmetry_Int_Tables_number  1
_chemical_formula_structural  Fe6O5F7
_chemical_formula_sum  Fe6O5F7
_cell_volume  200.0697561355623
_cell_formula_units_Z  1
loop_
  _symmetry_equiv_pos_site_id
 _symmetry_equiv_pos_as_xyz
 1  'x, y, z'
loop_
 _atom_site_type_symbol
 _atom_site_label
 _atom_site_symmetry_multiplicity
 _atom_site_fract_x
 _atom_site_fract_y
 _atom_site_fract_z
 _atom_site_fract_occupancy
 F  F1  1  0.22327  0.29855  0.91513  1
 F  F2  1  0.19385  0.97181  0.22843  1
 F  F3  1  0.29962  0.80234  0.89663  1
 F  F4  1  0.69379  0.86800  0.42413  1
 F  F5  1  0.70247  0.18280  0.11767  1
 F  F6  1  0.80000  0.36774  0.43023  1
 F  F7  1  0.18866  0.62351  0.56531  1
 Fe  Fe1  1  0.52624  0.84309  0.66934  1
 Fe  Fe2  1  0.96788  0.98267  0.98822  1
 Fe  Fe3  1  0.00823  0.65407  0.30884  1
 Fe  Fe4  1  0.99314  0.32779  0.68120  1
 Fe  Fe5  1  0.44801  0.19571  0.35345  1
 Fe  Fe6  1  0.53215  0.50091  -0.00088  1
 O  O1  1  0.32407  0.47879  0.21736  1
 O  O2  1  0.80570  0.68168  0.09235  1
 O  O3  1  0.80080  0.05183  0.76269  1
 O  O4  1  0.28471  0.13484  0.57903  1
 O  O5  1  0.70742  0.53387  0.77084  1
