CIF file written using JARVIS-Tools package.
data_Hf3Te2
_symmetry_space_group_name_H-M  'I4/mmm'
_cell_length_a       3.70244
_cell_length_b       3.70244
_cell_length_c       9.53801
_cell_angle_alpha    101.192
_cell_angle_beta     101.192
_cell_angle_gamma    90

_symmetry_Int_Tables_number  139
_chemical_formula_structural  Hf3Te2
_chemical_formula_sum  Hf3Te2
_cell_volume  125.72558328470687
_cell_formula_units_Z  1
loop_
  _symmetry_equiv_pos_site_id
 _symmetry_equiv_pos_as_xyz
 1  'x, y, z'
loop_
 _atom_site_type_symbol
 _atom_site_label
 _atom_site_symmetry_multiplicity
 _atom_site_fract_x
 _atom_site_fract_y
 _atom_site_fract_z
 _atom_site_fract_occupancy
 Hf  Hf1  1  0.40773  0.40773  0.81546  1
 Hf  Hf2  1  0.59227  0.59227  0.18454  1
 Hf  Hf3  1  0.00000  0.00000  0.00000  1
 Te  Te1  1  0.83426  0.83426  0.66852  1
 Te  Te2  1  0.16574  0.16574  0.33148  1
