CIF file written using JARVIS-Tools package.
data_Y2Ge2Ru
_symmetry_space_group_name_H-M  'C2/m'
_cell_length_a       5.78901
_cell_length_b       5.78901
_cell_length_c       10.21
_cell_angle_alpha    63.8965
_cell_angle_beta     63.8965
_cell_angle_gamma    43.3541

_symmetry_Int_Tables_number  12
_chemical_formula_structural  Y2Ge2Ru
_chemical_formula_sum  Y4Ge4Ru2
_cell_volume  206.89873954593688
_cell_formula_units_Z  2
loop_
  _symmetry_equiv_pos_site_id
 _symmetry_equiv_pos_as_xyz
 1  'x, y, z'
loop_
 _atom_site_type_symbol
 _atom_site_label
 _atom_site_symmetry_multiplicity
 _atom_site_fract_x
 _atom_site_fract_y
 _atom_site_fract_z
 _atom_site_fract_occupancy
 Ge  Ge1  1  0.64594  0.64594  0.43410  1
 Ge  Ge2  1  0.35406  0.35406  0.56590  1
 Ge  Ge3  1  0.51444  0.51444  0.12391  1
 Ge  Ge4  1  0.48556  0.48556  0.87609  1
 Ru  Ru1  1  0.72745  0.72745  0.62977  1
 Ru  Ru2  1  0.27255  0.27255  0.37023  1
 Y  Y1  1  0.81622  0.81622  0.11112  1
 Y  Y2  1  0.18378  0.18378  0.88888  1
 Y  Y3  1  0.00121  0.00121  0.32694  1
 Y  Y4  1  -0.00121  -0.00121  0.67306  1
