CIF file written using JARVIS-Tools package.
data_Ce2Si3
_symmetry_space_group_name_H-M  'Imm2'
_cell_length_a       7.56378
_cell_length_b       7.56378
_cell_length_c       7.56378
_cell_angle_alpha    149.83
_cell_angle_beta     147.931
_cell_angle_gamma    44.6062

_symmetry_Int_Tables_number  44
_chemical_formula_structural  Ce2Si3
_chemical_formula_sum  Ce2Si3
_cell_volume  115.11863579557033
_cell_formula_units_Z  1
loop_
  _symmetry_equiv_pos_site_id
 _symmetry_equiv_pos_as_xyz
 1  'x, y, z'
loop_
 _atom_site_type_symbol
 _atom_site_label
 _atom_site_symmetry_multiplicity
 _atom_site_fract_x
 _atom_site_fract_y
 _atom_site_fract_z
 _atom_site_fract_occupancy
 Ce  Ce1  1  0.62712  0.12712  0.50000  1
 Ce  Ce2  1  0.87620  0.87620  -0.00000  1
 Si  Si1  1  0.46372  0.46372  -0.00000  1
 Si  Si2  1  0.20087  0.70087  0.50000  1
 Si  Si3  1  0.29609  0.29609  -0.00000  1
