CIF file written using JARVIS-Tools package.
data_HoCoC2
_symmetry_space_group_name_H-M  'Amm2'
_cell_length_a       3.52542
_cell_length_b       3.74853
_cell_length_c       3.74853
_cell_angle_alpha    106.281
_cell_angle_beta     90
_cell_angle_gamma    90

_symmetry_Int_Tables_number  38
_chemical_formula_structural  HoCoC2
_chemical_formula_sum  HoCoC2
_cell_volume  47.55089816222468
_cell_formula_units_Z  1
loop_
  _symmetry_equiv_pos_site_id
 _symmetry_equiv_pos_as_xyz
 1  'x, y, z'
loop_
 _atom_site_type_symbol
 _atom_site_label
 _atom_site_symmetry_multiplicity
 _atom_site_fract_x
 _atom_site_fract_y
 _atom_site_fract_z
 _atom_site_fract_occupancy
 C  C1  1  0.50000  0.45779  0.84705  1
 C  C2  1  0.50000  0.15295  0.54221  1
 Co  Co1  1  0.50000  0.61635  0.38365  1
 Ho  Ho1  1  0.00000  0.99791  0.00209  1
