CIF file written using JARVIS-Tools package.
data_CaY2O4
_symmetry_space_group_name_H-M  'Cmcm'
_cell_length_a       5.75613
_cell_length_b       5.75613
_cell_length_c       10.9142
_cell_angle_alpha    90
_cell_angle_beta     90
_cell_angle_gamma    33.4169

_symmetry_Int_Tables_number  63
_chemical_formula_structural  CaY2O4
_chemical_formula_sum  Ca2Y4O8
_cell_volume  199.15446262792642
_cell_formula_units_Z  2
loop_
  _symmetry_equiv_pos_site_id
 _symmetry_equiv_pos_as_xyz
 1  'x, y, z'
loop_
 _atom_site_type_symbol
 _atom_site_label
 _atom_site_symmetry_multiplicity
 _atom_site_fract_x
 _atom_site_fract_y
 _atom_site_fract_z
 _atom_site_fract_occupancy
 Ca  Ca1  1  0.11263  0.11263  0.25000  1
 Ca  Ca2  1  0.88737  0.88737  0.75000  1
 O  O1  1  0.00000  0.00000  0.00000  1
 O  O2  1  0.00000  0.00000  0.50000  1
 O  O3  1  0.26750  0.26750  0.61367  1
 O  O4  1  0.46728  0.46728  0.25000  1
 O  O5  1  0.53272  0.53272  0.75000  1
 O  O6  1  0.73250  0.73250  0.38633  1
 O  O7  1  0.26750  0.26750  0.88633  1
 O  O8  1  0.73250  0.73250  0.11367  1
 Y  Y1  1  0.36773  0.36773  0.42552  1
 Y  Y2  1  0.63227  0.63227  0.57448  1
 Y  Y3  1  0.36773  0.36773  0.07448  1
 Y  Y4  1  0.63227  0.63227  0.92552  1
