CIF file written using JARVIS-Tools package.
data_TlSbF6
_symmetry_space_group_name_H-M  'R-3m'
_cell_length_a       5.1652
_cell_length_b       5.16521
_cell_length_c       5.1652
_cell_angle_alpha    97.372
_cell_angle_beta     97.3721
_cell_angle_gamma    97.372

_symmetry_Int_Tables_number  166
_chemical_formula_structural  TlSbF6
_chemical_formula_sum  TlSbF6
_cell_volume  134.05923232403907
_cell_formula_units_Z  1
loop_
  _symmetry_equiv_pos_site_id
 _symmetry_equiv_pos_as_xyz
 1  'x, y, z'
loop_
 _atom_site_type_symbol
 _atom_site_label
 _atom_site_symmetry_multiplicity
 _atom_site_fract_x
 _atom_site_fract_y
 _atom_site_fract_z
 _atom_site_fract_occupancy
 F  F1  1  0.76292  0.76292  0.41686  1
 F  F2  1  0.76292  0.41686  0.76292  1
 F  F3  1  0.23708  0.58314  0.23708  1
 F  F4  1  0.23708  0.23708  0.58314  1
 F  F5  1  0.58314  0.23708  0.23708  1
 F  F6  1  0.41686  0.76292  0.76292  1
 Sb  Sb1  1  0.50000  0.50000  0.50000  1
 Tl  Tl1  1  0.00000  0.00000  0.00000  1
