CIF file written using JARVIS-Tools package.
data_H6C4S
_symmetry_space_group_name_H-M  'Pm'
_cell_length_a       5.11288
_cell_length_b       5.89859
_cell_length_c       7.00003
_cell_angle_alpha    104.322
_cell_angle_beta     89.9852
_cell_angle_gamma    90.0397

_symmetry_Int_Tables_number  6
_chemical_formula_structural  H6C4S
_chemical_formula_sum  H2C8S2
_cell_volume  204.55159288335946
_cell_formula_units_Z  2
loop_
  _symmetry_equiv_pos_site_id
 _symmetry_equiv_pos_as_xyz
 1  'x, y, z'
loop_
 _atom_site_type_symbol
 _atom_site_label
 _atom_site_symmetry_multiplicity
 _atom_site_fract_x
 _atom_site_fract_y
 _atom_site_fract_z
 _atom_site_fract_occupancy
 C  C1  1  0.15352  0.86071  0.77436  1
 C  C2  1  0.15361  0.36073  0.27436  1
 C  C3  1  0.65361  0.35740  0.25624  1
 C  C4  1  0.40355  0.22698  0.28168  1
 C  C5  1  0.90345  0.22699  0.28172  1
 C  C6  1  0.65353  0.85738  0.75624  1
 C  C7  1  0.40346  0.72696  0.78168  1
 C  C8  1  0.90336  0.72697  0.78173  1
 H  H1  1  0.65361  0.02967  0.86137  1
 H  H2  1  0.65363  0.89469  0.60955  1
 H  H3  1  0.91667  0.55783  0.67093  1
 H  H4  1  0.38995  0.55787  0.67082  1
 H  H5  1  0.90205  0.67743  0.92471  1
 H  H6  1  0.40459  0.67733  0.92463  1
 H  H7  1  0.40468  0.17735  0.42462  1
 H  H8  1  0.65370  0.52968  0.36137  1
 H  H9  1  0.91676  0.05786  0.17091  1
 H  H10  1  0.39004  0.05790  0.17082  1
 H  H11  1  0.90213  0.17743  0.42469  1
 H  H12  1  0.65371  0.39472  0.10955  1
 S  S1  1  0.15383  0.63716  0.26830  1
 S  S2  1  0.15375  0.13714  0.76829  1
