CIF file written using JARVIS-Tools package.
data_AlAu4
_symmetry_space_group_name_H-M  'C2/m'
_cell_length_a       3.07318
_cell_length_b       3.07318
_cell_length_c       10.918
_cell_angle_alpha    82.2367
_cell_angle_beta     82.2367
_cell_angle_gamma    60.8587

_symmetry_Int_Tables_number  12
_chemical_formula_structural  AlAu4
_chemical_formula_sum  AlAu4
_cell_volume  88.95017148733979
_cell_formula_units_Z  1
loop_
  _symmetry_equiv_pos_site_id
 _symmetry_equiv_pos_as_xyz
 1  'x, y, z'
loop_
 _atom_site_type_symbol
 _atom_site_label
 _atom_site_symmetry_multiplicity
 _atom_site_fract_x
 _atom_site_fract_y
 _atom_site_fract_z
 _atom_site_fract_occupancy
 Al  Al1  1  0.00000  0.00000  0.00000  1
 Au  Au1  1  0.39073  0.39073  0.82230  1
 Au  Au2  1  0.79765  0.79765  0.60584  1
 Au  Au3  1  0.20235  0.20235  0.39416  1
 Au  Au4  1  0.60927  0.60927  0.17770  1
