CIF file written using JARVIS-Tools package.
data_MoSeS
_symmetry_space_group_name_H-M  'P-3m1'
_cell_length_a       3.26368
_cell_length_b       3.26368
_cell_length_c       12.9028
_cell_angle_alpha    90
_cell_angle_beta     90
_cell_angle_gamma    120

_symmetry_Int_Tables_number  164
_chemical_formula_structural  MoSeS
_chemical_formula_sum  Mo2Se2S2
_cell_volume  119.02294425318507
_cell_formula_units_Z  2
loop_
  _symmetry_equiv_pos_site_id
 _symmetry_equiv_pos_as_xyz
 1  'x, y, z'
loop_
 _atom_site_type_symbol
 _atom_site_label
 _atom_site_symmetry_multiplicity
 _atom_site_fract_x
 _atom_site_fract_y
 _atom_site_fract_z
 _atom_site_fract_occupancy
 Mo  Mo1  1  0.00000  0.00000  0.26326  1
 Mo  Mo2  1  0.00000  0.00000  0.73674  1
 S  S1  1  0.33333  0.66667  0.38191  1
 S  S2  1  0.66667  0.33333  0.61809  1
 Se  Se1  1  0.66667  0.33333  0.86935  1
 Se  Se2  1  0.33333  0.66667  0.13065  1
