CIF file written using JARVIS-Tools package.
data_Sr2Mn3Bi2O2
_symmetry_space_group_name_H-M  'I4/mmm'
_cell_length_a       4.15456
_cell_length_b       4.15445
_cell_length_c       11.0183
_cell_angle_alpha    100.869
_cell_angle_beta     100.868
_cell_angle_gamma    90.0006

_symmetry_Int_Tables_number  139
_chemical_formula_structural  Sr2Mn3Bi2O2
_chemical_formula_sum  Sr2Mn3Bi2O2
_cell_volume  183.2883916447564
_cell_formula_units_Z  1
loop_
  _symmetry_equiv_pos_site_id
 _symmetry_equiv_pos_as_xyz
 1  'x, y, z'
loop_
 _atom_site_type_symbol
 _atom_site_label
 _atom_site_symmetry_multiplicity
 _atom_site_fract_x
 _atom_site_fract_y
 _atom_site_fract_z
 _atom_site_fract_occupancy
 Bi  Bi1  1  0.83795  0.83795  0.67586  1
 Bi  Bi2  1  0.16205  0.16206  0.32414  1
 Mn  Mn1  1  1.00000  1.00000  0.99999  1
 Mn  Mn2  1  0.75001  0.24999  0.50000  1
 Mn  Mn3  1  0.25000  0.75001  0.50001  1
 O  O1  1  0.50000  1.00000  1.00000  1
 O  O2  1  1.00000  0.50000  1.00000  1
 Sr  Sr1  1  0.57764  0.57765  0.15531  1
 Sr  Sr2  1  0.42235  0.42235  0.84469  1
