CIF file written using JARVIS-Tools package.
data_CaCo2P2
_symmetry_space_group_name_H-M  'I4/mmm'
_cell_length_a       3.85435
_cell_length_b       3.85435
_cell_length_c       5.53658
_cell_angle_alpha    110.37
_cell_angle_beta     110.37
_cell_angle_gamma    90.0001

_symmetry_Int_Tables_number  139
_chemical_formula_structural  CaCo2P2
_chemical_formula_sum  CaCo2P2
_cell_volume  71.5958054951323
_cell_formula_units_Z  1
loop_
  _symmetry_equiv_pos_site_id
 _symmetry_equiv_pos_as_xyz
 1  'x, y, z'
loop_
 _atom_site_type_symbol
 _atom_site_label
 _atom_site_symmetry_multiplicity
 _atom_site_fract_x
 _atom_site_fract_y
 _atom_site_fract_z
 _atom_site_fract_occupancy
 Ca  Ca1  1  0.00000  0.00000  0.00000  1
 Co  Co1  1  0.75000  0.25000  0.50000  1
 Co  Co2  1  0.25000  0.75000  0.50000  1
 P  P1  1  0.63156  0.63156  0.26312  1
 P  P2  1  0.36844  0.36844  0.73688  1
