CIF file written using JARVIS-Tools package.
data_H3C5N
_symmetry_space_group_name_H-M  'Pnma'
_cell_length_a       7.15417
_cell_length_b       3.72611
_cell_length_c       12.1439
_cell_angle_alpha    90
_cell_angle_beta     90.0011
_cell_angle_gamma    90

_symmetry_Int_Tables_number  62
_chemical_formula_structural  H3C5N
_chemical_formula_sum  H2C20N4
_cell_volume  323.7224329949615
_cell_formula_units_Z  4
loop_
  _symmetry_equiv_pos_site_id
 _symmetry_equiv_pos_as_xyz
 1  'x, y, z'
loop_
 _atom_site_type_symbol
 _atom_site_label
 _atom_site_symmetry_multiplicity
 _atom_site_fract_x
 _atom_site_fract_y
 _atom_site_fract_z
 _atom_site_fract_occupancy
 C  C1  1  0.26093  0.54914  0.35584  1
 C  C2  1  0.42850  0.53129  0.90830  1
 C  C3  1  0.09337  0.53125  0.90830  1
 C  C4  1  0.09337  0.46875  0.40830  1
 C  C5  1  0.09893  0.70058  0.01139  1
 C  C6  1  0.09893  0.29942  0.51139  1
 C  C7  1  0.42294  0.29939  0.51138  1
 C  C8  1  0.42294  0.70061  0.01138  1
 C  C9  1  0.76094  0.95105  0.72489  1
 C  C10  1  0.92294  0.79913  0.06935  1
 C  C11  1  0.92850  0.03150  0.67243  1
 C  C12  1  0.92850  0.96850  0.17243  1
 C  C13  1  0.76094  0.04895  0.22489  1
 C  C14  1  0.59338  0.03149  0.67243  1
 C  C15  1  0.59338  0.96851  0.17243  1
 C  C16  1  0.59893  0.20086  0.56935  1
 C  C17  1  0.59893  0.79914  0.06935  1
 C  C18  1  0.92294  0.20087  0.56935  1
 C  C19  1  0.26093  0.45086  0.85584  1
 C  C20  1  0.42850  0.46871  0.40830  1
 H  H1  1  0.76094  0.17182  0.30634  1
 H  H2  1  0.45938  0.96325  0.70886  1
 H  H3  1  0.76094  0.82818  0.80634  1
 H  H4  1  0.06250  0.03672  0.20887  1
 H  H5  1  0.06250  0.96328  0.70887  1
 H  H6  1  0.45938  0.03675  0.20886  1
 H  H7  1  0.95937  0.46312  0.87185  1
 H  H8  1  0.56249  0.46316  0.87185  1
 H  H9  1  0.56249  0.53684  0.37185  1
 H  H10  1  0.26093  0.32813  0.77437  1
 H  H11  1  0.26093  0.67187  0.27437  1
 H  H12  1  0.95937  0.53688  0.37185  1
 N  N1  1  0.26093  0.78280  0.06174  1
 N  N2  1  0.76093  0.71692  0.01901  1
 N  N3  1  0.76093  0.28308  0.51901  1
 N  N4  1  0.26093  0.21720  0.56174  1
