CIF file written using JARVIS-Tools package.
data_H7C7NO
_symmetry_space_group_name_H-M  'P1'
_cell_length_a       3.92202
_cell_length_b       6.6007
_cell_length_c       10.8612
_cell_angle_alpha    77.9714
_cell_angle_beta     90.5562
_cell_angle_gamma    87.3075

_symmetry_Int_Tables_number  1
_chemical_formula_structural  H7C7NO
_chemical_formula_sum  H4C4N2O2
_cell_volume  274.6433835344385
_cell_formula_units_Z  2
loop_
  _symmetry_equiv_pos_site_id
 _symmetry_equiv_pos_as_xyz
 1  'x, y, z'
loop_
 _atom_site_type_symbol
 _atom_site_label
 _atom_site_symmetry_multiplicity
 _atom_site_fract_x
 _atom_site_fract_y
 _atom_site_fract_z
 _atom_site_fract_occupancy
 C  C1  1  0.04340  0.65741  0.88775  1
 C  C2  1  0.30472  0.82569  0.38190  1
 C  C3  1  0.14711  0.68285  0.30902  1
 C  C4  1  0.35131  0.76825  0.51242  1
 C  C5  1  0.85131  0.26825  0.01242  1
 C  C6  1  0.48495  0.90324  0.58140  1
 C  C7  1  0.98496  0.40324  0.08140  1
 C  C8  1  0.64710  0.18285  0.80902  1
 C  C9  1  0.80471  0.32569  0.88190  1
 C  C10  1  0.08512  0.59807  0.01934  1
 C  C11  1  0.40232  0.02261  0.32091  1
 C  C12  1  0.90231  0.52262  0.82091  1
 C  C13  1  0.54340  0.15741  0.38775  1
 C  C14  1  0.58512  0.09807  0.51934  1
 H  H1  1  0.37091  0.07061  0.21873  1
 H  H2  1  0.51907  0.85644  0.68308  1
 H  H3  1  0.87089  0.57062  0.71873  1
 H  H4  1  0.89525  0.74264  0.26877  1
 H  H5  1  0.39525  0.24264  0.76877  1
 H  H6  1  0.89610  0.32925  0.53834  1
 H  H7  1  0.39610  0.82925  0.03834  1
 H  H8  1  0.28537  0.61340  0.56196  1
 H  H9  1  0.61613  0.02927  0.87091  1
 H  H10  1  0.11615  0.52926  0.37091  1
 H  H11  1  0.01908  0.35643  0.18308  1
 H  H12  1  0.78538  0.11340  0.06196  1
 H  H13  1  0.61951  0.30954  0.33767  1
 H  H14  1  0.11950  0.80954  0.83767  1
 N  N1  1  0.71108  0.24152  0.58613  1
 N  N2  1  0.21108  0.74152  0.08613  1
 O  O1  1  0.86028  0.14538  0.70608  1
 O  O2  1  0.36029  0.64538  0.20608  1
