CIF file written using JARVIS-Tools package.
data_YAgSe2
_symmetry_space_group_name_H-M  'I4_1/amd'
_cell_length_a       7.25376
_cell_length_b       7.25376
_cell_length_c       7.25376
_cell_angle_alpha    133.758
_cell_angle_beta     133.758
_cell_angle_gamma    67.4661

_symmetry_Int_Tables_number  141
_chemical_formula_structural  YAgSe2
_chemical_formula_sum  Y2Ag2Se4
_cell_volume  195.7691999460023
_cell_formula_units_Z  2
loop_
  _symmetry_equiv_pos_site_id
 _symmetry_equiv_pos_as_xyz
 1  'x, y, z'
loop_
 _atom_site_type_symbol
 _atom_site_label
 _atom_site_symmetry_multiplicity
 _atom_site_fract_x
 _atom_site_fract_y
 _atom_site_fract_z
 _atom_site_fract_occupancy
 Ag  Ag1  1  0.50000  0.50000  0.00000  1
 Ag  Ag2  1  0.25000  0.75000  0.50000  1
 Se  Se1  1  0.76265  0.76265  -0.00000  1
 Se  Se2  1  0.23735  0.23735  0.00000  1
 Se  Se3  1  0.98735  0.48735  0.50000  1
 Se  Se4  1  0.51265  0.01265  0.50000  1
 Y  Y1  1  0.00000  0.00000  0.00000  1
 Y  Y2  1  0.75000  0.25000  0.50000  1
