CIF file written using JARVIS-Tools package.
data_Si3NiP4
_symmetry_space_group_name_H-M  'I-42m'
_cell_length_a       5.22423
_cell_length_b       5.22423
_cell_length_c       6.40845
_cell_angle_alpha    114.055
_cell_angle_beta     114.055
_cell_angle_gamma    90

_symmetry_Int_Tables_number  121
_chemical_formula_structural  Si3NiP4
_chemical_formula_sum  Si3NiP4
_cell_volume  142.920435627599
_cell_formula_units_Z  1
loop_
  _symmetry_equiv_pos_site_id
 _symmetry_equiv_pos_as_xyz
 1  'x, y, z'
loop_
 _atom_site_type_symbol
 _atom_site_label
 _atom_site_symmetry_multiplicity
 _atom_site_fract_x
 _atom_site_fract_y
 _atom_site_fract_z
 _atom_site_fract_occupancy
 Ni  Ni1  1  0.00000  0.00000  0.00000  1
 P  P1  1  0.63981  0.12304  0.76284  1
 P  P2  1  0.12304  0.63981  0.76284  1
 P  P3  1  0.87696  0.87696  0.23716  1
 P  P4  1  0.36019  0.36019  0.23716  1
 Si  Si1  1  0.25000  0.75000  0.50000  1
 Si  Si2  1  0.50000  0.50000  0.00000  1
 Si  Si3  1  0.75000  0.25000  0.50000  1
