CIF file written using JARVIS-Tools package.
data_LiCo2OF3
_symmetry_space_group_name_H-M  'C2/m'
_cell_length_a       5.90672
_cell_length_b       5.94871
_cell_length_c       6.1213
_cell_angle_alpha    59.8637
_cell_angle_beta     61.153
_cell_angle_gamma    60.2333

_symmetry_Int_Tables_number  12
_chemical_formula_structural  LiCo2OF3
_chemical_formula_sum  Li2Co4O2F6
_cell_volume  153.48099754631286
_cell_formula_units_Z  2
loop_
  _symmetry_equiv_pos_site_id
 _symmetry_equiv_pos_as_xyz
 1  'x, y, z'
loop_
 _atom_site_type_symbol
 _atom_site_label
 _atom_site_symmetry_multiplicity
 _atom_site_fract_x
 _atom_site_fract_y
 _atom_site_fract_z
 _atom_site_fract_occupancy
 Co  Co1  1  0.98583  0.96239  0.06594  1
 Co  Co2  1  0.26417  0.28761  0.18406  1
 Co  Co3  1  0.12500  0.62500  0.62500  1
 Co  Co4  1  0.62500  0.62500  0.62500  1
 F  F1  1  0.38854  0.37796  0.37192  1
 F  F2  1  0.86159  0.37796  0.37192  1
 F  F3  1  0.39133  0.87179  0.34555  1
 F  F4  1  0.85867  0.37821  0.90445  1
 F  F5  1  0.38841  0.87204  0.87808  1
 F  F6  1  0.86146  0.87204  0.87808  1
 Li  Li1  1  0.62500  0.12500  0.62500  1
 Li  Li2  1  0.62500  0.62500  0.12500  1
 O  O1  1  0.38642  0.41033  0.81683  1
 O  O2  1  0.86358  0.83967  0.43317  1
