CIF file written using JARVIS-Tools package.
data_Dy2In3Cu
_symmetry_space_group_name_H-M  'P3m1'
_cell_length_a       4.69606
_cell_length_b       4.69606
_cell_length_c       7.44282
_cell_angle_alpha    90
_cell_angle_beta     90
_cell_angle_gamma    120

_symmetry_Int_Tables_number  156
_chemical_formula_structural  Dy2In3Cu
_chemical_formula_sum  Dy2In3Cu
_cell_volume  142.1465100655294
_cell_formula_units_Z  1
loop_
  _symmetry_equiv_pos_site_id
 _symmetry_equiv_pos_as_xyz
 1  'x, y, z'
loop_
 _atom_site_type_symbol
 _atom_site_label
 _atom_site_symmetry_multiplicity
 _atom_site_fract_x
 _atom_site_fract_y
 _atom_site_fract_z
 _atom_site_fract_occupancy
 Cu  Cu1  1  0.66667  0.33333  0.45473  1
 Dy  Dy1  1  0.00000  0.00000  0.27707  1
 Dy  Dy2  1  0.00000  0.00000  0.73678  1
 In  In1  1  0.33333  0.66667  0.51809  1
 In  In2  1  0.33333  0.66667  0.94633  1
 In  In3  1  0.66667  0.33333  0.06699  1
