CIF file written using JARVIS-Tools package.
data_Hg2TeO3
_symmetry_space_group_name_H-M  'Pma2'
_cell_length_a       3.59655
_cell_length_b       5.89641
_cell_length_c       11.5405
_cell_angle_alpha    90
_cell_angle_beta     90
_cell_angle_gamma    90

_symmetry_Int_Tables_number  28
_chemical_formula_structural  Hg2TeO3
_chemical_formula_sum  Hg4Te2O6
_cell_volume  244.7363480133842
_cell_formula_units_Z  2
loop_
  _symmetry_equiv_pos_site_id
 _symmetry_equiv_pos_as_xyz
 1  'x, y, z'
loop_
 _atom_site_type_symbol
 _atom_site_label
 _atom_site_symmetry_multiplicity
 _atom_site_fract_x
 _atom_site_fract_y
 _atom_site_fract_z
 _atom_site_fract_occupancy
 Hg  Hg1  1  0.04882  0.81421  0.94017  1
 Hg  Hg2  1  0.04882  0.18579  0.05983  1
 Hg  Hg3  1  0.04882  0.18579  0.44017  1
 Hg  Hg4  1  0.04882  0.81421  0.55983  1
 O  O1  1  0.09413  0.53441  0.37390  1
 O  O2  1  0.09413  0.46559  0.62610  1
 O  O3  1  0.09413  0.46559  0.87390  1
 O  O4  1  0.09413  0.53441  0.12610  1
 O  O5  1  0.55799  0.24363  0.25000  1
 O  O6  1  0.55799  0.75637  0.75000  1
 Te  Te1  1  0.46301  0.55716  0.25000  1
 Te  Te2  1  0.46301  0.44284  0.75000  1
