CIF file written using JARVIS-Tools package.
data_V4O5F7
_symmetry_space_group_name_H-M  'P2'
_cell_length_a       5.34072
_cell_length_b       5.06778
_cell_length_c       7.2578
_cell_angle_alpha    90
_cell_angle_beta     94.3577
_cell_angle_gamma    90

_symmetry_Int_Tables_number  3
_chemical_formula_structural  V4O5F7
_chemical_formula_sum  V4O5F7
_cell_volume  195.8685512456958
_cell_formula_units_Z  1
loop_
  _symmetry_equiv_pos_site_id
 _symmetry_equiv_pos_as_xyz
 1  'x, y, z'
loop_
 _atom_site_type_symbol
 _atom_site_label
 _atom_site_symmetry_multiplicity
 _atom_site_fract_x
 _atom_site_fract_y
 _atom_site_fract_z
 _atom_site_fract_occupancy
 F  F1  1  0.00000  0.10315  0.50000  1
 F  F2  1  0.19834  0.31227  0.19627  1
 F  F3  1  0.80166  0.31227  0.80373  1
 F  F4  1  0.50000  0.39130  0.50000  1
 F  F5  1  0.50000  0.62692  0.00000  1
 F  F6  1  0.18868  0.70487  0.68979  1
 F  F7  1  0.81132  0.70487  0.31021  1
 O  O1  1  0.29667  0.21458  0.80192  1
 O  O2  1  0.70333  0.21458  0.19808  1
 O  O3  1  0.30919  0.81301  0.29867  1
 O  O4  1  0.69081  0.81301  0.70133  1
 O  O5  1  0.00000  0.90920  0.00000  1
 V  V1  1  0.46950  0.46907  0.75624  1
 V  V2  1  0.53050  0.46907  0.24376  1
 V  V3  1  0.95597  0.97092  0.75687  1
 V  V4  1  0.04403  0.97092  0.24313  1
