CIF file written using JARVIS-Tools package.
data_Li2MnF4
_symmetry_space_group_name_H-M  'R-3m'
_cell_length_a       8.73479
_cell_length_b       8.73479
_cell_length_c       8.73478
_cell_angle_alpha    21.6593
_cell_angle_beta     21.6593
_cell_angle_gamma    21.6593

_symmetry_Int_Tables_number  166
_chemical_formula_structural  Li2MnF4
_chemical_formula_sum  Li2MnF4
_cell_volume  79.55793114374978
_cell_formula_units_Z  1
loop_
  _symmetry_equiv_pos_site_id
 _symmetry_equiv_pos_as_xyz
 1  'x, y, z'
loop_
 _atom_site_type_symbol
 _atom_site_label
 _atom_site_symmetry_multiplicity
 _atom_site_fract_x
 _atom_site_fract_y
 _atom_site_fract_z
 _atom_site_fract_occupancy
 F  F1  1  0.12593  0.12593  0.12593  1
 F  F2  1  0.62870  0.62870  0.62870  1
 F  F3  1  0.37130  0.37130  0.37130  1
 F  F4  1  0.87407  0.87407  0.87407  1
 Li  Li1  1  0.20412  0.20412  0.20412  1
 Li  Li2  1  0.79588  0.79588  0.79588  1
 Mn  Mn1  1  0.00000  0.00000  0.00000  1
