CIF file written using JARVIS-Tools package.
data_LiV2CrO6
_symmetry_space_group_name_H-M  'R3'
_cell_length_a       4.91932
_cell_length_b       4.91936
_cell_length_c       5.347
_cell_angle_alpha    117.388
_cell_angle_beta     62.6183
_cell_angle_gamma    119.992

_symmetry_Int_Tables_number  146
_chemical_formula_structural  LiV2CrO6
_chemical_formula_sum  LiV2CrO6
_cell_volume  94.95507456466308
_cell_formula_units_Z  1
loop_
  _symmetry_equiv_pos_site_id
 _symmetry_equiv_pos_as_xyz
 1  'x, y, z'
loop_
 _atom_site_type_symbol
 _atom_site_label
 _atom_site_symmetry_multiplicity
 _atom_site_fract_x
 _atom_site_fract_y
 _atom_site_fract_z
 _atom_site_fract_occupancy
 Cr  Cr1  1  0.19472  0.80530  0.41578  1
 Li  Li1  1  0.71124  0.28886  0.86634  1
 O  O1  1  0.26868  0.08845  0.20741  1
 O  O2  1  0.91156  0.38770  0.20741  1
 O  O3  1  0.61230  0.73129  0.20734  1
 O  O4  1  0.39008  0.21964  0.69923  1
 O  O5  1  0.13026  0.60993  0.69926  1
 O  O6  1  0.78036  0.86974  0.69920  1
 V  V1  1  -0.00227  0.00222  0.00662  1
 V  V2  1  0.50227  0.49768  0.49300  1
