CIF file written using JARVIS-Tools package.
data_Tl2FeCu3Te4
_symmetry_space_group_name_H-M  'C222'
_cell_length_a       8.10869
_cell_length_b       8.10869
_cell_length_c       5.77196
_cell_angle_alpha    90
_cell_angle_beta     90
_cell_angle_gamma    138.231

_symmetry_Int_Tables_number  21
_chemical_formula_structural  Tl2FeCu3Te4
_chemical_formula_sum  Tl2FeCu3Te4
_cell_volume  252.80589880020398
_cell_formula_units_Z  1
loop_
  _symmetry_equiv_pos_site_id
 _symmetry_equiv_pos_as_xyz
 1  'x, y, z'
loop_
 _atom_site_type_symbol
 _atom_site_label
 _atom_site_symmetry_multiplicity
 _atom_site_fract_x
 _atom_site_fract_y
 _atom_site_fract_z
 _atom_site_fract_occupancy
 Cu  Cu1  1  0.50000  0.50000  0.50000  1
 Cu  Cu2  1  0.50000  0.50000  0.00000  1
 Cu  Cu3  1  0.00000  0.00000  0.50000  1
 Fe  Fe1  1  0.00000  0.00000  0.00000  1
 Te  Te1  1  0.35681  0.13494  0.75435  1
 Te  Te2  1  0.86506  0.64319  0.24565  1
 Te  Te3  1  0.13494  0.35681  0.24565  1
 Te  Te4  1  0.64319  0.86506  0.75435  1
 Tl  Tl1  1  0.50000  0.00000  0.24953  1
 Tl  Tl2  1  -0.00000  0.50000  0.75047  1
