CIF file written using JARVIS-Tools package.
data_ScFeGe
_symmetry_space_group_name_H-M  'P-62m'
_cell_length_a       6.47891
_cell_length_b       6.47891
_cell_length_c       3.90269
_cell_angle_alpha    90
_cell_angle_beta     90
_cell_angle_gamma    120

_symmetry_Int_Tables_number  189
_chemical_formula_structural  ScFeGe
_chemical_formula_sum  Sc3Fe3Ge3
_cell_volume  141.8723643616703
_cell_formula_units_Z  3
loop_
  _symmetry_equiv_pos_site_id
 _symmetry_equiv_pos_as_xyz
 1  'x, y, z'
loop_
 _atom_site_type_symbol
 _atom_site_label
 _atom_site_symmetry_multiplicity
 _atom_site_fract_x
 _atom_site_fract_y
 _atom_site_fract_z
 _atom_site_fract_occupancy
 Fe  Fe1  1  0.00000  0.77102  0.00000  1
 Fe  Fe2  1  0.22898  0.22898  0.00000  1
 Fe  Fe3  1  0.77102  0.00000  0.00000  1
 Ge  Ge1  1  0.00000  0.00000  0.50000  1
 Ge  Ge2  1  0.33333  0.66667  0.00000  1
 Ge  Ge3  1  0.66667  0.33333  0.00000  1
 Sc  Sc1  1  -0.00000  0.42099  0.50000  1
 Sc  Sc2  1  0.57901  0.57901  0.50000  1
 Sc  Sc3  1  0.42099  -0.00000  0.50000  1
