CIF file written using JARVIS-Tools package.
data_BiSb
_symmetry_space_group_name_H-M  'R3m'
_cell_length_a       4.71566
_cell_length_b       4.71565
_cell_length_c       4.71566
_cell_angle_alpha    56.8398
_cell_angle_beta     56.8399
_cell_angle_gamma    56.8399

_symmetry_Int_Tables_number  160
_chemical_formula_structural  BiSb
_chemical_formula_sum  BiSb
_cell_volume  68.74304316122135
_cell_formula_units_Z  1
loop_
  _symmetry_equiv_pos_site_id
 _symmetry_equiv_pos_as_xyz
 1  'x, y, z'
loop_
 _atom_site_type_symbol
 _atom_site_label
 _atom_site_symmetry_multiplicity
 _atom_site_fract_x
 _atom_site_fract_y
 _atom_site_fract_z
 _atom_site_fract_occupancy
 Bi  Bi1  1  0.76612  0.76612  0.76612  1
 Sb  Sb1  1  0.23388  0.23388  0.23388  1
