CIF file written using JARVIS-Tools package.
data_CdGa2S4
_symmetry_space_group_name_H-M  'I-4'
_cell_length_a       5.57829
_cell_length_b       5.57829
_cell_length_c       6.48587
_cell_angle_alpha    115.47
_cell_angle_beta     115.47
_cell_angle_gamma    90

_symmetry_Int_Tables_number  82
_chemical_formula_structural  CdGa2S4
_chemical_formula_sum  CdGa2S4
_cell_volume  160.2098271856865
_cell_formula_units_Z  1
loop_
  _symmetry_equiv_pos_site_id
 _symmetry_equiv_pos_as_xyz
 1  'x, y, z'
loop_
 _atom_site_type_symbol
 _atom_site_label
 _atom_site_symmetry_multiplicity
 _atom_site_fract_x
 _atom_site_fract_y
 _atom_site_fract_z
 _atom_site_fract_occupancy
 Cd  Cd1  1  0.00000  0.00000  0.00000  1
 Ga  Ga1  1  0.25000  0.75000  0.50000  1
 Ga  Ga2  1  0.50000  0.50000  0.00000  1
 S  S1  1  0.86585  0.87078  0.27527  1
 S  S2  1  0.59550  0.13415  0.72473  1
 S  S3  1  0.12922  0.59058  0.72473  1
 S  S4  1  0.40942  0.40450  0.27527  1
