CIF file written using JARVIS-Tools package.
data_H5C6S2N
_symmetry_space_group_name_H-M  'P1'
_cell_length_a       5.22627
_cell_length_b       7.35698
_cell_length_c       9.07113
_cell_angle_alpha    109.481
_cell_angle_beta     95.3688
_cell_angle_gamma    108.648

_symmetry_Int_Tables_number  1
_chemical_formula_structural  H5C6S2N
_chemical_formula_sum  H0C2S4N2
_cell_volume  303.62742032535954
_cell_formula_units_Z  2
loop_
  _symmetry_equiv_pos_site_id
 _symmetry_equiv_pos_as_xyz
 1  'x, y, z'
loop_
 _atom_site_type_symbol
 _atom_site_label
 _atom_site_symmetry_multiplicity
 _atom_site_fract_x
 _atom_site_fract_y
 _atom_site_fract_z
 _atom_site_fract_occupancy
 C  C1  1  0.77719  0.71991  0.80617  1
 C  C2  1  0.46197  0.00805  0.42390  1
 C  C3  1  0.98642  0.47994  0.17583  1
 C  C4  1  0.48642  0.97994  0.67583  1
 C  C5  1  0.89196  0.56290  0.07477  1
 C  C6  1  0.96197  0.50805  0.92390  1
 C  C7  1  0.39196  0.06290  0.57477  1
 C  C8  1  0.13955  0.36032  0.10505  1
 C  C9  1  0.63955  0.86032  0.60505  1
 C  C10  1  0.27719  0.21991  0.30617  1
 C  C11  1  0.41894  0.06417  0.29386  1
 C  C12  1  0.91894  0.56417  0.79386  1
 H  H1  1  0.89171  0.86349  0.91330  1
 H  H2  1  0.37824  0.18598  0.08723  1
 H  H3  1  0.06381  0.15504  0.32098  1
 H  H4  1  0.56381  0.65504  0.82098  1
 H  H5  1  0.27550  0.16384  0.60830  1
 H  H6  1  0.77550  0.66383  0.10830  1
 H  H7  1  0.45533  0.00647  0.79709  1
 H  H8  1  0.95533  0.50647  0.29709  1
 H  H9  1  0.39171  0.36349  0.41330  1
 H  H10  1  0.87824  0.68598  0.58723  1
 N  N1  1  0.27390  0.26207  0.16104  1
 N  N2  1  0.77390  0.76207  0.66104  1
 S  S1  1  0.02983  0.46549  0.62636  1
 S  S2  1  0.52983  0.96549  0.12636  1
 S  S3  1  0.15287  0.34737  0.91018  1
 S  S4  1  0.65287  0.84737  0.41018  1
