CIF file written using JARVIS-Tools package.
data_UPt2Au3
_symmetry_space_group_name_H-M  'Imm2'
_cell_length_a       5.42395
_cell_length_b       5.42395
_cell_length_c       5.42394
_cell_angle_alpha    119.876
_cell_angle_beta     119.179
_cell_angle_gamma    90.8213

_symmetry_Int_Tables_number  44
_chemical_formula_structural  UPt2Au3
_chemical_formula_sum  UPt2Au3
_cell_volume  113.61957941852724
_cell_formula_units_Z  1
loop_
  _symmetry_equiv_pos_site_id
 _symmetry_equiv_pos_as_xyz
 1  'x, y, z'
loop_
 _atom_site_type_symbol
 _atom_site_label
 _atom_site_symmetry_multiplicity
 _atom_site_fract_x
 _atom_site_fract_y
 _atom_site_fract_z
 _atom_site_fract_occupancy
 Au  Au1  1  0.62294  0.37388  0.75094  1
 Au  Au2  1  0.62294  0.87200  0.24906  1
 Au  Au3  1  0.24851  0.74851  0.50000  1
 Pt  Pt1  1  0.62265  0.37316  0.24949  1
 Pt  Pt2  1  0.12367  0.37316  0.75051  1
 U  U1  1  0.00930  0.00930  -0.00000  1
