CIF file written using JARVIS-Tools package.
data_SO4
_symmetry_space_group_name_H-M  'C2/c'
_cell_length_a       4.8178
_cell_length_b       4.8178
_cell_length_c       8.76625
_cell_angle_alpha    61.4552
_cell_angle_beta     61.4552
_cell_angle_gamma    52.0923

_symmetry_Int_Tables_number  15
_chemical_formula_structural  SO4
_chemical_formula_sum  S2O8
_cell_volume  135.9519926676897
_cell_formula_units_Z  2
loop_
  _symmetry_equiv_pos_site_id
 _symmetry_equiv_pos_as_xyz
 1  'x, y, z'
loop_
 _atom_site_type_symbol
 _atom_site_label
 _atom_site_symmetry_multiplicity
 _atom_site_fract_x
 _atom_site_fract_y
 _atom_site_fract_z
 _atom_site_fract_occupancy
 O  O1  1  0.19300  0.74350  0.40161  1
 O  O2  1  0.25650  0.80700  0.09839  1
 O  O3  1  0.80700  0.25650  0.59839  1
 O  O4  1  0.74350  0.19300  0.90161  1
 O  O5  1  0.65698  0.01878  0.31037  1
 O  O6  1  -0.01878  0.34302  0.18963  1
 O  O7  1  0.34302  -0.01878  0.68963  1
 O  O8  1  0.01878  0.65698  0.81037  1
 S  S1  1  0.02136  0.97864  0.25000  1
 S  S2  1  0.97864  0.02136  0.75000  1
