CIF file written using JARVIS-Tools package.
data_TaNbMo
_symmetry_space_group_name_H-M  'Fmm2'
_cell_length_a       7.19644
_cell_length_b       6.99021
_cell_length_c       2.86135
_cell_angle_alpha    82.442
_cell_angle_beta     74.3451
_cell_angle_gamma    23.213

_symmetry_Int_Tables_number  42
_chemical_formula_structural  TaNbMo
_chemical_formula_sum  TaNbMo
_cell_volume  51.99336536944565
_cell_formula_units_Z  1
loop_
  _symmetry_equiv_pos_site_id
 _symmetry_equiv_pos_as_xyz
 1  'x, y, z'
loop_
 _atom_site_type_symbol
 _atom_site_label
 _atom_site_symmetry_multiplicity
 _atom_site_fract_x
 _atom_site_fract_y
 _atom_site_fract_z
 _atom_site_fract_occupancy
 Mo  Mo1  1  0.00052  0.00052  0.99948  1
 Nb  Nb1  1  0.33733  0.33733  0.66267  1
 Ta  Ta1  1  0.66215  0.66215  0.33785  1
