CIF file written using JARVIS-Tools package.
data_Zn3PBr3
_symmetry_space_group_name_H-M  'Pm'
_cell_length_a       4.04171
_cell_length_b       6.60962
_cell_length_c       6.92064
_cell_angle_alpha    89.7184
_cell_angle_beta     90
_cell_angle_gamma    90

_symmetry_Int_Tables_number  6
_chemical_formula_structural  Zn3PBr3
_chemical_formula_sum  Zn3PBr3
_cell_volume  184.87724736498842
_cell_formula_units_Z  1
loop_
  _symmetry_equiv_pos_site_id
 _symmetry_equiv_pos_as_xyz
 1  'x, y, z'
loop_
 _atom_site_type_symbol
 _atom_site_label
 _atom_site_symmetry_multiplicity
 _atom_site_fract_x
 _atom_site_fract_y
 _atom_site_fract_z
 _atom_site_fract_occupancy
 Br  Br1  1  0.00000  0.87013  0.67103  1
 Br  Br2  1  0.50000  0.87297  0.18120  1
 Br  Br3  1  0.00000  0.37656  0.32389  1
 P  P1  1  0.50000  0.37256  0.81862  1
 Zn  Zn1  1  0.00000  0.47078  0.69278  1
 Zn  Zn2  1  0.50000  0.50597  0.12316  1
 Zn  Zn3  1  0.50000  0.02703  0.85596  1
