CIF file written using JARVIS-Tools package.
data_H6C8SO
_symmetry_space_group_name_H-M  'P1'
_cell_length_a       5.2113
_cell_length_b       6.09391
_cell_length_c       11.7453
_cell_angle_alpha    92.9357
_cell_angle_beta     86.2716
_cell_angle_gamma    67.1525

_symmetry_Int_Tables_number  1
_chemical_formula_structural  H6C8SO
_chemical_formula_sum  H2C6S2O2
_cell_volume  341.81671979688286
_cell_formula_units_Z  2
loop_
  _symmetry_equiv_pos_site_id
 _symmetry_equiv_pos_as_xyz
 1  'x, y, z'
loop_
 _atom_site_type_symbol
 _atom_site_label
 _atom_site_symmetry_multiplicity
 _atom_site_fract_x
 _atom_site_fract_y
 _atom_site_fract_z
 _atom_site_fract_occupancy
 C  C1  1  0.84320  0.39640  0.52603  1
 C  C2  1  0.03982  0.37394  0.43431  1
 C  C3  1  0.80399  0.02260  0.77495  1
 C  C4  1  0.30399  0.02260  0.27495  1
 C  C5  1  0.68193  0.52781  0.93584  1
 C  C6  1  0.60817  0.71695  0.02054  1
 C  C7  1  0.10818  0.71695  0.52054  1
 C  C8  1  0.53982  0.37394  0.93431  1
 C  C9  1  0.18194  0.52781  0.43584  1
 C  C10  1  0.39217  0.74720  0.10373  1
 C  C11  1  0.54291  0.22428  0.82784  1
 C  C12  1  0.04291  0.22428  0.32784  1
 C  C13  1  0.89218  0.74721  0.60373  1
 C  C14  1  0.76726  0.58376  0.61119  1
 C  C15  1  0.26725  0.58375  0.11119  1
 C  C16  1  0.34319  0.39639  0.02602  1
 H  H1  1  0.23190  0.27747  0.02642  1
 H  H2  1  0.89211  0.13963  0.34384  1
 H  H3  1  0.73190  0.27748  0.52643  1
 H  H4  1  0.45512  0.34358  0.75994  1
 H  H5  1  0.95511  0.34358  0.25994  1
 H  H6  1  0.39212  0.13963  0.84383  1
 H  H7  1  0.33961  0.51087  0.36630  1
 H  H8  1  0.70634  0.84542  0.01777  1
 H  H9  1  0.20636  0.84542  0.51776  1
 H  H10  1  0.83960  0.51088  0.86630  1
 H  H11  1  0.09489  0.61726  0.17646  1
 H  H12  1  0.59489  0.61727  0.67646  1
 O  O1  1  0.24977  0.96894  0.16818  1
 O  O2  1  0.74978  0.96895  0.66818  1
 S  S1  1  0.59075  0.87884  0.33434  1
 S  S2  1  0.09074  0.87884  0.83434  1
