CIF file written using JARVIS-Tools package.
data_Yb3Ge5
_symmetry_space_group_name_H-M  'P-62m'
_cell_length_a       6.95353
_cell_length_b       6.95353
_cell_length_c       4.23884
_cell_angle_alpha    90
_cell_angle_beta     90
_cell_angle_gamma    120

_symmetry_Int_Tables_number  189
_chemical_formula_structural  Yb3Ge5
_chemical_formula_sum  Yb3Ge5
_cell_volume  177.49591556667278
_cell_formula_units_Z  1
loop_
  _symmetry_equiv_pos_site_id
 _symmetry_equiv_pos_as_xyz
 1  'x, y, z'
loop_
 _atom_site_type_symbol
 _atom_site_label
 _atom_site_symmetry_multiplicity
 _atom_site_fract_x
 _atom_site_fract_y
 _atom_site_fract_z
 _atom_site_fract_occupancy
 Ge  Ge1  1  0.66667  0.33333  0.00000  1
 Ge  Ge2  1  0.33333  0.66667  0.00000  1
 Ge  Ge3  1  0.72833  -0.00000  0.00000  1
 Ge  Ge4  1  -0.00000  0.72833  0.00000  1
 Ge  Ge5  1  0.27167  0.27167  0.00000  1
 Yb  Yb1  1  0.35496  0.00000  0.50000  1
 Yb  Yb2  1  0.64504  0.64504  0.50000  1
 Yb  Yb3  1  0.00000  0.35496  0.50000  1
