CIF file written using JARVIS-Tools package.
data_LaCoO3
_symmetry_space_group_name_H-M  'R-3c'
_cell_length_a       5.38233
_cell_length_b       5.38261
_cell_length_c       5.38431
_cell_angle_alpha    61.1334
_cell_angle_beta     61.1465
_cell_angle_gamma    61.1799

_symmetry_Int_Tables_number  167
_chemical_formula_structural  LaCoO3
_chemical_formula_sum  La2Co2O6
_cell_volume  113.1630127734539
_cell_formula_units_Z  2
loop_
  _symmetry_equiv_pos_site_id
 _symmetry_equiv_pos_as_xyz
 1  'x, y, z'
loop_
 _atom_site_type_symbol
 _atom_site_label
 _atom_site_symmetry_multiplicity
 _atom_site_fract_x
 _atom_site_fract_y
 _atom_site_fract_z
 _atom_site_fract_occupancy
 Co  Co1  1  0.50000  0.50000  -0.00000  1
 Co  Co2  1  -0.00000  -0.00000  0.50000  1
 La  La1  1  0.75000  0.74994  0.25005  1
 La  La2  1  0.25000  0.25006  0.74995  1
 O  O1  1  0.24990  0.69458  0.30542  1
 O  O2  1  0.75010  0.30542  0.69457  1
 O  O3  1  0.80577  0.25057  0.19423  1
 O  O4  1  0.19423  0.74943  0.80577  1
 O  O5  1  0.69410  0.80589  0.74958  1
 O  O6  1  0.30590  0.19411  0.25042  1
