CIF file written using JARVIS-Tools package.
data_Ce2Si2NiPt
_symmetry_space_group_name_H-M  'Imm2'
_cell_length_a       7.78065
_cell_length_b       7.78065
_cell_length_c       7.78065
_cell_angle_alpha    150.19
_cell_angle_beta     149.101
_cell_angle_gamma    43.4684

_symmetry_Int_Tables_number  44
_chemical_formula_structural  Ce2Si2NiPt
_chemical_formula_sum  Ce2Si2NiPt
_cell_volume  119.92161418606413
_cell_formula_units_Z  1
loop_
  _symmetry_equiv_pos_site_id
 _symmetry_equiv_pos_as_xyz
 1  'x, y, z'
loop_
 _atom_site_type_symbol
 _atom_site_label
 _atom_site_symmetry_multiplicity
 _atom_site_fract_x
 _atom_site_fract_y
 _atom_site_fract_z
 _atom_site_fract_occupancy
 Ce  Ce1  1  0.75292  0.25292  0.50000  1
 Ce  Ce2  1  0.99864  0.99864  0.00000  1
 Ni  Ni1  1  0.33474  0.83474  0.50000  1
 Pt  Pt1  1  0.58409  0.58409  -0.00000  1
 Si  Si1  1  0.17491  0.67491  0.50000  1
 Si  Si2  1  0.41270  0.41270  0.00000  1
