CIF file written using JARVIS-Tools package.
data_H3C7NO
_symmetry_space_group_name_H-M  'P1'
_cell_length_a       3.64451
_cell_length_b       5.69611
_cell_length_c       11.0221
_cell_angle_alpha    80.6958
_cell_angle_beta     88.9774
_cell_angle_gamma    87.7868

_symmetry_Int_Tables_number  1
_chemical_formula_structural  H3C7NO
_chemical_formula_sum  H6C4N2O2
_cell_volume  225.61887302159832
_cell_formula_units_Z  2
loop_
  _symmetry_equiv_pos_site_id
 _symmetry_equiv_pos_as_xyz
 1  'x, y, z'
loop_
 _atom_site_type_symbol
 _atom_site_label
 _atom_site_symmetry_multiplicity
 _atom_site_fract_x
 _atom_site_fract_y
 _atom_site_fract_z
 _atom_site_fract_occupancy
 C  C1  1  0.21600  0.76079  0.74423  1
 C  C2  1  0.32825  0.65113  0.86626  1
 C  C3  1  0.62103  0.37917  0.25346  1
 C  C4  1  0.45173  0.58055  0.18540  1
 C  C5  1  0.43075  0.57376  0.05995  1
 C  C6  1  0.57088  0.37645  0.00791  1
 C  C7  1  0.05570  0.99269  0.72993  1
 C  C8  1  0.94295  0.10375  0.61547  1
 C  C9  1  0.98588  0.98866  0.51196  1
 C  C10  1  0.14750  0.75825  0.52556  1
 C  C11  1  0.26129  0.64621  0.64114  1
 C  C12  1  0.74252  0.17327  0.07259  1
 C  C13  1  0.85654  0.11888  0.39593  1
 C  C14  1  0.75790  0.18620  0.19723  1
 H  H1  1  0.34331  0.73003  0.22663  1
 H  H2  1  0.02420  0.08323  0.80938  1
 H  H3  1  0.82169  0.28292  0.60276  1
 H  H4  1  0.18180  0.66453  0.44730  1
 H  H5  1  0.38419  0.46746  0.65198  1
 H  H6  1  0.85607  0.02461  0.03127  1
 N  N1  1  0.28037  0.74161  0.96710  1
 N  N2  1  0.68930  0.32824  0.37858  1
 O  O1  1  0.50468  0.42592  0.88275  1
 O  O2  1  0.90947  0.01773  0.28926  1
