CIF file written using JARVIS-Tools package.
data_PHN2
_symmetry_space_group_name_H-M  'P2_12_12_1'
_cell_length_a       4.66994
_cell_length_b       4.67545
_cell_length_c       7.10097
_cell_angle_alpha    90
_cell_angle_beta     90
_cell_angle_gamma    90

_symmetry_Int_Tables_number  19
_chemical_formula_structural  PHN2
_chemical_formula_sum  P4H4N8
_cell_volume  155.04317228001682
_cell_formula_units_Z  4
loop_
  _symmetry_equiv_pos_site_id
 _symmetry_equiv_pos_as_xyz
 1  'x, y, z'
loop_
 _atom_site_type_symbol
 _atom_site_label
 _atom_site_symmetry_multiplicity
 _atom_site_fract_x
 _atom_site_fract_y
 _atom_site_fract_z
 _atom_site_fract_occupancy
 H  H1  1  0.64202  0.55581  0.18761  1
 H  H2  1  0.85798  0.44419  0.68761  1
 H  H3  1  0.14202  0.94419  0.81239  1
 H  H4  1  0.35798  0.05581  0.31239  1
 N  N1  1  0.84894  0.52086  0.23347  1
 N  N2  1  0.65106  0.47914  0.73347  1
 N  N3  1  0.34894  0.97914  0.76653  1
 N  N4  1  0.15106  0.02086  0.26653  1
 N  N5  1  0.70855  0.90232  0.48875  1
 N  N6  1  0.79145  0.09768  0.98875  1
 N  N7  1  0.20855  0.59768  0.51125  1
 N  N8  1  0.29145  0.40232  0.01125  1
 P  P1  1  0.97825  0.76250  0.38463  1
 P  P2  1  0.52175  0.23750  0.88463  1
 P  P3  1  0.47825  0.73750  0.61537  1
 P  P4  1  0.02175  0.26250  0.11537  1
