CIF file written using JARVIS-Tools package.
data_Mn4Hg3Au
_symmetry_space_group_name_H-M  'P4/mmm'
_cell_length_a       3.18933
_cell_length_b       3.18933
_cell_length_c       13.8764
_cell_angle_alpha    90
_cell_angle_beta     90
_cell_angle_gamma    90

_symmetry_Int_Tables_number  123
_chemical_formula_structural  Mn4Hg3Au
_chemical_formula_sum  Mn4Hg3Au
_cell_volume  141.14773252151886
_cell_formula_units_Z  1
loop_
  _symmetry_equiv_pos_site_id
 _symmetry_equiv_pos_as_xyz
 1  'x, y, z'
loop_
 _atom_site_type_symbol
 _atom_site_label
 _atom_site_symmetry_multiplicity
 _atom_site_fract_x
 _atom_site_fract_y
 _atom_site_fract_z
 _atom_site_fract_occupancy
 Au  Au1  1  0.00000  0.00000  0.00000  1
 Hg  Hg1  1  0.00000  0.00000  0.24446  1
 Hg  Hg2  1  0.00000  0.00000  0.50000  1
 Hg  Hg3  1  0.00000  0.00000  0.75554  1
 Mn  Mn1  1  0.50000  0.50000  0.11500  1
 Mn  Mn2  1  0.50000  0.50000  0.37217  1
 Mn  Mn3  1  0.50000  0.50000  0.62783  1
 Mn  Mn4  1  0.50000  0.50000  0.88500  1
