CIF file written using JARVIS-Tools package.
data_Te2MoW2Se4
_symmetry_space_group_name_H-M  'P-6m2'
_cell_length_a       3.40168
_cell_length_b       3.40167
_cell_length_c       29.6447
_cell_angle_alpha    90
_cell_angle_beta     90
_cell_angle_gamma    120

_symmetry_Int_Tables_number  187
_chemical_formula_structural  Te2MoW2Se4
_chemical_formula_sum  Te2MoW2Se4
_cell_volume  297.0728633650067
_cell_formula_units_Z  1
loop_
  _symmetry_equiv_pos_site_id
 _symmetry_equiv_pos_as_xyz
 1  'x, y, z'
loop_
 _atom_site_type_symbol
 _atom_site_label
 _atom_site_symmetry_multiplicity
 _atom_site_fract_x
 _atom_site_fract_y
 _atom_site_fract_z
 _atom_site_fract_occupancy
 Mo  Mo1  1  0.66645  0.33290  0.34698  1
 Se  Se1  1  0.66676  0.33352  0.05760  1
 Se  Se2  1  0.66677  0.33354  0.52466  1
 Se  Se3  1  0.66677  0.33354  0.16931  1
 Se  Se4  1  0.66676  0.33352  0.63636  1
 Te  Te1  1  0.33311  0.66623  0.41028  1
 Te  Te2  1  0.33311  0.66623  0.28369  1
 W  W1  1  0.33343  0.66686  0.11341  1
 W  W2  1  0.33343  0.66686  0.58056  1
