CIF file written using JARVIS-Tools package.
data_Er2SbO2
_symmetry_space_group_name_H-M  'I4/mmm'
_cell_length_a       7.09553
_cell_length_b       7.09553
_cell_length_c       7.09553
_cell_angle_alpha    148.853
_cell_angle_beta     148.848
_cell_angle_gamma    44.6311

_symmetry_Int_Tables_number  139
_chemical_formula_structural  Er2SbO2
_chemical_formula_sum  Er2SbO2
_cell_volume  95.29588582326403
_cell_formula_units_Z  1
loop_
  _symmetry_equiv_pos_site_id
 _symmetry_equiv_pos_as_xyz
 1  'x, y, z'
loop_
 _atom_site_type_symbol
 _atom_site_label
 _atom_site_symmetry_multiplicity
 _atom_site_fract_x
 _atom_site_fract_y
 _atom_site_fract_z
 _atom_site_fract_occupancy
 Er  Er1  1  0.33418  0.34920  0.01502  1
 Er  Er2  1  0.66582  0.68083  0.01502  1
 O  O1  1  0.75001  0.26502  0.51501  1
 O  O2  1  0.24999  0.76500  0.51501  1
 Sb  Sb1  1  -0.00000  0.01494  0.01494  1
