CIF file written using JARVIS-Tools package.
data_Hf2Ni7
_symmetry_space_group_name_H-M  'C2/m'
_cell_length_a       4.69466
_cell_length_b       4.69466
_cell_length_c       6.25017
_cell_angle_alpha    82.0123
_cell_angle_beta     82.0124
_cell_angle_gamma    120.718

_symmetry_Int_Tables_number  12
_chemical_formula_structural  Hf2Ni7
_chemical_formula_sum  Hf2Ni7
_cell_volume  113.65430027828553
_cell_formula_units_Z  1
loop_
  _symmetry_equiv_pos_site_id
 _symmetry_equiv_pos_as_xyz
 1  'x, y, z'
loop_
 _atom_site_type_symbol
 _atom_site_label
 _atom_site_symmetry_multiplicity
 _atom_site_fract_x
 _atom_site_fract_y
 _atom_site_fract_z
 _atom_site_fract_occupancy
 Hf  Hf1  1  0.10848  0.10848  0.22786  1
 Hf  Hf2  1  0.89152  0.89152  0.77214  1
 Ni  Ni1  1  0.00000  0.50000  0.50000  1
 Ni  Ni2  1  0.50000  0.00000  0.50000  1
 Ni  Ni3  1  0.46719  0.79458  0.15457  1
 Ni  Ni4  1  0.53281  0.20542  0.84543  1
 Ni  Ni5  1  0.20542  0.53281  0.84543  1
 Ni  Ni6  1  0.79458  0.46719  0.15457  1
 Ni  Ni7  1  0.50000  0.50000  0.50000  1
