CIF file written using JARVIS-Tools package.
data_ErSi
_symmetry_space_group_name_H-M  'Cmcm'
_cell_length_a       3.81339
_cell_length_b       4.23186
_cell_length_c       5.63082
_cell_angle_alpha    112.072
_cell_angle_beta     90
_cell_angle_gamma    90

_symmetry_Int_Tables_number  63
_chemical_formula_structural  ErSi
_chemical_formula_sum  Er2Si2
_cell_volume  84.20887184551957
_cell_formula_units_Z  2
loop_
  _symmetry_equiv_pos_site_id
 _symmetry_equiv_pos_as_xyz
 1  'x, y, z'
loop_
 _atom_site_type_symbol
 _atom_site_label
 _atom_site_symmetry_multiplicity
 _atom_site_fract_x
 _atom_site_fract_y
 _atom_site_fract_z
 _atom_site_fract_occupancy
 Er  Er1  1  0.25000  0.85951  0.71901  1
 Er  Er2  1  0.75000  0.14049  0.28099  1
 Si  Si1  1  0.25000  0.57872  0.15744  1
 Si  Si2  1  0.75000  0.42128  0.84256  1
