CIF file written using JARVIS-Tools package.
data_CdH18C11O4
_symmetry_space_group_name_H-M  'P1'
_cell_length_a       3.88101
_cell_length_b       4.31717
_cell_length_c       16.4582
_cell_angle_alpha    90.3887
_cell_angle_beta     93.6845
_cell_angle_gamma    105.346

_symmetry_Int_Tables_number  1
_chemical_formula_structural  CdH18C11O4
_chemical_formula_sum  CdH8CO4
_cell_volume  265.2937658426229
_cell_formula_units_Z  1
loop_
  _symmetry_equiv_pos_site_id
 _symmetry_equiv_pos_as_xyz
 1  'x, y, z'
loop_
 _atom_site_type_symbol
 _atom_site_label
 _atom_site_symmetry_multiplicity
 _atom_site_fract_x
 _atom_site_fract_y
 _atom_site_fract_z
 _atom_site_fract_occupancy
 C  C1  1  0.54882  0.57359  0.64735  1
 C  C2  1  0.31426  0.64653  0.26114  1
 C  C3  1  0.19806  0.50361  0.34219  1
 C  C4  1  0.36114  0.53839  0.49500  1
 C  C5  1  0.47278  0.75405  0.57148  1
 C  C6  1  0.31811  0.72388  0.41771  1
 C  C7  1  0.65960  0.78860  0.72399  1
 C  C8  1  0.74072  0.60786  0.79937  1
 C  C9  1  0.84481  0.82111  0.87640  1
 C  C10  1  0.91969  0.63039  0.95099  1
 C  C11  1  0.00564  0.83716  0.02805  1
 Cd  Cd1  1  0.63681  0.21887  0.14290  1
 H  H1  1  0.12609  0.86661  0.42626  1
 H  H2  1  0.90623  0.39998  0.33626  1
 H  H3  1  0.30909  0.37803  0.65828  1
 H  H4  1  0.30666  0.29261  0.34675  1
 H  H5  1  0.71441  0.94743  0.56045  1
 H  H6  1  0.50421  0.40817  0.80980  1
 H  H7  1  0.95671  0.49447  0.78779  1
 H  H8  1  0.68901  0.42561  0.95936  1
 H  H9  1  0.15099  0.53526  0.94183  1
 H  H10  1  0.08306  0.01963  0.86719  1
 H  H11  1  0.10922  0.35451  0.50420  1
 H  H12  1  0.26322  0.87546  0.58279  1
 H  H13  1  0.76046  0.45482  0.63588  1
 H  H14  1  0.44656  0.90498  0.73598  1
 H  H15  1  0.89743  0.98590  0.71287  1
 H  H16  1  0.62853  0.93313  0.88835  1
 H  H17  1  0.57552  0.89732  0.40783  1
 H  H18  1  0.56253  0.40495  0.48632  1
 O  O1  1  0.21181  0.46116  0.19699  1
 O  O2  1  0.52001  0.92697  0.25918  1
 O  O3  1  0.26773  0.08850  0.02879  1
 O  O4  1  0.80980  0.76118  0.08869  1
