CIF file written using JARVIS-Tools package.
data_Sb2Te2Se
_symmetry_space_group_name_H-M  'R-3m'
_cell_length_a       10.388
_cell_length_b       10.388
_cell_length_c       10.388
_cell_angle_alpha    23.6298
_cell_angle_beta     23.6298
_cell_angle_gamma    23.6298

_symmetry_Int_Tables_number  166
_chemical_formula_structural  Sb2Te2Se
_chemical_formula_sum  Sb2Te2Se
_cell_volume  158.17656630748078
_cell_formula_units_Z  1
loop_
  _symmetry_equiv_pos_site_id
 _symmetry_equiv_pos_as_xyz
 1  'x, y, z'
loop_
 _atom_site_type_symbol
 _atom_site_label
 _atom_site_symmetry_multiplicity
 _atom_site_fract_x
 _atom_site_fract_y
 _atom_site_fract_z
 _atom_site_fract_occupancy
 Sb  Sb1  1  0.89292  0.89292  0.89292  1
 Sb  Sb2  1  0.10708  0.10708  0.10708  1
 Se  Se1  1  0.50000  0.50000  0.50000  1
 Te  Te1  1  0.71591  0.71591  0.71591  1
 Te  Te2  1  0.28409  0.28409  0.28409  1
