CIF file written using JARVIS-Tools package.
data_La2SbAu3
_symmetry_space_group_name_H-M  'Pmm2'
_cell_length_a       3.88973
_cell_length_b       4.68499
_cell_length_c       8.4674
_cell_angle_alpha    90
_cell_angle_beta     90
_cell_angle_gamma    90

_symmetry_Int_Tables_number  25
_chemical_formula_structural  La2SbAu3
_chemical_formula_sum  La2SbAu3
_cell_volume  154.30424118651985
_cell_formula_units_Z  1
loop_
  _symmetry_equiv_pos_site_id
 _symmetry_equiv_pos_as_xyz
 1  'x, y, z'
loop_
 _atom_site_type_symbol
 _atom_site_label
 _atom_site_symmetry_multiplicity
 _atom_site_fract_x
 _atom_site_fract_y
 _atom_site_fract_z
 _atom_site_fract_occupancy
 Au  Au1  1  0.50000  0.50000  0.83565  1
 Au  Au2  1  0.50000  0.50000  0.15984  1
 Au  Au3  1  0.50000  0.00000  0.66734  1
 La  La1  1  0.00000  0.00000  0.98859  1
 La  La2  1  0.00000  0.50000  0.51386  1
 Sb  Sb1  1  0.50000  0.00000  0.33471  1
