CIF file written using JARVIS-Tools package.
data_TiNbN2
_symmetry_space_group_name_H-M  'R-3m'
_cell_length_a       5.38488
_cell_length_b       5.38487
_cell_length_c       5.38487
_cell_angle_alpha    33.0267
_cell_angle_beta     33.0267
_cell_angle_gamma    33.0267

_symmetry_Int_Tables_number  166
_chemical_formula_structural  TiNbN2
_chemical_formula_sum  TiNbN2
_cell_volume  41.27945846248323
_cell_formula_units_Z  1
loop_
  _symmetry_equiv_pos_site_id
 _symmetry_equiv_pos_as_xyz
 1  'x, y, z'
loop_
 _atom_site_type_symbol
 _atom_site_label
 _atom_site_symmetry_multiplicity
 _atom_site_fract_x
 _atom_site_fract_y
 _atom_site_fract_z
 _atom_site_fract_occupancy
 N  N1  1  0.24378  0.24378  0.24378  1
 N  N2  1  0.75622  0.75622  0.75622  1
 Nb  Nb1  1  0.00000  0.00000  0.00000  1
 Ti  Ti1  1  0.50000  0.50000  0.50000  1
