CIF file written using JARVIS-Tools package.
data_U
_symmetry_space_group_name_H-M  'Cmcm'
_cell_length_a       2.80745
_cell_length_b       3.27504
_cell_length_c       4.90465
_cell_angle_alpha    90
_cell_angle_beta     90
_cell_angle_gamma    115.379

_symmetry_Int_Tables_number  63
_chemical_formula_structural  U
_chemical_formula_sum  U2
_cell_volume  40.7435442802409
_cell_formula_units_Z  2
loop_
  _symmetry_equiv_pos_site_id
 _symmetry_equiv_pos_as_xyz
 1  'x, y, z'
loop_
 _atom_site_type_symbol
 _atom_site_label
 _atom_site_symmetry_multiplicity
 _atom_site_fract_x
 _atom_site_fract_y
 _atom_site_fract_z
 _atom_site_fract_occupancy
 U  U1  1  0.09688  0.19376  0.75000  1
 U  U2  1  0.90312  0.80624  0.25000  1
