CIF file written using JARVIS-Tools package.
data_TiVSe4
_symmetry_space_group_name_H-M  'P2/m'
_cell_length_a       3.46953
_cell_length_b       6.02167
_cell_length_c       6.10495
_cell_angle_alpha    89.8524
_cell_angle_beta     90
_cell_angle_gamma    90

_symmetry_Int_Tables_number  10
_chemical_formula_structural  TiVSe4
_chemical_formula_sum  TiVSe4
_cell_volume  127.54623690261818
_cell_formula_units_Z  1
loop_
  _symmetry_equiv_pos_site_id
 _symmetry_equiv_pos_as_xyz
 1  'x, y, z'
loop_
 _atom_site_type_symbol
 _atom_site_label
 _atom_site_symmetry_multiplicity
 _atom_site_fract_x
 _atom_site_fract_y
 _atom_site_fract_z
 _atom_site_fract_occupancy
 Se  Se1  1  0.00000  0.66248  0.74701  1
 Se  Se2  1  0.50000  0.17039  0.74339  1
 Se  Se3  1  0.50000  0.82961  0.25661  1
 Se  Se4  1  0.00000  0.33752  0.25299  1
 Ti  Ti1  1  0.00000  0.00000  0.00000  1
 V  V1  1  0.50000  0.50000  -0.00000  1
