CIF file written using JARVIS-Tools package.
data_NdOF
_symmetry_space_group_name_H-M  'R-3m'
_cell_length_a       6.99121
_cell_length_b       6.99121
_cell_length_c       6.99121
_cell_angle_alpha    33.0582
_cell_angle_beta     33.0582
_cell_angle_gamma    33.0581

_symmetry_Int_Tables_number  166
_chemical_formula_structural  NdOF
_chemical_formula_sum  Nd2O2F2
_cell_volume  90.49381508928154
_cell_formula_units_Z  2
loop_
  _symmetry_equiv_pos_site_id
 _symmetry_equiv_pos_as_xyz
 1  'x, y, z'
loop_
 _atom_site_type_symbol
 _atom_site_label
 _atom_site_symmetry_multiplicity
 _atom_site_fract_x
 _atom_site_fract_y
 _atom_site_fract_z
 _atom_site_fract_occupancy
 F  F1  1  0.36978  0.36978  0.36978  1
 F  F2  1  0.63022  0.63022  0.63022  1
 Nd  Nd1  1  0.75799  0.75799  0.75799  1
 Nd  Nd2  1  0.24201  0.24201  0.24201  1
 O  O1  1  0.87835  0.87835  0.87835  1
 O  O2  1  0.12165  0.12165  0.12165  1
