CIF file written using JARVIS-Tools package.
data_LaThCN
_symmetry_space_group_name_H-M  'R3m'
_cell_length_a       6.52675
_cell_length_b       6.52675
_cell_length_c       6.52675
_cell_angle_alpha    33.6465
_cell_angle_beta     33.6465
_cell_angle_gamma    33.6466

_symmetry_Int_Tables_number  160
_chemical_formula_structural  LaThCN
_chemical_formula_sum  LaThCN
_cell_volume  76.03655076037418
_cell_formula_units_Z  1
loop_
  _symmetry_equiv_pos_site_id
 _symmetry_equiv_pos_as_xyz
 1  'x, y, z'
loop_
 _atom_site_type_symbol
 _atom_site_label
 _atom_site_symmetry_multiplicity
 _atom_site_fract_x
 _atom_site_fract_y
 _atom_site_fract_z
 _atom_site_fract_occupancy
 C  C1  1  0.75602  0.75602  0.75602  1
 La  La1  1  0.00025  0.00025  0.00025  1
 N  N1  1  0.24250  0.24250  0.24250  1
 Th  Th1  1  0.50123  0.50123  0.50123  1
