CIF file written using JARVIS-Tools package.
data_V2CuO6
_symmetry_space_group_name_H-M  'C2/m'
_cell_length_a       4.96259
_cell_length_b       4.9626
_cell_length_c       6.42458
_cell_angle_alpha    70.0287
_cell_angle_beta     70.0287
_cell_angle_gamma    41.8577

_symmetry_Int_Tables_number  12
_chemical_formula_structural  V2CuO6
_chemical_formula_sum  V2CuO6
_cell_volume  98.26575709173656
_cell_formula_units_Z  1
loop_
  _symmetry_equiv_pos_site_id
 _symmetry_equiv_pos_as_xyz
 1  'x, y, z'
loop_
 _atom_site_type_symbol
 _atom_site_label
 _atom_site_symmetry_multiplicity
 _atom_site_fract_x
 _atom_site_fract_y
 _atom_site_fract_z
 _atom_site_fract_occupancy
 Cu  Cu1  1  -0.00000  0.00000  0.50000  1
 O  O1  1  0.97447  0.97447  0.22130  1
 O  O2  1  0.02553  0.02553  0.77870  1
 O  O3  1  0.65762  0.65762  0.39680  1
 O  O4  1  0.34238  0.34238  0.60320  1
 O  O5  1  0.69204  0.69204  0.93301  1
 O  O6  1  0.30796  0.30796  0.06699  1
 V  V1  1  0.81063  0.81063  0.15364  1
 V  V2  1  0.18937  0.18937  0.84636  1
