CIF file written using JARVIS-Tools package.
data_CeSiI
_symmetry_space_group_name_H-M  'P-3m1'
_cell_length_a       4.15748
_cell_length_b       4.15748
_cell_length_c       11.5962
_cell_angle_alpha    90
_cell_angle_beta     90
_cell_angle_gamma    120

_symmetry_Int_Tables_number  164
_chemical_formula_structural  CeSiI
_chemical_formula_sum  Ce2Si2I2
_cell_volume  173.58254787948005
_cell_formula_units_Z  2
loop_
  _symmetry_equiv_pos_site_id
 _symmetry_equiv_pos_as_xyz
 1  'x, y, z'
loop_
 _atom_site_type_symbol
 _atom_site_label
 _atom_site_symmetry_multiplicity
 _atom_site_fract_x
 _atom_site_fract_y
 _atom_site_fract_z
 _atom_site_fract_occupancy
 Ce  Ce1  1  0.00000  0.00000  0.16675  1
 Ce  Ce2  1  0.00000  0.00000  0.83325  1
 I  I1  1  0.66667  0.33333  0.64745  1
 I  I2  1  0.33333  0.66667  0.35255  1
 Si  Si1  1  0.66667  0.33333  0.00433  1
 Si  Si2  1  0.33333  0.66667  0.99567  1
