CIF file written using JARVIS-Tools package.
data_ZnH10C7O4
_symmetry_space_group_name_H-M  'P1'
_cell_length_a       4.47846
_cell_length_b       4.88264
_cell_length_c       9.62546
_cell_angle_alpha    91.0138
_cell_angle_beta     95.6771
_cell_angle_gamma    116.195

_symmetry_Int_Tables_number  1
_chemical_formula_structural  ZnH10C7O4
_chemical_formula_sum  ZnH0C7O4
_cell_volume  187.49024277593446
_cell_formula_units_Z  1
loop_
  _symmetry_equiv_pos_site_id
 _symmetry_equiv_pos_as_xyz
 1  'x, y, z'
loop_
 _atom_site_type_symbol
 _atom_site_label
 _atom_site_symmetry_multiplicity
 _atom_site_fract_x
 _atom_site_fract_y
 _atom_site_fract_z
 _atom_site_fract_occupancy
 C  C1  1  0.36691  0.92874  0.97304  1
 C  C2  1  0.29273  0.79300  0.22066  1
 C  C3  1  0.57354  0.07005  0.30575  1
 C  C4  1  0.74854  0.98887  0.43140  1
 C  C5  1  0.52523  0.84263  0.54728  1
 C  C6  1  0.73278  0.78032  0.66431  1
 C  C7  1  0.14259  0.88055  0.08696  1
 H  H1  1  0.31046  0.62552  0.50763  1
 H  H2  1  0.84463  0.83044  0.39531  1
 H  H3  1  0.12217  0.09333  0.10921  1
 H  H4  1  0.76103  0.20037  0.23604  1
 H  H5  1  0.47144  0.22463  0.34193  1
 H  H6  1  0.08985  0.67117  0.28502  1
 H  H7  1  0.38691  0.62744  0.19151  1
 H  H8  1  0.96859  0.19630  0.47829  1
 H  H9  1  0.89115  0.69789  0.05124  1
 H  H10  1  0.43185  0.99998  0.58639  1
 O  O1  1  0.94845  0.99919  0.74801  1
 O  O2  1  0.33158  0.70188  0.89340  1
 O  O3  1  0.69934  0.50716  0.66810  1
 O  O4  1  0.60235  0.19798  0.96808  1
 Zn  Zn1  1  0.90224  0.35522  0.82064  1
