CIF file written using JARVIS-Tools package.
data_MoPd2Rh
_symmetry_space_group_name_H-M  'R3m'
_cell_length_a       9.20921
_cell_length_b       9.20921
_cell_length_c       9.20921
_cell_angle_alpha    17.2792
_cell_angle_beta     17.2792
_cell_angle_gamma    17.2792

_symmetry_Int_Tables_number  160
_chemical_formula_structural  MoPd2Rh
_chemical_formula_sum  MoPd2Rh
_cell_volume  60.127609634567655
_cell_formula_units_Z  1
loop_
  _symmetry_equiv_pos_site_id
 _symmetry_equiv_pos_as_xyz
 1  'x, y, z'
loop_
 _atom_site_type_symbol
 _atom_site_label
 _atom_site_symmetry_multiplicity
 _atom_site_fract_x
 _atom_site_fract_y
 _atom_site_fract_z
 _atom_site_fract_occupancy
 Mo  Mo1  1  0.99817  0.99817  0.99817  1
 Pd  Pd1  1  0.50074  0.50074  0.50074  1
 Pd  Pd2  1  0.74798  0.74798  0.74798  1
 Rh  Rh1  1  0.25311  0.25311  0.25311  1
