CIF file written using JARVIS-Tools package.
data_AlRh3
_symmetry_space_group_name_H-M  'P6_3/mmc'
_cell_length_a       5.44489
_cell_length_b       5.44489
_cell_length_c       4.35766
_cell_angle_alpha    90
_cell_angle_beta     90
_cell_angle_gamma    120

_symmetry_Int_Tables_number  194
_chemical_formula_structural  AlRh3
_chemical_formula_sum  Al2Rh6
_cell_volume  111.88270423042238
_cell_formula_units_Z  2
loop_
  _symmetry_equiv_pos_site_id
 _symmetry_equiv_pos_as_xyz
 1  'x, y, z'
loop_
 _atom_site_type_symbol
 _atom_site_label
 _atom_site_symmetry_multiplicity
 _atom_site_fract_x
 _atom_site_fract_y
 _atom_site_fract_z
 _atom_site_fract_occupancy
 Al  Al1  1  0.33333  0.66667  0.75000  1
 Al  Al2  1  0.66667  0.33333  0.25000  1
 Rh  Rh1  1  0.16748  0.33495  0.25000  1
 Rh  Rh2  1  0.66505  0.83252  0.25000  1
 Rh  Rh3  1  0.16748  0.83252  0.25000  1
 Rh  Rh4  1  0.83252  0.66505  0.75000  1
 Rh  Rh5  1  0.33495  0.16748  0.75000  1
 Rh  Rh6  1  0.83252  0.16748  0.75000  1
