CIF file written using JARVIS-Tools package.
data_Er2O3
_symmetry_space_group_name_H-M  'R3m'
_cell_length_a       6.7357
_cell_length_b       6.7357
_cell_length_c       6.7357
_cell_angle_alpha    31.4658
_cell_angle_beta     31.4658
_cell_angle_gamma    31.4658

_symmetry_Int_Tables_number  160
_chemical_formula_structural  Er2O3
_chemical_formula_sum  Er2O3
_cell_volume  73.92051857196641
_cell_formula_units_Z  1
loop_
  _symmetry_equiv_pos_site_id
 _symmetry_equiv_pos_as_xyz
 1  'x, y, z'
loop_
 _atom_site_type_symbol
 _atom_site_label
 _atom_site_symmetry_multiplicity
 _atom_site_fract_x
 _atom_site_fract_y
 _atom_site_fract_z
 _atom_site_fract_occupancy
 Er  Er1  1  0.00593  0.00593  0.00593  1
 Er  Er2  1  0.49827  0.49827  0.49827  1
 O  O1  1  0.12312  0.12312  0.12312  1
 O  O2  1  0.89226  0.89226  0.89226  1
 O  O3  1  0.35542  0.35542  0.35542  1
