CIF file written using JARVIS-Tools package.
data_Ba2As
_symmetry_space_group_name_H-M  'I4/mmm'
_cell_length_a       5.00807
_cell_length_b       5.00806
_cell_length_c       9.70019
_cell_angle_alpha    104.96
_cell_angle_beta     104.96
_cell_angle_gamma    90.0001

_symmetry_Int_Tables_number  139
_chemical_formula_structural  Ba2As
_chemical_formula_sum  Ba4As2
_cell_volume  226.49576034550412
_cell_formula_units_Z  2
loop_
  _symmetry_equiv_pos_site_id
 _symmetry_equiv_pos_as_xyz
 1  'x, y, z'
loop_
 _atom_site_type_symbol
 _atom_site_label
 _atom_site_symmetry_multiplicity
 _atom_site_fract_x
 _atom_site_fract_y
 _atom_site_fract_z
 _atom_site_fract_occupancy
 As  As1  1  0.13302  0.13302  0.26603  1
 As  As2  1  0.86698  0.86698  0.73397  1
 Ba  Ba1  1  0.31596  0.31596  0.63193  1
 Ba  Ba2  1  0.68404  0.68404  0.36807  1
 Ba  Ba3  1  0.50000  0.00000  0.00000  1
 Ba  Ba4  1  0.00000  0.50000  0.00000  1
