CIF file written using JARVIS-Tools package.
data_WO2F2
_symmetry_space_group_name_H-M  'Cmcm'
_cell_length_a       3.88152
_cell_length_b       3.88152
_cell_length_c       8.50867
_cell_angle_alpha    90
_cell_angle_beta     90
_cell_angle_gamma    89.7759

_symmetry_Int_Tables_number  63
_chemical_formula_structural  WO2F2
_chemical_formula_sum  W2O4F4
_cell_volume  128.19220387223226
_cell_formula_units_Z  2
loop_
  _symmetry_equiv_pos_site_id
 _symmetry_equiv_pos_as_xyz
 1  'x, y, z'
loop_
 _atom_site_type_symbol
 _atom_site_label
 _atom_site_symmetry_multiplicity
 _atom_site_fract_x
 _atom_site_fract_y
 _atom_site_fract_z
 _atom_site_fract_occupancy
 F  F1  1  0.24664  0.24664  0.03203  1
 F  F2  1  0.24664  0.24664  0.46797  1
 F  F3  1  0.75336  0.75336  0.53203  1
 F  F4  1  0.75336  0.75336  0.96797  1
 O  O1  1  0.73123  0.23309  0.75000  1
 O  O2  1  0.76691  0.26877  0.25000  1
 O  O3  1  0.23309  0.73123  0.75000  1
 O  O4  1  0.26877  0.76691  0.25000  1
 W  W1  1  0.30756  0.30756  0.25000  1
 W  W2  1  0.69244  0.69244  0.75000  1
