CIF file written using JARVIS-Tools package.
data_SnH24C13O4
_symmetry_space_group_name_H-M  'P1'
_cell_length_a       5.03902
_cell_length_b       7.22858
_cell_length_c       10.0616
_cell_angle_alpha    73.5529
_cell_angle_beta     84.4218
_cell_angle_gamma    89.5814

_symmetry_Int_Tables_number  1
_chemical_formula_structural  SnH24C13O4
_chemical_formula_sum  SnH24C3O4
_cell_volume  349.7527658184781
_cell_formula_units_Z  1
loop_
  _symmetry_equiv_pos_site_id
 _symmetry_equiv_pos_as_xyz
 1  'x, y, z'
loop_
 _atom_site_type_symbol
 _atom_site_label
 _atom_site_symmetry_multiplicity
 _atom_site_fract_x
 _atom_site_fract_y
 _atom_site_fract_z
 _atom_site_fract_occupancy
 C  C1  1  0.28992  0.97249  0.15967  1
 C  C2  1  0.61649  0.28275  0.82305  1
 C  C3  1  0.30600  0.12526  0.43181  1
 C  C4  1  0.83106  0.34581  0.69928  1
 C  C5  1  0.49806  0.39187  0.51337  1
 C  C6  1  0.53058  0.18444  0.50384  1
 C  C7  1  0.73530  0.47456  0.56435  1
 C  C8  1  0.14311  0.89489  0.30757  1
 C  C9  1  0.31345  0.91771  0.42089  1
 C  C10  1  0.44853  0.81538  0.11788  1
 C  C11  1  0.83182  0.38586  0.16057  1
 C  C12  1  0.49250  0.44827  0.87006  1
 C  C13  1  0.10183  0.87681  0.82786  1
 H  H1  1  0.45585  0.19672  0.80189  1
 H  H2  1  0.68391  0.61727  0.57764  1
 H  H3  1  0.31025  0.22639  0.32643  1
 H  H4  1  0.11279  0.14612  0.48637  1
 H  H5  1  0.53660  0.08262  0.60840  1
 H  H6  1  0.90492  0.49979  0.48299  1
 H  H7  1  -0.00730  0.42035  0.73029  1
 H  H8  1  0.52076  0.87790  0.39687  1
 H  H9  1  0.61756  0.40176  0.18192  1
 H  H10  1  0.93672  0.38492  0.25095  1
 H  H11  1  0.97544  0.88334  0.74408  1
 H  H12  1  0.08191  0.00713  0.86236  1
 H  H13  1  0.24179  0.81656  0.52239  1
 H  H14  1  0.87642  0.25630  0.12746  1
 H  H15  1  0.70720  0.18914  0.91336  1
 H  H16  1  0.95609  0.97293  0.31351  1
 H  H17  1  0.42128  0.09609  0.15227  1
 H  H18  1  0.14288  0.02083  0.08373  1
 H  H19  1  0.31036  0.85369  0.79591  1
 H  H20  1  0.46249  0.48650  0.40966  1
 H  H21  1  0.72249  0.17199  0.44499  1
 H  H22  1  0.91678  0.21477  0.67969  1
 H  H23  1  0.08478  0.74347  0.32372  1
 H  H24  1  0.31643  0.39753  0.58198  1
 O  O1  1  0.63856  0.59247  0.86865  1
 O  O2  1  0.32032  0.66529  0.11301  1
 O  O3  1  0.24201  0.43362  0.90896  1
 O  O4  1  0.70181  0.83504  0.09205  1
 Sn  Sn1  1  0.97221  0.63206  0.99652  1
