CIF file written using JARVIS-Tools package.
data_P4Se5
_symmetry_space_group_name_H-M  'Pna2_1'
_cell_length_a       6.6765
_cell_length_b       11.2107
_cell_length_c       12.9274
_cell_angle_alpha    90
_cell_angle_beta     90
_cell_angle_gamma    90

_symmetry_Int_Tables_number  33
_chemical_formula_structural  P4Se5
_chemical_formula_sum  P6Se20
_cell_volume  967.5924129586405
_cell_formula_units_Z  4
loop_
  _symmetry_equiv_pos_site_id
 _symmetry_equiv_pos_as_xyz
 1  'x, y, z'
loop_
 _atom_site_type_symbol
 _atom_site_label
 _atom_site_symmetry_multiplicity
 _atom_site_fract_x
 _atom_site_fract_y
 _atom_site_fract_z
 _atom_site_fract_occupancy
 P  P1  1  0.49272  0.46358  0.44191  1
 P  P2  1  0.31091  0.01743  0.10839  1
 P  P3  1  0.50728  0.96358  0.55809  1
 P  P4  1  0.00728  0.46358  0.94191  1
 P  P5  1  0.81091  0.51743  0.39161  1
 P  P6  1  0.18909  0.01743  0.60839  1
 P  P7  1  0.68909  0.51743  0.89161  1
 P  P8  1  0.46246  0.48553  0.17368  1
 P  P9  1  0.99272  0.96358  0.05809  1
 P  P10  1  0.59882  0.15241  0.59830  1
 P  P11  1  0.09882  0.65241  0.90170  1
 P  P12  1  0.90118  0.15241  0.09830  1
 P  P13  1  0.53754  0.98553  0.82632  1
 P  P14  1  0.03754  0.48553  0.67368  1
 P  P15  1  0.96246  0.98553  0.32632  1
 P  P16  1  0.40118  0.65241  0.40170  1
 Se  Se1  1  0.29866  -0.00073  0.28636  1
 Se  Se2  1  0.36051  0.36078  0.30839  1
 Se  Se3  1  0.32311  0.74476  0.99121  1
 Se  Se4  1  0.13949  0.36078  0.80839  1
 Se  Se5  1  0.86051  0.86078  0.19161  1
 Se  Se6  1  0.79866  0.49927  0.21364  1
 Se  Se7  1  0.20134  -0.00073  0.78636  1
 Se  Se8  1  0.70134  0.49927  0.71364  1
 Se  Se9  1  0.63949  0.86078  0.69161  1
 Se  Se10  1  0.82311  0.24476  0.50879  1
 Se  Se11  1  0.82640  0.16475  0.27171  1
 Se  Se12  1  0.72433  0.71529  0.43300  1
 Se  Se13  1  0.27567  0.21529  0.56700  1
 Se  Se14  1  0.77567  0.71529  0.93300  1
 Se  Se15  1  0.22433  0.21529  0.06700  1
 Se  Se16  1  0.17689  0.74476  0.49121  1
 Se  Se17  1  0.32640  0.66475  0.22829  1
 Se  Se18  1  0.17360  0.66475  0.72829  1
 Se  Se19  1  0.67360  0.16475  0.77171  1
 Se  Se20  1  0.67689  0.24476  0.00879  1
