CIF file written using JARVIS-Tools package.
data_Rb3Sb2Au3
_symmetry_space_group_name_H-M  'R-3m'
_cell_length_a       8.16644
_cell_length_b       8.16645
_cell_length_c       8.16644
_cell_angle_alpha    46.9375
_cell_angle_beta     46.9375
_cell_angle_gamma    46.9375

_symmetry_Int_Tables_number  166
_chemical_formula_structural  Rb3Sb2Au3
_chemical_formula_sum  Rb3Sb2Au3
_cell_volume  265.7095502686705
_cell_formula_units_Z  1
loop_
  _symmetry_equiv_pos_site_id
 _symmetry_equiv_pos_as_xyz
 1  'x, y, z'
loop_
 _atom_site_type_symbol
 _atom_site_label
 _atom_site_symmetry_multiplicity
 _atom_site_fract_x
 _atom_site_fract_y
 _atom_site_fract_z
 _atom_site_fract_occupancy
 Au  Au1  1  0.50000  0.00000  0.50000  1
 Au  Au2  1  0.00000  0.50000  0.50000  1
 Au  Au3  1  0.50000  0.50000  -0.00000  1
 Rb  Rb1  1  0.50000  0.50000  0.50000  1
 Rb  Rb2  1  0.92003  0.92003  0.92003  1
 Rb  Rb3  1  0.07997  0.07997  0.07997  1
 Sb  Sb1  1  0.24441  0.24441  0.24441  1
 Sb  Sb2  1  0.75559  0.75559  0.75559  1
