CIF file written using JARVIS-Tools package.
data_H6C7N2O
_symmetry_space_group_name_H-M  'C2/c'
_cell_length_a       4.68564
_cell_length_b       7.14606
_cell_length_c       8.8487
_cell_angle_alpha    96.0741
_cell_angle_beta     90.0028
_cell_angle_gamma    109.135

_symmetry_Int_Tables_number  15
_chemical_formula_structural  H6C7N2O
_chemical_formula_sum  H2C4N4O2
_cell_volume  278.15637919257625
_cell_formula_units_Z  2
loop_
  _symmetry_equiv_pos_site_id
 _symmetry_equiv_pos_as_xyz
 1  'x, y, z'
loop_
 _atom_site_type_symbol
 _atom_site_label
 _atom_site_symmetry_multiplicity
 _atom_site_fract_x
 _atom_site_fract_y
 _atom_site_fract_z
 _atom_site_fract_occupancy
 C  C1  1  0.65548  0.31249  0.15626  1
 C  C2  1  0.02790  0.73400  0.28026  1
 C  C3  1  0.78459  0.89099  0.53225  1
 C  C4  1  0.62631  0.70509  0.45610  1
 C  C5  1  0.06873  0.00048  0.48300  1
 C  C6  1  0.15702  0.31250  0.65625  1
 C  C7  1  0.18618  0.91991  0.35640  1
 C  C8  1  0.74377  0.62451  0.32950  1
 C  C9  1  0.60641  0.89098  0.03225  1
 C  C10  1  0.43175  0.00049  0.98301  1
 C  C11  1  0.38075  0.62452  0.82949  1
 C  C12  1  0.23371  0.91992  0.85640  1
 C  C13  1  0.57879  0.70508  0.95610  1
 C  C14  1  0.20609  0.73402  0.78025  1
 H  H1  1  0.40856  0.00310  0.31914  1
 H  H2  1  0.22720  0.20976  0.05973  1
 H  H3  1  0.58533  0.41526  0.75275  1
 H  H4  1  0.48255  0.20976  0.55972  1
 H  H5  1  0.40393  0.62190  0.49335  1
 H  H6  1  0.68788  0.94870  0.63074  1
 H  H7  1  0.71799  0.62188  0.99335  1
 H  H8  1  0.09451  0.00312  0.81915  1
 H  H9  1  0.32994  0.41526  0.25277  1
 H  H10  1  0.12461  0.67630  0.18176  1
 H  H11  1  0.76083  0.94868  0.13074  1
 H  H12  1  0.05167  0.67632  0.68176  1
 N  N1  1  0.38379  0.44284  0.75108  1
 N  N2  1  0.25344  0.18218  0.56140  1
 N  N3  1  0.55905  0.44283  0.25109  1
 N  N4  1  0.42872  0.18218  0.06141  1
 O  O1  1  0.88938  0.31248  0.65627  1
 O  O2  1  0.92310  0.31248  0.15628  1
