CIF file written using JARVIS-Tools package.
data_Ti2AlGe3
_symmetry_space_group_name_H-M  'Amm2'
_cell_length_a       7.34539
_cell_length_b       7.34539
_cell_length_c       3.69436
_cell_angle_alpha    90
_cell_angle_beta     90
_cell_angle_gamma    150.911

_symmetry_Int_Tables_number  38
_chemical_formula_structural  Ti2AlGe3
_chemical_formula_sum  Ti2AlGe3
_cell_volume  96.90614313722095
_cell_formula_units_Z  1
loop_
  _symmetry_equiv_pos_site_id
 _symmetry_equiv_pos_as_xyz
 1  'x, y, z'
loop_
 _atom_site_type_symbol
 _atom_site_label
 _atom_site_symmetry_multiplicity
 _atom_site_fract_x
 _atom_site_fract_y
 _atom_site_fract_z
 _atom_site_fract_occupancy
 Al  Al1  1  0.75091  0.24909  0.50000  1
 Ge  Ge1  1  0.24896  0.75104  0.00000  1
 Ge  Ge2  1  0.56653  0.43347  0.00000  1
 Ge  Ge3  1  0.43333  0.56667  0.50000  1
 Ti  Ti1  1  0.90047  0.09953  0.00000  1
 Ti  Ti2  1  0.09978  0.90022  0.50000  1
