CIF file written using JARVIS-Tools package.
data_CrSi2
_symmetry_space_group_name_H-M  'I4/mmm'
_cell_length_a       3.10182
_cell_length_b       3.10182
_cell_length_c       4.37123
_cell_angle_alpha    110.781
_cell_angle_beta     110.781
_cell_angle_gamma    89.9999

_symmetry_Int_Tables_number  139
_chemical_formula_structural  CrSi2
_chemical_formula_sum  CrSi2
_cell_volume  36.37951632399204
_cell_formula_units_Z  1
loop_
  _symmetry_equiv_pos_site_id
 _symmetry_equiv_pos_as_xyz
 1  'x, y, z'
loop_
 _atom_site_type_symbol
 _atom_site_label
 _atom_site_symmetry_multiplicity
 _atom_site_fract_x
 _atom_site_fract_y
 _atom_site_fract_z
 _atom_site_fract_occupancy
 Cr  Cr1  1  0.00000  0.00000  0.00000  1
 Si  Si1  1  0.66263  0.66263  0.32525  1
 Si  Si2  1  0.33737  0.33737  0.67475  1
