CIF file written using JARVIS-Tools package.
data_BeAu
_symmetry_space_group_name_H-M  'P2_13'
_cell_length_a       4.71209
_cell_length_b       4.71209
_cell_length_c       4.71209
_cell_angle_alpha    90
_cell_angle_beta     90
_cell_angle_gamma    90

_symmetry_Int_Tables_number  198
_chemical_formula_structural  BeAu
_chemical_formula_sum  Be4Au4
_cell_volume  104.62637673338824
_cell_formula_units_Z  4
loop_
  _symmetry_equiv_pos_site_id
 _symmetry_equiv_pos_as_xyz
 1  'x, y, z'
loop_
 _atom_site_type_symbol
 _atom_site_label
 _atom_site_symmetry_multiplicity
 _atom_site_fract_x
 _atom_site_fract_y
 _atom_site_fract_z
 _atom_site_fract_occupancy
 Au  Au1  1  0.83921  0.66079  0.33921  1
 Au  Au2  1  0.66079  0.33921  0.83921  1
 Au  Au3  1  0.33921  0.83921  0.66079  1
 Au  Au4  1  0.16079  0.16079  0.16079  1
 Be  Be1  1  0.15370  0.34630  0.65370  1
 Be  Be2  1  0.34630  0.65370  0.15370  1
 Be  Be3  1  0.65370  0.15370  0.34630  1
 Be  Be4  1  0.84630  0.84630  0.84630  1
