CIF file written using JARVIS-Tools package.
data_RbCr2S4
_symmetry_space_group_name_H-M  'C2/m'
_cell_length_a       7.96676
_cell_length_b       7.96676
_cell_length_c       5.57121
_cell_angle_alpha    83.4506
_cell_angle_beta     83.4506
_cell_angle_gamma    24.9444

_symmetry_Int_Tables_number  12
_chemical_formula_structural  RbCr2S4
_chemical_formula_sum  RbCr2S4
_cell_volume  148.10596950011427
_cell_formula_units_Z  1
loop_
  _symmetry_equiv_pos_site_id
 _symmetry_equiv_pos_as_xyz
 1  'x, y, z'
loop_
 _atom_site_type_symbol
 _atom_site_label
 _atom_site_symmetry_multiplicity
 _atom_site_fract_x
 _atom_site_fract_y
 _atom_site_fract_z
 _atom_site_fract_occupancy
 Cr  Cr1  1  0.75263  0.75263  0.20542  1
 Cr  Cr2  1  0.24737  0.24737  0.79458  1
 Rb  Rb1  1  0.50000  0.50000  0.50000  1
 S  S1  1  0.34783  0.34783  0.05569  1
 S  S2  1  0.65217  0.65217  0.94431  1
 S  S3  1  0.82473  0.82473  0.56565  1
 S  S4  1  0.17527  0.17527  0.43435  1
