CIF file written using JARVIS-Tools package.
data_V4Os
_symmetry_space_group_name_H-M  'Fmmm'
_cell_length_a       10.5164
_cell_length_b       10.3908
_cell_length_c       2.6644
_cell_angle_alpha    85.3676
_cell_angle_beta     80.0054
_cell_angle_gamma    14.6271

_symmetry_Int_Tables_number  69
_chemical_formula_structural  V4Os
_chemical_formula_sum  V4Os
_cell_volume  67.81383457638762
_cell_formula_units_Z  1
loop_
  _symmetry_equiv_pos_site_id
 _symmetry_equiv_pos_as_xyz
 1  'x, y, z'
loop_
 _atom_site_type_symbol
 _atom_site_label
 _atom_site_symmetry_multiplicity
 _atom_site_fract_x
 _atom_site_fract_y
 _atom_site_fract_z
 _atom_site_fract_occupancy
 Os  Os1  1  0.00000  0.00000  0.00000  1
 V  V1  1  0.39770  0.39770  0.60230  1
 V  V2  1  0.79937  0.79937  0.20063  1
 V  V3  1  0.20063  0.20063  0.79937  1
 V  V4  1  0.60230  0.60230  0.39770  1
