CIF file written using JARVIS-Tools package.
data_KPrO2
_symmetry_space_group_name_H-M  'R-3m'
_cell_length_a       6.58899
_cell_length_b       6.58899
_cell_length_c       6.589
_cell_angle_alpha    32.3215
_cell_angle_beta     32.3215
_cell_angle_gamma    32.3216

_symmetry_Int_Tables_number  166
_chemical_formula_structural  KPrO2
_chemical_formula_sum  KPrO2
_cell_volume  72.69482841937783
_cell_formula_units_Z  1
loop_
  _symmetry_equiv_pos_site_id
 _symmetry_equiv_pos_as_xyz
 1  'x, y, z'
loop_
 _atom_site_type_symbol
 _atom_site_label
 _atom_site_symmetry_multiplicity
 _atom_site_fract_x
 _atom_site_fract_y
 _atom_site_fract_z
 _atom_site_fract_occupancy
 K  K1  1  0.00000  0.00000  0.00000  1
 O  O1  1  0.76812  0.76812  0.76812  1
 O  O2  1  0.23188  0.23188  0.23188  1
 Pr  Pr1  1  0.50000  0.50000  0.50000  1
