CIF file written using JARVIS-Tools package.
data_Fe6O11F
_symmetry_space_group_name_H-M  'Cm'
_cell_length_a       6.8085
_cell_length_b       5.20973
_cell_length_c       5.20973
_cell_angle_alpha    71.812
_cell_angle_beta     71.9493
_cell_angle_gamma    71.9493

_symmetry_Int_Tables_number  8
_chemical_formula_structural  Fe6O11F
_chemical_formula_sum  Fe6OF
_cell_volume  162.2044494498494
_cell_formula_units_Z  1
loop_
  _symmetry_equiv_pos_site_id
 _symmetry_equiv_pos_as_xyz
 1  'x, y, z'
loop_
 _atom_site_type_symbol
 _atom_site_label
 _atom_site_symmetry_multiplicity
 _atom_site_fract_x
 _atom_site_fract_y
 _atom_site_fract_z
 _atom_site_fract_occupancy
 F  F1  1  0.29890  0.89898  0.89898  1
 Fe  Fe1  1  0.98825  0.00074  0.00074  1
 Fe  Fe2  1  0.51319  0.00763  0.00763  1
 Fe  Fe3  1  0.83380  0.66571  0.66571  1
 Fe  Fe4  1  0.33171  0.65565  0.65565  1
 Fe  Fe5  1  0.66846  0.33812  0.33812  1
 Fe  Fe6  1  0.16316  0.33186  0.33186  1
 O  O1  1  -0.00022  0.30231  0.69585  1
 O  O2  1  0.66609  0.64282  0.02817  1
 O  O3  1  0.03514  0.76594  0.76594  1
 O  O4  1  0.70549  0.10458  0.10458  1
 O  O5  1  0.37010  0.43240  0.43240  1
 O  O6  1  0.96087  0.23309  0.23309  1
 O  O7  1  0.63003  0.56574  0.56574  1
 O  O8  1  -0.00022  0.69585  0.30231  1
 O  O9  1  0.33458  0.36123  0.96917  1
 O  O10  1  0.66609  0.02817  0.64282  1
 O  O11  1  0.33458  0.96917  0.36123  1
