CIF file written using JARVIS-Tools package.
data_CdH6C5O4
_symmetry_space_group_name_H-M  'P1'
_cell_length_a       4.07453
_cell_length_b       4.33476
_cell_length_c       8.23429
_cell_angle_alpha    95.1683
_cell_angle_beta     94.1288
_cell_angle_gamma    104.526

_symmetry_Int_Tables_number  1
_chemical_formula_structural  CdH6C5O4
_chemical_formula_sum  CdH6C5O4
_cell_volume  139.53693263666244
_cell_formula_units_Z  1
loop_
  _symmetry_equiv_pos_site_id
 _symmetry_equiv_pos_as_xyz
 1  'x, y, z'
loop_
 _atom_site_type_symbol
 _atom_site_label
 _atom_site_symmetry_multiplicity
 _atom_site_fract_x
 _atom_site_fract_y
 _atom_site_fract_z
 _atom_site_fract_occupancy
 C  C1  1  0.15357  0.02471  0.45398  1
 C  C2  1  0.31130  0.91417  0.60191  1
 C  C3  1  0.05181  0.74072  0.71032  1
 C  C4  1  0.19754  0.58294  0.84847  1
 C  C5  1  0.34137  0.79259  0.00795  1
 Cd  Cd1  1  0.79168  0.34272  0.24414  1
 H  H1  1  0.45179  0.74828  0.55207  1
 H  H2  1  0.49907  0.11899  0.67042  1
 H  H3  1  0.86476  0.54978  0.63067  1
 H  H4  1  -0.00078  0.38117  0.87958  1
 H  H5  1  0.90947  0.90237  0.76325  1
 H  H6  1  0.40391  0.48269  0.80754  1
 O  O1  1  0.86435  0.86376  0.38284  1
 O  O2  1  0.30568  0.28865  0.40157  1
 O  O3  1  0.55707  0.06441  0.00262  1
 O  O4  1  0.25668  0.68769  0.14216  1
