CIF file written using JARVIS-Tools package.
data_Ti3Cu4
_symmetry_space_group_name_H-M  'I4/mmm'
_cell_length_a       3.14514
_cell_length_b       3.14514
_cell_length_c       10.1682
_cell_angle_alpha    98.8967
_cell_angle_beta     98.8968
_cell_angle_gamma    90

_symmetry_Int_Tables_number  139
_chemical_formula_structural  Ti3Cu4
_chemical_formula_sum  Ti3Cu4
_cell_volume  98.14761395748233
_cell_formula_units_Z  1
loop_
  _symmetry_equiv_pos_site_id
 _symmetry_equiv_pos_as_xyz
 1  'x, y, z'
loop_
 _atom_site_type_symbol
 _atom_site_label
 _atom_site_symmetry_multiplicity
 _atom_site_fract_x
 _atom_site_fract_y
 _atom_site_fract_z
 _atom_site_fract_occupancy
 Cu  Cu1  1  0.57028  0.57028  0.14057  1
 Cu  Cu2  1  0.42972  0.42972  0.85943  1
 Cu  Cu3  1  0.86474  0.86474  0.72948  1
 Cu  Cu4  1  0.13526  0.13526  0.27052  1
 Ti  Ti1  1  0.70779  0.70779  0.41558  1
 Ti  Ti2  1  0.29221  0.29221  0.58442  1
 Ti  Ti3  1  0.00000  0.00000  0.00000  1
