CIF file written using JARVIS-Tools package.
data_U2MnAl3
_symmetry_space_group_name_H-M  'R-3m'
_cell_length_a       5.47664
_cell_length_b       5.47665
_cell_length_c       5.47665
_cell_angle_alpha    55.0563
_cell_angle_beta     55.0563
_cell_angle_gamma    55.0562

_symmetry_Int_Tables_number  166
_chemical_formula_structural  U2MnAl3
_chemical_formula_sum  U2MnAl3
_cell_volume  102.79521461474364
_cell_formula_units_Z  1
loop_
  _symmetry_equiv_pos_site_id
 _symmetry_equiv_pos_as_xyz
 1  'x, y, z'
loop_
 _atom_site_type_symbol
 _atom_site_label
 _atom_site_symmetry_multiplicity
 _atom_site_fract_x
 _atom_site_fract_y
 _atom_site_fract_z
 _atom_site_fract_occupancy
 Al  Al1  1  0.50000  0.00000  0.50000  1
 Al  Al2  1  0.00000  0.50000  0.50000  1
 Al  Al3  1  0.50000  0.50000  -0.00000  1
 Mn  Mn1  1  0.50000  0.50000  0.50000  1
 U  U1  1  0.14224  0.14224  0.14224  1
 U  U2  1  0.85776  0.85776  0.85776  1
