CIF file written using JARVIS-Tools package.
data_U3H2O10
_symmetry_space_group_name_H-M  'P-1'
_cell_length_a       5.52311
_cell_length_b       5.8017
_cell_length_c       7.4472
_cell_angle_alpha    74.9632
_cell_angle_beta     72.2062
_cell_angle_gamma    73.9898

_symmetry_Int_Tables_number  2
_chemical_formula_structural  U3H2O10
_chemical_formula_sum  U3H2O0
_cell_volume  214.3679563887849
_cell_formula_units_Z  1
loop_
  _symmetry_equiv_pos_site_id
 _symmetry_equiv_pos_as_xyz
 1  'x, y, z'
loop_
 _atom_site_type_symbol
 _atom_site_label
 _atom_site_symmetry_multiplicity
 _atom_site_fract_x
 _atom_site_fract_y
 _atom_site_fract_z
 _atom_site_fract_occupancy
 H  H1  1  0.89300  0.30236  0.40219  1
 H  H2  1  0.10700  0.69764  0.59781  1
 O  O1  1  0.89702  0.07619  0.76571  1
 O  O2  1  0.10298  0.92381  0.23429  1
 O  O3  1  0.69954  0.32715  0.44683  1
 O  O4  1  0.30046  0.67285  0.55317  1
 O  O5  1  0.30069  0.68290  0.95883  1
 O  O6  1  0.69931  0.31710  0.04117  1
 O  O7  1  0.68993  0.76990  0.14615  1
 O  O8  1  0.31007  0.23010  0.85385  1
 O  O9  1  0.79267  0.63583  0.66023  1
 O  O10  1  0.20733  0.36417  0.33977  1
 U  U1  1  0.00000  0.00000  0.00000  1
 U  U2  1  0.55705  0.43702  0.74875  1
 U  U3  1  0.44295  0.56298  0.25125  1
