CIF file written using JARVIS-Tools package.
data_Li2UBr6
_symmetry_space_group_name_H-M  'P-31m'
_cell_length_a       6.86158
_cell_length_b       6.86158
_cell_length_c       6.31202
_cell_angle_alpha    90
_cell_angle_beta     90
_cell_angle_gamma    120

_symmetry_Int_Tables_number  162
_chemical_formula_structural  Li2UBr6
_chemical_formula_sum  Li2UBr6
_cell_volume  257.36364817517875
_cell_formula_units_Z  1
loop_
  _symmetry_equiv_pos_site_id
 _symmetry_equiv_pos_as_xyz
 1  'x, y, z'
loop_
 _atom_site_type_symbol
 _atom_site_label
 _atom_site_symmetry_multiplicity
 _atom_site_fract_x
 _atom_site_fract_y
 _atom_site_fract_z
 _atom_site_fract_occupancy
 Br  Br1  1  0.66269  0.66269  0.74752  1
 Br  Br2  1  0.00000  0.33731  0.74752  1
 Br  Br3  1  0.33731  0.00000  0.74752  1
 Br  Br4  1  0.33731  0.33731  0.25248  1
 Br  Br5  1  -0.00000  0.66269  0.25248  1
 Br  Br6  1  0.66269  -0.00000  0.25248  1
 Li  Li1  1  0.33333  0.66667  0.50000  1
 Li  Li2  1  0.66667  0.33333  0.50000  1
 U  U1  1  0.00000  0.00000  0.50000  1
