CIF file written using JARVIS-Tools package.
data_H6C6SO
_symmetry_space_group_name_H-M  'P1'
_cell_length_a       4.09442
_cell_length_b       5.63739
_cell_length_c       6.37623
_cell_angle_alpha    68.2697
_cell_angle_beta     84.43
_cell_angle_gamma    92.3549

_symmetry_Int_Tables_number  1
_chemical_formula_structural  H6C6SO
_chemical_formula_sum  H6C6SO
_cell_volume  135.59783264566974
_cell_formula_units_Z  1
loop_
  _symmetry_equiv_pos_site_id
 _symmetry_equiv_pos_as_xyz
 1  'x, y, z'
loop_
 _atom_site_type_symbol
 _atom_site_label
 _atom_site_symmetry_multiplicity
 _atom_site_fract_x
 _atom_site_fract_y
 _atom_site_fract_z
 _atom_site_fract_occupancy
 C  C1  1  0.25717  0.76562  0.91890  1
 C  C2  1  0.07367  0.56611  0.11174  1
 C  C3  1  0.91810  0.37851  0.06019  1
 C  C4  1  0.23543  0.72424  0.72201  1
 C  C5  1  0.58922  0.08125  0.44417  1
 C  C6  1  0.69828  0.14105  0.19399  1
 H  H1  1  0.81287  -0.02812  0.18264  1
 H  H2  1  0.45828  0.23514  0.47346  1
 H  H3  1  0.39966  0.92762  0.92726  1
 H  H4  1  0.05890  0.56653  0.28302  1
 H  H5  1  0.79089  0.03356  0.55095  1
 H  H6  1  0.46961  0.15298  0.11402  1
 O  O1  1  0.36145  0.85477  0.50239  1
 S  S1  1  -0.00356  0.44324  0.76895  1
