CIF file written using JARVIS-Tools package.
data_HoMn2
_symmetry_space_group_name_H-M  'Fd-3m'
_cell_length_a       5.06844
_cell_length_b       5.06844
_cell_length_c       5.06845
_cell_angle_alpha    60
_cell_angle_beta     60
_cell_angle_gamma    60.0001

_symmetry_Int_Tables_number  227
_chemical_formula_structural  HoMn2
_chemical_formula_sum  Ho2Mn4
_cell_volume  92.06816724187615
_cell_formula_units_Z  2
loop_
  _symmetry_equiv_pos_site_id
 _symmetry_equiv_pos_as_xyz
 1  'x, y, z'
loop_
 _atom_site_type_symbol
 _atom_site_label
 _atom_site_symmetry_multiplicity
 _atom_site_fract_x
 _atom_site_fract_y
 _atom_site_fract_z
 _atom_site_fract_occupancy
 Ho  Ho1  1  0.12500  0.12500  0.12500  1
 Ho  Ho2  1  0.87500  0.87500  0.87500  1
 Mn  Mn1  1  0.50000  0.00000  0.50000  1
 Mn  Mn2  1  -0.00000  0.50000  0.50000  1
 Mn  Mn3  1  0.50000  0.50000  0.50000  1
 Mn  Mn4  1  0.50000  0.50000  0.00000  1
