CIF file written using JARVIS-Tools package.
data_YbZn2P2
_symmetry_space_group_name_H-M  'P-3m1'
_cell_length_a       4.03062
_cell_length_b       4.03062
_cell_length_c       6.74128
_cell_angle_alpha    90
_cell_angle_beta     90
_cell_angle_gamma    120

_symmetry_Int_Tables_number  164
_chemical_formula_structural  YbZn2P2
_chemical_formula_sum  YbZn2P2
_cell_volume  94.84556498743632
_cell_formula_units_Z  1
loop_
  _symmetry_equiv_pos_site_id
 _symmetry_equiv_pos_as_xyz
 1  'x, y, z'
loop_
 _atom_site_type_symbol
 _atom_site_label
 _atom_site_symmetry_multiplicity
 _atom_site_fract_x
 _atom_site_fract_y
 _atom_site_fract_z
 _atom_site_fract_occupancy
 P  P1  1  0.66667  0.33333  0.74320  1
 P  P2  1  0.33333  0.66667  0.25680  1
 Yb  Yb1  1  0.00000  0.00000  0.00000  1
 Zn  Zn1  1  0.66667  0.33333  0.36160  1
 Zn  Zn2  1  0.33333  0.66667  0.63840  1
