CIF file written using JARVIS-Tools package.
data_Al2S3
_symmetry_space_group_name_H-M  'Cc'
_cell_length_a       6.45962
_cell_length_b       6.45962
_cell_length_c       7.04509
_cell_angle_alpha    63.0537
_cell_angle_beta     63.0537
_cell_angle_gamma    59.7822

_symmetry_Int_Tables_number  9
_chemical_formula_structural  Al2S3
_chemical_formula_sum  Al4S6
_cell_volume  216.5611371259484
_cell_formula_units_Z  2
loop_
  _symmetry_equiv_pos_site_id
 _symmetry_equiv_pos_as_xyz
 1  'x, y, z'
loop_
 _atom_site_type_symbol
 _atom_site_label
 _atom_site_symmetry_multiplicity
 _atom_site_fract_x
 _atom_site_fract_y
 _atom_site_fract_z
 _atom_site_fract_occupancy
 Al  Al1  1  0.18123  0.98754  0.49690  1
 Al  Al2  1  0.81044  0.67330  0.50968  1
 Al  Al3  1  0.98754  0.18123  0.99690  1
 Al  Al4  1  0.67330  0.81044  0.00968  1
 S  S1  1  0.29757  0.12777  0.11318  1
 S  S2  1  0.96459  0.79359  0.12433  1
 S  S3  1  0.62738  0.45357  0.13087  1
 S  S4  1  0.12777  0.29757  0.61318  1
 S  S5  1  0.79359  0.96459  0.62433  1
 S  S6  1  0.45357  0.62738  0.63087  1
