CIF file written using JARVIS-Tools package.
data_Ce3Mg2Rh4
_symmetry_space_group_name_H-M  'Amm2'
_cell_length_a       7.12371
_cell_length_b       7.12371
_cell_length_c       3.9607
_cell_angle_alpha    90
_cell_angle_beta     90
_cell_angle_gamma    114.394

_symmetry_Int_Tables_number  38
_chemical_formula_structural  Ce3Mg2Rh4
_chemical_formula_sum  Ce3Mg2Rh4
_cell_volume  183.05099074012386
_cell_formula_units_Z  1
loop_
  _symmetry_equiv_pos_site_id
 _symmetry_equiv_pos_as_xyz
 1  'x, y, z'
loop_
 _atom_site_type_symbol
 _atom_site_label
 _atom_site_symmetry_multiplicity
 _atom_site_fract_x
 _atom_site_fract_y
 _atom_site_fract_z
 _atom_site_fract_occupancy
 Ce  Ce1  1  0.41770  0.41770  0.00000  1
 Ce  Ce2  1  0.61254  0.96264  0.00000  1
 Ce  Ce3  1  0.96264  0.61254  0.00000  1
 Mg  Mg1  1  0.25475  0.99505  0.50000  1
 Mg  Mg2  1  0.99505  0.25475  0.50000  1
 Rh  Rh1  1  0.30851  0.64127  0.50000  1
 Rh  Rh2  1  0.64127  0.30851  0.50000  1
 Rh  Rh3  1  0.03908  0.03908  0.00000  1
 Rh  Rh4  1  0.76835  0.76835  0.50000  1
