CIF file written using JARVIS-Tools package.
data_H7C3N
_symmetry_space_group_name_H-M  'Pm'
_cell_length_a       4.6492
_cell_length_b       4.95285
_cell_length_c       6.81536
_cell_angle_alpha    90.0136
_cell_angle_beta     96.3831
_cell_angle_gamma    90.0024

_symmetry_Int_Tables_number  6
_chemical_formula_structural  H7C3N
_chemical_formula_sum  H4C6N2
_cell_volume  155.96358607092472
_cell_formula_units_Z  2
loop_
  _symmetry_equiv_pos_site_id
 _symmetry_equiv_pos_as_xyz
 1  'x, y, z'
loop_
 _atom_site_type_symbol
 _atom_site_label
 _atom_site_symmetry_multiplicity
 _atom_site_fract_x
 _atom_site_fract_y
 _atom_site_fract_z
 _atom_site_fract_occupancy
 C  C1  1  0.67218  0.34654  0.79272  1
 C  C2  1  0.76669  0.60227  0.69300  1
 C  C3  1  0.76667  0.09076  0.69299  1
 C  C4  1  0.17218  0.34648  0.29271  1
 C  C5  1  0.26670  0.60220  0.19300  1
 C  C6  1  0.26667  0.09070  0.19299  1
 H  H1  1  0.93425  0.34648  0.29057  1
 H  H2  1  0.97123  0.84647  0.30502  1
 H  H3  1  0.50389  0.09087  0.19158  1
 H  H4  1  0.50392  0.60204  0.19162  1
 H  H5  1  0.17256  0.08727  0.03600  1
 H  H6  1  0.17264  0.60552  0.03600  1
 H  H7  1  0.26165  0.34653  0.44896  1
 H  H8  1  0.67258  0.08734  0.53600  1
 H  H9  1  0.43424  0.34654  0.79057  1
 H  H10  1  0.00390  0.09094  0.69159  1
 H  H11  1  0.00391  0.60211  0.69161  1
 H  H12  1  0.67262  0.60558  0.53600  1
 H  H13  1  0.76165  0.34659  0.94896  1
 H  H14  1  0.47123  0.84654  0.80502  1
 N  N1  1  0.69023  0.84655  0.79727  1
 N  N2  1  0.19023  0.84648  0.29726  1
