CIF file written using JARVIS-Tools package.
data_Li4VO4F
_symmetry_space_group_name_H-M  'P2_1'
_cell_length_a       5.12577
_cell_length_b       9.37887
_cell_length_c       5.53193
_cell_angle_alpha    90
_cell_angle_beta     117.883
_cell_angle_gamma    90

_symmetry_Int_Tables_number  4
_chemical_formula_structural  Li4VO4F
_chemical_formula_sum  Li8V2O8F2
_cell_volume  235.066958613362
_cell_formula_units_Z  2
loop_
  _symmetry_equiv_pos_site_id
 _symmetry_equiv_pos_as_xyz
 1  'x, y, z'
loop_
 _atom_site_type_symbol
 _atom_site_label
 _atom_site_symmetry_multiplicity
 _atom_site_fract_x
 _atom_site_fract_y
 _atom_site_fract_z
 _atom_site_fract_occupancy
 F  F1  1  0.44298  0.92806  0.45166  1
 F  F2  1  0.55702  0.42806  0.54834  1
 Li  Li1  1  0.42533  0.02231  0.15134  1
 Li  Li2  1  0.57529  0.24196  0.50436  1
 Li  Li3  1  0.80547  0.00230  0.69849  1
 Li  Li4  1  0.57467  0.52231  0.84866  1
 Li  Li5  1  0.24636  0.03546  0.59801  1
 Li  Li6  1  0.19453  0.50230  0.30151  1
 Li  Li7  1  0.42471  0.74196  0.49564  1
 Li  Li8  1  0.75364  0.53546  0.40199  1
 O  O1  1  0.61349  0.14343  0.83599  1
 O  O2  1  0.78755  0.68842  0.81568  1
 O  O3  1  0.15900  0.62777  0.59088  1
 O  O4  1  0.17891  0.90291  0.83778  1
 O  O5  1  0.82109  0.40291  0.16222  1
 O  O6  1  0.84100  0.12777  0.40912  1
 O  O7  1  0.21245  0.18842  0.18432  1
 O  O8  1  0.38651  0.64343  0.16401  1
 V  V1  1  0.13284  0.71913  0.85577  1
 V  V2  1  0.86716  0.21913  0.14423  1
