CIF file written using JARVIS-Tools package.
data_Mn4FeO5
_symmetry_space_group_name_H-M  'I4/mmm'
_cell_length_a       11.3162
_cell_length_b       11.3162
_cell_length_c       11.3162
_cell_angle_alpha    164.448
_cell_angle_beta     164.448
_cell_angle_gamma    22.0627

_symmetry_Int_Tables_number  139
_chemical_formula_structural  Mn4FeO5
_chemical_formula_sum  Mn4FeO5
_cell_volume  104.15338429721118
_cell_formula_units_Z  1
loop_
  _symmetry_equiv_pos_site_id
 _symmetry_equiv_pos_as_xyz
 1  'x, y, z'
loop_
 _atom_site_type_symbol
 _atom_site_label
 _atom_site_symmetry_multiplicity
 _atom_site_fract_x
 _atom_site_fract_y
 _atom_site_fract_z
 _atom_site_fract_occupancy
 Fe  Fe1  1  0.00000  0.00000  0.00000  1
 Mn  Mn1  1  0.40389  0.40389  -0.00000  1
 Mn  Mn2  1  0.80093  0.80093  -0.00000  1
 Mn  Mn3  1  0.19907  0.19907  -0.00000  1
 Mn  Mn4  1  0.59611  0.59611  -0.00000  1
 O  O1  1  0.09954  0.09954  -0.00000  1
 O  O2  1  0.50000  0.50000  -0.00000  1
 O  O3  1  0.90046  0.90046  0.00000  1
 O  O4  1  0.30100  0.30100  -0.00000  1
 O  O5  1  0.69900  0.69900  -0.00000  1
