CIF file written using JARVIS-Tools package.
data_Ga2Se3
_symmetry_space_group_name_H-M  'Imm2'
_cell_length_a       6.76789
_cell_length_b       6.76789
_cell_length_c       6.76789
_cell_angle_alpha    146.644
_cell_angle_beta     131.021
_cell_angle_gamma    60.5539

_symmetry_Int_Tables_number  44
_chemical_formula_structural  Ga2Se3
_chemical_formula_sum  Ga2Se3
_cell_volume  127.39543445968285
_cell_formula_units_Z  1
loop_
  _symmetry_equiv_pos_site_id
 _symmetry_equiv_pos_as_xyz
 1  'x, y, z'
loop_
 _atom_site_type_symbol
 _atom_site_label
 _atom_site_symmetry_multiplicity
 _atom_site_fract_x
 _atom_site_fract_y
 _atom_site_fract_z
 _atom_site_fract_occupancy
 Ga  Ga1  1  0.33012  0.34008  0.99004  1
 Ga  Ga2  1  0.64997  0.65992  0.99004  1
 Se  Se1  1  0.61393  0.84372  0.77021  1
 Se  Se2  1  0.92649  0.15628  0.77021  1
 Se  Se3  1  0.22951  0.50000  0.72951  1
