CIF file written using JARVIS-Tools package.
data_Ti2VTe4
_symmetry_space_group_name_H-M  'Cm'
_cell_length_a       7.37873
_cell_length_b       7.37874
_cell_length_c       7.01389
_cell_angle_alpha    61.8663
_cell_angle_beta     61.8663
_cell_angle_gamma    30.7566

_symmetry_Int_Tables_number  8
_chemical_formula_structural  Ti2VTe4
_chemical_formula_sum  Ti2VTe4
_cell_volume  170.34278183024963
_cell_formula_units_Z  1
loop_
  _symmetry_equiv_pos_site_id
 _symmetry_equiv_pos_as_xyz
 1  'x, y, z'
loop_
 _atom_site_type_symbol
 _atom_site_label
 _atom_site_symmetry_multiplicity
 _atom_site_fract_x
 _atom_site_fract_y
 _atom_site_fract_z
 _atom_site_fract_occupancy
 Te  Te1  1  0.11161  0.11161  0.54218  1
 Te  Te2  1  0.88933  0.88933  0.45266  1
 Te  Te3  1  0.36498  0.36498  0.96562  1
 Te  Te4  1  0.63367  0.63367  0.04284  1
 Ti  Ti1  1  0.00136  0.00136  0.99799  1
 Ti  Ti2  1  0.24656  0.24656  0.71070  1
 V  V1  1  0.75249  0.75249  0.28801  1
