CIF file written using JARVIS-Tools package.
data_Li2FeCoO4
_symmetry_space_group_name_H-M  'P2/m'
_cell_length_a       2.82054
_cell_length_b       4.95977
_cell_length_c       4.93309
_cell_angle_alpha    70.5135
_cell_angle_beta     90
_cell_angle_gamma    90

_symmetry_Int_Tables_number  10
_chemical_formula_structural  Li2FeCoO4
_chemical_formula_sum  Li2FeCoO4
_cell_volume  65.05704391400042
_cell_formula_units_Z  1
loop_
  _symmetry_equiv_pos_site_id
 _symmetry_equiv_pos_as_xyz
 1  'x, y, z'
loop_
 _atom_site_type_symbol
 _atom_site_label
 _atom_site_symmetry_multiplicity
 _atom_site_fract_x
 _atom_site_fract_y
 _atom_site_fract_z
 _atom_site_fract_occupancy
 Co  Co1  1  0.50000  0.00000  0.50000  1
 Fe  Fe1  1  0.00000  0.50000  0.50000  1
 Li  Li1  1  0.50000  0.50000  -0.00000  1
 Li  Li2  1  0.00000  0.00000  0.00000  1
 O  O1  1  0.00000  0.24178  0.27944  1
 O  O2  1  0.50000  0.74299  0.27754  1
 O  O3  1  0.50000  0.25701  0.72246  1
 O  O4  1  0.00000  0.75822  0.72056  1
