data_image0
_chemical_formula_structural       Ag2Cs2Te4Zr
_chemical_formula_sum              "Ag2 Cs2 Te4 Zr1"
_cell_length_a       6.61172
_cell_length_b       6.6097
_cell_length_c       8.33781
_cell_angle_alpha    90
_cell_angle_beta     66.6411
_cell_angle_gamma    90

_space_group_name_H-M_alt    "P 1"
_space_group_IT_number       1

loop_
  _space_group_symop_operation_xyz
  'x, y, z'

loop_
  _atom_site_type_symbol
  _atom_site_label
  _atom_site_symmetry_multiplicity
  _atom_site_fract_x
  _atom_site_fract_y
  _atom_site_fract_z
  _atom_site_occupancy
  Ag  Ag1       1.0  0.50000  0.00000  0.00000  1.0000
  Ag  Ag2       1.0  0.00000  0.50000  0.00000  1.0000
  Cs  Cs1       1.0  0.00000  0.26000  0.50000  1.0000
  Cs  Cs2       1.0  0.50000  0.74000  0.50000  1.0000
  Te  Te1       1.0  0.65300  0.24000  0.21200  1.0000
  Te  Te2       1.0  0.13600  0.76000  0.21200  1.0000
  Te  Te3       1.0  0.34700  0.24000  0.78800  1.0000
  Te  Te4       1.0  0.86400  0.76000  0.78800  1.0000
  Zr  Zr1       1.0  0.00000  0.00000  0.00000  1.0000
