CIF file written using JARVIS-Tools package.
data_DySi2Ni
_symmetry_space_group_name_H-M  'Cmcm'
_cell_length_a       3.98416
_cell_length_b       4.00218
_cell_length_c       8.47838
_cell_angle_alpha    103.652
_cell_angle_beta     90
_cell_angle_gamma    90

_symmetry_Int_Tables_number  63
_chemical_formula_structural  DySi2Ni
_chemical_formula_sum  Dy2Si4Ni2
_cell_volume  131.3708239090999
_cell_formula_units_Z  2
loop_
  _symmetry_equiv_pos_site_id
 _symmetry_equiv_pos_as_xyz
 1  'x, y, z'
loop_
 _atom_site_type_symbol
 _atom_site_label
 _atom_site_symmetry_multiplicity
 _atom_site_fract_x
 _atom_site_fract_y
 _atom_site_fract_z
 _atom_site_fract_occupancy
 Dy  Dy1  1  0.25000  0.89458  0.78915  1
 Dy  Dy2  1  0.75000  0.10542  0.21085  1
 Ni  Ni1  1  0.75000  0.32229  0.64459  1
 Ni  Ni2  1  0.25000  0.67771  0.35541  1
 Si  Si1  1  0.25000  0.25012  0.50025  1
 Si  Si2  1  0.75000  0.74988  0.49975  1
 Si  Si3  1  0.75000  0.45978  0.91956  1
 Si  Si4  1  0.25000  0.54022  0.08044  1
