CIF file written using JARVIS-Tools package.
data_CuO2
_symmetry_space_group_name_H-M  'Cmcm'
_cell_length_a       5.18248
_cell_length_b       5.18248
_cell_length_c       3.84206
_cell_angle_alpha    90
_cell_angle_beta     90
_cell_angle_gamma    146.758

_symmetry_Int_Tables_number  63
_chemical_formula_structural  CuO2
_chemical_formula_sum  Cu2O4
_cell_volume  56.56644393425957
_cell_formula_units_Z  2
loop_
  _symmetry_equiv_pos_site_id
 _symmetry_equiv_pos_as_xyz
 1  'x, y, z'
loop_
 _atom_site_type_symbol
 _atom_site_label
 _atom_site_symmetry_multiplicity
 _atom_site_fract_x
 _atom_site_fract_y
 _atom_site_fract_z
 _atom_site_fract_occupancy
 Cu  Cu1  1  0.84305  0.15695  0.75000  1
 Cu  Cu2  1  0.15695  0.84305  0.25000  1
 O  O1  1  0.47186  0.52814  0.75000  1
 O  O2  1  0.52814  0.47186  0.25000  1
 O  O3  1  0.20714  0.79286  0.75000  1
 O  O4  1  0.79286  0.20714  0.25000  1
