CIF file written using JARVIS-Tools package.
data_Na5SnAs3
_symmetry_space_group_name_H-M  'P2_1/c'
_cell_length_a       8.58721
_cell_length_b       7.62963
_cell_length_c       16.0667
_cell_angle_alpha    90
_cell_angle_beta     121.756
_cell_angle_gamma    90

_symmetry_Int_Tables_number  14
_chemical_formula_structural  Na5SnAs3
_chemical_formula_sum  Na20Sn4As2
_cell_volume  895.059028232459
_cell_formula_units_Z  4
loop_
  _symmetry_equiv_pos_site_id
 _symmetry_equiv_pos_as_xyz
 1  'x, y, z'
loop_
 _atom_site_type_symbol
 _atom_site_label
 _atom_site_symmetry_multiplicity
 _atom_site_fract_x
 _atom_site_fract_y
 _atom_site_fract_z
 _atom_site_fract_occupancy
 As  As1  1  0.63727  0.25135  0.74054  1
 As  As2  1  0.05680  0.73063  0.91662  1
 As  As3  1  0.94320  0.23063  0.58338  1
 As  As4  1  0.94320  0.26937  0.08338  1
 As  As5  1  0.05680  0.76937  0.41662  1
 As  As6  1  0.66995  0.79016  0.07161  1
 As  As7  1  0.33005  0.29016  0.42839  1
 As  As8  1  0.33005  0.20984  0.92839  1
 As  As9  1  0.66995  0.70984  0.57161  1
 As  As10  1  0.36273  0.75135  0.75946  1
 As  As11  1  0.63727  0.24865  0.24054  1
 As  As12  1  0.36273  0.74865  0.25946  1
 Na  Na1  1  0.90742  0.49612  0.24148  1
 Na  Na2  1  0.09258  0.99612  0.25852  1
 Na  Na3  1  0.09258  0.50388  0.75852  1
 Na  Na4  1  0.99274  0.15999  0.41744  1
 Na  Na5  1  0.59009  0.03914  0.41128  1
 Na  Na6  1  0.74767  0.97519  0.91386  1
 Na  Na7  1  0.00726  0.65999  0.08256  1
 Na  Na8  1  0.00726  0.84001  0.58256  1
 Na  Na9  1  0.68553  0.64083  0.75631  1
 Na  Na10  1  0.31447  0.14083  0.74369  1
 Na  Na11  1  0.31447  0.35917  0.24369  1
 Na  Na12  1  0.68553  0.85917  0.25631  1
 Na  Na13  1  0.25233  0.47519  0.58614  1
 Na  Na14  1  0.25233  0.02481  0.08614  1
 Na  Na15  1  0.99274  0.34001  0.91744  1
 Na  Na16  1  0.59009  0.46086  0.91128  1
 Na  Na17  1  0.40991  0.96086  0.58872  1
 Na  Na18  1  0.40991  0.53914  0.08872  1
 Na  Na19  1  0.90742  0.00388  0.74148  1
 Na  Na20  1  0.74767  0.52481  0.41386  1
 Sn  Sn1  1  0.66214  0.35211  0.59086  1
 Sn  Sn2  1  0.33786  0.85211  0.90914  1
 Sn  Sn3  1  0.33786  0.64789  0.40914  1
 Sn  Sn4  1  0.66214  0.14789  0.09086  1
