CIF file written using JARVIS-Tools package.
data_CuSi2P3
_symmetry_space_group_name_H-M  'P3m1'
_cell_length_a       3.75087
_cell_length_b       3.75087
_cell_length_c       9.06952
_cell_angle_alpha    90
_cell_angle_beta     90
_cell_angle_gamma    120

_symmetry_Int_Tables_number  156
_chemical_formula_structural  CuSi2P3
_chemical_formula_sum  CuSi2P3
_cell_volume  110.50421596279821
_cell_formula_units_Z  1
loop_
  _symmetry_equiv_pos_site_id
 _symmetry_equiv_pos_as_xyz
 1  'x, y, z'
loop_
 _atom_site_type_symbol
 _atom_site_label
 _atom_site_symmetry_multiplicity
 _atom_site_fract_x
 _atom_site_fract_y
 _atom_site_fract_z
 _atom_site_fract_occupancy
 Cu  Cu1  1  0.33333  0.66667  0.73429  1
 P  P1  1  0.33333  0.66667  0.99185  1
 P  P2  1  0.66667  0.33333  0.33534  1
 P  P3  1  0.00000  0.00000  0.67255  1
 Si  Si1  1  0.66667  0.33333  0.08312  1
 Si  Si2  1  0.00000  0.00000  0.43284  1
