CIF file written using JARVIS-Tools package.
data_KBaFe4As4
_symmetry_space_group_name_H-M  'Cmmm'
_cell_length_a       7.10963
_cell_length_b       7.10964
_cell_length_c       5.4714
_cell_angle_alpha    90
_cell_angle_beta     90
_cell_angle_gamma    134.749

_symmetry_Int_Tables_number  65
_chemical_formula_structural  KBaFe4As4
_chemical_formula_sum  KBaFe4As4
_cell_volume  196.4131725538696
_cell_formula_units_Z  1
loop_
  _symmetry_equiv_pos_site_id
 _symmetry_equiv_pos_as_xyz
 1  'x, y, z'
loop_
 _atom_site_type_symbol
 _atom_site_label
 _atom_site_symmetry_multiplicity
 _atom_site_fract_x
 _atom_site_fract_y
 _atom_site_fract_z
 _atom_site_fract_occupancy
 As  As1  1  0.65186  0.34814  0.00000  1
 As  As2  1  0.15185  0.84815  0.50000  1
 As  As3  1  0.84815  0.15185  0.50000  1
 As  As4  1  0.34814  0.65186  0.00000  1
 Ba  Ba1  1  0.50000  0.50000  0.50000  1
 Fe  Fe1  1  0.50000  -0.00000  0.75032  1
 Fe  Fe2  1  -0.00000  0.50000  0.24968  1
 Fe  Fe3  1  -0.00000  0.50000  0.75032  1
 Fe  Fe4  1  0.50000  -0.00000  0.24968  1
 K  K1  1  0.00000  0.00000  0.00000  1
