CIF file written using JARVIS-Tools package.
data_AlV2
_symmetry_space_group_name_H-M  'Fmmm'
_cell_length_a       6.66596
_cell_length_b       6.52565
_cell_length_c       2.62156
_cell_angle_alpha    81.5602
_cell_angle_beta     75.5463
_cell_angle_gamma    22.8934

_symmetry_Int_Tables_number  69
_chemical_formula_structural  AlV2
_chemical_formula_sum  AlV2
_cell_volume  41.89847634996875
_cell_formula_units_Z  1
loop_
  _symmetry_equiv_pos_site_id
 _symmetry_equiv_pos_as_xyz
 1  'x, y, z'
loop_
 _atom_site_type_symbol
 _atom_site_label
 _atom_site_symmetry_multiplicity
 _atom_site_fract_x
 _atom_site_fract_y
 _atom_site_fract_z
 _atom_site_fract_occupancy
 Al  Al1  1  0.00000  0.00000  0.00000  1
 V  V1  1  0.32954  0.32954  0.67046  1
 V  V2  1  0.67046  0.67046  0.32954  1
