CIF file written using JARVIS-Tools package.
data_H2C
_symmetry_space_group_name_H-M  'P2_1/c'
_cell_length_a       5.87373
_cell_length_b       5.29373
_cell_length_c       11.4539
_cell_angle_alpha    90
_cell_angle_beta     102.356
_cell_angle_gamma    90

_symmetry_Int_Tables_number  14
_chemical_formula_structural  H2C
_chemical_formula_sum  H32C6
_cell_volume  347.8985378408471
_cell_formula_units_Z  16
loop_
  _symmetry_equiv_pos_site_id
 _symmetry_equiv_pos_as_xyz
 1  'x, y, z'
loop_
 _atom_site_type_symbol
 _atom_site_label
 _atom_site_symmetry_multiplicity
 _atom_site_fract_x
 _atom_site_fract_y
 _atom_site_fract_z
 _atom_site_fract_occupancy
 C  C1  1  0.59844  0.20633  0.87194  1
 C  C2  1  0.40156  0.70633  0.62806  1
 C  C3  1  0.96342  0.04085  0.37034  1
 C  C4  1  0.59844  0.29367  0.37194  1
 C  C5  1  0.03658  0.54085  0.12966  1
 C  C6  1  0.03658  0.95915  0.62966  1
 C  C7  1  0.86406  0.34221  0.06645  1
 C  C8  1  0.96342  0.45915  0.87034  1
 C  C9  1  0.13594  0.84221  0.43355  1
 C  C10  1  0.86406  0.15779  0.56645  1
 C  C11  1  0.76434  0.41038  0.93518  1
 C  C12  1  0.23566  0.58962  0.06482  1
 C  C13  1  0.23566  0.91038  0.56482  1
 C  C14  1  0.40156  0.79367  0.12806  1
 C  C15  1  0.76434  0.08962  0.43518  1
 C  C16  1  0.13594  0.65779  0.93355  1
 H  H1  1  0.95286  0.15687  0.06963  1
 H  H2  1  0.72129  0.18309  0.61436  1
 H  H3  1  0.94278  0.77918  0.63432  1
 H  H4  1  0.05722  0.22082  0.36568  1
 H  H5  1  0.72129  0.31691  0.11436  1
 H  H6  1  0.27871  0.68309  0.88564  1
 H  H7  1  0.27871  0.81691  0.38564  1
 H  H8  1  0.04714  0.65687  0.43037  1
 H  H9  1  0.66513  0.91093  0.43395  1
 H  H10  1  0.66513  0.58907  0.93395  1
 H  H11  1  0.45629  0.16885  0.91871  1
 H  H12  1  0.54371  0.83115  0.08129  1
 H  H13  1  0.54371  0.66885  0.58129  1
 H  H14  1  0.45629  0.33115  0.41871  1
 H  H15  1  0.69311  0.02714  0.86861  1
 H  H16  1  0.30689  0.97286  0.13139  1
 H  H17  1  0.30689  0.52714  0.63139  1
 H  H18  1  0.69311  0.47286  0.36861  1
 H  H19  1  0.48071  0.73940  0.22073  1
 H  H20  1  0.95286  0.34313  0.56963  1
 H  H21  1  0.48071  0.76060  0.72073  1
 H  H22  1  0.89120  0.51604  0.77708  1
 H  H23  1  0.10880  0.48396  0.22292  1
 H  H24  1  0.10880  0.01604  0.72292  1
 H  H25  1  0.89120  0.98396  0.27708  1
 H  H26  1  0.51929  0.26060  0.77927  1
 H  H27  1  0.94278  0.72082  0.13432  1
 H  H28  1  0.05722  0.27918  0.86568  1
 H  H29  1  0.33487  0.08907  0.56605  1
 H  H30  1  0.33487  0.41093  0.06605  1
 H  H31  1  0.51929  0.23940  0.27927  1
 H  H32  1  0.04714  0.84313  0.93037  1
