CIF file written using JARVIS-Tools package.
data_LiRuN2
_symmetry_space_group_name_H-M  'I-42d'
_cell_length_a       5.53976
_cell_length_b       4.63199
_cell_length_c       8.9356
_cell_angle_alpha    90
_cell_angle_beta     143.755
_cell_angle_gamma    114.713

_symmetry_Int_Tables_number  122
_chemical_formula_structural  LiRuN2
_chemical_formula_sum  Li2Ru2N4
_cell_volume  95.85820460240475
_cell_formula_units_Z  2
loop_
  _symmetry_equiv_pos_site_id
 _symmetry_equiv_pos_as_xyz
 1  'x, y, z'
loop_
 _atom_site_type_symbol
 _atom_site_label
 _atom_site_symmetry_multiplicity
 _atom_site_fract_x
 _atom_site_fract_y
 _atom_site_fract_z
 _atom_site_fract_occupancy
 Li  Li1  1  0.00000  0.50000  0.25000  1
 Li  Li2  1  0.00000  0.00000  0.00000  1
 N  N1  1  0.50000  0.96017  0.12500  1
 N  N2  1  0.50000  0.03983  0.62500  1
 N  N3  1  0.57966  0.53983  0.41483  1
 N  N4  1  0.42034  0.46017  0.83517  1
 Ru  Ru1  1  0.00000  0.50000  0.75000  1
 Ru  Ru2  1  0.00000  0.00000  0.50000  1
