CIF file written using JARVIS-Tools package.
data_U2Al3Fe
_symmetry_space_group_name_H-M  'R-3m'
_cell_length_a       5.14321
_cell_length_b       5.1432
_cell_length_c       5.44874
_cell_angle_alpha    90
_cell_angle_beta     61.8381
_cell_angle_gamma    120

_symmetry_Int_Tables_number  166
_chemical_formula_structural  U2Al3Fe
_chemical_formula_sum  U2Al3Fe
_cell_volume  104.65784736073395
_cell_formula_units_Z  1
loop_
  _symmetry_equiv_pos_site_id
 _symmetry_equiv_pos_as_xyz
 1  'x, y, z'
loop_
 _atom_site_type_symbol
 _atom_site_label
 _atom_site_symmetry_multiplicity
 _atom_site_fract_x
 _atom_site_fract_y
 _atom_site_fract_z
 _atom_site_fract_occupancy
 Al  Al1  1  0.25000  0.37500  0.37500  1
 Al  Al2  1  0.25000  0.87500  0.37500  1
 Al  Al3  1  0.75000  0.37500  0.37500  1
 Fe  Fe1  1  0.75000  0.37500  0.87500  1
 U  U1  1  0.47239  0.73620  0.79141  1
 U  U2  1  0.02761  0.01380  0.95859  1
