CIF file written using JARVIS-Tools package.
data_ZnCu2SnSe3S
_symmetry_space_group_name_H-M  'P1'
_cell_length_a       5.67467
_cell_length_b       5.68258
_cell_length_c       6.93987
_cell_angle_alpha    114.05
_cell_angle_beta     113.855
_cell_angle_gamma    90.1387

_symmetry_Int_Tables_number  1
_chemical_formula_structural  ZnCu2SnSe3S
_chemical_formula_sum  ZnCu2SnSe3S
_cell_volume  183.11676501564025
_cell_formula_units_Z  1
loop_
  _symmetry_equiv_pos_site_id
 _symmetry_equiv_pos_as_xyz
 1  'x, y, z'
loop_
 _atom_site_type_symbol
 _atom_site_label
 _atom_site_symmetry_multiplicity
 _atom_site_fract_x
 _atom_site_fract_y
 _atom_site_fract_z
 _atom_site_fract_occupancy
 Cu  Cu1  1  0.02271  0.01811  0.01487  1
 Cu  Cu2  1  0.72580  0.25392  0.48624  1
 S  S1  1  0.37064  0.36604  0.25891  1
 Se  Se1  1  0.89064  0.89811  0.26308  1
 Se  Se2  1  0.09716  0.62732  0.73962  1
 Se  Se3  1  0.64201  0.10551  0.74004  1
 Sn  Sn1  1  0.49685  0.49416  0.00182  1
 Zn  Zn1  1  0.25417  0.73683  0.49542  1
