CIF file written using JARVIS-Tools package.
data_Mn4Sb3As
_symmetry_space_group_name_H-M  'P-6m2'
_cell_length_a       3.96342
_cell_length_b       3.96342
_cell_length_c       11.2158
_cell_angle_alpha    90
_cell_angle_beta     90
_cell_angle_gamma    120

_symmetry_Int_Tables_number  187
_chemical_formula_structural  Mn4Sb3As
_chemical_formula_sum  Mn4Sb3As
_cell_volume  152.58117138064165
_cell_formula_units_Z  1
loop_
  _symmetry_equiv_pos_site_id
 _symmetry_equiv_pos_as_xyz
 1  'x, y, z'
loop_
 _atom_site_type_symbol
 _atom_site_label
 _atom_site_symmetry_multiplicity
 _atom_site_fract_x
 _atom_site_fract_y
 _atom_site_fract_z
 _atom_site_fract_occupancy
 As  As1  1  0.66667  0.33333  0.50000  1
 Mn  Mn1  1  0.00000  0.00000  0.61513  1
 Mn  Mn2  1  0.00000  0.00000  0.12700  1
 Mn  Mn3  1  0.00000  0.00000  0.87300  1
 Mn  Mn4  1  0.00000  0.00000  0.38487  1
 Sb  Sb1  1  0.66667  0.33333  0.00000  1
 Sb  Sb2  1  0.33333  0.66667  0.74510  1
 Sb  Sb3  1  0.33333  0.66667  0.25490  1
