CIF file written using JARVIS-Tools package.
data_ThI4
_symmetry_space_group_name_H-M  'P2_1/c'
_cell_length_a       7.76703
_cell_length_b       8.10913
_cell_length_c       13.3486
_cell_angle_alpha    90
_cell_angle_beta     98.7092
_cell_angle_gamma    90

_symmetry_Int_Tables_number  14
_chemical_formula_structural  ThI4
_chemical_formula_sum  Th4I6
_cell_volume  831.050284403443
_cell_formula_units_Z  4
loop_
  _symmetry_equiv_pos_site_id
 _symmetry_equiv_pos_as_xyz
 1  'x, y, z'
loop_
 _atom_site_type_symbol
 _atom_site_label
 _atom_site_symmetry_multiplicity
 _atom_site_fract_x
 _atom_site_fract_y
 _atom_site_fract_z
 _atom_site_fract_occupancy
 I  I1  1  0.50087  0.25417  0.18123  1
 I  I2  1  0.00025  0.36658  0.14972  1
 I  I3  1  0.50025  0.13342  0.64972  1
 I  I4  1  -0.00025  0.63342  0.85028  1
 I  I5  1  0.19176  0.09178  0.94190  1
 I  I6  1  0.30824  0.59178  0.55810  1
 I  I7  1  0.80824  0.90822  0.05810  1
 I  I8  1  0.69176  0.40822  0.44190  1
 I  I9  1  0.49975  0.86658  0.35028  1
 I  I10  1  0.00087  0.24583  0.68123  1
 I  I11  1  -0.00087  0.75417  0.31877  1
 I  I12  1  0.67060  0.30683  0.90174  1
 I  I13  1  0.82940  0.80683  0.59826  1
 I  I14  1  0.32940  0.69317  0.09826  1
 I  I15  1  0.17060  0.19317  0.40174  1
 I  I16  1  0.49913  0.74583  0.81877  1
 Th  Th1  1  0.67621  0.48344  0.68300  1
 Th  Th2  1  0.32379  0.51656  0.31700  1
 Th  Th3  1  0.17621  0.01656  0.18300  1
 Th  Th4  1  0.82379  0.98344  0.81700  1
