CIF file written using JARVIS-Tools package.
data_H6C5SN2
_symmetry_space_group_name_H-M  'P1'
_cell_length_a       4.42435
_cell_length_b       6.94855
_cell_length_c       9.67602
_cell_angle_alpha    79.3876
_cell_angle_beta     79.3205
_cell_angle_gamma    73.6535

_symmetry_Int_Tables_number  1
_chemical_formula_structural  H6C5SN2
_chemical_formula_sum  H2C0S2N4
_cell_volume  277.7370357888532
_cell_formula_units_Z  2
loop_
  _symmetry_equiv_pos_site_id
 _symmetry_equiv_pos_as_xyz
 1  'x, y, z'
loop_
 _atom_site_type_symbol
 _atom_site_label
 _atom_site_symmetry_multiplicity
 _atom_site_fract_x
 _atom_site_fract_y
 _atom_site_fract_z
 _atom_site_fract_occupancy
 C  C1  1  0.74000  0.21727  0.70370  1
 C  C2  1  0.07344  0.49946  0.07181  1
 C  C3  1  0.96324  0.51707  0.84082  1
 C  C4  1  0.08573  0.60331  0.93619  1
 C  C5  1  0.58573  0.10331  0.43619  1
 C  C6  1  0.46324  0.01707  0.34082  1
 C  C7  1  0.57344  -0.00055  0.57181  1
 C  C8  1  0.36007  0.84875  0.40350  1
 C  C9  1  0.24000  0.71727  0.20370  1
 C  C10  1  0.86007  0.34875  0.90350  1
 H  H1  1  0.68072  0.23598  0.40490  1
 H  H2  1  0.07562  0.85041  0.15163  1
 H  H3  1  0.95135  0.57807  0.72951  1
 H  H4  1  0.45135  0.07807  0.22951  1
 H  H5  1  0.18072  0.73598  0.90490  1
 H  H6  1  0.24816  0.41520  0.26122  1
 H  H7  1  0.48536  0.71299  0.15048  1
 H  H8  1  0.98536  0.21299  0.65048  1
 H  H9  1  0.74816  0.91520  0.76122  1
 H  H10  1  0.50954  0.21158  0.90824  1
 H  H11  1  0.00954  0.71158  0.40824  1
 H  H12  1  0.57562  0.35041  0.65163  1
 N  N1  1  0.63658  0.03860  0.69732  1
 N  N2  1  0.72955  0.21821  0.85467  1
 N  N3  1  0.13658  0.53860  0.19732  1
 N  N4  1  0.22955  0.71821  0.35467  1
 S  S1  1  0.92343  0.28815  0.08194  1
 S  S2  1  0.42343  0.78815  0.58194  1
