CIF file written using JARVIS-Tools package.
data_SnO2
_symmetry_space_group_name_H-M  'R-3m'
_cell_length_a       3.24707
_cell_length_b       3.24731
_cell_length_c       9.53316
_cell_angle_alpha    70.0982
_cell_angle_beta     90.0057
_cell_angle_gamma    119.998

_symmetry_Int_Tables_number  166
_chemical_formula_structural  SnO2
_chemical_formula_sum  Sn2O4
_cell_volume  80.0494793242955
_cell_formula_units_Z  2
loop_
  _symmetry_equiv_pos_site_id
 _symmetry_equiv_pos_as_xyz
 1  'x, y, z'
loop_
 _atom_site_type_symbol
 _atom_site_label
 _atom_site_symmetry_multiplicity
 _atom_site_fract_x
 _atom_site_fract_y
 _atom_site_fract_z
 _atom_site_fract_occupancy
 O  O1  1  0.74005  0.48428  0.38844  1
 O  O2  1  0.58909  0.18235  0.11537  1
 O  O3  1  0.25535  0.51477  0.61572  1
 O  O4  1  0.40664  0.81757  0.88878  1
 Sn  Sn1  1  0.99769  -0.00048  0.50208  1
 Sn  Sn2  1  0.99786  -0.00005  0.00207  1
