CIF file written using JARVIS-Tools package.
data_TiBi2O6
_symmetry_space_group_name_H-M  'P1'
_cell_length_a       3.79682
_cell_length_b       3.74521
_cell_length_c       8.87186
_cell_angle_alpha    90.0592
_cell_angle_beta     100.179
_cell_angle_gamma    90.1332

_symmetry_Int_Tables_number  1
_chemical_formula_structural  TiBi2O6
_chemical_formula_sum  TiBi2O6
_cell_volume  124.17098687529216
_cell_formula_units_Z  1
loop_
  _symmetry_equiv_pos_site_id
 _symmetry_equiv_pos_as_xyz
 1  'x, y, z'
loop_
 _atom_site_type_symbol
 _atom_site_label
 _atom_site_symmetry_multiplicity
 _atom_site_fract_x
 _atom_site_fract_y
 _atom_site_fract_z
 _atom_site_fract_occupancy
 Bi  Bi1  1  0.06899  0.01111  0.54007  1
 Bi  Bi2  1  0.80782  0.99584  0.94597  1
 O  O1  1  0.55657  0.49523  0.40825  1
 O  O2  1  0.62860  0.00573  0.67903  1
 O  O3  1  -0.04230  0.49580  0.15167  1
 O  O4  1  0.10893  0.50883  0.68448  1
 O  O5  1  0.43630  0.49504  0.91506  1
 O  O6  1  0.46593  -0.00392  0.14094  1
 Ti  Ti1  1  0.46916  0.49635  0.20541  1
