CIF file written using JARVIS-Tools package.
data_H5C8NO2
_symmetry_space_group_name_H-M  'P1'
_cell_length_a       4.01751
_cell_length_b       7.29167
_cell_length_c       11.2083
_cell_angle_alpha    77.0528
_cell_angle_beta     85.1649
_cell_angle_gamma    75.1298

_symmetry_Int_Tables_number  1
_chemical_formula_structural  H5C8NO2
_chemical_formula_sum  H0C6N2O4
_cell_volume  309.1493955681325
_cell_formula_units_Z  2
loop_
  _symmetry_equiv_pos_site_id
 _symmetry_equiv_pos_as_xyz
 1  'x, y, z'
loop_
 _atom_site_type_symbol
 _atom_site_label
 _atom_site_symmetry_multiplicity
 _atom_site_fract_x
 _atom_site_fract_y
 _atom_site_fract_z
 _atom_site_fract_occupancy
 C  C1  1  0.37858  0.07136  0.35384  1
 C  C2  1  0.00551  0.05414  0.03954  1
 C  C3  1  0.52552  0.87959  0.91682  1
 C  C4  1  0.72134  0.66985  0.94574  1
 C  C5  1  0.72654  0.56666  0.06827  1
 C  C6  1  0.87890  0.57160  0.85392  1
 C  C7  1  0.00946  0.36983  0.88123  1
 C  C8  1  0.97865  0.26601  0.00125  1
 C  C9  1  0.85053  0.36759  0.09496  1
 C  C10  1  0.02566  0.37938  0.41682  1
 C  C11  1  0.22152  0.16964  0.44571  1
 C  C12  1  0.50579  0.55395  0.53957  1
 C  C13  1  0.47891  0.76581  0.50122  1
 C  C14  1  0.35126  0.86743  0.59494  1
 C  C15  1  0.50920  0.86959  0.38116  1
 C  C16  1  0.22722  0.06649  0.56825  1
 H  H1  1  0.19062  0.77745  0.04390  1
 H  H2  1  0.12139  0.29444  0.80823  1
 H  H3  1  0.62915  0.64118  0.14315  1
 H  H4  1  0.83612  0.28710  0.18885  1
 H  H5  1  0.88809  0.65022  0.75921  1
 H  H6  1  0.38735  0.14995  0.25911  1
 H  H7  1  0.69100  0.27722  0.54401  1
 H  H8  1  0.13019  0.14105  0.64314  1
 H  H9  1  0.33726  0.78696  0.68886  1
 H  H10  1  0.62075  0.79417  0.30813  1
 N  N1  1  0.23706  0.90562  0.99549  1
 N  N2  1  0.73733  0.40538  0.49555  1
 O  O1  1  0.10231  0.50672  0.33541  1
 O  O2  1  0.60228  0.00691  0.83542  1
 O  O3  1  0.79940  0.99954  0.11993  1
 O  O4  1  0.29972  0.49940  0.62000  1
