CIF file written using JARVIS-Tools package.
data_ZnH18C11O4
_symmetry_space_group_name_H-M  'P1'
_cell_length_a       4.12634
_cell_length_b       4.5286
_cell_length_c       16.4097
_cell_angle_alpha    88.3698
_cell_angle_beta     85.6573
_cell_angle_gamma    63.803

_symmetry_Int_Tables_number  1
_chemical_formula_structural  ZnH18C11O4
_chemical_formula_sum  ZnH8CO4
_cell_volume  274.34876641513216
_cell_formula_units_Z  1
loop_
  _symmetry_equiv_pos_site_id
 _symmetry_equiv_pos_as_xyz
 1  'x, y, z'
loop_
 _atom_site_type_symbol
 _atom_site_label
 _atom_site_symmetry_multiplicity
 _atom_site_fract_x
 _atom_site_fract_y
 _atom_site_fract_z
 _atom_site_fract_occupancy
 C  C1  1  0.42253  0.36140  0.65197  1
 C  C2  1  0.57474  0.35579  0.34217  1
 C  C3  1  0.47994  0.36148  0.49640  1
 C  C4  1  0.27196  0.55076  0.57407  1
 C  C5  1  0.34806  0.55123  0.41745  1
 C  C6  1  0.22813  0.54577  0.73120  1
 C  C7  1  0.39298  0.34918  0.80721  1
 C  C8  1  0.21833  0.52662  0.88843  1
 C  C9  1  0.39854  0.31005  0.96040  1
 C  C10  1  0.28179  0.45792  0.04555  1
 C  C11  1  0.49939  0.54469  0.26278  1
 H  H1  1  0.05995  0.61559  0.41252  1
 H  H2  1  0.53137  0.13555  0.33319  1
 H  H3  1  0.41015  0.12287  0.65127  1
 H  H4  1  0.86504  0.25979  0.35030  1
 H  H5  1  0.68517  0.28376  0.80382  1
 H  H6  1  0.36812  0.08080  0.96152  1
 H  H7  1  0.69394  0.22951  0.95381  1
 H  H8  1  0.24062  0.75963  0.89038  1
 H  H9  1  0.46334  0.12506  0.49465  1
 H  H10  1  0.98264  0.60968  0.57303  1
 H  H11  1  0.28227  0.79011  0.57493  1
 H  H12  1  0.93791  0.60527  0.73277  1
 H  H13  1  0.23942  0.78466  0.73201  1
 H  H14  1  0.92595  0.59434  0.89318  1
 H  H15  1  0.36423  0.78734  0.41978  1
 H  H16  1  0.77031  0.29558  0.49935  1
 H  H17  1  0.37657  0.11245  0.80648  1
 H  H18  1  0.71313  0.29972  0.65166  1
 O  O1  1  0.72459  0.45576  0.20087  1
 O  O2  1  0.35767  0.26036  0.10555  1
 O  O3  1  0.19831  0.80470  0.26106  1
 O  O4  1  0.13208  0.77201  0.05274  1
 Zn  Zn1  1  0.08325  0.01671  0.15408  1
