CIF file written using JARVIS-Tools package.
data_H6C13S4
_symmetry_space_group_name_H-M  'P1'
_cell_length_a       3.75584
_cell_length_b       6.23018
_cell_length_c       12.8621
_cell_angle_alpha    84.5782
_cell_angle_beta     68.949
_cell_angle_gamma    77.8163

_symmetry_Int_Tables_number  1
_chemical_formula_structural  H6C13S4
_chemical_formula_sum  H6C3S4
_cell_volume  274.49631600882367
_cell_formula_units_Z  1
loop_
  _symmetry_equiv_pos_site_id
 _symmetry_equiv_pos_as_xyz
 1  'x, y, z'
loop_
 _atom_site_type_symbol
 _atom_site_label
 _atom_site_symmetry_multiplicity
 _atom_site_fract_x
 _atom_site_fract_y
 _atom_site_fract_z
 _atom_site_fract_occupancy
 C  C1  1  0.16504  0.46307  0.34218  1
 C  C2  1  0.15851  0.50943  0.94836  1
 C  C3  1  0.32996  0.29712  0.90934  1
 C  C4  1  0.23464  0.26400  0.29014  1
 C  C5  1  0.34699  0.26943  0.80028  1
 C  C6  1  0.20896  0.29109  0.18328  1
 C  C7  1  0.08045  0.61721  0.05067  1
 C  C8  1  0.16874  0.50842  0.64474  1
 C  C9  1  0.15077  0.50974  0.45049  1
 C  C10  1  0.19909  0.46179  0.75265  1
 C  C11  1  0.12995  0.51044  0.15008  1
 C  C12  1  0.05227  0.71660  0.60410  1
 C  C13  1  0.04038  0.71733  0.49697  1
 H  H1  1  0.23550  0.15340  0.13350  1
 H  H2  1  0.94865  0.86508  0.45359  1
 H  H3  1  0.30382  0.10400  0.32790  1
 H  H4  1  0.45021  0.16634  0.95623  1
 H  H5  1  0.98107  0.86440  0.65199  1
 H  H6  1  0.46630  0.11373  0.75733  1
 S  S1  1  0.07372  0.68420  0.25586  1
 S  S2  1  0.92390  0.89177  0.05355  1
 S  S3  1  0.03271  0.67742  0.84554  1
 S  S4  1  0.26746  0.31179  0.54485  1
