CIF file written using JARVIS-Tools package.
data_NaHoS2
_symmetry_space_group_name_H-M  'R-3m'
_cell_length_a       6.98372
_cell_length_b       6.98372
_cell_length_c       6.98372
_cell_angle_alpha    32.8482
_cell_angle_beta     32.8483
_cell_angle_gamma    32.8482

_symmetry_Int_Tables_number  166
_chemical_formula_structural  NaHoS2
_chemical_formula_sum  NaHoS2
_cell_volume  89.15940053702879
_cell_formula_units_Z  1
loop_
  _symmetry_equiv_pos_site_id
 _symmetry_equiv_pos_as_xyz
 1  'x, y, z'
loop_
 _atom_site_type_symbol
 _atom_site_label
 _atom_site_symmetry_multiplicity
 _atom_site_fract_x
 _atom_site_fract_y
 _atom_site_fract_z
 _atom_site_fract_occupancy
 Ho  Ho1  1  0.00000  0.00000  0.00000  1
 Na  Na1  1  0.50000  0.50000  0.50000  1
 S  S1  1  0.74292  0.74292  0.74292  1
 S  S2  1  0.25708  0.25708  0.25708  1
