CIF file written using JARVIS-Tools package.
data_Ba2RuN2
_symmetry_space_group_name_H-M  'I4/mmm'
_cell_length_a       4.17401
_cell_length_b       4.17405
_cell_length_c       7.1939
_cell_angle_alpha    106.865
_cell_angle_beta     106.864
_cell_angle_gamma    89.9999

_symmetry_Int_Tables_number  139
_chemical_formula_structural  Ba2RuN2
_chemical_formula_sum  Ba2RuN2
_cell_volume  114.30138941407785
_cell_formula_units_Z  1
loop_
  _symmetry_equiv_pos_site_id
 _symmetry_equiv_pos_as_xyz
 1  'x, y, z'
loop_
 _atom_site_type_symbol
 _atom_site_label
 _atom_site_symmetry_multiplicity
 _atom_site_fract_x
 _atom_site_fract_y
 _atom_site_fract_z
 _atom_site_fract_occupancy
 Ba  Ba1  1  0.86065  0.86065  0.22130  1
 Ba  Ba2  1  0.13935  0.13935  0.77870  1
 N  N1  1  0.36129  0.36129  0.22259  1
 N  N2  1  0.63871  0.63871  0.77741  1
 Ru  Ru1  1  0.50000  0.50000  0.50000  1
