CIF file written using JARVIS-Tools package.
data_SnH10C6O4
_symmetry_space_group_name_H-M  'P1'
_cell_length_a       4.76724
_cell_length_b       6.13086
_cell_length_c       6.86806
_cell_angle_alpha    97.0075
_cell_angle_beta     90.2323
_cell_angle_gamma    98.7018

_symmetry_Int_Tables_number  1
_chemical_formula_structural  SnH10C6O4
_chemical_formula_sum  SnH0C6O4
_cell_volume  196.89008315935217
_cell_formula_units_Z  1
loop_
  _symmetry_equiv_pos_site_id
 _symmetry_equiv_pos_as_xyz
 1  'x, y, z'
loop_
 _atom_site_type_symbol
 _atom_site_label
 _atom_site_symmetry_multiplicity
 _atom_site_fract_x
 _atom_site_fract_y
 _atom_site_fract_z
 _atom_site_fract_occupancy
 C  C1  1  0.41699  0.42991  0.86430  1
 C  C2  1  0.59374  0.57137  0.02946  1
 C  C3  1  0.36962  0.07847  0.62186  1
 C  C4  1  0.89838  0.57281  0.50033  1
 C  C5  1  0.03005  0.08937  0.16255  1
 C  C6  1  0.53793  0.21724  0.79235  1
 H  H1  1  0.41289  0.53401  0.74435  1
 H  H2  1  0.01994  0.00714  0.01144  1
 H  H3  1  0.76083  0.25109  0.75350  1
 H  H4  1  0.71581  0.44301  0.46110  1
 H  H5  1  0.90968  0.22833  0.17587  1
 H  H6  1  0.25076  0.14679  0.21109  1
 H  H7  1  0.09386  0.51145  0.45218  1
 H  H8  1  0.90936  0.62849  0.65808  1
 H  H9  1  0.52956  0.10961  0.91069  1
 H  H10  1  0.19772  0.39662  0.91138  1
 O  O1  1  0.10370  0.07900  0.61180  1
 O  O2  1  0.47656  0.70816  0.15014  1
 O  O3  1  0.48963  0.95677  0.49128  1
 O  O4  1  0.85480  0.56030  0.05098  1
 Sn  Sn1  1  0.85983  0.84571  0.34350  1
