CIF file written using JARVIS-Tools package.
data_SrFeO2
_symmetry_space_group_name_H-M  'P4/mmm'
_cell_length_a       5.23216
_cell_length_b       5.23246
_cell_length_c       5.23216
_cell_angle_alpha    63.4009
_cell_angle_beta     84.0041
_cell_angle_gamma    116.599

_symmetry_Int_Tables_number  123
_chemical_formula_structural  SrFeO2
_chemical_formula_sum  Sr2Fe2O4
_cell_volume  105.86838756373324
_cell_formula_units_Z  2
loop_
  _symmetry_equiv_pos_site_id
 _symmetry_equiv_pos_as_xyz
 1  'x, y, z'
loop_
 _atom_site_type_symbol
 _atom_site_label
 _atom_site_symmetry_multiplicity
 _atom_site_fract_x
 _atom_site_fract_y
 _atom_site_fract_z
 _atom_site_fract_occupancy
 Fe  Fe1  1  0.50000  0.00000  0.50000  1
 Fe  Fe2  1  -0.00000  0.00000  0.00000  1
 O  O1  1  0.25000  0.00000  0.25000  1
 O  O2  1  0.75000  -0.00000  0.75000  1
 O  O3  1  0.25000  0.50000  0.75000  1
 O  O4  1  0.75000  0.50000  0.25000  1
 Sr  Sr1  1  0.75000  0.50000  0.75000  1
 Sr  Sr2  1  0.25000  0.50000  0.25000  1
