CIF file written using JARVIS-Tools package.
data_Na6MgO4
_symmetry_space_group_name_H-M  'P6_3mc'
_cell_length_a       7.60079
_cell_length_b       7.60079
_cell_length_c       5.87216
_cell_angle_alpha    90
_cell_angle_beta     90
_cell_angle_gamma    120

_symmetry_Int_Tables_number  186
_chemical_formula_structural  Na6MgO4
_chemical_formula_sum  Na2Mg2O8
_cell_volume  293.79600729012185
_cell_formula_units_Z  2
loop_
  _symmetry_equiv_pos_site_id
 _symmetry_equiv_pos_as_xyz
 1  'x, y, z'
loop_
 _atom_site_type_symbol
 _atom_site_label
 _atom_site_symmetry_multiplicity
 _atom_site_fract_x
 _atom_site_fract_y
 _atom_site_fract_z
 _atom_site_fract_occupancy
 Mg  Mg1  1  0.66667  0.33333  0.39124  1
 Mg  Mg2  1  0.33333  0.66667  0.89124  1
 Na  Na1  1  0.14015  0.85985  0.61231  1
 Na  Na2  1  0.85985  0.71971  0.11231  1
 Na  Na3  1  0.71971  0.85985  0.61231  1
 Na  Na4  1  0.07466  0.53733  0.28857  1
 Na  Na5  1  0.46267  0.53733  0.28857  1
 Na  Na6  1  0.46267  0.92534  0.28857  1
 Na  Na7  1  0.14015  0.28029  0.61231  1
 Na  Na8  1  0.53733  0.46267  0.78857  1
 Na  Na9  1  0.92534  0.46267  0.78857  1
 Na  Na10  1  0.28029  0.14015  0.11231  1
 Na  Na11  1  0.85985  0.14015  0.11231  1
 Na  Na12  1  0.53733  0.07466  0.78857  1
 O  O1  1  0.66667  0.33333  0.05737  1
 O  O2  1  0.38100  0.19050  0.50266  1
 O  O3  1  0.19050  0.80950  0.00266  1
 O  O4  1  0.33333  0.66667  0.55737  1
 O  O5  1  0.61900  0.80950  0.00266  1
 O  O6  1  0.19050  0.38100  0.00266  1
 O  O7  1  0.80950  0.61900  0.50266  1
 O  O8  1  0.80950  0.19050  0.50266  1
