CIF file written using JARVIS-Tools package.
data_Ti4Ru
_symmetry_space_group_name_H-M  'Fmmm'
_cell_length_a       11.2879
_cell_length_b       11.1455
_cell_length_c       2.82441
_cell_angle_alpha    85.6433
_cell_angle_beta     79.9092
_cell_angle_gamma    14.4475

_symmetry_Int_Tables_number  69
_chemical_formula_structural  Ti4Ru
_chemical_formula_sum  Ti4Ru
_cell_volume  80.68199564327371
_cell_formula_units_Z  1
loop_
  _symmetry_equiv_pos_site_id
 _symmetry_equiv_pos_as_xyz
 1  'x, y, z'
loop_
 _atom_site_type_symbol
 _atom_site_label
 _atom_site_symmetry_multiplicity
 _atom_site_fract_x
 _atom_site_fract_y
 _atom_site_fract_z
 _atom_site_fract_occupancy
 Ru  Ru1  1  0.00000  0.00000  0.00000  1
 Ti  Ti1  1  0.40957  0.40957  0.59043  1
 Ti  Ti2  1  0.80324  0.80324  0.19676  1
 Ti  Ti3  1  0.19676  0.19676  0.80324  1
 Ti  Ti4  1  0.59043  0.59043  0.40957  1
