CIF file written using JARVIS-Tools package.
data_SbSI
_symmetry_space_group_name_H-M  'Pnma'
_cell_length_a       4.11282
_cell_length_b       8.64064
_cell_length_c       10.324
_cell_angle_alpha    90
_cell_angle_beta     90
_cell_angle_gamma    90

_symmetry_Int_Tables_number  62
_chemical_formula_structural  SbSI
_chemical_formula_sum  Sb4S4I4
_cell_volume  366.8881811005541
_cell_formula_units_Z  4
loop_
  _symmetry_equiv_pos_site_id
 _symmetry_equiv_pos_as_xyz
 1  'x, y, z'
loop_
 _atom_site_type_symbol
 _atom_site_label
 _atom_site_symmetry_multiplicity
 _atom_site_fract_x
 _atom_site_fract_y
 _atom_site_fract_z
 _atom_site_fract_occupancy
 I  I1  1  0.75000  0.51075  0.82784  1
 I  I2  1  0.25000  0.48925  0.17216  1
 I  I3  1  0.75000  0.01075  0.67216  1
 I  I4  1  0.25000  0.98925  0.32784  1
 S  S1  1  0.75000  0.34369  0.45448  1
 S  S2  1  0.25000  0.65631  0.54552  1
 S  S3  1  0.25000  0.15631  0.95448  1
 S  S4  1  0.75000  0.84369  0.04552  1
 Sb  Sb1  1  0.75000  0.11955  0.12409  1
 Sb  Sb2  1  0.75000  0.61955  0.37591  1
 Sb  Sb3  1  0.25000  0.88045  0.87591  1
 Sb  Sb4  1  0.25000  0.38045  0.62409  1
