CIF file written using JARVIS-Tools package.
data_TbCoC2
_symmetry_space_group_name_H-M  'Amm2'
_cell_length_a       3.58674
_cell_length_b       3.76126
_cell_length_c       3.76126
_cell_angle_alpha    106.373
_cell_angle_beta     90
_cell_angle_gamma    90

_symmetry_Int_Tables_number  38
_chemical_formula_structural  TbCoC2
_chemical_formula_sum  TbCoC2
_cell_volume  48.68409055641437
_cell_formula_units_Z  1
loop_
  _symmetry_equiv_pos_site_id
 _symmetry_equiv_pos_as_xyz
 1  'x, y, z'
loop_
 _atom_site_type_symbol
 _atom_site_label
 _atom_site_symmetry_multiplicity
 _atom_site_fract_x
 _atom_site_fract_y
 _atom_site_fract_z
 _atom_site_fract_occupancy
 C  C1  1  0.50000  0.15843  0.53751  1
 C  C2  1  0.50000  0.46249  0.84157  1
 Co  Co1  1  0.50000  0.62106  0.37894  1
 Tb  Tb1  1  0.00000  0.00303  0.99697  1
