CIF file written using JARVIS-Tools package.
data_K2ZnF4
_symmetry_space_group_name_H-M  'I4/mmm'
_cell_length_a       4.07897
_cell_length_b       4.07897
_cell_length_c       7.17309
_cell_angle_alpha    106.519
_cell_angle_beta     106.518
_cell_angle_gamma    90

_symmetry_Int_Tables_number  139
_chemical_formula_structural  K2ZnF4
_chemical_formula_sum  K2ZnF4
_cell_volume  109.27278558447229
_cell_formula_units_Z  1
loop_
  _symmetry_equiv_pos_site_id
 _symmetry_equiv_pos_as_xyz
 1  'x, y, z'
loop_
 _atom_site_type_symbol
 _atom_site_label
 _atom_site_symmetry_multiplicity
 _atom_site_fract_x
 _atom_site_fract_y
 _atom_site_fract_z
 _atom_site_fract_occupancy
 F  F1  1  0.50000  0.00000  -0.00000  1
 F  F2  1  -0.00000  0.50000  -0.00000  1
 F  F3  1  0.84361  0.84361  0.68722  1
 F  F4  1  0.15639  0.15639  0.31278  1
 K  K1  1  0.35440  0.35440  0.70880  1
 K  K2  1  0.64560  0.64560  0.29120  1
 Zn  Zn1  1  0.00000  0.00000  0.00000  1
