data_image0
_chemical_formula_structural       Ba8O16V4
_chemical_formula_sum              "Ba8 O16 V4"
_cell_length_a       5.78939
_cell_length_b       7.61656
_cell_length_c       10.105
_cell_angle_alpha    89.9976
_cell_angle_beta     90.9208
_cell_angle_gamma    90.0009

_space_group_name_H-M_alt    "P 1"
_space_group_IT_number       1

loop_
  _space_group_symop_operation_xyz
  'x, y, z'

loop_
  _atom_site_type_symbol
  _atom_site_label
  _atom_site_symmetry_multiplicity
  _atom_site_fract_x
  _atom_site_fract_y
  _atom_site_fract_z
  _atom_site_occupancy
  Ba  Ba1       1.0  0.25100  0.00318  0.31000  1.0000
  Ba  Ba2       1.0  0.24900  0.50300  0.19000  1.0000
  Ba  Ba3       1.0  0.74900  0.99700  0.69000  1.0000
  Ba  Ba4       1.0  0.75100  0.49700  0.81000  1.0000
  Ba  Ba5       1.0  0.25100  0.35800  0.58600  1.0000
  Ba  Ba6       1.0  0.24900  0.85800  0.91400  1.0000
  Ba  Ba7       1.0  0.74900  0.64200  0.41400  1.0000
  Ba  Ba8       1.0  0.75100  0.14200  0.08610  1.0000
  O   O1        1.0  0.99500  0.69800  0.65200  1.0000
  O   O2        1.0  0.50500  0.19800  0.84800  1.0000
  O   O3        1.0  0.00516  0.30200  0.34800  1.0000
  O   O4        1.0  0.49500  0.80200  0.15200  1.0000
  O   O5        1.0  0.51100  0.69200  0.64100  1.0000
  O   O6        1.0  0.98900  0.19200  0.85900  1.0000
  O   O7        1.0  0.48900  0.30800  0.35900  1.0000
  O   O8        1.0  0.01130  0.80800  0.14100  1.0000
  O   O9        1.0  0.23300  0.67400  0.41600  1.0000
  O   O10       1.0  0.26700  0.17400  0.08390  1.0000
  O   O11       1.0  0.76700  0.32600  0.58400  1.0000
  O   O12       1.0  0.73300  0.82600  0.91600  1.0000
  O   O13       1.0  0.25300  0.01700  0.60100  1.0000
  O   O14       1.0  0.24700  0.51700  0.89900  1.0000
  O   O15       1.0  0.74700  0.98300  0.39900  1.0000
  O   O16       1.0  0.75200  0.48300  0.10100  1.0000
  V   V1        1.0  0.24800  0.78200  0.57700  1.0000
  V   V2        1.0  0.25200  0.28200  0.92300  1.0000
  V   V3        1.0  0.75200  0.21800  0.42300  1.0000
  V   V4        1.0  0.74800  0.71800  0.07740  1.0000
