CIF file written using JARVIS-Tools package.
data_U3Al3CoRh2
_symmetry_space_group_name_H-M  'P-6'
_cell_length_a       6.7475
_cell_length_b       6.7475
_cell_length_c       4.09983
_cell_angle_alpha    90
_cell_angle_beta     90
_cell_angle_gamma    120

_symmetry_Int_Tables_number  174
_chemical_formula_structural  U3Al3CoRh2
_chemical_formula_sum  U3Al3CoRh2
_cell_volume  161.65253094657695
_cell_formula_units_Z  1
loop_
  _symmetry_equiv_pos_site_id
 _symmetry_equiv_pos_as_xyz
 1  'x, y, z'
loop_
 _atom_site_type_symbol
 _atom_site_label
 _atom_site_symmetry_multiplicity
 _atom_site_fract_x
 _atom_site_fract_y
 _atom_site_fract_z
 _atom_site_fract_occupancy
 Al  Al1  1  0.66792  0.57101  0.00000  1
 Al  Al2  1  0.90309  0.33208  0.00000  1
 Al  Al3  1  0.42899  0.09691  0.00000  1
 Co  Co1  1  0.00000  0.00000  0.00000  1
 Rh  Rh1  1  0.33333  0.66667  0.00000  1
 Rh  Rh2  1  0.66667  0.33333  0.50000  1
 U  U1  1  0.68322  0.91200  0.50000  1
 U  U2  1  0.22879  0.31678  0.50000  1
 U  U3  1  0.08800  0.77121  0.50000  1
