CIF file written using JARVIS-Tools package.
data_V3ReB4
_symmetry_space_group_name_H-M  'Pmm2'
_cell_length_a       2.98918
_cell_length_b       3.07494
_cell_length_c       8.1407
_cell_angle_alpha    90
_cell_angle_beta     90
_cell_angle_gamma    90

_symmetry_Int_Tables_number  25
_chemical_formula_structural  V3ReB4
_chemical_formula_sum  V3ReB4
_cell_volume  74.82561643444339
_cell_formula_units_Z  1
loop_
  _symmetry_equiv_pos_site_id
 _symmetry_equiv_pos_as_xyz
 1  'x, y, z'
loop_
 _atom_site_type_symbol
 _atom_site_label
 _atom_site_symmetry_multiplicity
 _atom_site_fract_x
 _atom_site_fract_y
 _atom_site_fract_z
 _atom_site_fract_occupancy
 B  B1  1  0.00000  0.00000  0.44263  1
 B  B2  1  0.00000  0.50000  0.92893  1
 B  B3  1  0.50000  0.50000  0.05434  1
 B  B4  1  0.50000  0.00000  0.56481  1
 Re  Re1  1  0.00000  0.00000  0.15171  1
 V  V1  1  0.00000  0.50000  0.64597  1
 V  V2  1  0.50000  0.50000  0.36018  1
 V  V3  1  0.50000  0.00000  0.85143  1
