CIF file written using JARVIS-Tools package.
data_Tl3SbS3
_symmetry_space_group_name_H-M  'R3m'
_cell_length_a       6.09256
_cell_length_b       6.09256
_cell_length_c       6.09256
_cell_angle_alpha    104.357
_cell_angle_beta     104.357
_cell_angle_gamma    104.357

_symmetry_Int_Tables_number  160
_chemical_formula_structural  Tl3SbS3
_chemical_formula_sum  Tl3SbS3
_cell_volume  200.375893578678
_cell_formula_units_Z  1
loop_
  _symmetry_equiv_pos_site_id
 _symmetry_equiv_pos_as_xyz
 1  'x, y, z'
loop_
 _atom_site_type_symbol
 _atom_site_label
 _atom_site_symmetry_multiplicity
 _atom_site_fract_x
 _atom_site_fract_y
 _atom_site_fract_z
 _atom_site_fract_occupancy
 S  S1  1  0.57796  0.96893  0.96893  1
 S  S2  1  0.96893  0.96893  0.57796  1
 S  S3  1  0.96893  0.57796  0.96893  1
 Sb  Sb1  1  0.99761  0.99761  0.99761  1
 Tl  Tl1  1  0.55691  0.55691  0.17223  1
 Tl  Tl2  1  0.55691  0.17223  0.55691  1
 Tl  Tl3  1  0.17223  0.55691  0.55691  1
