CIF file written using JARVIS-Tools package.
data_ScMnSi
_symmetry_space_group_name_H-M  'P-62m'
_cell_length_a       6.52558
_cell_length_b       6.52558
_cell_length_c       3.82416
_cell_angle_alpha    90
_cell_angle_beta     90
_cell_angle_gamma    120

_symmetry_Int_Tables_number  189
_chemical_formula_structural  ScMnSi
_chemical_formula_sum  Sc3Mn3Si3
_cell_volume  141.0281583103857
_cell_formula_units_Z  3
loop_
  _symmetry_equiv_pos_site_id
 _symmetry_equiv_pos_as_xyz
 1  'x, y, z'
loop_
 _atom_site_type_symbol
 _atom_site_label
 _atom_site_symmetry_multiplicity
 _atom_site_fract_x
 _atom_site_fract_y
 _atom_site_fract_z
 _atom_site_fract_occupancy
 Mn  Mn1  1  0.76951  0.00000  0.00000  1
 Mn  Mn2  1  0.00000  0.76951  0.00000  1
 Mn  Mn3  1  0.23049  0.23049  0.00000  1
 Sc  Sc1  1  0.58284  0.58284  0.50000  1
 Sc  Sc2  1  0.00000  0.41716  0.50000  1
 Sc  Sc3  1  0.41716  0.00000  0.50000  1
 Si  Si1  1  0.00000  0.00000  0.50000  1
 Si  Si2  1  0.66667  0.33333  0.00000  1
 Si  Si3  1  0.33333  0.66667  0.00000  1
