CIF file written using JARVIS-Tools package.
data_CdH6C5O4
_symmetry_space_group_name_H-M  'P1'
_cell_length_a       3.72458
_cell_length_b       4.64098
_cell_length_c       8.48697
_cell_angle_alpha    85.0959
_cell_angle_beta     81.2005
_cell_angle_gamma    82.3322

_symmetry_Int_Tables_number  1
_chemical_formula_structural  CdH6C5O4
_chemical_formula_sum  CdH6C5O4
_cell_volume  143.36214619097765
_cell_formula_units_Z  1
loop_
  _symmetry_equiv_pos_site_id
 _symmetry_equiv_pos_as_xyz
 1  'x, y, z'
loop_
 _atom_site_type_symbol
 _atom_site_label
 _atom_site_symmetry_multiplicity
 _atom_site_fract_x
 _atom_site_fract_y
 _atom_site_fract_z
 _atom_site_fract_occupancy
 C  C1  1  0.05063  0.46092  0.49888  1
 C  C2  1  0.24412  0.17058  0.55072  1
 C  C3  1  0.13616  0.05657  0.72321  1
 C  C4  1  0.16567  0.25520  0.85642  1
 C  C5  1  0.06460  0.08854  0.01407  1
 Cd  Cd1  1  0.68476  0.66497  0.20533  1
 H  H1  1  0.17353  0.01490  0.47193  1
 H  H2  1  0.54066  0.16981  0.52040  1
 H  H3  1  0.30998  0.84981  0.74146  1
 H  H4  1  0.44548  0.31267  0.84746  1
 H  H5  1  0.85485  0.00065  0.73724  1
 H  H6  1  0.98228  0.46005  0.84885  1
 O  O1  1  0.15653  0.56013  0.34869  1
 O  O2  1  0.78551  0.58850  0.58150  1
 O  O3  1  0.80060  0.18973  0.11811  1
 O  O4  1  0.21897  0.82604  0.03577  1
