CIF file written using JARVIS-Tools package.
data_Cu4I3Cl
_symmetry_space_group_name_H-M  'Pmmm'
_cell_length_a       3.96718
_cell_length_b       5.56959
_cell_length_c       7.91579
_cell_angle_alpha    90
_cell_angle_beta     90
_cell_angle_gamma    90

_symmetry_Int_Tables_number  47
_chemical_formula_structural  Cu4I3Cl
_chemical_formula_sum  Cu4I3Cl
_cell_volume  174.90380928469907
_cell_formula_units_Z  1
loop_
  _symmetry_equiv_pos_site_id
 _symmetry_equiv_pos_as_xyz
 1  'x, y, z'
loop_
 _atom_site_type_symbol
 _atom_site_label
 _atom_site_symmetry_multiplicity
 _atom_site_fract_x
 _atom_site_fract_y
 _atom_site_fract_z
 _atom_site_fract_occupancy
 Cl  Cl1  1  0.00000  0.50000  0.00000  1
 Cu  Cu1  1  0.00000  0.00000  0.50000  1
 Cu  Cu2  1  0.50000  0.50000  0.77048  1
 Cu  Cu3  1  0.00000  0.00000  0.00000  1
 Cu  Cu4  1  0.50000  0.50000  0.22952  1
 I  I1  1  0.50000  0.00000  0.24026  1
 I  I2  1  0.00000  0.50000  0.50000  1
 I  I3  1  0.50000  0.00000  0.75974  1
