CIF file written using JARVIS-Tools package.
data_Li3SiNiO5
_symmetry_space_group_name_H-M  'P-1'
_cell_length_a       4.96465
_cell_length_b       5.51617
_cell_length_c       6.4224
_cell_angle_alpha    77.1296
_cell_angle_beta     74.3659
_cell_angle_gamma    73.6565

_symmetry_Int_Tables_number  2
_chemical_formula_structural  Li3SiNiO5
_chemical_formula_sum  Li6Si2Ni2O0
_cell_volume  160.46457959698407
_cell_formula_units_Z  2
loop_
  _symmetry_equiv_pos_site_id
 _symmetry_equiv_pos_as_xyz
 1  'x, y, z'
loop_
 _atom_site_type_symbol
 _atom_site_label
 _atom_site_symmetry_multiplicity
 _atom_site_fract_x
 _atom_site_fract_y
 _atom_site_fract_z
 _atom_site_fract_occupancy
 Li  Li1  1  0.48693  0.25285  0.00456  1
 Li  Li2  1  0.30192  0.44854  0.40411  1
 Li  Li3  1  0.29476  0.95056  0.40534  1
 Li  Li4  1  0.70524  0.04944  0.59466  1
 Li  Li5  1  0.69808  0.55146  0.59589  1
 Li  Li6  1  0.51307  0.74715  0.99544  1
 Ni  Ni1  1  0.09981  0.65158  0.79349  1
 Ni  Ni2  1  0.90019  0.34842  0.20651  1
 O  O1  1  0.84298  0.94718  0.90674  1
 O  O2  1  0.35815  0.34025  0.71916  1
 O  O3  1  0.63938  0.12963  0.27996  1
 O  O4  1  0.64185  0.65975  0.28084  1
 O  O5  1  0.15702  0.05282  0.09326  1
 O  O6  1  0.99626  0.76111  0.46789  1
 O  O7  1  0.16142  0.56849  0.11234  1
 O  O8  1  0.83858  0.43151  0.88766  1
 O  O9  1  0.00374  0.23889  0.53211  1
 O  O10  1  0.36062  0.87037  0.72004  1
 Si  Si1  1  0.90185  0.84531  0.21977  1
 Si  Si2  1  0.09815  0.15469  0.78023  1
