CIF file written using JARVIS-Tools package.
data_Li2VO2F
_symmetry_space_group_name_H-M  'C2/m'
_cell_length_a       2.87681
_cell_length_b       5.10513
_cell_length_c       7.75137
_cell_angle_alpha    96.7185
_cell_angle_beta     100.695
_cell_angle_gamma    106.365

_symmetry_Int_Tables_number  12
_chemical_formula_structural  Li2VO2F
_chemical_formula_sum  Li4V2O4F2
_cell_volume  105.58670448655249
_cell_formula_units_Z  2
loop_
  _symmetry_equiv_pos_site_id
 _symmetry_equiv_pos_as_xyz
 1  'x, y, z'
loop_
 _atom_site_type_symbol
 _atom_site_label
 _atom_site_symmetry_multiplicity
 _atom_site_fract_x
 _atom_site_fract_y
 _atom_site_fract_z
 _atom_site_fract_occupancy
 F  F1  1  0.08282  0.74592  0.41972  1
 F  F2  1  0.25051  0.25408  0.24695  1
 Li  Li1  1  0.16667  0.50000  0.83334  1
 Li  Li2  1  0.49236  0.47822  0.50651  1
 Li  Li3  1  0.84097  0.52178  0.16016  1
 Li  Li4  1  0.66666  0.00000  0.33333  1
 O  O1  1  0.75581  0.76202  0.74960  1
 O  O2  1  0.57753  0.23799  0.91706  1
 O  O3  1  0.90362  0.22676  0.58048  1
 O  O4  1  0.42971  0.77324  0.08619  1
 V  V1  1  0.34318  0.01426  0.67210  1
 V  V2  1  0.99015  0.98574  -0.00544  1
