CIF file written using JARVIS-Tools package.
data_NdGe
_symmetry_space_group_name_H-M  'Cmcm'
_cell_length_a       4.09102
_cell_length_b       4.4591
_cell_length_c       5.97952
_cell_angle_alpha    111.892
_cell_angle_beta     90
_cell_angle_gamma    90

_symmetry_Int_Tables_number  63
_chemical_formula_structural  NdGe
_chemical_formula_sum  Nd2Ge2
_cell_volume  101.2137282555718
_cell_formula_units_Z  2
loop_
  _symmetry_equiv_pos_site_id
 _symmetry_equiv_pos_as_xyz
 1  'x, y, z'
loop_
 _atom_site_type_symbol
 _atom_site_label
 _atom_site_symmetry_multiplicity
 _atom_site_fract_x
 _atom_site_fract_y
 _atom_site_fract_z
 _atom_site_fract_occupancy
 Ge  Ge1  1  0.25000  0.58259  0.16518  1
 Ge  Ge2  1  0.75000  0.41741  0.83482  1
 Nd  Nd1  1  0.25000  0.86190  0.72380  1
 Nd  Nd2  1  0.75000  0.13810  0.27620  1
