CIF file written using JARVIS-Tools package.
data_SrPrScO4
_symmetry_space_group_name_H-M  'I4mm'
_cell_length_a       6.91888
_cell_length_b       6.91888
_cell_length_c       6.91887
_cell_angle_alpha    146.249
_cell_angle_beta     146.249
_cell_angle_gamma    48.4777

_symmetry_Int_Tables_number  107
_chemical_formula_structural  SrPrScO4
_chemical_formula_sum  SrPrScO4
_cell_volume  101.80567343091055
_cell_formula_units_Z  1
loop_
  _symmetry_equiv_pos_site_id
 _symmetry_equiv_pos_as_xyz
 1  'x, y, z'
loop_
 _atom_site_type_symbol
 _atom_site_label
 _atom_site_symmetry_multiplicity
 _atom_site_fract_x
 _atom_site_fract_y
 _atom_site_fract_z
 _atom_site_fract_occupancy
 O  O1  1  0.49045  0.99045  0.50000  1
 O  O2  1  0.99045  0.49045  0.50000  1
 O  O3  1  0.83124  0.83124  -0.00000  1
 O  O4  1  0.17534  0.17534  0.00000  1
 Pr  Pr1  1  0.36096  0.36096  -0.00000  1
 Sc  Sc1  1  0.00566  0.00566  0.00000  1
 Sr  Sr1  1  0.64589  0.64589  0.00000  1
