CIF file written using JARVIS-Tools package.
data_LiNi3OF5
_symmetry_space_group_name_H-M  'P1'
_cell_length_a       5.10747
_cell_length_b       5.49986
_cell_length_c       5.14897
_cell_angle_alpha    118.742
_cell_angle_beta     59.8266
_cell_angle_gamma    117.227

_symmetry_Int_Tables_number  1
_chemical_formula_structural  LiNi3OF5
_chemical_formula_sum  LiNi3OF5
_cell_volume  105.09605121064203
_cell_formula_units_Z  1
loop_
  _symmetry_equiv_pos_site_id
 _symmetry_equiv_pos_as_xyz
 1  'x, y, z'
loop_
 _atom_site_type_symbol
 _atom_site_label
 _atom_site_symmetry_multiplicity
 _atom_site_fract_x
 _atom_site_fract_y
 _atom_site_fract_z
 _atom_site_fract_occupancy
 F  F1  1  0.06184  0.24725  0.44570  1
 F  F2  1  0.25541  0.76064  0.92975  1
 F  F3  1  0.76060  0.25714  0.05791  1
 F  F4  1  0.43711  0.25906  0.75381  1
 F  F5  1  0.93492  0.74728  0.55988  1
 Li  Li1  1  0.14698  0.43025  0.16289  1
 Ni  Ni1  1  0.36793  0.02718  0.32969  1
 Ni  Ni2  1  0.65623  0.95113  0.62345  1
 Ni  Ni3  1  0.83366  0.56970  0.87883  1
 O  O1  1  0.54532  0.75038  0.25809  1
