CIF file written using JARVIS-Tools package.
data_Mo3Os
_symmetry_space_group_name_H-M  'Pm-3n'
_cell_length_a       4.99888
_cell_length_b       4.99888
_cell_length_c       4.99888
_cell_angle_alpha    90
_cell_angle_beta     90
_cell_angle_gamma    90

_symmetry_Int_Tables_number  223
_chemical_formula_structural  Mo3Os
_chemical_formula_sum  Mo6Os2
_cell_volume  124.91632565587582
_cell_formula_units_Z  2
loop_
  _symmetry_equiv_pos_site_id
 _symmetry_equiv_pos_as_xyz
 1  'x, y, z'
loop_
 _atom_site_type_symbol
 _atom_site_label
 _atom_site_symmetry_multiplicity
 _atom_site_fract_x
 _atom_site_fract_y
 _atom_site_fract_z
 _atom_site_fract_occupancy
 Mo  Mo1  1  0.25000  0.00000  0.50000  1
 Mo  Mo2  1  0.75000  0.00000  0.50000  1
 Mo  Mo3  1  0.00000  0.50000  0.25000  1
 Mo  Mo4  1  0.00000  0.50000  0.75000  1
 Mo  Mo5  1  0.50000  0.75000  0.00000  1
 Mo  Mo6  1  0.50000  0.25000  0.00000  1
 Os  Os1  1  0.00000  0.00000  0.00000  1
 Os  Os2  1  0.50000  0.50000  0.50000  1
