CIF file written using JARVIS-Tools package.
data_H8C9S
_symmetry_space_group_name_H-M  'P1'
_cell_length_a       6.1065
_cell_length_b       6.40277
_cell_length_c       10.4273
_cell_angle_alpha    100.864
_cell_angle_beta     96.0285
_cell_angle_gamma    114.404

_symmetry_Int_Tables_number  1
_chemical_formula_structural  H8C9S
_chemical_formula_sum  H6C8S2
_cell_volume  356.90799171512384
_cell_formula_units_Z  2
loop_
  _symmetry_equiv_pos_site_id
 _symmetry_equiv_pos_as_xyz
 1  'x, y, z'
loop_
 _atom_site_type_symbol
 _atom_site_label
 _atom_site_symmetry_multiplicity
 _atom_site_fract_x
 _atom_site_fract_y
 _atom_site_fract_z
 _atom_site_fract_occupancy
 C  C1  1  0.97014  0.82324  0.28755  1
 C  C2  1  0.38882  0.11959  0.41341  1
 C  C3  1  0.38882  0.11959  0.91341  1
 C  C4  1  0.59564  0.18932  0.51209  1
 C  C5  1  0.59565  0.18932  0.01209  1
 C  C6  1  0.84543  0.10954  0.68874  1
 C  C7  1  0.19854  0.88707  0.38051  1
 C  C8  1  0.97953  0.94788  0.67716  1
 C  C9  1  0.62323  0.02929  0.57951  1
 C  C10  1  0.62323  0.02928  0.07951  1
 C  C11  1  0.22857  0.72513  0.44723  1
 C  C12  1  0.22857  0.72513  0.94723  1
 C  C13  1  0.43666  0.79425  0.54370  1
 C  C14  1  0.43666  0.79425  0.04370  1
 C  C15  1  0.97953  0.94788  0.17716  1
 C  C16  1  0.19854  0.88707  0.88051  1
 C  C17  1  0.84543  0.10954  0.18874  1
 C  C18  1  0.97014  0.82324  0.78755  1
 H  H1  1  0.73770  0.37261  0.03688  1
 H  H2  1  0.89231  0.80843  0.58238  1
 H  H3  1  0.37267  0.25040  0.36449  1
 H  H4  1  0.37267  0.25040  0.86449  1
 H  H5  1  0.45624  0.66587  0.59414  1
 H  H6  1  0.08373  0.54302  0.42170  1
 H  H7  1  0.08373  0.54302  0.92170  1
 H  H8  1  0.97722  0.29144  0.69094  1
 H  H9  1  0.97722  0.29144  0.19094  1
 H  H10  1  0.89231  0.80843  0.08238  1
 H  H11  1  0.17080  0.05136  0.16954  1
 H  H12  1  0.17080  0.05136  0.66954  1
 H  H13  1  0.78589  0.12008  0.78531  1
 H  H14  1  0.78589  0.12007  0.28531  1
 H  H15  1  0.73770  0.37261  0.53688  1
 H  H16  1  0.45624  0.66587  0.09414  1
 S  S1  1  0.70597  0.62591  0.80639  1
 S  S2  1  0.70597  0.62591  0.30639  1
