CIF file written using JARVIS-Tools package.
data_Y2Mn3Co
_symmetry_space_group_name_H-M  'R-3m'
_cell_length_a       4.92228
_cell_length_b       4.92228
_cell_length_c       5.24466
_cell_angle_alpha    90
_cell_angle_beta     62.0133
_cell_angle_gamma    120

_symmetry_Int_Tables_number  166
_chemical_formula_structural  Y2Mn3Co
_chemical_formula_sum  Y2Mn3Co
_cell_volume  92.4914619047774
_cell_formula_units_Z  1
loop_
  _symmetry_equiv_pos_site_id
 _symmetry_equiv_pos_as_xyz
 1  'x, y, z'
loop_
 _atom_site_type_symbol
 _atom_site_label
 _atom_site_symmetry_multiplicity
 _atom_site_fract_x
 _atom_site_fract_y
 _atom_site_fract_z
 _atom_site_fract_occupancy
 Co  Co1  1  0.75000  0.37500  0.87500  1
 Mn  Mn1  1  0.25000  0.37500  0.37500  1
 Mn  Mn2  1  0.25000  0.87500  0.37500  1
 Mn  Mn3  1  0.75000  0.37500  0.37500  1
 Y  Y1  1  0.50367  0.75183  0.74450  1
 Y  Y2  1  -0.00367  -0.00183  0.00550  1
