CIF file written using JARVIS-Tools package.
data_Ca4CN4
_symmetry_space_group_name_H-M  'Pnma'
_cell_length_a       3.55415
_cell_length_b       11.4338
_cell_length_c       13.8492
_cell_angle_alpha    90
_cell_angle_beta     90
_cell_angle_gamma    90

_symmetry_Int_Tables_number  62
_chemical_formula_structural  Ca4CN4
_chemical_formula_sum  Ca6C4N6
_cell_volume  562.798100598813
_cell_formula_units_Z  4
loop_
  _symmetry_equiv_pos_site_id
 _symmetry_equiv_pos_as_xyz
 1  'x, y, z'
loop_
 _atom_site_type_symbol
 _atom_site_label
 _atom_site_symmetry_multiplicity
 _atom_site_fract_x
 _atom_site_fract_y
 _atom_site_fract_z
 _atom_site_fract_occupancy
 C  C1  1  0.25000  0.86053  0.58716  1
 C  C2  1  0.25000  0.36053  0.91284  1
 C  C3  1  0.75000  0.63947  0.08716  1
 C  C4  1  0.75000  0.13947  0.41284  1
 Ca  Ca1  1  0.75000  0.86026  0.76006  1
 Ca  Ca2  1  0.25000  0.63974  0.26006  1
 Ca  Ca3  1  0.75000  0.36026  0.73994  1
 Ca  Ca4  1  0.25000  0.37645  0.11558  1
 Ca  Ca5  1  0.75000  0.62355  0.88442  1
 Ca  Ca6  1  0.25000  0.87645  0.38442  1
 Ca  Ca7  1  0.25000  0.13974  0.23994  1
 Ca  Ca8  1  0.25000  0.87932  0.96037  1
 Ca  Ca9  1  0.75000  0.12068  0.03963  1
 Ca  Ca10  1  0.25000  0.37932  0.53963  1
 Ca  Ca11  1  0.75000  0.62068  0.46037  1
 Ca  Ca12  1  0.25000  0.11335  0.82790  1
 Ca  Ca13  1  0.75000  0.88665  0.17210  1
 Ca  Ca14  1  0.25000  0.61335  0.67210  1
 Ca  Ca15  1  0.75000  0.38665  0.32790  1
 Ca  Ca16  1  0.75000  0.12355  0.61558  1
 N  N1  1  0.25000  0.45497  0.86840  1
 N  N2  1  0.75000  0.54503  0.13160  1
 N  N3  1  0.25000  0.95497  0.63160  1
 N  N4  1  0.75000  0.04503  0.36840  1
 N  N5  1  0.25000  0.26686  0.95786  1
 N  N6  1  0.75000  0.73314  0.04214  1
 N  N7  1  0.75000  0.23314  0.45786  1
 N  N8  1  0.25000  0.50036  0.38336  1
 N  N9  1  0.25000  0.00036  0.11664  1
 N  N10  1  0.75000  -0.00036  0.88336  1
 N  N11  1  0.75000  0.49964  0.61664  1
 N  N12  1  0.75000  0.76618  0.31543  1
 N  N13  1  0.25000  0.23382  0.68457  1
 N  N14  1  0.25000  0.76686  0.54214  1
 N  N15  1  0.75000  0.26618  0.18457  1
 N  N16  1  0.25000  0.73382  0.81543  1
