CIF file written using JARVIS-Tools package.
data_P3Ru
_symmetry_space_group_name_H-M  'P-1'
_cell_length_a       5.94203
_cell_length_b       6.00008
_cell_length_c       8.18721
_cell_angle_alpha    68.6549
_cell_angle_beta     70.2615
_cell_angle_gamma    72.7847

_symmetry_Int_Tables_number  2
_chemical_formula_structural  P3Ru
_chemical_formula_sum  P2Ru4
_cell_volume  250.86454974193705
_cell_formula_units_Z  4
loop_
  _symmetry_equiv_pos_site_id
 _symmetry_equiv_pos_as_xyz
 1  'x, y, z'
loop_
 _atom_site_type_symbol
 _atom_site_label
 _atom_site_symmetry_multiplicity
 _atom_site_fract_x
 _atom_site_fract_y
 _atom_site_fract_z
 _atom_site_fract_occupancy
 P  P1  1  0.82959  0.08281  0.31939  1
 P  P2  1  0.17041  0.91719  0.68061  1
 P  P3  1  0.19344  0.52895  0.44771  1
 P  P4  1  0.80656  0.47105  0.55229  1
 P  P5  1  0.34026  0.21789  0.65706  1
 P  P6  1  0.65974  0.78211  0.34294  1
 P  P7  1  0.67806  0.66236  0.76586  1
 P  P8  1  0.32194  0.33764  0.23414  1
 P  P9  1  0.68261  0.05274  0.94100  1
 P  P10  1  0.31739  0.94726  0.05900  1
 P  P11  1  0.15260  0.31679  0.91398  1
 P  P12  1  0.84740  0.68321  0.08602  1
 Ru  Ru1  1  0.27691  0.63351  0.95618  1
 Ru  Ru2  1  0.72309  0.36649  0.04382  1
 Ru  Ru3  1  0.22711  0.93090  0.37184  1
 Ru  Ru4  1  0.77289  0.06910  0.62816  1
