CIF file written using JARVIS-Tools package.
data_WOF4
_symmetry_space_group_name_H-M  'I4'
_cell_length_a       4.94184
_cell_length_b       4.94184
_cell_length_c       4.94184
_cell_angle_alpha    99.231
_cell_angle_beta     99.2311
_cell_angle_gamma    132.779

_symmetry_Int_Tables_number  79
_chemical_formula_structural  WOF4
_chemical_formula_sum  WOF4
_cell_volume  81.16792003532277
_cell_formula_units_Z  1
loop_
  _symmetry_equiv_pos_site_id
 _symmetry_equiv_pos_as_xyz
 1  'x, y, z'
loop_
 _atom_site_type_symbol
 _atom_site_label
 _atom_site_symmetry_multiplicity
 _atom_site_fract_x
 _atom_site_fract_y
 _atom_site_fract_z
 _atom_site_fract_occupancy
 F  F1  1  0.35130  -0.00965  0.19124  1
 F  F2  1  -0.00965  0.79911  0.63905  1
 F  F3  1  0.16006  0.35130  0.36095  1
 F  F4  1  0.79911  0.16006  0.80876  1
 O  O1  1  0.55923  0.55923  0.00000  1
 W  W1  1  0.00086  0.00086  0.00000  1
