CIF file written using JARVIS-Tools package.
data_CdH20C12O4
_symmetry_space_group_name_H-M  'P1'
_cell_length_a       3.93524
_cell_length_b       4.33684
_cell_length_c       17.5422
_cell_angle_alpha    91.4726
_cell_angle_beta     100.249
_cell_angle_gamma    103.049

_symmetry_Int_Tables_number  1
_chemical_formula_structural  CdH20C12O4
_chemical_formula_sum  CdH20C2O4
_cell_volume  286.3211065511807
_cell_formula_units_Z  1
loop_
  _symmetry_equiv_pos_site_id
 _symmetry_equiv_pos_as_xyz
 1  'x, y, z'
loop_
 _atom_site_type_symbol
 _atom_site_label
 _atom_site_symmetry_multiplicity
 _atom_site_fract_x
 _atom_site_fract_y
 _atom_site_fract_z
 _atom_site_fract_occupancy
 C  C1  1  0.06621  0.59380  0.60713  1
 C  C2  1  0.36185  0.48270  0.25962  1
 C  C3  1  0.30630  0.64238  0.33236  1
 C  C4  1  0.16523  0.60544  0.46743  1
 C  C5  1  0.08431  0.39959  0.53448  1
 C  C6  1  0.18779  0.41983  0.39379  1
 C  C7  1  0.00337  0.39652  0.67653  1
 C  C8  1  0.99539  0.59754  0.74887  1
 C  C9  1  0.94455  0.40735  0.81993  1
 C  C10  1  0.97280  0.61907  0.89302  1
 C  C11  1  -0.06975  0.43370  0.96513  1
 C  C12  1  0.06914  0.62832  0.04212  1
 Cd  Cd1  1  0.61411  0.11380  0.15691  1
 H  H1  1  0.41956  0.78062  0.48720  1
 H  H2  1  0.55681  0.81383  0.35660  1
 H  H3  1  0.31671  0.77670  0.62401  1
 H  H4  1  0.11152  0.78353  0.31341  1
 H  H5  1  0.24675  0.78075  0.76353  1
 H  H6  1  0.96357  0.74531  0.45353  1
 H  H7  1  0.92859  0.25950  0.36966  1
 H  H8  1  0.08299  0.24869  0.96805  1
 H  H9  1  0.68543  0.23384  0.80753  1
 H  H10  1  0.14703  0.26664  0.83088  1
 H  H11  1  0.75144  0.21490  0.66059  1
 H  H12  1  0.85578  0.72462  0.59312  1
 H  H13  1  0.21331  0.26497  0.69025  1
 H  H14  1  0.28924  0.26331  0.54898  1
 H  H15  1  0.65386  0.30702  0.96394  1
 H  H16  1  0.37502  0.26689  0.40863  1
 H  H17  1  0.77350  0.76302  0.88295  1
 H  H18  1  0.23408  0.78760  0.90438  1
 H  H19  1  0.78394  0.72781  0.73564  1
 H  H20  1  0.83079  0.22226  0.51576  1
 O  O1  1  0.18492  0.19728  0.23667  1
 O  O2  1  -0.05138  0.53795  0.10219  1
 O  O3  1  0.59772  0.62422  0.22332  1
 O  O4  1  0.32026  0.87856  0.04372  1
