CIF file written using JARVIS-Tools package.
data_ZnGeP2
_symmetry_space_group_name_H-M  'I-42d'
_cell_length_a       5.50762
_cell_length_b       5.50762
_cell_length_c       6.68369
_cell_angle_alpha    114.332
_cell_angle_beta     114.332
_cell_angle_gamma    90.0001

_symmetry_Int_Tables_number  122
_chemical_formula_structural  ZnGeP2
_chemical_formula_sum  Zn2Ge2P4
_cell_volume  164.76846550531835
_cell_formula_units_Z  2
loop_
  _symmetry_equiv_pos_site_id
 _symmetry_equiv_pos_as_xyz
 1  'x, y, z'
loop_
 _atom_site_type_symbol
 _atom_site_label
 _atom_site_symmetry_multiplicity
 _atom_site_fract_x
 _atom_site_fract_y
 _atom_site_fract_z
 _atom_site_fract_occupancy
 Ge  Ge1  1  0.75000  0.25000  0.50000  1
 Ge  Ge2  1  0.50000  0.50000  0.00000  1
 P  P1  1  0.62500  0.12802  0.75000  1
 P  P2  1  0.87198  0.87500  0.25000  1
 P  P3  1  0.37802  0.37500  0.25000  1
 P  P4  1  0.12500  0.62198  0.75000  1
 Zn  Zn1  1  0.25000  0.75000  0.50000  1
 Zn  Zn2  1  0.00000  0.00000  0.00000  1
