CIF file written using JARVIS-Tools package.
data_SrLa3
_symmetry_space_group_name_H-M  'I4/mmm'
_cell_length_a       6.60357
_cell_length_b       6.60357
_cell_length_c       6.60356
_cell_angle_alpha    131.971
_cell_angle_beta     131.971
_cell_angle_gamma    70.2744

_symmetry_Int_Tables_number  139
_chemical_formula_structural  SrLa3
_chemical_formula_sum  SrLa3
_cell_volume  156.00731940719652
_cell_formula_units_Z  1
loop_
  _symmetry_equiv_pos_site_id
 _symmetry_equiv_pos_as_xyz
 1  'x, y, z'
loop_
 _atom_site_type_symbol
 _atom_site_label
 _atom_site_symmetry_multiplicity
 _atom_site_fract_x
 _atom_site_fract_y
 _atom_site_fract_z
 _atom_site_fract_occupancy
 La  La1  1  0.75000  0.25000  0.50000  1
 La  La2  1  0.25000  0.75000  0.50000  1
 La  La3  1  0.50000  0.50000  0.00000  1
 Sr  Sr1  1  0.00000  0.00000  0.00000  1
