CIF file written using JARVIS-Tools package.
data_Mg2CdN2
_symmetry_space_group_name_H-M  'P-3m1'
_cell_length_a       3.53423
_cell_length_b       3.53438
_cell_length_c       5.94354
_cell_angle_alpha    89.9987
_cell_angle_beta     90.0045
_cell_angle_gamma    120.003

_symmetry_Int_Tables_number  164
_chemical_formula_structural  Mg2CdN2
_chemical_formula_sum  Mg2CdN2
_cell_volume  64.29409378575689
_cell_formula_units_Z  1
loop_
  _symmetry_equiv_pos_site_id
 _symmetry_equiv_pos_as_xyz
 1  'x, y, z'
loop_
 _atom_site_type_symbol
 _atom_site_label
 _atom_site_symmetry_multiplicity
 _atom_site_fract_x
 _atom_site_fract_y
 _atom_site_fract_z
 _atom_site_fract_occupancy
 Cd  Cd1  1  0.00000  0.00000  0.50000  1
 Mg  Mg1  1  0.66668  0.33334  0.15359  1
 Mg  Mg2  1  0.33334  0.66666  0.84641  1
 N  N1  1  0.66664  0.33332  0.77304  1
 N  N2  1  0.33338  0.66668  0.22696  1
