CIF file written using JARVIS-Tools package.
data_LiTeHO4
_symmetry_space_group_name_H-M  'Pm'
_cell_length_a       4.60501
_cell_length_b       6.06598
_cell_length_c       4.98156
_cell_angle_alpha    90
_cell_angle_beta     88.0671
_cell_angle_gamma    90

_symmetry_Int_Tables_number  6
_chemical_formula_structural  LiTeHO4
_chemical_formula_sum  Li2Te2H2O8
_cell_volume  139.07537758409174
_cell_formula_units_Z  2
loop_
  _symmetry_equiv_pos_site_id
 _symmetry_equiv_pos_as_xyz
 1  'x, y, z'
loop_
 _atom_site_type_symbol
 _atom_site_label
 _atom_site_symmetry_multiplicity
 _atom_site_fract_x
 _atom_site_fract_y
 _atom_site_fract_z
 _atom_site_fract_occupancy
 H  H1  1  0.06913  0.00000  0.51526  1
 H  H2  1  0.06913  0.50000  0.51527  1
 Li  Li1  1  0.53999  0.25000  0.47261  1
 Li  Li2  1  0.53999  0.75000  0.47261  1
 O  O1  1  0.23283  0.00000  0.64941  1
 O  O2  1  0.23284  0.50000  0.64941  1
 O  O3  1  0.24635  0.25000  0.11876  1
 O  O4  1  0.24635  0.75000  0.11876  1
 O  O5  1  0.77751  0.75000  0.83513  1
 O  O6  1  0.77751  0.25000  0.83513  1
 O  O7  1  0.78715  0.00000  0.31793  1
 O  O8  1  0.78715  0.50000  0.31794  1
 Te  Te1  1  0.00124  0.50000  0.99180  1
 Te  Te2  1  0.00124  0.00000  0.99180  1
