CIF file written using JARVIS-Tools package.
data_Li5Cu2Ge2
_symmetry_space_group_name_H-M  'P-3m1'
_cell_length_a       4.21516
_cell_length_b       4.21516
_cell_length_c       8.0037
_cell_angle_alpha    90
_cell_angle_beta     90
_cell_angle_gamma    120

_symmetry_Int_Tables_number  164
_chemical_formula_structural  Li5Cu2Ge2
_chemical_formula_sum  Li5Cu2Ge2
_cell_volume  123.15438184954765
_cell_formula_units_Z  1
loop_
  _symmetry_equiv_pos_site_id
 _symmetry_equiv_pos_as_xyz
 1  'x, y, z'
loop_
 _atom_site_type_symbol
 _atom_site_label
 _atom_site_symmetry_multiplicity
 _atom_site_fract_x
 _atom_site_fract_y
 _atom_site_fract_z
 _atom_site_fract_occupancy
 Cu  Cu1  1  0.00000  0.00000  0.30907  1
 Cu  Cu2  1  0.00000  0.00000  0.69093  1
 Ge  Ge1  1  0.33333  0.66667  0.76105  1
 Ge  Ge2  1  0.66667  0.33333  0.23895  1
 Li  Li1  1  0.33333  0.66667  0.11364  1
 Li  Li2  1  0.66667  0.33333  0.88636  1
 Li  Li3  1  0.33333  0.66667  0.43268  1
 Li  Li4  1  0.66667  0.33333  0.56732  1
 Li  Li5  1  0.00000  0.00000  0.00000  1
