CIF file written using JARVIS-Tools package.
data_Mn3V2Ga2Co
_symmetry_space_group_name_H-M  'R3m'
_cell_length_a       4.07143
_cell_length_b       4.07143
_cell_length_c       7.06065
_cell_angle_alpha    73.2428
_cell_angle_beta     90
_cell_angle_gamma    120

_symmetry_Int_Tables_number  160
_chemical_formula_structural  Mn3V2Ga2Co
_chemical_formula_sum  Mn3V2Ga2Co
_cell_volume  95.57839431865204
_cell_formula_units_Z  1
loop_
  _symmetry_equiv_pos_site_id
 _symmetry_equiv_pos_as_xyz
 1  'x, y, z'
loop_
 _atom_site_type_symbol
 _atom_site_label
 _atom_site_symmetry_multiplicity
 _atom_site_fract_x
 _atom_site_fract_y
 _atom_site_fract_z
 _atom_site_fract_occupancy
 Co  Co1  1  0.99982  0.99963  0.00055  1
 Ga  Ga1  1  0.62592  0.25183  0.12225  1
 Ga  Ga2  1  0.12398  0.24795  0.62807  1
 Mn  Mn1  1  0.50040  0.00079  0.49881  1
 Mn  Mn2  1  0.24922  0.49844  0.25234  1
 Mn  Mn3  1  0.75015  0.50030  0.74955  1
 V  V1  1  0.87368  0.74736  0.37896  1
 V  V2  1  0.37684  0.75369  0.86947  1
