CIF file written using JARVIS-Tools package.
data_NaSrN
_symmetry_space_group_name_H-M  'P6_3mc'
_cell_length_a       4.01202
_cell_length_b       4.01202
_cell_length_c       8.72803
_cell_angle_alpha    90
_cell_angle_beta     90
_cell_angle_gamma    120

_symmetry_Int_Tables_number  186
_chemical_formula_structural  NaSrN
_chemical_formula_sum  Na2Sr2N2
_cell_volume  121.66704041772424
_cell_formula_units_Z  2
loop_
  _symmetry_equiv_pos_site_id
 _symmetry_equiv_pos_as_xyz
 1  'x, y, z'
loop_
 _atom_site_type_symbol
 _atom_site_label
 _atom_site_symmetry_multiplicity
 _atom_site_fract_x
 _atom_site_fract_y
 _atom_site_fract_z
 _atom_site_fract_occupancy
 N  N1  1  0.33333  0.66667  0.61600  1
 N  N2  1  0.66667  0.33333  0.11600  1
 Na  Na1  1  0.66667  0.33333  0.72961  1
 Na  Na2  1  0.33333  0.66667  0.22961  1
 Sr  Sr1  1  0.00000  0.00000  0.49903  1
 Sr  Sr2  1  1.00000  1.00000  -0.00097  1
