CIF file written using JARVIS-Tools package.
data_BaH4O3
_symmetry_space_group_name_H-M  'P-1'
_cell_length_a       4.16564
_cell_length_b       6.25214
_cell_length_c       7.00735
_cell_angle_alpha    68.6982
_cell_angle_beta     86.1324
_cell_angle_gamma    89.6245

_symmetry_Int_Tables_number  2
_chemical_formula_structural  BaH4O3
_chemical_formula_sum  Ba2H8O6
_cell_volume  169.6129484613486
_cell_formula_units_Z  2
loop_
  _symmetry_equiv_pos_site_id
 _symmetry_equiv_pos_as_xyz
 1  'x, y, z'
loop_
 _atom_site_type_symbol
 _atom_site_label
 _atom_site_symmetry_multiplicity
 _atom_site_fract_x
 _atom_site_fract_y
 _atom_site_fract_z
 _atom_site_fract_occupancy
 Ba  Ba1  1  0.73234  0.13721  0.70972  1
 Ba  Ba2  1  0.27402  0.85282  0.28651  1
 H  H1  1  0.24827  0.37891  0.90218  1
 H  H2  1  0.75810  0.61109  0.09408  1
 H  H3  1  0.15048  0.76792  0.85900  1
 H  H4  1  0.85586  0.22210  0.13723  1
 H  H5  1  0.46718  0.31686  0.31835  1
 H  H6  1  0.07801  0.32111  0.32667  1
 H  H7  1  0.92831  0.66892  0.66956  1
 H  H8  1  0.53915  0.67315  0.67789  1
 O  O1  1  0.27023  0.37760  0.37857  1
 O  O2  1  0.73609  0.61242  0.61767  1
 O  O3  1  0.20283  0.21686  0.92924  1
 O  O4  1  0.80351  0.77316  0.06699  1
 O  O5  1  0.23413  0.80684  0.71449  1
 O  O6  1  0.77219  0.18320  0.28173  1
