CIF file written using JARVIS-Tools package.
data_Ti3Se2S4
_symmetry_space_group_name_H-M  'P3m1'
_cell_length_a       3.45271
_cell_length_b       3.45272
_cell_length_c       17.6521
_cell_angle_alpha    90
_cell_angle_beta     90
_cell_angle_gamma    120

_symmetry_Int_Tables_number  156
_chemical_formula_structural  Ti3Se2S4
_chemical_formula_sum  Ti3Se2S4
_cell_volume  182.24210123276637
_cell_formula_units_Z  1
loop_
  _symmetry_equiv_pos_site_id
 _symmetry_equiv_pos_as_xyz
 1  'x, y, z'
loop_
 _atom_site_type_symbol
 _atom_site_label
 _atom_site_symmetry_multiplicity
 _atom_site_fract_x
 _atom_site_fract_y
 _atom_site_fract_z
 _atom_site_fract_occupancy
 S  S1  1  0.00000  0.00000  0.08636  1
 S  S2  1  0.00000  0.00000  0.40974  1
 S  S3  1  0.00000  0.00000  0.74774  1
 S  S4  1  0.33333  0.66667  0.25023  1
 Se  Se1  1  0.33333  0.66667  0.57832  1
 Se  Se2  1  0.33333  0.66667  0.91709  1
 Ti  Ti1  1  0.66667  0.33333  0.00971  1
 Ti  Ti2  1  0.66667  0.33333  0.33003  1
 Ti  Ti3  1  0.66667  0.33333  0.67077  1
