CIF file written using JARVIS-Tools package.
data_H6C3O
_symmetry_space_group_name_H-M  'P1'
_cell_length_a       4.51263
_cell_length_b       4.52379
_cell_length_c       8.38959
_cell_angle_alpha    94.3323
_cell_angle_beta     103.448
_cell_angle_gamma    115.286

_symmetry_Int_Tables_number  1
_chemical_formula_structural  H6C3O
_chemical_formula_sum  H2C6O2
_cell_volume  147.60362110258532
_cell_formula_units_Z  2
loop_
  _symmetry_equiv_pos_site_id
 _symmetry_equiv_pos_as_xyz
 1  'x, y, z'
loop_
 _atom_site_type_symbol
 _atom_site_label
 _atom_site_symmetry_multiplicity
 _atom_site_fract_x
 _atom_site_fract_y
 _atom_site_fract_z
 _atom_site_fract_occupancy
 C  C1  1  0.54447  0.34489  0.70656  1
 C  C2  1  0.90039  0.60641  0.80995  1
 C  C3  1  0.38661  0.09237  0.80987  1
 C  C4  1  0.04447  0.34543  0.20658  1
 C  C5  1  0.40038  0.60696  0.30998  1
 C  C6  1  0.88659  0.09295  0.30991  1
 H  H1  1  0.06237  0.21722  0.09527  1
 H  H2  1  0.88116  0.46518  0.16421  1
 H  H3  1  0.87288  0.21770  0.42467  1
 H  H4  1  0.38936  0.73469  0.42465  1
 H  H5  1  0.04582  0.96755  0.35088  1
 H  H6  1  0.56799  0.49002  0.35114  1
 H  H7  1  0.54586  0.96698  0.85082  1
 H  H8  1  0.56236  0.21672  0.59524  1
 H  H9  1  0.37288  0.21705  0.92464  1
 H  H10  1  0.88941  0.73420  0.92461  1
 H  H11  1  0.06797  0.48944  0.85111  1
 H  H12  1  0.38115  0.46463  0.66420  1
 O  O1  1  0.54814  0.84799  0.21287  1
 O  O2  1  0.04817  0.84740  0.71283  1
