CIF file written using JARVIS-Tools package.
data_H6C12S3O
_symmetry_space_group_name_H-M  'P1'
_cell_length_a       4.36943
_cell_length_b       5.89708
_cell_length_c       10.5444
_cell_angle_alpha    101.781
_cell_angle_beta     93.5721
_cell_angle_gamma    108.622

_symmetry_Int_Tables_number  1
_chemical_formula_structural  H6C12S3O
_chemical_formula_sum  H6C2S3O
_cell_volume  249.65572057750094
_cell_formula_units_Z  1
loop_
  _symmetry_equiv_pos_site_id
 _symmetry_equiv_pos_as_xyz
 1  'x, y, z'
loop_
 _atom_site_type_symbol
 _atom_site_label
 _atom_site_symmetry_multiplicity
 _atom_site_fract_x
 _atom_site_fract_y
 _atom_site_fract_z
 _atom_site_fract_occupancy
 C  C1  1  0.53757  0.17662  0.66440  1
 C  C2  1  0.46231  0.75795  0.52148  1
 C  C3  1  0.25207  0.78682  0.06667  1
 C  C4  1  0.66494  0.42956  0.70782  1
 C  C5  1  0.14307  0.91318  0.17475  1
 C  C6  1  0.54596  0.52758  0.82163  1
 C  C7  1  0.78069  0.81560  0.35287  1
 C  C8  1  0.59066  0.01265  0.55399  1
 C  C9  1  0.93558  0.76146  0.24003  1
 C  C10  1  0.32546  0.34354  0.86387  1
 C  C11  1  0.56968  0.64788  0.40988  1
 C  C12  1  0.12201  0.53607  0.05069  1
 H  H1  1  0.62397  0.72246  0.86761  1
 H  H2  1  0.29918  0.65269  0.57873  1
 H  H3  1  0.83787  0.54524  0.65792  1
 H  H4  1  0.41527  0.88043  0.00589  1
 H  H5  1  0.49756  0.44951  0.37268  1
 H  H6  1  0.21613  0.11290  0.20305  1
 O  O1  1  0.14200  0.33665  0.96395  1
 S  S1  1  0.84396  0.11605  0.44061  1
 S  S2  1  0.86951  0.45236  0.16643  1
 S  S3  1  0.26677  0.05225  0.76792  1
