CIF file written using JARVIS-Tools package.
data_CrCuP2Se6
_symmetry_space_group_name_H-M  'C2'
_cell_length_a       6.26649
_cell_length_b       6.26649
_cell_length_c       6.936
_cell_angle_alpha    81.6062
_cell_angle_beta     81.6062
_cell_angle_gamma    120.021

_symmetry_Int_Tables_number  5
_chemical_formula_structural  CrCuP2Se6
_chemical_formula_sum  CrCuP2Se6
_cell_volume  225.54831148577276
_cell_formula_units_Z  1
loop_
  _symmetry_equiv_pos_site_id
 _symmetry_equiv_pos_as_xyz
 1  'x, y, z'
loop_
 _atom_site_type_symbol
 _atom_site_label
 _atom_site_symmetry_multiplicity
 _atom_site_fract_x
 _atom_site_fract_y
 _atom_site_fract_z
 _atom_site_fract_occupancy
 Cr  Cr1  1  0.33154  0.66846  -0.00000  1
 Cu  Cu1  1  0.67553  0.32447  -0.00000  1
 P  P1  1  0.05268  0.05425  0.83247  1
 P  P2  1  0.94575  0.94732  0.16753  1
 Se  Se1  1  0.09661  0.43775  0.75255  1
 Se  Se2  1  0.41813  0.06380  0.75068  1
 Se  Se3  1  0.93620  0.58187  0.24932  1
 Se  Se4  1  0.56225  0.90339  0.24745  1
 Se  Se5  1  0.72105  0.73973  0.75428  1
 Se  Se6  1  0.26027  0.27895  0.24572  1
