CIF file written using JARVIS-Tools package.
data_Ba2CuN2
_symmetry_space_group_name_H-M  'I4/mmm'
_cell_length_a       4.07796
_cell_length_b       4.07796
_cell_length_c       7.1273
_cell_angle_alpha    106.624
_cell_angle_beta     106.624
_cell_angle_gamma    89.9999

_symmetry_Int_Tables_number  139
_chemical_formula_structural  Ba2CuN2
_chemical_formula_sum  Ba2CuN2
_cell_volume  108.39170099087414
_cell_formula_units_Z  1
loop_
  _symmetry_equiv_pos_site_id
 _symmetry_equiv_pos_as_xyz
 1  'x, y, z'
loop_
 _atom_site_type_symbol
 _atom_site_label
 _atom_site_symmetry_multiplicity
 _atom_site_fract_x
 _atom_site_fract_y
 _atom_site_fract_z
 _atom_site_fract_occupancy
 Ba  Ba1  1  0.85039  0.85039  0.20078  1
 Ba  Ba2  1  0.14961  0.14961  0.79922  1
 Cu  Cu1  1  0.50000  0.50000  0.50000  1
 N  N1  1  0.36111  0.36111  0.22221  1
 N  N2  1  0.63889  0.63889  0.77779  1
