CIF file written using JARVIS-Tools package.
data_LiAuS
_symmetry_space_group_name_H-M  'Fddd'
_cell_length_a       6.38549
_cell_length_b       6.38548
_cell_length_c       7.21685
_cell_angle_alpha    116.691
_cell_angle_beta     116.691
_cell_angle_gamma    89.1222

_symmetry_Int_Tables_number  70
_chemical_formula_structural  LiAuS
_chemical_formula_sum  Li4Au4S4
_cell_volume  228.39465882165402
_cell_formula_units_Z  4
loop_
  _symmetry_equiv_pos_site_id
 _symmetry_equiv_pos_as_xyz
 1  'x, y, z'
loop_
 _atom_site_type_symbol
 _atom_site_label
 _atom_site_symmetry_multiplicity
 _atom_site_fract_x
 _atom_site_fract_y
 _atom_site_fract_z
 _atom_site_fract_occupancy
 Au  Au1  1  0.50000  -0.00000  0.00000  1
 Au  Au2  1  0.00000  0.50000  0.50000  1
 Au  Au3  1  0.00000  0.00000  0.00000  1
 Au  Au4  1  0.00000  -0.00000  0.50000  1
 Li  Li1  1  0.77610  0.52610  0.05221  1
 Li  Li2  1  0.47390  0.22390  0.44779  1
 Li  Li3  1  0.22390  0.47390  0.94779  1
 Li  Li4  1  0.52610  0.77610  0.55221  1
 S  S1  1  0.58456  0.41544  0.25000  1
 S  S2  1  0.83456  0.16544  0.75000  1
 S  S3  1  0.16544  0.83456  0.25000  1
 S  S4  1  0.41544  0.58456  0.75000  1
