CIF file written using JARVIS-Tools package.
data_CaCu2P2
_symmetry_space_group_name_H-M  'I4/mmm'
_cell_length_a       4.02008
_cell_length_b       4.02008
_cell_length_c       5.71714
_cell_angle_alpha    110.584
_cell_angle_beta     110.584
_cell_angle_gamma    89.9999

_symmetry_Int_Tables_number  139
_chemical_formula_structural  CaCu2P2
_chemical_formula_sum  CaCu2P2
_cell_volume  80.1646020488442
_cell_formula_units_Z  1
loop_
  _symmetry_equiv_pos_site_id
 _symmetry_equiv_pos_as_xyz
 1  'x, y, z'
loop_
 _atom_site_type_symbol
 _atom_site_label
 _atom_site_symmetry_multiplicity
 _atom_site_fract_x
 _atom_site_fract_y
 _atom_site_fract_z
 _atom_site_fract_occupancy
 Ca  Ca1  1  0.00000  0.00000  0.00000  1
 Cu  Cu1  1  0.25000  0.75000  0.50000  1
 Cu  Cu2  1  0.75000  0.25000  0.50000  1
 P  P1  1  0.61804  0.61804  0.23607  1
 P  P2  1  0.38196  0.38196  0.76393  1
