CIF file written using JARVIS-Tools package.
data_K2Fe2SeS3
_symmetry_space_group_name_H-M  'P1'
_cell_length_a       5.20473
_cell_length_b       6.57638
_cell_length_c       6.5628
_cell_angle_alpha    116.41
_cell_angle_beta     100.385
_cell_angle_gamma    103.077

_symmetry_Int_Tables_number  1
_chemical_formula_structural  K2Fe2SeS3
_chemical_formula_sum  K2Fe2SeS3
_cell_volume  185.53636945999074
_cell_formula_units_Z  1
loop_
  _symmetry_equiv_pos_site_id
 _symmetry_equiv_pos_as_xyz
 1  'x, y, z'
loop_
 _atom_site_type_symbol
 _atom_site_label
 _atom_site_symmetry_multiplicity
 _atom_site_fract_x
 _atom_site_fract_y
 _atom_site_fract_z
 _atom_site_fract_occupancy
 Fe  Fe1  1  0.25063  0.00179  0.00850  1
 Fe  Fe2  1  0.75598  0.00130  0.00724  1
 K  K1  1  0.23723  0.36519  0.64543  1
 K  K2  1  0.75185  0.62983  0.34567  1
 S  S1  1  0.10887  0.30272  0.09452  1
 S  S2  1  0.59172  0.07734  0.29820  1
 S  S3  1  0.89579  0.69865  0.91544  1
 Se  Se1  1  0.40793  0.92318  0.68500  1
