CIF file written using JARVIS-Tools package.
data_Al4GaSb5
_symmetry_space_group_name_H-M  'Imm2'
_cell_length_a       11.6343
_cell_length_b       11.6343
_cell_length_c       11.6343
_cell_angle_alpha    158.212
_cell_angle_beta     149.003
_cell_angle_gamma    38.209

_symmetry_Int_Tables_number  44
_chemical_formula_structural  Al4GaSb5
_chemical_formula_sum  Al4GaSb5
_cell_volume  300.5907114304417
_cell_formula_units_Z  1
loop_
  _symmetry_equiv_pos_site_id
 _symmetry_equiv_pos_as_xyz
 1  'x, y, z'
loop_
 _atom_site_type_symbol
 _atom_site_label
 _atom_site_symmetry_multiplicity
 _atom_site_fract_x
 _atom_site_fract_y
 _atom_site_fract_z
 _atom_site_fract_occupancy
 Al  Al1  1  0.40025  0.40018  0.00008  1
 Al  Al2  1  0.79988  0.80019  0.99969  1
 Al  Al3  1  0.19949  0.19981  0.99969  1
 Al  Al4  1  0.59990  0.59982  0.00008  1
 Ga  Ga1  1  0.00034  -0.00000  0.00034  1
 Sb  Sb1  1  0.75085  0.50000  0.25085  1
 Sb  Sb2  1  0.15025  0.90021  0.25005  1
 Sb  Sb3  1  0.54954  0.29995  0.24960  1
 Sb  Sb4  1  0.94965  0.70005  0.24960  1
 Sb  Sb5  1  0.34984  0.09979  0.25005  1
