CIF file written using JARVIS-Tools package.
data_TlIn
_symmetry_space_group_name_H-M  'R-3m'
_cell_length_a       6.00915
_cell_length_b       6.00914
_cell_length_c       6.00914
_cell_angle_alpha    33.283
_cell_angle_beta     33.2831
_cell_angle_gamma    33.2831

_symmetry_Int_Tables_number  166
_chemical_formula_structural  TlIn
_chemical_formula_sum  TlIn
_cell_volume  58.180333480724286
_cell_formula_units_Z  1
loop_
  _symmetry_equiv_pos_site_id
 _symmetry_equiv_pos_as_xyz
 1  'x, y, z'
loop_
 _atom_site_type_symbol
 _atom_site_label
 _atom_site_symmetry_multiplicity
 _atom_site_fract_x
 _atom_site_fract_y
 _atom_site_fract_z
 _atom_site_fract_occupancy
 In  In1  1  0.00000  0.00000  0.00000  1
 Tl  Tl1  1  0.50000  0.50000  0.50000  1
