CIF file written using JARVIS-Tools package.
data_Li2CoNiO4
_symmetry_space_group_name_H-M  'C2/m'
_cell_length_a       4.92758
_cell_length_b       4.92758
_cell_length_c       5.00522
_cell_angle_alpha    80.7982
_cell_angle_beta     80.7982
_cell_angle_gamma    33.5405

_symmetry_Int_Tables_number  12
_chemical_formula_structural  Li2CoNiO4
_chemical_formula_sum  Li2CoNiO4
_cell_volume  66.20659842048418
_cell_formula_units_Z  1
loop_
  _symmetry_equiv_pos_site_id
 _symmetry_equiv_pos_as_xyz
 1  'x, y, z'
loop_
 _atom_site_type_symbol
 _atom_site_label
 _atom_site_symmetry_multiplicity
 _atom_site_fract_x
 _atom_site_fract_y
 _atom_site_fract_z
 _atom_site_fract_occupancy
 Co  Co1  1  0.50000  0.50000  0.50000  1
 Li  Li1  1  0.74886  0.74886  0.74557  1
 Li  Li2  1  0.25114  0.25114  0.25443  1
 Ni  Ni1  1  0.00000  0.00000  0.00000  1
 O  O1  1  0.60960  0.60960  0.13913  1
 O  O2  1  0.11258  0.11258  0.61675  1
 O  O3  1  0.88742  0.88742  0.38325  1
 O  O4  1  0.39040  0.39040  0.86087  1
