CIF file written using JARVIS-Tools package.
data_Na3VO4
_symmetry_space_group_name_H-M  'Pmn2_1'
_cell_length_a       5.55768
_cell_length_b       6.11435
_cell_length_c       7.07239
_cell_angle_alpha    90
_cell_angle_beta     90
_cell_angle_gamma    90

_symmetry_Int_Tables_number  31
_chemical_formula_structural  Na3VO4
_chemical_formula_sum  Na6V2O8
_cell_volume  240.33110628872666
_cell_formula_units_Z  2
loop_
  _symmetry_equiv_pos_site_id
 _symmetry_equiv_pos_as_xyz
 1  'x, y, z'
loop_
 _atom_site_type_symbol
 _atom_site_label
 _atom_site_symmetry_multiplicity
 _atom_site_fract_x
 _atom_site_fract_y
 _atom_site_fract_z
 _atom_site_fract_occupancy
 Na  Na1  1  0.51199  0.84466  0.00000  1
 Na  Na2  1  0.00979  0.67421  0.24463  1
 Na  Na3  1  0.50979  0.32579  0.25537  1
 Na  Na4  1  0.01199  0.15534  0.50000  1
 Na  Na5  1  0.50979  0.32579  0.74463  1
 Na  Na6  1  0.00979  0.67421  0.75537  1
 O  O1  1  0.09742  0.90614  0.00000  1
 O  O2  1  0.68870  0.18004  0.00000  1
 O  O3  1  0.09897  0.31046  0.20331  1
 O  O4  1  0.59897  0.68954  0.29669  1
 O  O5  1  0.18870  0.81996  0.50000  1
 O  O6  1  0.59742  0.09386  0.50000  1
 O  O7  1  0.59897  0.68954  0.70331  1
 O  O8  1  0.09897  0.31046  0.79669  1
 V  V1  1  0.99964  0.17651  0.00000  1
 V  V2  1  0.49964  0.82349  0.50000  1
