CIF file written using JARVIS-Tools package.
data_ZnH12C8O4
_symmetry_space_group_name_H-M  'P1'
_cell_length_a       3.85555
_cell_length_b       4.71457
_cell_length_c       12.1415
_cell_angle_alpha    87.6859
_cell_angle_beta     88.1028
_cell_angle_gamma    66.904

_symmetry_Int_Tables_number  1
_chemical_formula_structural  ZnH12C8O4
_chemical_formula_sum  ZnH2C8O4
_cell_volume  202.80947675925228
_cell_formula_units_Z  1
loop_
  _symmetry_equiv_pos_site_id
 _symmetry_equiv_pos_as_xyz
 1  'x, y, z'
loop_
 _atom_site_type_symbol
 _atom_site_label
 _atom_site_symmetry_multiplicity
 _atom_site_fract_x
 _atom_site_fract_y
 _atom_site_fract_z
 _atom_site_fract_occupancy
 C  C1  1  0.35166  0.37054  0.63440  1
 C  C2  1  0.20754  0.31078  0.43800  1
 C  C3  1  0.20878  0.53727  0.52402  1
 C  C4  1  0.36170  0.57977  0.72612  1
 C  C5  1  0.47245  0.40462  0.83670  1
 C  C6  1  0.46960  0.61070  0.93087  1
 C  C7  1  0.50164  0.46006  0.04496  1
 C  C8  1  0.03594  0.44284  0.32757  1
 H  H1  1  0.04827  0.17332  0.47000  1
 H  H2  1  0.17181  0.24650  0.66207  1
 H  H3  1  0.75356  0.21577  0.82882  1
 H  H4  1  0.92140  0.71473  0.53544  1
 H  H5  1  0.63712  0.18912  0.62234  1
 H  H6  1  0.08046  0.76920  0.73516  1
 H  H7  1  0.55760  0.69232  0.70279  1
 H  H8  1  0.20748  0.82122  0.93257  1
 H  H9  1  0.69748  0.69674  0.92067  1
 H  H10  1  0.38581  0.66078  0.49397  1
 H  H11  1  0.27731  0.29013  0.85779  1
 H  H12  1  0.49422  0.13807  0.42199  1
 O  O1  1  0.08092  0.26008  0.24929  1
 O  O2  1  0.61693  0.16577  0.05161  1
 O  O3  1  0.83817  0.73271  0.31956  1
 O  O4  1  0.40219  0.62918  0.12840  1
 Zn  Zn1  1  0.56034  0.94702  0.18800  1
