CIF file written using JARVIS-Tools package.
data_Pr2Mn3CoGe4
_symmetry_space_group_name_H-M  'P-4m2'
_cell_length_a       4.03459
_cell_length_b       4.03459
_cell_length_c       10.7924
_cell_angle_alpha    90
_cell_angle_beta     90
_cell_angle_gamma    90

_symmetry_Int_Tables_number  115
_chemical_formula_structural  Pr2Mn3CoGe4
_chemical_formula_sum  Pr2Mn3CoGe4
_cell_volume  175.67871344617635
_cell_formula_units_Z  1
loop_
  _symmetry_equiv_pos_site_id
 _symmetry_equiv_pos_as_xyz
 1  'x, y, z'
loop_
 _atom_site_type_symbol
 _atom_site_label
 _atom_site_symmetry_multiplicity
 _atom_site_fract_x
 _atom_site_fract_y
 _atom_site_fract_z
 _atom_site_fract_occupancy
 Co  Co1  1  0.00000  0.50000  0.25000  1
 Ge  Ge1  1  0.50000  0.50000  0.13019  1
 Ge  Ge2  1  0.00000  0.00000  0.62425  1
 Ge  Ge3  1  0.00000  0.00000  0.36981  1
 Ge  Ge4  1  0.50000  0.50000  0.87575  1
 Mn  Mn1  1  0.50000  0.00000  0.75000  1
 Mn  Mn2  1  0.50000  0.00000  0.25000  1
 Mn  Mn3  1  0.00000  0.50000  0.75000  1
 Pr  Pr1  1  0.00000  0.00000  0.00408  1
 Pr  Pr2  1  0.50000  0.50000  0.49592  1
