CIF file written using JARVIS-Tools package.
data_CaThBr6
_symmetry_space_group_name_H-M  'Pmma'
_cell_length_a       4.22068
_cell_length_b       9.11181
_cell_length_c       12.1624
_cell_angle_alpha    90
_cell_angle_beta     90
_cell_angle_gamma    90

_symmetry_Int_Tables_number  51
_chemical_formula_structural  CaThBr6
_chemical_formula_sum  Ca2Th2Br2
_cell_volume  467.7427773633076
_cell_formula_units_Z  2
loop_
  _symmetry_equiv_pos_site_id
 _symmetry_equiv_pos_as_xyz
 1  'x, y, z'
loop_
 _atom_site_type_symbol
 _atom_site_label
 _atom_site_symmetry_multiplicity
 _atom_site_fract_x
 _atom_site_fract_y
 _atom_site_fract_z
 _atom_site_fract_occupancy
 Br  Br1  1  0.00000  0.75000  0.56678  1
 Br  Br2  1  0.50000  0.56672  0.36332  1
 Br  Br3  1  0.50000  0.75000  0.08620  1
 Br  Br4  1  0.50000  0.25000  0.91380  1
 Br  Br5  1  0.00000  0.55646  0.84805  1
 Br  Br6  1  0.00000  0.25000  0.43322  1
 Br  Br7  1  0.00000  0.44354  0.15195  1
 Br  Br8  1  0.50000  0.06672  0.63668  1
 Br  Br9  1  0.00000  0.05646  0.15195  1
 Br  Br10  1  0.00000  0.94354  0.84805  1
 Br  Br11  1  0.50000  0.93328  0.36332  1
 Br  Br12  1  0.50000  0.43328  0.63668  1
 Ca  Ca1  1  0.50000  0.75000  0.73299  1
 Ca  Ca2  1  0.50000  0.25000  0.26701  1
 Th  Th1  1  0.00000  0.75000  0.25608  1
 Th  Th2  1  0.00000  0.25000  0.74392  1
