CIF file written using JARVIS-Tools package.
data_GaCo4
_symmetry_space_group_name_H-M  'R-3m'
_cell_length_a       10.1062
_cell_length_b       10.1062
_cell_length_c       10.1062
_cell_angle_alpha    14.6393
_cell_angle_beta     14.6393
_cell_angle_gamma    14.6393

_symmetry_Int_Tables_number  166
_chemical_formula_structural  GaCo4
_chemical_formula_sum  GaCo4
_cell_volume  57.40834802266208
_cell_formula_units_Z  1
loop_
  _symmetry_equiv_pos_site_id
 _symmetry_equiv_pos_as_xyz
 1  'x, y, z'
loop_
 _atom_site_type_symbol
 _atom_site_label
 _atom_site_symmetry_multiplicity
 _atom_site_fract_x
 _atom_site_fract_y
 _atom_site_fract_z
 _atom_site_fract_occupancy
 Co  Co1  1  0.59775  0.59775  0.59775  1
 Co  Co2  1  0.19997  0.19997  0.19997  1
 Co  Co3  1  0.80003  0.80003  0.80003  1
 Co  Co4  1  0.40225  0.40225  0.40225  1
 Ga  Ga1  1  0.00000  0.00000  0.00000  1
