CIF file written using JARVIS-Tools package.
data_SnH16C9O4
_symmetry_space_group_name_H-M  'P1'
_cell_length_a       4.81418
_cell_length_b       6.76173
_cell_length_c       8.91688
_cell_angle_alpha    104.049
_cell_angle_beta     94.724
_cell_angle_gamma    97.2692

_symmetry_Int_Tables_number  1
_chemical_formula_structural  SnH16C9O4
_chemical_formula_sum  SnH6C9O4
_cell_volume  277.3831693169454
_cell_formula_units_Z  1
loop_
  _symmetry_equiv_pos_site_id
 _symmetry_equiv_pos_as_xyz
 1  'x, y, z'
loop_
 _atom_site_type_symbol
 _atom_site_label
 _atom_site_symmetry_multiplicity
 _atom_site_fract_x
 _atom_site_fract_y
 _atom_site_fract_z
 _atom_site_fract_occupancy
 C  C1  1  0.67265  0.83717  0.10642  1
 C  C2  1  0.20349  0.65228  0.74485  1
 C  C3  1  0.49347  0.49190  0.38698  1
 C  C4  1  0.54980  0.22407  0.86188  1
 C  C5  1  0.50745  0.74598  0.21924  1
 C  C6  1  0.65132  0.58384  0.27509  1
 C  C7  1  0.71576  0.11351  0.95753  1
 C  C8  1  0.54831  0.01854  0.06794  1
 C  C9  1  0.08505  0.05478  0.51221  1
 H  H1  1  0.29162  0.67782  0.16381  1
 H  H2  1  0.54179  0.13594  0.17735  1
 H  H3  1  0.80135  0.99411  0.87346  1
 H  H4  1  0.32714  -0.03188  0.01626  1
 H  H5  1  0.86814  0.64460  0.32955  1
 H  H6  1  0.48493  0.87184  0.32076  1
 H  H7  1  0.38541  0.76898  0.74718  1
 H  H8  1  0.16103  0.64712  0.86280  1
 H  H9  1  0.89576  0.88820  0.15640  1
 H  H10  1  0.89142  0.03016  0.56627  1
 H  H11  1  0.03660  0.04952  0.38895  1
 H  H12  1  0.22316  0.94191  0.52687  1
 H  H13  1  0.01693  0.67845  0.67751  1
 H  H14  1  0.67626  0.71579  0.99811  1
 H  H15  1  0.67049  0.45577  0.17459  1
 H  H16  1  0.90692  0.21937  0.01885  1
 O  O1  1  0.66639  0.28348  0.75004  1
 O  O2  1  0.22862  0.46906  0.38001  1
 O  O3  1  0.30040  0.25219  0.88084  1
 O  O4  1  0.63673  0.43679  0.49654  1
 Sn  Sn1  1  0.29438  0.35741  0.62766  1
