CIF file written using JARVIS-Tools package.
data_Tb3NbO7
_symmetry_space_group_name_H-M  'Cmcm'
_cell_length_a       6.46957
_cell_length_b       6.46957
_cell_length_c       7.53956
_cell_angle_alpha    90
_cell_angle_beta     90
_cell_angle_gamma    110.827

_symmetry_Int_Tables_number  63
_chemical_formula_structural  Tb3NbO7
_chemical_formula_sum  Tb6Nb2O4
_cell_volume  294.9501538641083
_cell_formula_units_Z  2
loop_
  _symmetry_equiv_pos_site_id
 _symmetry_equiv_pos_as_xyz
 1  'x, y, z'
loop_
 _atom_site_type_symbol
 _atom_site_label
 _atom_site_symmetry_multiplicity
 _atom_site_fract_x
 _atom_site_fract_y
 _atom_site_fract_z
 _atom_site_fract_occupancy
 Nb  Nb1  1  0.50000  0.50000  0.00000  1
 Nb  Nb2  1  0.50000  0.50000  0.50000  1
 O  O1  1  0.82368  0.56397  0.03827  1
 O  O2  1  0.15494  0.89081  0.25000  1
 O  O3  1  0.10919  0.84506  0.75000  1
 O  O4  1  0.89081  0.15494  0.25000  1
 O  O5  1  0.56397  0.82368  0.03827  1
 O  O6  1  0.56397  0.82368  0.46173  1
 O  O7  1  0.17632  0.43603  0.53827  1
 O  O8  1  0.41405  0.41405  0.25000  1
 O  O9  1  0.58595  0.58595  0.75000  1
 O  O10  1  0.84506  0.10919  0.75000  1
 O  O11  1  0.17632  0.43603  0.96173  1
 O  O12  1  0.82368  0.56397  0.46173  1
 O  O13  1  0.43603  0.17632  0.96173  1
 O  O14  1  0.43603  0.17632  0.53827  1
 Tb  Tb1  1  0.93558  0.48079  0.75000  1
 Tb  Tb2  1  0.51921  0.06442  0.25000  1
 Tb  Tb3  1  0.00000  0.00000  0.50000  1
 Tb  Tb4  1  0.00000  0.00000  0.00000  1
 Tb  Tb5  1  0.48079  0.93558  0.75000  1
 Tb  Tb6  1  0.06442  0.51921  0.25000  1
