CIF file written using JARVIS-Tools package.
data_DyNiC2
_symmetry_space_group_name_H-M  'Amm2'
_cell_length_a       3.57809
_cell_length_b       3.76866
_cell_length_c       3.76865
_cell_angle_alpha    106.493
_cell_angle_beta     90
_cell_angle_gamma    90

_symmetry_Int_Tables_number  38
_chemical_formula_structural  DyNiC2
_chemical_formula_sum  DyNiC2
_cell_volume  48.72775034295247
_cell_formula_units_Z  1
loop_
  _symmetry_equiv_pos_site_id
 _symmetry_equiv_pos_as_xyz
 1  'x, y, z'
loop_
 _atom_site_type_symbol
 _atom_site_label
 _atom_site_symmetry_multiplicity
 _atom_site_fract_x
 _atom_site_fract_y
 _atom_site_fract_z
 _atom_site_fract_occupancy
 C  C1  1  0.50000  0.15143  0.54621  1
 C  C2  1  0.50000  0.45379  0.84857  1
 Dy  Dy1  1  0.00000  0.00083  0.99917  1
 Ni  Ni1  1  0.50000  0.61394  0.38606  1
