CIF file written using JARVIS-Tools package.
data_Mg5In
_symmetry_space_group_name_H-M  'Amm2'
_cell_length_a       8.25115
_cell_length_b       8.25114
_cell_length_c       5.19086
_cell_angle_alpha    90
_cell_angle_beta     90
_cell_angle_gamma    157.348

_symmetry_Int_Tables_number  38
_chemical_formula_structural  Mg5In
_chemical_formula_sum  Mg5In
_cell_volume  136.10717471573648
_cell_formula_units_Z  1
loop_
  _symmetry_equiv_pos_site_id
 _symmetry_equiv_pos_as_xyz
 1  'x, y, z'
loop_
 _atom_site_type_symbol
 _atom_site_label
 _atom_site_symmetry_multiplicity
 _atom_site_fract_x
 _atom_site_fract_y
 _atom_site_fract_z
 _atom_site_fract_occupancy
 In  In1  1  0.77758  0.22242  0.50000  1
 Mg  Mg1  1  -0.00009  0.00009  0.00000  1
 Mg  Mg2  1  0.33279  0.66721  0.00000  1
 Mg  Mg3  1  0.66545  0.33455  0.00000  1
 Mg  Mg4  1  0.44569  0.55431  0.50000  1
 Mg  Mg5  1  0.11193  0.88807  0.50000  1
