CIF file written using JARVIS-Tools package.
data_TlIn3
_symmetry_space_group_name_H-M  'P6_3/mmc'
_cell_length_a       6.90891
_cell_length_b       6.90891
_cell_length_c       5.54523
_cell_angle_alpha    90
_cell_angle_beta     90
_cell_angle_gamma    120

_symmetry_Int_Tables_number  194
_chemical_formula_structural  TlIn3
_chemical_formula_sum  Tl2In6
_cell_volume  229.22917152824945
_cell_formula_units_Z  2
loop_
  _symmetry_equiv_pos_site_id
 _symmetry_equiv_pos_as_xyz
 1  'x, y, z'
loop_
 _atom_site_type_symbol
 _atom_site_label
 _atom_site_symmetry_multiplicity
 _atom_site_fract_x
 _atom_site_fract_y
 _atom_site_fract_z
 _atom_site_fract_occupancy
 In  In1  1  0.16399  0.32798  0.25000  1
 In  In2  1  0.67202  0.83601  0.25000  1
 In  In3  1  0.16399  0.83601  0.25000  1
 In  In4  1  0.83601  0.67202  0.75000  1
 In  In5  1  0.32798  0.16399  0.75000  1
 In  In6  1  0.83601  0.16399  0.75000  1
 Tl  Tl1  1  0.33333  0.66667  0.75000  1
 Tl  Tl2  1  0.66667  0.33333  0.25000  1
