CIF file written using JARVIS-Tools package.
data_La3Zr
_symmetry_space_group_name_H-M  'P6_3/mmc'
_cell_length_a       7.19146
_cell_length_b       7.19146
_cell_length_c       5.79354
_cell_angle_alpha    90
_cell_angle_beta     90
_cell_angle_gamma    120

_symmetry_Int_Tables_number  194
_chemical_formula_structural  La3Zr
_chemical_formula_sum  La6Zr2
_cell_volume  259.48306992813747
_cell_formula_units_Z  2
loop_
  _symmetry_equiv_pos_site_id
 _symmetry_equiv_pos_as_xyz
 1  'x, y, z'
loop_
 _atom_site_type_symbol
 _atom_site_label
 _atom_site_symmetry_multiplicity
 _atom_site_fract_x
 _atom_site_fract_y
 _atom_site_fract_z
 _atom_site_fract_occupancy
 La  La1  1  0.17316  0.34631  0.25000  1
 La  La2  1  0.65369  0.82684  0.25000  1
 La  La3  1  0.17316  0.82684  0.25000  1
 La  La4  1  0.82684  0.65369  0.75000  1
 La  La5  1  0.34631  0.17316  0.75000  1
 La  La6  1  0.82684  0.17316  0.75000  1
 Zr  Zr1  1  0.33333  0.66667  0.75000  1
 Zr  Zr2  1  0.66667  0.33333  0.25000  1
