CIF file written using JARVIS-Tools package.
data_MgIn2Te4
_symmetry_space_group_name_H-M  'I-4'
_cell_length_a       7.73153
_cell_length_b       7.73153
_cell_length_c       7.73152
_cell_angle_alpha    131.835
_cell_angle_beta     131.835
_cell_angle_gamma    70.4901

_symmetry_Int_Tables_number  82
_chemical_formula_structural  MgIn2Te4
_chemical_formula_sum  MgIn2Te4
_cell_volume  251.38971175607395
_cell_formula_units_Z  1
loop_
  _symmetry_equiv_pos_site_id
 _symmetry_equiv_pos_as_xyz
 1  'x, y, z'
loop_
 _atom_site_type_symbol
 _atom_site_label
 _atom_site_symmetry_multiplicity
 _atom_site_fract_x
 _atom_site_fract_y
 _atom_site_fract_z
 _atom_site_fract_occupancy
 In  In1  1  0.00000  0.00000  0.00000  1
 In  In2  1  0.25000  0.75000  0.50000  1
 Mg  Mg1  1  0.75000  0.25000  0.50000  1
 Te  Te1  1  0.39164  0.83813  0.00316  1
 Te  Te2  1  0.83497  0.38848  0.99684  1
 Te  Te3  1  0.61152  0.60836  0.44649  1
 Te  Te4  1  0.16187  0.16503  0.55351  1
