CIF file written using JARVIS-Tools package.
data_H5C3SN
_symmetry_space_group_name_H-M  'P1'
_cell_length_a       4.98557
_cell_length_b       6.35076
_cell_length_c       6.36285
_cell_angle_alpha    102.114
_cell_angle_beta     96.5704
_cell_angle_gamma    96.2529

_symmetry_Int_Tables_number  1
_chemical_formula_structural  H5C3SN
_chemical_formula_sum  H0C6S2N2
_cell_volume  193.84026959836044
_cell_formula_units_Z  2
loop_
  _symmetry_equiv_pos_site_id
 _symmetry_equiv_pos_as_xyz
 1  'x, y, z'
loop_
 _atom_site_type_symbol
 _atom_site_label
 _atom_site_symmetry_multiplicity
 _atom_site_fract_x
 _atom_site_fract_y
 _atom_site_fract_z
 _atom_site_fract_occupancy
 C  C1  1  0.06656  0.99797  0.63924  1
 C  C2  1  0.06656  0.49817  0.13905  1
 C  C3  1  0.92334  0.06110  0.44560  1
 C  C4  1  0.92276  0.56048  0.94511  1
 C  C5  1  0.92306  0.80408  0.70091  1
 C  C6  1  0.92365  0.30456  0.20153  1
 H  H1  1  0.86447  0.17226  0.05463  1
 H  H2  1  0.86189  0.67268  0.55350  1
 H  H3  1  0.72477  0.35037  0.24885  1
 H  H4  1  0.86324  0.91408  0.31351  1
 H  H5  1  0.18534  0.34774  0.48883  1
 H  H6  1  0.72520  0.85068  0.74985  1
 H  H7  1  0.72536  0.61085  0.99136  1
 H  H8  1  0.72492  0.10986  0.49106  1
 H  H9  1  0.18791  0.84491  0.98603  1
 H  H10  1  0.86067  0.41296  0.81392  1
 N  N1  1  0.08160  0.72264  0.86388  1
 N  N2  1  0.08174  0.22481  0.36604  1
 S  S1  1  0.34649  0.64037  0.28122  1
 S  S2  1  0.34649  0.13952  0.78208  1
