CIF file written using JARVIS-Tools package.
data_SnH2C2O6
_symmetry_space_group_name_H-M  'C2'
_cell_length_a       4.84528
_cell_length_b       5.6933
_cell_length_c       5.69058
_cell_angle_alpha    58.997
_cell_angle_beta     64.5853
_cell_angle_gamma    64.554

_symmetry_Int_Tables_number  5
_chemical_formula_structural  SnH2C2O6
_chemical_formula_sum  SnH2C2O6
_cell_volume  117.03635663763896
_cell_formula_units_Z  1
loop_
  _symmetry_equiv_pos_site_id
 _symmetry_equiv_pos_as_xyz
 1  'x, y, z'
loop_
 _atom_site_type_symbol
 _atom_site_label
 _atom_site_symmetry_multiplicity
 _atom_site_fract_x
 _atom_site_fract_y
 _atom_site_fract_z
 _atom_site_fract_occupancy
 C  C1  1  0.43622  0.53298  0.11826  1
 C  C2  1  0.60957  0.62964  0.21533  1
 H  H1  1  -0.00496  0.68944  0.59864  1
 H  H2  1  0.05116  0.14976  0.05874  1
 O  O1  1  0.94472  0.89309  0.46935  1
 O  O2  1  0.10118  0.27891  0.85500  1
 O  O3  1  0.37014  0.69448  0.88198  1
 O  O4  1  0.36982  0.29660  0.28272  1
 O  O5  1  0.67563  0.86578  0.05399  1
 O  O6  1  0.67599  0.46502  0.45184  1
 Sn  Sn1  1  0.52290  0.08169  0.66642  1
