data_image0
_chemical_formula_structural       Cl12Cu4H16Li4O8
_chemical_formula_sum              "Cl12 Cu4 H16 Li4 O8"
_cell_length_a       5.93648
_cell_length_b       10.7888
_cell_length_c       8.90239
_cell_angle_alpha    90
_cell_angle_beta     110.538
_cell_angle_gamma    90

_space_group_name_H-M_alt    "P 1"
_space_group_IT_number       1

loop_
  _space_group_symop_operation_xyz
  'x, y, z'

loop_
  _atom_site_type_symbol
  _atom_site_label
  _atom_site_symmetry_multiplicity
  _atom_site_fract_x
  _atom_site_fract_y
  _atom_site_fract_z
  _atom_site_occupancy
  Cl  Cl1       1.0  0.52200  0.13600  0.11500  1.0000
  Cl  Cl2       1.0  0.47800  0.63600  0.38500  1.0000
  Cl  Cl3       1.0  0.47800  0.86400  0.88500  1.0000
  Cl  Cl4       1.0  0.52200  0.36400  0.61500  1.0000
  Cl  Cl5       1.0  0.21500  0.38600  0.18000  1.0000
  Cl  Cl6       1.0  0.78500  0.88600  0.32000  1.0000
  Cl  Cl7       1.0  0.78500  0.61400  0.82000  1.0000
  Cl  Cl8       1.0  0.21500  0.11400  0.68000  1.0000
  Cl  Cl9       1.0  0.87900  0.38100  0.41100  1.0000
  Cl  Cl10      1.0  0.12100  0.88100  0.08900  1.0000
  Cl  Cl11      1.0  0.12100  0.61900  0.58900  1.0000
  Cl  Cl12      1.0  0.87900  0.11900  0.91100  1.0000
  Cu  Cu1       1.0  0.82500  0.00799  0.12000  1.0000
  Cu  Cu2       1.0  0.17500  0.50800  0.38000  1.0000
  Cu  Cu3       1.0  0.17600  0.99200  0.88000  1.0000
  Cu  Cu4       1.0  0.82500  0.49200  0.62000  1.0000
  H   H1        1.0  0.15700  0.20900  0.25900  1.0000
  H   H2        1.0  0.84300  0.70900  0.24100  1.0000
  H   H3        1.0  0.84300  0.79100  0.74100  1.0000
  H   H4        1.0  0.15700  0.29100  0.75900  1.0000
  H   H5        1.0  0.60900  0.30700  0.04030  1.0000
  H   H6        1.0  0.39100  0.80700  0.46000  1.0000
  H   H7        1.0  0.39100  0.69300  0.96000  1.0000
  H   H8        1.0  0.60900  0.19300  0.54000  1.0000
  H   H9        1.0  0.11500  0.14700  0.40600  1.0000
  H   H10       1.0  0.88500  0.64700  0.09410  1.0000
  H   H11       1.0  0.88500  0.85300  0.59400  1.0000
  H   H12       1.0  0.11500  0.35300  0.90600  1.0000
  H   H13       1.0  0.82900  0.39100  0.05030  1.0000
  H   H14       1.0  0.17100  0.89100  0.45000  1.0000
  H   H15       1.0  0.17100  0.60900  0.95000  1.0000
  H   H16       1.0  0.82900  0.10900  0.55000  1.0000
  Li  Li1       1.0  0.42700  0.01730  0.33000  1.0000
  Li  Li2       1.0  0.57300  0.51700  0.17000  1.0000
  Li  Li3       1.0  0.57300  0.98300  0.67000  1.0000
  Li  Li4       1.0  0.42700  0.48300  0.83000  1.0000
  O   O1        1.0  0.65200  0.39300  0.02140  1.0000
  O   O2        1.0  0.34800  0.89300  0.47900  1.0000
  O   O3        1.0  0.34800  0.60700  0.97900  1.0000
  O   O4        1.0  0.65200  0.10700  0.52100  1.0000
  O   O5        1.0  0.14100  0.12800  0.30600  1.0000
  O   O6        1.0  0.85900  0.62800  0.19400  1.0000
  O   O7        1.0  0.85900  0.87200  0.69400  1.0000
  O   O8        1.0  0.14100  0.37200  0.80600  1.0000
