CIF file written using JARVIS-Tools package.
data_H3C2
_symmetry_space_group_name_H-M  'P-1'
_cell_length_a       5.1515
_cell_length_b       6.04475
_cell_length_c       7.80819
_cell_angle_alpha    103.41
_cell_angle_beta     98.2747
_cell_angle_gamma    100.821

_symmetry_Int_Tables_number  2
_chemical_formula_structural  H3C2
_chemical_formula_sum  H8C2
_cell_volume  227.79380672455065
_cell_formula_units_Z  6
loop_
  _symmetry_equiv_pos_site_id
 _symmetry_equiv_pos_as_xyz
 1  'x, y, z'
loop_
 _atom_site_type_symbol
 _atom_site_label
 _atom_site_symmetry_multiplicity
 _atom_site_fract_x
 _atom_site_fract_y
 _atom_site_fract_z
 _atom_site_fract_occupancy
 C  C1  1  0.75950  0.12552  0.35855  1
 C  C2  1  0.24050  0.87448  0.64145  1
 C  C3  1  0.43109  0.38276  0.31561  1
 C  C4  1  0.31837  0.57198  0.38368  1
 C  C5  1  0.68163  0.42802  0.61632  1
 C  C6  1  0.56891  0.61724  0.68439  1
 C  C7  1  0.61817  0.31460  0.43131  1
 C  C8  1  0.34395  0.24685  0.11995  1
 C  C9  1  0.65605  0.75315  0.88005  1
 C  C10  1  0.13214  0.65776  0.25903  1
 C  C11  1  0.86786  0.34224  0.74097  1
 C  C12  1  0.38183  0.68540  0.56869  1
 H  H1  1  0.91810  0.57617  0.24893  1
 H  H2  1  0.52519  0.68648  0.96590  1
 H  H3  1  0.13802  0.25268  0.06512  1
 H  H4  1  0.47481  0.31352  0.03410  1
 H  H5  1  0.65271  0.93764  0.89706  1
 H  H6  1  0.15420  0.84711  0.30634  1
 H  H7  1  0.84580  0.15289  0.69366  1
 H  H8  1  0.33456  0.04595  0.62512  1
 H  H9  1  0.08190  0.42383  0.75107  1
 H  H10  1  0.17538  0.62108  0.12317  1
 H  H11  1  0.82462  0.37892  0.87683  1
 H  H12  1  0.02954  0.82990  0.57154  1
 H  H13  1  0.97046  0.17010  0.42846  1
 H  H14  1  0.66544  0.95405  0.37488  1
 H  H15  1  0.23901  0.89643  0.78451  1
 H  H16  1  0.76099  0.10357  0.21549  1
 H  H17  1  0.34729  0.06236  0.10294  1
 H  H18  1  0.86198  0.74732  0.93488  1
