CIF file written using JARVIS-Tools package.
data_KYO2
_symmetry_space_group_name_H-M  'R-3m'
_cell_length_a       6.50748
_cell_length_b       6.50748
_cell_length_c       6.50748
_cell_angle_alpha    30.8963
_cell_angle_beta     30.8962
_cell_angle_gamma    30.8963

_symmetry_Int_Tables_number  166
_chemical_formula_structural  KYO2
_chemical_formula_sum  KYO2
_cell_volume  64.44769048343652
_cell_formula_units_Z  1
loop_
  _symmetry_equiv_pos_site_id
 _symmetry_equiv_pos_as_xyz
 1  'x, y, z'
loop_
 _atom_site_type_symbol
 _atom_site_label
 _atom_site_symmetry_multiplicity
 _atom_site_fract_x
 _atom_site_fract_y
 _atom_site_fract_z
 _atom_site_fract_occupancy
 K  K1  1  0.00000  0.00000  0.00000  1
 O  O1  1  0.22911  0.22911  0.22911  1
 O  O2  1  0.77089  0.77089  0.77089  1
 Y  Y1  1  0.50000  0.50000  0.50000  1
