CIF file written using JARVIS-Tools package.
data_In2AgTe3I
_symmetry_space_group_name_H-M  'Cm'
_cell_length_a       7.73829
_cell_length_b       7.73829
_cell_length_c       7.93248
_cell_angle_alpha    80.0982
_cell_angle_beta     80.0982
_cell_angle_gamma    33.7987

_symmetry_Int_Tables_number  8
_chemical_formula_structural  In2AgTe3I
_chemical_formula_sum  In2AgTe3I
_cell_volume  259.9322791017633
_cell_formula_units_Z  1
loop_
  _symmetry_equiv_pos_site_id
 _symmetry_equiv_pos_as_xyz
 1  'x, y, z'
loop_
 _atom_site_type_symbol
 _atom_site_label
 _atom_site_symmetry_multiplicity
 _atom_site_fract_x
 _atom_site_fract_y
 _atom_site_fract_z
 _atom_site_fract_occupancy
 Ag  Ag1  1  0.31236  0.31236  0.53110  1
 I  I1  1  0.51068  0.51068  0.50050  1
 In  In1  1  0.56573  0.56573  0.82256  1
 In  In2  1  0.80761  0.80761  0.06187  1
 Te  Te1  1  0.00388  0.00388  0.04007  1
 Te  Te2  1  0.22891  0.22891  0.24893  1
 Te  Te3  1  0.75833  0.75833  0.73247  1
