CIF file written using JARVIS-Tools package.
data_U5P4S
_symmetry_space_group_name_H-M  'R-3m'
_cell_length_a       16.1015
_cell_length_b       16.1015
_cell_length_c       16.1016
_cell_angle_alpha    14.084
_cell_angle_beta     14.084
_cell_angle_gamma    14.084

_symmetry_Int_Tables_number  166
_chemical_formula_structural  U5P4S
_chemical_formula_sum  U5P4S
_cell_volume  215.15754512750414
_cell_formula_units_Z  1
loop_
  _symmetry_equiv_pos_site_id
 _symmetry_equiv_pos_as_xyz
 1  'x, y, z'
loop_
 _atom_site_type_symbol
 _atom_site_label
 _atom_site_symmetry_multiplicity
 _atom_site_fract_x
 _atom_site_fract_y
 _atom_site_fract_z
 _atom_site_fract_occupancy
 P  P1  1  0.10087  0.10087  0.10087  1
 P  P2  1  0.70033  0.70033  0.70033  1
 P  P3  1  0.29967  0.29967  0.29967  1
 P  P4  1  0.89913  0.89913  0.89913  1
 S  S1  1  0.50000  0.50000  0.50000  1
 U  U1  1  0.59931  0.59931  0.59931  1
 U  U2  1  0.40069  0.40069  0.40069  1
 U  U3  1  0.00000  0.00000  0.00000  1
 U  U4  1  0.19934  0.19934  0.19934  1
 U  U5  1  0.80066  0.80066  0.80066  1
