CIF file written using JARVIS-Tools package.
data_ZnH18C11O4
_symmetry_space_group_name_H-M  'P1'
_cell_length_a       3.9876
_cell_length_b       4.84773
_cell_length_c       15.3244
_cell_angle_alpha    89.6243
_cell_angle_beta     88.7209
_cell_angle_gamma    66.5573

_symmetry_Int_Tables_number  1
_chemical_formula_structural  ZnH18C11O4
_chemical_formula_sum  ZnH8CO4
_cell_volume  271.71261748363975
_cell_formula_units_Z  1
loop_
  _symmetry_equiv_pos_site_id
 _symmetry_equiv_pos_as_xyz
 1  'x, y, z'
loop_
 _atom_site_type_symbol
 _atom_site_label
 _atom_site_symmetry_multiplicity
 _atom_site_fract_x
 _atom_site_fract_y
 _atom_site_fract_z
 _atom_site_fract_occupancy
 C  C1  1  0.93629  0.57392  0.66051  1
 C  C2  1  0.30357  0.68547  0.34788  1
 C  C3  1  0.12625  0.61908  0.50304  1
 C  C4  1  0.11033  0.40720  0.57591  1
 C  C5  1  0.30996  0.45905  0.41824  1
 C  C6  1  0.91626  0.36735  0.73453  1
 C  C7  1  0.73385  0.53836  0.81794  1
 C  C8  1  0.71861  0.33195  0.89247  1
 C  C9  1  0.50820  0.50750  0.97291  1
 C  C10  1  0.48793  0.30735  0.04703  1
 C  C11  1  0.51664  0.55993  0.26410  1
 H  H1  1  0.59392  0.30460  0.43063  1
 H  H2  1  0.41963  0.84073  0.37328  1
 H  H3  1  0.09130  0.70473  0.68207  1
 H  H4  1  0.02174  0.83146  0.33115  1
 H  H5  1  0.45386  0.69874  0.80330  1
 H  H6  1  0.64698  0.64466  0.99939  1
 H  H7  1  0.22930  0.66250  0.95713  1
 H  H8  1  0.58813  0.18403  0.86950  1
 H  H9  1  0.27304  0.75441  0.52630  1
 H  H10  1  0.38949  0.24156  0.58887  1
 H  H11  1  0.95580  0.27649  0.55398  1
 H  H12  1  0.19480  0.20388  0.74905  1
 H  H13  1  0.76526  0.23353  0.71270  1
 H  H14  1  0.99762  0.18266  0.91103  1
 H  H15  1  0.16861  0.32092  0.39446  1
 H  H16  1  0.84581  0.78152  0.48952  1
 H  H17  1  0.88076  0.67584  0.83929  1
 H  H18  1  0.65789  0.74038  0.64718  1
 O  O1  1  0.47163  0.72798  0.19735  1
 O  O2  1  0.19083  0.39116  0.09172  1
 O  O3  1  0.75289  0.28768  0.26417  1
 O  O4  1  0.76591  0.06419  0.06308  1
 Zn  Zn1  1  0.07173  0.09650  0.16029  1
