CIF file written using JARVIS-Tools package.
data_Ti2Si6W
_symmetry_space_group_name_H-M  'C222'
_cell_length_a       4.73729
_cell_length_b       4.73729
_cell_length_c       6.52941
_cell_angle_alpha    90
_cell_angle_beta     90
_cell_angle_gamma    120.022

_symmetry_Int_Tables_number  21
_chemical_formula_structural  Ti2Si6W
_chemical_formula_sum  Ti2Si6W
_cell_volume  126.87219093669901
_cell_formula_units_Z  1
loop_
  _symmetry_equiv_pos_site_id
 _symmetry_equiv_pos_as_xyz
 1  'x, y, z'
loop_
 _atom_site_type_symbol
 _atom_site_label
 _atom_site_symmetry_multiplicity
 _atom_site_fract_x
 _atom_site_fract_y
 _atom_site_fract_z
 _atom_site_fract_occupancy
 Si  Si1  1  0.16633  0.83367  0.00000  1
 Si  Si2  1  0.15573  0.31654  0.66661  1
 Si  Si3  1  0.68346  0.84427  0.33339  1
 Si  Si4  1  0.83367  0.16633  0.00000  1
 Si  Si5  1  0.84427  0.68346  0.66661  1
 Si  Si6  1  0.31654  0.15573  0.33339  1
 Ti  Ti1  1  0.50000  0.00000  0.66696  1
 Ti  Ti2  1  0.00000  0.50000  0.33304  1
 W  W1  1  0.50000  0.50000  0.00000  1
