CIF file written using JARVIS-Tools package.
data_K3I2Br
_symmetry_space_group_name_H-M  'P-3m1'
_cell_length_a       4.85559
_cell_length_b       4.85558
_cell_length_c       11.9107
_cell_angle_alpha    90
_cell_angle_beta     90
_cell_angle_gamma    120

_symmetry_Int_Tables_number  164
_chemical_formula_structural  K3I2Br
_chemical_formula_sum  K3I2Br
_cell_volume  243.1936427021899
_cell_formula_units_Z  1
loop_
  _symmetry_equiv_pos_site_id
 _symmetry_equiv_pos_as_xyz
 1  'x, y, z'
loop_
 _atom_site_type_symbol
 _atom_site_label
 _atom_site_symmetry_multiplicity
 _atom_site_fract_x
 _atom_site_fract_y
 _atom_site_fract_z
 _atom_site_fract_occupancy
 Br  Br1  1  0.00000  0.00000  0.00000  1
 I  I1  1  0.33333  0.66667  0.67465  1
 I  I2  1  0.66667  0.33333  0.32535  1
 K  K1  1  0.00000  0.00000  0.50000  1
 K  K2  1  0.33333  0.66667  0.15077  1
 K  K3  1  0.66667  0.33333  0.84923  1
