CIF file written using JARVIS-Tools package.
data_Mg2Sb
_symmetry_space_group_name_H-M  'Immm'
_cell_length_a       7.17755
_cell_length_b       7.17754
_cell_length_c       7.17755
_cell_angle_alpha    147.109
_cell_angle_beta     131.519
_cell_angle_gamma    59.8296

_symmetry_Int_Tables_number  71
_chemical_formula_structural  Mg2Sb
_chemical_formula_sum  Mg4Sb2
_cell_volume  149.0116854410044
_cell_formula_units_Z  2
loop_
  _symmetry_equiv_pos_site_id
 _symmetry_equiv_pos_as_xyz
 1  'x, y, z'
loop_
 _atom_site_type_symbol
 _atom_site_label
 _atom_site_symmetry_multiplicity
 _atom_site_fract_x
 _atom_site_fract_y
 _atom_site_fract_z
 _atom_site_fract_occupancy
 Mg  Mg1  1  0.24865  0.00000  0.24865  1
 Mg  Mg2  1  0.18105  0.68105  0.50000  1
 Mg  Mg3  1  0.81895  0.31895  0.50000  1
 Mg  Mg4  1  0.75135  -0.00000  0.75135  1
 Sb  Sb1  1  0.64823  0.64823  0.00000  1
 Sb  Sb2  1  0.35177  0.35177  -0.00000  1
