CIF file written using JARVIS-Tools package.
data_K2TeSe3
_symmetry_space_group_name_H-M  'P2_1/c'
_cell_length_a       10.0546
_cell_length_b       6.57126
_cell_length_c       13.1064
_cell_angle_alpha    90
_cell_angle_beta     105.552
_cell_angle_gamma    90

_symmetry_Int_Tables_number  14
_chemical_formula_structural  K2TeSe3
_chemical_formula_sum  K8Te4Se2
_cell_volume  834.2507419305798
_cell_formula_units_Z  4
loop_
  _symmetry_equiv_pos_site_id
 _symmetry_equiv_pos_as_xyz
 1  'x, y, z'
loop_
 _atom_site_type_symbol
 _atom_site_label
 _atom_site_symmetry_multiplicity
 _atom_site_fract_x
 _atom_site_fract_y
 _atom_site_fract_z
 _atom_site_fract_occupancy
 K  K1  1  0.48993  0.25471  0.37448  1
 K  K2  1  0.51007  0.75471  0.12552  1
 K  K3  1  0.51007  0.74529  0.62552  1
 K  K4  1  0.48993  0.24529  0.87448  1
 K  K5  1  0.83409  0.76049  0.45142  1
 K  K6  1  0.16591  0.26049  0.04858  1
 K  K7  1  0.16591  0.23951  0.54858  1
 K  K8  1  0.83409  0.73951  0.95142  1
 Se  Se1  1  0.15291  0.15661  0.29554  1
 Se  Se2  1  0.17525  0.73927  0.51781  1
 Se  Se3  1  0.82475  0.23927  0.98219  1
 Se  Se4  1  0.82475  0.26073  0.48219  1
 Se  Se5  1  0.17525  0.76073  0.01781  1
 Se  Se6  1  0.47233  0.74327  0.86785  1
 Se  Se7  1  0.52767  0.24327  0.63215  1
 Se  Se8  1  0.15291  0.34339  0.79554  1
 Se  Se9  1  0.47233  0.75673  0.36785  1
 Se  Se10  1  0.84709  0.84339  0.70446  1
 Se  Se11  1  0.84709  0.65661  0.20446  1
 Se  Se12  1  0.52767  0.25673  0.13215  1
 Te  Te1  1  0.20980  0.78192  0.33358  1
 Te  Te2  1  0.20980  0.71808  0.83358  1
 Te  Te3  1  0.79020  0.21808  0.66642  1
 Te  Te4  1  0.79020  0.28192  0.16642  1
