CIF file written using JARVIS-Tools package.
data_SnH10C10O4
_symmetry_space_group_name_H-M  'P-1'
_cell_length_a       4.69494
_cell_length_b       6.45314
_cell_length_c       8.53022
_cell_angle_alpha    92.0569
_cell_angle_beta     76.5899
_cell_angle_gamma    79.1137

_symmetry_Int_Tables_number  2
_chemical_formula_structural  SnH10C10O4
_chemical_formula_sum  SnH0C0O4
_cell_volume  246.00986262243848
_cell_formula_units_Z  1
loop_
  _symmetry_equiv_pos_site_id
 _symmetry_equiv_pos_as_xyz
 1  'x, y, z'
loop_
 _atom_site_type_symbol
 _atom_site_label
 _atom_site_symmetry_multiplicity
 _atom_site_fract_x
 _atom_site_fract_y
 _atom_site_fract_z
 _atom_site_fract_occupancy
 C  C1  1  0.27722  0.67861  0.43688  1
 C  C2  1  0.17977  0.02334  0.60499  1
 C  C3  1  0.36079  0.87135  0.46548  1
 C  C4  1  0.66095  0.48586  0.71097  1
 C  C5  1  0.78849  0.77489  0.23723  1
 C  C6  1  0.70492  0.58215  0.20863  1
 C  C7  1  0.44798  0.53464  0.30944  1
 C  C8  1  0.88598  0.43013  0.06915  1
 C  C9  1  0.40477  0.96756  0.96314  1
 C  C10  1  0.61771  0.91886  0.36466  1
 H  H1  1  0.98697  0.81017  0.15766  1
 H  H2  1  0.68174  0.06850  0.38778  1
 H  H3  1  0.74636  0.42904  0.58317  1
 H  H4  1  0.45998  0.60961  0.72784  1
 H  H5  1  0.83307  0.54168  0.75806  1
 H  H6  1  0.31934  0.02436  0.09096  1
 H  H7  1  0.60574  0.84381  0.94627  1
 H  H8  1  0.23267  0.91178  0.91603  1
 H  H9  1  0.38395  0.38501  0.28632  1
 H  H10  1  0.07874  0.64333  0.51644  1
 O  O1  1  0.14012  0.46588  -0.00409  1
 O  O2  1  0.92567  0.98757  0.67826  1
 O  O3  1  0.28627  0.18104  0.64352  1
 O  O4  1  0.77948  0.27244  0.03061  1
 Sn  Sn1  1  0.53288  0.22672  0.83708  1
