CIF file written using JARVIS-Tools package.
data_ZnH12C8O4
_symmetry_space_group_name_H-M  'P1'
_cell_length_a       3.85451
_cell_length_b       4.70503
_cell_length_c       12.155
_cell_angle_alpha    88.1176
_cell_angle_beta     88.6817
_cell_angle_gamma    66.8597

_symmetry_Int_Tables_number  1
_chemical_formula_structural  ZnH12C8O4
_chemical_formula_sum  ZnH2C8O4
_cell_volume  202.58044157420048
_cell_formula_units_Z  1
loop_
  _symmetry_equiv_pos_site_id
 _symmetry_equiv_pos_as_xyz
 1  'x, y, z'
loop_
 _atom_site_type_symbol
 _atom_site_label
 _atom_site_symmetry_multiplicity
 _atom_site_fract_x
 _atom_site_fract_y
 _atom_site_fract_z
 _atom_site_fract_occupancy
 C  C1  1  0.37552  0.32491  0.62803  1
 C  C2  1  0.22801  0.26597  0.43151  1
 C  C3  1  0.23159  0.49299  0.51789  1
 C  C4  1  0.38740  0.53438  0.72025  1
 C  C5  1  0.49612  0.35828  0.83066  1
 C  C6  1  0.49449  0.56490  0.92530  1
 C  C7  1  0.52145  0.41491  0.03908  1
 C  C8  1  0.05634  0.39908  0.32095  1
 H  H1  1  0.06707  0.13065  0.46268  1
 H  H2  1  0.19514  0.20214  0.65487  1
 H  H3  1  0.77580  0.16819  0.82335  1
 H  H4  1  0.94537  0.67104  0.52924  1
 H  H5  1  0.65997  0.14303  0.61612  1
 H  H6  1  0.10764  0.72505  0.72883  1
 H  H7  1  0.58517  0.64450  0.69805  1
 H  H8  1  0.23499  0.77715  0.92613  1
 H  H9  1  0.72533  0.64673  0.91654  1
 H  H10  1  0.40921  0.61504  0.48858  1
 H  H11  1  0.29893  0.24634  0.85052  1
 H  H12  1  0.51340  0.09227  0.41594  1
 O  O1  1  0.09954  0.21634  0.24218  1
 O  O2  1  0.63631  0.11957  0.04521  1
 O  O3  1  0.85943  0.69035  0.31345  1
 O  O4  1  0.41835  0.58498  0.12258  1
 Zn  Zn1  1  0.58127  0.90361  0.18154  1
