CIF file written using JARVIS-Tools package.
data_FePb2C6N6
_symmetry_space_group_name_H-M  'P-3'
_cell_length_a       7.15022
_cell_length_b       7.15022
_cell_length_c       5.4394
_cell_angle_alpha    90
_cell_angle_beta     90
_cell_angle_gamma    120

_symmetry_Int_Tables_number  147
_chemical_formula_structural  FePb2C6N6
_chemical_formula_sum  FePb2C6N6
_cell_volume  240.83524535302587
_cell_formula_units_Z  1
loop_
  _symmetry_equiv_pos_site_id
 _symmetry_equiv_pos_as_xyz
 1  'x, y, z'
loop_
 _atom_site_type_symbol
 _atom_site_label
 _atom_site_symmetry_multiplicity
 _atom_site_fract_x
 _atom_site_fract_y
 _atom_site_fract_z
 _atom_site_fract_occupancy
 C  C1  1  0.24037  0.05580  0.19236  1
 C  C2  1  0.81542  0.75963  0.19236  1
 C  C3  1  0.94420  0.18458  0.19236  1
 C  C4  1  0.05580  0.81542  0.80764  1
 C  C5  1  0.75963  0.94420  0.80764  1
 C  C6  1  0.18458  0.24037  0.80764  1
 Fe  Fe1  1  0.00000  0.00000  0.00000  1
 N  N1  1  0.68978  0.60547  0.30287  1
 N  N2  1  0.39453  0.08431  0.30287  1
 N  N3  1  0.91569  0.31022  0.30287  1
 N  N4  1  0.31022  0.39453  0.69713  1
 N  N5  1  0.08431  0.68978  0.69713  1
 N  N6  1  0.60547  0.91569  0.69713  1
 Pb  Pb1  1  0.66667  0.33333  0.59747  1
 Pb  Pb2  1  0.33333  0.66667  0.40253  1
