CIF file written using JARVIS-Tools package.
data_CaGe2N2
_symmetry_space_group_name_H-M  'P-3m1'
_cell_length_a       3.20037
_cell_length_b       3.20021
_cell_length_c       8.72911
_cell_angle_alpha    89.9984
_cell_angle_beta     89.9994
_cell_angle_gamma    120.002

_symmetry_Int_Tables_number  164
_chemical_formula_structural  CaGe2N2
_chemical_formula_sum  CaGe2N2
_cell_volume  77.42271028907193
_cell_formula_units_Z  1
loop_
  _symmetry_equiv_pos_site_id
 _symmetry_equiv_pos_as_xyz
 1  'x, y, z'
loop_
 _atom_site_type_symbol
 _atom_site_label
 _atom_site_symmetry_multiplicity
 _atom_site_fract_x
 _atom_site_fract_y
 _atom_site_fract_z
 _atom_site_fract_occupancy
 Ca  Ca1  1  0.00001  -0.00001  0.50000  1
 Ge  Ge1  1  0.66670  0.33332  0.19287  1
 Ge  Ge2  1  0.33334  0.66665  0.80713  1
 N  N1  1  0.66665  0.33328  0.68053  1
 N  N2  1  0.33336  0.66671  0.31947  1
