CIF file written using JARVIS-Tools package.
data_CdH8C6O4
_symmetry_space_group_name_H-M  'P-1'
_cell_length_a       3.92766
_cell_length_b       4.63542
_cell_length_c       9.36813
_cell_angle_alpha    86.764
_cell_angle_beta     92.0422
_cell_angle_gamma    70.4689

_symmetry_Int_Tables_number  2
_chemical_formula_structural  CdH8C6O4
_chemical_formula_sum  CdH8C6O4
_cell_volume  160.2191732165527
_cell_formula_units_Z  1
loop_
  _symmetry_equiv_pos_site_id
 _symmetry_equiv_pos_as_xyz
 1  'x, y, z'
loop_
 _atom_site_type_symbol
 _atom_site_label
 _atom_site_symmetry_multiplicity
 _atom_site_fract_x
 _atom_site_fract_y
 _atom_site_fract_z
 _atom_site_fract_occupancy
 C  C1  1  0.96060  0.13405  0.99492  1
 C  C2  1  0.95978  0.31076  0.34361  1
 C  C3  1  0.08150  0.48725  0.45749  1
 C  C4  1  0.25045  0.30515  0.59718  1
 C  C5  1  0.25148  0.12852  0.24845  1
 C  C6  1  0.12978  0.95198  0.13459  1
 Cd  Cd1  1  0.60536  0.71956  0.79605  1
 H  H1  1  0.83904  0.15608  0.39814  1
 H  H2  1  0.46771  0.96183  0.31757  1
 H  H3  1  0.93286  0.85014  0.17535  1
 H  H4  1  0.37219  0.28320  0.19390  1
 H  H5  1  0.74358  0.47748  0.27449  1
 H  H6  1  0.27858  0.58895  0.41676  1
 H  H7  1  0.85198  0.68286  0.48570  1
 H  H8  1  0.35936  0.75646  0.10634  1
 O  O1  1  0.21633  0.44902  0.71211  1
 O  O2  1  -0.00549  0.99016  0.88001  1
 O  O3  1  0.41951  0.01849  0.59441  1
 O  O4  1  0.79156  0.42071  -0.00230  1
