CIF file written using JARVIS-Tools package.
data_NiO2
_symmetry_space_group_name_H-M  'C2'
_cell_length_a       2.82767
_cell_length_b       2.82757
_cell_length_c       9.23874
_cell_angle_alpha    72.5804
_cell_angle_beta     90.0002
_cell_angle_gamma    120.001

_symmetry_Int_Tables_number  5
_chemical_formula_structural  NiO2
_chemical_formula_sum  Ni2O4
_cell_volume  60.02685983504927
_cell_formula_units_Z  2
loop_
  _symmetry_equiv_pos_site_id
 _symmetry_equiv_pos_as_xyz
 1  'x, y, z'
loop_
 _atom_site_type_symbol
 _atom_site_label
 _atom_site_symmetry_multiplicity
 _atom_site_fract_x
 _atom_site_fract_y
 _atom_site_fract_z
 _atom_site_fract_occupancy
 Ni  Ni1  1  -0.00114  -0.00033  0.50202  1
 Ni  Ni2  1  -0.00330  -0.00019  0.00214  1
 O  O1  1  0.73632  0.47463  0.39354  1
 O  O2  1  0.59252  0.19142  0.11070  1
 O  O3  1  0.26138  0.52472  0.61050  1
 O  O4  1  0.40090  0.80820  0.89357  1
