CIF file written using JARVIS-Tools package.
data_Sr2CN2
_symmetry_space_group_name_H-M  'Cmme'
_cell_length_a       5.38076
_cell_length_b       6.04057
_cell_length_c       5.46985
_cell_angle_alpha    90
_cell_angle_beta     90
_cell_angle_gamma    116.448

_symmetry_Int_Tables_number  67
_chemical_formula_structural  Sr2CN2
_chemical_formula_sum  Sr4C2N4
_cell_volume  159.17827424487496
_cell_formula_units_Z  2
loop_
  _symmetry_equiv_pos_site_id
 _symmetry_equiv_pos_as_xyz
 1  'x, y, z'
loop_
 _atom_site_type_symbol
 _atom_site_label
 _atom_site_symmetry_multiplicity
 _atom_site_fract_x
 _atom_site_fract_y
 _atom_site_fract_z
 _atom_site_fract_occupancy
 C  C1  1  0.25000  0.50000  0.34701  1
 C  C2  1  0.75000  0.50000  0.65299  1
 N  N1  1  0.36495  0.72990  0.24451  1
 N  N2  1  0.63505  0.27010  0.75549  1
 N  N3  1  0.13505  0.27010  0.24451  1
 N  N4  1  0.86495  0.72990  0.75549  1
 Sr  Sr1  1  0.39518  0.79036  0.74457  1
 Sr  Sr2  1  0.60482  0.20964  0.25543  1
 Sr  Sr3  1  0.10482  0.20964  0.74457  1
 Sr  Sr4  1  0.89518  0.79036  0.25543  1
