CIF file written using JARVIS-Tools package.
data_La2Al6CuAu
_symmetry_space_group_name_H-M  'P4mm'
_cell_length_a       4.34251
_cell_length_b       4.34251
_cell_length_c       10.8089
_cell_angle_alpha    90
_cell_angle_beta     90
_cell_angle_gamma    90

_symmetry_Int_Tables_number  99
_chemical_formula_structural  La2Al6CuAu
_chemical_formula_sum  La2Al6CuAu
_cell_volume  203.82796173486545
_cell_formula_units_Z  1
loop_
  _symmetry_equiv_pos_site_id
 _symmetry_equiv_pos_as_xyz
 1  'x, y, z'
loop_
 _atom_site_type_symbol
 _atom_site_label
 _atom_site_symmetry_multiplicity
 _atom_site_fract_x
 _atom_site_fract_y
 _atom_site_fract_z
 _atom_site_fract_occupancy
 Al  Al1  1  0.50000  0.00000  0.24381  1
 Al  Al2  1  0.00000  0.50000  0.75509  1
 Al  Al3  1  0.00000  0.50000  0.24381  1
 Al  Al4  1  0.50000  0.00000  0.75509  1
 Al  Al5  1  0.00000  0.00000  0.39421  1
 Al  Al6  1  0.50000  0.50000  0.90684  1
 Au  Au1  1  0.00000  0.00000  0.62780  1
 Cu  Cu1  1  0.50000  0.50000  0.13157  1
 La  La1  1  0.00000  0.00000  0.99756  1
 La  La2  1  0.50000  0.50000  0.49021  1
