CIF file written using JARVIS-Tools package.
data_Cu3SbS4
_symmetry_space_group_name_H-M  'I-42m'
_cell_length_a       5.43851
_cell_length_b       5.43851
_cell_length_c       6.64718
_cell_angle_alpha    114.147
_cell_angle_beta     114.147
_cell_angle_gamma    90

_symmetry_Int_Tables_number  121
_chemical_formula_structural  Cu3SbS4
_chemical_formula_sum  Cu3SbS4
_cell_volume  160.36367160661032
_cell_formula_units_Z  1
loop_
  _symmetry_equiv_pos_site_id
 _symmetry_equiv_pos_as_xyz
 1  'x, y, z'
loop_
 _atom_site_type_symbol
 _atom_site_label
 _atom_site_symmetry_multiplicity
 _atom_site_fract_x
 _atom_site_fract_y
 _atom_site_fract_z
 _atom_site_fract_occupancy
 Cu  Cu1  1  0.75000  0.25000  0.50000  1
 Cu  Cu2  1  0.25000  0.75000  0.50000  1
 Cu  Cu3  1  0.50000  0.50000  -0.00000  1
 S  S1  1  0.13287  0.13287  0.73368  1
 S  S2  1  0.39919  0.86713  0.26632  1
 S  S3  1  0.86713  0.39919  0.26632  1
 S  S4  1  0.60081  0.60081  0.73368  1
 Sb  Sb1  1  0.00000  0.00000  0.00000  1
