CIF file written using JARVIS-Tools package.
data_Li2MnCoO4
_symmetry_space_group_name_H-M  'P2/m'
_cell_length_a       2.83729
_cell_length_b       4.95995
_cell_length_c       4.95549
_cell_angle_alpha    70.6219
_cell_angle_beta     90.012
_cell_angle_gamma    90.0228

_symmetry_Int_Tables_number  10
_chemical_formula_structural  Li2MnCoO4
_chemical_formula_sum  Li2MnCoO4
_cell_volume  65.7870197799445
_cell_formula_units_Z  1
loop_
  _symmetry_equiv_pos_site_id
 _symmetry_equiv_pos_as_xyz
 1  'x, y, z'
loop_
 _atom_site_type_symbol
 _atom_site_label
 _atom_site_symmetry_multiplicity
 _atom_site_fract_x
 _atom_site_fract_y
 _atom_site_fract_z
 _atom_site_fract_occupancy
 Co  Co1  1  -0.00000  0.50000  0.50000  1
 Li  Li1  1  0.50000  0.50000  -0.00000  1
 Li  Li2  1  0.00000  0.00000  0.00000  1
 Mn  Mn1  1  0.50000  0.00000  0.50000  1
 O  O1  1  0.00003  0.75663  0.72463  1
 O  O2  1  0.99997  0.24337  0.27537  1
 O  O3  1  0.49987  0.25807  0.72127  1
 O  O4  1  0.50013  0.74193  0.27873  1
