CIF file written using JARVIS-Tools package.
data_TeWSe
_symmetry_space_group_name_H-M  'P3m1'
_cell_length_a       3.4428
_cell_length_b       3.44281
_cell_length_c       23.0316
_cell_angle_alpha    90.0047
_cell_angle_beta     90
_cell_angle_gamma    120

_symmetry_Int_Tables_number  156
_chemical_formula_structural  TeWSe
_chemical_formula_sum  Te2W2Se2
_cell_volume  236.4174409688315
_cell_formula_units_Z  2
loop_
  _symmetry_equiv_pos_site_id
 _symmetry_equiv_pos_as_xyz
 1  'x, y, z'
loop_
 _atom_site_type_symbol
 _atom_site_label
 _atom_site_symmetry_multiplicity
 _atom_site_fract_x
 _atom_site_fract_y
 _atom_site_fract_z
 _atom_site_fract_occupancy
 Se  Se1  1  0.66659  0.33317  0.08033  1
 Se  Se2  1  0.66664  0.33327  0.22287  1
 Te  Te1  1  0.33342  0.66684  0.53135  1
 Te  Te2  1  0.33336  0.66672  0.36918  1
 W  W1  1  0.33328  0.66655  0.15154  1
 W  W2  1  0.66672  0.33345  0.45033  1
