CIF file written using JARVIS-Tools package.
data_TeMo2Se3
_symmetry_space_group_name_H-M  'P3m1'
_cell_length_a       3.38982
_cell_length_b       3.38982
_cell_length_c       13.4361
_cell_angle_alpha    90
_cell_angle_beta     90
_cell_angle_gamma    120

_symmetry_Int_Tables_number  156
_chemical_formula_structural  TeMo2Se3
_chemical_formula_sum  TeMo2Se3
_cell_volume  133.7077431211568
_cell_formula_units_Z  1
loop_
  _symmetry_equiv_pos_site_id
 _symmetry_equiv_pos_as_xyz
 1  'x, y, z'
loop_
 _atom_site_type_symbol
 _atom_site_label
 _atom_site_symmetry_multiplicity
 _atom_site_fract_x
 _atom_site_fract_y
 _atom_site_fract_z
 _atom_site_fract_occupancy
 Mo  Mo1  1  0.00000  0.00000  0.74514  1
 Mo  Mo2  1  0.66667  0.33333  0.26127  1
 Se  Se1  1  0.66667  0.33333  0.86840  1
 Se  Se2  1  0.66667  0.33333  0.62167  1
 Se  Se3  1  0.00000  0.00000  0.38341  1
 Te  Te1  1  0.00000  0.00000  0.12011  1
