CIF file written using JARVIS-Tools package.
data_Ga2CuAgSe4
_symmetry_space_group_name_H-M  'I-4'
_cell_length_a       6.99332
_cell_length_b       6.99331
_cell_length_c       6.99331
_cell_angle_alpha    130.715
_cell_angle_beta     130.715
_cell_angle_gamma    72.2656

_symmetry_Int_Tables_number  82
_chemical_formula_structural  Ga2CuAgSe4
_chemical_formula_sum  Ga2CuAgSe4
_cell_volume  192.09024469395274
_cell_formula_units_Z  1
loop_
  _symmetry_equiv_pos_site_id
 _symmetry_equiv_pos_as_xyz
 1  'x, y, z'
loop_
 _atom_site_type_symbol
 _atom_site_label
 _atom_site_symmetry_multiplicity
 _atom_site_fract_x
 _atom_site_fract_y
 _atom_site_fract_z
 _atom_site_fract_occupancy
 Ag  Ag1  1  0.25000  0.75000  0.50000  1
 Cu  Cu1  1  0.00000  0.00000  0.00000  1
 Ga  Ga1  1  0.75000  0.25000  0.50000  1
 Ga  Ga2  1  0.50000  0.50000  -0.00000  1
 Se  Se1  1  0.64594  0.62067  0.50363  1
 Se  Se2  1  0.11703  0.14231  0.49637  1
 Se  Se3  1  0.85769  0.35406  0.97472  1
 Se  Se4  1  0.37933  0.88297  0.02528  1
