CIF file written using JARVIS-Tools package.
data_MgZn3S4
_symmetry_space_group_name_H-M  'C2/m'
_cell_length_a       6.32478
_cell_length_b       6.32478
_cell_length_c       6.30251
_cell_angle_alpha    79.3618
_cell_angle_beta     79.3617
_cell_angle_gamma    33.5757

_symmetry_Int_Tables_number  12
_chemical_formula_structural  MgZn3S4
_chemical_formula_sum  MgZn3S4
_cell_volume  136.81474025209155
_cell_formula_units_Z  1
loop_
  _symmetry_equiv_pos_site_id
 _symmetry_equiv_pos_as_xyz
 1  'x, y, z'
loop_
 _atom_site_type_symbol
 _atom_site_label
 _atom_site_symmetry_multiplicity
 _atom_site_fract_x
 _atom_site_fract_y
 _atom_site_fract_z
 _atom_site_fract_occupancy
 Mg  Mg1  1  0.00000  0.00000  0.00000  1
 S  S1  1  0.87615  0.87615  0.39700  1
 S  S2  1  0.12385  0.12385  0.60300  1
 S  S3  1  0.37194  0.37194  0.89497  1
 S  S4  1  0.62806  0.62806  0.10503  1
 Zn  Zn1  1  0.24635  0.24635  0.24821  1
 Zn  Zn2  1  0.50000  0.50000  0.50000  1
 Zn  Zn3  1  0.75365  0.75365  0.75179  1
