CIF file written using JARVIS-Tools package.
data_VPd4
_symmetry_space_group_name_H-M  'R-3m'
_cell_length_a       11.3415
_cell_length_b       11.3415
_cell_length_c       11.3415
_cell_angle_alpha    13.9799
_cell_angle_beta     13.98
_cell_angle_gamma    13.9799

_symmetry_Int_Tables_number  166
_chemical_formula_structural  VPd4
_chemical_formula_sum  VPd4
_cell_volume  74.09978756869148
_cell_formula_units_Z  1
loop_
  _symmetry_equiv_pos_site_id
 _symmetry_equiv_pos_as_xyz
 1  'x, y, z'
loop_
 _atom_site_type_symbol
 _atom_site_label
 _atom_site_symmetry_multiplicity
 _atom_site_fract_x
 _atom_site_fract_y
 _atom_site_fract_z
 _atom_site_fract_occupancy
 Pd  Pd1  1  0.60422  0.60422  0.60422  1
 Pd  Pd2  1  0.20114  0.20114  0.20114  1
 Pd  Pd3  1  0.79886  0.79886  0.79886  1
 Pd  Pd4  1  0.39578  0.39578  0.39578  1
 V  V1  1  0.00000  0.00000  0.00000  1
