CIF file written using JARVIS-Tools package.
data_LaGaSb2
_symmetry_space_group_name_H-M  'C222_1'
_cell_length_a       11.7666
_cell_length_b       11.7666
_cell_length_c       4.42783
_cell_angle_alpha    90
_cell_angle_beta     90
_cell_angle_gamma    158.383

_symmetry_Int_Tables_number  20
_chemical_formula_structural  LaGaSb2
_chemical_formula_sum  La2Ga2Sb4
_cell_volume  225.84799563850115
_cell_formula_units_Z  2
loop_
  _symmetry_equiv_pos_site_id
 _symmetry_equiv_pos_as_xyz
 1  'x, y, z'
loop_
 _atom_site_type_symbol
 _atom_site_label
 _atom_site_symmetry_multiplicity
 _atom_site_fract_x
 _atom_site_fract_y
 _atom_site_fract_z
 _atom_site_fract_occupancy
 Ga  Ga1  1  0.15433  0.15433  0.00000  1
 Ga  Ga2  1  0.84567  0.84567  0.50000  1
 La  La1  1  0.86274  0.13726  0.25000  1
 La  La2  1  0.13726  0.86274  0.75000  1
 Sb  Sb1  1  0.58978  0.41022  0.25000  1
 Sb  Sb2  1  0.41022  0.58978  0.75000  1
 Sb  Sb3  1  0.24979  0.75021  0.25000  1
 Sb  Sb4  1  0.75021  0.24979  0.75000  1
