CIF file written using JARVIS-Tools package.
data_NaFeO3
_symmetry_space_group_name_H-M  'R-3'
_cell_length_a       4.95747
_cell_length_b       4.95747
_cell_length_c       5.9332
_cell_angle_alpha    65.3072
_cell_angle_beta     90.0002
_cell_angle_gamma    59.9995

_symmetry_Int_Tables_number  148
_chemical_formula_structural  NaFeO3
_chemical_formula_sum  Na2Fe2O6
_cell_volume  110.61692952433873
_cell_formula_units_Z  2
loop_
  _symmetry_equiv_pos_site_id
 _symmetry_equiv_pos_as_xyz
 1  'x, y, z'
loop_
 _atom_site_type_symbol
 _atom_site_label
 _atom_site_symmetry_multiplicity
 _atom_site_fract_x
 _atom_site_fract_y
 _atom_site_fract_z
 _atom_site_fract_occupancy
 Fe  Fe1  1  0.83936  0.32129  0.51806  1
 Fe  Fe2  1  0.16064  0.67871  0.48194  1
 Na  Na1  1  0.64362  0.71276  0.93089  1
 Na  Na2  1  0.35638  0.28724  0.06911  1
 O  O1  1  0.43800  0.74537  0.29883  1
 O  O2  1  0.18337  0.86084  0.70117  1
 O  O3  1  0.95579  0.48222  0.70116  1
 O  O4  1  0.04421  0.51778  0.29884  1
 O  O5  1  0.81664  0.13916  0.29883  1
 O  O6  1  0.56200  0.25463  0.70117  1
