CIF file written using JARVIS-Tools package.
data_H8C7S
_symmetry_space_group_name_H-M  'P1'
_cell_length_a       5.95416
_cell_length_b       7.57926
_cell_length_c       7.73791
_cell_angle_alpha    113.489
_cell_angle_beta     88.9376
_cell_angle_gamma    107.723

_symmetry_Int_Tables_number  1
_chemical_formula_structural  H8C7S
_chemical_formula_sum  H6C4S2
_cell_volume  302.94325150200143
_cell_formula_units_Z  2
loop_
  _symmetry_equiv_pos_site_id
 _symmetry_equiv_pos_as_xyz
 1  'x, y, z'
loop_
 _atom_site_type_symbol
 _atom_site_label
 _atom_site_symmetry_multiplicity
 _atom_site_fract_x
 _atom_site_fract_y
 _atom_site_fract_z
 _atom_site_fract_occupancy
 C  C1  1  0.74267  0.72114  0.75460  1
 C  C2  1  0.89399  0.72304  0.16087  1
 C  C3  1  0.89449  0.72458  0.34704  1
 C  C4  1  0.68925  0.73930  0.09977  1
 C  C5  1  0.69068  0.74330  0.42706  1
 C  C6  1  0.60698  0.76157  0.61527  1
 C  C7  1  0.61085  0.76506  0.93124  1
 C  C8  1  0.39491  0.22358  0.15966  1
 C  C9  1  0.39532  0.22504  0.34580  1
 C  C10  1  0.18994  0.23935  0.09835  1
 C  C11  1  0.19122  0.24319  0.42558  1
 C  C12  1  0.11163  0.26531  0.92991  1
 C  C13  1  0.10740  0.26133  0.61374  1
 C  C14  1  0.24311  0.22094  0.75309  1
 H  H1  1  0.43050  0.32014  0.78885  1
 H  H2  1  0.24278  0.06193  0.69082  1
 H  H3  1  0.92200  0.17299  0.88334  1
 H  H4  1  0.92199  0.15827  0.58686  1
 H  H5  1  0.54265  0.21240  0.41655  1
 H  H6  1  0.54620  0.22006  0.07799  1
 H  H7  1  0.11240  0.42421  0.98000  1
 H  H8  1  0.09485  0.41640  0.68971  1
 H  H9  1  0.74267  0.56221  0.69219  1
 H  H10  1  0.92997  0.82056  0.79059  1
 H  H11  1  0.42136  0.67234  0.88447  1
 H  H12  1  0.42152  0.65861  0.58846  1
 H  H13  1  0.04163  0.71153  0.41761  1
 H  H14  1  0.04506  0.71901  0.07899  1
 H  H15  1  0.61104  0.92381  0.98129  1
 H  H16  1  0.59454  0.91667  0.69124  1
 S  S1  1  -0.00068  0.25777  0.27104  1
 S  S2  1  0.49894  0.75835  0.27272  1
