CIF file written using JARVIS-Tools package.
data_AlAgS2
_symmetry_space_group_name_H-M  'I-42d'
_cell_length_a       5.73098
_cell_length_b       5.73098
_cell_length_c       6.60841
_cell_angle_alpha    115.697
_cell_angle_beta     115.697
_cell_angle_gamma    90

_symmetry_Int_Tables_number  122
_chemical_formula_structural  AlAgS2
_chemical_formula_sum  Al2Ag2S4
_cell_volume  171.44803954918066
_cell_formula_units_Z  2
loop_
  _symmetry_equiv_pos_site_id
 _symmetry_equiv_pos_as_xyz
 1  'x, y, z'
loop_
 _atom_site_type_symbol
 _atom_site_label
 _atom_site_symmetry_multiplicity
 _atom_site_fract_x
 _atom_site_fract_y
 _atom_site_fract_z
 _atom_site_fract_occupancy
 Ag  Ag1  1  0.25000  0.75000  0.50000  1
 Ag  Ag2  1  0.00000  0.00000  0.00000  1
 Al  Al1  1  0.50000  0.50000  0.00000  1
 Al  Al2  1  0.75000  0.25000  0.50000  1
 S  S1  1  0.83148  0.87500  0.25000  1
 S  S2  1  0.62500  0.16852  0.75000  1
 S  S3  1  0.41852  0.37500  0.25000  1
 S  S4  1  0.12500  0.58148  0.75000  1
