CIF file written using JARVIS-Tools package.
data_CdH20C12O4
_symmetry_space_group_name_H-M  'P1'
_cell_length_a       4.18723
_cell_length_b       4.26811
_cell_length_c       16.543
_cell_angle_alpha    94.8724
_cell_angle_beta     88.5081
_cell_angle_gamma    78.8396

_symmetry_Int_Tables_number  1
_chemical_formula_structural  CdH20C12O4
_chemical_formula_sum  CdH20C2O4
_cell_volume  288.7369084869039
_cell_formula_units_Z  1
loop_
  _symmetry_equiv_pos_site_id
 _symmetry_equiv_pos_as_xyz
 1  'x, y, z'
loop_
 _atom_site_type_symbol
 _atom_site_label
 _atom_site_symmetry_multiplicity
 _atom_site_fract_x
 _atom_site_fract_y
 _atom_site_fract_z
 _atom_site_fract_occupancy
 C  C1  1  0.91119  0.45419  0.60941  1
 C  C2  1  0.57637  0.34623  0.26511  1
 C  C3  1  0.36019  0.52543  0.33548  1
 C  C4  1  0.66709  0.47122  0.46842  1
 C  C5  1  0.79081  0.65701  0.54028  1
 C  C6  1  0.52796  0.68850  0.40356  1
 C  C7  1  0.02135  0.65006  0.68147  1
 C  C8  1  0.13556  0.45409  0.75227  1
 C  C9  1  0.24022  0.65549  0.82406  1
 C  C10  1  0.34290  0.46487  0.89649  1
 C  C11  1  0.44253  0.67768  0.96755  1
 C  C12  1  0.50189  0.49692  0.04252  1
 Cd  Cd1  1  0.05408  0.08487  0.14765  1
 H  H1  1  0.47585  0.35140  0.49074  1
 H  H2  1  0.19061  0.71043  0.30742  1
 H  H3  1  0.71557  0.33650  0.63024  1
 H  H4  1  0.21214  0.36548  0.35902  1
 H  H5  1  0.93821  0.33806  0.77288  1
 H  H6  1  0.86388  0.27680  0.44169  1
 H  H7  1  0.71719  0.79952  0.37711  1
 H  H8  1  0.24809  0.88988  0.98139  1
 H  H9  1  0.44162  0.76719  0.80397  1
 H  H10  1  0.03723  0.85595  0.84401  1
 H  H11  1  0.21858  0.76602  0.66080  1
 H  H12  1  0.11397  0.25826  0.58653  1
 H  H13  1  0.81844  0.84775  0.70338  1
 H  H14  1  0.59194  0.85498  0.56442  1
 H  H15  1  0.66553  0.76052  0.95051  1
 H  H16  1  0.34511  0.88745  0.43390  1
 H  H17  1  0.54750  0.26484  0.87822  1
 H  H18  1  0.13977  0.35748  0.91725  1
 H  H19  1  0.33980  0.25700  0.73097  1
 H  H20  1  -0.01337  0.77298  0.51892  1
 O  O1  1  0.51225  0.09344  0.22599  1
 O  O2  1  0.29664  0.57574  0.10410  1
 O  O3  1  0.82477  0.45561  0.24456  1
 O  O4  1  0.74179  0.26235  0.03983  1
