CIF file written using JARVIS-Tools package.
data_Na2O
_symmetry_space_group_name_H-M  'P-62m'
_cell_length_a       6.11727
_cell_length_b       6.11727
_cell_length_c       3.59975
_cell_angle_alpha    90
_cell_angle_beta     90
_cell_angle_gamma    120

_symmetry_Int_Tables_number  189
_chemical_formula_structural  Na2O
_chemical_formula_sum  Na6O3
_cell_volume  116.65921660143215
_cell_formula_units_Z  3
loop_
  _symmetry_equiv_pos_site_id
 _symmetry_equiv_pos_as_xyz
 1  'x, y, z'
loop_
 _atom_site_type_symbol
 _atom_site_label
 _atom_site_symmetry_multiplicity
 _atom_site_fract_x
 _atom_site_fract_y
 _atom_site_fract_z
 _atom_site_fract_occupancy
 Na  Na1  1  0.41395  -0.00000  0.00000  1
 Na  Na2  1  0.26018  0.26018  0.50000  1
 Na  Na3  1  -0.00000  0.73982  0.50000  1
 Na  Na4  1  -0.00000  0.41395  0.00000  1
 Na  Na5  1  0.73982  -0.00000  0.50000  1
 Na  Na6  1  0.58605  0.58605  0.00000  1
 O  O1  1  0.33333  0.66667  0.50000  1
 O  O2  1  0.00000  0.00000  0.00000  1
 O  O3  1  0.66667  0.33333  0.50000  1
