CIF file written using JARVIS-Tools package.
data_SnH18C10O4
_symmetry_space_group_name_H-M  'P1'
_cell_length_a       5.15535
_cell_length_b       6.47441
_cell_length_c       9.38829
_cell_angle_alpha    99.3673
_cell_angle_beta     92.4893
_cell_angle_gamma    90.5932

_symmetry_Int_Tables_number  1
_chemical_formula_structural  SnH18C10O4
_chemical_formula_sum  SnH8C0O4
_cell_volume  308.8419482837643
_cell_formula_units_Z  1
loop_
  _symmetry_equiv_pos_site_id
 _symmetry_equiv_pos_as_xyz
 1  'x, y, z'
loop_
 _atom_site_type_symbol
 _atom_site_label
 _atom_site_symmetry_multiplicity
 _atom_site_fract_x
 _atom_site_fract_y
 _atom_site_fract_z
 _atom_site_fract_occupancy
 C  C1  1  0.21633  0.77492  0.21644  1
 C  C2  1  0.83195  0.15705  0.47765  1
 C  C3  1  0.46162  0.62246  0.55679  1
 C  C4  1  0.56588  0.03481  0.83522  1
 C  C5  1  0.17455  0.64214  0.33504  1
 C  C6  1  0.27629  0.75635  0.48688  1
 C  C7  1  0.43523  0.90810  0.93398  1
 C  C8  1  0.56820  0.95025  0.08639  1
 C  C9  1  0.50245  0.78659  0.18059  1
 C  C10  1  0.91464  0.50689  0.86623  1
 H  H1  1  0.96813  0.60318  0.34093  1
 H  H2  1  0.56015  0.63034  0.12660  1
 H  H3  1  0.77930  0.95623  0.07529  1
 H  H4  1  0.62290  0.81942  0.28147  1
 H  H5  1  0.45353  0.74147  0.88797  1
 H  H6  1  0.37677  0.90302  0.47698  1
 H  H7  1  0.11323  0.79266  0.55714  1
 H  H8  1  0.70293  0.20238  0.39256  1
 H  H9  1  0.27418  0.49178  0.30642  1
 H  H10  1  0.81643  0.98963  0.48120  1
 H  H11  1  0.09934  0.70901  0.11865  1
 H  H12  1  0.10803  0.44008  0.87312  1
 H  H13  1  0.92385  0.67171  0.85365  1
 H  H14  1  0.80487  0.48334  0.95977  1
 H  H15  1  0.03246  0.20439  0.46350  1
 H  H16  1  0.14431  0.93430  0.25171  1
 H  H17  1  0.22796  0.94391  0.93450  1
 H  H18  1  0.51309  0.10707  0.14087  1
 O  O1  1  0.42371  0.16147  0.77138  1
 O  O2  1  0.70487  0.63980  0.55141  1
 O  O3  1  0.80640  0.02671  0.81646  1
 O  O4  1  0.36495  0.47672  0.62100  1
 Sn  Sn1  1  0.72399  0.32832  0.67947  1
