CIF file written using JARVIS-Tools package.
data_KTlI3
_symmetry_space_group_name_H-M  'Pm-3m'
_cell_length_a       8.73072
_cell_length_b       8.73072
_cell_length_c       8.73072
_cell_angle_alpha    60
_cell_angle_beta     60
_cell_angle_gamma    60

_symmetry_Int_Tables_number  221
_chemical_formula_structural  KTlI3
_chemical_formula_sum  K2Tl2I6
_cell_volume  470.5812663601362
_cell_formula_units_Z  2
loop_
  _symmetry_equiv_pos_site_id
 _symmetry_equiv_pos_as_xyz
 1  'x, y, z'
loop_
 _atom_site_type_symbol
 _atom_site_label
 _atom_site_symmetry_multiplicity
 _atom_site_fract_x
 _atom_site_fract_y
 _atom_site_fract_z
 _atom_site_fract_occupancy
 I  I1  1  0.75002  0.24998  0.24998  1
 I  I2  1  0.24998  0.24998  0.75002  1
 I  I3  1  0.24998  0.75002  0.75002  1
 I  I4  1  0.24998  0.75002  0.24998  1
 I  I5  1  0.75002  0.24998  0.75002  1
 I  I6  1  0.75002  0.75002  0.24998  1
 K  K1  1  0.75000  0.75000  0.75000  1
 K  K2  1  0.25000  0.25000  0.25000  1
 Tl  Tl1  1  0.50000  0.50000  0.50000  1
 Tl  Tl2  1  0.00000  0.00000  0.00000  1
