CIF file written using JARVIS-Tools package.
data_H6C7SO
_symmetry_space_group_name_H-M  'P1'
_cell_length_a       4.43029
_cell_length_b       5.64703
_cell_length_c       6.75922
_cell_angle_alpha    64.2699
_cell_angle_beta     90.2799
_cell_angle_gamma    76.6939

_symmetry_Int_Tables_number  1
_chemical_formula_structural  H6C7SO
_chemical_formula_sum  H6C7SO
_cell_volume  147.1824637677306
_cell_formula_units_Z  1
loop_
  _symmetry_equiv_pos_site_id
 _symmetry_equiv_pos_as_xyz
 1  'x, y, z'
loop_
 _atom_site_type_symbol
 _atom_site_label
 _atom_site_symmetry_multiplicity
 _atom_site_fract_x
 _atom_site_fract_y
 _atom_site_fract_z
 _atom_site_fract_occupancy
 C  C1  1  0.34292  0.90052  0.86442  1
 C  C2  1  0.10382  0.04307  0.68463  1
 C  C3  1  0.50584  0.65173  0.87903  1
 C  C4  1  0.08281  0.90229  0.56220  1
 C  C5  1  0.76483  0.43930  0.04933  1
 C  C6  1  0.87653  0.97162  0.36772  1
 C  C7  1  0.63979  0.24682  0.25760  1
 H  H1  1  0.58111  0.34269  0.36784  1
 H  H2  1  0.90505  0.31555  0.97742  1
 H  H3  1  0.95251  0.24403  0.64189  1
 H  H4  1  0.40079  0.97216  0.98180  1
 H  H5  1  0.91567  0.53838  0.09889  1
 H  H6  1  0.42655  0.20987  0.20658  1
 O  O1  1  0.89817  0.81156  0.28366  1
 S  S1  1  0.36409  0.59271  0.67148  1
