CIF file written using JARVIS-Tools package.
data_MgZnS2
_symmetry_space_group_name_H-M  'P-4m2'
_cell_length_a       3.9223
_cell_length_b       3.9223
_cell_length_c       5.5603
_cell_angle_alpha    90
_cell_angle_beta     90
_cell_angle_gamma    90

_symmetry_Int_Tables_number  115
_chemical_formula_structural  MgZnS2
_chemical_formula_sum  MgZnS2
_cell_volume  85.54209348136979
_cell_formula_units_Z  1
loop_
  _symmetry_equiv_pos_site_id
 _symmetry_equiv_pos_as_xyz
 1  'x, y, z'
loop_
 _atom_site_type_symbol
 _atom_site_label
 _atom_site_symmetry_multiplicity
 _atom_site_fract_x
 _atom_site_fract_y
 _atom_site_fract_z
 _atom_site_fract_occupancy
 Mg  Mg1  1  0.50000  0.50000  0.50000  1
 S  S1  1  0.00000  0.50000  0.23986  1
 S  S2  1  0.50000  0.00000  0.76014  1
 Zn  Zn1  1  0.00000  0.00000  0.00000  1
