CIF file written using JARVIS-Tools package.
data_Nb3Al2Mo3
_symmetry_space_group_name_H-M  'R32'
_cell_length_a       5.08851
_cell_length_b       5.08851
_cell_length_c       5.08851
_cell_angle_alpha    90.1259
_cell_angle_beta     90.1259
_cell_angle_gamma    90.126

_symmetry_Int_Tables_number  155
_chemical_formula_structural  Nb3Al2Mo3
_chemical_formula_sum  Nb3Al2Mo3
_cell_volume  131.75555846504284
_cell_formula_units_Z  1
loop_
  _symmetry_equiv_pos_site_id
 _symmetry_equiv_pos_as_xyz
 1  'x, y, z'
loop_
 _atom_site_type_symbol
 _atom_site_label
 _atom_site_symmetry_multiplicity
 _atom_site_fract_x
 _atom_site_fract_y
 _atom_site_fract_z
 _atom_site_fract_occupancy
 Al  Al1  1  0.75306  0.75306  0.75306  1
 Al  Al2  1  0.24694  0.24694  0.24694  1
 Mo  Mo1  1  -0.00000  0.25050  0.74950  1
 Mo  Mo2  1  0.25050  0.74950  0.00000  1
 Mo  Mo3  1  0.74950  0.00000  0.25050  1
 Nb  Nb1  1  0.50000  0.24774  0.75226  1
 Nb  Nb2  1  0.24774  0.75226  0.50000  1
 Nb  Nb3  1  0.75226  0.50000  0.24774  1
