CIF file written using JARVIS-Tools package.
data_CrB4
_symmetry_space_group_name_H-M  'Immm'
_cell_length_a       2.85948
_cell_length_b       3.90304
_cell_length_c       3.90304
_cell_angle_alpha    75.2677
_cell_angle_beta     68.5115
_cell_angle_gamma    68.5115

_symmetry_Int_Tables_number  71
_chemical_formula_structural  CrB4
_chemical_formula_sum  CrB4
_cell_volume  37.35068732132829
_cell_formula_units_Z  1
loop_
  _symmetry_equiv_pos_site_id
 _symmetry_equiv_pos_as_xyz
 1  'x, y, z'
loop_
 _atom_site_type_symbol
 _atom_site_label
 _atom_site_symmetry_multiplicity
 _atom_site_fract_x
 _atom_site_fract_y
 _atom_site_fract_z
 _atom_site_fract_occupancy
 B  B1  1  0.65778  0.53788  0.14655  1
 B  B2  1  0.65778  0.14655  0.53788  1
 B  B3  1  0.34222  0.85345  0.46212  1
 B  B4  1  0.34222  0.46212  0.85345  1
 Cr  Cr1  1  0.00000  0.00000  0.00000  1
