CIF file written using JARVIS-Tools package.
data_Ca4GaSn3
_symmetry_space_group_name_H-M  'Pmm2'
_cell_length_a       4.37432
_cell_length_b       4.68156
_cell_length_c       11.3749
_cell_angle_alpha    90
_cell_angle_beta     90
_cell_angle_gamma    90

_symmetry_Int_Tables_number  25
_chemical_formula_structural  Ca4GaSn3
_chemical_formula_sum  Ca4GaSn3
_cell_volume  232.9426409436137
_cell_formula_units_Z  1
loop_
  _symmetry_equiv_pos_site_id
 _symmetry_equiv_pos_as_xyz
 1  'x, y, z'
loop_
 _atom_site_type_symbol
 _atom_site_label
 _atom_site_symmetry_multiplicity
 _atom_site_fract_x
 _atom_site_fract_y
 _atom_site_fract_z
 _atom_site_fract_occupancy
 Ca  Ca1  1  0.00000  0.00000  0.35739  1
 Ca  Ca2  1  0.00000  0.50000  0.86939  1
 Ca  Ca3  1  0.50000  0.50000  0.13155  1
 Ca  Ca4  1  0.50000  0.00000  0.63759  1
 Ga  Ga1  1  0.00000  0.00000  0.08213  1
 Sn  Sn1  1  0.00000  0.50000  0.58475  1
 Sn  Sn2  1  0.50000  0.50000  0.41341  1
 Sn  Sn3  1  0.50000  0.00000  0.92378  1
