CIF file written using JARVIS-Tools package.
data_Nd2Al3Ga
_symmetry_space_group_name_H-M  'R-3m'
_cell_length_a       5.68859
_cell_length_b       5.6886
_cell_length_c       5.6886
_cell_angle_alpha    59.4975
_cell_angle_beta     59.4975
_cell_angle_gamma    59.4975

_symmetry_Int_Tables_number  166
_chemical_formula_structural  Nd2Al3Ga
_chemical_formula_sum  Nd2Al3Ga
_cell_volume  128.67934985965294
_cell_formula_units_Z  1
loop_
  _symmetry_equiv_pos_site_id
 _symmetry_equiv_pos_as_xyz
 1  'x, y, z'
loop_
 _atom_site_type_symbol
 _atom_site_label
 _atom_site_symmetry_multiplicity
 _atom_site_fract_x
 _atom_site_fract_y
 _atom_site_fract_z
 _atom_site_fract_occupancy
 Al  Al1  1  0.50000  -0.00000  0.50000  1
 Al  Al2  1  -0.00000  0.50000  0.50000  1
 Al  Al3  1  0.50000  0.50000  -0.00000  1
 Ga  Ga1  1  0.50000  0.50000  0.50000  1
 Nd  Nd1  1  0.12433  0.12433  0.12433  1
 Nd  Nd2  1  0.87567  0.87567  0.87567  1
