CIF file written using JARVIS-Tools package.
data_Na2IrO3
_symmetry_space_group_name_H-M  'C2/m'
_cell_length_a       5.50152
_cell_length_b       5.50151
_cell_length_c       5.57439
_cell_angle_alpha    99.6453
_cell_angle_beta     99.6472
_cell_angle_gamma    119.881

_symmetry_Int_Tables_number  12
_chemical_formula_structural  Na2IrO3
_chemical_formula_sum  Na4Ir2O6
_cell_volume  137.86152857019485
_cell_formula_units_Z  2
loop_
  _symmetry_equiv_pos_site_id
 _symmetry_equiv_pos_as_xyz
 1  'x, y, z'
loop_
 _atom_site_type_symbol
 _atom_site_label
 _atom_site_symmetry_multiplicity
 _atom_site_fract_x
 _atom_site_fract_y
 _atom_site_fract_z
 _atom_site_fract_occupancy
 Ir  Ir1  1  0.66724  0.83317  0.00016  1
 Ir  Ir2  1  0.33324  0.16718  0.00017  1
 Na  Na1  1  0.50026  0.00014  0.50016  1
 Na  Na2  1  0.84100  0.65943  0.50016  1
 Na  Na3  1  0.15951  0.34092  0.50016  1
 Na  Na4  1  0.00023  0.50017  0.00015  1
 O  O1  1  0.56411  0.43029  0.79297  1
 O  O2  1  0.43636  0.57006  0.20736  1
 O  O3  1  0.70646  0.20640  0.20896  1
 O  O4  1  0.93036  0.06405  0.79297  1
 O  O5  1  0.07012  0.93629  0.20736  1
 O  O6  1  0.29402  0.79395  0.79138  1
