CIF file written using JARVIS-Tools package.
data_YTmO3
_symmetry_space_group_name_H-M  'Pnma'
_cell_length_a       5.61285
_cell_length_b       5.88923
_cell_length_c       8.30718
_cell_angle_alpha    90
_cell_angle_beta     90
_cell_angle_gamma    90

_symmetry_Int_Tables_number  62
_chemical_formula_structural  YTmO3
_chemical_formula_sum  Y4Tm4O2
_cell_volume  274.59697969465515
_cell_formula_units_Z  4
loop_
  _symmetry_equiv_pos_site_id
 _symmetry_equiv_pos_as_xyz
 1  'x, y, z'
loop_
 _atom_site_type_symbol
 _atom_site_label
 _atom_site_symmetry_multiplicity
 _atom_site_fract_x
 _atom_site_fract_y
 _atom_site_fract_z
 _atom_site_fract_occupancy
 O  O1  1  0.68594  0.31024  0.07867  1
 O  O2  1  0.14758  0.42306  0.25000  1
 O  O3  1  0.81406  0.81024  0.42133  1
 O  O4  1  0.18594  0.18976  0.92133  1
 O  O5  1  0.31406  0.68976  0.92133  1
 O  O6  1  0.18594  0.18976  0.57867  1
 O  O7  1  0.35242  0.92306  0.25000  1
 O  O8  1  0.64758  0.07694  0.75000  1
 O  O9  1  0.68594  0.31024  0.42133  1
 O  O10  1  0.85242  0.57694  0.75000  1
 O  O11  1  0.81406  0.81024  0.07867  1
 O  O12  1  0.31406  0.68976  0.57867  1
 Tm  Tm1  1  0.50000  0.00000  0.50000  1
 Tm  Tm2  1  0.50000  0.00000  0.00000  1
 Tm  Tm3  1  0.00000  0.50000  0.50000  1
 Tm  Tm4  1  0.00000  0.50000  0.00000  1
 Y  Y1  1  0.97954  0.05661  0.25000  1
 Y  Y2  1  0.52046  0.55661  0.25000  1
 Y  Y3  1  0.47954  0.44339  0.75000  1
 Y  Y4  1  0.02046  0.94339  0.75000  1
