CIF file written using JARVIS-Tools package.
data_TaAlSi
_symmetry_space_group_name_H-M  'P3_212'
_cell_length_a       4.91623
_cell_length_b       4.91623
_cell_length_c       6.77423
_cell_angle_alpha    90
_cell_angle_beta     90
_cell_angle_gamma    120

_symmetry_Int_Tables_number  153
_chemical_formula_structural  TaAlSi
_chemical_formula_sum  Ta3Al3Si3
_cell_volume  141.79295946337913
_cell_formula_units_Z  3
loop_
  _symmetry_equiv_pos_site_id
 _symmetry_equiv_pos_as_xyz
 1  'x, y, z'
loop_
 _atom_site_type_symbol
 _atom_site_label
 _atom_site_symmetry_multiplicity
 _atom_site_fract_x
 _atom_site_fract_y
 _atom_site_fract_z
 _atom_site_fract_occupancy
 Al  Al1  1  0.34870  0.17435  0.50000  1
 Al  Al2  1  0.82565  0.17435  0.16667  1
 Al  Al3  1  0.82565  0.65130  0.83333  1
 Si  Si1  1  0.69048  0.84524  0.50000  1
 Si  Si2  1  0.15476  0.84524  0.16667  1
 Si  Si3  1  0.15476  0.30952  0.83333  1
 Ta  Ta1  1  0.03569  0.51785  0.50000  1
 Ta  Ta2  1  0.48215  0.51785  0.16667  1
 Ta  Ta3  1  0.48215  0.96431  0.83333  1
