CIF file written using JARVIS-Tools package.
data_RbCuO2
_symmetry_space_group_name_H-M  'Cmcm'
_cell_length_a       4.74475
_cell_length_b       5.50234
_cell_length_c       6.44141
_cell_angle_alpha    90
_cell_angle_beta     111.611
_cell_angle_gamma    90

_symmetry_Int_Tables_number  63
_chemical_formula_structural  RbCuO2
_chemical_formula_sum  Rb2Cu2O4
_cell_volume  156.34604718462384
_cell_formula_units_Z  2
loop_
  _symmetry_equiv_pos_site_id
 _symmetry_equiv_pos_as_xyz
 1  'x, y, z'
loop_
 _atom_site_type_symbol
 _atom_site_label
 _atom_site_symmetry_multiplicity
 _atom_site_fract_x
 _atom_site_fract_y
 _atom_site_fract_z
 _atom_site_fract_occupancy
 Cu  Cu1  1  0.99754  0.25000  0.99507  1
 Cu  Cu2  1  0.00246  0.75000  0.00493  1
 O  O1  1  0.89734  0.50440  0.79468  1
 O  O2  1  0.10266  0.49560  0.20532  1
 O  O3  1  0.89734  0.99560  0.79468  1
 O  O4  1  0.10266  0.00440  0.20532  1
 Rb  Rb1  1  0.30641  0.75000  0.61282  1
 Rb  Rb2  1  0.69359  0.25000  0.38718  1
