CIF file written using JARVIS-Tools package.
data_Pr3GaO6
_symmetry_space_group_name_H-M  'Cmc2_1'
_cell_length_a       7.48247
_cell_length_b       7.48247
_cell_length_c       5.67374
_cell_angle_alpha    90
_cell_angle_beta     90
_cell_angle_gamma    77.202

_symmetry_Int_Tables_number  36
_chemical_formula_structural  Pr3GaO6
_chemical_formula_sum  Pr6Ga2O2
_cell_volume  309.7659880044935
_cell_formula_units_Z  2
loop_
  _symmetry_equiv_pos_site_id
 _symmetry_equiv_pos_as_xyz
 1  'x, y, z'
loop_
 _atom_site_type_symbol
 _atom_site_label
 _atom_site_symmetry_multiplicity
 _atom_site_fract_x
 _atom_site_fract_y
 _atom_site_fract_z
 _atom_site_fract_occupancy
 Ga  Ga1  1  0.19156  0.19156  0.00698  1
 Ga  Ga2  1  0.80844  0.80844  0.50698  1
 O  O1  1  0.41378  0.10599  0.17398  1
 O  O2  1  0.35377  0.67220  0.20376  1
 O  O3  1  0.67220  0.35377  0.20376  1
 O  O4  1  0.10599  0.41378  0.17398  1
 O  O5  1  0.58622  0.89401  0.67398  1
 O  O6  1  0.32780  0.64623  0.70376  1
 O  O7  1  0.21539  0.21539  0.68181  1
 O  O8  1  0.95829  0.95829  0.63724  1
 O  O9  1  0.64623  0.32780  0.70376  1
 O  O10  1  0.04171  0.04171  0.13724  1
 O  O11  1  0.89401  0.58622  0.67398  1
 O  O12  1  0.78461  0.78461  0.18181  1
 Pr  Pr1  1  0.70105  0.08657  0.97346  1
 Pr  Pr2  1  0.91343  0.29895  0.47346  1
 Pr  Pr3  1  0.60441  0.60441  0.93039  1
 Pr  Pr4  1  0.39559  0.39559  0.43039  1
 Pr  Pr5  1  0.08657  0.70105  0.97346  1
 Pr  Pr6  1  0.29895  0.91343  0.47346  1
