CIF file written using JARVIS-Tools package.
data_Cr4Cu3Te8
_symmetry_space_group_name_H-M  'Imm2'
_cell_length_a       8.01668
_cell_length_b       8.01669
_cell_length_c       8.06272
_cell_angle_alpha    59.8099
_cell_angle_beta     59.8099
_cell_angle_gamma    60.2298

_symmetry_Int_Tables_number  44
_chemical_formula_structural  Cr4Cu3Te8
_chemical_formula_sum  Cr4Cu3Te8
_cell_volume  365.9712079275837
_cell_formula_units_Z  1
loop_
  _symmetry_equiv_pos_site_id
 _symmetry_equiv_pos_as_xyz
 1  'x, y, z'
loop_
 _atom_site_type_symbol
 _atom_site_label
 _atom_site_symmetry_multiplicity
 _atom_site_fract_x
 _atom_site_fract_y
 _atom_site_fract_z
 _atom_site_fract_occupancy
 Cr  Cr1  1  0.48985  0.00008  0.50503  1
 Cr  Cr2  1  0.49431  0.49431  0.99580  1
 Cr  Cr3  1  0.49431  0.49431  0.51557  1
 Cr  Cr4  1  0.00008  0.48985  0.50503  1
 Cu  Cu1  1  0.12648  0.12648  0.12352  1
 Cu  Cu2  1  0.89757  0.89757  0.35243  1
 Cu  Cu3  1  0.87177  0.87177  0.87823  1
 Te  Te1  1  0.25435  0.25435  0.26191  1
 Te  Te2  1  0.28159  0.72228  0.24806  1
 Te  Te3  1  0.25435  0.25435  0.72939  1
 Te  Te4  1  0.72228  0.28159  0.24806  1
 Te  Te5  1  0.26728  0.74029  0.74622  1
 Te  Te6  1  0.74029  0.26728  0.74622  1
 Te  Te7  1  0.73884  0.73884  0.27208  1
 Te  Te8  1  0.73884  0.73884  0.75024  1
