CIF file written using JARVIS-Tools package.
data_Sr4Ti3O10
_symmetry_space_group_name_H-M  'I4/mmm'
_cell_length_a       3.92765
_cell_length_b       3.92764
_cell_length_c       14.4224
_cell_angle_alpha    97.826
_cell_angle_beta     97.826
_cell_angle_gamma    90.0001

_symmetry_Int_Tables_number  139
_chemical_formula_structural  Sr4Ti3O10
_chemical_formula_sum  Sr4Ti3O0
_cell_volume  218.3209491933859
_cell_formula_units_Z  1
loop_
  _symmetry_equiv_pos_site_id
 _symmetry_equiv_pos_as_xyz
 1  'x, y, z'
loop_
 _atom_site_type_symbol
 _atom_site_label
 _atom_site_symmetry_multiplicity
 _atom_site_fract_x
 _atom_site_fract_y
 _atom_site_fract_z
 _atom_site_fract_occupancy
 O  O1  1  0.13893  0.63893  0.27785  1
 O  O2  1  0.79035  0.79035  0.58070  1
 O  O3  1  0.20965  0.20965  0.41930  1
 O  O4  1  0.50000  -0.00000  0.00000  1
 O  O5  1  -0.00000  0.50000  0.00000  1
 O  O6  1  0.06952  0.06952  0.13904  1
 O  O7  1  0.93048  0.93048  0.86096  1
 O  O8  1  0.63893  0.13893  0.27785  1
 O  O9  1  0.36107  0.86107  0.72215  1
 O  O10  1  0.86107  0.36107  0.72215  1
 Sr  Sr1  1  0.29758  0.29758  0.59516  1
 Sr  Sr2  1  0.56853  0.56853  0.13706  1
 Sr  Sr3  1  0.43147  0.43147  0.86294  1
 Sr  Sr4  1  0.70242  0.70242  0.40484  1
 Ti  Ti1  1  0.00000  0.00000  0.00000  1
 Ti  Ti2  1  0.85980  0.85980  0.71959  1
 Ti  Ti3  1  0.14020  0.14020  0.28041  1
