CIF file written using JARVIS-Tools package.
data_H3CN
_symmetry_space_group_name_H-M  'Cm'
_cell_length_a       4.368
_cell_length_b       6.02089
_cell_length_c       6.02201
_cell_angle_alpha    106.051
_cell_angle_beta     106.352
_cell_angle_gamma    106.356

_symmetry_Int_Tables_number  8
_chemical_formula_structural  H3CN
_chemical_formula_sum  H2C4N4
_cell_volume  134.4922471988847
_cell_formula_units_Z  4
loop_
  _symmetry_equiv_pos_site_id
 _symmetry_equiv_pos_as_xyz
 1  'x, y, z'
loop_
 _atom_site_type_symbol
 _atom_site_label
 _atom_site_symmetry_multiplicity
 _atom_site_fract_x
 _atom_site_fract_y
 _atom_site_fract_z
 _atom_site_fract_occupancy
 C  C1  1  0.06691  0.55933  0.96008  1
 C  C2  1  0.06733  0.05965  0.46049  1
 C  C3  1  0.06723  0.30962  0.21034  1
 C  C4  1  0.06701  0.80935  0.71023  1
 H  H1  1  0.16900  0.97964  0.88104  1
 H  H2  1  0.29758  0.28130  0.18242  1
 H  H3  1  0.17009  0.48055  0.38064  1
 H  H4  1  0.16849  0.73001  0.13043  1
 H  H5  1  0.17059  0.23016  0.63126  1
 H  H6  1  0.75956  0.18976  0.84080  1
 H  H7  1  0.29742  0.03139  0.43202  1
 H  H8  1  0.29807  0.53187  0.93283  1
 H  H9  1  0.75879  0.69030  0.34101  1
 H  H10  1  0.75794  0.94060  0.09152  1
 H  H11  1  0.76038  0.43948  0.59030  1
 H  H12  1  0.29792  0.78195  0.68243  1
 N  N1  1  0.85492  0.34946  0.00033  1
 N  N2  1  0.85490  0.10037  0.25121  1
 N  N3  1  0.85491  0.84994  0.50071  1
 N  N4  1  0.85494  0.59904  0.74985  1
