CIF file written using JARVIS-Tools package.
data_CdH8C6O4
_symmetry_space_group_name_H-M  'P1'
_cell_length_a       3.61161
_cell_length_b       4.22186
_cell_length_c       10.3779
_cell_angle_alpha    87.0642
_cell_angle_beta     84.6892
_cell_angle_gamma    89.9076

_symmetry_Int_Tables_number  1
_chemical_formula_structural  CdH8C6O4
_chemical_formula_sum  CdH8C6O4
_cell_volume  157.35278460815897
_cell_formula_units_Z  1
loop_
  _symmetry_equiv_pos_site_id
 _symmetry_equiv_pos_as_xyz
 1  'x, y, z'
loop_
 _atom_site_type_symbol
 _atom_site_label
 _atom_site_symmetry_multiplicity
 _atom_site_fract_x
 _atom_site_fract_y
 _atom_site_fract_z
 _atom_site_fract_occupancy
 C  C1  1  0.07352  0.16544  0.01104  1
 C  C2  1  0.12423  0.13058  0.63625  1
 C  C3  1  0.10108  0.37391  0.52369  1
 C  C4  1  0.00001  0.26376  0.39468  1
 C  C5  1  0.16555  0.29410  0.76268  1
 C  C6  1  0.21696  0.06260  0.87745  1
 Cd  Cd1  1  0.63925  0.71796  0.20405  1
 H  H1  1  0.87287  0.98222  0.64866  1
 H  H2  1  0.91572  0.43603  0.78619  1
 H  H3  1  0.50533  0.98377  0.88028  1
 H  H4  1  0.39810  0.46391  0.74872  1
 H  H5  1  0.35785  0.97036  0.61341  1
 H  H6  1  0.88522  0.55037  0.54981  1
 H  H7  1  0.35754  0.51387  0.50574  1
 H  H8  1  0.05946  0.84263  0.86896  1
 O  O1  1  0.11601  0.44641  0.29380  1
 O  O2  1  0.15893  0.97850  0.10785  1
 O  O3  1  0.78385  0.03200  0.38880  1
 O  O4  1  0.85014  0.39341  0.02346  1
