CIF file written using JARVIS-Tools package.
data_Ga2Ag2TeSe3
_symmetry_space_group_name_H-M  'C2'
_cell_length_a       7.12677
_cell_length_b       7.12676
_cell_length_c       6.19691
_cell_angle_alpha    65.3232
_cell_angle_beta     65.3232
_cell_angle_gamma    50.4917

_symmetry_Int_Tables_number  5
_chemical_formula_structural  Ga2Ag2TeSe3
_chemical_formula_sum  Ga2Ag2TeSe3
_cell_volume  215.41927908478107
_cell_formula_units_Z  1
loop_
  _symmetry_equiv_pos_site_id
 _symmetry_equiv_pos_as_xyz
 1  'x, y, z'
loop_
 _atom_site_type_symbol
 _atom_site_label
 _atom_site_symmetry_multiplicity
 _atom_site_fract_x
 _atom_site_fract_y
 _atom_site_fract_z
 _atom_site_fract_occupancy
 Ag  Ag1  1  0.27116  0.99467  0.12721  1
 Ag  Ag2  1  0.00533  0.72884  0.87279  1
 Ga  Ga1  1  0.74294  0.51243  0.61345  1
 Ga  Ga2  1  0.48757  0.25706  0.38655  1
 Se  Se1  1  0.39470  0.60530  0.50000  1
 Se  Se2  1  0.12003  0.37911  0.28173  1
 Se  Se3  1  0.62089  0.87997  0.71827  1
 Te  Te1  1  0.85739  0.14261  0.00000  1
