CIF file written using JARVIS-Tools package.
data_LiCo5O5F
_symmetry_space_group_name_H-M  'P3m1'
_cell_length_a       3.1699
_cell_length_b       3.1699
_cell_length_c       15.5701
_cell_angle_alpha    90
_cell_angle_beta     90
_cell_angle_gamma    120

_symmetry_Int_Tables_number  156
_chemical_formula_structural  LiCo5O5F
_chemical_formula_sum  LiCo5O5F
_cell_volume  135.4918215987463
_cell_formula_units_Z  1
loop_
  _symmetry_equiv_pos_site_id
 _symmetry_equiv_pos_as_xyz
 1  'x, y, z'
loop_
 _atom_site_type_symbol
 _atom_site_label
 _atom_site_symmetry_multiplicity
 _atom_site_fract_x
 _atom_site_fract_y
 _atom_site_fract_z
 _atom_site_fract_occupancy
 Co  Co1  1  0.33333  0.66667  0.66659  1
 Co  Co2  1  0.33333  0.66667  0.32801  1
 Co  Co3  1  0.66667  0.33333  0.49783  1
 Co  Co4  1  0.66667  0.33333  0.83571  1
 Co  Co5  1  0.66667  0.33333  0.17251  1
 F  F1  1  0.66667  0.33333  0.03577  1
 Li  Li1  1  0.33333  0.66667  0.99892  1
 O  O1  1  0.33333  0.66667  0.54116  1
 O  O2  1  0.33333  0.66667  0.87491  1
 O  O3  1  0.33333  0.66667  0.20031  1
 O  O4  1  0.66667  0.33333  0.70946  1
 O  O5  1  0.66667  0.33333  0.37283  1
