CIF file written using JARVIS-Tools package.
data_LuGaCoO4
_symmetry_space_group_name_H-M  'R3m'
_cell_length_a       8.65606
_cell_length_b       8.65606
_cell_length_c       8.65606
_cell_angle_alpha    22.6029
_cell_angle_beta     22.6029
_cell_angle_gamma    22.6029

_symmetry_Int_Tables_number  160
_chemical_formula_structural  LuGaCoO4
_chemical_formula_sum  LuGaCoO4
_cell_volume  84.04687860040579
_cell_formula_units_Z  1
loop_
  _symmetry_equiv_pos_site_id
 _symmetry_equiv_pos_as_xyz
 1  'x, y, z'
loop_
 _atom_site_type_symbol
 _atom_site_label
 _atom_site_symmetry_multiplicity
 _atom_site_fract_x
 _atom_site_fract_y
 _atom_site_fract_z
 _atom_site_fract_occupancy
 Co  Co1  1  0.78355  0.78355  0.78355  1
 Ga  Ga1  1  0.21371  0.21371  0.21371  1
 Lu  Lu1  1  0.99891  0.99891  0.99891  1
 O  O1  1  0.70577  0.70577  0.70577  1
 O  O2  1  0.29008  0.29008  0.29008  1
 O  O3  1  0.87825  0.87825  0.87825  1
 O  O4  1  0.13614  0.13614  0.13614  1
