CIF file written using JARVIS-Tools package.
data_NaMnO2
_symmetry_space_group_name_H-M  'C2/m'
_cell_length_a       3.17598
_cell_length_b       5.12835
_cell_length_c       6.00201
_cell_angle_alpha    68.589
_cell_angle_beta     99.4386
_cell_angle_gamma    96.9751

_symmetry_Int_Tables_number  12
_chemical_formula_structural  NaMnO2
_chemical_formula_sum  Na2Mn2O4
_cell_volume  89.57687303368336
_cell_formula_units_Z  2
loop_
  _symmetry_equiv_pos_site_id
 _symmetry_equiv_pos_as_xyz
 1  'x, y, z'
loop_
 _atom_site_type_symbol
 _atom_site_label
 _atom_site_symmetry_multiplicity
 _atom_site_fract_x
 _atom_site_fract_y
 _atom_site_fract_z
 _atom_site_fract_occupancy
 Mn  Mn1  1  0.50001  0.50001  0.00000  1
 Mn  Mn2  1  0.00001  0.00001  0.00000  1
 Na  Na1  1  0.25002  0.75002  0.50000  1
 Na  Na2  1  0.75002  0.25002  0.50000  1
 O  O1  1  0.13836  0.21776  0.20835  1
 O  O2  1  0.63836  0.71776  0.20835  1
 O  O3  1  0.86166  0.78226  0.79165  1
 O  O4  1  0.36166  0.28226  0.79165  1
