CIF file written using JARVIS-Tools package.
data_SmFe2O4
_symmetry_space_group_name_H-M  'R3m'
_cell_length_a       3.54029
_cell_length_b       3.54015
_cell_length_c       8.3846
_cell_angle_alpha    77.813
_cell_angle_beta     77.8103
_cell_angle_gamma    60.0033

_symmetry_Int_Tables_number  160
_chemical_formula_structural  SmFe2O4
_chemical_formula_sum  SmFe2O4
_cell_volume  88.2637902782369
_cell_formula_units_Z  1
loop_
  _symmetry_equiv_pos_site_id
 _symmetry_equiv_pos_as_xyz
 1  'x, y, z'
loop_
 _atom_site_type_symbol
 _atom_site_label
 _atom_site_symmetry_multiplicity
 _atom_site_fract_x
 _atom_site_fract_y
 _atom_site_fract_z
 _atom_site_fract_occupancy
 Fe  Fe1  1  0.20974  0.20988  0.37062  1
 Fe  Fe2  1  0.78980  0.78944  0.63106  1
 O  O1  1  0.13091  0.13069  0.60752  1
 O  O2  1  0.28712  0.28722  0.13855  1
 O  O3  1  0.71039  0.71044  0.86875  1
 O  O4  1  0.87527  0.87551  0.37388  1
 Sm  Sm1  1  -0.00322  -0.00317  0.00962  1
