CIF file written using JARVIS-Tools package.
data_RbAuO2
_symmetry_space_group_name_H-M  'Cmcm'
_cell_length_a       4.48901
_cell_length_b       6.10587
_cell_length_c       6.61083
_cell_angle_alpha    90
_cell_angle_beta     109.848
_cell_angle_gamma    90

_symmetry_Int_Tables_number  63
_chemical_formula_structural  RbAuO2
_chemical_formula_sum  Rb2Au2O4
_cell_volume  170.43494369218908
_cell_formula_units_Z  2
loop_
  _symmetry_equiv_pos_site_id
 _symmetry_equiv_pos_as_xyz
 1  'x, y, z'
loop_
 _atom_site_type_symbol
 _atom_site_label
 _atom_site_symmetry_multiplicity
 _atom_site_fract_x
 _atom_site_fract_y
 _atom_site_fract_z
 _atom_site_fract_occupancy
 Au  Au1  1  0.99714  0.25000  0.99428  1
 Au  Au2  1  0.00286  0.75000  0.00572  1
 O  O1  1  0.89273  0.50523  0.78546  1
 O  O2  1  0.10727  0.49477  0.21454  1
 O  O3  1  0.89273  0.99477  0.78546  1
 O  O4  1  0.10727  0.00523  0.21454  1
 Rb  Rb1  1  0.29622  0.75000  0.59243  1
 Rb  Rb2  1  0.70378  0.25000  0.40757  1
