CIF file written using JARVIS-Tools package.
data_SrCuSeF
_symmetry_space_group_name_H-M  'P4/nmm'
_cell_length_a       4.07864
_cell_length_b       4.07864
_cell_length_c       8.83885
_cell_angle_alpha    90
_cell_angle_beta     90
_cell_angle_gamma    90

_symmetry_Int_Tables_number  129
_chemical_formula_structural  SrCuSeF
_chemical_formula_sum  Sr2Cu2Se2F2
_cell_volume  147.03716054732269
_cell_formula_units_Z  2
loop_
  _symmetry_equiv_pos_site_id
 _symmetry_equiv_pos_as_xyz
 1  'x, y, z'
loop_
 _atom_site_type_symbol
 _atom_site_label
 _atom_site_symmetry_multiplicity
 _atom_site_fract_x
 _atom_site_fract_y
 _atom_site_fract_z
 _atom_site_fract_occupancy
 Cu  Cu1  1  0.50000  0.50000  0.00000  1
 Cu  Cu2  1  0.00000  0.00000  0.00000  1
 F  F1  1  0.00000  0.00000  0.50000  1
 F  F2  1  0.50000  0.50000  0.50000  1
 Se  Se1  1  0.50000  0.00000  0.82794  1
 Se  Se2  1  0.00000  0.50000  0.17206  1
 Sr  Sr1  1  0.00000  0.50000  0.66152  1
 Sr  Sr2  1  0.50000  0.00000  0.33848  1
