CIF file written using JARVIS-Tools package.
data_VBO4
_symmetry_space_group_name_H-M  'I-4'
_cell_length_a       4.95228
_cell_length_b       4.95228
_cell_length_c       4.95228
_cell_angle_alpha    122.791
_cell_angle_beta     122.791
_cell_angle_gamma    85.2308

_symmetry_Int_Tables_number  82
_chemical_formula_structural  VBO4
_chemical_formula_sum  VBO4
_cell_volume  81.94916112758767
_cell_formula_units_Z  1
loop_
  _symmetry_equiv_pos_site_id
 _symmetry_equiv_pos_as_xyz
 1  'x, y, z'
loop_
 _atom_site_type_symbol
 _atom_site_label
 _atom_site_symmetry_multiplicity
 _atom_site_fract_x
 _atom_site_fract_y
 _atom_site_fract_z
 _atom_site_fract_occupancy
 B  B1  1  0.25000  0.75000  0.50000  1
 O  O1  1  0.59046  0.98355  0.84288  1
 O  O2  1  0.25242  0.40954  0.39309  1
 O  O3  1  0.14067  0.74758  0.15712  1
 O  O4  1  0.01645  0.85933  0.60691  1
 V  V1  1  0.00000  0.00000  0.00000  1
