CIF file written using JARVIS-Tools package.
data_DySi2Ru2
_symmetry_space_group_name_H-M  'I4/mmm'
_cell_length_a       4.18999
_cell_length_b       4.19
_cell_length_c       5.62258
_cell_angle_alpha    111.876
_cell_angle_beta     111.876
_cell_angle_gamma    90

_symmetry_Int_Tables_number  139
_chemical_formula_structural  DySi2Ru2
_chemical_formula_sum  DySi2Ru2
_cell_volume  83.89399819451938
_cell_formula_units_Z  1
loop_
  _symmetry_equiv_pos_site_id
 _symmetry_equiv_pos_as_xyz
 1  'x, y, z'
loop_
 _atom_site_type_symbol
 _atom_site_label
 _atom_site_symmetry_multiplicity
 _atom_site_fract_x
 _atom_site_fract_y
 _atom_site_fract_z
 _atom_site_fract_occupancy
 Dy  Dy1  1  0.00000  0.00000  0.00000  1
 Ru  Ru1  1  0.75000  0.25000  0.50000  1
 Ru  Ru2  1  0.25000  0.75000  0.50000  1
 Si  Si1  1  0.63110  0.63110  0.26220  1
 Si  Si2  1  0.36890  0.36890  0.73780  1
