CIF file written using JARVIS-Tools package.
data_HfMnN2
_symmetry_space_group_name_H-M  'R-3m'
_cell_length_a       3.14925
_cell_length_b       4.94718
_cell_length_c       13.8027
_cell_angle_alpha    21.5633
_cell_angle_beta     89.999
_cell_angle_gamma    71.4394

_symmetry_Int_Tables_number  166
_chemical_formula_structural  HfMnN2
_chemical_formula_sum  HfMnN2
_cell_volume  39.5168620752489
_cell_formula_units_Z  1
loop_
  _symmetry_equiv_pos_site_id
 _symmetry_equiv_pos_as_xyz
 1  'x, y, z'
loop_
 _atom_site_type_symbol
 _atom_site_label
 _atom_site_symmetry_multiplicity
 _atom_site_fract_x
 _atom_site_fract_y
 _atom_site_fract_z
 _atom_site_fract_occupancy
 Hf  Hf1  1  0.00000  0.99997  0.50000  1
 Mn  Mn1  1  0.00000  0.99998  1.00000  1
 N  N1  1  -0.00000  -0.00005  0.25627  1
 N  N2  1  0.00000  -0.00000  0.74373  1
