CIF file written using JARVIS-Tools package.
data_Na2GeF6
_symmetry_space_group_name_H-M  'P-3m1'
_cell_length_a       9.46314
_cell_length_b       9.46314
_cell_length_c       4.57822
_cell_angle_alpha    90
_cell_angle_beta     90
_cell_angle_gamma    120

_symmetry_Int_Tables_number  164
_chemical_formula_structural  Na2GeF6
_chemical_formula_sum  Na6Ge3F8
_cell_volume  355.05685623966866
_cell_formula_units_Z  3
loop_
  _symmetry_equiv_pos_site_id
 _symmetry_equiv_pos_as_xyz
 1  'x, y, z'
loop_
 _atom_site_type_symbol
 _atom_site_label
 _atom_site_symmetry_multiplicity
 _atom_site_fract_x
 _atom_site_fract_y
 _atom_site_fract_z
 _atom_site_fract_occupancy
 F  F1  1  0.18794  0.09397  0.78023  1
 F  F2  1  0.57404  0.42596  0.72489  1
 F  F3  1  0.57404  0.14809  0.72489  1
 F  F4  1  0.85191  0.42596  0.72489  1
 F  F5  1  0.14809  0.57404  0.27511  1
 F  F6  1  0.24080  0.48159  0.72993  1
 F  F7  1  0.42596  0.57404  0.27511  1
 F  F8  1  0.75920  0.24080  0.27007  1
 F  F9  1  0.42596  0.85191  0.27511  1
 F  F10  1  0.48159  0.24080  0.27007  1
 F  F11  1  0.09397  0.18794  0.21977  1
 F  F12  1  0.81206  0.90603  0.21977  1
 F  F13  1  0.75920  0.51841  0.27007  1
 F  F14  1  0.51841  0.75920  0.72993  1
 F  F15  1  0.90603  0.09397  0.78023  1
 F  F16  1  0.24080  0.75920  0.72993  1
 F  F17  1  0.09397  0.90603  0.21977  1
 F  F18  1  0.90603  0.81206  0.78023  1
 Ge  Ge1  1  0.66667  0.33333  0.49702  1
 Ge  Ge2  1  0.00000  0.00000  0.00000  1
 Ge  Ge3  1  0.33333  0.66667  0.50298  1
 Na  Na1  1  0.34271  1.00000  0.00000  1
 Na  Na2  1  1.00000  0.34271  0.00000  1
 Na  Na3  1  0.65729  0.65729  0.00000  1
 Na  Na4  1  0.65729  0.00000  0.00000  1
 Na  Na5  1  0.00000  0.65729  0.00000  1
 Na  Na6  1  0.34271  0.34271  0.00000  1
