CIF file written using JARVIS-Tools package.
data_RbFeO2
_symmetry_space_group_name_H-M  'Cmcm'
_cell_length_a       6.47699
_cell_length_b       6.47698
_cell_length_c       5.41926
_cell_angle_alpha    90
_cell_angle_beta     90
_cell_angle_gamma    136.19

_symmetry_Int_Tables_number  63
_chemical_formula_structural  RbFeO2
_chemical_formula_sum  Rb2Fe2O4
_cell_volume  157.38492010489074
_cell_formula_units_Z  2
loop_
  _symmetry_equiv_pos_site_id
 _symmetry_equiv_pos_as_xyz
 1  'x, y, z'
loop_
 _atom_site_type_symbol
 _atom_site_label
 _atom_site_symmetry_multiplicity
 _atom_site_fract_x
 _atom_site_fract_y
 _atom_site_fract_z
 _atom_site_fract_occupancy
 Fe  Fe1  1  0.99673  0.00327  0.75000  1
 Fe  Fe2  1  0.00327  0.99673  0.25000  1
 O  O1  1  0.89637  0.10363  0.49602  1
 O  O2  1  0.89637  0.10363  0.00398  1
 O  O3  1  0.10363  0.89637  0.50398  1
 O  O4  1  0.10363  0.89637  0.99602  1
 Rb  Rb1  1  0.69132  0.30868  0.75000  1
 Rb  Rb2  1  0.30868  0.69132  0.25000  1
