CIF file written using JARVIS-Tools package.
data_Mn2CuN2
_symmetry_space_group_name_H-M  'I4/mmm'
_cell_length_a       2.83335
_cell_length_b       2.83328
_cell_length_c       12.1083
_cell_angle_alpha    90
_cell_angle_beta     90
_cell_angle_gamma    90

_symmetry_Int_Tables_number  139
_chemical_formula_structural  Mn2CuN2
_chemical_formula_sum  Mn4Cu2N4
_cell_volume  97.20103286691712
_cell_formula_units_Z  2
loop_
  _symmetry_equiv_pos_site_id
 _symmetry_equiv_pos_as_xyz
 1  'x, y, z'
loop_
 _atom_site_type_symbol
 _atom_site_label
 _atom_site_symmetry_multiplicity
 _atom_site_fract_x
 _atom_site_fract_y
 _atom_site_fract_z
 _atom_site_fract_occupancy
 Cu  Cu1  1  0.75000  0.74999  0.75000  1
 Cu  Cu2  1  0.25000  0.25001  0.25000  1
 Mn  Mn1  1  0.75000  0.75001  0.08532  1
 Mn  Mn2  1  0.75000  0.75001  0.41468  1
 Mn  Mn3  1  0.25000  0.24999  0.91468  1
 Mn  Mn4  1  0.25000  0.24999  0.58532  1
 N  N1  1  0.75000  0.75001  0.58816  1
 N  N2  1  0.75000  0.75001  0.91184  1
 N  N3  1  0.25000  0.24999  0.41184  1
 N  N4  1  0.25000  0.24999  0.08816  1
