CIF file written using JARVIS-Tools package.
data_ZnH20C12O4
_symmetry_space_group_name_H-M  'P1'
_cell_length_a       4.25517
_cell_length_b       5.04534
_cell_length_c       15.8839
_cell_angle_alpha    85.0841
_cell_angle_beta     87.2272
_cell_angle_gamma    63.6428

_symmetry_Int_Tables_number  1
_chemical_formula_structural  ZnH20C12O4
_chemical_formula_sum  ZnH20C2O4
_cell_volume  304.41230256974285
_cell_formula_units_Z  1
loop_
  _symmetry_equiv_pos_site_id
 _symmetry_equiv_pos_as_xyz
 1  'x, y, z'
loop_
 _atom_site_type_symbol
 _atom_site_label
 _atom_site_symmetry_multiplicity
 _atom_site_fract_x
 _atom_site_fract_y
 _atom_site_fract_z
 _atom_site_fract_occupancy
 C  C1  1  0.37061  0.70517  0.38077  1
 C  C2  1  0.61473  0.03768  0.65203  1
 C  C3  1  0.47322  0.38526  0.51890  1
 C  C4  1  0.43037  0.68247  0.47587  1
 C  C5  1  0.56819  0.34263  0.61242  1
 C  C6  1  0.35041  0.99013  0.33382  1
 C  C7  1  0.37913  -0.03065  0.23801  1
 C  C8  1  0.38254  0.23976  0.18693  1
 C  C9  1  0.52118  0.16636  0.09692  1
 C  C10  1  0.51418  0.43174  0.04123  1
 C  C11  1  0.72076  0.35102  0.95895  1
 C  C12  1  0.73264  -0.00340  0.74239  1
 H  H1  1  0.67881  0.20471  0.48486  1
 H  H2  1  0.81250  0.86032  0.61615  1
 H  H3  1  0.58858  0.51450  0.35320  1
 H  H4  1  0.36599  0.02235  0.65115  1
 H  H5  1  0.16648  0.92501  0.21573  1
 H  H6  1  0.23047  0.36124  0.51194  1
 H  H7  1  0.36666  0.51731  0.64853  1
 H  H8  1  0.63288  0.54729  0.07493  1
 H  H9  1  0.11695  0.42659  0.18589  1
 H  H10  1  0.55013  0.31564  0.21859  1
 H  H11  1  0.10626  0.18221  0.35106  1
 H  H12  1  0.62519  0.77264  0.22439  1
 H  H13  1  0.56638  0.03279  0.35458  1
 H  H14  1  0.66810  0.71067  0.48616  1
 H  H15  1  0.24507  0.59833  0.02689  1
 H  H16  1  0.81344  0.36287  0.61895  1
 H  H17  1  0.36917  0.07387  0.06626  1
 H  H18  1  0.79301  -0.00849  0.10052  1
 H  H19  1  0.21326  0.86658  0.50600  1
 H  H20  1  0.13170  0.68030  0.36909  1
 O  O1  1  0.51159  0.11625  0.80101  1
 O  O2  1  0.97638  0.08931  0.95898  1
 O  O3  1  0.06311  -0.14487  0.75511  1
 O  O4  1  0.65412  0.53675  0.89542  1
 Zn  Zn1  1  0.24370  0.91577  0.85897  1
