CIF file written using JARVIS-Tools package.
data_In3SbTe2
_symmetry_space_group_name_H-M  'Immm'
_cell_length_a       7.6394
_cell_length_b       7.6394
_cell_length_c       7.63939
_cell_angle_alpha    146.424
_cell_angle_beta     131.97
_cell_angle_gamma    59.8748

_symmetry_Int_Tables_number  71
_chemical_formula_structural  In3SbTe2
_chemical_formula_sum  In3SbTe2
_cell_volume  181.65860779333343
_cell_formula_units_Z  1
loop_
  _symmetry_equiv_pos_site_id
 _symmetry_equiv_pos_as_xyz
 1  'x, y, z'
loop_
 _atom_site_type_symbol
 _atom_site_label
 _atom_site_symmetry_multiplicity
 _atom_site_fract_x
 _atom_site_fract_y
 _atom_site_fract_z
 _atom_site_fract_occupancy
 In  In1  1  0.00000  0.00000  0.00000  1
 In  In2  1  0.65945  0.65945  0.00000  1
 In  In3  1  0.34055  0.34055  -0.00000  1
 Sb  Sb1  1  0.50000  -0.00000  0.50000  1
 Te  Te1  1  0.17220  0.67220  0.50000  1
 Te  Te2  1  0.82780  0.32780  0.50000  1
