CIF file written using JARVIS-Tools package.
data_SrCd4S5
_symmetry_space_group_name_H-M  'R-3m'
_cell_length_a       16.1647
_cell_length_b       16.1647
_cell_length_c       16.1647
_cell_angle_alpha    14.1397
_cell_angle_beta     14.1396
_cell_angle_gamma    14.1397

_symmetry_Int_Tables_number  166
_chemical_formula_structural  SrCd4S5
_chemical_formula_sum  SrCd4S5
_cell_volume  219.39514081495713
_cell_formula_units_Z  1
loop_
  _symmetry_equiv_pos_site_id
 _symmetry_equiv_pos_as_xyz
 1  'x, y, z'
loop_
 _atom_site_type_symbol
 _atom_site_label
 _atom_site_symmetry_multiplicity
 _atom_site_fract_x
 _atom_site_fract_y
 _atom_site_fract_z
 _atom_site_fract_occupancy
 Cd  Cd1  1  0.59710  0.59710  0.59710  1
 Cd  Cd2  1  0.19899  0.19899  0.19899  1
 Cd  Cd3  1  0.80101  0.80101  0.80101  1
 Cd  Cd4  1  0.40290  0.40290  0.40290  1
 S  S1  1  0.70461  0.70461  0.70461  1
 S  S2  1  0.50000  0.50000  0.50000  1
 S  S3  1  0.10194  0.10194  0.10194  1
 S  S4  1  0.29539  0.29539  0.29539  1
 S  S5  1  0.89806  0.89806  0.89806  1
 Sr  Sr1  1  0.00000  0.00000  0.00000  1
