CIF file written using JARVIS-Tools package.
data_SnH4C2Cl2
_symmetry_space_group_name_H-M  'C2/c'
_cell_length_a       3.96095
_cell_length_b       6.41526
_cell_length_c       10.402
_cell_angle_alpha    104.385
_cell_angle_beta     90.0069
_cell_angle_gamma    107.971

_symmetry_Int_Tables_number  15
_chemical_formula_structural  SnH4C2Cl2
_chemical_formula_sum  Sn2H8C4Cl4
_cell_volume  242.69534875458075
_cell_formula_units_Z  2
loop_
  _symmetry_equiv_pos_site_id
 _symmetry_equiv_pos_as_xyz
 1  'x, y, z'
loop_
 _atom_site_type_symbol
 _atom_site_label
 _atom_site_symmetry_multiplicity
 _atom_site_fract_x
 _atom_site_fract_y
 _atom_site_fract_z
 _atom_site_fract_occupancy
 C  C1  1  0.89948  0.86712  0.91887  1
 C  C2  1  0.04173  0.06273  0.03812  1
 C  C3  1  -0.00327  0.06259  0.53809  1
 C  C4  1  0.94438  0.86709  0.41885  1
 Cl  Cl1  1  0.61337  0.26696  0.81886  1
 Cl  Cl2  1  0.62969  0.26696  0.31892  1
 Cl  Cl3  1  0.32773  0.66281  0.13806  1
 Cl  Cl4  1  0.31140  0.66278  0.63808  1
 H  H1  1  0.68414  0.73579  0.40660  1
 H  H2  1  0.02940  0.73628  0.90669  1
 H  H3  1  0.25701  0.19385  0.55034  1
 H  H4  1  0.78850  0.14306  0.54505  1
 H  H5  1  0.61094  0.78612  0.91182  1
 H  H6  1  0.33029  0.14369  0.04520  1
 H  H7  1  0.15268  0.78666  0.41186  1
 H  H8  1  0.91189  0.19361  0.05029  1
 Sn  Sn1  1  0.96697  0.96489  0.22848  1
 Sn  Sn2  1  0.97400  0.96487  0.72848  1
