CIF file written using JARVIS-Tools package.
data_Ti2VSe4
_symmetry_space_group_name_H-M  'Cm'
_cell_length_a       6.96712
_cell_length_b       6.96712
_cell_length_c       6.409
_cell_angle_alpha    63.4886
_cell_angle_beta     63.4886
_cell_angle_gamma    29.4653

_symmetry_Int_Tables_number  8
_chemical_formula_structural  Ti2VSe4
_chemical_formula_sum  Ti2VSe4
_cell_volume  135.75322561679448
_cell_formula_units_Z  1
loop_
  _symmetry_equiv_pos_site_id
 _symmetry_equiv_pos_as_xyz
 1  'x, y, z'
loop_
 _atom_site_type_symbol
 _atom_site_label
 _atom_site_symmetry_multiplicity
 _atom_site_fract_x
 _atom_site_fract_y
 _atom_site_fract_z
 _atom_site_fract_occupancy
 Se  Se1  1  0.11127  0.11127  0.54582  1
 Se  Se2  1  0.89009  0.89009  0.44862  1
 Se  Se3  1  0.36383  0.36383  0.97110  1
 Se  Se4  1  0.63537  0.63537  0.03437  1
 Ti  Ti1  1  -0.00040  -0.00040  0.99980  1
 Ti  Ti2  1  0.25232  0.25232  0.70056  1
 V  V1  1  0.74752  0.74752  0.29974  1
