CIF file written using JARVIS-Tools package.
data_H5C3SN
_symmetry_space_group_name_H-M  'P1'
_cell_length_a       4.93828
_cell_length_b       5.56571
_cell_length_c       7.79709
_cell_angle_alpha    69.6189
_cell_angle_beta     66.7925
_cell_angle_gamma    85.7133

_symmetry_Int_Tables_number  1
_chemical_formula_structural  H5C3SN
_chemical_formula_sum  H0C6S2N2
_cell_volume  184.14613901896246
_cell_formula_units_Z  2
loop_
  _symmetry_equiv_pos_site_id
 _symmetry_equiv_pos_as_xyz
 1  'x, y, z'
loop_
 _atom_site_type_symbol
 _atom_site_label
 _atom_site_symmetry_multiplicity
 _atom_site_fract_x
 _atom_site_fract_y
 _atom_site_fract_z
 _atom_site_fract_occupancy
 C  C1  1  0.86681  0.11626  0.76865  1
 C  C2  1  0.86681  0.61626  0.26865  1
 C  C3  1  0.36194  0.60723  0.26559  1
 C  C4  1  0.57611  0.74419  0.30429  1
 C  C5  1  0.36194  0.10722  0.76559  1
 C  C6  1  0.57611  0.24418  0.80429  1
 H  H1  1  0.31845  0.90425  0.86280  1
 H  H2  1  0.62080  0.44844  0.70838  1
 H  H3  1  0.31845  0.40426  0.36280  1
 H  H4  1  0.46326  0.10502  0.61280  1
 H  H5  1  0.03525  0.87621  0.34031  1
 H  H6  1  0.62080  0.94844  0.20838  1
 H  H7  1  0.48094  0.74483  0.45827  1
 H  H8  1  0.46326  0.60502  0.11280  1
 H  H9  1  0.03525  0.37621  0.84031  1
 H  H10  1  0.48094  0.24482  0.95827  1
 N  N1  1  0.07788  0.22181  0.79294  1
 N  N2  1  0.07788  0.72182  0.29294  1
 S  S1  1  0.92336  0.35367  0.20304  1
 S  S2  1  0.92336  0.85367  0.70304  1
