CIF file written using JARVIS-Tools package.
data_SnH26C14O4
_symmetry_space_group_name_H-M  'P1'
_cell_length_a       5.16555
_cell_length_b       6.88617
_cell_length_c       11.5276
_cell_angle_alpha    106.582
_cell_angle_beta     96.5308
_cell_angle_gamma    90.0134

_symmetry_Int_Tables_number  1
_chemical_formula_structural  SnH26C14O4
_chemical_formula_sum  SnH26C4O4
_cell_volume  390.21489774233186
_cell_formula_units_Z  1
loop_
  _symmetry_equiv_pos_site_id
 _symmetry_equiv_pos_as_xyz
 1  'x, y, z'
loop_
 _atom_site_type_symbol
 _atom_site_label
 _atom_site_symmetry_multiplicity
 _atom_site_fract_x
 _atom_site_fract_y
 _atom_site_fract_z
 _atom_site_fract_occupancy
 C  C1  1  0.81083  0.04995  0.71394  1
 C  C2  1  0.46793  0.81457  0.47380  1
 C  C3  1  0.53452  0.42076  0.39701  1
 C  C4  1  0.69434  0.36405  0.28872  1
 C  C5  1  0.02195  0.13041  0.17329  1
 C  C6  1  0.36103  0.60285  0.39515  1
 C  C7  1  0.89221  0.13833  0.04715  1
 C  C8  1  0.69903  0.96453  0.99041  1
 C  C9  1  0.84486  0.05764  0.58241  1
 C  C10  1  0.76262  0.85565  0.48639  1
 C  C11  1  0.65103  0.22319  0.77476  1
 C  C12  1  0.25414  0.63282  0.71824  1
 C  C13  1  0.83982  0.16652  0.27316  1
 C  C14  1  0.34140  0.54775  0.04451  1
 H  H1  1  0.04581  0.12606  0.98746  1
 H  H2  1  0.17844  0.24791  0.20150  1
 H  H3  1  0.66429  0.45142  0.48363  1
 H  H4  1  0.17302  0.57709  0.42506  1
 H  H5  1  0.31581  0.60448  0.29969  1
 H  H6  1  0.79481  0.28201  0.05443  1
 H  H7  1  0.83247  0.48961  0.29467  1
 H  H8  1  0.86754  0.73405  0.51429  1
 H  H9  1  0.34904  0.54354  0.64091  1
 H  H10  1  0.25907  0.79429  0.72466  1
 H  H11  1  0.47825  0.63605  0.12109  1
 H  H12  1  0.14393  0.60402  0.05213  1
 H  H13  1  0.82478  0.85564  0.39808  1
 H  H14  1  0.05413  0.57533  0.71291  1
 H  H15  1  0.72724  0.17856  0.56032  1
 H  H16  1  0.11763  0.98457  0.16251  1
 H  H17  1  0.04952  0.09873  0.58054  1
 H  H18  1  0.71292  0.90715  0.71128  1
 H  H19  1  0.69566  0.03907  0.25295  1
 H  H20  1  0.34503  0.38586  0.03698  1
 H  H21  1  0.41037  0.28817  0.39317  1
 H  H22  1  0.95711  0.16817  0.35968  1
 H  H23  1  0.41016  0.84097  0.56572  1
 H  H24  1  0.36813  0.93044  0.43741  1
 H  H25  1  0.00258  0.06231  0.76728  1
 H  H26  1  0.55936  0.34929  0.20571  1
 O  O1  1  0.79678  0.78983  0.93893  1
 O  O2  1  0.40724  0.21087  0.77282  1
 O  O3  1  0.45678  0.97750  0.99248  1
 O  O4  1  0.77451  0.39761  0.82663  1
 Sn  Sn1  1  0.45538  0.59161  0.88142  1
