CIF file written using JARVIS-Tools package.
data_H2C5S2O2
_symmetry_space_group_name_H-M  'P1'
_cell_length_a       5.61384
_cell_length_b       6.63373
_cell_length_c       8.46558
_cell_angle_alpha    80.4864
_cell_angle_beta     75.3563
_cell_angle_gamma    78.2292

_symmetry_Int_Tables_number  1
_chemical_formula_structural  H2C5S2O2
_chemical_formula_sum  H4C0S4O4
_cell_volume  296.4500082150978
_cell_formula_units_Z  2
loop_
  _symmetry_equiv_pos_site_id
 _symmetry_equiv_pos_as_xyz
 1  'x, y, z'
loop_
 _atom_site_type_symbol
 _atom_site_label
 _atom_site_symmetry_multiplicity
 _atom_site_fract_x
 _atom_site_fract_y
 _atom_site_fract_z
 _atom_site_fract_occupancy
 C  C1  1  0.35292  0.99092  0.59923  1
 C  C2  1  0.56967  0.05812  0.51392  1
 C  C3  1  0.25045  0.89593  0.49851  1
 C  C4  1  0.75045  0.39593  0.99851  1
 C  C5  1  0.24846  0.66546  0.20909  1
 C  C6  1  0.74846  0.16545  0.70909  1
 C  C7  1  0.89398  0.39388  0.84208  1
 C  C8  1  0.06966  0.55812  0.01392  1
 C  C9  1  0.39398  0.89388  0.34208  1
 C  C10  1  0.85292  0.49092  0.09923  1
 H  H1  1  0.07780  0.83402  0.54068  1
 H  H2  1  0.76751  0.50970  0.22728  1
 H  H3  1  0.26752  0.00970  0.72728  1
 H  H4  1  0.57780  0.33402  0.04068  1
 O  O1  1  0.34555  0.83944  0.20449  1
 O  O2  1  0.70534  0.18479  0.55543  1
 O  O3  1  0.20534  0.68479  0.05543  1
 O  O4  1  0.84555  0.33944  0.70449  1
 S  S1  1  0.66040  0.00380  0.31129  1
 S  S2  1  0.16040  0.50380  0.81129  1
 S  S3  1  0.70199  0.97898  0.85794  1
 S  S4  1  0.20199  0.47898  0.35794  1
