CIF file written using JARVIS-Tools package.
data_BaNi2P4
_symmetry_space_group_name_H-M  'I4/mmm'
_cell_length_a       5.49679
_cell_length_b       5.49679
_cell_length_c       5.4968
_cell_angle_alpha    106.36
_cell_angle_beta     106.36
_cell_angle_gamma    115.891

_symmetry_Int_Tables_number  139
_chemical_formula_structural  BaNi2P4
_chemical_formula_sum  BaNi2P4
_cell_volume  126.63487065335167
_cell_formula_units_Z  1
loop_
  _symmetry_equiv_pos_site_id
 _symmetry_equiv_pos_as_xyz
 1  'x, y, z'
loop_
 _atom_site_type_symbol
 _atom_site_label
 _atom_site_symmetry_multiplicity
 _atom_site_fract_x
 _atom_site_fract_y
 _atom_site_fract_z
 _atom_site_fract_occupancy
 Ba  Ba1  1  0.00000  0.00000  0.00000  1
 Ni  Ni1  1  0.25000  0.75000  0.50000  1
 Ni  Ni2  1  0.75000  0.25000  0.50000  1
 P  P1  1  0.50000  0.74317  0.24317  1
 P  P2  1  0.74317  0.50000  0.24317  1
 P  P3  1  0.25683  0.50000  0.75683  1
 P  P4  1  0.50000  0.25683  0.75683  1
