CIF file written using JARVIS-Tools package.
data_TiFe2Se4
_symmetry_space_group_name_H-M  'Cm'
_cell_length_a       6.70413
_cell_length_b       6.70413
_cell_length_c       6.12828
_cell_angle_alpha    64.2926
_cell_angle_beta     64.2926
_cell_angle_gamma    30.2386

_symmetry_Int_Tables_number  8
_chemical_formula_structural  TiFe2Se4
_chemical_formula_sum  TiFe2Se4
_cell_volume  123.91972741194273
_cell_formula_units_Z  1
loop_
  _symmetry_equiv_pos_site_id
 _symmetry_equiv_pos_as_xyz
 1  'x, y, z'
loop_
 _atom_site_type_symbol
 _atom_site_label
 _atom_site_symmetry_multiplicity
 _atom_site_fract_x
 _atom_site_fract_y
 _atom_site_fract_z
 _atom_site_fract_occupancy
 Fe  Fe1  1  0.00196  0.00196  0.99586  1
 Fe  Fe2  1  0.74158  0.74158  0.31086  1
 Se  Se1  1  0.63840  0.63840  0.03436  1
 Se  Se2  1  0.36046  0.36046  0.98978  1
 Se  Se3  1  0.89305  0.89305  0.43730  1
 Se  Se4  1  0.10946  0.10946  0.54044  1
 Ti  Ti1  1  0.25509  0.25509  0.69140  1
