CIF file written using JARVIS-Tools package.
data_SrNdCoO4
_symmetry_space_group_name_H-M  'I4mm'
_cell_length_a       6.70629
_cell_length_b       6.70628
_cell_length_c       6.70628
_cell_angle_alpha    147.225
_cell_angle_beta     147.225
_cell_angle_gamma    47.0308

_symmetry_Int_Tables_number  107
_chemical_formula_structural  SrNdCoO4
_chemical_formula_sum  SrNdCoO4
_cell_volume  88.05594348781584
_cell_formula_units_Z  1
loop_
  _symmetry_equiv_pos_site_id
 _symmetry_equiv_pos_as_xyz
 1  'x, y, z'
loop_
 _atom_site_type_symbol
 _atom_site_label
 _atom_site_symmetry_multiplicity
 _atom_site_fract_x
 _atom_site_fract_y
 _atom_site_fract_z
 _atom_site_fract_occupancy
 Co  Co1  1  0.00671  0.00671  -0.00000  1
 Nd  Nd1  1  0.36173  0.36173  -0.00000  1
 O  O1  1  0.83968  0.83968  -0.00000  1
 O  O2  1  0.16844  0.16844  0.00000  1
 O  O3  1  0.99092  0.49092  0.50000  1
 O  O4  1  0.49092  0.99092  0.50000  1
 Sr  Sr1  1  0.64160  0.64160  0.00000  1
