CIF file written using JARVIS-Tools package.
data_V3Cr3Si2
_symmetry_space_group_name_H-M  'R32'
_cell_length_a       4.59456
_cell_length_b       4.59456
_cell_length_c       4.59457
_cell_angle_alpha    89.9737
_cell_angle_beta     89.9737
_cell_angle_gamma    89.9737

_symmetry_Int_Tables_number  155
_chemical_formula_structural  V3Cr3Si2
_chemical_formula_sum  V3Cr3Si2
_cell_volume  96.9913844922929
_cell_formula_units_Z  1
loop_
  _symmetry_equiv_pos_site_id
 _symmetry_equiv_pos_as_xyz
 1  'x, y, z'
loop_
 _atom_site_type_symbol
 _atom_site_label
 _atom_site_symmetry_multiplicity
 _atom_site_fract_x
 _atom_site_fract_y
 _atom_site_fract_z
 _atom_site_fract_occupancy
 Cr  Cr1  1  0.50000  0.74992  0.25008  1
 Cr  Cr2  1  0.74992  0.25008  0.50000  1
 Cr  Cr3  1  0.25008  0.50000  0.74992  1
 Si  Si1  1  0.25125  0.25125  0.25125  1
 Si  Si2  1  0.74875  0.74875  0.74875  1
 V  V1  1  -0.00000  0.74990  0.25010  1
 V  V2  1  0.74990  0.25010  -0.00000  1
 V  V3  1  0.25010  0.00000  0.74990  1
