CIF file written using JARVIS-Tools package.
data_Tm3Sc
_symmetry_space_group_name_H-M  'P6_3/mmc'
_cell_length_a       6.93117
_cell_length_b       6.93117
_cell_length_c       5.39
_cell_angle_alpha    90
_cell_angle_beta     90
_cell_angle_gamma    120

_symmetry_Int_Tables_number  194
_chemical_formula_structural  Tm3Sc
_chemical_formula_sum  Tm6Sc2
_cell_volume  224.2501892725811
_cell_formula_units_Z  2
loop_
  _symmetry_equiv_pos_site_id
 _symmetry_equiv_pos_as_xyz
 1  'x, y, z'
loop_
 _atom_site_type_symbol
 _atom_site_label
 _atom_site_symmetry_multiplicity
 _atom_site_fract_x
 _atom_site_fract_y
 _atom_site_fract_z
 _atom_site_fract_occupancy
 Sc  Sc1  1  0.33333  0.66667  0.75000  1
 Sc  Sc2  1  0.66667  0.33333  0.25000  1
 Tm  Tm1  1  0.16879  0.83121  0.25000  1
 Tm  Tm2  1  0.66242  0.83121  0.25000  1
 Tm  Tm3  1  0.16879  0.33758  0.25000  1
 Tm  Tm4  1  0.83121  0.16879  0.75000  1
 Tm  Tm5  1  0.33758  0.16879  0.75000  1
 Tm  Tm6  1  0.83121  0.66242  0.75000  1
