CIF file written using JARVIS-Tools package.
data_H4C3O2
_symmetry_space_group_name_H-M  'Cc'
_cell_length_a       4.93917
_cell_length_b       4.79804
_cell_length_c       6.68595
_cell_angle_alpha    68.9874
_cell_angle_beta     87.8103
_cell_angle_gamma    83.8791

_symmetry_Int_Tables_number  9
_chemical_formula_structural  H4C3O2
_chemical_formula_sum  H8C6O4
_cell_volume  147.0662763187199
_cell_formula_units_Z  2
loop_
  _symmetry_equiv_pos_site_id
 _symmetry_equiv_pos_as_xyz
 1  'x, y, z'
loop_
 _atom_site_type_symbol
 _atom_site_label
 _atom_site_symmetry_multiplicity
 _atom_site_fract_x
 _atom_site_fract_y
 _atom_site_fract_z
 _atom_site_fract_occupancy
 C  C1  1  0.67635  0.53074  0.66592  1
 C  C2  1  0.17636  0.21220  0.30287  1
 C  C3  1  0.31875  0.49457  0.22823  1
 C  C4  1  0.31051  0.00090  0.19752  1
 C  C5  1  0.81050  0.21416  0.77129  1
 C  C6  1  0.81875  0.73852  0.74057  1
 H  H1  1  0.45805  0.55139  0.70238  1
 H  H2  1  0.95806  0.26929  0.26639  1
 H  H3  1  0.78695  0.13296  0.94587  1
 H  H4  1  0.70141  0.60155  0.49094  1
 H  H5  1  0.20141  0.10815  0.47785  1
 H  H6  1  0.28698  0.09413  0.02294  1
 H  H7  1  0.52817  0.95130  0.23449  1
 H  H8  1  0.02815  0.20149  0.73433  1
 O  O1  1  0.68100  0.01492  0.69061  1
 O  O2  1  0.53953  0.51826  0.13676  1
 O  O3  1  0.18102  0.72104  0.27821  1
 O  O4  1  0.03953  0.67078  0.83204  1
