CIF file written using JARVIS-Tools package.
data_SiAg3
_symmetry_space_group_name_H-M  'P-6m2'
_cell_length_a       2.9253
_cell_length_b       2.9253
_cell_length_c       9.27258
_cell_angle_alpha    90
_cell_angle_beta     90
_cell_angle_gamma    120

_symmetry_Int_Tables_number  187
_chemical_formula_structural  SiAg3
_chemical_formula_sum  SiAg3
_cell_volume  68.71813753741179
_cell_formula_units_Z  1
loop_
  _symmetry_equiv_pos_site_id
 _symmetry_equiv_pos_as_xyz
 1  'x, y, z'
loop_
 _atom_site_type_symbol
 _atom_site_label
 _atom_site_symmetry_multiplicity
 _atom_site_fract_x
 _atom_site_fract_y
 _atom_site_fract_z
 _atom_site_fract_occupancy
 Ag  Ag1  1  0.33333  0.66667  0.00000  1
 Ag  Ag2  1  0.66667  0.33333  0.74227  1
 Ag  Ag3  1  0.66667  0.33333  0.25773  1
 Si  Si1  1  0.33333  0.66667  0.50000  1
