data_image0
_chemical_formula_structural       Li84Si20
_chemical_formula_sum              "Li84 Si20"
_cell_length_a       12.6308
_cell_length_b       12.6308
_cell_length_c       12.6308
_cell_angle_alpha    60
_cell_angle_beta     60
_cell_angle_gamma    60

_space_group_name_H-M_alt    "P 1"
_space_group_IT_number       1

loop_
  _space_group_symop_operation_xyz
  'x, y, z'

loop_
  _atom_site_type_symbol
  _atom_site_label
  _atom_site_symmetry_multiplicity
  _atom_site_fract_x
  _atom_site_fract_y
  _atom_site_fract_z
  _atom_site_occupancy
  Li  Li1       1.0  0.51100  0.51100  0.80800  1.0000
  Li  Li2       1.0  0.51100  0.51100  0.16900  1.0000
  Li  Li3       1.0  0.16900  0.80800  0.51100  1.0000
  Li  Li4       1.0  0.80800  0.16900  0.51100  1.0000
  Li  Li5       1.0  0.80800  0.51100  0.51100  1.0000
  Li  Li6       1.0  0.51100  0.80800  0.51100  1.0000
  Li  Li7       1.0  0.51100  0.80800  0.16900  1.0000
  Li  Li8       1.0  0.51100  0.16900  0.51100  1.0000
  Li  Li9       1.0  0.16900  0.51100  0.51100  1.0000
  Li  Li10      1.0  0.80800  0.51100  0.16900  1.0000
  Li  Li11      1.0  0.51100  0.16900  0.80800  1.0000
  Li  Li12      1.0  0.16900  0.51100  0.80800  1.0000
  Li  Li13      1.0  0.27000  0.27000  0.92200  1.0000
  Li  Li14      1.0  0.27000  0.27000  0.53700  1.0000
  Li  Li15      1.0  0.53700  0.92200  0.27000  1.0000
  Li  Li16      1.0  0.92200  0.53700  0.27000  1.0000
  Li  Li17      1.0  0.92200  0.27000  0.27000  1.0000
  Li  Li18      1.0  0.27000  0.92200  0.27000  1.0000
  Li  Li19      1.0  0.27000  0.92200  0.53700  1.0000
  Li  Li20      1.0  0.27000  0.53700  0.27000  1.0000
  Li  Li21      1.0  0.53700  0.27000  0.27000  1.0000
  Li  Li22      1.0  0.92200  0.27000  0.53700  1.0000
  Li  Li23      1.0  0.27000  0.53700  0.92200  1.0000
  Li  Li24      1.0  0.53700  0.27000  0.92200  1.0000
  Li  Li25      1.0  0.43400  0.43400  0.43400  1.0000
  Li  Li26      1.0  0.43400  0.43400  0.69700  1.0000
  Li  Li27      1.0  0.69700  0.43400  0.43400  1.0000
  Li  Li28      1.0  0.43400  0.69700  0.43400  1.0000
  Li  Li29      1.0  0.57800  0.57800  0.57800  1.0000
  Li  Li30      1.0  0.57800  0.57800  0.26600  1.0000
  Li  Li31      1.0  0.26600  0.57800  0.57800  1.0000
  Li  Li32      1.0  0.57800  0.26600  0.57800  1.0000
  Li  Li33      1.0  0.80900  0.80900  0.80900  1.0000
  Li  Li34      1.0  0.80900  0.80900  0.57400  1.0000
  Li  Li35      1.0  0.57400  0.80900  0.80900  1.0000
  Li  Li36      1.0  0.80900  0.57400  0.80900  1.0000
  Li  Li37      1.0  0.82500  0.17500  0.17500  1.0000
  Li  Li38      1.0  0.17500  0.82500  0.82500  1.0000
  Li  Li39      1.0  0.17500  0.82500  0.17500  1.0000
  Li  Li40      1.0  0.17500  0.17500  0.82500  1.0000
  Li  Li41      1.0  0.82500  0.17500  0.82500  1.0000
  Li  Li42      1.0  0.82500  0.82500  0.17500  1.0000
  Li  Li43      1.0  0.75900  0.75900  0.41900  1.0000
  Li  Li44      1.0  0.75900  0.75900  0.06340  1.0000
  Li  Li45      1.0  0.06340  0.41900  0.75900  1.0000
  Li  Li46      1.0  0.41900  0.06340  0.75900  1.0000
  Li  Li47      1.0  0.41900  0.75900  0.75900  1.0000
  Li  Li48      1.0  0.75900  0.41900  0.75900  1.0000
  Li  Li49      1.0  0.75900  0.41900  0.06340  1.0000
  Li  Li50      1.0  0.75900  0.06340  0.75900  1.0000
  Li  Li51      1.0  0.06340  0.75900  0.75900  1.0000
  Li  Li52      1.0  0.41900  0.75900  0.06340  1.0000
  Li  Li53      1.0  0.75900  0.06340  0.41900  1.0000
  Li  Li54      1.0  0.06340  0.75900  0.41900  1.0000
  Li  Li55      1.0  0.05300  0.05300  0.05300  1.0000
  Li  Li56      1.0  0.05300  0.05300  0.84100  1.0000
  Li  Li57      1.0  0.84100  0.05300  0.05300  1.0000
  Li  Li58      1.0  0.05300  0.84100  0.05300  1.0000
  Li  Li59      1.0  0.16800  0.16800  0.16800  1.0000
  Li  Li60      1.0  0.16800  0.16800  0.49700  1.0000
  Li  Li61      1.0  0.49700  0.16800  0.16800  1.0000
  Li  Li62      1.0  0.16800  0.49700  0.16800  1.0000
  Li  Li63      1.0  0.30600  0.30600  0.30600  1.0000
  Li  Li64      1.0  0.30600  0.30600  0.08070  1.0000
  Li  Li65      1.0  0.08070  0.30600  0.30600  1.0000
  Li  Li66      1.0  0.30600  0.08070  0.30600  1.0000
  Li  Li67      1.0  0.92400  0.57600  0.57600  1.0000
  Li  Li68      1.0  0.57600  0.92400  0.92400  1.0000
  Li  Li69      1.0  0.57600  0.92400  0.57600  1.0000
  Li  Li70      1.0  0.57600  0.57600  0.92400  1.0000
  Li  Li71      1.0  0.92400  0.57600  0.92400  1.0000
  Li  Li72      1.0  0.92400  0.92400  0.57600  1.0000
  Li  Li73      1.0  0.01480  0.01480  0.66900  1.0000
  Li  Li74      1.0  0.01480  0.01480  0.30100  1.0000
  Li  Li75      1.0  0.30100  0.66900  0.01480  1.0000
  Li  Li76      1.0  0.66900  0.30100  0.01480  1.0000
  Li  Li77      1.0  0.66900  0.01480  0.01480  1.0000
  Li  Li78      1.0  0.01480  0.66900  0.01480  1.0000
  Li  Li79      1.0  0.01480  0.66900  0.30100  1.0000
  Li  Li80      1.0  0.01480  0.30100  0.01480  1.0000
  Li  Li81      1.0  0.30100  0.01480  0.01480  1.0000
  Li  Li82      1.0  0.66900  0.01480  0.30100  1.0000
  Li  Li83      1.0  0.01480  0.30100  0.66900  1.0000
  Li  Li84      1.0  0.30100  0.01480  0.66900  1.0000
  Si  Si1       1.0  0.68000  0.32000  0.32000  1.0000
  Si  Si2       1.0  0.32000  0.68000  0.68000  1.0000
  Si  Si3       1.0  0.32000  0.68000  0.32000  1.0000
  Si  Si4       1.0  0.32000  0.32000  0.68000  1.0000
  Si  Si5       1.0  0.68000  0.32000  0.68000  1.0000
  Si  Si6       1.0  0.68000  0.68000  0.32000  1.0000
  Si  Si7       1.0  0.66500  0.66500  0.66500  1.0000
  Si  Si8       1.0  0.66500  0.66500  0.00524  1.0000
  Si  Si9       1.0  0.00524  0.66500  0.66500  1.0000
  Si  Si10      1.0  0.66500  0.00524  0.66500  1.0000
  Si  Si11      1.0  0.90900  0.90900  0.90900  1.0000
  Si  Si12      1.0  0.90900  0.90900  0.27200  1.0000
  Si  Si13      1.0  0.27200  0.90900  0.90900  1.0000
  Si  Si14      1.0  0.90900  0.27200  0.90900  1.0000
  Si  Si15      1.0  0.42800  0.07180  0.07180  1.0000
  Si  Si16      1.0  0.07180  0.42800  0.42800  1.0000
  Si  Si17      1.0  0.07180  0.42800  0.07180  1.0000
  Si  Si18      1.0  0.07180  0.07180  0.42800  1.0000
  Si  Si19      1.0  0.42800  0.07180  0.42800  1.0000
  Si  Si20      1.0  0.42800  0.42800  0.07180  1.0000
