CIF file written using JARVIS-Tools package.
data_LaCeSn6
_symmetry_space_group_name_H-M  'P4/mmm'
_cell_length_a       4.77612
_cell_length_b       4.77612
_cell_length_c       9.56082
_cell_angle_alpha    90
_cell_angle_beta     90
_cell_angle_gamma    90

_symmetry_Int_Tables_number  123
_chemical_formula_structural  LaCeSn6
_chemical_formula_sum  LaCeSn6
_cell_volume  218.09440796812834
_cell_formula_units_Z  1
loop_
  _symmetry_equiv_pos_site_id
 _symmetry_equiv_pos_as_xyz
 1  'x, y, z'
loop_
 _atom_site_type_symbol
 _atom_site_label
 _atom_site_symmetry_multiplicity
 _atom_site_fract_x
 _atom_site_fract_y
 _atom_site_fract_z
 _atom_site_fract_occupancy
 Ce  Ce1  1  0.00000  0.00000  0.00000  1
 La  La1  1  0.00000  0.00000  0.50000  1
 Sn  Sn1  1  0.50000  0.50000  0.00000  1
 Sn  Sn2  1  0.50000  0.50000  0.50000  1
 Sn  Sn3  1  0.50000  0.00000  0.24563  1
 Sn  Sn4  1  0.50000  0.00000  0.75437  1
 Sn  Sn5  1  0.00000  0.50000  0.24563  1
 Sn  Sn6  1  0.00000  0.50000  0.75437  1
