CIF file written using JARVIS-Tools package.
data_RbNdTe2
_symmetry_space_group_name_H-M  'R-3m'
_cell_length_a       8.88065
_cell_length_b       8.88066
_cell_length_c       8.88065
_cell_angle_alpha    30.1525
_cell_angle_beta     30.1524
_cell_angle_gamma    30.1525

_symmetry_Int_Tables_number  166
_chemical_formula_structural  RbNdTe2
_chemical_formula_sum  RbNdTe2
_cell_volume  156.56362556237028
_cell_formula_units_Z  1
loop_
  _symmetry_equiv_pos_site_id
 _symmetry_equiv_pos_as_xyz
 1  'x, y, z'
loop_
 _atom_site_type_symbol
 _atom_site_label
 _atom_site_symmetry_multiplicity
 _atom_site_fract_x
 _atom_site_fract_y
 _atom_site_fract_z
 _atom_site_fract_occupancy
 Nd  Nd1  1  0.00000  0.00000  0.00000  1
 Rb  Rb1  1  0.50000  0.50000  0.50000  1
 Te  Te1  1  0.26380  0.26380  0.26380  1
 Te  Te2  1  0.73620  0.73620  0.73620  1
