CIF file written using JARVIS-Tools package.
data_Ti2NiPd
_symmetry_space_group_name_H-M  'Pmm2'
_cell_length_a       2.76561
_cell_length_b       4.4248
_cell_length_c       4.75656
_cell_angle_alpha    90
_cell_angle_beta     90
_cell_angle_gamma    90

_symmetry_Int_Tables_number  25
_chemical_formula_structural  Ti2NiPd
_chemical_formula_sum  Ti2NiPd
_cell_volume  58.20735273075765
_cell_formula_units_Z  1
loop_
  _symmetry_equiv_pos_site_id
 _symmetry_equiv_pos_as_xyz
 1  'x, y, z'
loop_
 _atom_site_type_symbol
 _atom_site_label
 _atom_site_symmetry_multiplicity
 _atom_site_fract_x
 _atom_site_fract_y
 _atom_site_fract_z
 _atom_site_fract_occupancy
 Ni  Ni1  1  0.50000  0.50000  0.30967  1
 Pd  Pd1  1  0.50000  0.00000  0.68454  1
 Ti  Ti1  1  0.00000  0.50000  0.79610  1
 Ti  Ti2  1  0.00000  0.00000  0.20969  1
