CIF file written using JARVIS-Tools package.
data_H8C15S3
_symmetry_space_group_name_H-M  'C2'
_cell_length_a       3.94232
_cell_length_b       6.4141
_cell_length_c       11.9844
_cell_angle_alpha    86.9845
_cell_angle_beta     80.0558
_cell_angle_gamma    72.1248

_symmetry_Int_Tables_number  5
_chemical_formula_structural  H8C15S3
_chemical_formula_sum  H8C5S3
_cell_volume  284.0802374964184
_cell_formula_units_Z  1
loop_
  _symmetry_equiv_pos_site_id
 _symmetry_equiv_pos_as_xyz
 1  'x, y, z'
loop_
 _atom_site_type_symbol
 _atom_site_label
 _atom_site_symmetry_multiplicity
 _atom_site_fract_x
 _atom_site_fract_y
 _atom_site_fract_z
 _atom_site_fract_occupancy
 C  C1  1  0.69409  0.70448  0.40741  1
 C  C2  1  0.88851  0.42534  0.85910  1
 C  C3  1  0.46076  0.64417  0.08970  1
 C  C4  1  0.94538  0.69235  0.72308  1
 C  C5  1  0.22916  0.69250  0.19380  1
 C  C6  1  0.76226  0.64403  0.82719  1
 C  C7  1  0.20947  0.51104  0.67077  1
 C  C8  1  0.14658  0.51113  0.24609  1
 C  C9  1  0.89260  0.30913  0.40732  1
 C  C10  1  0.66568  0.30910  0.50951  1
 C  C11  1  0.91339  0.50667  0.35327  1
 C  C12  1  0.44706  0.50661  0.56358  1
 C  C13  1  0.55351  0.42539  0.05779  1
 C  C14  1  0.46822  0.70446  0.50945  1
 C  C15  1  0.77869  0.31012  0.95844  1
 H  H1  1  0.65444  0.15299  0.54825  1
 H  H2  1  0.06023  0.15304  0.36859  1
 H  H3  1  0.30661  0.86053  0.54915  1
 H  H4  1  0.69938  0.86057  0.36771  1
 H  H5  1  0.88254  0.85622  0.68706  1
 H  H6  1  0.56687  0.76529  0.04194  1
 H  H7  1  0.53498  0.76509  0.87497  1
 H  H8  1  0.12785  0.85644  0.22982  1
 S  S1  1  0.36346  0.27727  0.16389  1
 S  S2  1  0.91623  0.03521  0.95843  1
 S  S3  1  0.22672  0.27724  0.75296  1
