CIF file written using JARVIS-Tools package.
data_CrAgSe2
_symmetry_space_group_name_H-M  'R3m'
_cell_length_a       7.3762
_cell_length_b       7.3762
_cell_length_c       7.37621
_cell_angle_alpha    29.2537
_cell_angle_beta     29.2538
_cell_angle_gamma    29.2537

_symmetry_Int_Tables_number  160
_chemical_formula_structural  CrAgSe2
_chemical_formula_sum  CrAgSe2
_cell_volume  84.80023606583879
_cell_formula_units_Z  1
loop_
  _symmetry_equiv_pos_site_id
 _symmetry_equiv_pos_as_xyz
 1  'x, y, z'
loop_
 _atom_site_type_symbol
 _atom_site_label
 _atom_site_symmetry_multiplicity
 _atom_site_fract_x
 _atom_site_fract_y
 _atom_site_fract_z
 _atom_site_fract_occupancy
 Ag  Ag1  1  0.15118  0.15118  0.15118  1
 Cr  Cr1  1  -0.00008  -0.00008  -0.00008  1
 Se  Se1  1  0.27103  0.27103  0.27103  1
 Se  Se2  1  0.73368  0.73368  0.73368  1
