CIF file written using JARVIS-Tools package.
data_AcBrO
_symmetry_space_group_name_H-M  'P4/nmm'
_cell_length_a       4.31127
_cell_length_b       4.31127
_cell_length_c       7.51198
_cell_angle_alpha    90
_cell_angle_beta     90
_cell_angle_gamma    90

_symmetry_Int_Tables_number  129
_chemical_formula_structural  AcBrO
_chemical_formula_sum  Ac2Br2O2
_cell_volume  139.6257950984433
_cell_formula_units_Z  2
loop_
  _symmetry_equiv_pos_site_id
 _symmetry_equiv_pos_as_xyz
 1  'x, y, z'
loop_
 _atom_site_type_symbol
 _atom_site_label
 _atom_site_symmetry_multiplicity
 _atom_site_fract_x
 _atom_site_fract_y
 _atom_site_fract_z
 _atom_site_fract_occupancy
 Ac  Ac1  1  0.00000  0.50000  0.83305  1
 Ac  Ac2  1  0.50000  0.00000  0.16695  1
 Br  Br1  1  0.50000  0.00000  0.63367  1
 Br  Br2  1  0.00000  0.50000  0.36633  1
 O  O1  1  0.00000  0.00000  0.00000  1
 O  O2  1  0.50000  0.50000  0.00000  1
