CIF file written using JARVIS-Tools package.
data_VCr2Si6
_symmetry_space_group_name_H-M  'C222'
_cell_length_a       4.4852
_cell_length_b       4.4852
_cell_length_c       6.34759
_cell_angle_alpha    90
_cell_angle_beta     90
_cell_angle_gamma    119.725

_symmetry_Int_Tables_number  21
_chemical_formula_structural  VCr2Si6
_chemical_formula_sum  VCr2Si6
_cell_volume  110.89226739301024
_cell_formula_units_Z  1
loop_
  _symmetry_equiv_pos_site_id
 _symmetry_equiv_pos_as_xyz
 1  'x, y, z'
loop_
 _atom_site_type_symbol
 _atom_site_label
 _atom_site_symmetry_multiplicity
 _atom_site_fract_x
 _atom_site_fract_y
 _atom_site_fract_z
 _atom_site_fract_occupancy
 Cr  Cr1  1  0.50000  0.00000  0.66429  1
 Cr  Cr2  1  0.00000  0.50000  0.33571  1
 Si  Si1  1  0.16518  0.83482  0.00000  1
 Si  Si2  1  0.16390  0.33000  0.66563  1
 Si  Si3  1  0.67000  0.83610  0.33437  1
 Si  Si4  1  0.83482  0.16518  0.00000  1
 Si  Si5  1  0.83610  0.67000  0.66563  1
 Si  Si6  1  0.33000  0.16390  0.33437  1
 V  V1  1  0.50000  0.50000  0.00000  1
