CIF file written using JARVIS-Tools package.
data_NbCo3
_symmetry_space_group_name_H-M  'P6_3mc'
_cell_length_a       4.70832
_cell_length_b       4.70833
_cell_length_c       15.4291
_cell_angle_alpha    90
_cell_angle_beta     90
_cell_angle_gamma    120

_symmetry_Int_Tables_number  186
_chemical_formula_structural  NbCo3
_chemical_formula_sum  Nb6Co8
_cell_volume  296.21309782983695
_cell_formula_units_Z  6
loop_
  _symmetry_equiv_pos_site_id
 _symmetry_equiv_pos_as_xyz
 1  'x, y, z'
loop_
 _atom_site_type_symbol
 _atom_site_label
 _atom_site_symmetry_multiplicity
 _atom_site_fract_x
 _atom_site_fract_y
 _atom_site_fract_z
 _atom_site_fract_occupancy
 Co  Co1  1  0.33333  0.66667  0.85141  1
 Co  Co2  1  0.49992  0.99984  0.99844  1
 Co  Co3  1  0.83512  0.16488  0.74991  1
 Co  Co4  1  0.66667  0.33333  0.35141  1
 Co  Co5  1  0.32976  0.16488  0.74991  1
 Co  Co6  1  0.16488  0.83512  0.24991  1
 Co  Co7  1  0.33333  0.66667  0.37217  1
 Co  Co8  1  0.67024  0.83512  0.24991  1
 Co  Co9  1  0.66667  0.33333  0.87217  1
 Co  Co10  1  0.83512  0.67024  0.74991  1
 Co  Co11  1  0.50008  0.00016  0.49844  1
 Co  Co12  1  0.50008  0.49992  0.49844  1
 Co  Co13  1  0.33333  0.66667  0.12374  1
 Co  Co14  1  0.16488  0.32976  0.24991  1
 Co  Co15  1  0.49992  0.50008  0.99844  1
 Co  Co16  1  0.66667  0.33333  0.62374  1
 Co  Co17  1  0.99984  0.49992  0.49844  1
 Co  Co18  1  0.00016  0.50008  0.99844  1
 Nb  Nb1  1  0.00000  0.00000  0.08800  1
 Nb  Nb2  1  0.66667  0.33333  0.17103  1
 Nb  Nb3  1  0.00000  0.00000  0.89862  1
 Nb  Nb4  1  0.00000  0.00000  0.58800  1
 Nb  Nb5  1  0.00000  0.00000  0.39862  1
 Nb  Nb6  1  0.33333  0.66667  0.67103  1
