CIF file written using JARVIS-Tools package.
data_InCuSeS
_symmetry_space_group_name_H-M  'I2_12_12_1'
_cell_length_a       7.0313
_cell_length_b       7.0313
_cell_length_c       7.03131
_cell_angle_alpha    132.159
_cell_angle_beta     132.153
_cell_angle_gamma    69.9826

_symmetry_Int_Tables_number  24
_chemical_formula_structural  InCuSeS
_chemical_formula_sum  In2Cu2Se2S2
_cell_volume  187.30203914206942
_cell_formula_units_Z  2
loop_
  _symmetry_equiv_pos_site_id
 _symmetry_equiv_pos_as_xyz
 1  'x, y, z'
loop_
 _atom_site_type_symbol
 _atom_site_label
 _atom_site_symmetry_multiplicity
 _atom_site_fract_x
 _atom_site_fract_y
 _atom_site_fract_z
 _atom_site_fract_occupancy
 Cu  Cu1  1  0.89029  0.14029  0.75000  1
 Cu  Cu2  1  0.60971  0.35971  0.25000  1
 In  In1  1  0.37694  0.62694  0.75000  1
 In  In2  1  0.12306  0.87306  0.25000  1
 S  S1  1  0.25000  0.02367  0.77367  1
 S  S2  1  0.75000  0.47633  0.72633  1
 Se  Se1  1  0.53921  0.75000  0.28921  1
 Se  Se2  1  0.96079  0.25000  0.21079  1
