CIF file written using JARVIS-Tools package.
data_Th3N4
_symmetry_space_group_name_H-M  'R-3m'
_cell_length_a       9.42909
_cell_length_b       9.42909
_cell_length_c       9.42909
_cell_angle_alpha    23.7929
_cell_angle_beta     23.7929
_cell_angle_gamma    23.7929

_symmetry_Int_Tables_number  166
_chemical_formula_structural  Th3N4
_chemical_formula_sum  Th3N4
_cell_volume  119.85970499097334
_cell_formula_units_Z  1
loop_
  _symmetry_equiv_pos_site_id
 _symmetry_equiv_pos_as_xyz
 1  'x, y, z'
loop_
 _atom_site_type_symbol
 _atom_site_label
 _atom_site_symmetry_multiplicity
 _atom_site_fract_x
 _atom_site_fract_y
 _atom_site_fract_z
 _atom_site_fract_occupancy
 N  N1  1  0.13229  0.13229  0.13229  1
 N  N2  1  0.86771  0.86771  0.86771  1
 N  N3  1  0.37722  0.37722  0.37722  1
 N  N4  1  0.62278  0.62278  0.62278  1
 Th  Th1  1  0.00000  0.00000  0.00000  1
 Th  Th2  1  0.22211  0.22211  0.22211  1
 Th  Th3  1  0.77789  0.77789  0.77789  1
