CIF file written using JARVIS-Tools package.
data_Li3Nb6O11
_symmetry_space_group_name_H-M  'P-3m1'
_cell_length_a       6.05385
_cell_length_b       6.05408
_cell_length_c       7.48754
_cell_angle_alpha    89.9916
_cell_angle_beta     90
_cell_angle_gamma    119.999

_symmetry_Int_Tables_number  164
_chemical_formula_structural  Li3Nb6O11
_chemical_formula_sum  Li3Nb6O
_cell_volume  237.6593468386356
_cell_formula_units_Z  1
loop_
  _symmetry_equiv_pos_site_id
 _symmetry_equiv_pos_as_xyz
 1  'x, y, z'
loop_
 _atom_site_type_symbol
 _atom_site_label
 _atom_site_symmetry_multiplicity
 _atom_site_fract_x
 _atom_site_fract_y
 _atom_site_fract_z
 _atom_site_fract_occupancy
 Li  Li1  1  0.00001  0.00000  0.50000  1
 Li  Li2  1  0.33337  0.66675  0.58139  1
 Li  Li3  1  0.66663  0.33325  0.41861  1
 Nb  Nb1  1  0.15910  0.84082  0.16587  1
 Nb  Nb2  1  0.15910  0.31819  0.16587  1
 Nb  Nb3  1  0.31828  0.15918  0.83413  1
 Nb  Nb4  1  0.68172  0.84082  0.16587  1
 Nb  Nb5  1  0.84090  0.68181  0.83413  1
 Nb  Nb6  1  0.84090  0.15918  0.83413  1
 O  O1  1  0.84050  0.68101  0.31763  1
 O  O2  1  -0.00000  0.50000  -0.00000  1
 O  O3  1  0.33328  0.66656  0.32029  1
 O  O4  1  0.15950  0.31899  0.68237  1
 O  O5  1  0.50000  -0.00000  0.00000  1
 O  O6  1  0.50000  0.50000  0.00000  1
 O  O7  1  0.68111  0.84062  0.68237  1
 O  O8  1  0.66672  0.33344  0.67971  1
 O  O9  1  0.31888  0.15937  0.31763  1
 O  O10  1  0.15951  0.84063  0.68237  1
 O  O11  1  0.84049  0.15938  0.31763  1
