CIF file written using JARVIS-Tools package.
data_LiTiV2O6
_symmetry_space_group_name_H-M  'Cm'
_cell_length_a       2.94798
_cell_length_b       6.36652
_cell_length_c       5.80831
_cell_angle_alpha    101.823
_cell_angle_beta     90.015
_cell_angle_gamma    103.379

_symmetry_Int_Tables_number  8
_chemical_formula_structural  LiTiV2O6
_chemical_formula_sum  LiTiV2O6
_cell_volume  103.67434133456146
_cell_formula_units_Z  1
loop_
  _symmetry_equiv_pos_site_id
 _symmetry_equiv_pos_as_xyz
 1  'x, y, z'
loop_
 _atom_site_type_symbol
 _atom_site_label
 _atom_site_symmetry_multiplicity
 _atom_site_fract_x
 _atom_site_fract_y
 _atom_site_fract_z
 _atom_site_fract_occupancy
 Li  Li1  1  0.67004  0.34040  0.83615  1
 O  O1  1  0.49995  0.00002  0.79586  1
 O  O2  1  0.82725  0.65459  0.41529  1
 O  O3  1  0.15244  0.30508  0.09709  1
 O  O4  1  0.83870  0.67718  0.86976  1
 O  O5  1  0.17925  0.35835  0.56874  1
 O  O6  1  0.49724  -0.00578  0.25257  1
 Ti  Ti1  1  0.35141  0.70277  0.63224  1
 V  V1  1  0.99023  0.98033  0.03629  1
 V  V2  1  0.65955  0.31916  0.33400  1
