CIF file written using JARVIS-Tools package.
data_SrCa2Si6
_symmetry_space_group_name_H-M  'C2/m'
_cell_length_a       6.36561
_cell_length_b       6.3656
_cell_length_c       8.42434
_cell_angle_alpha    87.7869
_cell_angle_beta     87.7869
_cell_angle_gamma    35.9019

_symmetry_Int_Tables_number  12
_chemical_formula_structural  SrCa2Si6
_chemical_formula_sum  SrCa2Si6
_cell_volume  200.00930367303098
_cell_formula_units_Z  1
loop_
  _symmetry_equiv_pos_site_id
 _symmetry_equiv_pos_as_xyz
 1  'x, y, z'
loop_
 _atom_site_type_symbol
 _atom_site_label
 _atom_site_symmetry_multiplicity
 _atom_site_fract_x
 _atom_site_fract_y
 _atom_site_fract_z
 _atom_site_fract_occupancy
 Ca  Ca1  1  0.17052  0.17052  0.66775  1
 Ca  Ca2  1  0.82948  0.82948  0.33225  1
 Si  Si1  1  0.91864  0.91864  0.74221  1
 Si  Si2  1  0.58696  0.58696  0.42512  1
 Si  Si3  1  0.24738  0.24738  0.08579  1
 Si  Si4  1  0.41304  0.41304  0.57488  1
 Si  Si5  1  0.08136  0.08136  0.25779  1
 Si  Si6  1  0.75262  0.75262  0.91421  1
 Sr  Sr1  1  0.50000  0.50000  0.00000  1
