CIF file written using JARVIS-Tools package.
data_SrMn2BiO6
_symmetry_space_group_name_H-M  'I4mm'
_cell_length_a       5.47373
_cell_length_b       5.473
_cell_length_c       5.50728
_cell_angle_alpha    60.196
_cell_angle_beta     60.1905
_cell_angle_gamma    89.9777

_symmetry_Int_Tables_number  107
_chemical_formula_structural  SrMn2BiO6
_chemical_formula_sum  SrMn2BiO6
_cell_volume  117.36306727798348
_cell_formula_units_Z  1
loop_
  _symmetry_equiv_pos_site_id
 _symmetry_equiv_pos_as_xyz
 1  'x, y, z'
loop_
 _atom_site_type_symbol
 _atom_site_label
 _atom_site_symmetry_multiplicity
 _atom_site_fract_x
 _atom_site_fract_y
 _atom_site_fract_z
 _atom_site_fract_occupancy
 Bi  Bi1  1  0.48891  0.48896  0.02219  1
 Mn  Mn1  1  0.78261  0.28261  0.43480  1
 Mn  Mn2  1  0.28260  0.78262  0.43482  1
 O  O1  1  0.04214  0.54212  0.91570  1
 O  O2  1  0.54210  0.04205  0.91573  1
 O  O3  1  0.54176  0.54175  0.39626  1
 O  O4  1  0.06200  0.06199  0.39629  1
 O  O5  1  0.06181  0.54179  0.39640  1
 O  O6  1  0.54181  0.06183  0.39635  1
 Sr  Sr1  1  0.02870  0.02871  0.94261  1
