CIF file written using JARVIS-Tools package.
data_SnH12C7O6
_symmetry_space_group_name_H-M  'P1'
_cell_length_a       4.6272
_cell_length_b       5.43699
_cell_length_c       9.78205
_cell_angle_alpha    95.1347
_cell_angle_beta     99.5157
_cell_angle_gamma    110.454

_symmetry_Int_Tables_number  1
_chemical_formula_structural  SnH12C7O6
_chemical_formula_sum  SnH2C7O6
_cell_volume  224.5014002240804
_cell_formula_units_Z  1
loop_
  _symmetry_equiv_pos_site_id
 _symmetry_equiv_pos_as_xyz
 1  'x, y, z'
loop_
 _atom_site_type_symbol
 _atom_site_label
 _atom_site_symmetry_multiplicity
 _atom_site_fract_x
 _atom_site_fract_y
 _atom_site_fract_z
 _atom_site_fract_occupancy
 C  C1  1  0.65243  0.30569  0.84040  1
 C  C2  1  0.49402  0.42910  0.41995  1
 C  C3  1  0.48775  0.70863  0.22396  1
 C  C4  1  0.65808  0.56043  0.31058  1
 C  C5  1  0.75641  0.14172  0.93941  1
 C  C6  1  0.52101  0.98089  0.02049  1
 C  C7  1  0.68511  0.84958  0.12318  1
 H  H1  1  0.89479  0.69666  0.36586  1
 H  H2  1  0.42784  0.11006  0.07774  1
 H  H3  1  0.31776  0.82959  0.94688  1
 H  H4  1  0.97489  0.27851  0.01106  1
 H  H5  1  0.69722  0.40659  0.24323  1
 H  H6  1  0.75502  0.70690  0.06209  1
 H  H7  1  0.44529  0.85497  0.29548  1
 H  H8  1  0.25437  0.57008  0.16557  1
 H  H9  1  0.90706  0.00110  0.18612  1
 H  H10  1  0.05110  0.90219  0.62356  1
 H  H11  1  0.52292  0.82741  0.62870  1
 H  H12  1  0.83397  0.00882  0.87548  1
 O  O1  1  0.85943  0.46435  0.78396  1
 O  O2  1  0.32354  0.76425  0.66484  1
 O  O3  1  0.20686  0.40258  0.41666  1
 O  O4  1  0.63320  0.34618  0.51933  1
 O  O5  1  0.36753  0.29104  0.81738  1
 O  O6  1  0.88914  0.97924  0.58977  1
 Sn  Sn1  1  0.09849  0.37294  0.62959  1
