CIF file written using JARVIS-Tools package.
data_AlBiBr6
_symmetry_space_group_name_H-M  'P-1'
_cell_length_a       7.76899
_cell_length_b       7.59069
_cell_length_c       9.70626
_cell_angle_alpha    102.45
_cell_angle_beta     103.966
_cell_angle_gamma    100.682

_symmetry_Int_Tables_number  2
_chemical_formula_structural  AlBiBr6
_chemical_formula_sum  Al2Bi2Br2
_cell_volume  525.1184347111083
_cell_formula_units_Z  2
loop_
  _symmetry_equiv_pos_site_id
 _symmetry_equiv_pos_as_xyz
 1  'x, y, z'
loop_
 _atom_site_type_symbol
 _atom_site_label
 _atom_site_symmetry_multiplicity
 _atom_site_fract_x
 _atom_site_fract_y
 _atom_site_fract_z
 _atom_site_fract_occupancy
 Al  Al1  1  0.68008  0.27229  0.84316  1
 Al  Al2  1  0.31992  0.72771  0.15684  1
 Bi  Bi1  1  0.80319  0.48101  0.29149  1
 Bi  Bi2  1  0.19681  0.51899  0.70851  1
 Br  Br1  1  0.52633  0.28959  0.35290  1
 Br  Br2  1  0.47367  0.71041  0.64710  1
 Br  Br3  1  0.75926  0.58695  0.96253  1
 Br  Br4  1  0.24074  0.41305  0.03747  1
 Br  Br5  1  0.84251  0.18258  0.68146  1
 Br  Br6  1  0.15749  0.81742  0.31854  1
 Br  Br7  1  0.74412  0.12801  0.03434  1
 Br  Br8  1  0.25588  0.87199  0.96566  1
 Br  Br9  1  0.36805  0.17761  0.70797  1
 Br  Br10  1  0.63195  0.82239  0.29203  1
 Br  Br11  1  0.06736  0.29400  0.40512  1
 Br  Br12  1  0.93264  0.70600  0.59488  1
