CIF file written using JARVIS-Tools package.
data_Li6MnS4
_symmetry_space_group_name_H-M  'P4_2/nmc'
_cell_length_a       7.98321
_cell_length_b       7.98321
_cell_length_c       5.74808
_cell_angle_alpha    90
_cell_angle_beta     90
_cell_angle_gamma    90

_symmetry_Int_Tables_number  137
_chemical_formula_structural  Li6MnS4
_chemical_formula_sum  Li2Mn2S8
_cell_volume  366.3339396959969
_cell_formula_units_Z  2
loop_
  _symmetry_equiv_pos_site_id
 _symmetry_equiv_pos_as_xyz
 1  'x, y, z'
loop_
 _atom_site_type_symbol
 _atom_site_label
 _atom_site_symmetry_multiplicity
 _atom_site_fract_x
 _atom_site_fract_y
 _atom_site_fract_z
 _atom_site_fract_occupancy
 Li  Li1  1  0.77326  0.77326  0.50000  1
 Li  Li2  1  0.22674  0.22674  0.50000  1
 Li  Li3  1  0.50000  0.00000  0.46644  1
 Li  Li4  1  0.50000  0.00000  0.96644  1
 Li  Li5  1  0.77326  0.22674  0.50000  1
 Li  Li6  1  0.27326  0.72674  0.00000  1
 Li  Li7  1  0.22674  0.77326  0.50000  1
 Li  Li8  1  0.72674  0.27326  0.00000  1
 Li  Li9  1  0.00000  0.50000  0.03356  1
 Li  Li10  1  0.00000  0.50000  0.53356  1
 Li  Li11  1  0.72674  0.72674  0.00000  1
 Li  Li12  1  0.27326  0.27326  0.00000  1
 Mn  Mn1  1  0.00000  0.00000  0.00000  1
 Mn  Mn2  1  0.50000  0.50000  0.50000  1
 S  S1  1  0.24313  0.50000  0.28066  1
 S  S2  1  0.75687  0.50000  0.28066  1
 S  S3  1  0.50000  0.75687  0.71934  1
 S  S4  1  0.25687  0.00000  0.21934  1
 S  S5  1  0.74313  0.00000  0.21934  1
 S  S6  1  0.50000  0.24313  0.71934  1
 S  S7  1  0.00000  0.25687  0.78066  1
 S  S8  1  0.00000  0.74313  0.78066  1
