CIF file written using JARVIS-Tools package.
data_CdPtF6
_symmetry_space_group_name_H-M  'R-3'
_cell_length_a       5.73088
_cell_length_b       5.73088
_cell_length_c       5.73088
_cell_angle_alpha    52.9829
_cell_angle_beta     52.9829
_cell_angle_gamma    52.9829

_symmetry_Int_Tables_number  148
_chemical_formula_structural  CdPtF6
_chemical_formula_sum  CdPtF6
_cell_volume  111.20018642802754
_cell_formula_units_Z  1
loop_
  _symmetry_equiv_pos_site_id
 _symmetry_equiv_pos_as_xyz
 1  'x, y, z'
loop_
 _atom_site_type_symbol
 _atom_site_label
 _atom_site_symmetry_multiplicity
 _atom_site_fract_x
 _atom_site_fract_y
 _atom_site_fract_z
 _atom_site_fract_occupancy
 Cd  Cd1  1  0.00000  0.00000  0.00000  1
 F  F1  1  0.09950  0.44381  0.72181  1
 F  F2  1  0.44381  0.72181  0.09950  1
 F  F3  1  0.27819  0.90050  0.55619  1
 F  F4  1  0.55619  0.27819  0.90050  1
 F  F5  1  0.90050  0.55619  0.27819  1
 F  F6  1  0.72181  0.09950  0.44381  1
 Pt  Pt1  1  0.50000  0.50000  0.50000  1
