CIF file written using JARVIS-Tools package.
data_LiCo2O3
_symmetry_space_group_name_H-M  'Immm'
_cell_length_a       4.98533
_cell_length_b       4.98533
_cell_length_c       4.98533
_cell_angle_alpha    146.717
_cell_angle_beta     132.786
_cell_angle_gamma    58.9871

_symmetry_Int_Tables_number  71
_chemical_formula_structural  LiCo2O3
_chemical_formula_sum  LiCo2O3
_cell_volume  49.47395738578488
_cell_formula_units_Z  1
loop_
  _symmetry_equiv_pos_site_id
 _symmetry_equiv_pos_as_xyz
 1  'x, y, z'
loop_
 _atom_site_type_symbol
 _atom_site_label
 _atom_site_symmetry_multiplicity
 _atom_site_fract_x
 _atom_site_fract_y
 _atom_site_fract_z
 _atom_site_fract_occupancy
 Co  Co1  1  0.66292  0.66292  -0.00000  1
 Co  Co2  1  0.33708  0.33708  0.00000  1
 Li  Li1  1  0.00000  0.00000  0.00000  1
 O  O1  1  0.50000  -0.00000  0.50000  1
 O  O2  1  0.18620  0.68620  0.50000  1
 O  O3  1  0.81380  0.31380  0.50000  1
