CIF file written using JARVIS-Tools package.
data_LuAlO3
_symmetry_space_group_name_H-M  'R-3c'
_cell_length_a       5.16252
_cell_length_b       5.16252
_cell_length_c       5.16252
_cell_angle_alpha    61.0511
_cell_angle_beta     61.0511
_cell_angle_gamma    61.051

_symmetry_Int_Tables_number  167
_chemical_formula_structural  LuAlO3
_chemical_formula_sum  Lu2Al2O6
_cell_volume  99.59322679110511
_cell_formula_units_Z  2
loop_
  _symmetry_equiv_pos_site_id
 _symmetry_equiv_pos_as_xyz
 1  'x, y, z'
loop_
 _atom_site_type_symbol
 _atom_site_label
 _atom_site_symmetry_multiplicity
 _atom_site_fract_x
 _atom_site_fract_y
 _atom_site_fract_z
 _atom_site_fract_occupancy
 Al  Al1  1  0.00000  0.00000  0.00000  1
 Al  Al2  1  0.50000  0.50000  0.50000  1
 Lu  Lu1  1  0.25000  0.25000  0.25000  1
 Lu  Lu2  1  0.75000  0.75000  0.75000  1
 O  O1  1  0.25000  0.83668  0.66332  1
 O  O2  1  0.33668  0.75000  0.16332  1
 O  O3  1  0.16332  0.33668  0.75000  1
 O  O4  1  0.83668  0.66332  0.25000  1
 O  O5  1  0.66332  0.25000  0.83668  1
 O  O6  1  0.75000  0.16332  0.33668  1
