CIF file written using JARVIS-Tools package.
data_SrLaGaO4
_symmetry_space_group_name_H-M  'I4mm'
_cell_length_a       6.88534
_cell_length_b       6.88534
_cell_length_c       6.88534
_cell_angle_alpha    147.352
_cell_angle_beta     147.352
_cell_angle_gamma    46.8433

_symmetry_Int_Tables_number  107
_chemical_formula_structural  SrLaGaO4
_chemical_formula_sum  SrLaGaO4
_cell_volume  94.65066295482845
_cell_formula_units_Z  1
loop_
  _symmetry_equiv_pos_site_id
 _symmetry_equiv_pos_as_xyz
 1  'x, y, z'
loop_
 _atom_site_type_symbol
 _atom_site_label
 _atom_site_symmetry_multiplicity
 _atom_site_fract_x
 _atom_site_fract_y
 _atom_site_fract_z
 _atom_site_fract_occupancy
 Ga  Ga1  1  0.00681  0.00681  -0.00000  1
 La  La1  1  0.35827  0.35827  -0.00000  1
 O  O1  1  0.99448  0.49448  0.50000  1
 O  O2  1  0.49448  0.99448  0.50000  1
 O  O3  1  0.83440  0.83440  -0.00000  1
 O  O4  1  0.16930  0.16930  0.00000  1
 Sr  Sr1  1  0.64227  0.64227  -0.00000  1
