CIF file written using JARVIS-Tools package.
data_NaLiMnS2
_symmetry_space_group_name_H-M  'P3m1'
_cell_length_a       3.76123
_cell_length_b       3.76123
_cell_length_c       6.6319
_cell_angle_alpha    90
_cell_angle_beta     90
_cell_angle_gamma    120

_symmetry_Int_Tables_number  156
_chemical_formula_structural  NaLiMnS2
_chemical_formula_sum  NaLiMnS2
_cell_volume  81.2509951260204
_cell_formula_units_Z  1
loop_
  _symmetry_equiv_pos_site_id
 _symmetry_equiv_pos_as_xyz
 1  'x, y, z'
loop_
 _atom_site_type_symbol
 _atom_site_label
 _atom_site_symmetry_multiplicity
 _atom_site_fract_x
 _atom_site_fract_y
 _atom_site_fract_z
 _atom_site_fract_occupancy
 Li  Li1  1  0.00000  0.00000  0.63908  1
 Mn  Mn1  1  0.33333  0.66667  0.37220  1
 Na  Na1  1  0.66667  0.33333  0.98373  1
 S  S1  1  0.00000  0.00000  0.28400  1
 S  S2  1  0.33333  0.66667  0.72099  1
