CIF file written using JARVIS-Tools package.
data_Ca3BN3
_symmetry_space_group_name_H-M  'P4/mmm'
_cell_length_a       3.55275
_cell_length_b       3.55275
_cell_length_c       8.11065
_cell_angle_alpha    90
_cell_angle_beta     90
_cell_angle_gamma    90

_symmetry_Int_Tables_number  123
_chemical_formula_structural  Ca3BN3
_chemical_formula_sum  Ca3BN3
_cell_volume  102.37313590343699
_cell_formula_units_Z  1
loop_
  _symmetry_equiv_pos_site_id
 _symmetry_equiv_pos_as_xyz
 1  'x, y, z'
loop_
 _atom_site_type_symbol
 _atom_site_label
 _atom_site_symmetry_multiplicity
 _atom_site_fract_x
 _atom_site_fract_y
 _atom_site_fract_z
 _atom_site_fract_occupancy
 B  B1  1  0.00000  0.00000  0.50000  1
 Ca  Ca1  1  0.00000  0.00000  0.00000  1
 Ca  Ca2  1  0.50000  0.50000  0.72255  1
 Ca  Ca3  1  0.50000  0.50000  0.27745  1
 N  N1  1  0.00000  0.00000  0.66648  1
 N  N2  1  0.00000  0.00000  0.33352  1
 N  N3  1  0.50000  0.50000  0.00000  1
