CIF file written using JARVIS-Tools package.
data_LiMnOF2
_symmetry_space_group_name_H-M  'Cc'
_cell_length_a       5.25652
_cell_length_b       5.35421
_cell_length_c       5.01672
_cell_angle_alpha    113.731
_cell_angle_beta     58.4065
_cell_angle_gamma    119.398

_symmetry_Int_Tables_number  9
_chemical_formula_structural  LiMnOF2
_chemical_formula_sum  Li2Mn2O2F4
_cell_volume  102.75160243097066
_cell_formula_units_Z  2
loop_
  _symmetry_equiv_pos_site_id
 _symmetry_equiv_pos_as_xyz
 1  'x, y, z'
loop_
 _atom_site_type_symbol
 _atom_site_label
 _atom_site_symmetry_multiplicity
 _atom_site_fract_x
 _atom_site_fract_y
 _atom_site_fract_z
 _atom_site_fract_occupancy
 F  F1  1  0.00247  0.01405  0.66233  1
 F  F2  1  0.63227  0.96029  0.32649  1
 F  F3  1  0.49761  0.46033  0.82651  1
 F  F4  1  0.84528  0.51403  0.16236  1
 Li  Li1  1  0.41065  0.34207  0.44632  1
 Li  Li2  1  0.98114  0.84200  0.94627  1
 Mn  Mn1  1  0.73353  0.21279  0.73470  1
 Mn  Mn2  1  0.24060  0.71279  0.23471  1
 O  O1  1  0.36299  0.99814  0.02505  1
 O  O2  1  0.10614  0.49816  0.52508  1
