CIF file written using JARVIS-Tools package.
data_AlCr2B2
_symmetry_space_group_name_H-M  'Cmmm'
_cell_length_a       2.92396
_cell_length_b       2.94523
_cell_length_c       5.70746
_cell_angle_alpha    90
_cell_angle_beta     104.842
_cell_angle_gamma    90

_symmetry_Int_Tables_number  65
_chemical_formula_structural  AlCr2B2
_chemical_formula_sum  AlCr2B2
_cell_volume  47.51110243251078
_cell_formula_units_Z  1
loop_
  _symmetry_equiv_pos_site_id
 _symmetry_equiv_pos_as_xyz
 1  'x, y, z'
loop_
 _atom_site_type_symbol
 _atom_site_label
 _atom_site_symmetry_multiplicity
 _atom_site_fract_x
 _atom_site_fract_y
 _atom_site_fract_z
 _atom_site_fract_occupancy
 Al  Al1  1  0.00000  0.00000  0.00000  1
 B  B1  1  0.20616  0.00000  0.41232  1
 B  B2  1  0.79384  0.00000  0.58768  1
 Cr  Cr1  1  0.35248  0.50000  0.70495  1
 Cr  Cr2  1  0.64752  0.50000  0.29505  1
