CIF file written using JARVIS-Tools package.
data_ThPbI6
_symmetry_space_group_name_H-M  'Amm2'
_cell_length_a       7.33953
_cell_length_b       7.33953
_cell_length_c       10.059
_cell_angle_alpha    90
_cell_angle_beta     90
_cell_angle_gamma    144.928

_symmetry_Int_Tables_number  38
_chemical_formula_structural  ThPbI6
_chemical_formula_sum  ThPbI6
_cell_volume  311.35933261972366
_cell_formula_units_Z  1
loop_
  _symmetry_equiv_pos_site_id
 _symmetry_equiv_pos_as_xyz
 1  'x, y, z'
loop_
 _atom_site_type_symbol
 _atom_site_label
 _atom_site_symmetry_multiplicity
 _atom_site_fract_x
 _atom_site_fract_y
 _atom_site_fract_z
 _atom_site_fract_occupancy
 I  I1  1  0.14333  0.85667  0.79775  1
 I  I2  1  0.85363  0.14637  0.67704  1
 I  I3  1  0.14333  0.85667  0.20225  1
 I  I4  1  0.85363  0.14637  0.32296  1
 I  I5  1  0.42702  0.57298  0.00000  1
 I  I6  1  0.57548  0.42452  0.50000  1
 Pb  Pb1  1  0.76429  0.23571  0.00000  1
 Th  Th1  1  0.23719  0.76281  0.50000  1
