CIF file written using JARVIS-Tools package.
data_Tl2Au
_symmetry_space_group_name_H-M  'I4/mcm'
_cell_length_a       5.71149
_cell_length_b       5.97975
_cell_length_c       5.97975
_cell_angle_alpha    76.8163
_cell_angle_beta     61.4732
_cell_angle_gamma    61.4732

_symmetry_Int_Tables_number  140
_chemical_formula_structural  Tl2Au
_chemical_formula_sum  Tl4Au2
_cell_volume  157.64887779247567
_cell_formula_units_Z  2
loop_
  _symmetry_equiv_pos_site_id
 _symmetry_equiv_pos_as_xyz
 1  'x, y, z'
loop_
 _atom_site_type_symbol
 _atom_site_label
 _atom_site_symmetry_multiplicity
 _atom_site_fract_x
 _atom_site_fract_y
 _atom_site_fract_z
 _atom_site_fract_occupancy
 Au  Au1  1  0.25000  0.00000  -0.00000  1
 Au  Au2  1  0.75000  0.00000  -0.00000  1
 Tl  Tl1  1  0.15425  0.50000  0.19151  1
 Tl  Tl2  1  0.34575  0.80849  0.50000  1
 Tl  Tl3  1  0.65425  0.19151  0.50000  1
 Tl  Tl4  1  0.84575  0.50000  0.80849  1
