CIF file written using JARVIS-Tools package.
data_IF3
_symmetry_space_group_name_H-M  'Pnma'
_cell_length_a       4.56052
_cell_length_b       6.66388
_cell_length_c       8.67703
_cell_angle_alpha    90
_cell_angle_beta     90
_cell_angle_gamma    90

_symmetry_Int_Tables_number  62
_chemical_formula_structural  IF3
_chemical_formula_sum  I4F2
_cell_volume  263.7014845440478
_cell_formula_units_Z  4
loop_
  _symmetry_equiv_pos_site_id
 _symmetry_equiv_pos_as_xyz
 1  'x, y, z'
loop_
 _atom_site_type_symbol
 _atom_site_label
 _atom_site_symmetry_multiplicity
 _atom_site_fract_x
 _atom_site_fract_y
 _atom_site_fract_z
 _atom_site_fract_occupancy
 F  F1  1  0.87049  0.75000  0.94057  1
 F  F2  1  0.37049  0.25000  0.55943  1
 F  F3  1  0.12951  0.25000  0.05943  1
 F  F4  1  0.62951  0.75000  0.44057  1
 F  F5  1  0.90240  0.45002  0.33476  1
 F  F6  1  0.40240  0.54998  0.16524  1
 F  F7  1  0.09760  0.95002  0.66524  1
 F  F8  1  0.59760  0.04998  0.83476  1
 F  F9  1  0.09760  0.54998  0.66524  1
 F  F10  1  0.59760  0.45002  0.83476  1
 F  F11  1  0.90240  0.04998  0.33476  1
 F  F12  1  0.40240  0.95002  0.16524  1
 I  I1  1  0.52687  0.75000  0.81303  1
 I  I2  1  0.02687  0.25000  0.68697  1
 I  I3  1  0.47313  0.25000  0.18697  1
 I  I4  1  0.97313  0.75000  0.31303  1
