CIF file written using JARVIS-Tools package.
data_Cr6BC3
_symmetry_space_group_name_H-M  'Amm2'
_cell_length_a       4.81885
_cell_length_b       4.81884
_cell_length_c       6.92779
_cell_angle_alpha    90
_cell_angle_beta     90
_cell_angle_gamma    145.627

_symmetry_Int_Tables_number  38
_chemical_formula_structural  Cr6BC3
_chemical_formula_sum  Cr6BC3
_cell_volume  90.82371488037899
_cell_formula_units_Z  1
loop_
  _symmetry_equiv_pos_site_id
 _symmetry_equiv_pos_as_xyz
 1  'x, y, z'
loop_
 _atom_site_type_symbol
 _atom_site_label
 _atom_site_symmetry_multiplicity
 _atom_site_fract_x
 _atom_site_fract_y
 _atom_site_fract_z
 _atom_site_fract_occupancy
 B  B1  1  0.75672  0.24328  0.50000  1
 C  C1  1  0.49760  0.50240  0.24292  1
 C  C2  1  0.49760  0.50240  0.75708  1
 C  C3  1  0.24580  0.75420  0.00000  1
 Cr  Cr1  1  0.85464  0.14536  0.18455  1
 Cr  Cr2  1  0.13750  0.86250  0.31822  1
 Cr  Cr3  1  0.85464  0.14536  0.81545  1
 Cr  Cr4  1  0.13750  0.86250  0.68178  1
 Cr  Cr5  1  0.60248  0.39752  0.00000  1
 Cr  Cr6  1  0.41551  0.58449  0.50000  1
