CIF file written using JARVIS-Tools package.
data_K2CoF4
_symmetry_space_group_name_H-M  'I4/mmm'
_cell_length_a       7.17397
_cell_length_b       7.17397
_cell_length_c       7.17397
_cell_angle_alpha    147.332
_cell_angle_beta     147.332
_cell_angle_gamma    46.8727

_symmetry_Int_Tables_number  139
_chemical_formula_structural  K2CoF4
_chemical_formula_sum  K2CoF4
_cell_volume  107.17481707393951
_cell_formula_units_Z  1
loop_
  _symmetry_equiv_pos_site_id
 _symmetry_equiv_pos_as_xyz
 1  'x, y, z'
loop_
 _atom_site_type_symbol
 _atom_site_label
 _atom_site_symmetry_multiplicity
 _atom_site_fract_x
 _atom_site_fract_y
 _atom_site_fract_z
 _atom_site_fract_occupancy
 Co  Co1  1  0.00000  0.00000  0.00000  1
 F  F1  1  -0.00000  0.50000  0.50000  1
 F  F2  1  0.50000  -0.00000  0.50000  1
 F  F3  1  0.84359  0.84359  0.00000  1
 F  F4  1  0.15641  0.15641  -0.00000  1
 K  K1  1  0.35422  0.35422  -0.00000  1
 K  K2  1  0.64578  0.64578  0.00000  1
