CIF file written using JARVIS-Tools package.
data_ZnH12C8O4
_symmetry_space_group_name_H-M  'P1'
_cell_length_a       3.86271
_cell_length_b       4.72093
_cell_length_c       12.1486
_cell_angle_alpha    87.8519
_cell_angle_beta     91.5136
_cell_angle_gamma    113.284

_symmetry_Int_Tables_number  1
_chemical_formula_structural  ZnH12C8O4
_chemical_formula_sum  ZnH2C8O4
_cell_volume  203.33491398147729
_cell_formula_units_Z  1
loop_
  _symmetry_equiv_pos_site_id
 _symmetry_equiv_pos_as_xyz
 1  'x, y, z'
loop_
 _atom_site_type_symbol
 _atom_site_label
 _atom_site_symmetry_multiplicity
 _atom_site_fract_x
 _atom_site_fract_y
 _atom_site_fract_z
 _atom_site_fract_occupancy
 C  C1  1  0.31314  0.73109  0.36908  1
 C  C2  1  0.20725  0.76144  0.57415  1
 C  C3  1  0.20361  0.55576  0.47967  1
 C  C4  1  0.32324  0.52229  0.27712  1
 C  C5  1  0.46765  0.68939  0.16683  1
 C  C6  1  0.46942  0.46320  0.08068  1
 C  C7  1  0.64267  0.59568  0.97029  1
 C  C8  1  0.17876  0.61151  0.68808  1
 H  H1  1  -0.02177  0.84538  0.56508  1
 H  H2  1  0.11676  0.84245  0.34647  1
 H  H3  1  0.75496  0.86706  0.17814  1
 H  H4  1  0.92270  0.36610  0.47239  1
 H  H5  1  0.59404  0.92142  0.37763  1
 H  H6  1  0.03771  0.34074  0.26523  1
 H  H7  1  0.50216  0.39834  0.30439  1
 H  H8  1  0.18287  0.29027  0.06479  1
 H  H9  1  0.62771  0.32594  0.11240  1
 H  H10  1  0.39912  0.44228  0.49991  1
 H  H11  1  0.29154  0.81267  0.13707  1
 H  H12  1  0.46838  0.97322  0.57502  1
 O  O1  1  0.27899  0.78108  0.77135  1
 O  O2  1  0.84038  0.88573  0.96226  1
 O  O3  1  0.06540  0.31744  0.69471  1
 O  O4  1  0.59909  0.41318  0.89200  1
 Zn  Zn1  1  0.12165  0.09928  0.83072  1
