CIF file written using JARVIS-Tools package.
data_HfH2
_symmetry_space_group_name_H-M  'I4/mmm'
_cell_length_a       3.27348
_cell_length_b       3.27348
_cell_length_c       3.27349
_cell_angle_alpha    97.5516
_cell_angle_beta     115.74
_cell_angle_gamma    115.74

_symmetry_Int_Tables_number  139
_chemical_formula_structural  HfH2
_chemical_formula_sum  HfH2
_cell_volume  26.15431877756804
_cell_formula_units_Z  1
loop_
  _symmetry_equiv_pos_site_id
 _symmetry_equiv_pos_as_xyz
 1  'x, y, z'
loop_
 _atom_site_type_symbol
 _atom_site_label
 _atom_site_symmetry_multiplicity
 _atom_site_fract_x
 _atom_site_fract_y
 _atom_site_fract_z
 _atom_site_fract_occupancy
 H  H1  1  0.50000  0.25000  0.75000  1
 H  H2  1  0.50000  0.75000  0.25000  1
 Hf  Hf1  1  0.00000  0.00000  0.00000  1
