CIF file written using JARVIS-Tools package.
data_SnH14C8O4
_symmetry_space_group_name_H-M  'P-1'
_cell_length_a       4.76728
_cell_length_b       6.86184
_cell_length_c       7.6673
_cell_angle_alpha    92.6855
_cell_angle_beta     98.6852
_cell_angle_gamma    98.3808

_symmetry_Int_Tables_number  2
_chemical_formula_structural  SnH14C8O4
_chemical_formula_sum  SnH4C8O4
_cell_volume  244.68263553687086
_cell_formula_units_Z  1
loop_
  _symmetry_equiv_pos_site_id
 _symmetry_equiv_pos_as_xyz
 1  'x, y, z'
loop_
 _atom_site_type_symbol
 _atom_site_label
 _atom_site_symmetry_multiplicity
 _atom_site_fract_x
 _atom_site_fract_y
 _atom_site_fract_z
 _atom_site_fract_occupancy
 C  C1  1  0.70907  0.55840  0.51668  1
 C  C2  1  0.20674  0.42025  0.14519  1
 C  C3  1  0.63947  0.83773  0.02424  1
 C  C4  1  0.60705  0.13908  0.83988  1
 C  C5  1  0.74143  0.25699  0.70097  1
 C  C6  1  0.58412  0.42880  0.64890  1
 C  C7  1  0.76437  0.96727  0.89196  1
 C  C8  1  0.14173  0.97591  0.39568  1
 H  H1  1  0.20840  0.44158  0.00454  1
 H  H2  1  0.76851  0.86989  0.77353  1
 H  H3  1  -0.00735  0.01833  0.94701  1
 H  H4  1  0.96919  0.31368  0.75192  1
 H  H5  1  0.74164  0.15864  0.58292  1
 H  H6  1  0.01861  0.31554  0.16378  1
 H  H7  1  0.60683  0.23743  0.95792  1
 H  H8  1  0.32984  0.08064  0.37705  1
 H  H9  1  0.94237  0.02622  0.33765  1
 H  H10  1  0.14006  0.95462  0.53633  1
 H  H11  1  0.40607  0.36990  0.20320  1
 H  H12  1  0.37929  0.08238  0.78892  1
 H  H13  1  0.57990  0.52614  0.76734  1
 H  H14  1  0.35585  0.37773  0.59380  1
 O  O1  1  0.40935  0.87388  0.07573  1
 O  O2  1  0.58132  0.70151  0.46333  1
 O  O3  1  0.76721  0.69461  0.07757  1
 O  O4  1  0.93927  0.52231  0.46525  1
 Sn  Sn1  1  0.17427  0.69808  0.27046  1
