CIF file written using JARVIS-Tools package.
data_Tb4Se3N2
_symmetry_space_group_name_H-M  'C2/m'
_cell_length_a       3.9401
_cell_length_b       6.95369
_cell_length_c       8.16704
_cell_angle_alpha    85.7372
_cell_angle_beta     76.0415
_cell_angle_gamma    73.5422

_symmetry_Int_Tables_number  12
_chemical_formula_structural  Tb4Se3N2
_chemical_formula_sum  Tb4Se3N2
_cell_volume  208.25363943318797
_cell_formula_units_Z  1
loop_
  _symmetry_equiv_pos_site_id
 _symmetry_equiv_pos_as_xyz
 1  'x, y, z'
loop_
 _atom_site_type_symbol
 _atom_site_label
 _atom_site_symmetry_multiplicity
 _atom_site_fract_x
 _atom_site_fract_y
 _atom_site_fract_z
 _atom_site_fract_occupancy
 N  N1  1  0.35170  0.93507  0.36152  1
 N  N2  1  0.64830  0.06493  0.63848  1
 Se  Se1  1  0.83574  0.55863  0.76988  1
 Se  Se2  1  0.00000  0.00000  0.00000  1
 Se  Se3  1  0.16426  0.44137  0.23012  1
 Tb  Tb1  1  0.44095  0.26761  0.85049  1
 Tb  Tb2  1  0.55905  0.73239  0.14951  1
 Tb  Tb3  1  0.75538  0.12891  0.36033  1
 Tb  Tb4  1  0.24462  0.87109  0.63967  1
