CIF file written using JARVIS-Tools package.
data_SmTmS2
_symmetry_space_group_name_H-M  'R-3m'
_cell_length_a       6.89846
_cell_length_b       6.89846
_cell_length_c       6.89847
_cell_angle_alpha    32.7209
_cell_angle_beta     32.7209
_cell_angle_gamma    32.7209

_symmetry_Int_Tables_number  166
_chemical_formula_structural  SmTmS2
_chemical_formula_sum  SmTmS2
_cell_volume  85.32493586989804
_cell_formula_units_Z  1
loop_
  _symmetry_equiv_pos_site_id
 _symmetry_equiv_pos_as_xyz
 1  'x, y, z'
loop_
 _atom_site_type_symbol
 _atom_site_label
 _atom_site_symmetry_multiplicity
 _atom_site_fract_x
 _atom_site_fract_y
 _atom_site_fract_z
 _atom_site_fract_occupancy
 S  S1  1  0.24449  0.24449  0.24449  1
 S  S2  1  0.75551  0.75551  0.75551  1
 Sm  Sm1  1  0.00000  0.00000  0.00000  1
 Tm  Tm1  1  0.50000  0.50000  0.50000  1
