CIF file written using JARVIS-Tools package.
data_H9C11
_symmetry_space_group_name_H-M  'P-1'
_cell_length_a       5.36635
_cell_length_b       5.69666
_cell_length_c       11.966
_cell_angle_alpha    82.5681
_cell_angle_beta     78.0384
_cell_angle_gamma    66.8054

_symmetry_Int_Tables_number  2
_chemical_formula_structural  H9C11
_chemical_formula_sum  H8C22
_cell_volume  328.47269212490244
_cell_formula_units_Z  2
loop_
  _symmetry_equiv_pos_site_id
 _symmetry_equiv_pos_as_xyz
 1  'x, y, z'
loop_
 _atom_site_type_symbol
 _atom_site_label
 _atom_site_symmetry_multiplicity
 _atom_site_fract_x
 _atom_site_fract_y
 _atom_site_fract_z
 _atom_site_fract_occupancy
 C  C1  1  0.67124  0.68038  0.09680  1
 C  C2  1  0.34887  0.76931  0.11442  1
 C  C3  1  0.36976  0.50000  0.17213  1
 C  C4  1  0.65113  0.23069  0.88558  1
 C  C5  1  0.64589  0.77934  0.21714  1
 C  C6  1  0.63024  0.50000  0.82787  1
 C  C7  1  0.35411  0.22066  0.78286  1
 C  C8  1  0.17015  0.55301  0.40054  1
 C  C9  1  0.69166  0.41058  0.15489  1
 C  C10  1  0.33329  0.49014  0.72509  1
 C  C11  1  0.65747  0.39829  0.70609  1
 C  C12  1  0.93745  0.74938  0.45367  1
 C  C13  1  0.06255  0.25062  0.54633  1
 C  C14  1  0.23063  0.30279  0.44917  1
 C  C15  1  0.76937  0.69721  0.55083  1
 C  C16  1  0.67685  0.13003  0.76554  1
 C  C17  1  0.82985  0.44699  0.59946  1
 C  C18  1  0.34253  0.60171  0.29391  1
 C  C19  1  0.30834  0.58942  0.84511  1
 C  C20  1  0.32315  0.86997  0.23446  1
 C  C21  1  0.32876  0.31962  0.90320  1
 C  C22  1  0.66671  0.50986  0.27491  1
 H  H1  1  0.17624  0.05426  0.26617  1
 H  H2  1  0.82376  0.94574  0.73383  1
 H  H3  1  0.22158  0.87192  0.04966  1
 H  H4  1  0.77842  0.12808  0.95034  1
 H  H5  1  0.74290  0.61181  0.84447  1
 H  H6  1  0.83890  0.22654  0.12302  1
 H  H7  1  0.16110  0.77346  0.87698  1
 H  H8  1  0.80264  0.71273  0.01843  1
 H  H9  1  0.25710  0.38819  0.15553  1
 H  H10  1  0.24291  0.10926  0.76445  1
 H  H11  1  0.78927  0.40755  0.34121  1
 H  H12  1  0.21073  0.59245  0.65879  1
 H  H13  1  0.88784  0.94558  0.41838  1
 H  H14  1  0.11216  0.05442  0.58162  1
 H  H15  1  0.40993  0.14646  0.40927  1
 H  H16  1  0.19736  0.28727  0.98157  1
 H  H17  1  0.75709  0.89074  0.23555  1
 H  H18  1  0.59007  0.85354  0.59073  1
