CIF file written using JARVIS-Tools package.
data_H4C4SO
_symmetry_space_group_name_H-M  'P1'
_cell_length_a       5.10468
_cell_length_b       6.42701
_cell_length_c       6.55667
_cell_angle_alpha    106.958
_cell_angle_beta     89.5063
_cell_angle_gamma    94.8387

_symmetry_Int_Tables_number  1
_chemical_formula_structural  H4C4SO
_chemical_formula_sum  H8C8S2O2
_cell_volume  204.9950802272394
_cell_formula_units_Z  2
loop_
  _symmetry_equiv_pos_site_id
 _symmetry_equiv_pos_as_xyz
 1  'x, y, z'
loop_
 _atom_site_type_symbol
 _atom_site_label
 _atom_site_symmetry_multiplicity
 _atom_site_fract_x
 _atom_site_fract_y
 _atom_site_fract_z
 _atom_site_fract_occupancy
 C  C1  1  0.84652  0.74081  0.64893  1
 C  C2  1  0.10139  0.74514  0.77058  1
 C  C3  1  0.10139  0.24514  0.27061  1
 C  C4  1  0.35178  0.26825  0.15365  1
 C  C5  1  0.59098  0.21419  0.25880  1
 C  C6  1  0.59098  0.71421  0.75878  1
 C  C7  1  0.35178  0.76825  0.65362  1
 C  C8  1  0.84652  0.24083  0.14897  1
 H  H1  1  0.32659  0.17174  0.98547  1
 H  H2  1  0.56607  0.54321  0.76468  1
 H  H3  1  0.60990  0.80971  0.92702  1
 H  H4  1  0.32660  0.67173  0.48544  1
 H  H5  1  0.37851  0.43910  0.14637  1
 H  H6  1  0.56608  0.04317  0.26465  1
 H  H7  1  0.60989  0.30965  0.42705  1
 H  H8  1  0.37849  0.93910  0.64632  1
 O  O1  1  0.85604  0.75086  0.46409  1
 O  O2  1  0.85605  0.25095  0.96415  1
 S  S1  1  0.08798  0.22810  0.51451  1
 S  S2  1  0.08797  0.72811  0.01448  1
