CIF file written using JARVIS-Tools package.
data_BaFe2P2
_symmetry_space_group_name_H-M  'I4/mmm'
_cell_length_a       3.82896
_cell_length_b       3.82896
_cell_length_c       6.73729
_cell_angle_alpha    106.509
_cell_angle_beta     106.509
_cell_angle_gamma    89.9999

_symmetry_Int_Tables_number  139
_chemical_formula_structural  BaFe2P2
_chemical_formula_sum  BaFe2P2
_cell_volume  90.44828168646754
_cell_formula_units_Z  1
loop_
  _symmetry_equiv_pos_site_id
 _symmetry_equiv_pos_as_xyz
 1  'x, y, z'
loop_
 _atom_site_type_symbol
 _atom_site_label
 _atom_site_symmetry_multiplicity
 _atom_site_fract_x
 _atom_site_fract_y
 _atom_site_fract_z
 _atom_site_fract_occupancy
 Ba  Ba1  1  0.00000  0.00000  0.00000  1
 Fe  Fe1  1  0.25000  0.75000  0.50000  1
 Fe  Fe2  1  0.75000  0.25000  0.50000  1
 P  P1  1  0.66073  0.66073  0.32145  1
 P  P2  1  0.33927  0.33927  0.67855  1
