CIF file written using JARVIS-Tools package.
data_LiAs3
_symmetry_space_group_name_H-M  'P6_3/mmc'
_cell_length_a       4.16437
_cell_length_b       4.16437
_cell_length_c       10.1777
_cell_angle_alpha    90
_cell_angle_beta     90
_cell_angle_gamma    120

_symmetry_Int_Tables_number  194
_chemical_formula_structural  LiAs3
_chemical_formula_sum  Li2As6
_cell_volume  152.85546098534707
_cell_formula_units_Z  2
loop_
  _symmetry_equiv_pos_site_id
 _symmetry_equiv_pos_as_xyz
 1  'x, y, z'
loop_
 _atom_site_type_symbol
 _atom_site_label
 _atom_site_symmetry_multiplicity
 _atom_site_fract_x
 _atom_site_fract_y
 _atom_site_fract_z
 _atom_site_fract_occupancy
 As  As1  1  0.33333  0.66667  0.56930  1
 As  As2  1  0.66667  0.33333  0.43070  1
 As  As3  1  0.66667  0.33333  0.06930  1
 As  As4  1  0.33333  0.66667  0.93070  1
 As  As5  1  0.00000  0.00000  0.25000  1
 As  As6  1  0.00000  0.00000  0.75000  1
 Li  Li1  1  0.33333  0.66667  0.25000  1
 Li  Li2  1  0.66667  0.33333  0.75000  1
