CIF file written using JARVIS-Tools package.
data_Nb2Pd
_symmetry_space_group_name_H-M  'Fmmm'
_cell_length_a       6.90568
_cell_length_b       6.80696
_cell_length_c       2.81792
_cell_angle_alpha    80.1133
_cell_angle_beta     76.1835
_cell_angle_gamma    23.7033

_symmetry_Int_Tables_number  69
_chemical_formula_structural  Nb2Pd
_chemical_formula_sum  Nb2Pd
_cell_volume  51.333020970805876
_cell_formula_units_Z  1
loop_
  _symmetry_equiv_pos_site_id
 _symmetry_equiv_pos_as_xyz
 1  'x, y, z'
loop_
 _atom_site_type_symbol
 _atom_site_label
 _atom_site_symmetry_multiplicity
 _atom_site_fract_x
 _atom_site_fract_y
 _atom_site_fract_z
 _atom_site_fract_occupancy
 Nb  Nb1  1  0.33726  0.33726  0.66274  1
 Nb  Nb2  1  0.66274  0.66274  0.33726  1
 Pd  Pd1  1  0.00000  0.00000  0.00000  1
