data_image0
_chemical_formula_structural       P4Pb4Se12
_chemical_formula_sum              "P4 Pb4 Se12"
_cell_length_a       9.85241
_cell_length_b       7.76198
_cell_length_c       7.06385
_cell_angle_alpha    90
_cell_angle_beta     91.7177
_cell_angle_gamma    90

_space_group_name_H-M_alt    "P 1"
_space_group_IT_number       1

loop_
  _space_group_symop_operation_xyz
  'x, y, z'

loop_
  _atom_site_type_symbol
  _atom_site_label
  _atom_site_symmetry_multiplicity
  _atom_site_fract_x
  _atom_site_fract_y
  _atom_site_fract_z
  _atom_site_occupancy
  P   P1        1.0  0.84300  0.64200  0.71700  1.0000
  P   P2        1.0  0.34300  0.35800  0.21700  1.0000
  P   P3        1.0  0.71500  0.85700  0.83600  1.0000
  P   P4        1.0  0.21500  0.14300  0.33600  1.0000
  Pb  Pb1       1.0  0.52800  0.35900  0.73900  1.0000
  Pb  Pb2       1.0  0.02790  0.64100  0.23900  1.0000
  Pb  Pb3       1.0  0.03040  0.14000  0.81300  1.0000
  Pb  Pb4       1.0  0.53000  0.86000  0.31300  1.0000
  Se  Se1       1.0  0.33600  0.55700  0.44100  1.0000
  Se  Se2       1.0  0.83600  0.44300  0.94100  1.0000
  Se  Se3       1.0  0.73500  0.54600  0.45700  1.0000
  Se  Se4       1.0  0.23500  0.45400  0.95700  1.0000
  Se  Se5       1.0  0.82300  0.95400  0.09560  1.0000
  Se  Se6       1.0  0.32300  0.04640  0.59600  1.0000
  Se  Se7       1.0  0.51300  0.74600  0.88600  1.0000
  Se  Se8       1.0  0.01320  0.25400  0.38600  1.0000
  Se  Se9       1.0  0.54500  0.24700  0.16700  1.0000
  Se  Se10      1.0  0.04490  0.75300  0.66700  1.0000
  Se  Se11      1.0  0.72300  0.05650  0.61200  1.0000
  Se  Se12      1.0  0.22300  0.94400  0.11200  1.0000
