CIF file written using JARVIS-Tools package.
data_RbTlO
_symmetry_space_group_name_H-M  'C2/m'
_cell_length_a       6.9595
_cell_length_b       6.95951
_cell_length_c       6.43624
_cell_angle_alpha    73.7414
_cell_angle_beta     73.7414
_cell_angle_gamma    31.0291

_symmetry_Int_Tables_number  12
_chemical_formula_structural  RbTlO
_chemical_formula_sum  Rb2Tl2O2
_cell_volume  153.75949446269286
_cell_formula_units_Z  2
loop_
  _symmetry_equiv_pos_site_id
 _symmetry_equiv_pos_as_xyz
 1  'x, y, z'
loop_
 _atom_site_type_symbol
 _atom_site_label
 _atom_site_symmetry_multiplicity
 _atom_site_fract_x
 _atom_site_fract_y
 _atom_site_fract_z
 _atom_site_fract_occupancy
 O  O1  1  0.24861  0.24861  0.21463  1
 O  O2  1  0.75139  0.75139  0.78537  1
 Rb  Rb1  1  0.87478  0.87478  0.34380  1
 Rb  Rb2  1  0.12522  0.12522  0.65620  1
 Tl  Tl1  1  0.64053  0.64053  0.14843  1
 Tl  Tl2  1  0.35947  0.35947  0.85157  1
