CIF file written using JARVIS-Tools package.
data_SnH6C4O4
_symmetry_space_group_name_H-M  'P-1'
_cell_length_a       5.18442
_cell_length_b       5.35286
_cell_length_c       6.02107
_cell_angle_alpha    99.8514
_cell_angle_beta     112.378
_cell_angle_gamma    96.7245

_symmetry_Int_Tables_number  2
_chemical_formula_structural  SnH6C4O4
_chemical_formula_sum  SnH6C4O4
_cell_volume  149.15544660997486
_cell_formula_units_Z  1
loop_
  _symmetry_equiv_pos_site_id
 _symmetry_equiv_pos_as_xyz
 1  'x, y, z'
loop_
 _atom_site_type_symbol
 _atom_site_label
 _atom_site_symmetry_multiplicity
 _atom_site_fract_x
 _atom_site_fract_y
 _atom_site_fract_z
 _atom_site_fract_occupancy
 C  C1  1  0.14393  0.49348  0.10376  1
 C  C2  1  0.67562  0.88389  0.84634  1
 C  C3  1  0.06124  0.15499  0.51590  1
 C  C4  1  0.75825  0.22234  0.43420  1
 H  H1  1  0.19762  0.30223  0.07675  1
 H  H2  1  0.92227  0.47955  0.07921  1
 H  H3  1  0.18752  0.60217  0.97975  1
 H  H4  1  0.63208  0.77524  -0.02960  1
 H  H5  1  0.89728  0.89781  0.87087  1
 H  H6  1  0.62193  0.07515  0.87333  1
 O  O1  1  0.06258  0.91556  0.48493  1
 O  O2  1  0.27722  0.33822  0.60905  1
 O  O3  1  0.54225  0.03912  0.34105  1
 O  O4  1  0.75693  0.46177  0.46518  1
 Sn  Sn1  1  0.40976  0.68866  0.47506  1
